title
 OpenBabel02282109593D

 17 16  0  0  1  0  0  0  0  0999 V2000
    1.4239    2.3872    0.0777 C   0  0  0  0  0  0  0  0  0  0  0  0
    1.3761    0.8589    0.0751 C   0  0  0  0  0  0  0  0  0  0  0  0
   -0.0422    0.2918    0.2902 C   0  0  1  0  0  0  0  0  0  0  0  0
   -0.9553    0.6659   -0.7897 C   0  0  0  0  0  0  0  0  0  0  0  0
   -1.6644    0.9536   -1.6566 N   0  0  0  0  0  0  0  0  0  0  0  0
   -0.0363   -1.2477    0.5330 C   0  0  0  0  0  0  0  0  0  0  0  0
   -1.3570   -1.9706    0.4047 C   0  0  0  0  0  0  0  0  0  0  0  0
    0.9878   -1.7982    0.8467 O   0  0  0  0  0  0  0  0  0  0  0  0
    2.4493    2.7366   -0.0720 H   0  0  0  0  0  0  0  0  0  0  0  0
    0.8055    2.8112   -0.7195 H   0  0  0  0  0  0  0  0  0  0  0  0
    1.0692    2.7955    1.0307 H   0  0  0  0  0  0  0  0  0  0  0  0
    1.7687    0.4656   -0.8683 H   0  0  0  0  0  0  0  0  0  0  0  0
    2.0048    0.4447    0.8667 H   0  0  0  0  0  0  0  0  0  0  0  0
   -0.4582    0.7190    1.2169 H   0  0  0  0  0  0  0  0  0  0  0  0
   -2.1447   -1.4485    0.9583 H   0  0  0  0  0  0  0  0  0  0  0  0
   -1.6705   -1.9841   -0.6447 H   0  0  0  0  0  0  0  0  0  0  0  0
   -1.2508   -2.9921    0.7701 H   0  0  0  0  0  0  0  0  0  0  0  0
  1 11  1  0  0  0  0
  2  1  1  0  0  0  0
  2  3  1  0  0  0  0
  2 13  1  0  0  0  0
  3  6  1  0  0  0  0
  3 14  1  1  0  0  0
  4  3  1  0  0  0  0
  5  4  3  0  0  0  0
  6  8  2  0  0  0  0
  7  6  1  0  0  0  0
  7 17  1  0  0  0  0
  7 15  1  0  0  0  0
  9  1  1  0  0  0  0
 10  1  1  0  0  0  0
 12  2  1  0  0  0  0
 16  7  1  0  0  0  0
M  END
