17
title
C 1.4239225 2.387152 0.077732176
C 1.3761431 0.85891837 0.07509093
C -0.042165495 0.29179323 0.29023504
C -0.9553441 0.6658801 -0.78965014
N -1.6643692 0.95357984 -1.6565653
C -0.03633795 -1.2476745 0.5329974
C -1.3570362 -1.9705918 0.40466493
O 0.98781866 -1.7982152 0.84666085
H 2.449272 2.7366216 -0.07200885
H 0.80554575 2.8111708 -0.7195283
H 1.0692172 2.7955234 1.0306789
H 1.7687457 0.4655898 -0.8683091
H 2.0047948 0.4446986 0.8667058
H -0.4581773 0.7190279 1.2168576
H -2.1447384 -1.4485083 0.9582864
H -1.670457 -1.9841022 -0.6446732
H -1.2507645 -2.992117 0.77012324
