17
title
C -0.3613523 2.2901769 1.5007582
C -0.3152419 0.7708155 1.3436297
C -0.2626797 0.30895242 -0.13500462
C 0.9540694 0.7446011 -0.812271
C 1.9680965 1.0946416 -1.3583826
C -0.5256122 -1.2188417 -0.20657252
N 0.3439417 -1.9401566 -0.95443547
O -1.4770876 -1.7032593 0.37409088
H 0.5204816 2.7644386 1.0592726
H -1.2479327 2.7116272 1.0136921
H -0.39971456 2.5671227 2.558492
H 0.5566274 0.3631146 1.8680096
H -1.2015623 0.30473343 1.7810097
H -1.1244403 0.7570079 -0.64998794
H 2.855781 1.4206082 -1.8422354
H 1.1360857 -1.5075248 -1.3982409
H 0.2052132 -2.9345248 -1.0227898
