15
title
C 0.9650729 2.2438343 0.35259512
C 1.0062253 0.8977012 -0.33013007
O 1.9732033 0.47999272 -0.9156464
C -0.28946733 0.04247973 -0.29925647
C -0.019776033 -1.4383814 -0.6694457
O -1.211705 -2.1768057 -0.7928355
C -0.99570835 0.12794815 0.9767135
N -1.5442941 0.14689569 1.99473
H 1.8786532 2.7950308 0.12916286
H 0.08811034 2.8157942 0.030463563
H 0.8693461 2.107922 1.4353569
H -0.954653 0.46231645 -1.0679774
H 0.4758888 -1.4552577 -1.6406337
H 0.671281 -1.8726144 0.065061525
H -1.5958583 -2.287566 0.084047064
