16
title
C -0.8454849 2.291357 1.3072207
C -0.75136477 0.77156734 1.1767393
C -0.23051184 0.30660284 -0.20544586
C 1.1402754 0.7486394 -0.4535422
N 2.2384307 1.0560756 -0.64847606
C -0.41994715 -1.2278011 -0.36181983
N 0.6519181 -1.9273827 -0.80341285
O -1.4965533 -1.7250364 -0.10540911
H 0.13189262 2.7685752 1.1837646
H -1.5229995 2.7126837 0.556467
H -1.2293744 2.5659661 2.2937293
H -0.09721696 0.36197 1.9543177
H -1.7303284 0.30270252 1.3003769
H -0.8679607 0.75412816 -0.9793342
H 1.5433646 -1.4960158 -0.98130447
H 0.5531942 -2.9233086 -0.9141982
