title
 OpenBabel02282109593D

 17 16  0  0  1  0  0  0  0  0999 V2000
   -0.3614    2.2902    1.5008 C   0  0  0  0  0  0  0  0  0  0  0  0
   -0.3152    0.7708    1.3436 C   0  0  0  0  0  0  0  0  0  0  0  0
   -0.2627    0.3090   -0.1350 C   0  0  1  0  0  0  0  0  0  0  0  0
    0.9541    0.7446   -0.8123 C   0  0  0  0  0  0  0  0  0  0  0  0
    1.9681    1.0946   -1.3584 C   0  0  0  0  0  0  0  0  0  0  0  0
   -0.5256   -1.2188   -0.2066 C   0  0  0  0  0  0  0  0  0  0  0  0
    0.3439   -1.9402   -0.9544 N   0  0  0  0  0  0  0  0  0  0  0  0
   -1.4771   -1.7033    0.3741 O   0  0  0  0  0  0  0  0  0  0  0  0
    0.5205    2.7644    1.0593 H   0  0  0  0  0  0  0  0  0  0  0  0
   -1.2479    2.7116    1.0137 H   0  0  0  0  0  0  0  0  0  0  0  0
   -0.3997    2.5671    2.5585 H   0  0  0  0  0  0  0  0  0  0  0  0
    0.5566    0.3631    1.8680 H   0  0  0  0  0  0  0  0  0  0  0  0
   -1.2016    0.3047    1.7810 H   0  0  0  0  0  0  0  0  0  0  0  0
   -1.1244    0.7570   -0.6500 H   0  0  0  0  0  0  0  0  0  0  0  0
    2.8558    1.4206   -1.8422 H   0  0  0  0  0  0  0  0  0  0  0  0
    1.1361   -1.5075   -1.3982 H   0  0  0  0  0  0  0  0  0  0  0  0
    0.2052   -2.9345   -1.0228 H   0  0  0  0  0  0  0  0  0  0  0  0
  1 11  1  0  0  0  0
  2  1  1  0  0  0  0
  2 13  1  0  0  0  0
  2 12  1  0  0  0  0
  3 14  1  6  0  0  0
  3  2  1  0  0  0  0
  4  3  1  0  0  0  0
  5  4  3  0  0  0  0
  6  3  1  0  0  0  0
  6  8  2  0  0  0  0
  7  6  1  0  0  0  0
  9  1  1  0  0  0  0
 10  1  1  0  0  0  0
 15  5  1  0  0  0  0
 16  7  1  0  0  0  0
 17  7  1  0  0  0  0
M  END
