15
title
N 1.4216388 2.2418659 0.09960799
C 1.3717967 0.7854514 0.046654344
C -0.070721656 0.29283464 0.30780074
C -0.983402 0.72860295 -0.74645066
N -1.7023075 1.0402488 -1.5977614
C -0.08035365 -1.240948 0.541843
N -1.0644839 -1.9380634 -0.07406041
O 0.753708 -1.7413933 1.2673808
H 2.3868017 2.552535 0.12984319
H 1.015431 2.6429799 -0.74085677
H 1.7284142 0.34199837 -0.896883
H 1.9803319 0.37107483 0.85267097
H -0.40020064 0.7532847 1.2470554
H -1.7148194 -1.5076287 -0.70976436
H -1.0946338 -2.9350886 0.063725784
