title
 OpenBabel02282109593D

 14 13  0  0  1  0  0  0  0  0999 V2000
    2.0090    1.4550    0.0100 C   0  0  0  0  0  0  0  0  0  0  0  0
    1.0405    0.7453   -0.7527 O   0  0  0  0  0  0  0  0  0  0  0  0
   -0.1634    0.5236   -0.0493 C   0  0  1  0  0  0  0  0  0  0  0  0
   -1.2330    0.3168   -1.0351 C   0  0  0  0  0  0  0  0  0  0  0  0
   -2.0746    0.1403   -1.8056 N   0  0  0  0  0  0  0  0  0  0  0  0
   -0.1144   -0.7088    0.9078 C   0  0  0  0  0  0  0  0  0  0  0  0
    0.8282   -1.6135    0.5550 N   0  0  0  0  0  0  0  0  0  0  0  0
   -0.8678   -0.7949    1.8503 O   0  0  0  0  0  0  0  0  0  0  0  0
    2.8800    1.5805   -0.6353 H   0  0  0  0  0  0  0  0  0  0  0  0
    1.6318    2.4437    0.3032 H   0  0  0  0  0  0  0  0  0  0  0  0
    2.3029    0.9014    0.9115 H   0  0  0  0  0  0  0  0  0  0  0  0
   -0.4347    1.3829    0.5790 H   0  0  0  0  0  0  0  0  0  0  0  0
    1.3730   -1.4759   -0.2799 H   0  0  0  0  0  0  0  0  0  0  0  0
    0.8906   -2.4789    1.0653 H   0  0  0  0  0  0  0  0  0  0  0  0
  1 10  1  0  0  0  0
  1 11  1  0  0  0  0
  2  3  1  0  0  0  0
  2  1  1  0  0  0  0
  3 12  1  1  0  0  0
  3  6  1  0  0  0  0
  4  3  1  0  0  0  0
  5  4  3  0  0  0  0
  6  8  2  0  0  0  0
  7  6  1  0  0  0  0
  7 14  1  0  0  0  0
  9  1  1  0  0  0  0
 13  7  1  0  0  0  0
M  END
