title
 OpenBabel02282109593D

 20 19  0  0  1  0  0  0  0  0999 V2000
    1.5666    0.3577    1.6797 C   0  0  0  0  0  0  0  0  0  0  0  0
    0.9491    0.5674    0.2919 C   0  0  0  0  0  0  0  0  0  0  0  0
    1.8266   -0.0532   -0.8020 C   0  0  0  0  0  0  0  0  0  0  0  0
   -0.5196    0.0480    0.2628 C   0  0  1  0  0  0  0  0  0  0  0  0
   -1.2881    0.4711   -1.0020 C   0  0  0  0  0  0  0  0  0  0  0  0
   -1.2741    1.8885   -1.0596 O   0  0  0  0  0  0  0  0  0  0  0  0
   -0.6127   -1.4008    0.4310 C   0  0  0  0  0  0  0  0  0  0  0  0
   -0.6920   -2.5954    0.5464 C   0  0  0  0  0  0  0  0  0  0  0  0
    2.5760    0.7791    1.7221 H   0  0  0  0  0  0  0  0  0  0  0  0
    0.9691    0.8414    2.4601 H   0  0  0  0  0  0  0  0  0  0  0  0
    1.6358   -0.7080    1.9226 H   0  0  0  0  0  0  0  0  0  0  0  0
    0.8745    1.6435    0.1039 H   0  0  0  0  0  0  0  0  0  0  0  0
    1.8813   -1.1414   -0.6930 H   0  0  0  0  0  0  0  0  0  0  0  0
    1.4511    0.1683   -1.8056 H   0  0  0  0  0  0  0  0  0  0  0  0
    2.8451    0.3433   -0.7409 H   0  0  0  0  0  0  0  0  0  0  0  0
   -1.0402    0.5235    1.1061 H   0  0  0  0  0  0  0  0  0  0  0  0
   -0.8206    0.0236   -1.8907 H   0  0  0  0  0  0  0  0  0  0  0  0
   -2.3144    0.0816   -0.9379 H   0  0  0  0  0  0  0  0  0  0  0  0
   -1.7238    2.1623   -1.8639 H   0  0  0  0  0  0  0  0  0  0  0  0
   -0.7652   -3.6484    0.6619 H   0  0  0  0  0  0  0  0  0  0  0  0
  1  9  1  0  0  0  0
  1 11  1  0  0  0  0
  1 10  1  0  0  0  0
  2  1  1  0  0  0  0
  3 15  1  0  0  0  0
  3 13  1  0  0  0  0
  3  2  1  0  0  0  0
  4  2  1  0  0  0  0
  4  7  1  0  0  0  0
  4 16  1  1  0  0  0
  5 18  1  0  0  0  0
  5  4  1  0  0  0  0
  6  5  1  0  0  0  0
  7  8  3  0  0  0  0
  8 20  1  0  0  0  0
 12  2  1  0  0  0  0
 14  3  1  0  0  0  0
 17  5  1  0  0  0  0
 19  6  1  0  0  0  0
M  END
