17
title
C 1.216038 2.1182716 -0.5609411
C 1.1951094 0.59437054 -0.46362668
O 1.8826481 0.1216581 0.6824499
C -0.24303935 0.006788033 -0.5275611
C -0.22900449 -1.5387958 -0.63432497
O -1.5233094 -2.092201 -0.7003348
C -1.0001508 0.40352792 0.6618133
N -1.5645653 0.6851403 1.631603
H 2.2469563 2.4762585 -0.5032607
H 0.78015846 2.4619153 -1.5043778
H 0.6460855 2.570858 0.2584892
H 1.7424011 0.16972952 -1.3133899
H 1.4969143 0.5462571 1.4587231
H -0.76131713 0.4051785 -1.4077307
H 0.2707546 -1.8075253 -1.5701234
H 0.36373433 -1.9436933 0.19489206
H -1.9364437 -1.9994336 0.16528566
