title
 OpenBabel02282109593D

 15 14  0  0  1  0  0  0  0  0999 V2000
   -0.9005    2.2589   -0.8994 C   0  0  0  0  0  0  0  0  0  0  0  0
   -0.5593    0.8878   -1.0334 O   0  0  0  0  0  0  0  0  0  0  0  0
    0.2053    0.3858    0.0138 C   0  0  1  0  0  0  0  0  0  0  0  0
   -0.5520    0.3076    1.2821 C   0  0  0  0  0  0  0  0  0  0  0  0
   -1.1557    0.2480    2.2660 N   0  0  0  0  0  0  0  0  0  0  0  0
    0.7623   -1.0173   -0.3897 C   0  0  0  0  0  0  0  0  0  0  0  0
    1.4769   -1.7792    0.7029 C   0  0  0  0  0  0  0  0  0  0  0  0
    0.6351   -1.4086   -1.5154 O   0  0  0  0  0  0  0  0  0  0  0  0
   -0.0010    2.8878   -0.8269 H   0  0  0  0  0  0  0  0  0  0  0  0
   -1.4549    2.5274   -1.7998 H   0  0  0  0  0  0  0  0  0  0  0  0
   -1.5315    2.4369   -0.0187 H   0  0  0  0  0  0  0  0  0  0  0  0
    1.0919    1.0187    0.2097 H   0  0  0  0  0  0  0  0  0  0  0  0
    0.7469   -2.1566    1.4272 H   0  0  0  0  0  0  0  0  0  0  0  0
    2.0176   -2.6176    0.2633 H   0  0  0  0  0  0  0  0  0  0  0  0
    2.1670   -1.1320    1.2547 H   0  0  0  0  0  0  0  0  0  0  0  0
  1  9  1  0  0  0  0
  1 11  1  0  0  0  0
  2  1  1  0  0  0  0
  2  3  1  0  0  0  0
  3 12  1  1  0  0  0
  3  4  1  0  0  0  0
  4  5  3  0  0  0  0
  6  3  1  0  0  0  0
  6  7  1  0  0  0  0
  7 15  1  0  0  0  0
  7 13  1  0  0  0  0
  8  6  2  0  0  0  0
 10  1  1  0  0  0  0
 14  7  1  0  0  0  0
M  END
