title
 OpenBabel02282109593D

 19 18  0  0  1  0  0  0  0  0999 V2000
   -0.8739    2.0943    1.0533 C   0  0  0  0  0  0  0  0  0  0  0  0
   -0.8159    0.5622    0.9719 C   0  0  0  0  0  0  0  0  0  0  0  0
   -2.2299   -0.0338    0.9953 C   0  0  0  0  0  0  0  0  0  0  0  0
   -0.0332    0.0940   -0.2864 C   0  0  1  0  0  0  0  0  0  0  0  0
    1.4207    0.6306   -0.3671 C   0  0  0  0  0  0  0  0  0  0  0  0
    2.1095    0.1626   -1.5029 O   0  0  0  0  0  0  0  0  0  0  0  0
    0.0327   -1.3696   -0.3566 C   0  0  0  0  0  0  0  0  0  0  0  0
    0.1496   -2.5192   -0.4098 N   0  0  0  0  0  0  0  0  0  0  0  0
    0.1131    2.5477    1.1763 H   0  0  0  0  0  0  0  0  0  0  0  0
   -1.3327    2.5189    0.1525 H   0  0  0  0  0  0  0  0  0  0  0  0
   -1.4833    2.4002    1.9090 H   0  0  0  0  0  0  0  0  0  0  0  0
   -0.2716    0.1883    1.8493 H   0  0  0  0  0  0  0  0  0  0  0  0
   -2.8187    0.3225    0.1419 H   0  0  0  0  0  0  0  0  0  0  0  0
   -2.2098   -1.1264    0.9587 H   0  0  0  0  0  0  0  0  0  0  0  0
   -2.7543    0.2642    1.9081 H   0  0  0  0  0  0  0  0  0  0  0  0
   -0.5627    0.4380   -1.1849 H   0  0  0  0  0  0  0  0  0  0  0  0
    1.3921    1.7181   -0.4596 H   0  0  0  0  0  0  0  0  0  0  0  0
    1.9460    0.3831    0.5683 H   0  0  0  0  0  0  0  0  0  0  0  0
    2.2049   -0.7940   -1.4255 H   0  0  0  0  0  0  0  0  0  0  0  0
  1  9  1  0  0  0  0
  1 11  1  0  0  0  0
  2  3  1  0  0  0  0
  2  1  1  0  0  0  0
  2 12  1  0  0  0  0
  3 15  1  0  0  0  0
  4 16  1  6  0  0  0
  4  2  1  0  0  0  0
  5  4  1  0  0  0  0
  5 18  1  0  0  0  0
  6 19  1  0  0  0  0
  6  5  1  0  0  0  0
  7  4  1  0  0  0  0
  8  7  3  0  0  0  0
 10  1  1  0  0  0  0
 13  3  1  0  0  0  0
 14  3  1  0  0  0  0
 17  5  1  0  0  0  0
M  END
