18
title
C 0.74471205 2.0562735 0.68981594
N 0.7823623 0.6295992 0.37146392
C 1.6974641 -0.07006149 1.2733011
C -0.57469046 0.058288887 0.31339392
C -1.2703011 0.5247081 -0.9921382
O -0.46097994 0.26241413 -2.1064816
C -0.5409559 -1.4115683 0.32870263
N -0.5646137 -2.566227 0.35082725
H 1.7616725 2.454728 0.6527381
H 0.14582215 2.6054533 -0.039221305
H 0.33451146 2.2551506 1.6963387
H 1.3852524 -0.011654839 2.330698
H 1.7778271 -1.121283 0.99391466
H 2.6878955 0.38494858 1.186987
H -1.1881194 0.37077633 1.1795857
H -2.211819 -0.01886569 -1.1140636
H -1.5176036 1.5933936 -0.8971028
H 0.44544703 0.4392945 -1.8134687
