19
title
C 1.1522037 0.46235213 1.8352014
N 0.8136469 0.5254746 0.41719586
C 1.8614383 -0.066809244 -0.41048688
C -0.53498 0.03079813 0.14025317
C -1.0869758 0.5638008 -1.1954507
N -1.1533862 2.0180252 -1.1114595
C -0.6319129 -1.4484705 0.19888562
N -0.6546244 -2.6034715 0.24939108
H 2.1144357 0.95687467 1.9969431
H 0.3951074 0.99214524 2.4207852
H 1.2303275 -0.56987303 2.2184596
H 2.0140326 -1.1409647 -0.2128158
H 1.6284678 0.055394225 -1.4709129
H 2.801698 0.45564368 -0.21307532
H -1.1871079 0.43336526 0.9231321
H -0.48034817 0.1684835 -2.026464
H -2.0973556 0.161968 -1.3280307
H -0.22616725 2.3708775 -0.8938661
H -1.4287862 2.410736 -2.0051796
