20
title
C -1.1819152 2.3841214 1.0064911
C -1.1799619 0.85927427 0.8943536
C -0.371522 0.3170454 -0.30720103
C 1.0329026 0.72172123 -0.2392056
C 2.2004423 1.000214 -0.1454401
C -0.4632882 -1.2352761 -0.3907349
C 0.09684479 -1.7933766 -1.6988878
O 0.14324057 -1.8412396 0.74013245
H -0.16675085 2.7724597 1.1301353
H -1.6102748 2.849178 0.111173145
H -1.7754582 2.7096133 1.8661907
H -0.77905244 0.4059397 1.8059956
H -2.2088668 0.49397582 0.7894857
H -0.8067276 0.72605586 -1.2302911
H 3.2238188 1.2777811 -0.083012946
H -1.5250849 -1.4971763 -0.31354272
H 0.02875829 -2.8843026 -1.6939249
H -0.4594801 -1.4135915 -2.5625753
H 1.1479384 -1.5117761 -1.8225343
H 1.0668913 -1.5585991 0.7487397
