title
 OpenBabel02282109593D

 20 19  0  0  1  0  0  0  0  0999 V2000
    0.0760    2.3726    1.2828 C   0  0  0  0  0  0  0  0  0  0  0  0
    0.1281    0.8576    1.4856 C   0  0  0  0  0  0  0  0  0  0  0  0
    0.5168    0.1024    0.1962 C   0  0  1  0  0  0  0  0  0  0  0  0
    0.6726   -1.3496    0.4817 C   0  0  0  0  0  0  0  0  0  0  0  0
    0.7522   -2.4885    0.6665 N   0  0  0  0  0  0  0  0  0  0  0  0
   -0.3816    0.3574   -0.9261 N   0  0  0  0  0  0  0  0  0  0  0  0
    0.1975   -0.0370   -2.2053 C   0  0  0  0  0  0  0  0  0  0  0  0
   -1.7296   -0.1767   -0.7595 C   0  0  0  0  0  0  0  0  0  0  0  0
    1.0522    2.7628    0.9746 H   0  0  0  0  0  0  0  0  0  0  0  0
   -0.6469    2.6418    0.5095 H   0  0  0  0  0  0  0  0  0  0  0  0
   -0.2053    2.8746    2.2129 H   0  0  0  0  0  0  0  0  0  0  0  0
    0.8676    0.5999    2.2514 H   0  0  0  0  0  0  0  0  0  0  0  0
   -0.8315    0.4846    1.8575 H   0  0  0  0  0  0  0  0  0  0  0  0
    1.5064    0.4654   -0.1089 H   0  0  0  0  0  0  0  0  0  0  0  0
    0.3387   -1.1275   -2.3042 H   0  0  0  0  0  0  0  0  0  0  0  0
   -0.4596    0.2947   -3.0144 H   0  0  0  0  0  0  0  0  0  0  0  0
    1.1695    0.4483   -2.3376 H   0  0  0  0  0  0  0  0  0  0  0  0
   -2.1877    0.2135    0.1522 H   0  0  0  0  0  0  0  0  0  0  0  0
   -2.3424    0.1499   -1.6043 H   0  0  0  0  0  0  0  0  0  0  0  0
   -1.7588   -1.2789   -0.7184 H   0  0  0  0  0  0  0  0  0  0  0  0
  1  2  1  0  0  0  0
  1 11  1  0  0  0  0
  2 13  1  0  0  0  0
  2 12  1  0  0  0  0
  3 14  1  6  0  0  0
  3  4  1  0  0  0  0
  3  2  1  0  0  0  0
  4  5  3  0  0  0  0
  6  8  1  0  0  0  0
  6  3  1  0  0  0  0
  7  6  1  0  0  0  0
  8 20  1  0  0  0  0
  8 18  1  0  0  0  0
  9  1  1  0  0  0  0
 10  1  1  0  0  0  0
 15  7  1  0  0  0  0
 16  7  1  0  0  0  0
 17  7  1  0  0  0  0
 19  8  1  0  0  0  0
M  END
