title
 OpenBabel02282109593D

 20 19  0  0  1  0  0  0  0  0999 V2000
   -1.1819    2.3841    1.0065 C   0  0  0  0  0  0  0  0  0  0  0  0
   -1.1800    0.8593    0.8944 C   0  0  0  0  0  0  0  0  0  0  0  0
   -0.3715    0.3170   -0.3072 C   0  0  1  0  0  0  0  0  0  0  0  0
    1.0329    0.7217   -0.2392 C   0  0  0  0  0  0  0  0  0  0  0  0
    2.2004    1.0002   -0.1454 C   0  0  0  0  0  0  0  0  0  0  0  0
   -0.4633   -1.2353   -0.3907 C   0  0  1  0  0  0  0  0  0  0  0  0
    0.0968   -1.7934   -1.6989 C   0  0  0  0  0  0  0  0  0  0  0  0
    0.1432   -1.8412    0.7401 O   0  0  0  0  0  0  0  0  0  0  0  0
   -0.1668    2.7725    1.1301 H   0  0  0  0  0  0  0  0  0  0  0  0
   -1.6103    2.8492    0.1112 H   0  0  0  0  0  0  0  0  0  0  0  0
   -1.7755    2.7096    1.8662 H   0  0  0  0  0  0  0  0  0  0  0  0
   -0.7791    0.4059    1.8060 H   0  0  0  0  0  0  0  0  0  0  0  0
   -2.2089    0.4940    0.7895 H   0  0  0  0  0  0  0  0  0  0  0  0
   -0.8067    0.7261   -1.2303 H   0  0  0  0  0  0  0  0  0  0  0  0
    3.2238    1.2778   -0.0830 H   0  0  0  0  0  0  0  0  0  0  0  0
   -1.5251   -1.4972   -0.3135 H   0  0  0  0  0  0  0  0  0  0  0  0
    0.0288   -2.8843   -1.6939 H   0  0  0  0  0  0  0  0  0  0  0  0
   -0.4595   -1.4136   -2.5626 H   0  0  0  0  0  0  0  0  0  0  0  0
    1.1479   -1.5118   -1.8225 H   0  0  0  0  0  0  0  0  0  0  0  0
    1.0669   -1.5586    0.7487 H   0  0  0  0  0  0  0  0  0  0  0  0
  1  9  1  0  0  0  0
  1 11  1  0  0  0  0
  2  1  1  0  0  0  0
  2 12  1  0  0  0  0
  3 14  1  6  0  0  0
  3  4  1  0  0  0  0
  3  2  1  0  0  0  0
  4  5  3  0  0  0  0
  5 15  1  0  0  0  0
  6 16  1  1  0  0  0
  6  3  1  0  0  0  0
  6  8  1  0  0  0  0
  7 17  1  0  0  0  0
  7  6  1  0  0  0  0
  8 20  1  0  0  0  0
 10  1  1  0  0  0  0
 13  2  1  0  0  0  0
 18  7  1  0  0  0  0
 19  7  1  0  0  0  0
M  END
