18
title
C 1.24316 2.3641455 -0.18242678
N 1.2459493 0.93568593 0.13090873
C -0.064416826 0.3002151 0.084159814
C -0.65419644 0.30809936 -1.2763888
N -1.035813 0.3721968 -2.3659525
C -0.00052779674 -1.1485658 0.6404585
C 0.42011034 -1.1654072 2.1063035
O -1.2266077 -1.8212364 0.4222475
H 2.2707133 2.735282 -0.15064451
H 0.81315523 2.6062167 -1.1664138
H 0.6700807 2.9005225 0.5815462
H 1.8714601 0.4495343 -0.50465053
H -0.7370054 0.8798646 0.73215216
H 0.7325629 -1.7007442 0.039278574
H 0.5049415 -2.1968837 2.4571466
H 1.3747804 -0.65390265 2.2424877
H -0.32724172 -0.6526469 2.726015
H -1.8746513 -1.4809706 1.0493836
