17
title
C -1.1720212 2.3236947 1.2346919
C -0.8772103 0.82067394 1.2378776
C -0.20971332 0.33723608 -0.052589003
C 1.2364428 0.79666555 -0.16759914
O 1.9482405 0.5966884 -1.123545
C -0.32327342 -1.2049817 -0.22688824
N 0.25434017 -1.6779838 -1.3632532
O -0.9304427 -1.8935828 0.5664152
H -0.26407808 2.9254377 1.1122112
H -1.8530222 2.5895233 0.41833007
H -1.6424938 2.629877 2.173471
H -0.23557357 0.5618174 2.0894656
H -1.7966573 0.24934644 1.3800426
H -0.7227589 0.7637215 -0.927049
H 1.6278391 1.3413508 0.7184952
H 0.9281235 -1.1008197 -1.8470472
H 0.30566418 -2.6792324 -1.4667183
