18
title
C -1.132696 2.2934177 1.2453696
C -0.93113494 0.77558583 1.2143027
C -0.27265206 0.28683087 -0.07976746
C 1.178223 0.7519871 -0.19095778
O 1.7776905 0.88718706 -1.2259274
C -0.24476269 -1.2578412 -0.17511475
C -0.08189687 -1.8239152 -1.5679798
O -0.34406474 -1.9422474 0.8139725
H -0.18288746 2.8332372 1.1585745
H -1.7739203 2.6260636 0.42168373
H -1.6039377 2.6053984 2.1818762
H -0.3185033 0.45107535 2.0627325
H -1.8911078 0.26428992 1.3353064
H -0.78673524 0.6657541 -0.97104836
H 1.6730918 0.9278675 0.7906259
H 0.6929349 -1.2792311 -2.115923
H 0.14956048 -2.8884692 -1.5169775
H -1.0192204 -1.6862984 -2.120923
