title
 OpenBabel02282109593D

 18 17  0  0  1  0  0  0  0  0999 V2000
    1.5547    1.1943   -1.6528 C   0  0  0  0  0  0  0  0  0  0  0  0
    1.1587    0.8303   -0.3463 O   0  0  0  0  0  0  0  0  0  0  0  0
   -0.0707    0.1277   -0.2893 C   0  0  1  0  0  0  0  0  0  0  0  0
    0.0219   -1.1939   -0.9224 C   0  0  0  0  0  0  0  0  0  0  0  0
    0.1363   -2.2655   -1.4543 C   0  0  0  0  0  0  0  0  0  0  0  0
   -0.4614    0.0224    1.1983 C   0  0  1  0  0  0  0  0  0  0  0  0
   -0.5113    1.3913    1.8716 C   0  0  0  0  0  0  0  0  0  0  0  0
   -1.7302   -0.6167    1.2052 O   0  0  0  0  0  0  0  0  0  0  0  0
    2.4927    1.7455   -1.5568 H   0  0  0  0  0  0  0  0  0  0  0  0
    1.7153    0.3140   -2.2886 H   0  0  0  0  0  0  0  0  0  0  0  0
    0.8058    1.8424   -2.1338 H   0  0  0  0  0  0  0  0  0  0  0  0
   -0.8616    0.7065   -0.7972 H   0  0  0  0  0  0  0  0  0  0  0  0
    0.2225   -3.2169   -1.9181 H   0  0  0  0  0  0  0  0  0  0  0  0
    0.2962   -0.6056    1.6911 H   0  0  0  0  0  0  0  0  0  0  0  0
    0.4608    1.8851    1.8192 H   0  0  0  0  0  0  0  0  0  0  0  0
   -1.2595    2.0264    1.3858 H   0  0  0  0  0  0  0  0  0  0  0  0
   -0.7888    1.2833    2.9262 H   0  0  0  0  0  0  0  0  0  0  0  0
   -1.9894   -0.7493    2.1217 H   0  0  0  0  0  0  0  0  0  0  0  0
  1  9  1  0  0  0  0
  1  2  1  0  0  0  0
  2  3  1  0  0  0  0
  3 12  1  6  0  0  0
  3  6  1  0  0  0  0
  4  3  1  0  0  0  0
  5  4  3  0  0  0  0
  6  8  1  0  0  0  0
  6 14  1  1  0  0  0
  6  7  1  0  0  0  0
  7 17  1  0  0  0  0
  8 18  1  0  0  0  0
 10  1  1  0  0  0  0
 11  1  1  0  0  0  0
 13  5  1  0  0  0  0
 15  7  1  0  0  0  0
 16  7  1  0  0  0  0
M  END
