title
 OpenBabel02282109593D

 16 15  0  0  1  0  0  0  0  0999 V2000
    0.0252    2.2400    0.9085 C   0  0  0  0  0  0  0  0  0  0  0  0
    0.1626    0.7437    1.0605 C   0  0  0  0  0  0  0  0  0  0  0  0
    0.1593    0.1777    2.1284 O   0  0  0  0  0  0  0  0  0  0  0  0
    0.3127   -0.0548   -0.2488 C   0  0  1  0  0  0  0  0  0  0  0  0
    0.8690   -1.4500   -0.0046 C   0  0  0  0  0  0  0  0  0  0  0  0
    1.0198   -2.0510   -1.2828 O   0  0  0  0  0  0  0  0  0  0  0  0
   -1.0522   -0.1276   -0.9406 C   0  0  0  0  0  0  0  0  0  0  0  0
   -1.5903    0.8058   -1.4759 O   0  0  0  0  0  0  0  0  0  0  0  0
    0.9925    2.6583    0.6040 H   0  0  0  0  0  0  0  0  0  0  0  0
   -0.6872    2.4772    0.1126 H   0  0  0  0  0  0  0  0  0  0  0  0
   -0.2772    2.6876    1.8559 H   0  0  0  0  0  0  0  0  0  0  0  0
    0.9677    0.5069   -0.9249 H   0  0  0  0  0  0  0  0  0  0  0  0
    1.8227   -1.3852    0.5361 H   0  0  0  0  0  0  0  0  0  0  0  0
    0.1727   -2.0113    0.6343 H   0  0  0  0  0  0  0  0  0  0  0  0
    1.2898   -2.9657   -1.1590 H   0  0  0  0  0  0  0  0  0  0  0  0
   -1.5368   -1.1253   -0.8888 H   0  0  0  0  0  0  0  0  0  0  0  0
  1  2  1  0  0  0  0
  1 11  1  0  0  0  0
  2  3  2  0  0  0  0
  4 12  1  6  0  0  0
  4  5  1  0  0  0  0
  4  2  1  0  0  0  0
  5 13  1  0  0  0  0
  5 14  1  0  0  0  0
  6 15  1  0  0  0  0
  6  5  1  0  0  0  0
  7 16  1  0  0  0  0
  7  4  1  0  0  0  0
  8  7  2  0  0  0  0
  9  1  1  0  0  0  0
 10  1  1  0  0  0  0
M  END
