title
 OpenBabel02282109593D

 18 17  0  0  0  0  0  0  0  0999 V2000
   -0.6371    0.4265    2.4722 C   0  0  0  0  0  0  0  0  0  0  0  0
    0.2053   -0.5290    1.6275 C   0  0  0  0  0  0  0  0  0  0  0  0
    0.3221   -0.1121    0.2184 N   0  0  0  0  0  0  0  0  0  0  0  0
    1.4550    0.5915   -0.1443 C   0  0  0  0  0  0  0  0  0  0  0  0
    1.7222    1.0558   -1.2282 O   0  0  0  0  0  0  0  0  0  0  0  0
   -0.7414   -0.4389   -0.6540 C   0  0  0  0  0  0  0  0  0  0  0  0
   -0.6262   -0.0452   -2.1063 C   0  0  0  0  0  0  0  0  0  0  0  0
   -1.7325   -1.0592   -0.1408 N   0  0  0  0  0  0  0  0  0  0  0  0
   -0.2123    1.4355    2.4705 H   0  0  0  0  0  0  0  0  0  0  0  0
   -1.6585    0.4720    2.0904 H   0  0  0  0  0  0  0  0  0  0  0  0
   -0.6714    0.0741    3.5079 H   0  0  0  0  0  0  0  0  0  0  0  0
    1.2208   -0.5981    2.0280 H   0  0  0  0  0  0  0  0  0  0  0  0
   -0.2327   -1.5272    1.6381 H   0  0  0  0  0  0  0  0  0  0  0  0
    2.1389    0.6910    0.7196 H   0  0  0  0  0  0  0  0  0  0  0  0
   -0.5472    1.0374   -2.2219 H   0  0  0  0  0  0  0  0  0  0  0  0
    0.2706   -0.4636   -2.5673 H   0  0  0  0  0  0  0  0  0  0  0  0
   -1.5118   -0.4061   -2.6346 H   0  0  0  0  0  0  0  0  0  0  0  0
   -2.4286   -1.2557   -0.8572 H   0  0  0  0  0  0  0  0  0  0  0  0
  1 11  1  0  0  0  0
  2 13  1  0  0  0  0
  2 12  1  0  0  0  0
  2  1  1  0  0  0  0
  3  2  1  0  0  0  0
  4  3  1  0  0  0  0
  4 14  1  0  0  0  0
  5  4  2  0  0  0  0
  6  8  2  0  0  0  0
  6  3  1  0  0  0  0
  7  6  1  0  0  0  0
  9  1  1  0  0  0  0
 10  1  1  0  0  0  0
 15  7  1  0  0  0  0
 16  7  1  0  0  0  0
 17  7  1  0  0  0  0
 18  8  1  0  0  0  0
M  END
