19
title
C 1.1970692 2.2428784 -0.2709389
O 1.1638992 0.88024586 0.11621031
C -0.11111843 0.2856204 0.04697168
C -0.55628693 0.17999095 -1.3639495
N -0.8862659 0.112794876 -2.4695776
C -0.048379414 -1.0984199 0.72687006
C 0.40947032 -0.94374776 2.1820972
C -1.3955511 -1.8250566 0.63453305
H 2.225821 2.5818262 -0.13592422
H 0.9100989 2.3732362 -1.3227973
H 0.5310328 2.8532882 0.35673025
H -0.8544916 0.9093799 0.5741215
H 0.70626485 -1.6760159 0.17922533
H -0.32597053 -0.3754717 2.764491
H 0.51479197 -1.926486 2.6511872
H 1.3676839 -0.42518592 2.2425652
H -1.7143296 -1.9684801 -0.40144208
H -1.322719 -2.8101995 1.1040391
H -2.181224 -1.2674508 1.1580528
