18
title
C 1.5546873 1.194313 -1.6528094
O 1.1587272 0.8302776 -0.34625658
C -0.07073931 0.12772496 -0.28934866
C 0.021868309 -1.1938665 -0.9223522
C 0.13626511 -2.265454 -1.4543265
C -0.4613786 0.022439318 1.1983135
C -0.5113345 1.3912834 1.8715738
O -1.7301701 -0.6166678 1.2051634
H 2.492739 1.7454958 -1.5567956
H 1.7153406 0.31401026 -2.2886431
H 0.80580205 1.8424199 -2.1337924
H -0.8616299 0.7064958 -0.7972476
H 0.22249408 -3.2169466 -1.9181033
H 0.2961943 -0.6055903 1.6911136
H 0.46081665 1.8850698 1.819194
H -1.2595083 2.0263708 1.3857856
H -0.7888493 1.283305 2.9262297
H -1.989415 -0.749348 2.1217434
