title
 OpenBabel02282109593D

 17 16  0  0  1  0  0  0  0  0999 V2000
   -1.1720    2.3237    1.2347 C   0  0  0  0  0  0  0  0  0  0  0  0
   -0.8772    0.8207    1.2379 C   0  0  0  0  0  0  0  0  0  0  0  0
   -0.2097    0.3372   -0.0526 C   0  0  1  0  0  0  0  0  0  0  0  0
    1.2364    0.7967   -0.1676 C   0  0  0  0  0  0  0  0  0  0  0  0
    1.9482    0.5967   -1.1235 O   0  0  0  0  0  0  0  0  0  0  0  0
   -0.3233   -1.2050   -0.2269 C   0  0  0  0  0  0  0  0  0  0  0  0
    0.2543   -1.6780   -1.3633 N   0  0  0  0  0  0  0  0  0  0  0  0
   -0.9304   -1.8936    0.5664 O   0  0  0  0  0  0  0  0  0  0  0  0
   -0.2641    2.9254    1.1122 H   0  0  0  0  0  0  0  0  0  0  0  0
   -1.8530    2.5895    0.4183 H   0  0  0  0  0  0  0  0  0  0  0  0
   -1.6425    2.6299    2.1735 H   0  0  0  0  0  0  0  0  0  0  0  0
   -0.2356    0.5618    2.0895 H   0  0  0  0  0  0  0  0  0  0  0  0
   -1.7967    0.2493    1.3800 H   0  0  0  0  0  0  0  0  0  0  0  0
   -0.7228    0.7637   -0.9270 H   0  0  0  0  0  0  0  0  0  0  0  0
    1.6278    1.3414    0.7185 H   0  0  0  0  0  0  0  0  0  0  0  0
    0.9281   -1.1008   -1.8470 H   0  0  0  0  0  0  0  0  0  0  0  0
    0.3057   -2.6792   -1.4667 H   0  0  0  0  0  0  0  0  0  0  0  0
  1  2  1  0  0  0  0
  1 11  1  0  0  0  0
  2 13  1  0  0  0  0
  2 12  1  0  0  0  0
  3 14  1  6  0  0  0
  3  2  1  0  0  0  0
  4  3  1  0  0  0  0
  4 15  1  0  0  0  0
  5  4  2  0  0  0  0
  6  3  1  0  0  0  0
  6  8  2  0  0  0  0
  7  6  1  0  0  0  0
  9  1  1  0  0  0  0
 10  1  1  0  0  0  0
 16  7  1  0  0  0  0
 17  7  1  0  0  0  0
M  END
