title
 OpenBabel02282109593D

 17 16  0  0  0  0  0  0  0  0999 V2000
   -0.6858    1.8637    1.3250 C   0  0  0  0  0  0  0  0  0  0  0  0
   -0.5258    0.3421    1.3608 C   0  0  0  0  0  0  0  0  0  0  0  0
    0.1211   -0.2029    0.1634 N   0  0  0  0  0  0  0  0  0  0  0  0
    1.4880   -0.4578    0.2036 C   0  0  0  0  0  0  0  0  0  0  0  0
    2.1753   -0.2386    1.2525 N   0  0  0  0  0  0  0  0  0  0  0  0
   -0.5380   -0.4201   -1.0569 C   0  0  0  0  0  0  0  0  0  0  0  0
   -1.8738   -0.0955   -1.0726 N   0  0  0  0  0  0  0  0  0  0  0  0
    0.0352   -0.8317   -2.0479 O   0  0  0  0  0  0  0  0  0  0  0  0
    0.2951    2.3398    1.2492 H   0  0  0  0  0  0  0  0  0  0  0  0
   -1.2938    2.1865    0.4752 H   0  0  0  0  0  0  0  0  0  0  0  0
   -1.1651    2.2128    2.2450 H   0  0  0  0  0  0  0  0  0  0  0  0
    0.1143    0.0575    2.1972 H   0  0  0  0  0  0  0  0  0  0  0  0
   -1.4883   -0.1600    1.5113 H   0  0  0  0  0  0  0  0  0  0  0  0
    1.8479   -0.8479   -0.7478 H   0  0  0  0  0  0  0  0  0  0  0  0
    3.1459   -0.4973    1.0894 H   0  0  0  0  0  0  0  0  0  0  0  0
   -2.4129   -0.0294   -0.2274 H   0  0  0  0  0  0  0  0  0  0  0  0
   -2.3577   -0.4216   -1.8932 H   0  0  0  0  0  0  0  0  0  0  0  0
  1  2  1  0  0  0  0
  1 11  1  0  0  0  0
  2 13  1  0  0  0  0
  2 12  1  0  0  0  0
  3  4  1  0  0  0  0
  3  2  1  0  0  0  0
  4  5  2  0  0  0  0
  6  3  1  0  0  0  0
  7  6  1  0  0  0  0
  7 16  1  0  0  0  0
  8  6  2  0  0  0  0
  9  1  1  0  0  0  0
 10  1  1  0  0  0  0
 14  4  1  0  0  0  0
 15  5  1  0  0  0  0
 17  7  1  0  0  0  0
M  END
