title
 OpenBabel02282109593D

 18 17  0  0  1  0  0  0  0  0999 V2000
   -0.4307    2.2597    1.1103 C   0  0  0  0  0  0  0  0  0  0  0  0
   -0.7162    0.8864    0.9073 O   0  0  0  0  0  0  0  0  0  0  0  0
    0.0169    0.2859   -0.1325 C   0  0  1  0  0  0  0  0  0  0  0  0
    1.4591    0.2287    0.2011 C   0  0  0  0  0  0  0  0  0  0  0  0
    2.5705    0.2393    0.5169 N   0  0  0  0  0  0  0  0  0  0  0  0
   -0.5473   -1.1299   -0.3893 C   0  0  1  0  0  0  0  0  0  0  0  0
   -2.0613   -1.0801   -0.6192 C   0  0  0  0  0  0  0  0  0  0  0  0
    0.2250   -1.7132   -1.4868 N   0  0  0  0  0  0  0  0  0  0  0  0
    0.6126    2.4157    1.4138 H   0  0  0  0  0  0  0  0  0  0  0  0
   -0.6276    2.8465    0.2008 H   0  0  0  0  0  0  0  0  0  0  0  0
   -1.0925    2.6026    1.9077 H   0  0  0  0  0  0  0  0  0  0  0  0
   -0.0799    0.8737   -1.0628 H   0  0  0  0  0  0  0  0  0  0  0  0
   -0.3382   -1.7201    0.5097 H   0  0  0  0  0  0  0  0  0  0  0  0
   -2.4465   -2.0919   -0.7788 H   0  0  0  0  0  0  0  0  0  0  0  0
   -2.5818   -0.6353    0.2314 H   0  0  0  0  0  0  0  0  0  0  0  0
   -2.2960   -0.4854   -1.5111 H   0  0  0  0  0  0  0  0  0  0  0  0
    0.1370   -2.7232   -1.4831 H   0  0  0  0  0  0  0  0  0  0  0  0
   -0.1377   -1.3942   -2.3812 H   0  0  0  0  0  0  0  0  0  0  0  0
  1  9  1  0  0  0  0
  1 11  1  0  0  0  0
  2  1  1  0  0  0  0
  3 12  1  6  0  0  0
  3  4  1  0  0  0  0
  3  2  1  0  0  0  0
  4  5  3  0  0  0  0
  6  3  1  0  0  0  0
  6 13  1  1  0  0  0
  7  6  1  0  0  0  0
  7 15  1  0  0  0  0
  8 17  1  0  0  0  0
  8  6  1  0  0  0  0
 10  1  1  0  0  0  0
 14  7  1  0  0  0  0
 16  7  1  0  0  0  0
 18  8  1  0  0  0  0
M  END
