title
 OpenBabel02282109593D

 19 18  0  0  1  0  0  0  0  0999 V2000
    1.1971    2.2429   -0.2709 C   0  0  0  0  0  0  0  0  0  0  0  0
    1.1639    0.8802    0.1162 O   0  0  0  0  0  0  0  0  0  0  0  0
   -0.1111    0.2856    0.0470 C   0  0  1  0  0  0  0  0  0  0  0  0
   -0.5563    0.1800   -1.3639 C   0  0  0  0  0  0  0  0  0  0  0  0
   -0.8863    0.1128   -2.4696 N   0  0  0  0  0  0  0  0  0  0  0  0
   -0.0484   -1.0984    0.7269 C   0  0  0  0  0  0  0  0  0  0  0  0
    0.4095   -0.9437    2.1821 C   0  0  0  0  0  0  0  0  0  0  0  0
   -1.3956   -1.8251    0.6345 C   0  0  0  0  0  0  0  0  0  0  0  0
    2.2258    2.5818   -0.1359 H   0  0  0  0  0  0  0  0  0  0  0  0
    0.9101    2.3732   -1.3228 H   0  0  0  0  0  0  0  0  0  0  0  0
    0.5310    2.8533    0.3567 H   0  0  0  0  0  0  0  0  0  0  0  0
   -0.8545    0.9094    0.5741 H   0  0  0  0  0  0  0  0  0  0  0  0
    0.7063   -1.6760    0.1792 H   0  0  0  0  0  0  0  0  0  0  0  0
   -0.3260   -0.3755    2.7645 H   0  0  0  0  0  0  0  0  0  0  0  0
    0.5148   -1.9265    2.6512 H   0  0  0  0  0  0  0  0  0  0  0  0
    1.3677   -0.4252    2.2426 H   0  0  0  0  0  0  0  0  0  0  0  0
   -1.7143   -1.9685   -0.4014 H   0  0  0  0  0  0  0  0  0  0  0  0
   -1.3227   -2.8102    1.1040 H   0  0  0  0  0  0  0  0  0  0  0  0
   -2.1812   -1.2675    1.1581 H   0  0  0  0  0  0  0  0  0  0  0  0
  1  9  1  0  0  0  0
  1  2  1  0  0  0  0
  1 11  1  0  0  0  0
  3  2  1  0  0  0  0
  3 12  1  1  0  0  0
  3  6  1  0  0  0  0
  4  3  1  0  0  0  0
  5  4  3  0  0  0  0
  6  7  1  0  0  0  0
  7 16  1  0  0  0  0
  7 15  1  0  0  0  0
  7 14  1  0  0  0  0
  8  6  1  0  0  0  0
  8 18  1  0  0  0  0
  8 19  1  0  0  0  0
 10  1  1  0  0  0  0
 13  6  1  0  0  0  0
 17  8  1  0  0  0  0
M  END
