18
title
C -0.5219139 2.122565 -1.3192561
C -0.572368 0.6090006 -1.1129006
O -0.060544014 -0.085601926 -2.2463913
C 0.1428706 0.1387662 0.17291318
C -0.57083315 0.5929845 1.4592422
O -0.048893332 -0.028138097 2.6201367
C 0.23760289 -1.3797709 0.16629587
O 1.2692969 -1.9963216 0.20185505
H 0.51559365 2.4768698 -1.3483282
H -0.9969003 2.377733 -2.2701366
H -1.0395097 2.6619446 -0.5202025
H -1.6215055 0.29068998 -1.059686
H 0.8837936 0.097916365 -2.3120937
H 1.1742464 0.5205069 0.1732019
H -0.5402421 1.6891477 1.5387753
H -1.6265388 0.29971042 1.4208645
H 0.8973366 0.14718226 2.6595752
H -0.748222 -1.8976029 0.13311027
