title
 OpenBabel02282109593D

 16 15  0  0  0  0  0  0  0  0999 V2000
   -0.8643    1.1834    2.1160 C   0  0  0  0  0  0  0  0  0  0  0  0
   -0.1494   -0.1046    1.7102 C   0  0  0  0  0  0  0  0  0  0  0  0
    0.2851   -0.1032    0.3033 N   0  0  0  0  0  0  0  0  0  0  0  0
    1.5895    0.2036    0.0112 C   0  0  0  0  0  0  0  0  0  0  0  0
    2.1000    0.2714   -1.0915 O   0  0  0  0  0  0  0  0  0  0  0  0
   -0.7316   -0.4138   -0.6635 C   0  0  0  0  0  0  0  0  0  0  0  0
   -0.3257   -0.3949   -1.9493 N   0  0  0  0  0  0  0  0  0  0  0  0
   -1.8581   -0.6704   -0.2876 O   0  0  0  0  0  0  0  0  0  0  0  0
   -0.2151    2.0551    1.9857 H   0  0  0  0  0  0  0  0  0  0  0  0
   -1.7645    1.3198    1.5135 H   0  0  0  0  0  0  0  0  0  0  0  0
   -1.1584    1.1311    3.1688 H   0  0  0  0  0  0  0  0  0  0  0  0
    0.7420   -0.2636    2.3236 H   0  0  0  0  0  0  0  0  0  0  0  0
   -0.8104   -0.9612    1.8450 H   0  0  0  0  0  0  0  0  0  0  0  0
    2.1751    0.3933    0.9277 H   0  0  0  0  0  0  0  0  0  0  0  0
    0.6331   -0.1654   -2.1789 H   0  0  0  0  0  0  0  0  0  0  0  0
   -1.0202   -0.6042   -2.6447 H   0  0  0  0  0  0  0  0  0  0  0  0
  1 11  1  0  0  0  0
  2 13  1  0  0  0  0
  2  1  1  0  0  0  0
  2 12  1  0  0  0  0
  3  2  1  0  0  0  0
  4  3  1  0  0  0  0
  4 14  1  0  0  0  0
  5  4  2  0  0  0  0
  6  8  2  0  0  0  0
  6  3  1  0  0  0  0
  7  6  1  0  0  0  0
  9  1  1  0  0  0  0
 10  1  1  0  0  0  0
 15  7  1  0  0  0  0
 16  7  1  0  0  0  0
M  END
