17
title
C -0.61680377 1.587506 1.9420509
C -0.5453311 0.097252734 1.6006377
N 0.11951551 -0.17821419 0.3180059
C 1.5099151 -0.3670348 0.37815115
O 2.2670302 -0.55746806 -0.5307141
C -0.59138924 -0.20756751 -0.90935785
C -2.106707 -0.09539472 -0.8131018
O -0.037857503 -0.3359838 -1.970793
H 0.38641647 2.0194578 2.0068748
H -1.1725357 2.148072 1.1846874
H -1.1140316 1.7316653 2.9062824
H 0.013117521 -0.43174547 2.3791368
H -1.5410587 -0.34686 1.590894
H 1.8457887 -0.32733136 1.4355493
H -2.431656 0.80164045 -0.27953842
H -2.4872112 -0.06598716 -1.8333812
H -2.5354755 -0.9631587 -0.30066243
