15
title
C 0.23879692 2.472894 0.23415329
O 0.33981338 1.1164198 0.64410603
C -0.37029305 0.20421438 -0.14487931
C 0.3104534 -0.11349155 -1.482115
O 1.2643715 0.48762295 -1.8987998
C -0.5958186 -1.1236218 0.6051106
N -0.056291733 -1.1623319 1.8424648
O -1.2032667 -2.0300667 0.06835785
H 0.7716037 3.0655458 0.98058164
H 0.6963547 2.627783 -0.74685824
H -0.81226414 2.7967312 0.20695733
H -1.3823675 0.57360923 -0.39078867
H -0.16377845 -0.9521923 -2.0297914
H 0.42751858 -0.35668114 2.2015328
H -0.15104416 -1.9998771 2.3916728
