title
 OpenBabel02282109593D

 16 15  0  0  1  0  0  0  0  0999 V2000
   -0.8477    2.2531    1.1633 C   0  0  0  0  0  0  0  0  0  0  0  0
   -0.9036    0.8534    0.9638 O   0  0  0  0  0  0  0  0  0  0  0  0
   -0.0771    0.4025   -0.0678 C   0  0  1  0  0  0  0  0  0  0  0  0
    1.3783    0.2909    0.4052 C   0  0  0  0  0  0  0  0  0  0  0  0
    2.3297    0.1464   -0.3164 O   0  0  0  0  0  0  0  0  0  0  0  0
   -0.5518   -1.0050   -0.5237 C   0  0  0  0  0  0  0  0  0  0  0  0
    0.0012   -1.4623   -1.8542 C   0  0  0  0  0  0  0  0  0  0  0  0
   -1.3032   -1.6490    0.1577 O   0  0  0  0  0  0  0  0  0  0  0  0
    0.1604    2.5976    1.4390 H   0  0  0  0  0  0  0  0  0  0  0  0
   -1.1643    2.8001    0.2625 H   0  0  0  0  0  0  0  0  0  0  0  0
   -1.5339    2.4840    1.9803 H   0  0  0  0  0  0  0  0  0  0  0  0
   -0.0976    1.0653   -0.9485 H   0  0  0  0  0  0  0  0  0  0  0  0
    1.4634    0.3249    1.5138 H   0  0  0  0  0  0  0  0  0  0  0  0
    1.0629   -1.2144   -1.9412 H   0  0  0  0  0  0  0  0  0  0  0  0
   -0.1620   -2.5339   -1.9745 H   0  0  0  0  0  0  0  0  0  0  0  0
   -0.5219   -0.9297   -2.6581 H   0  0  0  0  0  0  0  0  0  0  0  0
  1  9  1  0  0  0  0
  1 11  1  0  0  0  0
  2  1  1  0  0  0  0
  3 12  1  6  0  0  0
  3  4  1  0  0  0  0
  3  2  1  0  0  0  0
  4 13  1  0  0  0  0
  5  4  2  0  0  0  0
  6  3  1  0  0  0  0
  6  8  2  0  0  0  0
  7  6  1  0  0  0  0
 10  1  1  0  0  0  0
 14  7  1  0  0  0  0
 15  7  1  0  0  0  0
 16  7  1  0  0  0  0
M  END
