title
 OpenBabel02282109593D

 17 16  0  0  1  0  0  0  0  0999 V2000
   -0.8468    2.3906   -0.2212 C   0  0  0  0  0  0  0  0  0  0  0  0
   -0.6790    1.1280    0.4836 N   0  0  0  0  0  0  0  0  0  0  0  0
    0.3716    0.2808   -0.0125 C   0  0  1  0  0  0  0  0  0  0  0  0
    1.1095   -0.4116    1.1332 C   0  0  0  0  0  0  0  0  0  0  0  0
    0.9177   -0.1453    2.2913 O   0  0  0  0  0  0  0  0  0  0  0  0
   -0.0652   -0.8277   -1.0027 C   0  0  0  0  0  0  0  0  0  0  0  0
   -1.5442   -1.0955   -1.1410 C   0  0  0  0  0  0  0  0  0  0  0  0
    0.7863   -1.4526   -1.5907 O   0  0  0  0  0  0  0  0  0  0  0  0
    0.0743    2.9965   -0.2807 H   0  0  0  0  0  0  0  0  0  0  0  0
   -1.1886    2.2110   -1.2471 H   0  0  0  0  0  0  0  0  0  0  0  0
   -1.6151    2.9850    0.2806 H   0  0  0  0  0  0  0  0  0  0  0  0
   -0.5321    1.2713    1.4781 H   0  0  0  0  0  0  0  0  0  0  0  0
    1.1723    0.8258   -0.5500 H   0  0  0  0  0  0  0  0  0  0  0  0
    1.8400   -1.1755    0.8060 H   0  0  0  0  0  0  0  0  0  0  0  0
   -2.0509   -0.2199   -1.5598 H   0  0  0  0  0  0  0  0  0  0  0  0
   -1.6970   -1.9601   -1.7877 H   0  0  0  0  0  0  0  0  0  0  0  0
   -1.9926   -1.2577   -0.1561 H   0  0  0  0  0  0  0  0  0  0  0  0
  1 11  1  0  0  0  0
  1  2  1  0  0  0  0
  2 12  1  0  0  0  0
  3 13  1  6  0  0  0
  3  2  1  0  0  0  0
  3  4  1  0  0  0  0
  4  5  2  0  0  0  0
  6  3  1  0  0  0  0
  7  6  1  0  0  0  0
  7 17  1  0  0  0  0
  8  6  2  0  0  0  0
  9  1  1  0  0  0  0
 10  1  1  0  0  0  0
 14  4  1  0  0  0  0
 15  7  1  0  0  0  0
 16  7  1  0  0  0  0
M  END
