16
title
C 0.6002646 2.3702369 -0.711785
N -0.107159585 1.1017641 -0.85577655
C -0.14108638 0.28330716 0.33499736
C -1.5090052 -0.36657628 0.5166175
O -2.464981 -0.07680525 -0.15709352
C 0.9146287 -0.8494386 0.3829487
N 1.5651761 -1.0279709 -0.7872877
O 1.0794064 -1.4993402 1.3975117
H 1.66289 2.184118 -0.5231371
H 0.5212756 2.9361334 -1.6439686
H 0.21840897 3.000139 0.10877042
H -1.0649078 1.2437901 -1.165482
H 0.02700925 0.85185194 1.2672632
H -1.5488362 -1.1243283 1.3208795
H 1.2936257 -0.45511445 -1.572431
H 2.233033 -1.7745174 -0.87735546
