title
 OpenBabel02282109593D

 17 16  0  0  0  0  0  0  0  0999 V2000
   -0.6168    1.5875    1.9421 C   0  0  0  0  0  0  0  0  0  0  0  0
   -0.5453    0.0973    1.6006 C   0  0  0  0  0  0  0  0  0  0  0  0
    0.1195   -0.1782    0.3180 N   0  0  0  0  0  0  0  0  0  0  0  0
    1.5099   -0.3670    0.3782 C   0  0  0  0  0  0  0  0  0  0  0  0
    2.2670   -0.5575   -0.5307 O   0  0  0  0  0  0  0  0  0  0  0  0
   -0.5914   -0.2076   -0.9094 C   0  0  0  0  0  0  0  0  0  0  0  0
   -2.1067   -0.0954   -0.8131 C   0  0  0  0  0  0  0  0  0  0  0  0
   -0.0379   -0.3360   -1.9708 O   0  0  0  0  0  0  0  0  0  0  0  0
    0.3864    2.0195    2.0069 H   0  0  0  0  0  0  0  0  0  0  0  0
   -1.1725    2.1481    1.1847 H   0  0  0  0  0  0  0  0  0  0  0  0
   -1.1140    1.7317    2.9063 H   0  0  0  0  0  0  0  0  0  0  0  0
    0.0131   -0.4317    2.3791 H   0  0  0  0  0  0  0  0  0  0  0  0
   -1.5411   -0.3469    1.5909 H   0  0  0  0  0  0  0  0  0  0  0  0
    1.8458   -0.3273    1.4355 H   0  0  0  0  0  0  0  0  0  0  0  0
   -2.4317    0.8016   -0.2795 H   0  0  0  0  0  0  0  0  0  0  0  0
   -2.4872   -0.0660   -1.8334 H   0  0  0  0  0  0  0  0  0  0  0  0
   -2.5355   -0.9632   -0.3007 H   0  0  0  0  0  0  0  0  0  0  0  0
  1  9  1  0  0  0  0
  1 11  1  0  0  0  0
  2  1  1  0  0  0  0
  2 12  1  0  0  0  0
  3  4  1  0  0  0  0
  3  2  1  0  0  0  0
  4 14  1  0  0  0  0
  5  4  2  0  0  0  0
  6  7  1  0  0  0  0
  6  3  1  0  0  0  0
  7 17  1  0  0  0  0
  7 15  1  0  0  0  0
  8  6  2  0  0  0  0
 10  1  1  0  0  0  0
 13  2  1  0  0  0  0
 16  7  1  0  0  0  0
M  END
