15
title
N 0.7942564 2.0384796 -0.30698287
C 1.0352035 0.7021533 -0.33710754
O 2.1407428 0.20903221 -0.4533526
C -0.22607072 -0.18899032 -0.28652945
C 0.14811115 -1.67479 -0.15369418
O -0.999664 -2.5102835 -0.20640995
C -1.2507184 0.21571496 0.7661669
O -1.568541 1.3544585 1.0220237
H 1.5996563 2.6402283 -0.22880043
H -0.09733839 2.3583267 0.049036298
H -0.74132174 -0.043184247 -1.2498534
H 0.89258224 -1.9334892 -0.911781
H 0.6111288 -1.8540276 0.8213382
H -1.2955971 -2.5589697 -1.1209533
H -1.7243261 -0.63655704 1.2900094
