title
 OpenBabel02282109593D

 20 19  0  0  1  0  0  0  0  0999 V2000
   -0.6773    2.1118    1.3517 C   0  0  0  0  0  0  0  0  0  0  0  0
   -0.8606    0.7460    1.0366 O   0  0  0  0  0  0  0  0  0  0  0  0
    0.0042    0.2750    0.0207 C   0  0  1  0  0  0  0  0  0  0  0  0
    1.4007    0.0853    0.6071 C   0  0  0  0  0  0  0  0  0  0  0  0
    2.4346    0.2002    0.0023 O   0  0  0  0  0  0  0  0  0  0  0  0
   -0.5423   -1.0740   -0.5032 C   0  0  0  0  0  0  0  0  0  0  0  0
   -2.0204   -0.9394   -0.8935 C   0  0  0  0  0  0  0  0  0  0  0  0
    0.2949   -1.5952   -1.6790 C   0  0  0  0  0  0  0  0  0  0  0  0
    0.3388    2.3249    1.7163 H   0  0  0  0  0  0  0  0  0  0  0  0
   -0.8700    2.7546    0.4798 H   0  0  0  0  0  0  0  0  0  0  0  0
   -1.3910    2.3580    2.1410 H   0  0  0  0  0  0  0  0  0  0  0  0
    0.0659    0.9918   -0.8140 H   0  0  0  0  0  0  0  0  0  0  0  0
    1.3735   -0.2014    1.6851 H   0  0  0  0  0  0  0  0  0  0  0  0
   -0.4732   -1.7918    0.3265 H   0  0  0  0  0  0  0  0  0  0  0  0
   -2.4131   -1.9075   -1.2201 H   0  0  0  0  0  0  0  0  0  0  0  0
   -2.6210   -0.5824   -0.0559 H   0  0  0  0  0  0  0  0  0  0  0  0
   -2.1390   -0.2340   -1.7246 H   0  0  0  0  0  0  0  0  0  0  0  0
    1.3531   -1.6965   -1.4272 H   0  0  0  0  0  0  0  0  0  0  0  0
   -0.0755   -2.5743   -1.9974 H   0  0  0  0  0  0  0  0  0  0  0  0
    0.2229   -0.9177   -2.5375 H   0  0  0  0  0  0  0  0  0  0  0  0
  1  9  1  0  0  0  0
  1 11  1  0  0  0  0
  2  1  1  0  0  0  0
  3 12  1  6  0  0  0
  3  4  1  0  0  0  0
  3  2  1  0  0  0  0
  4 13  1  0  0  0  0
  5  4  2  0  0  0  0
  6  3  1  0  0  0  0
  6 14  1  0  0  0  0
  7  6  1  0  0  0  0
  7 16  1  0  0  0  0
  8 18  1  0  0  0  0
  8  6  1  0  0  0  0
 10  1  1  0  0  0  0
 15  7  1  0  0  0  0
 17  7  1  0  0  0  0
 19  8  1  0  0  0  0
 20  8  1  0  0  0  0
M  END
