20
title
C -0.83628047 2.3343585 1.2430083
C -0.758675 0.80457646 1.2793602
C -0.15844604 0.1856782 -0.0027829278
C 1.3149527 0.54888046 -0.08536087
O 1.791129 1.3428482 -0.8544158
C -0.28202364 -1.3513395 -0.05389522
C -1.7104362 -1.846744 -0.27367377
O 0.600282 -1.8800567 -1.0448481
H 0.14796421 2.7861648 1.0872431
H -1.484595 2.6746414 0.4288054
H -1.2425569 2.7247484 2.1807861
H -0.15928307 0.4812098 2.1415875
H -1.7612926 0.39356738 1.4384837
H -0.64929354 0.62090075 -0.88385236
H 1.9472452 0.03221317 0.6744869
H 0.10086128 -1.7638885 0.8884826
H -2.3787913 -1.5536078 0.54100174
H -2.1204648 -1.4416462 -1.2069644
H -1.7136891 -2.9376376 -0.34421217
H 0.3232762 -1.5380441 -1.9029087
