21
title
C 1.6886771 2.3411233 -0.2125752
C 1.4879726 0.8249928 -0.13221899
C 0.038766105 0.38347724 0.18206577
C -0.95419747 0.72934544 -0.94021887
C -2.411539 0.4220983 -0.58224154
C 0.053617913 -1.1330676 0.40181252
N -0.026600042 -1.5405662 1.7026299
O 0.1711529 -1.9224534 -0.5173502
H 2.7438674 2.5801616 -0.37822688
H 1.1197809 2.7897525 -1.0318972
H 1.3796033 2.8337388 0.71658033
H 1.7939383 0.34922 -1.0707791
H 2.1501062 0.42062786 0.6437007
H -0.28072074 0.8836256 1.1081375
H -0.859536 1.790625 -1.1919366
H -0.66416603 0.15728681 -1.8279085
H -2.553118 -0.6434779 -0.3753497
H -2.7332044 0.9834527 0.30291548
H -3.0820312 0.69009787 -1.4044329
H -0.1929522 -0.900151 2.4578981
H -0.016201893 -2.5290449 1.8955247
