22
title
C -0.83542323 2.2820902 1.5388466
C -0.7300782 0.77102757 1.3121026
C -0.12216731 0.37144214 -0.058076914
C 1.3766803 0.69108236 -0.1595928
C 1.9514786 0.4803789 -1.5640213
C -0.38153625 -1.1276977 -0.24752408
C -1.6682694 -1.5125432 -0.9561952
O 0.39056966 -1.9627604 0.16711015
H 0.14440462 2.7682533 1.5351119
H -1.4460857 2.7567096 0.76271003
H -1.302707 2.494451 2.5055945
H -0.1264703 0.30947638 2.1027553
H -1.7328521 0.3341447 1.4035842
H -0.6702932 0.9164938 -0.8399063
H 1.5466202 1.7279743 0.1487301
H 1.9067222 0.050946888 0.5534349
H 1.849023 -0.56204534 -1.881269
H 1.4435321 1.1113073 -2.3026927
H 3.0165167 0.7298489 -1.5934074
H -2.5218222 -0.947629 -0.56739265
H -1.5800999 -1.2575655 -2.0195427
H -1.8483493 -2.5838277 -0.8578897
