title
 OpenBabel02282109593D

 21 20  0  0  0  0  0  0  0  0999 V2000
    1.6887    2.3411   -0.2126 C   0  0  0  0  0  0  0  0  0  0  0  0
    1.4880    0.8250   -0.1322 C   0  0  0  0  0  0  0  0  0  0  0  0
    0.0388    0.3835    0.1821 C   0  0  0  0  0  0  0  0  0  0  0  0
   -0.9542    0.7293   -0.9402 C   0  0  0  0  0  0  0  0  0  0  0  0
   -2.4115    0.4221   -0.5822 C   0  0  0  0  0  0  0  0  0  0  0  0
    0.0536   -1.1331    0.4018 C   0  0  0  0  0  0  0  0  0  0  0  0
   -0.0266   -1.5406    1.7026 N   0  0  0  0  0  0  0  0  0  0  0  0
    0.1712   -1.9225   -0.5174 O   0  0  0  0  0  0  0  0  0  0  0  0
    2.7439    2.5802   -0.3782 H   0  0  0  0  0  0  0  0  0  0  0  0
    1.1198    2.7898   -1.0319 H   0  0  0  0  0  0  0  0  0  0  0  0
    1.3796    2.8337    0.7166 H   0  0  0  0  0  0  0  0  0  0  0  0
    1.7939    0.3492   -1.0708 H   0  0  0  0  0  0  0  0  0  0  0  0
    2.1501    0.4206    0.6437 H   0  0  0  0  0  0  0  0  0  0  0  0
   -0.2807    0.8836    1.1081 H   0  0  0  0  0  0  0  0  0  0  0  0
   -0.8595    1.7906   -1.1919 H   0  0  0  0  0  0  0  0  0  0  0  0
   -0.6642    0.1573   -1.8279 H   0  0  0  0  0  0  0  0  0  0  0  0
   -2.5531   -0.6435   -0.3753 H   0  0  0  0  0  0  0  0  0  0  0  0
   -2.7332    0.9835    0.3029 H   0  0  0  0  0  0  0  0  0  0  0  0
   -3.0820    0.6901   -1.4044 H   0  0  0  0  0  0  0  0  0  0  0  0
   -0.1930   -0.9002    2.4579 H   0  0  0  0  0  0  0  0  0  0  0  0
   -0.0162   -2.5290    1.8955 H   0  0  0  0  0  0  0  0  0  0  0  0
  1  2  1  0  0  0  0
  1 11  1  0  0  0  0
  2  3  1  0  0  0  0
  2 13  1  0  0  0  0
  3  6  1  0  0  0  0
  3 14  1  0  0  0  0
  4  5  1  0  0  0  0
  4  3  1  0  0  0  0
  5 17  1  0  0  0  0
  5 18  1  0  0  0  0
  6  7  1  0  0  0  0
  7 21  1  0  0  0  0
  7 20  1  0  0  0  0
  8  6  2  0  0  0  0
  9  1  1  0  0  0  0
 10  1  1  0  0  0  0
 12  2  1  0  0  0  0
 15  4  1  0  0  0  0
 16  4  1  0  0  0  0
 19  5  1  0  0  0  0
M  END
