17
title
C 1.4899262 2.1149058 0.07036423
O 1.449005 0.7327662 -0.2448816
C 0.16837247 0.20066155 -0.42781347
C 0.36685044 -1.1272818 -1.1873019
O -0.8505164 -1.671298 -1.6919103
C -0.5871064 0.01474817 0.91371834
N -1.7723529 -0.64955544 0.79586494
O -0.16877203 0.4629327 1.9627243
H 2.5454898 2.3943396 0.10571241
H 0.9931102 2.7110982 -0.71176815
H 1.0232413 2.3181908 1.0375798
H -0.44660848 0.86664903 -1.063554
H 1.0913501 -0.9477241 -1.9898497
H 0.7868406 -1.8829477 -0.5179289
H -1.1343088 -1.1260737 -2.4333327
H -1.9429407 -1.2038078 -0.03270373
H -2.2435749 -0.8898498 1.6542189
