21
title
C 1.4797926 2.0722828 -0.35152894
C 1.4145893 0.54403824 -0.41493163
N 0.063150994 0.0208617 -0.2030331
C -0.764277 -0.20655178 -1.3816646
C -0.50086904 -1.5507629 -2.071069
C -0.34108472 -0.1937611 1.0898428
C -1.7459843 -0.7415081 1.3105559
O 0.3933499 0.047779635 2.0361042
H 2.5002139 2.4187562 -0.5449721
H 0.8208374 2.5343287 -1.094501
H 1.1815202 2.4168487 0.64146906
H 1.7655734 0.18503405 -1.3881487
H 2.059092 0.11685704 0.35551983
H -1.817606 -0.13147853 -1.1045939
H -0.5793958 0.6121797 -2.0877883
H 0.5463816 -1.6421914 -2.3745818
H -0.7295408 -2.3864052 -1.4027187
H -1.1215968 -1.6482515 -2.9676652
H -1.943795 -1.645704 0.72770417
H -1.8395362 -0.969108 2.371898
H -2.5075512 -0.00039057434 1.0447706
