18
title
C 1.2167013 2.0109973 -0.26522294
O 1.1060325 0.6147262 -0.4824758
C -0.18274482 0.08081436 -0.3051434
C -0.14811309 -1.2987591 -0.98814946
O 0.24897043 -1.1768448 -2.3328264
C -0.59575385 -0.018682716 1.1715927
C -1.9904917 -0.5536893 1.4482554
O 0.15543054 0.3084466 2.0591776
H 2.2384646 2.2906768 -0.53149766
H 0.5173036 2.5681534 -0.9069792
H 1.0342947 2.269062 0.7824683
H -0.93249255 0.7018372 -0.82809687
H 0.53269184 -1.9514655 -0.41821402
H -1.1429712 -1.7526833 -0.9821907
H 1.0373741 -0.6194654 -2.315378
H -2.7264962 -0.15877742 0.7410641
H -1.9926647 -1.6452066 1.3426385
H -2.2777016 -0.30539757 2.4709196
