20
title
C 0.14532317 0.61262715 -1.9347829
C -0.5569555 0.68475777 -0.5791655
O -1.8756155 0.11351045 -0.6528296
C 0.16142692 -0.04665134 0.57519305
C 0.18012084 -1.5800679 0.4200362
O -1.0785627 -2.1818104 0.6278411
C 1.5858939 0.47166738 0.7770264
O 1.5642114 1.8928515 0.8164687
H 0.29597995 -0.41881993 -2.2658305
H -0.4549516 1.1254467 -2.6958387
H 1.1127491 1.120196 -1.8924334
H -0.64088726 1.7405741 -0.29409394
H -2.3337164 0.50254613 -1.4037956
H -0.412786 0.17062962 1.4841754
H 0.6005933 -1.8507411 -0.5641045
H 0.8560151 -2.006712 1.1719707
H -1.7050681 -1.6666977 0.10180717
H 1.9830785 0.056477748 1.7154777
H 2.2354786 0.11154386 -0.037402578
H 2.4632096 2.204283 0.95544493
