title
 OpenBabel02282109593D

 17 16  0  0  1  0  0  0  0  0999 V2000
   -0.9022    1.2461    1.4546 C   0  0  0  0  0  0  0  0  0  0  0  0
    0.4254    0.9723    0.9745 O   0  0  0  0  0  0  0  0  0  0  0  0
    0.5318    0.1369   -0.2016 C   0  0  1  0  0  0  0  0  0  0  0  0
    0.8280   -1.2867    0.2845 C   0  0  0  0  0  0  0  0  0  0  0  0
    1.7249   -1.1086    1.5190 N   0  0  0  0  0  0  0  0  0  0  0  0
    2.7113   -1.0389    1.2721 H   0  0  0  0  0  0  0  0  0  0  0  0
    1.3792   -0.1596    1.8416 H   0  0  0  0  0  0  0  0  0  0  0  0
    1.6095   -1.8272    2.2309 H   0  0  0  0  0  0  0  0  0  0  0  0
   -0.6769    0.0602   -1.2338 C   0  0  0  0  0  0  0  0  0  0  0  0
   -1.3112    1.1046   -1.4094 O   0  0  0  0  0  0  0  0  0  0  0  0
   -0.7551   -1.0829   -1.7231 O   0  0  0  0  0  0  0  0  0  0  0  0
   -1.4882    1.6900    0.6500 H   0  0  0  0  0  0  0  0  0  0  0  0
   -1.4014    0.3314    1.8053 H   0  0  0  0  0  0  0  0  0  0  0  0
   -0.7783    1.9316    2.2965 H   0  0  0  0  0  0  0  0  0  0  0  0
    1.4023    0.5316   -0.7403 H   0  0  0  0  0  0  0  0  0  0  0  0
   -0.0777   -1.7898    0.6208 H   0  0  0  0  0  0  0  0  0  0  0  0
    1.3314   -1.9042   -0.4526 H   0  0  0  0  0  0  0  0  0  0  0  0
  1 13  1  0  0  0  0
  1 14  1  0  0  0  0
  2  1  1  0  0  0  0
  3 15  1  6  0  0  0
  3  4  1  0  0  0  0
  3  2  1  0  0  0  0
  4 16  1  0  0  0  0
  4  5  1  0  0  0  0
  5  7  1  0  0  0  0
  5  8  1  0  0  0  0
  6  5  1  0  0  0  0
  9  3  1  0  0  0  0
 10  9  1  0  0  0  0
 11  9  2  0  0  0  0
 12  1  1  0  0  0  0
 17  4  1  0  0  0  0
M  RAD  1  10   2
M  END
