20
title
C -0.55173904 2.0720925 1.5529516
C -0.5045543 0.546471 1.396693
N 0.13659804 0.10002971 0.16677658
C 1.5755727 -0.15743917 0.18913274
C 1.9312346 -1.5787873 0.6338563
C -0.54936945 -0.24380422 -0.9738638
N -1.9210657 0.017895937 -0.9624347
O -0.013571748 -0.7823088 -1.9303019
H 0.45535827 2.4996598 1.5320258
H -1.1238401 2.5409987 0.74512637
H -1.0186191 2.347988 2.5041325
H 0.044382207 0.11228675 2.2402208
H -1.5127672 0.12485558 1.4446783
H 1.9575891 0.016828656 -0.8182475
H 2.036417 0.5809791 0.8551326
H 1.5412488 -1.7984173 1.6335763
H 1.5129459 -2.3015623 -0.07052239
H 3.018071 -1.7094414 0.66134775
H -2.2412162 0.85308754 -0.49628958
H -2.3109136 -0.097664535 -1.8862793
