title
 OpenBabel02282109593D

 20 19  0  0  1  0  0  0  0  0999 V2000
    0.1453    0.6126   -1.9348 C   0  0  0  0  0  0  0  0  0  0  0  0
   -0.5570    0.6848   -0.5792 C   0  0  1  0  0  0  0  0  0  0  0  0
   -1.8756    0.1135   -0.6528 O   0  0  0  0  0  0  0  0  0  0  0  0
    0.1614   -0.0467    0.5752 C   0  0  0  0  0  0  0  0  0  0  0  0
    0.1801   -1.5801    0.4200 C   0  0  0  0  0  0  0  0  0  0  0  0
   -1.0786   -2.1818    0.6278 O   0  0  0  0  0  0  0  0  0  0  0  0
    1.5859    0.4717    0.7770 C   0  0  0  0  0  0  0  0  0  0  0  0
    1.5642    1.8929    0.8165 O   0  0  0  0  0  0  0  0  0  0  0  0
    0.2960   -0.4188   -2.2658 H   0  0  0  0  0  0  0  0  0  0  0  0
   -0.4550    1.1254   -2.6958 H   0  0  0  0  0  0  0  0  0  0  0  0
    1.1127    1.1202   -1.8924 H   0  0  0  0  0  0  0  0  0  0  0  0
   -0.6409    1.7406   -0.2941 H   0  0  0  0  0  0  0  0  0  0  0  0
   -2.3337    0.5025   -1.4038 H   0  0  0  0  0  0  0  0  0  0  0  0
   -0.4128    0.1706    1.4842 H   0  0  0  0  0  0  0  0  0  0  0  0
    0.6006   -1.8507   -0.5641 H   0  0  0  0  0  0  0  0  0  0  0  0
    0.8560   -2.0067    1.1720 H   0  0  0  0  0  0  0  0  0  0  0  0
   -1.7051   -1.6667    0.1018 H   0  0  0  0  0  0  0  0  0  0  0  0
    1.9831    0.0565    1.7155 H   0  0  0  0  0  0  0  0  0  0  0  0
    2.2355    0.1115   -0.0374 H   0  0  0  0  0  0  0  0  0  0  0  0
    2.4632    2.2043    0.9554 H   0  0  0  0  0  0  0  0  0  0  0  0
  1 11  1  0  0  0  0
  1  2  1  0  0  0  0
  2 12  1  1  0  0  0
  2  4  1  0  0  0  0
  3  2  1  0  0  0  0
  4  7  1  0  0  0  0
  4 14  1  0  0  0  0
  5  4  1  0  0  0  0
  5  6  1  0  0  0  0
  5 16  1  0  0  0  0
  7  8  1  0  0  0  0
  7 18  1  0  0  0  0
  8 20  1  0  0  0  0
  9  1  1  0  0  0  0
 10  1  1  0  0  0  0
 13  3  1  0  0  0  0
 15  5  1  0  0  0  0
 17  6  1  0  0  0  0
 19  7  1  0  0  0  0
M  END
