22
title
C -1.9915779 -0.015297489 -1.0233343
C -0.50361943 0.34513393 -1.1647884
C -0.34156108 1.788304 -1.6647792
C 0.3214011 0.08048163 0.12115381
C -0.28825593 0.6847536 1.3960141
O 0.59917563 0.6383019 2.5077276
C 0.6057039 -1.4153123 0.33379874
O 1.3193241 -2.011317 -0.74214697
H -2.506095 0.6518773 -0.32256207
H -2.4980583 0.07631652 -1.9895899
H -2.1369479 -1.042872 -0.6761667
H -0.07242526 -0.31805265 -1.9241705
H -0.7491749 2.5167148 -0.95427257
H 0.71249896 2.0375736 -1.8293434
H -0.8688223 1.9327352 -2.6136277
H 1.3005475 0.5706019 -0.021586264
H -0.6272494 1.7139668 1.2086488
H -1.1669832 0.10997738 1.707038
H 1.350126 1.2053912 2.3051507
H 1.1315627 -1.5466487 1.2884105
H -0.33525425 -1.9724761 0.40306672
H 2.2053716 -1.6355406 -0.7499263
