17
title
N 0.8267801 1.8461084 0.067011125
C 0.8558625 0.5228922 -0.21163721
O 1.8832427 -0.04813726 -0.5621634
C -0.48669413 -0.2187726 -0.08246597
C -0.24862401 -1.7432408 -0.06096275
O 0.36814824 -2.2112935 -1.2332833
C -1.3206236 0.21739046 1.1256942
O -1.8059008 1.5464156 0.9121942
H 1.6779752 2.3738663 -0.036380216
H -0.03372745 2.2869372 0.35805112
H -1.066911 0.014467167 -0.9853718
H 0.33365735 -2.0030353 0.8393381
H -1.2160985 -2.25215 0.018776871
H 1.2025638 -1.717519 -1.2776201
H -2.1657267 -0.47557342 1.241579
H -0.7166279 0.16635512 2.0434265
H -2.274978 1.8281778 1.7034745
