title
 OpenBabel02282109593D

 18 17  0  0  1  0  0  0  0  0999 V2000
    1.2167    2.0110   -0.2652 C   0  0  0  0  0  0  0  0  0  0  0  0
    1.1060    0.6147   -0.4825 O   0  0  0  0  0  0  0  0  0  0  0  0
   -0.1827    0.0808   -0.3051 C   0  0  1  0  0  0  0  0  0  0  0  0
   -0.1481   -1.2988   -0.9881 C   0  0  0  0  0  0  0  0  0  0  0  0
    0.2490   -1.1768   -2.3328 O   0  0  0  0  0  0  0  0  0  0  0  0
   -0.5958   -0.0187    1.1716 C   0  0  0  0  0  0  0  0  0  0  0  0
   -1.9905   -0.5537    1.4483 C   0  0  0  0  0  0  0  0  0  0  0  0
    0.1554    0.3084    2.0592 O   0  0  0  0  0  0  0  0  0  0  0  0
    2.2385    2.2907   -0.5315 H   0  0  0  0  0  0  0  0  0  0  0  0
    0.5173    2.5682   -0.9070 H   0  0  0  0  0  0  0  0  0  0  0  0
    1.0343    2.2691    0.7825 H   0  0  0  0  0  0  0  0  0  0  0  0
   -0.9325    0.7018   -0.8281 H   0  0  0  0  0  0  0  0  0  0  0  0
    0.5327   -1.9515   -0.4182 H   0  0  0  0  0  0  0  0  0  0  0  0
   -1.1430   -1.7527   -0.9822 H   0  0  0  0  0  0  0  0  0  0  0  0
    1.0374   -0.6195   -2.3154 H   0  0  0  0  0  0  0  0  0  0  0  0
   -2.7265   -0.1588    0.7411 H   0  0  0  0  0  0  0  0  0  0  0  0
   -1.9927   -1.6452    1.3426 H   0  0  0  0  0  0  0  0  0  0  0  0
   -2.2777   -0.3054    2.4709 H   0  0  0  0  0  0  0  0  0  0  0  0
  1 11  1  0  0  0  0
  2  3  1  0  0  0  0
  2  1  1  0  0  0  0
  3 12  1  6  0  0  0
  3  6  1  0  0  0  0
  4 14  1  0  0  0  0
  4 13  1  0  0  0  0
  4  3  1  0  0  0  0
  5 15  1  0  0  0  0
  5  4  1  0  0  0  0
  6  7  1  0  0  0  0
  6  8  2  0  0  0  0
  7 18  1  0  0  0  0
  9  1  1  0  0  0  0
 10  1  1  0  0  0  0
 16  7  1  0  0  0  0
 17  7  1  0  0  0  0
M  END
