title
 OpenBabel02282109593D

 17 16  0  0  1  0  0  0  0  0999 V2000
    1.4899    2.1149    0.0704 C   0  0  0  0  0  0  0  0  0  0  0  0
    1.4490    0.7328   -0.2449 O   0  0  0  0  0  0  0  0  0  0  0  0
    0.1684    0.2007   -0.4278 C   0  0  1  0  0  0  0  0  0  0  0  0
    0.3669   -1.1273   -1.1873 C   0  0  0  0  0  0  0  0  0  0  0  0
   -0.8505   -1.6713   -1.6919 O   0  0  0  0  0  0  0  0  0  0  0  0
   -0.5871    0.0147    0.9137 C   0  0  0  0  0  0  0  0  0  0  0  0
   -1.7724   -0.6496    0.7959 N   0  0  0  0  0  0  0  0  0  0  0  0
   -0.1688    0.4629    1.9627 O   0  0  0  0  0  0  0  0  0  0  0  0
    2.5455    2.3943    0.1057 H   0  0  0  0  0  0  0  0  0  0  0  0
    0.9931    2.7111   -0.7118 H   0  0  0  0  0  0  0  0  0  0  0  0
    1.0232    2.3182    1.0376 H   0  0  0  0  0  0  0  0  0  0  0  0
   -0.4466    0.8666   -1.0636 H   0  0  0  0  0  0  0  0  0  0  0  0
    1.0914   -0.9477   -1.9898 H   0  0  0  0  0  0  0  0  0  0  0  0
    0.7868   -1.8829   -0.5179 H   0  0  0  0  0  0  0  0  0  0  0  0
   -1.1343   -1.1261   -2.4333 H   0  0  0  0  0  0  0  0  0  0  0  0
   -1.9429   -1.2038   -0.0327 H   0  0  0  0  0  0  0  0  0  0  0  0
   -2.2436   -0.8898    1.6542 H   0  0  0  0  0  0  0  0  0  0  0  0
  1  9  1  0  0  0  0
  1 11  1  0  0  0  0
  2  1  1  0  0  0  0
  3 12  1  6  0  0  0
  3  2  1  0  0  0  0
  3  6  1  0  0  0  0
  4 14  1  0  0  0  0
  4  3  1  0  0  0  0
  5  4  1  0  0  0  0
  6  8  2  0  0  0  0
  7  6  1  0  0  0  0
  7 17  1  0  0  0  0
 10  1  1  0  0  0  0
 13  4  1  0  0  0  0
 15  5  1  0  0  0  0
 16  7  1  0  0  0  0
M  END
