17
title
C -0.90217 1.2461268 1.4546006
O 0.4254133 0.9723098 0.97449315
C 0.5317639 0.13685781 -0.20158245
C 0.82801056 -1.2867138 0.28450245
N 1.7249186 -1.1086257 1.5189673
H 2.7113426 -1.0389128 1.2721225
H 1.3792144 -0.15964723 1.8416106
H 1.6095057 -1.8271958 2.2308748
C -0.67692435 0.060154386 -1.2337681
O -1.3112168 1.1045628 -1.4093767
O -0.7550695 -1.0828863 -1.7230648
H -1.4881781 1.6899599 0.6499868
H -1.4014107 0.3314393 1.8053378
H -0.7783122 1.9315562 2.2964764
H 1.402281 0.53157544 -0.7403114
H -0.077674314 -1.7898082 0.6207657
H 1.3313701 -1.9041752 -0.45258546
