title
 OpenBabel02282109593D

 19 18  0  0  1  0  0  0  0  0999 V2000
   -1.2168    1.5839    1.9891 C   0  0  0  0  0  0  0  0  0  0  0  0
   -0.9523    0.2187    1.3510 C   0  0  0  0  0  0  0  0  0  0  0  0
   -0.2487    0.3226   -0.0104 C   0  0  1  0  0  0  0  0  0  0  0  0
    0.9893    0.9430    0.2049 O   0  0  0  0  0  0  0  0  0  0  0  0
    1.7028    1.2648   -0.9721 C   0  0  0  0  0  0  0  0  0  0  0  0
   -0.0847   -1.0865   -0.6246 C   0  0  0  0  0  0  0  0  0  0  0  0
   -1.1901   -1.5414   -1.2865 N   0  0  0  0  0  0  0  0  0  0  0  0
    0.9329   -1.7386   -0.5171 O   0  0  0  0  0  0  0  0  0  0  0  0
   -0.2824    2.1354    2.1132 H   0  0  0  0  0  0  0  0  0  0  0  0
   -1.8864    2.1894    1.3675 H   0  0  0  0  0  0  0  0  0  0  0  0
   -1.6847    1.4703    2.9716 H   0  0  0  0  0  0  0  0  0  0  0  0
   -0.3150   -0.3897    2.0023 H   0  0  0  0  0  0  0  0  0  0  0  0
   -1.8916   -0.3312    1.2206 H   0  0  0  0  0  0  0  0  0  0  0  0
   -0.8658    0.9339   -0.6967 H   0  0  0  0  0  0  0  0  0  0  0  0
    1.9998    0.3656   -1.5242 H   0  0  0  0  0  0  0  0  0  0  0  0
    1.1110    1.9175   -1.6337 H   0  0  0  0  0  0  0  0  0  0  0  0
    2.6002    1.8038   -0.6600 H   0  0  0  0  0  0  0  0  0  0  0  0
   -2.0403   -1.0093   -1.3469 H   0  0  0  0  0  0  0  0  0  0  0  0
   -1.1863   -2.4871   -1.6323 H   0  0  0  0  0  0  0  0  0  0  0  0
  1  9  1  0  0  0  0
  1 11  1  0  0  0  0
  2  1  1  0  0  0  0
  2 12  1  0  0  0  0
  3 14  1  6  0  0  0
  3  4  1  0  0  0  0
  3  2  1  0  0  0  0
  5 17  1  0  0  0  0
  5  4  1  0  0  0  0
  6  8  2  0  0  0  0
  6  3  1  0  0  0  0
  7  6  1  0  0  0  0
 10  1  1  0  0  0  0
 13  2  1  0  0  0  0
 15  5  1  0  0  0  0
 16  5  1  0  0  0  0
 18  7  1  0  0  0  0
 19  7  1  0  0  0  0
M  END
