title
 OpenBabel02282109593D

 24 23  0  0  1  0  0  0  0  0999 V2000
   -1.1866    1.8533   -1.6987 C   0  0  0  0  0  0  0  0  0  0  0  0
   -0.7284    0.4052   -1.5082 C   0  0  0  0  0  0  0  0  0  0  0  0
    0.1965    0.2142   -0.2999 C   0  0  1  0  0  0  0  0  0  0  0  0
   -0.5295    0.5298    0.8930 O   0  0  0  0  0  0  0  0  0  0  0  0
   -0.0127    1.5967    1.6552 C   0  0  0  0  0  0  0  0  0  0  0  0
    0.7828   -1.2112   -0.1904 C   0  0  0  0  0  0  0  0  0  0  0  0
    1.8289   -1.2885    0.9302 C   0  0  0  0  0  0  0  0  0  0  0  0
   -0.3012   -2.2801    0.0129 C   0  0  0  0  0  0  0  0  0  0  0  0
   -0.3363    2.5250   -1.8644 H   0  0  0  0  0  0  0  0  0  0  0  0
   -1.8538    1.9454   -2.5612 H   0  0  0  0  0  0  0  0  0  0  0  0
   -1.7294    2.2047   -0.8167 H   0  0  0  0  0  0  0  0  0  0  0  0
   -1.6064   -0.2379   -1.3841 H   0  0  0  0  0  0  0  0  0  0  0  0
   -0.2046    0.0563   -2.4072 H   0  0  0  0  0  0  0  0  0  0  0  0
    1.0408    0.9149   -0.3999 H   0  0  0  0  0  0  0  0  0  0  0  0
    0.0008    2.5407    1.0906 H   0  0  0  0  0  0  0  0  0  0  0  0
   -0.6694    1.7202    2.5214 H   0  0  0  0  0  0  0  0  0  0  0  0
    1.0069    1.3974    2.0164 H   0  0  0  0  0  0  0  0  0  0  0  0
    1.2923   -1.4086   -1.1443 H   0  0  0  0  0  0  0  0  0  0  0  0
    1.3649   -1.1008    1.9036 H   0  0  0  0  0  0  0  0  0  0  0  0
    2.2897   -2.2809    0.9669 H   0  0  0  0  0  0  0  0  0  0  0  0
    2.6292   -0.5540    0.7869 H   0  0  0  0  0  0  0  0  0  0  0  0
   -0.9820   -2.3477   -0.8404 H   0  0  0  0  0  0  0  0  0  0  0  0
    0.1536   -3.2665    0.1494 H   0  0  0  0  0  0  0  0  0  0  0  0
   -0.8953   -2.0528    0.9030 H   0  0  0  0  0  0  0  0  0  0  0  0
  1  2  1  0  0  0  0
  1 11  1  0  0  0  0
  2 12  1  0  0  0  0
  2  3  1  0  0  0  0
  3 14  1  6  0  0  0
  3  6  1  0  0  0  0
  3  4  1  0  0  0  0
  4  5  1  0  0  0  0
  5 17  1  0  0  0  0
  5 16  1  0  0  0  0
  6  8  1  0  0  0  0
  6  7  1  0  0  0  0
  7 20  1  0  0  0  0
  7 19  1  0  0  0  0
  8 23  1  0  0  0  0
  8 24  1  0  0  0  0
  9  1  1  0  0  0  0
 10  1  1  0  0  0  0
 13  2  1  0  0  0  0
 15  5  1  0  0  0  0
 18  6  1  0  0  0  0
 21  7  1  0  0  0  0
 22  8  1  0  0  0  0
M  END
