22
title
C -0.54571235 2.2803752 1.0701346
O -0.5247954 0.87389046 0.9517922
C 0.09536946 0.37707314 -0.24254891
C 1.6008449 0.26532862 0.027145596
O 1.8624372 -0.5906289 1.123091
C -0.5907488 -0.958497 -0.58137316
C -2.0939584 -0.7516082 -0.81047446
C 0.056663334 -1.6470302 -1.7909395
H 0.46173638 2.7202926 1.0869681
H -1.1101152 2.7438056 0.2473329
H -1.0422826 2.516346 2.0148604
H -0.07180649 1.0883006 -1.0689484
H 2.1259828 -0.14408274 -0.84010106
H 2.0113032 1.273178 0.20364985
H 1.2436922 -0.3186445 1.8128415
H -0.4563681 -1.6067532 0.29257694
H -2.5981343 -1.7113668 -0.9620268
H -2.555294 -0.25097033 0.0429692
H -2.274212 -0.14035566 -1.7038938
H 1.0844622 -1.9581941 -1.587778
H -0.50958604 -2.5434768 -2.062315
H 0.065446556 -0.98834187 -2.6683745
