title
 OpenBabel02282109593D

 22 21  0  0  1  0  0  0  0  0999 V2000
   -0.5457    2.2804    1.0701 C   0  0  0  0  0  0  0  0  0  0  0  0
   -0.5248    0.8739    0.9518 O   0  0  0  0  0  0  0  0  0  0  0  0
    0.0954    0.3771   -0.2425 C   0  0  1  0  0  0  0  0  0  0  0  0
    1.6008    0.2653    0.0271 C   0  0  0  0  0  0  0  0  0  0  0  0
    1.8624   -0.5906    1.1231 O   0  0  0  0  0  0  0  0  0  0  0  0
   -0.5907   -0.9585   -0.5814 C   0  0  0  0  0  0  0  0  0  0  0  0
   -2.0940   -0.7516   -0.8105 C   0  0  0  0  0  0  0  0  0  0  0  0
    0.0567   -1.6470   -1.7909 C   0  0  0  0  0  0  0  0  0  0  0  0
    0.4617    2.7203    1.0870 H   0  0  0  0  0  0  0  0  0  0  0  0
   -1.1101    2.7438    0.2473 H   0  0  0  0  0  0  0  0  0  0  0  0
   -1.0423    2.5163    2.0149 H   0  0  0  0  0  0  0  0  0  0  0  0
   -0.0718    1.0883   -1.0689 H   0  0  0  0  0  0  0  0  0  0  0  0
    2.1260   -0.1441   -0.8401 H   0  0  0  0  0  0  0  0  0  0  0  0
    2.0113    1.2732    0.2036 H   0  0  0  0  0  0  0  0  0  0  0  0
    1.2437   -0.3186    1.8128 H   0  0  0  0  0  0  0  0  0  0  0  0
   -0.4564   -1.6068    0.2926 H   0  0  0  0  0  0  0  0  0  0  0  0
   -2.5981   -1.7114   -0.9620 H   0  0  0  0  0  0  0  0  0  0  0  0
   -2.5553   -0.2510    0.0430 H   0  0  0  0  0  0  0  0  0  0  0  0
   -2.2742   -0.1404   -1.7039 H   0  0  0  0  0  0  0  0  0  0  0  0
    1.0845   -1.9582   -1.5878 H   0  0  0  0  0  0  0  0  0  0  0  0
   -0.5096   -2.5435   -2.0623 H   0  0  0  0  0  0  0  0  0  0  0  0
    0.0654   -0.9883   -2.6684 H   0  0  0  0  0  0  0  0  0  0  0  0
  1  9  1  0  0  0  0
  1 11  1  0  0  0  0
  2  1  1  0  0  0  0
  3 12  1  6  0  0  0
  3  4  1  0  0  0  0
  3  2  1  0  0  0  0
  4 14  1  0  0  0  0
  4  5  1  0  0  0  0
  5 15  1  0  0  0  0
  6  3  1  0  0  0  0
  6 16  1  0  0  0  0
  7  6  1  0  0  0  0
  7 18  1  0  0  0  0
  8 20  1  0  0  0  0
  8  6  1  0  0  0  0
 10  1  1  0  0  0  0
 13  4  1  0  0  0  0
 17  7  1  0  0  0  0
 19  7  1  0  0  0  0
 21  8  1  0  0  0  0
 22  8  1  0  0  0  0
M  END
