15
title
C -0.33361033 -2.7154706 -0.4295428
C -0.193449 -1.5362684 -0.24827932
C 0.01340963 -0.1219928 0.012669521
C -0.12029037 0.37026516 1.5089563
C 1.1474291 1.2381092 1.3155208
C 1.5049989 0.39909926 0.06417899
C -0.799888 0.70259273 -0.88571197
N -1.4280345 1.3813099 -1.5790089
H -0.46803927 -3.7550025 -0.6016239
H -1.057177 0.86388457 1.7680715
H 0.04650583 -0.47365353 2.1803696
H 0.89902544 2.2697756 1.0566853
H 1.8719498 1.2446095 2.1306849
H 2.16886 -0.43600628 0.2937585
H 1.8621682 0.9156343 -0.82699025
