26
title
C -0.48150238 2.3847682 1.3576632
C -0.73376244 0.8953962 1.0934396
C -0.13625912 0.35277826 -0.22472247
C 1.3771592 0.65372604 -0.34438547
C 2.2740602 -0.017232371 0.70387816
C -0.4795455 -1.149322 -0.43515608
C -1.9969989 -1.4027114 -0.4624836
C 0.14519884 -1.7210693 -1.7190113
H 0.5742865 2.6025186 1.543554
H -0.80188656 2.998377 0.5076376
H -1.0421067 2.7203317 2.2360814
H -0.35320765 0.30619383 1.9384831
H -1.8159567 0.7345094 1.0830662
H -0.62294626 0.9022868 -1.0468657
H 1.7202603 0.36937764 -1.3442748
H 1.5205957 1.7385437 -0.29098222
H 2.2079222 -1.1089927 0.66056377
H 3.322471 0.25366122 0.5435069
H 2.0104675 0.28714585 1.721878
H -0.06815325 -1.7125382 0.4148949
H -2.4802651 -0.8034432 -1.2442081
H -2.2055564 -2.4554212 -0.6801016
H -2.481996 -1.1666844 0.48743436
H -0.17542653 -2.756781 -1.872334
H -0.16908441 -1.146309 -2.5990858
H 1.2377146 -1.7190871 -1.692507
