24
title
C -2.5123675 0.85128784 0.5588718
C -1.0323148 0.7902601 0.95158595
C -0.08520369 0.32437652 -0.17633447
C 1.3707398 0.7600958 0.09734419
C 1.6236757 2.25402 -0.13242432
C -0.20494483 -1.1985687 -0.38925883
C 0.41736987 -1.7024354 -1.6937006
O 0.3953636 -1.8240958 0.7461161
H -2.6722684 1.5498525 -0.27058634
H -2.8995063 -0.12417222 0.24638215
H -3.1272533 1.1890435 1.3993298
H -0.72521037 1.7852962 1.2914393
H -0.8968832 0.11839556 1.80695
H -0.4116874 0.7964225 -1.115073
H 1.6339198 0.48649687 1.1247684
H 2.0536807 0.19340909 -0.54437447
H 1.4137427 2.5352004 -1.170948
H 1.001471 2.8846948 0.51065236
H 2.6679027 2.5093322 0.07472238
H -1.2777119 -1.4494892 -0.41884455
H -0.053562444 -1.2263855 -2.5602152
H 1.4926935 -1.5087527 -1.7307503
H 0.2699701 -2.7845116 -1.7933171
H 0.2963561 -2.7758594 0.6483834
