title
 OpenBabel02282109593D

 16 16  0  0  0  0  0  0  0  0999 V2000
   -0.2794   -2.7231   -0.3727 C   0  0  0  0  0  0  0  0  0  0  0  0
   -0.1678   -1.5358   -0.2216 C   0  0  0  0  0  0  0  0  0  0  0  0
    0.0037   -0.1075    0.0019 C   0  0  0  0  0  0  0  0  0  0  0  0
   -0.1314    0.3945    1.4958 C   0  0  0  0  0  0  0  0  0  0  0  0
    1.1224    1.2788    1.2904 C   0  0  0  0  0  0  0  0  0  0  0  0
    1.4922    0.4253    0.0529 C   0  0  0  0  0  0  0  0  0  0  0  0
   -0.8213    0.6800   -0.9096 C   0  0  0  0  0  0  0  0  0  0  0  0
   -1.4887    1.3557   -1.6462 C   0  0  0  0  0  0  0  0  0  0  0  0
   -0.3894   -3.7690   -0.5188 H   0  0  0  0  0  0  0  0  0  0  0  0
   -1.0749    0.8784    1.7499 H   0  0  0  0  0  0  0  0  0  0  0  0
    0.0515   -0.4351    2.1816 H   0  0  0  0  0  0  0  0  0  0  0  0
    0.8570    2.3016    1.0136 H   0  0  0  0  0  0  0  0  0  0  0  0
    1.8466    1.3118    2.1060 H   0  0  0  0  0  0  0  0  0  0  0  0
    2.1693   -0.3949    0.2995 H   0  0  0  0  0  0  0  0  0  0  0  0
    1.8448    0.9339   -0.8448 H   0  0  0  0  0  0  0  0  0  0  0  0
   -2.0845    1.9385   -2.3041 H   0  0  0  0  0  0  0  0  0  0  0  0
  1  2  3  0  0  0  0
  2  3  1  0  0  0  0
  3  6  1  0  0  0  0
  3  4  1  0  0  0  0
  4 10  1  0  0  0  0
  4 11  1  0  0  0  0
  5  4  1  0  0  0  0
  5 13  1  0  0  0  0
  6 14  1  0  0  0  0
  6  5  1  0  0  0  0
  7  3  1  0  0  0  0
  8  7  3  0  0  0  0
  9  1  1  0  0  0  0
 12  5  1  0  0  0  0
 15  6  1  0  0  0  0
 16  8  1  0  0  0  0
M  END
