14
title
C -0.20109214 -2.664009 -0.17344014
C -0.13262135 -1.466343 -0.10966048
C -0.045058295 -0.012730929 0.0060493303
C -0.22918552 0.54985213 1.4586753
C 1.2368613 0.99402916 1.3293767
O 1.3374804 0.4533055 -0.0072577344
C -0.8528887 0.6443459 -1.0184897
C -1.5225297 1.2089347 -1.8406693
H -0.2603389 -3.7221935 -0.24491906
H -0.96644443 1.3482748 1.5289683
H -0.43251473 -0.21817419 2.2034945
H 1.408458 2.0758944 1.3406013
H 1.942075 0.510422 2.014079
H -2.1088567 1.6990544 -2.578488
