title
 OpenBabel02282109593D

 14 14  0  0  0  0  0  0  0  0999 V2000
   -0.2011   -2.6640   -0.1734 C   0  0  0  0  0  0  0  0  0  0  0  0
   -0.1326   -1.4663   -0.1097 C   0  0  0  0  0  0  0  0  0  0  0  0
   -0.0451   -0.0127    0.0060 C   0  0  0  0  0  0  0  0  0  0  0  0
   -0.2292    0.5499    1.4587 C   0  0  0  0  0  0  0  0  0  0  0  0
    1.2369    0.9940    1.3294 C   0  0  0  0  0  0  0  0  0  0  0  0
    1.3375    0.4533   -0.0073 O   0  0  0  0  0  0  0  0  0  0  0  0
   -0.8529    0.6443   -1.0185 C   0  0  0  0  0  0  0  0  0  0  0  0
   -1.5225    1.2089   -1.8407 C   0  0  0  0  0  0  0  0  0  0  0  0
   -0.2603   -3.7222   -0.2449 H   0  0  0  0  0  0  0  0  0  0  0  0
   -0.9664    1.3483    1.5290 H   0  0  0  0  0  0  0  0  0  0  0  0
   -0.4325   -0.2182    2.2035 H   0  0  0  0  0  0  0  0  0  0  0  0
    1.4085    2.0759    1.3406 H   0  0  0  0  0  0  0  0  0  0  0  0
    1.9421    0.5104    2.0141 H   0  0  0  0  0  0  0  0  0  0  0  0
   -2.1089    1.6991   -2.5785 H   0  0  0  0  0  0  0  0  0  0  0  0
  1  2  3  0  0  0  0
  2  3  1  0  0  0  0
  3  4  1  0  0  0  0
  4 10  1  0  0  0  0
  4 11  1  0  0  0  0
  5 12  1  0  0  0  0
  5  4  1  0  0  0  0
  5 13  1  0  0  0  0
  6  3  1  0  0  0  0
  6  5  1  0  0  0  0
  7  3  1  0  0  0  0
  8  7  3  0  0  0  0
  9  1  1  0  0  0  0
 14  8  1  0  0  0  0
M  END
