title
 OpenBabel02282109593D

 13 13  0  0  0  0  0  0  0  0999 V2000
    0.0521   -2.5546   -0.0410 N   0  0  0  0  0  0  0  0  0  0  0  0
   -0.0264   -1.4017   -0.0520 C   0  0  0  0  0  0  0  0  0  0  0  0
   -0.0435    0.0719   -0.0344 C   0  0  0  0  0  0  0  0  0  0  0  0
   -0.2344    0.6414    1.4199 C   0  0  0  0  0  0  0  0  0  0  0  0
    1.3018    0.8228    1.4341 C   0  0  0  0  0  0  0  0  0  0  0  0
    1.2995    0.6918   -0.0445 N   0  0  0  0  0  0  0  0  0  0  0  0
   -0.9552    0.5778   -1.0697 C   0  0  0  0  0  0  0  0  0  0  0  0
   -1.6807    1.0028   -1.8610 N   0  0  0  0  0  0  0  0  0  0  0  0
   -0.7832    1.5821    1.3968 H   0  0  0  0  0  0  0  0  0  0  0  0
   -0.6797   -0.0423    2.1396 H   0  0  0  0  0  0  0  0  0  0  0  0
    1.6864    1.7818    1.7881 H   0  0  0  0  0  0  0  0  0  0  0  0
    1.8145    0.0091    1.9603 H   0  0  0  0  0  0  0  0  0  0  0  0
    2.0326    0.1340   -0.4692 H   0  0  0  0  0  0  0  0  0  0  0  0
  2  1  3  0  0  0  0
  2  3  1  0  0  0  0
  3  4  1  0  0  0  0
  4  5  1  0  0  0  0
  4 10  1  0  0  0  0
  5 11  1  0  0  0  0
  5 12  1  0  0  0  0
  6  3  1  0  0  0  0
  6  5  1  0  0  0  0
  7  3  1  0  0  0  0
  8  7  3  0  0  0  0
  9  4  1  0  0  0  0
 13  6  1  0  0  0  0
M  END
