title
 OpenBabel02282109593D

 14 14  0  0  0  0  0  0  0  0999 V2000
   -0.0781   -2.7018   -0.1398 C   0  0  0  0  0  0  0  0  0  0  0  0
   -0.0774   -1.5008   -0.1148 C   0  0  0  0  0  0  0  0  0  0  0  0
   -0.0502   -0.0462   -0.0559 C   0  0  0  0  0  0  0  0  0  0  0  0
   -0.1438    0.5579    1.3931 C   0  0  0  0  0  0  0  0  0  0  0  0
    1.1853    1.0892    1.3201 O   0  0  0  0  0  0  0  0  0  0  0  0
    1.3890    0.5859   -0.0063 C   0  0  0  0  0  0  0  0  0  0  0  0
   -0.9497    0.5572   -1.0289 C   0  0  0  0  0  0  0  0  0  0  0  0
   -1.6829    1.0840   -1.8215 C   0  0  0  0  0  0  0  0  0  0  0  0
   -0.0876   -3.7634   -0.1715 H   0  0  0  0  0  0  0  0  0  0  0  0
   -0.9040    1.3381    1.5014 H   0  0  0  0  0  0  0  0  0  0  0  0
   -0.2544   -0.1934    2.1817 H   0  0  0  0  0  0  0  0  0  0  0  0
    2.1992   -0.1485   -0.0585 H   0  0  0  0  0  0  0  0  0  0  0  0
    1.5500    1.3831   -0.7392 H   0  0  0  0  0  0  0  0  0  0  0  0
   -2.3346    1.5377   -2.5268 H   0  0  0  0  0  0  0  0  0  0  0  0
  1  2  3  0  0  0  0
  2  3  1  0  0  0  0
  3  6  1  0  0  0  0
  3  4  1  0  0  0  0
  4 10  1  0  0  0  0
  4 11  1  0  0  0  0
  5  4  1  0  0  0  0
  6  5  1  0  0  0  0
  7  3  1  0  0  0  0
  8  7  3  0  0  0  0
  9  1  1  0  0  0  0
 12  6  1  0  0  0  0
 13  6  1  0  0  0  0
 14  8  1  0  0  0  0
M  END
