14
title
C -0.011935936 -2.615512 -0.084876746
C -0.051767252 -1.4147049 -0.06446336
C -0.039188575 0.046820603 -0.025750136
C -0.22128764 0.6331071 1.4237449
C 1.3148307 0.8028628 1.435272
N 1.3170054 0.6613764 -0.04179258
C -0.94006854 0.59229714 -1.0547173
N -1.6586205 1.0386884 -1.8413262
H 0.010524194 -3.6775076 -0.111332335
H -0.7616054 1.579179 1.4031912
H -0.6684163 -0.044889368 2.1476865
H 1.7075387 1.7607567 1.7854697
H 1.821056 -0.010404268 1.9693139
H 2.0352042 0.06573292 -0.4399515
