title
 OpenBabel02282109593D

 14 14  0  0  1  0  0  0  0  0999 V2000
   -0.0119   -2.6155   -0.0849 C   0  0  0  0  0  0  0  0  0  0  0  0
   -0.0518   -1.4147   -0.0645 C   0  0  0  0  0  0  0  0  0  0  0  0
   -0.0392    0.0468   -0.0258 C   0  0  1  0  0  0  0  0  0  0  0  0
   -0.2213    0.6331    1.4237 C   0  0  0  0  0  0  0  0  0  0  0  0
    1.3148    0.8029    1.4353 C   0  0  0  0  0  0  0  0  0  0  0  0
    1.3170    0.6614   -0.0418 N   0  0  0  0  0  0  0  0  0  0  0  0
   -0.9401    0.5923   -1.0547 C   0  0  0  0  0  0  0  0  0  0  0  0
   -1.6586    1.0387   -1.8413 N   0  0  0  0  0  0  0  0  0  0  0  0
    0.0105   -3.6775   -0.1113 H   0  0  0  0  0  0  0  0  0  0  0  0
   -0.7616    1.5792    1.4032 H   0  0  0  0  0  0  0  0  0  0  0  0
   -0.6684   -0.0449    2.1477 H   0  0  0  0  0  0  0  0  0  0  0  0
    1.7075    1.7608    1.7855 H   0  0  0  0  0  0  0  0  0  0  0  0
    1.8211   -0.0104    1.9693 H   0  0  0  0  0  0  0  0  0  0  0  0
    2.0352    0.0657   -0.4400 H   0  0  0  0  0  0  0  0  0  0  0  0
  1  2  3  0  0  0  0
  2  3  1  0  0  0  0
  3  7  1  6  0  0  0
  3  4  1  0  0  0  0
  4  5  1  0  0  0  0
  4 11  1  0  0  0  0
  5 12  1  0  0  0  0
  5 13  1  0  0  0  0
  6  3  1  0  0  0  0
  6  5  1  0  0  0  0
  8  7  3  0  0  0  0
  9  1  1  0  0  0  0
 10  4  1  0  0  0  0
 14  6  1  0  0  0  0
M  END
