13
title
C -0.09249261 -2.7103848 -0.15502211
C -0.079561025 -1.5104626 -0.1170931
C -0.036009103 -0.060565077 -0.040691063
C -0.13594916 0.5540206 1.4030293
O 1.1869797 1.096655 1.321912
C 1.3984424 0.58170384 0.002332574
C -0.9355656 0.55677 -1.0139847
N -1.6386479 1.0703486 -1.7734272
H -0.11194891 -3.7719126 -0.19738115
H -0.9035718 1.3263954 1.5131627
H -0.23803532 -0.20011528 2.1891658
H 2.2052534 -0.15606613 -0.0412672
H 1.5625572 1.3708802 -0.7380767
