14
title
C -0.07811088 -2.7018085 -0.1397915
C -0.07740027 -1.5007758 -0.11484882
C -0.0501875 -0.046172123 -0.05587246
C -0.1437926 0.55785847 1.3931354
O 1.1853417 1.0892091 1.3201253
C 1.3889848 0.58593273 -0.0063395193
C -0.9496918 0.55724645 -1.0289416
C -1.6828588 1.0839684 -1.8214902
H -0.08759985 -3.7633827 -0.17145012
H -0.90403837 1.3381119 1.5013553
H -0.2543741 -0.19342946 2.181698
H 2.1991763 -0.1484798 -0.058471598
H 1.5499684 1.3830614 -0.73924613
H -2.3345551 1.5377383 -2.5267694
