title
 OpenBabel02282109593D

 13 13  0  0  1  0  0  0  0  0999 V2000
   -0.2634   -2.6782   -0.2110 C   0  0  0  0  0  0  0  0  0  0  0  0
   -0.1548   -1.4860   -0.1198 C   0  0  0  0  0  0  0  0  0  0  0  0
   -0.0218   -0.0435    0.0289 C   0  0  1  0  0  0  0  0  0  0  0  0
   -0.2275    0.5330    1.4706 C   0  0  0  0  0  0  0  0  0  0  0  0
    1.2200    1.0342    1.3242 C   0  0  0  0  0  0  0  0  0  0  0  0
    1.3527    0.4081    0.0225 O   0  0  0  0  0  0  0  0  0  0  0  0
   -0.8109    0.6559   -1.0042 C   0  0  0  0  0  0  0  0  0  0  0  0
   -1.4342    1.2309   -1.7886 N   0  0  0  0  0  0  0  0  0  0  0  0
   -0.3579   -3.7326   -0.3057 H   0  0  0  0  0  0  0  0  0  0  0  0
   -1.0032    1.2929    1.5517 H   0  0  0  0  0  0  0  0  0  0  0  0
   -0.3819   -0.2451    2.2162 H   0  0  0  0  0  0  0  0  0  0  0  0
    1.3371    2.1206    1.2593 H   0  0  0  0  0  0  0  0  0  0  0  0
    1.9449    0.6296    2.0366 H   0  0  0  0  0  0  0  0  0  0  0  0
  1  2  3  0  0  0  0
  2  3  1  0  0  0  0
  3  7  1  6  0  0  0
  3  4  1  0  0  0  0
  4 10  1  0  0  0  0
  4 11  1  0  0  0  0
  5  4  1  0  0  0  0
  5 13  1  0  0  0  0
  6  3  1  0  0  0  0
  6  5  1  0  0  0  0
  8  7  3  0  0  0  0
  9  1  1  0  0  0  0
 12  5  1  0  0  0  0
M  END
