13
title
O -1.5111274 -1.7406673 -0.2464512
C -1.3458239 -0.65749747 0.24097696
C -0.022988243 0.109351225 0.1478873
C 1.139912 -0.6860817 -0.50353575
O 1.0424203 0.07158739 -1.7235498
C 0.063697174 0.9552514 -1.1768705
C 0.24454482 0.8282499 1.3791689
N 0.43524835 1.3963618 2.367927
H -2.1564598 -0.11275392 0.7669772
H 2.1071844 -0.5592515 -0.0076302327
H 0.91052276 -1.7441996 -0.6521182
H -0.85718036 0.9880869 -1.7700272
H 0.4417152 1.9712234 -1.0177555
