14
title
O -2.057567 -1.0218272 0.3529855
C -1.0669392 -0.9491708 -0.32140806
C 0.06662612 0.06281016 -0.092011966
C 0.055862468 0.7380464 1.2989631
C 1.26452 -0.16873886 1.5964924
O 1.247847 -0.7198813 0.25193483
C 0.23594789 0.8916931 -1.2708999
C 0.3296297 1.5568147 -2.268355
H -0.8543443 -1.6509025 -1.1545166
H 0.2670006 1.8058629 1.280295
H -0.85537714 0.5383725 1.8620983
H 2.2093456 0.34535214 1.7989637
H 1.1047324 -0.9461176 2.3509924
H 0.427457 2.1541502 -3.1416597
