14
title
O -1.3717912 -1.7834822 0.16555533
C -1.2968189 -0.6293913 -0.15793571
C 0.018906089 0.15899435 -0.08223385
C 0.08749649 0.9896655 1.2511307
C 1.0212519 -0.13424131 1.7601326
N 1.1733887 -0.63123274 0.3660671
C 0.19605514 0.90718126 -1.3300971
N 0.2960554 1.5056138 -2.3138719
H -2.1744492 -0.04892895 -0.5107239
H 0.5803261 1.9503717 1.1057342
H -0.86013657 1.1378024 1.7706974
H 1.961627 0.18447438 2.2167501
H 0.5143522 -0.8353812 2.4318588
H 1.0118134 -1.6286582 0.25390986
