14
title
O -1.4990306 -1.7486745 -0.1657369
C -1.3334876 -0.6293458 0.23604722
C -0.008597252 0.12934557 0.1468499
C 1.1319277 -0.6753434 -0.5307014
O 1.0093846 0.08092502 -1.751614
C 0.06348348 0.98215234 -1.1719917
C 0.25924087 0.81796825 1.3901246
C 0.4478271 1.3792642 2.4367425
H -2.1559331 -0.0399513 0.69436085
H 2.1108785 -0.54734755 -0.057793748
H 0.90235233 -1.7344345 -0.674295
H -0.8663773 1.0484265 -1.7498722
H 0.47147822 1.986606 -1.0102253
H 0.6317967 1.8777546 3.3566194
