title
 OpenBabel02282109593D

 13 13  0  0  1  0  0  0  0  0999 V2000
   -2.0509   -1.0552    0.3906 O   0  0  0  0  0  0  0  0  0  0  0  0
   -1.0824   -0.9744   -0.3110 C   0  0  0  0  0  0  0  0  0  0  0  0
    0.0535    0.0412   -0.0810 C   0  0  1  0  0  0  0  0  0  0  0  0
    0.0507    0.7365    1.2981 C   0  0  0  0  0  0  0  0  0  0  0  0
    1.2898   -0.1363    1.5796 C   0  0  0  0  0  0  0  0  0  0  0  0
    1.2396   -0.7200    0.2446 O   0  0  0  0  0  0  0  0  0  0  0  0
    0.2265    0.8849   -1.2651 C   0  0  0  0  0  0  0  0  0  0  0  0
    0.3284    1.5434   -2.2097 N   0  0  0  0  0  0  0  0  0  0  0  0
   -0.8840   -1.6688   -1.1522 H   0  0  0  0  0  0  0  0  0  0  0  0
    0.2279    1.8100    1.2693 H   0  0  0  0  0  0  0  0  0  0  0  0
   -0.8445    0.5122    1.8769 H   0  0  0  0  0  0  0  0  0  0  0  0
    2.2282    0.4035    1.7341 H   0  0  0  0  0  0  0  0  0  0  0  0
    1.1730   -0.9024    2.3517 H   0  0  0  0  0  0  0  0  0  0  0  0
  2  3  1  0  0  0  0
  2  1  2  0  0  0  0
  3  7  1  6  0  0  0
  3  6  1  0  0  0  0
  3  4  1  0  0  0  0
  4  5  1  0  0  0  0
  4 11  1  0  0  0  0
  5 12  1  0  0  0  0
  5 13  1  0  0  0  0
  6  5  1  0  0  0  0
  8  7  3  0  0  0  0
  9  2  1  0  0  0  0
 10  4  1  0  0  0  0
M  END
