title
 OpenBabel02282109593D

 16 16  0  0  0  0  0  0  0  0999 V2000
   -1.3222   -1.7243   -0.3611 O   0  0  0  0  0  0  0  0  0  0  0  0
   -1.1895   -0.6136    0.0864 C   0  0  0  0  0  0  0  0  0  0  0  0
    0.1122    0.1604    0.0706 C   0  0  0  0  0  0  0  0  0  0  0  0
    1.3133   -0.6264   -0.5364 C   0  0  0  0  0  0  0  0  0  0  0  0
    1.0641    0.0564   -1.9056 C   0  0  0  0  0  0  0  0  0  0  0  0
    0.1734    1.1059   -1.1955 C   0  0  0  0  0  0  0  0  0  0  0  0
    0.3576    0.8715    1.3781 C   0  0  0  0  0  0  0  0  0  0  0  0
   -0.3721    0.8434    2.3360 O   0  0  0  0  0  0  0  0  0  0  0  0
   -2.0464   -0.0565    0.5168 H   0  0  0  0  0  0  0  0  0  0  0  0
    2.2626   -0.3313   -0.0804 H   0  0  0  0  0  0  0  0  0  0  0  0
    1.2050   -1.7102   -0.4915 H   0  0  0  0  0  0  0  0  0  0  0  0
    1.9356    0.4373   -2.4410 H   0  0  0  0  0  0  0  0  0  0  0  0
    0.4891   -0.5829   -2.5784 H   0  0  0  0  0  0  0  0  0  0  0  0
   -0.7869    1.3657   -1.6478 H   0  0  0  0  0  0  0  0  0  0  0  0
    0.7086    2.0319   -0.9635 H   0  0  0  0  0  0  0  0  0  0  0  0
    1.3071    1.4574    1.3936 H   0  0  0  0  0  0  0  0  0  0  0  0
  1  2  2  0  0  0  0
  2  9  1  0  0  0  0
  3  2  1  0  0  0  0
  3  7  1  0  0  0  0
  4 11  1  0  0  0  0
  4 10  1  0  0  0  0
  4  3  1  0  0  0  0
  5  6  1  0  0  0  0
  5  4  1  0  0  0  0
  6 15  1  0  0  0  0
  6  3  1  0  0  0  0
  7 16  1  0  0  0  0
  7  8  2  0  0  0  0
 12  5  1  0  0  0  0
 13  5  1  0  0  0  0
 14  6  1  0  0  0  0
M  END
