15
title
O -1.4133035 -1.7298372 -0.35286638
C -1.2802309 -0.65165055 0.1590697
C 0.029241983 0.13654816 0.14093569
C 1.2259592 -0.6718093 -0.45086652
C 0.9515398 -0.033694863 -1.8375599
C 0.06431932 1.0408589 -1.1601162
C 0.21651036 0.826007 1.4059536
N 0.3598773 1.3749641 2.4138353
H -2.1252465 -0.12310016 0.6484776
H 2.1741354 -0.3568145 -0.01317358
H 1.1179975 -1.7533704 -0.37063387
H 1.8164724 0.33559453 -2.3897874
H 0.375035 -0.6980188 -2.4835563
H -0.90509605 1.2698778 -1.6086711
H 0.5916248 1.9749602 -0.9601434
