12
title
N -0.086472616 -2.6484485 -0.14680275
C -0.08231636 -1.4939042 -0.1195444
C -0.04180292 -0.037576422 -0.04642991
C -0.1344861 0.55701876 1.4062839
O 1.1961564 1.0777647 1.3317827
C 1.4014062 0.5846422 0.004369821
C -0.9413114 0.57189536 -1.019711
N -1.6412687 1.0912342 -1.7773933
H -0.89233637 1.3384514 1.5150764
H -0.25224087 -0.20116769 2.186088
H 2.2034316 -0.15697978 -0.05532333
H 1.5632458 1.3826244 -0.72627276
