title
 OpenBabel02282109593D

 22 22  0  0  0  0  0  0  0  0999 V2000
   -1.0409    1.7067   -1.6918 C   0  0  0  0  0  0  0  0  0  0  0  0
   -0.8358    0.2043   -1.4647 C   0  0  0  0  0  0  0  0  0  0  0  0
   -0.0922   -0.2216   -0.1837 C   0  0  0  0  0  0  0  0  0  0  0  0
    0.0033   -1.7560   -0.1538 C   0  0  0  0  0  0  0  0  0  0  0  0
    0.7115   -2.3987    1.0441 C   0  0  0  0  0  0  0  0  0  0  0  0
    1.2099    0.5777    0.0902 C   0  0  0  0  0  0  0  0  0  0  0  0
    0.5907    1.3076    1.1674 O   0  0  0  0  0  0  0  0  0  0  0  0
   -0.5910    0.4854    1.1050 C   0  0  0  0  0  0  0  0  0  0  0  0
   -0.0932    2.2484   -1.7595 H   0  0  0  0  0  0  0  0  0  0  0  0
   -1.5786    1.8706   -2.6309 H   0  0  0  0  0  0  0  0  0  0  0  0
   -1.6287    2.1696   -0.8941 H   0  0  0  0  0  0  0  0  0  0  0  0
   -1.8166   -0.2908   -1.4650 H   0  0  0  0  0  0  0  0  0  0  0  0
   -0.2925   -0.2126   -2.3238 H   0  0  0  0  0  0  0  0  0  0  0  0
   -1.0169   -2.1587   -0.2183 H   0  0  0  0  0  0  0  0  0  0  0  0
    0.5046   -2.0807   -1.0760 H   0  0  0  0  0  0  0  0  0  0  0  0
    1.7561   -2.0834    1.1256 H   0  0  0  0  0  0  0  0  0  0  0  0
    0.2192   -2.1619    1.9921 H   0  0  0  0  0  0  0  0  0  0  0  0
    0.7081   -3.4882    0.9392 H   0  0  0  0  0  0  0  0  0  0  0  0
    2.0609   -0.0199    0.4409 H   0  0  0  0  0  0  0  0  0  0  0  0
    1.5588    1.2397   -0.7111 H   0  0  0  0  0  0  0  0  0  0  0  0
   -1.5062    1.0825    1.0159 H   0  0  0  0  0  0  0  0  0  0  0  0
   -0.6835   -0.1606    1.9873 H   0  0  0  0  0  0  0  0  0  0  0  0
  1  2  1  0  0  0  0
  1 11  1  0  0  0  0
  2  3  1  0  0  0  0
  3  4  1  0  0  0  0
  3  6  1  0  0  0  0
  3  8  1  0  0  0  0
  4  5  1  0  0  0  0
  5 16  1  0  0  0  0
  5 17  1  0  0  0  0
  6 19  1  0  0  0  0
  6  7  1  0  0  0  0
  8  7  1  0  0  0  0
  8 22  1  0  0  0  0
  9  1  1  0  0  0  0
 10  1  1  0  0  0  0
 12  2  1  0  0  0  0
 13  2  1  0  0  0  0
 14  4  1  0  0  0  0
 15  4  1  0  0  0  0
 18  5  1  0  0  0  0
 20  6  1  0  0  0  0
 21  8  1  0  0  0  0
M  END
