22
title
C -2.389263 0.20915648 0.8299697
C -0.91418695 0.5187467 1.1093535
C 0.077188656 -0.103431255 0.12047944
C -0.13761984 0.39084682 -1.3075722
O 0.0039209607 1.805346 -1.3226863
C 1.581827 -0.005781743 0.53063565
C 1.7611064 -1.509682 0.1894248
C 0.21579032 -1.6605815 0.1442899
H -2.7313046 0.6711131 -0.101236604
H -2.567449 -0.8696672 0.7544983
H -3.0245156 0.5923644 1.6346676
H -0.76307094 1.603927 1.1176738
H -0.65707415 0.15947899 2.1140456
H 0.5996765 -0.08495852 -1.9741391
H -1.1359053 0.087126285 -1.660534
H -0.10998966 2.1110172 -2.2269206
H 2.1848478 0.717017 -0.023568176
H 1.6993421 0.19587821 1.5993588
H 2.227356 -1.6699814 -0.7862618
H 2.2932136 -2.1222074 0.92089903
H -0.19100349 -2.089146 1.0649859
H -0.208037 -2.209943 -0.70241034
