title
 OpenBabel02282109593D

 14 14  0  0  0  0  0  0  0  0999 V2000
   -1.3892   -1.8189    0.2645 O   0  0  0  0  0  0  0  0  0  0  0  0
   -1.2327   -0.7126   -0.1703 C   0  0  0  0  0  0  0  0  0  0  0  0
    0.0849    0.0588   -0.0670 C   0  0  0  0  0  0  0  0  0  0  0  0
    0.1182    0.9798    1.1961 C   0  0  0  0  0  0  0  0  0  0  0  0
    1.2190    0.0046    1.6638 C   0  0  0  0  0  0  0  0  0  0  0  0
    1.1773   -0.7227    0.4139 O   0  0  0  0  0  0  0  0  0  0  0  0
    0.3914    0.7470   -1.3837 C   0  0  0  0  0  0  0  0  0  0  0  0
   -0.3574    1.5355   -1.9013 O   0  0  0  0  0  0  0  0  0  0  0  0
   -2.0415   -0.1310   -0.6621 H   0  0  0  0  0  0  0  0  0  0  0  0
    0.4400    2.0018    0.9939 H   0  0  0  0  0  0  0  0  0  0  0  0
   -0.7980    0.9974    1.7876 H   0  0  0  0  0  0  0  0  0  0  0  0
    2.2056    0.4433    1.8443 H   0  0  0  0  0  0  0  0  0  0  0  0
    0.9417   -0.6347    2.5079 H   0  0  0  0  0  0  0  0  0  0  0  0
    1.3684    0.4520   -1.8237 H   0  0  0  0  0  0  0  0  0  0  0  0
  2  3  1  0  0  0  0
  2  1  2  0  0  0  0
  3  6  1  0  0  0  0
  3  4  1  0  0  0  0
  4  5  1  0  0  0  0
  4 11  1  0  0  0  0
  5 12  1  0  0  0  0
  5 13  1  0  0  0  0
  6  5  1  0  0  0  0
  7  3  1  0  0  0  0
  8  7  2  0  0  0  0
  9  2  1  0  0  0  0
 10  4  1  0  0  0  0
 14  7  1  0  0  0  0
M  END
