22
title
C -1.045445 1.9778214 -1.3244747
C -1.1698661 0.46106392 -1.1456143
C -0.24989398 -0.12702563 -0.06843847
C -0.6004775 0.36223626 1.3403137
C 0.378908 -0.06366714 2.4373682
C 0.0017167107 -1.6509501 -0.23736715
C 1.4287763 -1.2361181 -0.6363306
O 1.1489403 0.15649012 -0.3946256
H 0.004059054 2.254419 -1.4592028
H -1.6018794 2.307971 -2.2068436
H -1.4365575 2.5318868 -0.466146
H -2.2065728 0.18255758 -0.9128113
H -0.92424625 -0.027743751 -2.0961764
H -0.65002173 1.4567989 1.32358
H -1.614298 0.011223858 1.57563
H 0.39923117 -1.1492761 2.5780606
H 1.391716 0.26524654 2.1909637
H 0.098176695 0.382188 3.3962657
H -0.06856086 -2.240703 0.67739755
H -0.5929947 -2.1310406 -1.0167855
H 2.2347991 -1.6075045 0.007776913
H 1.7005847 -1.4234935 -1.6828661
