22
title
C -1.4803174 1.7743189 -0.79045993
C -0.9780491 0.3411171 -0.9856179
C 0.027992923 -0.11157891 0.08152417
C -0.61149216 -0.39713976 1.4659007
C -0.6195232 -1.9108053 1.1246474
C 0.3874918 -1.6292626 -0.02337881
O 1.120115 0.78348047 0.21060865
C 1.9695017 0.8738739 -0.9122267
H -0.65092564 2.486385 -0.80638444
H -2.1861901 2.0520315 -1.5790744
H -1.992607 1.8920827 0.17000239
H -1.8232424 -0.35817 -0.9772742
H -0.5212235 0.23860008 -1.9784682
H 0.10163112 -0.15512124 2.2570014
H -1.5675102 0.08253518 1.6888466
H -0.29411694 -2.5964074 1.9093628
H -1.5895692 -2.2519608 0.7538404
H 0.21844049 -2.125782 -0.98279816
H 1.4198763 -1.8018941 0.2923098
H 2.8332593 1.4711496 -0.60877603
H 2.3256717 -0.113824815 -1.2403873
H 1.4907656 1.3693348 -1.7689942
