title
 OpenBabel02282109593D

 20 20  0  0  1  0  0  0  0  0999 V2000
    1.8834   -0.7303   -1.6054 C   0  0  0  0  0  0  0  0  0  0  0  0
    1.4691    0.0358   -0.3444 C   0  0  0  0  0  0  0  0  0  0  0  0
    0.0068   -0.1481    0.0469 C   0  0  1  0  0  0  0  0  0  0  0  0
   -0.9766    0.5161   -0.9208 C   0  0  0  0  0  0  0  0  0  0  0  0
   -0.8251    1.9205   -0.8888 O   0  0  0  0  0  0  0  0  0  0  0  0
   -0.4297   -1.5429    0.5575 C   0  0  0  0  0  0  0  0  0  0  0  0
   -0.7904   -0.8061    1.8608 C   0  0  0  0  0  0  0  0  0  0  0  0
   -0.2399    0.4367    1.3703 O   0  0  0  0  0  0  0  0  0  0  0  0
    2.9563   -0.6175   -1.7863 H   0  0  0  0  0  0  0  0  0  0  0  0
    1.6760   -1.8025   -1.5135 H   0  0  0  0  0  0  0  0  0  0  0  0
    1.3624   -0.3647   -2.4954 H   0  0  0  0  0  0  0  0  0  0  0  0
    2.0825   -0.2834    0.5057 H   0  0  0  0  0  0  0  0  0  0  0  0
    1.6459    1.1081   -0.4807 H   0  0  0  0  0  0  0  0  0  0  0  0
   -0.8017    0.1923   -1.9521 H   0  0  0  0  0  0  0  0  0  0  0  0
   -2.0027    0.2180   -0.6496 H   0  0  0  0  0  0  0  0  0  0  0  0
   -0.8574    2.1554    0.0483 H   0  0  0  0  0  0  0  0  0  0  0  0
   -1.2559   -2.0131    0.0202 H   0  0  0  0  0  0  0  0  0  0  0  0
    0.3894   -2.2577    0.6545 H   0  0  0  0  0  0  0  0  0  0  0  0
   -1.8646   -0.7251    2.0683 H   0  0  0  0  0  0  0  0  0  0  0  0
   -0.2806   -1.1427    2.7701 H   0  0  0  0  0  0  0  0  0  0  0  0
  1 10  1  0  0  0  0
  1  2  1  0  0  0  0
  2  3  1  0  0  0  0
  2 12  1  0  0  0  0
  3  4  1  6  0  0  0
  3  6  1  0  0  0  0
  3  8  1  0  0  0  0
  4  5  1  0  0  0  0
  4 15  1  0  0  0  0
  5 16  1  0  0  0  0
  6 18  1  0  0  0  0
  6  7  1  0  0  0  0
  7 19  1  0  0  0  0
  7 20  1  0  0  0  0
  8  7  1  0  0  0  0
  9  1  1  0  0  0  0
 11  1  1  0  0  0  0
 13  2  1  0  0  0  0
 14  4  1  0  0  0  0
 17  6  1  0  0  0  0
M  END
