title
 OpenBabel02282109593D

 22 22  0  0  0  0  0  0  0  0999 V2000
   -1.4803    1.7743   -0.7905 C   0  0  0  0  0  0  0  0  0  0  0  0
   -0.9780    0.3411   -0.9856 C   0  0  0  0  0  0  0  0  0  0  0  0
    0.0280   -0.1116    0.0815 C   0  0  0  0  0  0  0  0  0  0  0  0
   -0.6115   -0.3971    1.4659 C   0  0  0  0  0  0  0  0  0  0  0  0
   -0.6195   -1.9108    1.1246 C   0  0  0  0  0  0  0  0  0  0  0  0
    0.3875   -1.6293   -0.0234 C   0  0  0  0  0  0  0  0  0  0  0  0
    1.1201    0.7835    0.2106 O   0  0  0  0  0  0  0  0  0  0  0  0
    1.9695    0.8739   -0.9122 C   0  0  0  0  0  0  0  0  0  0  0  0
   -0.6509    2.4864   -0.8064 H   0  0  0  0  0  0  0  0  0  0  0  0
   -2.1862    2.0520   -1.5791 H   0  0  0  0  0  0  0  0  0  0  0  0
   -1.9926    1.8921    0.1700 H   0  0  0  0  0  0  0  0  0  0  0  0
   -1.8232   -0.3582   -0.9773 H   0  0  0  0  0  0  0  0  0  0  0  0
   -0.5212    0.2386   -1.9785 H   0  0  0  0  0  0  0  0  0  0  0  0
    0.1016   -0.1551    2.2570 H   0  0  0  0  0  0  0  0  0  0  0  0
   -1.5675    0.0825    1.6888 H   0  0  0  0  0  0  0  0  0  0  0  0
   -0.2941   -2.5964    1.9094 H   0  0  0  0  0  0  0  0  0  0  0  0
   -1.5896   -2.2520    0.7538 H   0  0  0  0  0  0  0  0  0  0  0  0
    0.2184   -2.1258   -0.9828 H   0  0  0  0  0  0  0  0  0  0  0  0
    1.4199   -1.8019    0.2923 H   0  0  0  0  0  0  0  0  0  0  0  0
    2.8333    1.4711   -0.6088 H   0  0  0  0  0  0  0  0  0  0  0  0
    2.3257   -0.1138   -1.2404 H   0  0  0  0  0  0  0  0  0  0  0  0
    1.4908    1.3693   -1.7690 H   0  0  0  0  0  0  0  0  0  0  0  0
  1 11  1  0  0  0  0
  2 12  1  0  0  0  0
  2  1  1  0  0  0  0
  2  3  1  0  0  0  0
  3  7  1  0  0  0  0
  3  4  1  0  0  0  0
  4 15  1  0  0  0  0
  4 14  1  0  0  0  0
  5  4  1  0  0  0  0
  5 16  1  0  0  0  0
  6  3  1  0  0  0  0
  6 19  1  0  0  0  0
  6  5  1  0  0  0  0
  8 20  1  0  0  0  0
  8  7  1  0  0  0  0
  9  1  1  0  0  0  0
 10  1  1  0  0  0  0
 13  2  1  0  0  0  0
 17  5  1  0  0  0  0
 18  6  1  0  0  0  0
 21  8  1  0  0  0  0
 22  8  1  0  0  0  0
M  END
