title
 OpenBabel02282109593D

 22 22  0  0  0  0  0  0  0  0999 V2000
   -2.3893    0.2092    0.8300 C   0  0  0  0  0  0  0  0  0  0  0  0
   -0.9142    0.5187    1.1094 C   0  0  0  0  0  0  0  0  0  0  0  0
    0.0772   -0.1034    0.1205 C   0  0  0  0  0  0  0  0  0  0  0  0
   -0.1376    0.3908   -1.3076 C   0  0  0  0  0  0  0  0  0  0  0  0
    0.0039    1.8053   -1.3227 O   0  0  0  0  0  0  0  0  0  0  0  0
    1.5818   -0.0058    0.5306 C   0  0  0  0  0  0  0  0  0  0  0  0
    1.7611   -1.5097    0.1894 C   0  0  0  0  0  0  0  0  0  0  0  0
    0.2158   -1.6606    0.1443 C   0  0  0  0  0  0  0  0  0  0  0  0
   -2.7313    0.6711   -0.1012 H   0  0  0  0  0  0  0  0  0  0  0  0
   -2.5674   -0.8697    0.7545 H   0  0  0  0  0  0  0  0  0  0  0  0
   -3.0245    0.5924    1.6347 H   0  0  0  0  0  0  0  0  0  0  0  0
   -0.7631    1.6039    1.1177 H   0  0  0  0  0  0  0  0  0  0  0  0
   -0.6571    0.1595    2.1140 H   0  0  0  0  0  0  0  0  0  0  0  0
    0.5997   -0.0850   -1.9741 H   0  0  0  0  0  0  0  0  0  0  0  0
   -1.1359    0.0871   -1.6605 H   0  0  0  0  0  0  0  0  0  0  0  0
   -0.1100    2.1110   -2.2269 H   0  0  0  0  0  0  0  0  0  0  0  0
    2.1848    0.7170   -0.0236 H   0  0  0  0  0  0  0  0  0  0  0  0
    1.6993    0.1959    1.5994 H   0  0  0  0  0  0  0  0  0  0  0  0
    2.2274   -1.6700   -0.7863 H   0  0  0  0  0  0  0  0  0  0  0  0
    2.2932   -2.1222    0.9209 H   0  0  0  0  0  0  0  0  0  0  0  0
   -0.1910   -2.0891    1.0650 H   0  0  0  0  0  0  0  0  0  0  0  0
   -0.2080   -2.2099   -0.7024 H   0  0  0  0  0  0  0  0  0  0  0  0
  1  2  1  0  0  0  0
  1 11  1  0  0  0  0
  2 12  1  0  0  0  0
  2 13  1  0  0  0  0
  3  8  1  0  0  0  0
  3  6  1  0  0  0  0
  3  2  1  0  0  0  0
  4  3  1  0  0  0  0
  5  4  1  0  0  0  0
  6 18  1  0  0  0  0
  7  6  1  0  0  0  0
  7 20  1  0  0  0  0
  8  7  1  0  0  0  0
  8 21  1  0  0  0  0
  9  1  1  0  0  0  0
 10  1  1  0  0  0  0
 14  4  1  0  0  0  0
 15  4  1  0  0  0  0
 16  5  1  0  0  0  0
 17  6  1  0  0  0  0
 19  7  1  0  0  0  0
 22  8  1  0  0  0  0
M  END
