title
 OpenBabel02282109593D

 20 20  0  0  0  0  0  0  0  0999 V2000
   -2.1539    0.4894    0.8148 C   0  0  0  0  0  0  0  0  0  0  0  0
   -0.7606    0.7323    0.8865 O   0  0  0  0  0  0  0  0  0  0  0  0
    0.0580   -0.1179    0.0903 C   0  0  0  0  0  0  0  0  0  0  0  0
   -0.0982    0.2519   -1.3852 C   0  0  0  0  0  0  0  0  0  0  0  0
    0.1569    1.6268   -1.5911 O   0  0  0  0  0  0  0  0  0  0  0  0
    1.5290   -0.0965    0.5666 C   0  0  0  0  0  0  0  0  0  0  0  0
    1.5686   -1.6403    0.3962 C   0  0  0  0  0  0  0  0  0  0  0  0
    0.0141   -1.6484    0.3640 C   0  0  0  0  0  0  0  0  0  0  0  0
   -2.5816    0.7495   -0.1635 H   0  0  0  0  0  0  0  0  0  0  0  0
   -2.3952   -0.5604    1.0301 H   0  0  0  0  0  0  0  0  0  0  0  0
   -2.6218    1.1190    1.5755 H   0  0  0  0  0  0  0  0  0  0  0  0
    0.6191   -0.3122   -1.9911 H   0  0  0  0  0  0  0  0  0  0  0  0
   -1.1056   -0.0287   -1.7361 H   0  0  0  0  0  0  0  0  0  0  0  0
   -0.2280    2.0786   -0.8292 H   0  0  0  0  0  0  0  0  0  0  0  0
    2.2212    0.5128   -0.0173 H   0  0  0  0  0  0  0  0  0  0  0  0
    1.5777    0.2024    1.6161 H   0  0  0  0  0  0  0  0  0  0  0  0
    2.0053   -1.9454   -0.5578 H   0  0  0  0  0  0  0  0  0  0  0  0
    2.0469   -2.2142    1.1917 H   0  0  0  0  0  0  0  0  0  0  0  0
   -0.4086   -1.8544    1.3510 H   0  0  0  0  0  0  0  0  0  0  0  0
   -0.4823   -2.2828   -0.3758 H   0  0  0  0  0  0  0  0  0  0  0  0
  1  2  1  0  0  0  0
  1 10  1  0  0  0  0
  1 11  1  0  0  0  0
  3  8  1  0  0  0  0
  3  6  1  0  0  0  0
  3  2  1  0  0  0  0
  4  3  1  0  0  0  0
  5  4  1  0  0  0  0
  5 14  1  0  0  0  0
  6 16  1  0  0  0  0
  7  6  1  0  0  0  0
  7 18  1  0  0  0  0
  8  7  1  0  0  0  0
  8 19  1  0  0  0  0
  9  1  1  0  0  0  0
 12  4  1  0  0  0  0
 13  4  1  0  0  0  0
 15  6  1  0  0  0  0
 17  7  1  0  0  0  0
 20  8  1  0  0  0  0
M  END
