title
 OpenBabel02282109593D

 18 18  0  0  0  0  0  0  0  0999 V2000
    1.7741    0.9898   -1.1454 O   0  0  0  0  0  0  0  0  0  0  0  0
    1.3547    0.4774    0.1043 C   0  0  0  0  0  0  0  0  0  0  0  0
    0.0114   -0.2686    0.0478 C   0  0  0  0  0  0  0  0  0  0  0  0
   -0.9688    0.4152   -0.8983 C   0  0  0  0  0  0  0  0  0  0  0  0
   -1.0404    1.8163   -0.6646 O   0  0  0  0  0  0  0  0  0  0  0  0
    0.0140   -1.8126   -0.0586 C   0  0  0  0  0  0  0  0  0  0  0  0
   -0.6230   -1.7766    1.3435 C   0  0  0  0  0  0  0  0  0  0  0  0
   -0.5348   -0.3347    1.4004 O   0  0  0  0  0  0  0  0  0  0  0  0
    1.1888    1.7333   -1.3345 H   0  0  0  0  0  0  0  0  0  0  0  0
    2.1417   -0.1977    0.4553 H   0  0  0  0  0  0  0  0  0  0  0  0
    1.2474    1.2704    0.8576 H   0  0  0  0  0  0  0  0  0  0  0  0
   -0.6247    0.2900   -1.9292 H   0  0  0  0  0  0  0  0  0  0  0  0
   -1.9570   -0.0579   -0.8044 H   0  0  0  0  0  0  0  0  0  0  0  0
   -1.3146    1.9314    0.2530 H   0  0  0  0  0  0  0  0  0  0  0  0
   -0.6105   -2.2285   -0.8520 H   0  0  0  0  0  0  0  0  0  0  0  0
    1.0065   -2.2621   -0.1128 H   0  0  0  0  0  0  0  0  0  0  0  0
   -1.6613   -2.1258    1.3972 H   0  0  0  0  0  0  0  0  0  0  0  0
   -0.0504   -2.2475    2.1504 H   0  0  0  0  0  0  0  0  0  0  0  0
  1  2  1  0  0  0  0
  2 10  1  0  0  0  0
  2 11  1  0  0  0  0
  3  2  1  0  0  0  0
  3  8  1  0  0  0  0
  4 13  1  0  0  0  0
  4  5  1  0  0  0  0
  4  3  1  0  0  0  0
  5 14  1  0  0  0  0
  6  3  1  0  0  0  0
  6  7  1  0  0  0  0
  7 17  1  0  0  0  0
  7  8  1  0  0  0  0
  7 18  1  0  0  0  0
  9  1  1  0  0  0  0
 12  4  1  0  0  0  0
 15  6  1  0  0  0  0
 16  6  1  0  0  0  0
M  END
