title
 OpenBabel02282109593D

 20 20  0  0  0  0  0  0  0  0999 V2000
    1.3595    1.7343    0.2321 O   0  0  0  0  0  0  0  0  0  0  0  0
    1.4891    0.3128    0.3431 C   0  0  0  0  0  0  0  0  0  0  0  0
    0.1413   -0.3325    0.0599 C   0  0  0  0  0  0  0  0  0  0  0  0
   -0.9312    0.1498    1.0498 C   0  0  0  0  0  0  0  0  0  0  0  0
   -1.3362    1.4867    0.8412 O   0  0  0  0  0  0  0  0  0  0  0  0
   -0.3626   -0.2885   -1.4151 C   0  0  0  0  0  0  0  0  0  0  0  0
   -0.6683   -1.8090   -1.3345 C   0  0  0  0  0  0  0  0  0  0  0  0
    0.1784   -1.8891   -0.0336 C   0  0  0  0  0  0  0  0  0  0  0  0
    2.1801    2.1449    0.5191 H   0  0  0  0  0  0  0  0  0  0  0  0
    2.2390   -0.0564   -0.3729 H   0  0  0  0  0  0  0  0  0  0  0  0
    1.8250    0.0329    1.3547 H   0  0  0  0  0  0  0  0  0  0  0  0
   -1.8326   -0.4651    0.9430 H   0  0  0  0  0  0  0  0  0  0  0  0
   -0.5579   -0.0079    2.0784 H   0  0  0  0  0  0  0  0  0  0  0  0
   -0.5227    2.0016    0.7534 H   0  0  0  0  0  0  0  0  0  0  0  0
   -1.1967    0.3888   -1.6061 H   0  0  0  0  0  0  0  0  0  0  0  0
    0.4421   -0.0583   -2.1193 H   0  0  0  0  0  0  0  0  0  0  0  0
   -1.7265   -2.0169   -1.1580 H   0  0  0  0  0  0  0  0  0  0  0  0
   -0.3376   -2.4271   -2.1721 H   0  0  0  0  0  0  0  0  0  0  0  0
    1.1885   -2.2697   -0.2161 H   0  0  0  0  0  0  0  0  0  0  0  0
   -0.2443   -2.4381    0.8132 H   0  0  0  0  0  0  0  0  0  0  0  0
  1  2  1  0  0  0  0
  1  9  1  0  0  0  0
  2 11  1  0  0  0  0
  3  2  1  0  0  0  0
  3  4  1  0  0  0  0
  4 13  1  0  0  0  0
  5  4  1  0  0  0  0
  6  7  1  0  0  0  0
  6  3  1  0  0  0  0
  7 17  1  0  0  0  0
  7  8  1  0  0  0  0
  8  3  1  0  0  0  0
  8 20  1  0  0  0  0
 10  2  1  0  0  0  0
 12  4  1  0  0  0  0
 14  5  1  0  0  0  0
 15  6  1  0  0  0  0
 16  6  1  0  0  0  0
 18  7  1  0  0  0  0
 19  8  1  0  0  0  0
M  END
