title
 OpenBabel02282109593D

 18 18  0  0  1  0  0  0  0  0999 V2000
    1.6001    1.8103    0.3117 C   0  0  0  0  0  0  0  0  0  0  0  0
    1.4576    0.2944    0.1532 C   0  0  0  0  0  0  0  0  0  0  0  0
    0.0058   -0.1852   -0.0434 C   0  0  1  0  0  0  0  0  0  0  0  0
   -0.1572   -1.7335    0.0977 C   0  0  0  0  0  0  0  0  0  0  0  0
   -0.7199   -1.4460    1.5105 C   0  0  0  0  0  0  0  0  0  0  0  0
   -0.8954   -0.0255    1.1268 N   0  0  0  0  0  0  0  0  0  0  0  0
   -0.5522    0.3950   -1.2760 C   0  0  0  0  0  0  0  0  0  0  0  0
   -0.9710    0.8401   -2.2573 N   0  0  0  0  0  0  0  0  0  0  0  0
    2.6487    2.0833    0.4585 H   0  0  0  0  0  0  0  0  0  0  0  0
    1.2331    2.3364   -0.5744 H   0  0  0  0  0  0  0  0  0  0  0  0
    1.0418    2.1832    1.1776 H   0  0  0  0  0  0  0  0  0  0  0  0
    2.0501   -0.0471   -0.7041 H   0  0  0  0  0  0  0  0  0  0  0  0
    1.8566   -0.2191    1.0365 H   0  0  0  0  0  0  0  0  0  0  0  0
   -0.8971   -2.1462   -0.5877 H   0  0  0  0  0  0  0  0  0  0  0  0
    0.7681   -2.3063    0.0294 H   0  0  0  0  0  0  0  0  0  0  0  0
   -1.6535   -1.9471    1.7819 H   0  0  0  0  0  0  0  0  0  0  0  0
    0.0147   -1.6211    2.3069 H   0  0  0  0  0  0  0  0  0  0  0  0
   -0.5998    0.6697    1.8038 H   0  0  0  0  0  0  0  0  0  0  0  0
  1  9  1  0  0  0  0
  1 11  1  0  0  0  0
  2  1  1  0  0  0  0
  2 13  1  0  0  0  0
  3  7  1  6  0  0  0
  3  4  1  0  0  0  0
  3  2  1  0  0  0  0
  3  6  1  0  0  0  0
  4  5  1  0  0  0  0
  5 16  1  0  0  0  0
  5 17  1  0  0  0  0
  6  5  1  0  0  0  0
  6 18  1  0  0  0  0
  8  7  3  0  0  0  0
 10  1  1  0  0  0  0
 12  2  1  0  0  0  0
 14  4  1  0  0  0  0
 15  4  1  0  0  0  0
M  END
