title
 OpenBabel02282109593D

 20 20  0  0  0  0  0  0  0  0999 V2000
   -0.5931    1.7146    1.6464 C   0  0  0  0  0  0  0  0  0  0  0  0
   -0.6696    0.2253    1.3045 C   0  0  0  0  0  0  0  0  0  0  0  0
   -0.0545   -0.1506   -0.0610 C   0  0  0  0  0  0  0  0  0  0  0  0
    1.5182   -0.1089   -0.0566 C   0  0  0  0  0  0  0  0  0  0  0  0
    1.5447   -1.6420    0.1726 C   0  0  0  0  0  0  0  0  0  0  0  0
    0.0513   -1.7085   -0.2390 C   0  0  0  0  0  0  0  0  0  0  0  0
   -0.7067    0.5592   -1.1492 C   0  0  0  0  0  0  0  0  0  0  0  0
   -1.2434    1.1325   -2.0614 C   0  0  0  0  0  0  0  0  0  0  0  0
    0.4430    2.0673    1.6827 H   0  0  0  0  0  0  0  0  0  0  0  0
   -1.1230    2.3140    0.9006 H   0  0  0  0  0  0  0  0  0  0  0  0
   -1.0435    1.9110    2.6242 H   0  0  0  0  0  0  0  0  0  0  0  0
   -0.1599   -0.3611    2.0794 H   0  0  0  0  0  0  0  0  0  0  0  0
   -1.7169   -0.1004    1.3072 H   0  0  0  0  0  0  0  0  0  0  0  0
    1.9132    0.1755   -1.0338 H   0  0  0  0  0  0  0  0  0  0  0  0
    1.9802    0.5246    0.7046 H   0  0  0  0  0  0  0  0  0  0  0  0
    2.2468   -2.2161   -0.4352 H   0  0  0  0  0  0  0  0  0  0  0  0
    1.7054   -1.9086    1.2202 H   0  0  0  0  0  0  0  0  0  0  0  0
   -0.6230   -2.3017    0.3842 H   0  0  0  0  0  0  0  0  0  0  0  0
   -0.0828   -2.0023   -1.2819 H   0  0  0  0  0  0  0  0  0  0  0  0
   -1.7148    1.6392   -2.8666 H   0  0  0  0  0  0  0  0  0  0  0  0
  1  9  1  0  0  0  0
  1 11  1  0  0  0  0
  2 13  1  0  0  0  0
  2  1  1  0  0  0  0
  2 12  1  0  0  0  0
  3  4  1  0  0  0  0
  3  2  1  0  0  0  0
  4  5  1  0  0  0  0
  4 15  1  0  0  0  0
  5 17  1  0  0  0  0
  6  3  1  0  0  0  0
  6  5  1  0  0  0  0
  6 18  1  0  0  0  0
  7  3  1  0  0  0  0
  8  7  3  0  0  0  0
 10  1  1  0  0  0  0
 14  4  1  0  0  0  0
 16  5  1  0  0  0  0
 19  6  1  0  0  0  0
 20  8  1  0  0  0  0
M  END
