20
title
C -0.5931266 1.7146263 1.6463653
C -0.6695978 0.22533362 1.3045456
C -0.054544527 -0.15055293 -0.060960717
C 1.5182009 -0.10886904 -0.05657334
C 1.5447373 -1.6420429 0.17262739
C 0.051335078 -1.7084819 -0.23904854
C -0.7067154 0.5591859 -1.1491768
C -1.2434319 1.1325198 -2.0613773
H 0.44304803 2.0672746 1.6827346
H -1.1230353 2.3139594 0.90061414
H -1.0434656 1.911037 2.624183
H -0.15987612 -0.36110124 2.0794125
H -1.7169319 -0.10043638 1.3072407
H 1.9132409 0.17545462 -1.033788
H 1.9802277 0.5246489 0.7046133
H 2.2467785 -2.2161152 -0.43524462
H 1.705425 -1.90864 1.2202358
H -0.622962 -2.3017323 0.3842352
H -0.08284886 -2.0023453 -1.2818654
H -1.7147989 1.6391996 -2.8665988
