title
 OpenBabel02282109593D

 19 19  0  0  0  0  0  0  0  0999 V2000
    1.6832    1.7506   -0.3342 C   0  0  0  0  0  0  0  0  0  0  0  0
    1.4674    0.2519   -0.1130 C   0  0  0  0  0  0  0  0  0  0  0  0
   -0.0084   -0.1616    0.0604 C   0  0  0  0  0  0  0  0  0  0  0  0
   -0.8359   -0.1260   -1.2749 C   0  0  0  0  0  0  0  0  0  0  0  0
   -0.6409   -1.6585   -1.4138 C   0  0  0  0  0  0  0  0  0  0  0  0
   -0.2000   -1.7191    0.0721 C   0  0  0  0  0  0  0  0  0  0  0  0
   -0.6127    0.5415    1.1868 C   0  0  0  0  0  0  0  0  0  0  0  0
   -1.1012    1.0913    2.0799 N   0  0  0  0  0  0  0  0  0  0  0  0
    2.7470    1.9692   -0.4645 H   0  0  0  0  0  0  0  0  0  0  0  0
    1.1600    2.1065   -1.2277 H   0  0  0  0  0  0  0  0  0  0  0  0
    1.3209    2.3313    0.5192 H   0  0  0  0  0  0  0  0  0  0  0  0
    1.8720   -0.3151   -0.9600 H   0  0  0  0  0  0  0  0  0  0  0  0
    2.0220   -0.0763    0.7742 H   0  0  0  0  0  0  0  0  0  0  0  0
   -1.8770    0.1514   -1.1006 H   0  0  0  0  0  0  0  0  0  0  0  0
   -0.4310    0.5110   -2.0640 H   0  0  0  0  0  0  0  0  0  0  0  0
   -1.5239   -2.2397   -1.6843 H   0  0  0  0  0  0  0  0  0  0  0  0
    0.1651   -1.9197   -2.1034 H   0  0  0  0  0  0  0  0  0  0  0  0
    0.6951   -2.2963    0.3157 H   0  0  0  0  0  0  0  0  0  0  0  0
   -1.0088   -2.0253    0.7382 H   0  0  0  0  0  0  0  0  0  0  0  0
  1  2  1  0  0  0  0
  1 11  1  0  0  0  0
  2  3  1  0  0  0  0
  2 13  1  0  0  0  0
  3  6  1  0  0  0  0
  3  7  1  0  0  0  0
  4 14  1  0  0  0  0
  4  3  1  0  0  0  0
  5  4  1  0  0  0  0
  5  6  1  0  0  0  0
  6 18  1  0  0  0  0
  6 19  1  0  0  0  0
  7  8  3  0  0  0  0
  9  1  1  0  0  0  0
 10  1  1  0  0  0  0
 12  2  1  0  0  0  0
 15  4  1  0  0  0  0
 16  5  1  0  0  0  0
 17  5  1  0  0  0  0
M  END
