18
title
C -0.7756885 1.9641927 1.0582054
O -0.9128644 0.555653 1.0460463
C -0.08569831 -0.1120858 0.1195014
C 1.4531832 -0.15521596 0.4324089
C 1.4256036 -1.6816857 0.15777008
C -0.115931034 -1.6542184 0.32387856
C -0.36544922 0.28358823 -1.2625086
C -0.5912444 0.6062917 -2.3990462
H 0.25087994 2.2708125 1.3069777
H -1.049026 2.4083338 0.092289135
H -1.4519503 2.3376544 1.8302344
H 2.1126204 0.46795228 -0.17330046
H 1.605861 0.065190904 1.49244
H 1.721981 -1.9157403 -0.8672332
H 1.989111 -2.320473 0.8397069
H -0.4251813 -1.8598711 1.3513194
H -0.7273674 -2.2348506 -0.36765024
H -0.79555696 0.8880795 -3.4025395
