title
 OpenBabel02282109593D

 17 17  0  0  0  0  0  0  0  0999 V2000
    1.6050    1.8936   -0.1577 C   0  0  0  0  0  0  0  0  0  0  0  0
    1.4854    0.3826    0.0527 C   0  0  0  0  0  0  0  0  0  0  0  0
    0.0356   -0.1330    0.0783 C   0  0  0  0  0  0  0  0  0  0  0  0
   -0.6519   -0.1947   -1.3206 C   0  0  0  0  0  0  0  0  0  0  0  0
   -0.4936   -1.6217   -1.3786 O   0  0  0  0  0  0  0  0  0  0  0  0
   -0.0823   -1.6848   -0.0031 C   0  0  0  0  0  0  0  0  0  0  0  0
   -0.7433    0.4964    1.1366 C   0  0  0  0  0  0  0  0  0  0  0  0
   -1.3590    0.9944    1.9792 N   0  0  0  0  0  0  0  0  0  0  0  0
    2.6559    2.1943   -0.1847 H   0  0  0  0  0  0  0  0  0  0  0  0
    1.1472    2.2057   -1.1026 H   0  0  0  0  0  0  0  0  0  0  0  0
    1.1162    2.4454    0.6506 H   0  0  0  0  0  0  0  0  0  0  0  0
    2.0034   -0.1558   -0.7495 H   0  0  0  0  0  0  0  0  0  0  0  0
    1.9724    0.0954    0.9919 H   0  0  0  0  0  0  0  0  0  0  0  0
   -1.7052    0.1087   -1.3224 H   0  0  0  0  0  0  0  0  0  0  0  0
   -0.1188    0.3170   -2.1289 H   0  0  0  0  0  0  0  0  0  0  0  0
    0.8579   -2.2315    0.1288 H   0  0  0  0  0  0  0  0  0  0  0  0
   -0.8550   -2.1154    0.6444 H   0  0  0  0  0  0  0  0  0  0  0  0
  1  2  1  0  0  0  0
  1 11  1  0  0  0  0
  2  3  1  0  0  0  0
  2 13  1  0  0  0  0
  3  7  1  0  0  0  0
  4  3  1  0  0  0  0
  5  4  1  0  0  0  0
  5  6  1  0  0  0  0
  6  3  1  0  0  0  0
  6 16  1  0  0  0  0
  6 17  1  0  0  0  0
  7  8  3  0  0  0  0
  9  1  1  0  0  0  0
 10  1  1  0  0  0  0
 12  2  1  0  0  0  0
 14  4  1  0  0  0  0
 15  4  1  0  0  0  0
M  END
