title
 OpenBabel02282109593D

 17 17  0  0  0  0  0  0  0  0999 V2000
   -0.5060    1.9963   -1.1569 C   0  0  0  0  0  0  0  0  0  0  0  0
   -0.4186    0.5874   -1.3123 O   0  0  0  0  0  0  0  0  0  0  0  0
   -0.0805   -0.1151   -0.1495 C   0  0  0  0  0  0  0  0  0  0  0  0
   -1.1311   -0.1903    1.0132 C   0  0  0  0  0  0  0  0  0  0  0  0
   -0.8701   -1.7179    1.0963 C   0  0  0  0  0  0  0  0  0  0  0  0
   -0.2151   -1.6552   -0.3087 C   0  0  0  0  0  0  0  0  0  0  0  0
    1.2539    0.2774    0.3464 C   0  0  0  0  0  0  0  0  0  0  0  0
    2.2954    0.5948    0.7353 N   0  0  0  0  0  0  0  0  0  0  0  0
    0.4577    2.4310   -0.8615 H   0  0  0  0  0  0  0  0  0  0  0  0
   -0.7985    2.3971   -2.1289 H   0  0  0  0  0  0  0  0  0  0  0  0
   -1.2643    2.2735   -0.4117 H   0  0  0  0  0  0  0  0  0  0  0  0
   -0.9537    0.4157    1.9025 H   0  0  0  0  0  0  0  0  0  0  0  0
   -2.1188    0.0357    0.6031 H   0  0  0  0  0  0  0  0  0  0  0  0
   -0.1464   -1.9664    1.8757 H   0  0  0  0  0  0  0  0  0  0  0  0
   -1.7416   -2.3638    1.2088 H   0  0  0  0  0  0  0  0  0  0  0  0
   -0.9298   -1.8500   -1.1112 H   0  0  0  0  0  0  0  0  0  0  0  0
    0.6995   -2.2212   -0.4869 H   0  0  0  0  0  0  0  0  0  0  0  0
  1  9  1  0  0  0  0
  1 11  1  0  0  0  0
  2  1  1  0  0  0  0
  2  3  1  0  0  0  0
  3  7  1  0  0  0  0
  3  4  1  0  0  0  0
  4  5  1  0  0  0  0
  4 12  1  0  0  0  0
  5 15  1  0  0  0  0
  5 14  1  0  0  0  0
  6  3  1  0  0  0  0
  6  5  1  0  0  0  0
  7  8  3  0  0  0  0
 10  1  1  0  0  0  0
 13  4  1  0  0  0  0
 16  6  1  0  0  0  0
 17  6  1  0  0  0  0
M  END
