title
 OpenBabel02282109593D

 18 18  0  0  0  0  0  0  0  0999 V2000
   -0.6972    1.8480    1.5091 C   0  0  0  0  0  0  0  0  0  0  0  0
   -0.8000    0.3440    1.2496 C   0  0  0  0  0  0  0  0  0  0  0  0
   -0.0889   -0.1243   -0.0352 C   0  0  0  0  0  0  0  0  0  0  0  0
    1.4656   -0.1747    0.0968 C   0  0  0  0  0  0  0  0  0  0  0  0
    1.4492   -1.6039    0.2552 O   0  0  0  0  0  0  0  0  0  0  0  0
    0.0593   -1.6749   -0.1068 C   0  0  0  0  0  0  0  0  0  0  0  0
   -0.6147    0.5204   -1.2251 C   0  0  0  0  0  0  0  0  0  0  0  0
   -1.0530    1.0469   -2.2139 C   0  0  0  0  0  0  0  0  0  0  0  0
    0.3458    2.1691    1.6038 H   0  0  0  0  0  0  0  0  0  0  0  0
   -1.1499    2.4184    0.6932 H   0  0  0  0  0  0  0  0  0  0  0  0
   -1.2102    2.1150    2.4377 H   0  0  0  0  0  0  0  0  0  0  0  0
   -0.3663   -0.2140    2.0884 H   0  0  0  0  0  0  0  0  0  0  0  0
   -1.8543    0.0493    1.1854 H   0  0  0  0  0  0  0  0  0  0  0  0
    2.0012    0.1368   -0.8077 H   0  0  0  0  0  0  0  0  0  0  0  0
    1.8904    0.3340    0.9697 H   0  0  0  0  0  0  0  0  0  0  0  0
   -0.5329   -2.2416    0.6212 H   0  0  0  0  0  0  0  0  0  0  0  0
   -0.0883   -2.0931   -1.1096 H   0  0  0  0  0  0  0  0  0  0  0  0
   -1.4364    1.5112   -3.0887 H   0  0  0  0  0  0  0  0  0  0  0  0
  1  9  1  0  0  0  0
  1 11  1  0  0  0  0
  2  1  1  0  0  0  0
  2 12  1  0  0  0  0
  3  4  1  0  0  0  0
  3  2  1  0  0  0  0
  4  5  1  0  0  0  0
  4 15  1  0  0  0  0
  6  3  1  0  0  0  0
  6  5  1  0  0  0  0
  6 16  1  0  0  0  0
  7  3  1  0  0  0  0
  8  7  3  0  0  0  0
 10  1  1  0  0  0  0
 13  2  1  0  0  0  0
 14  4  1  0  0  0  0
 17  6  1  0  0  0  0
 18  8  1  0  0  0  0
M  END
