title
 OpenBabel02282109593D

 17 17  0  0  0  0  0  0  0  0999 V2000
   -1.0615    1.6990   -1.2505 C   0  0  0  0  0  0  0  0  0  0  0  0
   -0.6931    0.2857   -1.2110 N   0  0  0  0  0  0  0  0  0  0  0  0
    0.0635   -0.1264   -0.0423 C   0  0  0  0  0  0  0  0  0  0  0  0
   -0.7126   -0.2042    1.3278 C   0  0  0  0  0  0  0  0  0  0  0  0
   -0.9943   -1.6259    1.0299 N   0  0  0  0  0  0  0  0  0  0  0  0
    0.1297   -1.6805    0.0698 C   0  0  0  0  0  0  0  0  0  0  0  0
    1.3457    0.5760    0.0106 C   0  0  0  0  0  0  0  0  0  0  0  0
    2.3598    1.1252    0.0861 N   0  0  0  0  0  0  0  0  0  0  0  0
   -0.1563    2.3094   -1.3232 H   0  0  0  0  0  0  0  0  0  0  0  0
   -1.6606    1.8798   -2.1465 H   0  0  0  0  0  0  0  0  0  0  0  0
   -1.6364    2.0461   -0.3762 H   0  0  0  0  0  0  0  0  0  0  0  0
   -1.5235   -0.2958   -1.2605 H   0  0  0  0  0  0  0  0  0  0  0  0
   -0.0508   -0.0317    2.1864 H   0  0  0  0  0  0  0  0  0  0  0  0
   -1.5985    0.4323    1.4198 H   0  0  0  0  0  0  0  0  0  0  0  0
   -0.9243   -2.2575    1.8195 H   0  0  0  0  0  0  0  0  0  0  0  0
   -0.0750   -2.2181   -0.8614 H   0  0  0  0  0  0  0  0  0  0  0  0
    1.0852   -2.0217    0.4870 H   0  0  0  0  0  0  0  0  0  0  0  0
  1  2  1  0  0  0  0
  1 11  1  0  0  0  0
  2  3  1  0  0  0  0
  3  7  1  0  0  0  0
  3  6  1  0  0  0  0
  3  4  1  0  0  0  0
  4 14  1  0  0  0  0
  4 13  1  0  0  0  0
  5  4  1  0  0  0  0
  5 15  1  0  0  0  0
  6 17  1  0  0  0  0
  6  5  1  0  0  0  0
  7  8  3  0  0  0  0
  9  1  1  0  0  0  0
 10  1  1  0  0  0  0
 12  2  1  0  0  0  0
 16  6  1  0  0  0  0
M  END
