17
title
C -1.0614942 1.6990421 -1.2504915
N -0.6931184 0.2856985 -1.2110298
C 0.06345712 -0.12644197 -0.042328183
C -0.7125813 -0.20423307 1.3277868
N -0.99426955 -1.6259108 1.02995
C 0.1297441 -1.6804988 0.06981068
C 1.3456504 0.57601386 0.010584766
N 2.35976 1.1252451 0.08612161
H -0.15634437 2.3093536 -1.3232425
H -1.6606059 1.8798031 -2.146465
H -1.6364096 2.0461435 -0.37619185
H -1.523547 -0.29582676 -1.2605098
H -0.05082716 -0.03168075 2.1863897
H -1.5985055 0.43229598 1.419819
H -0.9242949 -2.2574663 1.8194555
H -0.075020984 -2.2180762 -0.86135846
H 1.085235 -2.021729 0.48699993
