17
title
C 1.6050235 1.8935875 -0.1577448
C 1.4854075 0.38260975 0.052659992
C 0.03556651 -0.1329768 0.078286014
C -0.6518906 -0.1947206 -1.320604
O -0.4935544 -1.6216699 -1.3785635
C -0.08228749 -1.6848034 -0.0031496028
C -0.7432583 0.49640122 1.1365689
N -1.3589736 0.9944209 1.9792067
H 2.6559198 2.1943123 -0.18468347
H 1.1472387 2.2057166 -1.1025512
H 1.1161784 2.4453628 0.65063345
H 2.0034385 -0.15576753 -0.74952006
H 1.9723803 0.09538996 0.9919118
H -1.705242 0.108668715 -1.3224479
H -0.1188212 0.31702432 -2.1289144
H 0.8579176 -2.2315168 0.12877204
H -0.85495216 -2.11539 0.644427
