18
title
C -0.7260376 1.831906 1.4565006
N -0.8626001 0.3922622 1.2427653
C -0.0694714 -0.1477073 0.15894261
C 1.5129274 -0.15151842 0.21003476
C 1.4894406 -1.6074783 -0.32023963
C -0.004729486 -1.7072318 0.08060005
C -0.5311005 0.42089844 -1.115706
N -0.8645314 0.8640788 -2.1299975
H 0.30976763 2.1656094 1.6336564
H -1.1082467 2.3672445 0.58225423
H -1.3328029 2.1210692 2.3183205
H -0.6251782 -0.11011024 2.091256
H 2.0448577 0.6018347 -0.37268123
H 1.837967 -0.09575845 1.2534496
H 1.6215867 -1.6461091 -1.4038119
H 2.1762958 -2.318596 0.14094606
H -0.135622 -2.1248474 1.0834535
H -0.7001298 -2.1994414 -0.5999561
