17
title
C -0.5059982 1.9962835 -1.1568954
O -0.41858613 0.5874203 -1.312278
C -0.08054534 -0.11512891 -0.1494904
C -1.1310996 -0.19034377 1.0132365
C -0.8700995 -1.7178999 1.0963259
C -0.21513268 -1.6552445 -0.30867746
C 1.253879 0.27741355 0.34644577
N 2.2954254 0.59481615 0.7353464
H 0.45769516 2.4310136 -0.8615394
H -0.7984648 2.3970585 -2.1288955
H -1.26426 2.2735345 -0.4116836
H -0.953659 0.41566202 1.9025047
H -2.1187525 0.035667174 0.60309273
H -0.14644259 -1.9664096 1.8756883
H -1.7415515 -2.3637843 1.2087839
H -0.9298006 -1.850027 -1.111228
H 0.6995317 -2.2211614 -0.4868892
