16
title
C 1.4456614 1.9206699 -0.0040461556
N 1.3804077 0.47452638 0.20283443
C 0.06100928 -0.109099284 0.06799311
C -0.5692935 -0.21842863 -1.3673583
O -0.30178308 -1.6305164 -1.4110249
C 0.09885167 -1.659809 -0.031876925
C -0.8412918 0.43469295 1.085391
N -1.5788196 0.8569308 1.8683486
H 2.487031 2.2402537 0.08002503
H 1.058385 2.2575595 -0.9798586
H 0.87393945 2.4256842 0.7798844
H 2.0079904 -0.00053010957 -0.43766174
H -1.6409422 0.004081412 -1.4246128
H -0.032808907 0.33475786 -2.1467052
H 1.095637 -2.0906188 0.115741834
H -0.6250304 -2.178581 0.60588574
