15
title
C 1.357784 1.9120154 0.010936376
O 1.3452176 0.49724698 0.15664184
C 0.084987566 -0.09890415 0.0478924
C -0.50936466 -0.23208757 -1.3896213
O -0.3854631 -1.6624568 -1.3501563
C 0.19998138 -1.6405065 -0.037564944
C -0.85598713 0.4076988 1.0594032
N -1.5922564 0.8174949 1.85049
H 2.4011402 2.2187986 0.09617955
H 0.972838 2.2207048 -0.97063965
H 0.76861435 2.4020712 0.79599226
H -1.5464314 0.09382902 -1.5186769
H 0.12989454 0.2249899 -2.154159
H 1.2455282 -1.9662282 -0.029924743
H -0.38452193 -2.2089317 0.69201475
