title
 OpenBabel02282109593D

 16 16  0  0  0  0  0  0  0  0999 V2000
   -0.7199    1.8687    1.2186 C   0  0  0  0  0  0  0  0  0  0  0  0
   -0.8114    0.4599    1.0975 O   0  0  0  0  0  0  0  0  0  0  0  0
   -0.0873   -0.0927    0.0224 C   0  0  0  0  0  0  0  0  0  0  0  0
    1.4557   -0.2070    0.2426 C   0  0  0  0  0  0  0  0  0  0  0  0
    1.3834   -1.6410    0.3064 O   0  0  0  0  0  0  0  0  0  0  0  0
   -0.0461   -1.6365    0.1491 C   0  0  0  0  0  0  0  0  0  0  0  0
   -0.5010    0.4320   -1.2751 C   0  0  0  0  0  0  0  0  0  0  0  0
   -0.8366    0.8608   -2.3471 C   0  0  0  0  0  0  0  0  0  0  0  0
    0.3180    2.1982    1.3715 H   0  0  0  0  0  0  0  0  0  0  0  0
   -1.1240    2.3782    0.3350 H   0  0  0  0  0  0  0  0  0  0  0  0
   -1.3089    2.1426    2.0960 H   0  0  0  0  0  0  0  0  0  0  0  0
    2.0870    0.1413   -0.5814 H   0  0  0  0  0  0  0  0  0  0  0  0
    1.7887    0.2371    1.1886 H   0  0  0  0  0  0  0  0  0  0  0  0
   -0.5728   -1.9884    1.0431 H   0  0  0  0  0  0  0  0  0  0  0  0
   -0.3712   -2.1967   -0.7329 H   0  0  0  0  0  0  0  0  0  0  0  0
   -1.1352    1.2349   -3.2955 H   0  0  0  0  0  0  0  0  0  0  0  0
  1  9  1  0  0  0  0
  1 11  1  0  0  0  0
  2  1  1  0  0  0  0
  3  6  1  0  0  0  0
  3  4  1  0  0  0  0
  3  2  1  0  0  0  0
  4  5  1  0  0  0  0
  4 13  1  0  0  0  0
  6  5  1  0  0  0  0
  6 14  1  0  0  0  0
  7  3  1  0  0  0  0
  8  7  3  0  0  0  0
 10  1  1  0  0  0  0
 12  4  1  0  0  0  0
 15  6  1  0  0  0  0
 16  8  1  0  0  0  0
M  END
