17
title
O 1.6319649 1.5128186 -0.4884103
C 1.4353532 0.16610216 -0.12316746
C -0.05227076 -0.18399034 0.08613398
C -0.87267375 -0.13600408 -1.2456334
C -0.74622416 -1.6800452 -1.3491665
C -0.30340254 -1.7281314 0.13866489
C -0.57335067 0.60874236 1.1923702
N -0.96045923 1.2617414 2.0658648
H 1.3705032 2.0665 0.256579
H 1.82187 -0.43593124 -0.9517625
H 2.0004852 -0.10566722 0.78116304
H -1.9013567 0.18994613 -1.0815654
H -0.42793107 0.47620717 -2.0319567
H -1.6555607 -2.2270458 -1.6023401
H 0.04415823 -1.9951934 -2.0342476
H 0.56831586 -2.3364303 0.39357883
H -1.119683 -1.9859475 0.8155885
