16
title
O 1.6057117 1.574919 -0.40298942
C 1.4385754 0.21699928 -0.06520737
C -0.045055326 -0.17129916 0.094843216
C -0.8120429 -0.18053061 -1.2634531
N -0.5401582 -1.6330631 -1.3607504
C -0.27376705 -1.7148554 0.09172311
C -0.64317673 0.5914313 1.1788391
N -1.0834004 1.2244009 2.04141
H 1.3357645 2.1094673 0.35265505
H 1.8502023 -0.36643466 -0.8932864
H 1.9843613 -0.052788075 0.8511844
H -1.8694242 0.08517024 -1.140336
H -0.3722152 0.4310592 -2.0562398
H -1.3126363 -2.1987014 -1.6923335
H 0.58925116 -2.3307004 0.36801517
H -1.1331843 -2.0025713 0.7104266
