title
 OpenBabel02282109593D

 17 17  0  0  0  0  0  0  0  0999 V2000
    1.6320    1.5128   -0.4884 O   0  0  0  0  0  0  0  0  0  0  0  0
    1.4354    0.1661   -0.1232 C   0  0  0  0  0  0  0  0  0  0  0  0
   -0.0523   -0.1840    0.0861 C   0  0  0  0  0  0  0  0  0  0  0  0
   -0.8727   -0.1360   -1.2456 C   0  0  0  0  0  0  0  0  0  0  0  0
   -0.7462   -1.6800   -1.3492 C   0  0  0  0  0  0  0  0  0  0  0  0
   -0.3034   -1.7281    0.1387 C   0  0  0  0  0  0  0  0  0  0  0  0
   -0.5734    0.6087    1.1924 C   0  0  0  0  0  0  0  0  0  0  0  0
   -0.9605    1.2617    2.0659 N   0  0  0  0  0  0  0  0  0  0  0  0
    1.3705    2.0665    0.2566 H   0  0  0  0  0  0  0  0  0  0  0  0
    1.8219   -0.4359   -0.9518 H   0  0  0  0  0  0  0  0  0  0  0  0
    2.0005   -0.1057    0.7812 H   0  0  0  0  0  0  0  0  0  0  0  0
   -1.9014    0.1899   -1.0816 H   0  0  0  0  0  0  0  0  0  0  0  0
   -0.4279    0.4762   -2.0320 H   0  0  0  0  0  0  0  0  0  0  0  0
   -1.6556   -2.2270   -1.6023 H   0  0  0  0  0  0  0  0  0  0  0  0
    0.0442   -1.9952   -2.0342 H   0  0  0  0  0  0  0  0  0  0  0  0
    0.5683   -2.3364    0.3936 H   0  0  0  0  0  0  0  0  0  0  0  0
   -1.1197   -1.9859    0.8156 H   0  0  0  0  0  0  0  0  0  0  0  0
  1  2  1  0  0  0  0
  1  9  1  0  0  0  0
  2  3  1  0  0  0  0
  2 11  1  0  0  0  0
  3  6  1  0  0  0  0
  3  7  1  0  0  0  0
  4 12  1  0  0  0  0
  4  3  1  0  0  0  0
  5  4  1  0  0  0  0
  5  6  1  0  0  0  0
  6 16  1  0  0  0  0
  6 17  1  0  0  0  0
  7  8  3  0  0  0  0
 10  2  1  0  0  0  0
 13  4  1  0  0  0  0
 14  5  1  0  0  0  0
 15  5  1  0  0  0  0
M  END
