title
 OpenBabel02282109593D

 16 16  0  0  0  0  0  0  0  0999 V2000
    1.6057    1.5749   -0.4030 O   0  0  0  0  0  0  0  0  0  0  0  0
    1.4386    0.2170   -0.0652 C   0  0  0  0  0  0  0  0  0  0  0  0
   -0.0451   -0.1713    0.0948 C   0  0  0  0  0  0  0  0  0  0  0  0
   -0.8120   -0.1805   -1.2635 C   0  0  0  0  0  0  0  0  0  0  0  0
   -0.5402   -1.6331   -1.3608 N   0  0  0  0  0  0  0  0  0  0  0  0
   -0.2738   -1.7149    0.0917 C   0  0  0  0  0  0  0  0  0  0  0  0
   -0.6432    0.5914    1.1788 C   0  0  0  0  0  0  0  0  0  0  0  0
   -1.0834    1.2244    2.0414 N   0  0  0  0  0  0  0  0  0  0  0  0
    1.3358    2.1095    0.3527 H   0  0  0  0  0  0  0  0  0  0  0  0
    1.8502   -0.3664   -0.8933 H   0  0  0  0  0  0  0  0  0  0  0  0
    1.9844   -0.0528    0.8512 H   0  0  0  0  0  0  0  0  0  0  0  0
   -1.8694    0.0852   -1.1403 H   0  0  0  0  0  0  0  0  0  0  0  0
   -0.3722    0.4311   -2.0562 H   0  0  0  0  0  0  0  0  0  0  0  0
   -1.3126   -2.1987   -1.6923 H   0  0  0  0  0  0  0  0  0  0  0  0
    0.5893   -2.3307    0.3680 H   0  0  0  0  0  0  0  0  0  0  0  0
   -1.1332   -2.0026    0.7104 H   0  0  0  0  0  0  0  0  0  0  0  0
  1  2  1  0  0  0  0
  1  9  1  0  0  0  0
  2  3  1  0  0  0  0
  2 11  1  0  0  0  0
  3  7  1  0  0  0  0
  4 12  1  0  0  0  0
  4  3  1  0  0  0  0
  5  4  1  0  0  0  0
  5  6  1  0  0  0  0
  6  3  1  0  0  0  0
  6 15  1  0  0  0  0
  6 16  1  0  0  0  0
  7  8  3  0  0  0  0
 10  2  1  0  0  0  0
 13  4  1  0  0  0  0
 14  5  1  0  0  0  0
M  END
