16
title
C -0.7199255 1.8687029 1.218574
O -0.81141484 0.45985308 1.0974941
C -0.087282345 -0.09268445 0.0223607
C 1.4557084 -0.20704967 0.24255921
O 1.3834478 -1.6410033 0.3063729
C -0.046147805 -1.6365322 0.1491449
C -0.50102484 0.4320262 -1.2751219
C -0.8365704 0.8608258 -2.3470533
H 0.3180472 2.1982386 1.3714788
H -1.1240449 2.3781664 0.33503315
H -1.3089331 2.142639 2.096007
H 2.086953 0.14127958 -0.5814247
H 1.788711 0.23708116 1.1886481
H -0.5727517 -1.9884363 1.0431036
H -0.3712107 -2.1967416 -0.7328861
H -1.1351804 1.2348773 -3.295506
