16
title
N -0.6121339 1.7353144 -1.4126517
C -0.80680734 0.298562 -1.3014612
C -0.1014636 -0.21054186 -0.04541105
C 0.111368194 -1.746007 0.06223625
C 1.6120143 -1.402401 0.0030825739
O 1.3291152 0.011746277 -0.13413137
C -0.6559447 0.40349406 1.172641
N -1.0989995 0.8225481 2.1539872
H 0.37336457 1.932057 -1.556052
H -1.1173116 2.1065583 -2.2089698
H -1.8786697 0.0838389 -1.2155566
H -0.41575134 -0.29315966 -2.1472902
H -0.23886465 -2.2001421 0.98785204
H -0.27931792 -2.300689 -0.79207855
H 2.1778588 -1.6109599 0.9171273
H 2.1639864 -1.7888896 -0.8598069
