title
 OpenBabel02282109593D

 18 18  0  0  0  0  0  0  0  0999 V2000
    1.6140    1.5475   -0.4020 O   0  0  0  0  0  0  0  0  0  0  0  0
    1.4239    0.1867   -0.0795 C   0  0  0  0  0  0  0  0  0  0  0  0
   -0.0633   -0.1797    0.0946 C   0  0  0  0  0  0  0  0  0  0  0  0
   -0.8368   -0.1406   -1.2678 C   0  0  0  0  0  0  0  0  0  0  0  0
   -0.6620   -1.6782   -1.3868 C   0  0  0  0  0  0  0  0  0  0  0  0
   -0.2779   -1.7317    0.1165 C   0  0  0  0  0  0  0  0  0  0  0  0
   -0.6242    0.5936    1.1892 C   0  0  0  0  0  0  0  0  0  0  0  0
   -1.0577    1.2653    2.0899 C   0  0  0  0  0  0  0  0  0  0  0  0
    1.1996    2.0638    0.3002 H   0  0  0  0  0  0  0  0  0  0  0  0
    1.8437   -0.3868   -0.9126 H   0  0  0  0  0  0  0  0  0  0  0  0
    1.9694   -0.0984    0.8339 H   0  0  0  0  0  0  0  0  0  0  0  0
   -1.8800    0.1509   -1.1311 H   0  0  0  0  0  0  0  0  0  0  0  0
   -0.3878    0.4942   -2.0341 H   0  0  0  0  0  0  0  0  0  0  0  0
   -1.5426   -2.2496   -1.6860 H   0  0  0  0  0  0  0  0  0  0  0  0
    0.1654   -1.9602   -2.0425 H   0  0  0  0  0  0  0  0  0  0  0  0
    0.5937   -2.3285    0.4002 H   0  0  0  0  0  0  0  0  0  0  0  0
   -1.1167   -2.0124    0.7563 H   0  0  0  0  0  0  0  0  0  0  0  0
   -1.4626    1.8386    2.8870 H   0  0  0  0  0  0  0  0  0  0  0  0
  1  2  1  0  0  0  0
  1  9  1  0  0  0  0
  2  3  1  0  0  0  0
  2 11  1  0  0  0  0
  3  6  1  0  0  0  0
  3  7  1  0  0  0  0
  4 12  1  0  0  0  0
  4  3  1  0  0  0  0
  5  4  1  0  0  0  0
  5  6  1  0  0  0  0
  6 16  1  0  0  0  0
  6 17  1  0  0  0  0
  7  8  3  0  0  0  0
  8 18  1  0  0  0  0
 10  2  1  0  0  0  0
 13  4  1  0  0  0  0
 14  5  1  0  0  0  0
 15  5  1  0  0  0  0
M  END
