18
title
C -0.8112389 1.8362073 1.588774
C -0.976975 0.3355868 1.3232429
C -0.18762556 -0.16196287 0.10851546
C 1.3525735 -0.18898061 0.20134147
O 1.3877214 -1.6190417 -0.0024176126
C -0.043269362 -1.7102265 -0.020048905
C -0.7300377 0.44318506 -1.1670874
O -0.083705395 1.0240786 -2.0000901
H 0.23873255 2.094873 1.7609768
H -1.163329 2.4378579 0.7442325
H -1.3779787 2.1394515 2.4735756
H -0.65463424 -0.2364178 2.201147
H -2.0398464 0.09848121 1.1773759
H 1.8709034 0.3559793 -0.59294814
H 1.7612301 0.09412138 1.179318
H -0.4416525 -2.268079 0.8384671
H -0.421239 -2.1637223 -0.9457342
H -1.8284509 0.29171392 -1.2978297
