18
title
O 1.3945444 1.6577697 -0.22997673
C 1.3446211 0.27096045 0.027678663
C -0.08780457 -0.27278823 0.050437223
C -0.7990837 -0.2021517 -1.3476915
C -0.47583774 -1.7027183 -1.5692656
C -0.16739644 -1.8300579 -0.05407989
C -0.8937259 0.34875897 1.1569424
O -0.5479219 1.2964548 1.8253962
H 0.95820665 2.076298 0.52348346
H 1.910572 -0.21827962 -0.77286434
H 1.836737 0.0149357505 0.97961754
H -1.8742495 -0.0177931 -1.2585427
H -0.37415448 0.5345048 -2.0315351
H -1.2782545 -2.3289835 -1.9642137
H 0.41058925 -1.8514919 -2.1904256
H 0.73562634 -2.3709424 0.24159533
H -1.0119205 -2.2369156 0.51110905
H -1.8910415 -0.120590344 1.3245991
