title
 OpenBabel02282109593D

 20 20  0  0  0  0  0  0  0  0999 V2000
    1.4707    2.2081   -0.2173 C   0  0  0  0  0  0  0  0  0  0  0  0
    1.5182    0.7138    0.1292 C   0  0  0  0  0  0  0  0  0  0  0  0
    0.1894   -0.0481   -0.0155 C   0  0  0  0  0  0  0  0  0  0  0  0
   -0.4131   -0.1393   -1.4650 C   0  0  0  0  0  0  0  0  0  0  0  0
   -0.6709   -1.6509   -1.2272 C   0  0  0  0  0  0  0  0  0  0  0  0
    0.2551   -1.6004    0.0179 C   0  0  0  0  0  0  0  0  0  0  0  0
   -0.8657    0.4970    0.9231 C   0  0  0  0  0  0  0  0  0  0  0  0
   -1.4656   -0.1425    1.7510 O   0  0  0  0  0  0  0  0  0  0  0  0
    2.4785    2.6338   -0.2009 H   0  0  0  0  0  0  0  0  0  0  0  0
    1.0597    2.3713   -1.2193 H   0  0  0  0  0  0  0  0  0  0  0  0
    0.8645    2.7823    0.4892 H   0  0  0  0  0  0  0  0  0  0  0  0
    2.2436    0.2210   -0.5299 H   0  0  0  0  0  0  0  0  0  0  0  0
    1.8982    0.5806    1.1506 H   0  0  0  0  0  0  0  0  0  0  0  0
   -1.2780    0.4922   -1.6907 H   0  0  0  0  0  0  0  0  0  0  0  0
    0.3551    0.0491   -2.2210 H   0  0  0  0  0  0  0  0  0  0  0  0
   -1.7097   -1.8550   -0.9572 H   0  0  0  0  0  0  0  0  0  0  0  0
   -0.3833   -2.3274   -2.0346 H   0  0  0  0  0  0  0  0  0  0  0  0
    1.2640   -1.9665   -0.1897 H   0  0  0  0  0  0  0  0  0  0  0  0
   -0.1192   -2.0632    0.9318 H   0  0  0  0  0  0  0  0  0  0  0  0
   -1.0901    1.5787    0.7804 H   0  0  0  0  0  0  0  0  0  0  0  0
  1  9  1  0  0  0  0
  1  2  1  0  0  0  0
  1 11  1  0  0  0  0
  2 13  1  0  0  0  0
  3  6  1  0  0  0  0
  3  2  1  0  0  0  0
  3  7  1  0  0  0  0
  4  5  1  0  0  0  0
  4  3  1  0  0  0  0
  5 16  1  0  0  0  0
  5  6  1  0  0  0  0
  6 19  1  0  0  0  0
  7  8  2  0  0  0  0
 10  1  1  0  0  0  0
 12  2  1  0  0  0  0
 14  4  1  0  0  0  0
 15  4  1  0  0  0  0
 17  5  1  0  0  0  0
 18  6  1  0  0  0  0
 20  7  1  0  0  0  0
M  END
