18
title
C 1.5582962 1.8660032 0.18032144
O 1.5068115 0.45689037 0.31704888
C 0.24297288 -0.099269845 0.046878565
C -0.35454175 -0.002723048 -1.3864605
C -0.6818505 -1.5187868 -1.3111103
C 0.29446724 -1.6483151 -0.112847485
C -0.73952764 0.26585537 1.1486914
O -1.9284925 0.39705002 1.0072483
H 2.5792842 2.1711063 0.41879642
H 1.3211149 2.1836963 -0.84442896
H 0.8682642 2.3775 0.86786467
H -1.192004 0.6836457 -1.5182314
H 0.43167582 0.21668597 -2.1129198
H -1.7184577 -1.6907512 -1.0159242
H -0.45835146 -2.1217844 -2.192486
H 1.3054955 -1.9295295 -0.4171423
H -0.005523765 -2.2579029 0.7431733
H -0.24939522 0.36450833 2.1453762
