title
 OpenBabel02282109593D

 18 18  0  0  0  0  0  0  0  0999 V2000
    1.3945    1.6578   -0.2300 O   0  0  0  0  0  0  0  0  0  0  0  0
    1.3446    0.2710    0.0277 C   0  0  0  0  0  0  0  0  0  0  0  0
   -0.0878   -0.2728    0.0504 C   0  0  0  0  0  0  0  0  0  0  0  0
   -0.7991   -0.2022   -1.3477 C   0  0  0  0  0  0  0  0  0  0  0  0
   -0.4758   -1.7027   -1.5693 C   0  0  0  0  0  0  0  0  0  0  0  0
   -0.1674   -1.8301   -0.0541 C   0  0  0  0  0  0  0  0  0  0  0  0
   -0.8937    0.3488    1.1569 C   0  0  0  0  0  0  0  0  0  0  0  0
   -0.5479    1.2965    1.8254 O   0  0  0  0  0  0  0  0  0  0  0  0
    0.9582    2.0763    0.5235 H   0  0  0  0  0  0  0  0  0  0  0  0
    1.9106   -0.2183   -0.7729 H   0  0  0  0  0  0  0  0  0  0  0  0
    1.8367    0.0149    0.9796 H   0  0  0  0  0  0  0  0  0  0  0  0
   -1.8742   -0.0178   -1.2585 H   0  0  0  0  0  0  0  0  0  0  0  0
   -0.3742    0.5345   -2.0315 H   0  0  0  0  0  0  0  0  0  0  0  0
   -1.2783   -2.3290   -1.9642 H   0  0  0  0  0  0  0  0  0  0  0  0
    0.4106   -1.8515   -2.1904 H   0  0  0  0  0  0  0  0  0  0  0  0
    0.7356   -2.3709    0.2416 H   0  0  0  0  0  0  0  0  0  0  0  0
   -1.0119   -2.2369    0.5111 H   0  0  0  0  0  0  0  0  0  0  0  0
   -1.8910   -0.1206    1.3246 H   0  0  0  0  0  0  0  0  0  0  0  0
  1  2  1  0  0  0  0
  1  9  1  0  0  0  0
  2  3  1  0  0  0  0
  2 11  1  0  0  0  0
  3  7  1  0  0  0  0
  4 12  1  0  0  0  0
  4  3  1  0  0  0  0
  5  4  1  0  0  0  0
  5  6  1  0  0  0  0
  6  3  1  0  0  0  0
  6 16  1  0  0  0  0
  6 17  1  0  0  0  0
  7 18  1  0  0  0  0
  7  8  2  0  0  0  0
 10  2  1  0  0  0  0
 13  4  1  0  0  0  0
 14  5  1  0  0  0  0
 15  5  1  0  0  0  0
M  END
