title
 OpenBabel02282109593D

 15 15  0  0  0  0  0  0  0  0999 V2000
    1.5766    1.6632   -0.2849 O   0  0  0  0  0  0  0  0  0  0  0  0
    1.4525    0.3015    0.0506 C   0  0  0  0  0  0  0  0  0  0  0  0
   -0.0174   -0.1586    0.0997 C   0  0  0  0  0  0  0  0  0  0  0  0
   -0.6838   -0.2106   -1.3032 C   0  0  0  0  0  0  0  0  0  0  0  0
   -0.5312   -1.6423   -1.3525 O   0  0  0  0  0  0  0  0  0  0  0  0
   -0.1827   -1.7028    0.0403 C   0  0  0  0  0  0  0  0  0  0  0  0
   -0.7334    0.5589    1.1429 C   0  0  0  0  0  0  0  0  0  0  0  0
   -1.2684    1.1584    1.9749 N   0  0  0  0  0  0  0  0  0  0  0  0
    1.2413    2.1894    0.4501 H   0  0  0  0  0  0  0  0  0  0  0  0
    1.9555   -0.2631   -0.7408 H   0  0  0  0  0  0  0  0  0  0  0  0
    1.9420    0.0594    1.0055 H   0  0  0  0  0  0  0  0  0  0  0  0
   -1.7366    0.0940   -1.3136 H   0  0  0  0  0  0  0  0  0  0  0  0
   -0.1368    0.3052   -2.0977 H   0  0  0  0  0  0  0  0  0  0  0  0
    0.7287   -2.2836    0.2214 H   0  0  0  0  0  0  0  0  0  0  0  0
   -0.9981   -2.0923    0.6613 H   0  0  0  0  0  0  0  0  0  0  0  0
  1  2  1  0  0  0  0
  1  9  1  0  0  0  0
  2  3  1  0  0  0  0
  2 11  1  0  0  0  0
  3  7  1  0  0  0  0
  4  3  1  0  0  0  0
  5  4  1  0  0  0  0
  5  6  1  0  0  0  0
  6  3  1  0  0  0  0
  6 14  1  0  0  0  0
  6 15  1  0  0  0  0
  7  8  3  0  0  0  0
 10  2  1  0  0  0  0
 12  4  1  0  0  0  0
 13  4  1  0  0  0  0
M  END
