16
title
O 1.7939572 1.3260249 -0.8616287
C 1.3338234 0.8186268 0.37769774
C 0.05236009 0.006329705 0.21965249
C 0.15415981 -1.4586848 -0.24907996
C -0.46645245 -1.790506 1.1221895
O -0.47415468 -0.39256322 1.5143996
C -1.0212318 0.8283451 -0.48841348
O -1.5680002 0.5088125 -1.5104742
H 2.0092173 0.58180654 -1.4338852
H 2.088582 0.20815884 0.8950326
H 1.1261505 1.6886809 1.0103953
H -0.45624933 -1.6877667 -1.1221688
H 1.172359 -1.8251969 -0.39609233
H -1.4793531 -2.206441 1.093626
H 0.14995936 -2.388703 1.8011115
H -1.2987379 1.7537489 0.06372238
