18
title
C -0.98611027 1.8447865 1.1665432
C -0.5771032 0.3738016 1.2933197
C -0.004363816 -0.19780333 0.002060987
C 0.010281522 -1.7523366 -0.12605682
C -1.0087826 -1.5283667 -1.2582321
O -0.9158866 -0.09388147 -1.1225321
C 1.343065 0.40785635 -0.36788967
O 2.1567097 0.8041123 0.42565802
H -0.11814848 2.4831781 0.9776672
H -1.6952407 1.9747508 0.34429988
H -1.461709 2.1931155 2.087643
H 0.18286933 0.25337934 2.0735023
H -1.4440211 -0.2313733 1.5820657
H 0.961783 -2.1872544 -0.4382744
H -0.34955946 -2.2765324 0.7601297
H -0.69856817 -1.8637282 -2.2542622
H -2.0245607 -1.8915797 -1.0622611
H 1.5258131 0.42613682 -1.4668036
