title
 OpenBabel02282109593D

 14 14  0  0  1  0  0  0  0  0999 V2000
    0.3211   -2.4093    0.7802 C   0  0  0  0  0  0  0  0  0  0  0  0
    0.2867   -1.2099    0.7066 C   0  0  0  0  0  0  0  0  0  0  0  0
    0.2348    0.2243    0.5928 C   0  0  1  0  0  0  0  0  0  0  0  0
   -1.0025    0.7946   -0.1014 C   0  0  0  0  0  0  0  0  0  0  0  0
   -1.1442    0.3304   -1.4817 C   0  0  0  0  0  0  0  0  0  0  0  0
   -1.2603   -0.0358   -2.5708 N   0  0  0  0  0  0  0  0  0  0  0  0
    0.9071    1.0393    1.6522 C   0  0  0  0  0  0  0  0  0  0  0  0
    1.4812    0.9643    0.3063 N   0  0  0  0  0  0  0  0  0  0  0  0
    0.3538   -3.4695    0.8393 H   0  0  0  0  0  0  0  0  0  0  0  0
   -1.9035    0.5194    0.4574 H   0  0  0  0  0  0  0  0  0  0  0  0
   -0.9291    1.8861   -0.1052 H   0  0  0  0  0  0  0  0  0  0  0  0
    0.4900    2.0064    1.9206 H   0  0  0  0  0  0  0  0  0  0  0  0
    1.3834    0.5004    2.4653 H   0  0  0  0  0  0  0  0  0  0  0  0
    2.2668    0.3194    0.2858 H   0  0  0  0  0  0  0  0  0  0  0  0
  1  9  1  0  0  0  0
  2  1  3  0  0  0  0
  3  2  1  1  0  0  0
  3  7  1  0  0  0  0
  4 10  1  0  0  0  0
  4  3  1  0  0  0  0
  5  4  1  0  0  0  0
  6  5  3  0  0  0  0
  7 12  1  0  0  0  0
  7 13  1  0  0  0  0
  8  3  1  0  0  0  0
  8  7  1  0  0  0  0
 11  4  1  0  0  0  0
 14  8  1  0  0  0  0
M  END
