14
title
C -1.456332 -2.4795156 0.5656108
C -1.3801979 -1.3344998 0.21194044
C -1.2712245 0.059523445 -0.20254219
C 0.13474609 0.6347208 -0.009606495
C 0.27674127 2.0498555 0.45184377
N 0.61673653 0.94273186 1.3470746
C 1.1387355 0.084574565 -0.8998754
N 1.9148917 -0.3389608 -1.6438695
H -1.521781 -3.4954429 0.8687957
H -1.559226 0.16215585 -1.2558974
H -1.973876 0.67571044 0.37231174
H 1.1218438 2.64072 0.113853894
H -0.6433879 2.6066563 0.61004245
H -0.12794505 0.76130533 2.016553
