16
title
C -1.5291768 -2.445516 -0.57646525
C -1.4048426 -1.3111842 -0.20059858
C -1.2486311 0.069657065 0.24383204
C 0.16330488 0.6288512 0.025235498
C 0.51821095 1.1268097 -1.3654181
C 0.2898031 2.1183739 -0.26098213
C 1.1984383 0.008188106 0.80723494
C 2.0533476 -0.5093264 1.4764936
H -1.6373248 -3.45012 -0.90237385
H -1.9625323 0.7069632 -0.29262584
H -1.5033758 0.14645635 1.3079216
H 1.5321923 0.9638258 -1.7091516
H -0.24283175 1.0186635 -2.1305683
H -0.625968 2.7000196 -0.2678574
H 1.1483461 2.6307967 0.15566851
H 2.8094518 -0.97333425 2.0595944
