title
 OpenBabel02282109593D

 15 15  0  0  0  0  0  0  0  0999 V2000
   -1.4957   -2.4733   -0.5520 C   0  0  0  0  0  0  0  0  0  0  0  0
   -1.4004   -1.3312   -0.1929 C   0  0  0  0  0  0  0  0  0  0  0  0
   -1.2676    0.0565    0.2352 C   0  0  0  0  0  0  0  0  0  0  0  0
    0.1356    0.6306    0.0109 C   0  0  0  0  0  0  0  0  0  0  0  0
    0.5116    1.1182   -1.3774 C   0  0  0  0  0  0  0  0  0  0  0  0
    0.2725    2.1171   -0.2845 C   0  0  0  0  0  0  0  0  0  0  0  0
    1.1775    0.0239    0.8017 C   0  0  0  0  0  0  0  0  0  0  0  0
    2.0112   -0.4539    1.4457 N   0  0  0  0  0  0  0  0  0  0  0  0
   -1.5800   -3.4859   -0.8609 H   0  0  0  0  0  0  0  0  0  0  0  0
   -1.9816    0.6825   -0.3136 H   0  0  0  0  0  0  0  0  0  0  0  0
   -1.5298    0.1466    1.2963 H   0  0  0  0  0  0  0  0  0  0  0  0
    1.5290    0.9518   -1.7092 H   0  0  0  0  0  0  0  0  0  0  0  0
   -0.2424    0.9956   -2.1469 H   0  0  0  0  0  0  0  0  0  0  0  0
   -0.6461    2.6931   -0.2964 H   0  0  0  0  0  0  0  0  0  0  0  0
    1.1262    2.6336    0.1369 H   0  0  0  0  0  0  0  0  0  0  0  0
  1  2  3  0  0  0  0
  2  3  1  0  0  0  0
  3 11  1  0  0  0  0
  4  3  1  0  0  0  0
  4  7  1  0  0  0  0
  5  6  1  0  0  0  0
  5  4  1  0  0  0  0
  6  4  1  0  0  0  0
  6 15  1  0  0  0  0
  7  8  3  0  0  0  0
  9  1  1  0  0  0  0
 10  3  1  0  0  0  0
 12  5  1  0  0  0  0
 13  5  1  0  0  0  0
 14  6  1  0  0  0  0
M  END
