15
title
C 0.9580471 -2.3988755 -0.04907635
C 0.8128704 -1.2061536 -0.004486361
C 0.62578255 0.21908835 0.024425304
C -0.479789 0.74492574 -0.89599884
C -1.8180071 0.31006423 -0.49083066
N -2.8752897 -0.02193162 -0.16490366
C 0.8678232 0.95498586 1.3323482
C 1.8524177 1.1010115 0.20912743
H 1.0795792 -3.4534566 -0.077760994
H -0.46282586 1.8402128 -0.9028382
H -0.29962942 0.41407815 -1.9245725
H 0.2097481 1.7875371 1.556253
H 1.1482129 0.3568664 2.1902397
H 2.8082485 0.59889674 0.29351336
H 1.8792026 2.0368783 -0.33888268
