title
 OpenBabel02282109593D

 13 13  0  0  1  0  0  0  0  0999 V2000
    0.3610   -2.4095    0.7924 C   0  0  0  0  0  0  0  0  0  0  0  0
    0.3339   -1.2119    0.7060 C   0  0  0  0  0  0  0  0  0  0  0  0
    0.2541    0.2237    0.5943 C   0  0  1  0  0  0  0  0  0  0  0  0
   -1.0198    0.7720   -0.0492 C   0  0  0  0  0  0  0  0  0  0  0  0
   -1.2186    0.2963   -1.4182 C   0  0  0  0  0  0  0  0  0  0  0  0
   -1.3863   -0.0731   -2.4993 N   0  0  0  0  0  0  0  0  0  0  0  0
    0.9898    1.0806    1.5473 C   0  0  0  0  0  0  0  0  0  0  0  0
    1.4558    0.9035    0.2132 O   0  0  0  0  0  0  0  0  0  0  0  0
    0.3976   -3.4694    0.8582 H   0  0  0  0  0  0  0  0  0  0  0  0
   -1.8878    0.4820    0.5532 H   0  0  0  0  0  0  0  0  0  0  0  0
   -0.9681    1.8650   -0.0589 H   0  0  0  0  0  0  0  0  0  0  0  0
    0.5980    2.0691    1.7845 H   0  0  0  0  0  0  0  0  0  0  0  0
    1.5896    0.6096    2.3227 H   0  0  0  0  0  0  0  0  0  0  0  0
  1  9  1  0  0  0  0
  2  1  3  0  0  0  0
  3  2  1  1  0  0  0
  3  7  1  0  0  0  0
  4 10  1  0  0  0  0
  4  3  1  0  0  0  0
  5  4  1  0  0  0  0
  6  5  3  0  0  0  0
  7 12  1  0  0  0  0
  7 13  1  0  0  0  0
  8  3  1  0  0  0  0
  8  7  1  0  0  0  0
 11  4  1  0  0  0  0
M  END
