12
title
N -1.4589373 -2.4060159 0.5762558
C -1.3739678 -1.3065434 0.2346443
C -1.2753787 0.087229684 -0.19830063
C 0.13322666 0.65533286 -0.05218477
C 0.32670644 2.066936 0.33819294
O 0.5295211 1.0061568 1.2681973
C 1.1553459 0.015844418 -0.86427563
N 1.9481597 -0.48670763 -1.5374134
H -1.5955036 0.16038163 -1.2436101
H -1.9569974 0.6955901 0.40359357
H 1.2242153 2.5885167 0.014932279
H -0.55282986 2.6850488 0.5097011
