14
title
O -1.5060583 -1.1106404 1.439794
C -1.2682142 -0.36588806 0.52030665
C 0.01470243 0.40031356 0.41112304
C 0.35769284 0.99963313 -0.94536364
C 0.46914852 -0.0149723925 -1.9951946
N 0.5348911 -0.8250802 -2.816115
C 0.4412346 1.0971625 1.6714308
N 1.1381831 -0.09549755 1.2137558
H -1.997356 -0.2057975 -0.301115
H -0.4049176 1.7288392 -1.2447509
H 1.3080418 1.5352271 -0.86902773
H 0.9975741 2.0270252 1.5862373
H -0.22611769 1.0217779 2.5249617
H 0.8046682 -0.903296 1.74126
