15
title
O -1.6197859 -0.97414786 -1.5475503
C -1.2536265 -0.44645882 -0.5259639
C 0.0025757723 0.35054064 -0.40487224
C 0.27553537 0.978271 0.9565034
C 0.5112797 -0.016665328 2.0062723
N 0.6916518 -0.81311554 2.8236094
C 1.1718093 -0.12396322 -1.2591076
C 0.42983487 1.1039064 -1.659546
H -1.8525407 -0.526656 0.40811864
H 1.1523346 1.6312613 0.8979827
H -0.5640068 1.6137972 1.2645373
H 2.162947 -0.023946036 -0.8304231
H 0.9973334 -1.0281738 -1.8301891
H -0.24961625 1.0309637 -2.5007482
H 0.89875996 2.071436 -1.5171334
