title
 OpenBabel02282109593D

 14 14  0  0  0  0  0  0  0  0999 V2000
   -1.5260   -2.3797   -0.6286 N   0  0  0  0  0  0  0  0  0  0  0  0
   -1.3998   -1.3054   -0.2242 C   0  0  0  0  0  0  0  0  0  0  0  0
   -1.2417    0.0636    0.2704 C   0  0  0  0  0  0  0  0  0  0  0  0
    0.1600    0.6288    0.0321 C   0  0  0  0  0  0  0  0  0  0  0  0
    0.5213    1.1234   -1.3591 C   0  0  0  0  0  0  0  0  0  0  0  0
    0.2961    2.1168   -0.2601 C   0  0  0  0  0  0  0  0  0  0  0  0
    1.2041    0.0160    0.8148 C   0  0  0  0  0  0  0  0  0  0  0  0
    2.0376   -0.4673    1.4545 N   0  0  0  0  0  0  0  0  0  0  0  0
   -1.9745    0.6997   -0.2371 H   0  0  0  0  0  0  0  0  0  0  0  0
   -1.4835    0.0867    1.3383 H   0  0  0  0  0  0  0  0  0  0  0  0
    1.5342    0.9508   -1.7006 H   0  0  0  0  0  0  0  0  0  0  0  0
   -0.2403    1.0074   -2.1219 H   0  0  0  0  0  0  0  0  0  0  0  0
   -0.6195    2.6978   -0.2607 H   0  0  0  0  0  0  0  0  0  0  0  0
    1.1553    2.6257    0.1592 H   0  0  0  0  0  0  0  0  0  0  0  0
  1  2  3  0  0  0  0
  2  3  1  0  0  0  0
  3 10  1  0  0  0  0
  4  3  1  0  0  0  0
  4  7  1  0  0  0  0
  5  6  1  0  0  0  0
  5  4  1  0  0  0  0
  6  4  1  0  0  0  0
  6 14  1  0  0  0  0
  7  8  3  0  0  0  0
  9  3  1  0  0  0  0
 11  5  1  0  0  0  0
 12  5  1  0  0  0  0
 13  6  1  0  0  0  0
M  END
