title
 OpenBabel02282109593D

 13 13  0  0  1  0  0  0  0  0999 V2000
   -1.4803   -2.4016    0.6243 N   0  0  0  0  0  0  0  0  0  0  0  0
   -1.3739   -1.3177    0.2406 C   0  0  0  0  0  0  0  0  0  0  0  0
   -1.2479    0.0657   -0.2223 C   0  0  0  0  0  0  0  0  0  0  0  0
    0.1580    0.6357   -0.0243 C   0  0  1  0  0  0  0  0  0  0  0  0
    0.2925    2.0572    0.4231 C   0  0  0  0  0  0  0  0  0  0  0  0
    0.6348    0.9612    1.3283 N   0  0  0  0  0  0  0  0  0  0  0  0
    1.1609    0.0774   -0.9103 C   0  0  0  0  0  0  0  0  0  0  0  0
    1.9342   -0.3541   -1.6524 N   0  0  0  0  0  0  0  0  0  0  0  0
   -1.5254    0.1143   -1.2808 H   0  0  0  0  0  0  0  0  0  0  0  0
   -1.9674    0.6832    0.3265 H   0  0  0  0  0  0  0  0  0  0  0  0
    1.1359    2.6450    0.0760 H   0  0  0  0  0  0  0  0  0  0  0  0
   -0.6291    2.6138    0.5739 H   0  0  0  0  0  0  0  0  0  0  0  0
   -0.1016    0.7869    2.0086 H   0  0  0  0  0  0  0  0  0  0  0  0
  2  1  3  0  0  0  0
  3  4  1  0  0  0  0
  3  2  1  0  0  0  0
  3 10  1  0  0  0  0
  4  7  1  6  0  0  0
  4  5  1  0  0  0  0
  4  6  1  0  0  0  0
  5 12  1  0  0  0  0
  5  6  1  0  0  0  0
  6 13  1  0  0  0  0
  8  7  3  0  0  0  0
  9  3  1  0  0  0  0
 11  5  1  0  0  0  0
M  END
