15
title
O -1.482878 -1.0745146 1.442112
C -1.2406797 -0.32114068 0.5289396
C 0.058509745 0.40947458 0.39688927
C 0.38739637 0.9878355 -0.9728171
C 0.3967438 -0.02687969 -2.0224168
C 0.38079503 -0.8806188 -2.8678162
C 0.5186656 1.0960888 1.6503359
N 1.1769825 -0.11846378 1.1881722
H -1.9829009 -0.12567212 -0.27247727
H -0.3420554 1.7700833 -1.2229865
H 1.3653473 1.4768251 -0.9145202
H 0.37915233 -1.630989 -3.6192474
H 1.1007963 2.0091565 1.5549626
H -0.13582441 1.042358 2.5156357
H 0.8217216 -0.91135067 1.7242081
