15
title
O -1.1083031 -1.5851064 2.1678612
C -0.8146703 -1.3264767 1.0303911
C 0.5498574 -0.8094219 0.6058913
C 0.45567274 0.4311055 -0.28067806
C 0.21489692 1.7854489 0.37541047
C 1.5606898 1.4758517 -0.20509793
C -0.1439079 0.21176876 -1.5738301
N -0.62478614 0.018362416 -2.6085205
H -1.542758 -1.456559 0.19946294
H 1.1290059 -0.5908556 1.5066744
H 1.0624566 -1.6115168 0.057532832
H -0.42065853 2.490169 -0.14652206
H 0.09952396 1.7794012 1.4536062
H 2.382114 1.2577885 0.4677978
H 1.846476 1.9650558 -1.1284139
