title
 OpenBabel02282109593D

 15 15  0  0  0  0  0  0  0  0999 V2000
   -1.1083   -1.5851    2.1679 O   0  0  0  0  0  0  0  0  0  0  0  0
   -0.8147   -1.3265    1.0304 C   0  0  0  0  0  0  0  0  0  0  0  0
    0.5499   -0.8094    0.6059 C   0  0  0  0  0  0  0  0  0  0  0  0
    0.4557    0.4311   -0.2807 C   0  0  0  0  0  0  0  0  0  0  0  0
    0.2149    1.7854    0.3754 C   0  0  0  0  0  0  0  0  0  0  0  0
    1.5607    1.4759   -0.2051 C   0  0  0  0  0  0  0  0  0  0  0  0
   -0.1439    0.2118   -1.5738 C   0  0  0  0  0  0  0  0  0  0  0  0
   -0.6248    0.0184   -2.6085 N   0  0  0  0  0  0  0  0  0  0  0  0
   -1.5428   -1.4566    0.1995 H   0  0  0  0  0  0  0  0  0  0  0  0
    1.1290   -0.5909    1.5067 H   0  0  0  0  0  0  0  0  0  0  0  0
    1.0625   -1.6115    0.0575 H   0  0  0  0  0  0  0  0  0  0  0  0
   -0.4207    2.4902   -0.1465 H   0  0  0  0  0  0  0  0  0  0  0  0
    0.0995    1.7794    1.4536 H   0  0  0  0  0  0  0  0  0  0  0  0
    2.3821    1.2578    0.4678 H   0  0  0  0  0  0  0  0  0  0  0  0
    1.8465    1.9651   -1.1284 H   0  0  0  0  0  0  0  0  0  0  0  0
  2  1  2  0  0  0  0
  3  2  1  0  0  0  0
  3 10  1  0  0  0  0
  4  6  1  0  0  0  0
  4  5  1  0  0  0  0
  4  3  1  0  0  0  0
  5 13  1  0  0  0  0
  6  5  1  0  0  0  0
  6 14  1  0  0  0  0
  7  4  1  0  0  0  0
  8  7  3  0  0  0  0
  9  2  1  0  0  0  0
 11  3  1  0  0  0  0
 12  5  1  0  0  0  0
 15  6  1  0  0  0  0
M  END
