title
 OpenBabel02282109593D

 16 16  0  0  0  0  0  0  0  0999 V2000
   -1.0920   -1.5558    2.1938 O   0  0  0  0  0  0  0  0  0  0  0  0
   -0.8035   -1.2919    1.0548 C   0  0  0  0  0  0  0  0  0  0  0  0
    0.5546   -0.7762    0.6180 C   0  0  0  0  0  0  0  0  0  0  0  0
    0.4487    0.4351   -0.3096 C   0  0  0  0  0  0  0  0  0  0  0  0
    0.2073    1.7986    0.3275 C   0  0  0  0  0  0  0  0  0  0  0  0
    1.5555    1.4786   -0.2475 C   0  0  0  0  0  0  0  0  0  0  0  0
   -0.1509    0.1765   -1.5924 C   0  0  0  0  0  0  0  0  0  0  0  0
   -0.6477   -0.0624   -2.6621 C   0  0  0  0  0  0  0  0  0  0  0  0
   -1.5376   -1.4162    0.2286 H   0  0  0  0  0  0  0  0  0  0  0  0
    1.1332   -0.5348    1.5137 H   0  0  0  0  0  0  0  0  0  0  0  0
    1.0699   -1.5903    0.0895 H   0  0  0  0  0  0  0  0  0  0  0  0
   -0.4281    2.4934   -0.2077 H   0  0  0  0  0  0  0  0  0  0  0  0
    0.0977    1.8202    1.4064 H   0  0  0  0  0  0  0  0  0  0  0  0
    2.3770    1.2836    0.4330 H   0  0  0  0  0  0  0  0  0  0  0  0
    1.8405    1.9509   -1.1799 H   0  0  0  0  0  0  0  0  0  0  0  0
   -1.0888   -0.2649   -3.6065 H   0  0  0  0  0  0  0  0  0  0  0  0
  2  1  2  0  0  0  0
  3  2  1  0  0  0  0
  3 10  1  0  0  0  0
  4  6  1  0  0  0  0
  4  5  1  0  0  0  0
  4  3  1  0  0  0  0
  5 13  1  0  0  0  0
  6  5  1  0  0  0  0
  6 14  1  0  0  0  0
  7  4  1  0  0  0  0
  8  7  3  0  0  0  0
  9  2  1  0  0  0  0
 11  3  1  0  0  0  0
 12  5  1  0  0  0  0
 15  6  1  0  0  0  0
 16  8  1  0  0  0  0
M  END
