14
title
O -1.2018884 -2.1906312 1.4246562
C -0.48902884 -1.6516602 0.6201934
C 0.4418463 -0.49505442 0.9505987
C 0.49716872 0.53623754 -0.1645396
C 1.7759295 1.190738 -0.51131666
O 1.2673805 0.13252217 -1.3156407
C -0.7469284 1.2109098 -0.45287314
C -1.8027576 1.7480266 -0.65470636
H -0.4455824 -1.9891995 -0.43834558
H 0.12779349 -0.046952907 1.8970804
H 1.4485624 -0.9128857 1.0806445
H 1.7583106 2.1773546 -0.9691688
H 2.6622338 0.9564286 0.07723073
H -2.7328632 2.2253616 -0.84394133
