14
title
O -0.46450427 -2.6502411 0.95305324
C -0.7459078 -1.486517 0.8383928
C 0.2425841 -0.35651723 1.086003
C 0.39509368 0.5459443 -0.13478537
C 1.7446438 1.0907542 -0.48013374
N 1.1368364 0.05361709 -1.3140552
C -0.7773393 1.3403913 -0.44931957
N -1.7197477 1.9779972 -0.65318924
H -1.7635136 -1.16034 0.53279716
H -0.117590375 0.23960432 1.9347986
H 1.2074789 -0.79540306 1.3541098
H 1.8209554 2.0670512 -0.9479347
H 2.559728 0.83175784 0.19024836
H 1.5291475 -0.8619873 -1.1037548
