title
 OpenBabel02282109593D

 14 14  0  0  1  0  0  0  0  0999 V2000
   -0.4645   -2.6502    0.9531 O   0  0  0  0  0  0  0  0  0  0  0  0
   -0.7459   -1.4865    0.8384 C   0  0  0  0  0  0  0  0  0  0  0  0
    0.2426   -0.3565    1.0860 C   0  0  0  0  0  0  0  0  0  0  0  0
    0.3951    0.5459   -0.1348 C   0  0  1  0  0  0  0  0  0  0  0  0
    1.7446    1.0908   -0.4801 C   0  0  0  0  0  0  0  0  0  0  0  0
    1.1368    0.0536   -1.3141 N   0  0  0  0  0  0  0  0  0  0  0  0
   -0.7773    1.3404   -0.4493 C   0  0  0  0  0  0  0  0  0  0  0  0
   -1.7197    1.9780   -0.6532 N   0  0  0  0  0  0  0  0  0  0  0  0
   -1.7635   -1.1603    0.5328 H   0  0  0  0  0  0  0  0  0  0  0  0
   -0.1176    0.2396    1.9348 H   0  0  0  0  0  0  0  0  0  0  0  0
    1.2075   -0.7954    1.3541 H   0  0  0  0  0  0  0  0  0  0  0  0
    1.8210    2.0671   -0.9479 H   0  0  0  0  0  0  0  0  0  0  0  0
    2.5597    0.8318    0.1902 H   0  0  0  0  0  0  0  0  0  0  0  0
    1.5291   -0.8620   -1.1038 H   0  0  0  0  0  0  0  0  0  0  0  0
  2  1  2  0  0  0  0
  2  3  1  0  0  0  0
  3 11  1  0  0  0  0
  3 10  1  0  0  0  0
  4  7  1  6  0  0  0
  4  3  1  0  0  0  0
  5  4  1  0  0  0  0
  5 13  1  0  0  0  0
  6 14  1  0  0  0  0
  6  5  1  0  0  0  0
  6  4  1  0  0  0  0
  8  7  3  0  0  0  0
  9  2  1  0  0  0  0
 12  5  1  0  0  0  0
M  END
