title
 OpenBabel02282109593D

 14 14  0  0  0  0  0  0  0  0999 V2000
    0.4703    2.8690    0.1887 N   0  0  0  0  0  0  0  0  0  0  0  0
    0.5551    1.6184    0.2848 C   0  0  0  0  0  0  0  0  0  0  0  0
   -0.4647    0.8501   -0.1953 O   0  0  0  0  0  0  0  0  0  0  0  0
   -0.3533   -0.5328    0.0156 C   0  0  0  0  0  0  0  0  0  0  0  0
   -0.7377   -1.0855    1.3774 C   0  0  0  0  0  0  0  0  0  0  0  0
   -1.6665   -1.2467    0.2065 C   0  0  0  0  0  0  0  0  0  0  0  0
    0.6997   -1.1837   -0.7320 C   0  0  0  0  0  0  0  0  0  0  0  0
    1.5523   -1.7000   -1.3185 N   0  0  0  0  0  0  0  0  0  0  0  0
    1.3027    3.3092    0.5753 H   0  0  0  0  0  0  0  0  0  0  0  0
    1.3767    1.0348    0.7157 H   0  0  0  0  0  0  0  0  0  0  0  0
   -0.1987   -1.9512    1.7430 H   0  0  0  0  0  0  0  0  0  0  0  0
   -0.9893   -0.3411    2.1239 H   0  0  0  0  0  0  0  0  0  0  0  0
   -2.5389   -0.6063    0.1569 H   0  0  0  0  0  0  0  0  0  0  0  0
   -1.7762   -2.2248   -0.2449 H   0  0  0  0  0  0  0  0  0  0  0  0
  1  2  2  0  0  0  0
  1  9  1  0  0  0  0
  2 10  1  0  0  0  0
  3  4  1  0  0  0  0
  3  2  1  0  0  0  0
  4  6  1  0  0  0  0
  4  5  1  0  0  0  0
  5 11  1  0  0  0  0
  5 12  1  0  0  0  0
  6  5  1  0  0  0  0
  7  4  1  0  0  0  0
  8  7  3  0  0  0  0
 13  6  1  0  0  0  0
 14  6  1  0  0  0  0
M  END
