14
title
O -0.5236654 -2.7840514 0.21938097
C -0.5246538 -1.5960468 0.32276082
O 0.4650155 -0.8293013 -0.19820844
C 0.34554854 0.5751341 -0.0028604849
C 0.77703243 1.1147244 1.3490953
C 1.6737661 1.2703009 0.1509571
C -0.72454023 1.2004673 -0.7289752
C -1.6285403 1.7120328 -1.3343042
H -1.3026819 -1.004581 0.83705556
H 0.25378564 1.983541 1.7295473
H 1.0528938 0.37474993 2.0916493
H 2.5434546 0.627672 0.082536414
H 1.7772791 2.2479343 -0.30271477
H -2.4240553 2.1631784 -1.8747234
