title
 OpenBabel02282109593D

 15 15  0  0  1  0  0  0  0  0999 V2000
   -0.1837   -2.4858    0.2075 O   0  0  0  0  0  0  0  0  0  0  0  0
   -0.6308   -1.5436    0.8150 C   0  0  0  0  0  0  0  0  0  0  0  0
    0.2092   -0.3165    1.1340 C   0  0  0  0  0  0  0  0  0  0  0  0
    0.3861    0.5401   -0.1147 C   0  0  1  0  0  0  0  0  0  0  0  0
    1.7637    0.9370   -0.5592 C   0  0  0  0  0  0  0  0  0  0  0  0
    1.0084   -0.0377   -1.3292 N   0  0  0  0  0  0  0  0  0  0  0  0
   -0.7461    1.4582   -0.4396 C   0  0  0  0  0  0  0  0  0  0  0  0
   -1.7137    1.6115    0.2636 O   0  0  0  0  0  0  0  0  0  0  0  0
   -1.6894   -1.5225    1.1457 H   0  0  0  0  0  0  0  0  0  0  0  0
   -0.2643    0.2827    1.9156 H   0  0  0  0  0  0  0  0  0  0  0  0
    1.1854   -0.6672    1.4816 H   0  0  0  0  0  0  0  0  0  0  0  0
    1.9227    1.8918   -1.0539 H   0  0  0  0  0  0  0  0  0  0  0  0
    2.5826    0.6112    0.0771 H   0  0  0  0  0  0  0  0  0  0  0  0
    1.2883   -0.9949   -1.1216 H   0  0  0  0  0  0  0  0  0  0  0  0
   -0.6246    1.9899   -1.4074 H   0  0  0  0  0  0  0  0  0  0  0  0
  1  2  2  0  0  0  0
  2  3  1  0  0  0  0
  2  9  1  0  0  0  0
  3 11  1  0  0  0  0
  3 10  1  0  0  0  0
  4  7  1  6  0  0  0
  4  3  1  0  0  0  0
  5  4  1  0  0  0  0
  5 13  1  0  0  0  0
  6 14  1  0  0  0  0
  6  5  1  0  0  0  0
  6  4  1  0  0  0  0
  7  8  2  0  0  0  0
 12  5  1  0  0  0  0
 15  7  1  0  0  0  0
M  END
