title
 OpenBabel02282109593D

 14 14  0  0  0  0  0  0  0  0999 V2000
   -0.5780   -2.6796    0.2315 O   0  0  0  0  0  0  0  0  0  0  0  0
   -0.5594   -1.4946    0.3455 C   0  0  0  0  0  0  0  0  0  0  0  0
    0.5192   -0.7570   -0.0398 O   0  0  0  0  0  0  0  0  0  0  0  0
    0.4084    0.6346    0.0726 C   0  0  0  0  0  0  0  0  0  0  0  0
    0.7033    1.2871    1.4208 C   0  0  0  0  0  0  0  0  0  0  0  0
    1.7103    1.3612    0.3187 C   0  0  0  0  0  0  0  0  0  0  0  0
   -0.6073    1.2781   -0.8019 C   0  0  0  0  0  0  0  0  0  0  0  0
   -1.4069    0.6741   -1.4686 O   0  0  0  0  0  0  0  0  0  0  0  0
   -1.3665   -0.8831    0.7822 H   0  0  0  0  0  0  0  0  0  0  0  0
    0.1456    2.1777    1.6891 H   0  0  0  0  0  0  0  0  0  0  0  0
    0.8890    0.5966    2.2349 H   0  0  0  0  0  0  0  0  0  0  0  0
    2.5810    0.7194    0.3775 H   0  0  0  0  0  0  0  0  0  0  0  0
    1.8647    2.3055   -0.1914 H   0  0  0  0  0  0  0  0  0  0  0  0
   -0.5746    2.3906   -0.7786 H   0  0  0  0  0  0  0  0  0  0  0  0
  1  2  2  0  0  0  0
  2  9  1  0  0  0  0
  3  4  1  0  0  0  0
  3  2  1  0  0  0  0
  4  6  1  0  0  0  0
  4  5  1  0  0  0  0
  5 10  1  0  0  0  0
  5 11  1  0  0  0  0
  6 12  1  0  0  0  0
  6  5  1  0  0  0  0
  7 14  1  0  0  0  0
  7  4  1  0  0  0  0
  8  7  2  0  0  0  0
 13  6  1  0  0  0  0
M  END
