15
title
C -0.17037034 3.443837 0.09057914
C -0.14446619 1.9890301 0.09894572
C -0.11416169 0.7848063 0.10424135
C -0.089080095 -0.6577962 0.091140725
C -0.6828851 -1.3787057 1.2741632
N -1.3957902 -1.3837435 0.0020256252
C 1.0032958 -1.2659535 -0.63168097
C 1.9277145 -1.7657611 -1.2135051
H 0.74603724 3.8469121 -0.35397583
H -1.016267 3.8245747 -0.4923582
H -0.25385 3.8490083 1.1049732
H -0.2512805 -2.3327277 1.5607924
H -1.0441235 -0.7604118 2.090687
H -2.1380112 -0.68744856 0.01664978
H 2.7384875 -2.208184 -1.7372189
