title
 OpenBabel02282109593D

 15 15  0  0  0  0  0  0  0  0999 V2000
   -0.1675    3.4616    0.0731 C   0  0  0  0  0  0  0  0  0  0  0  0
   -0.1574    2.0066    0.0786 C   0  0  0  0  0  0  0  0  0  0  0  0
   -0.1413    0.8029    0.0785 C   0  0  0  0  0  0  0  0  0  0  0  0
   -0.1249   -0.6361    0.0802 C   0  0  0  0  0  0  0  0  0  0  0  0
   -0.6897   -1.3873    1.2957 C   0  0  0  0  0  0  0  0  0  0  0  0
   -1.4580   -1.3975    0.0187 C   0  0  0  0  0  0  0  0  0  0  0  0
    0.9976   -1.2535   -0.5902 C   0  0  0  0  0  0  0  0  0  0  0  0
    1.8899   -1.7608   -1.1230 N   0  0  0  0  0  0  0  0  0  0  0  0
    0.7210    3.8531   -0.4337 H   0  0  0  0  0  0  0  0  0  0  0  0
   -1.0474    3.8533   -0.4486 H   0  0  0  0  0  0  0  0  0  0  0  0
   -0.1736    3.8648    1.0916 H   0  0  0  0  0  0  0  0  0  0  0  0
   -0.1665   -2.2878    1.5937 H   0  0  0  0  0  0  0  0  0  0  0  0
   -1.0358   -0.7599    2.1076 H   0  0  0  0  0  0  0  0  0  0  0  0
   -2.3418   -0.7773   -0.0631 H   0  0  0  0  0  0  0  0  0  0  0  0
   -1.4698   -2.3052   -0.5724 H   0  0  0  0  0  0  0  0  0  0  0  0
  1  2  1  0  0  0  0
  1 11  1  0  0  0  0
  3  2  3  0  0  0  0
  3  4  1  0  0  0  0
  4  5  1  0  0  0  0
  5 12  1  0  0  0  0
  5 13  1  0  0  0  0
  6  4  1  0  0  0  0
  6  5  1  0  0  0  0
  7  4  1  0  0  0  0
  8  7  3  0  0  0  0
  9  1  1  0  0  0  0
 10  1  1  0  0  0  0
 14  6  1  0  0  0  0
 15  6  1  0  0  0  0
M  END
