14
title
O -0.28112134 -2.7083263 0.9797589
C -0.5686636 -1.6015158 0.6103523
C 0.22221442 -0.35706356 0.9872315
C 0.39728782 0.5953102 -0.17389739
C 1.7145841 1.1915019 -0.49794364
O 1.1886877 0.14044783 -1.2871852
C -0.80170155 1.3851314 -0.609516
O -1.8224124 1.4631748 0.024940552
H -1.4611907 -1.4154401 -0.025623797
H -0.34939 0.16578934 1.7655962
H 1.1809734 -0.66967285 1.4055659
H 1.7712221 2.1644523 -0.985049
H 2.5570264 0.93551207 0.14222926
H -0.6615699 1.8951943 -1.587153
