15
title
C -0.16746968 3.4615803 0.07313052
C -0.15744898 2.0066397 0.07862895
C -0.14125174 0.80293536 0.07853417
C -0.12488681 -0.63610005 0.080204554
C -0.6897275 -1.3872876 1.2957073
C -1.4580207 -1.3975146 0.018742139
C 0.99758846 -1.2535074 -0.59018606
N 1.8899008 -1.7607749 -1.122987
H 0.72102755 3.8531013 -0.43374577
H -1.0473813 3.8533387 -0.44856235
H -0.17361464 3.8648374 1.0915767
H -0.16654785 -2.2878315 1.5937114
H -1.0358015 -0.75988007 2.1075695
H -2.3418179 -0.7772536 -0.06314828
H -1.4698352 -2.3051822 -0.5724452
