15
title
O -0.1836796 -2.4857712 0.2074648
C -0.6307882 -1.5436242 0.81499654
C 0.2092285 -0.31653455 1.133998
C 0.38608822 0.5400703 -0.114730194
C 1.7636588 0.9369774 -0.55916137
N 1.0083504 -0.037744075 -1.329203
C -0.74606067 1.4581654 -0.43956667
O -1.7137017 1.6114938 0.26363218
H -1.6894355 -1.5225122 1.1456867
H -0.26430073 0.2826583 1.9156387
H 1.1853898 -0.6671566 1.4815973
H 1.9227295 1.8917692 -1.0538744
H 2.5826116 0.61122584 0.07708226
H 1.2883041 -0.9948698 -1.1216007
H -0.62458473 1.9899266 -1.4073895
