title
 OpenBabel02282109593D

 13 13  0  0  1  0  0  0  0  0999 V2000
   -0.1934    3.4695    0.0444 C   0  0  0  0  0  0  0  0  0  0  0  0
   -0.1663    2.0168    0.0805 C   0  0  0  0  0  0  0  0  0  0  0  0
   -0.1491    0.8137    0.1052 C   0  0  0  0  0  0  0  0  0  0  0  0
   -0.1041   -0.6234    0.1254 C   0  0  1  0  0  0  0  0  0  0  0  0
   -0.7654   -1.4035    1.2055 C   0  0  0  0  0  0  0  0  0  0  0  0
   -1.3389   -1.3323   -0.0884 O   0  0  0  0  0  0  0  0  0  0  0  0
    1.0486   -1.2243   -0.5304 C   0  0  0  0  0  0  0  0  0  0  0  0
    1.9726   -1.6948   -1.0397 N   0  0  0  0  0  0  0  0  0  0  0  0
    0.6604    3.8606   -0.5185 H   0  0  0  0  0  0  0  0  0  0  0  0
   -1.1074    3.8301   -0.4392 H   0  0  0  0  0  0  0  0  0  0  0  0
   -0.1558    3.8931    1.0535 H   0  0  0  0  0  0  0  0  0  0  0  0
   -0.3476   -2.3676    1.4890 H   0  0  0  0  0  0  0  0  0  0  0  0
   -1.2802   -0.8466    1.9856 H   0  0  0  0  0  0  0  0  0  0  0  0
  1  2  1  0  0  0  0
  1 11  1  0  0  0  0
  2  3  3  0  0  0  0
  3  4  1  0  0  0  0
  4  7  1  6  0  0  0
  4  5  1  0  0  0  0
  5 12  1  0  0  0  0
  5 13  1  0  0  0  0
  6  4  1  0  0  0  0
  6  5  1  0  0  0  0
  8  7  3  0  0  0  0
  9  1  1  0  0  0  0
 10  1  1  0  0  0  0
M  END
