title
 OpenBabel02282109593D

 14 14  0  0  1  0  0  0  0  0999 V2000
   -0.1712    3.4577    0.0821 C   0  0  0  0  0  0  0  0  0  0  0  0
   -0.1416    2.0038    0.0992 C   0  0  0  0  0  0  0  0  0  0  0  0
   -0.1226    0.8004    0.1080 C   0  0  0  0  0  0  0  0  0  0  0  0
   -0.0816   -0.6416    0.1143 C   0  0  1  0  0  0  0  0  0  0  0  0
   -0.7434   -1.3935    1.2144 C   0  0  0  0  0  0  0  0  0  0  0  0
   -1.3537   -1.3138   -0.0607 O   0  0  0  0  0  0  0  0  0  0  0  0
    1.0349   -1.2494   -0.5733 C   0  0  0  0  0  0  0  0  0  0  0  0
    1.9712   -1.7461   -1.1385 C   0  0  0  0  0  0  0  0  0  0  0  0
    0.5994    3.8591   -0.5847 H   0  0  0  0  0  0  0  0  0  0  0  0
   -1.1411    3.8254   -0.2700 H   0  0  0  0  0  0  0  0  0  0  0  0
    0.0007    3.8722    1.0814 H   0  0  0  0  0  0  0  0  0  0  0  0
   -0.3439   -2.3676    1.4915 H   0  0  0  0  0  0  0  0  0  0  0  0
   -1.2237   -0.8249    2.0089 H   0  0  0  0  0  0  0  0  0  0  0  0
    2.7955   -2.1851   -1.6444 H   0  0  0  0  0  0  0  0  0  0  0  0
  1  2  1  0  0  0  0
  1 11  1  0  0  0  0
  2  3  3  0  0  0  0
  3  4  1  0  0  0  0
  4  7  1  6  0  0  0
  4  5  1  0  0  0  0
  5 12  1  0  0  0  0
  5 13  1  0  0  0  0
  6  4  1  0  0  0  0
  6  5  1  0  0  0  0
  8  7  3  0  0  0  0
  9  1  1  0  0  0  0
 10  1  1  0  0  0  0
 14  8  1  0  0  0  0
M  END
