title
 OpenBabel02282109593D

 19 19  0  0  0  0  0  0  0  0999 V2000
    1.6184   -0.8664    1.6440 C   0  0  0  0  0  0  0  0  0  0  0  0
    1.4178   -0.3612    0.2098 C   0  0  0  0  0  0  0  0  0  0  0  0
    0.0060   -0.5474   -0.3278 C   0  0  0  0  0  0  0  0  0  0  0  0
   -1.0914    0.2270    0.4027 C   0  0  0  0  0  0  0  0  0  0  0  0
   -0.8983    1.6780    0.3414 C   0  0  0  0  0  0  0  0  0  0  0  0
   -0.7295    2.8201    0.2889 N   0  0  0  0  0  0  0  0  0  0  0  0
   -0.1752   -0.7409   -1.8124 C   0  0  0  0  0  0  0  0  0  0  0  0
   -0.3830   -1.9025   -0.8688 C   0  0  0  0  0  0  0  0  0  0  0  0
    2.6652   -0.7664    1.9454 H   0  0  0  0  0  0  0  0  0  0  0  0
    1.0204   -0.2998    2.3652 H   0  0  0  0  0  0  0  0  0  0  0  0
    1.3412   -1.9221    1.7344 H   0  0  0  0  0  0  0  0  0  0  0  0
    1.6882    0.7007    0.1511 H   0  0  0  0  0  0  0  0  0  0  0  0
    2.1088   -0.8891   -0.4576 H   0  0  0  0  0  0  0  0  0  0  0  0
   -2.0695   -0.0066   -0.0316 H   0  0  0  0  0  0  0  0  0  0  0  0
   -1.1414   -0.0680    1.4573 H   0  0  0  0  0  0  0  0  0  0  0  0
   -1.0483   -0.3056   -2.2871 H   0  0  0  0  0  0  0  0  0  0  0  0
    0.7123   -0.7378   -2.4357 H   0  0  0  0  0  0  0  0  0  0  0  0
    0.3669   -2.6861   -0.8486 H   0  0  0  0  0  0  0  0  0  0  0  0
   -1.3958   -2.2578   -0.7087 H   0  0  0  0  0  0  0  0  0  0  0  0
  1 11  1  0  0  0  0
  1  9  1  0  0  0  0
  1 10  1  0  0  0  0
  2  1  1  0  0  0  0
  3  2  1  0  0  0  0
  3  4  1  0  0  0  0
  4 15  1  0  0  0  0
  5  4  1  0  0  0  0
  6  5  3  0  0  0  0
  7  8  1  0  0  0  0
  7  3  1  0  0  0  0
  8 18  1  0  0  0  0
  8 19  1  0  0  0  0
  8  3  1  0  0  0  0
 12  2  1  0  0  0  0
 13  2  1  0  0  0  0
 14  4  1  0  0  0  0
 16  7  1  0  0  0  0
 17  7  1  0  0  0  0
M  END
