title
 OpenBabel02282109593D

 14 14  0  0  1  0  0  0  0  0999 V2000
   -0.2796    3.3908    0.1552 C   0  0  0  0  0  0  0  0  0  0  0  0
   -0.2441    1.9374    0.1540 C   0  0  0  0  0  0  0  0  0  0  0  0
   -0.2152    0.7343    0.1484 C   0  0  0  0  0  0  0  0  0  0  0  0
   -0.1491   -0.6977    0.1187 C   0  0  1  0  0  0  0  0  0  0  0  0
   -0.7791   -1.5207    1.1890 C   0  0  0  0  0  0  0  0  0  0  0  0
   -1.3836   -1.4303   -0.0820 O   0  0  0  0  0  0  0  0  0  0  0  0
    1.0051   -1.3520   -0.5987 C   0  0  0  0  0  0  0  0  0  0  0  0
    1.9842   -0.7827   -0.9937 O   0  0  0  0  0  0  0  0  0  0  0  0
    0.5958    3.8023   -0.3582 H   0  0  0  0  0  0  0  0  0  0  0  0
   -1.1733    3.7612   -0.3585 H   0  0  0  0  0  0  0  0  0  0  0  0
   -0.2898    3.7892    1.1754 H   0  0  0  0  0  0  0  0  0  0  0  0
   -0.3508   -2.4898    1.4459 H   0  0  0  0  0  0  0  0  0  0  0  0
   -1.2760   -0.9885    1.9974 H   0  0  0  0  0  0  0  0  0  0  0  0
    0.8472   -2.4458   -0.7273 H   0  0  0  0  0  0  0  0  0  0  0  0
  1 11  1  0  0  0  0
  2  1  1  0  0  0  0
  3  2  3  0  0  0  0
  4  3  1  1  0  0  0
  4  5  1  0  0  0  0
  5 12  1  0  0  0  0
  5 13  1  0  0  0  0
  6  4  1  0  0  0  0
  6  5  1  0  0  0  0
  7  4  1  0  0  0  0
  8  7  2  0  0  0  0
  9  1  1  0  0  0  0
 10  1  1  0  0  0  0
 14  7  1  0  0  0  0
M  END
