title
 OpenBabel02282109593D

 18 18  0  0  1  0  0  0  0  0999 V2000
   -1.3228    0.4599   -1.7072 C   0  0  0  0  0  0  0  0  0  0  0  0
   -0.9873   -0.8461   -0.9720 C   0  0  0  0  0  0  0  0  0  0  0  0
    0.1925   -0.7752   -0.0106 C   0  0  1  0  0  0  0  0  0  0  0  0
   -0.0115   -0.0247    1.3082 C   0  0  0  0  0  0  0  0  0  0  0  0
   -0.1924    1.4220    1.1751 C   0  0  0  0  0  0  0  0  0  0  0  0
   -0.3354    2.5657    1.0909 N   0  0  0  0  0  0  0  0  0  0  0  0
    1.1359   -1.9259    0.0236 C   0  0  0  0  0  0  0  0  0  0  0  0
    1.5514   -0.6340   -0.5508 N   0  0  0  0  0  0  0  0  0  0  0  0
   -0.4543    0.8430   -2.2529 H   0  0  0  0  0  0  0  0  0  0  0  0
   -2.1224    0.2851   -2.4333 H   0  0  0  0  0  0  0  0  0  0  0  0
   -1.6532    1.2459   -1.0256 H   0  0  0  0  0  0  0  0  0  0  0  0
   -1.8708   -1.1971   -0.4228 H   0  0  0  0  0  0  0  0  0  0  0  0
   -0.7655   -1.6245   -1.7125 H   0  0  0  0  0  0  0  0  0  0  0  0
   -0.8785   -0.4351    1.8397 H   0  0  0  0  0  0  0  0  0  0  0  0
    0.8639   -0.1869    1.9445 H   0  0  0  0  0  0  0  0  0  0  0  0
    1.6413   -2.1992    0.9465 H   0  0  0  0  0  0  0  0  0  0  0  0
    0.9389   -2.7603   -0.6441 H   0  0  0  0  0  0  0  0  0  0  0  0
    1.5318   -0.6762   -1.5668 H   0  0  0  0  0  0  0  0  0  0  0  0
  1 11  1  0  0  0  0
  1  2  1  0  0  0  0
  2 12  1  0  0  0  0
  3  2  1  6  0  0  0
  3  7  1  0  0  0  0
  3  4  1  0  0  0  0
  4 14  1  0  0  0  0
  4 15  1  0  0  0  0
  5  4  1  0  0  0  0
  6  5  3  0  0  0  0
  7 16  1  0  0  0  0
  8  3  1  0  0  0  0
  8  7  1  0  0  0  0
  9  1  1  0  0  0  0
 10  1  1  0  0  0  0
 13  2  1  0  0  0  0
 17  7  1  0  0  0  0
 18  8  1  0  0  0  0
M  END
