title
 OpenBabel02282109593D

 18 18  0  0  1  0  0  0  0  0999 V2000
    1.8037    1.6020   -0.3410 C   0  0  0  0  0  0  0  0  0  0  0  0
    1.3447    0.1604   -0.5938 C   0  0  0  0  0  0  0  0  0  0  0  0
    0.2928   -0.3171    0.3895 C   0  0  1  0  0  0  0  0  0  0  0  0
   -1.0603    0.3977    0.3707 C   0  0  0  0  0  0  0  0  0  0  0  0
   -1.7656    0.2606   -0.8982 C   0  0  0  0  0  0  0  0  0  0  0  0
   -2.3331    0.1377   -1.9506 C   0  0  0  0  0  0  0  0  0  0  0  0
    0.3467   -1.6845    0.9220 C   0  0  0  0  0  0  0  0  0  0  0  0
    0.7723   -0.5704    1.7164 O   0  0  0  0  0  0  0  0  0  0  0  0
    2.6204    1.8692   -1.0177 H   0  0  0  0  0  0  0  0  0  0  0  0
    0.9961    2.3225   -0.5045 H   0  0  0  0  0  0  0  0  0  0  0  0
    2.1622    1.7184    0.6863 H   0  0  0  0  0  0  0  0  0  0  0  0
    0.9437    0.0638   -1.6093 H   0  0  0  0  0  0  0  0  0  0  0  0
    2.2049   -0.5132   -0.5219 H   0  0  0  0  0  0  0  0  0  0  0  0
   -1.6696   -0.0024    1.1885 H   0  0  0  0  0  0  0  0  0  0  0  0
   -0.9078    1.4606    0.5956 H   0  0  0  0  0  0  0  0  0  0  0  0
   -2.8427    0.0323   -2.8762 H   0  0  0  0  0  0  0  0  0  0  0  0
   -0.5672   -2.1745    1.2556 H   0  0  0  0  0  0  0  0  0  0  0  0
    1.1403   -2.3573    0.6003 H   0  0  0  0  0  0  0  0  0  0  0  0
  1 11  1  0  0  0  0
  2 13  1  0  0  0  0
  2  1  1  0  0  0  0
  3  2  1  6  0  0  0
  3  7  1  0  0  0  0
  3  8  1  0  0  0  0
  4  3  1  0  0  0  0
  4 15  1  0  0  0  0
  4 14  1  0  0  0  0
  5  4  1  0  0  0  0
  6  5  3  0  0  0  0
  7 17  1  0  0  0  0
  7  8  1  0  0  0  0
  9  1  1  0  0  0  0
 10  1  1  0  0  0  0
 12  2  1  0  0  0  0
 16  6  1  0  0  0  0
 18  7  1  0  0  0  0
M  END
