14
title
C -0.16933614 3.45691 0.06531939
C -0.15147032 2.0028372 0.08782864
C -0.12878256 0.79892546 0.105934985
C -0.108251 -0.6399229 0.1047002
C -0.69116145 -1.3798192 1.2814058
N -1.390406 -1.3942246 0.004154074
C 0.99644434 -1.2491572 -0.6139893
N 1.8926145 -1.7269194 -1.1648344
H 0.7982661 3.849267 -0.2649724
H -0.93435967 3.8345435 -0.6214636
H -0.37516257 3.868109 1.0592555
H -0.24444981 -2.3257835 1.5710515
H -1.0634701 -0.7632945 2.0938652
H -2.150044 -0.7171076 0.0034453373
