title
 OpenBabel02282109593D

 14 14  0  0  1  0  0  0  0  0999 V2000
   -0.1693    3.4569    0.0653 C   0  0  0  0  0  0  0  0  0  0  0  0
   -0.1515    2.0028    0.0878 C   0  0  0  0  0  0  0  0  0  0  0  0
   -0.1288    0.7989    0.1059 C   0  0  0  0  0  0  0  0  0  0  0  0
   -0.1083   -0.6399    0.1047 C   0  0  1  0  0  0  0  0  0  0  0  0
   -0.6912   -1.3798    1.2814 C   0  0  0  0  0  0  0  0  0  0  0  0
   -1.3904   -1.3942    0.0042 N   0  0  0  0  0  0  0  0  0  0  0  0
    0.9964   -1.2492   -0.6140 C   0  0  0  0  0  0  0  0  0  0  0  0
    1.8926   -1.7269   -1.1648 N   0  0  0  0  0  0  0  0  0  0  0  0
    0.7983    3.8493   -0.2650 H   0  0  0  0  0  0  0  0  0  0  0  0
   -0.9344    3.8345   -0.6215 H   0  0  0  0  0  0  0  0  0  0  0  0
   -0.3752    3.8681    1.0593 H   0  0  0  0  0  0  0  0  0  0  0  0
   -0.2444   -2.3258    1.5711 H   0  0  0  0  0  0  0  0  0  0  0  0
   -1.0635   -0.7633    2.0939 H   0  0  0  0  0  0  0  0  0  0  0  0
   -2.1500   -0.7171    0.0034 H   0  0  0  0  0  0  0  0  0  0  0  0
  1  2  1  0  0  0  0
  1 11  1  0  0  0  0
  2  3  3  0  0  0  0
  4  7  1  6  0  0  0
  4  3  1  0  0  0  0
  4  5  1  0  0  0  0
  5 12  1  0  0  0  0
  5 13  1  0  0  0  0
  6  4  1  0  0  0  0
  6  5  1  0  0  0  0
  8  7  3  0  0  0  0
  9  1  1  0  0  0  0
 10  1  1  0  0  0  0
 14  6  1  0  0  0  0
M  END
