title
 OpenBabel02282109593D

 15 15  0  0  1  0  0  0  0  0999 V2000
   -0.2500    3.3781    0.1585 C   0  0  0  0  0  0  0  0  0  0  0  0
   -0.2246    1.9238    0.1529 C   0  0  0  0  0  0  0  0  0  0  0  0
   -0.1911    0.7199    0.1472 C   0  0  0  0  0  0  0  0  0  0  0  0
   -0.1545   -0.7138    0.1087 C   0  0  1  0  0  0  0  0  0  0  0  0
   -0.6924   -1.4903    1.2876 C   0  0  0  0  0  0  0  0  0  0  0  0
   -1.4315   -1.4914    0.0386 N   0  0  0  0  0  0  0  0  0  0  0  0
    0.9438   -1.3793   -0.6724 C   0  0  0  0  0  0  0  0  0  0  0  0
    1.8979   -0.8199   -1.1398 O   0  0  0  0  0  0  0  0  0  0  0  0
    0.7623    3.7839    0.0567 H   0  0  0  0  0  0  0  0  0  0  0  0
   -0.8502    3.7701   -0.6698 H   0  0  0  0  0  0  0  0  0  0  0  0
   -0.6723    3.7665    1.0916 H   0  0  0  0  0  0  0  0  0  0  0  0
   -0.2314   -2.4386    1.5524 H   0  0  0  0  0  0  0  0  0  0  0  0
   -1.0417   -0.8936    2.1245 H   0  0  0  0  0  0  0  0  0  0  0  0
   -2.2028   -0.8298    0.0804 H   0  0  0  0  0  0  0  0  0  0  0  0
    0.7807   -2.4752   -0.7726 H   0  0  0  0  0  0  0  0  0  0  0  0
  1 11  1  0  0  0  0
  2  1  1  0  0  0  0
  3  2  3  0  0  0  0
  4  3  1  1  0  0  0
  4  5  1  0  0  0  0
  5 12  1  0  0  0  0
  5 13  1  0  0  0  0
  6 14  1  0  0  0  0
  6  4  1  0  0  0  0
  6  5  1  0  0  0  0
  7  4  1  0  0  0  0
  8  7  2  0  0  0  0
  9  1  1  0  0  0  0
 10  1  1  0  0  0  0
 15  7  1  0  0  0  0
M  END
