18
title
O 1.5207212 -1.0702207 1.3035079
C 1.3795193 -0.44795588 0.030251235
C -0.077441365 -0.49673805 -0.3612634
C -1.0073969 0.2764066 0.57369643
C -0.77446514 1.7183644 0.55572313
C -0.56502706 2.90215 0.5290209
C -0.41075423 -0.5448262 -1.8297485
C -0.5998028 -1.7729304 -0.9717772
H 2.3755074 -0.82073516 1.6657295
H 1.7127137 0.5997389 0.06555316
H 1.9825265 -0.9667196 -0.73173213
H -2.0503032 0.074493445 0.30119833
H -0.8686288 -0.10340386 1.5927469
H -0.3927622 3.9495568 0.5119097
H -1.2928855 -0.008943733 -2.1632664
H 0.40583965 -0.5374507 -2.5441735
H 0.094575495 -2.5972903 -1.0918204
H -1.6124067 -2.0784934 -0.73058707
