18
title
C -0.28759533 3.3844507 0.02441589
C -0.29082277 1.9280488 0.033800386
C -0.32059267 0.72209185 0.052460093
C -0.28367347 -0.71802026 0.034131933
C 0.7514461 -1.2892952 -0.9279857
O 2.070649 -0.89009863 -0.61250526
C -0.5457223 -1.4683907 1.3291965
C -1.5738833 -1.4960775 0.23450741
H 0.4001202 3.7917564 0.77401906
H 0.016990483 3.775513 -0.9527118
H -1.2855414 3.7820816 0.24021243
H 0.73826814 -2.3828783 -0.8713139
H 0.4822893 -1.0037236 -1.9573243
H 2.063887 0.07310254 -0.5599641
H 0.048416078 -2.3582263 1.506498
H -0.7566234 -0.8801406 2.2140937
H -2.4848497 -0.9251202 0.36802542
H -1.6933169 -2.4087672 -0.3403352
