title
 OpenBabel02282109593D

 16 16  0  0  1  0  0  0  0  0999 V2000
    1.9628   -1.4341   -0.1797 O   0  0  0  0  0  0  0  0  0  0  0  0
    1.0491   -0.5401   -0.7743 C   0  0  0  0  0  0  0  0  0  0  0  0
   -0.2683   -0.4872   -0.0108 C   0  0  1  0  0  0  0  0  0  0  0  0
   -1.2841    0.5534   -0.4697 C   0  0  0  0  0  0  0  0  0  0  0  0
   -0.7735    1.9211   -0.4590 C   0  0  0  0  0  0  0  0  0  0  0  0
   -0.3517    3.0461   -0.4504 C   0  0  0  0  0  0  0  0  0  0  0  0
   -0.7341   -1.6820    0.7007 C   0  0  0  0  0  0  0  0  0  0  0  0
   -0.0997   -0.6002    1.4087 O   0  0  0  0  0  0  0  0  0  0  0  0
    1.9611   -1.2187    0.7623 H   0  0  0  0  0  0  0  0  0  0  0  0
    1.4577    0.4796   -0.8365 H   0  0  0  0  0  0  0  0  0  0  0  0
    0.8698   -0.8880   -1.7982 H   0  0  0  0  0  0  0  0  0  0  0  0
   -1.6189    0.2940   -1.4834 H   0  0  0  0  0  0  0  0  0  0  0  0
   -2.1650    0.4848    0.1782 H   0  0  0  0  0  0  0  0  0  0  0  0
    0.0172    4.0419   -0.4392 H   0  0  0  0  0  0  0  0  0  0  0  0
   -1.7948   -1.8075    0.9112 H   0  0  0  0  0  0  0  0  0  0  0  0
   -0.1470   -2.5944    0.6385 H   0  0  0  0  0  0  0  0  0  0  0  0
  1  9  1  0  0  0  0
  2  1  1  0  0  0  0
  3  2  1  6  0  0  0
  3  7  1  0  0  0  0
  3  8  1  0  0  0  0
  4  5  1  0  0  0  0
  4  3  1  0  0  0  0
  4 13  1  0  0  0  0
  5  6  3  0  0  0  0
  6 14  1  0  0  0  0
  7 15  1  0  0  0  0
  7  8  1  0  0  0  0
 10  2  1  0  0  0  0
 11  2  1  0  0  0  0
 12  4  1  0  0  0  0
 16  7  1  0  0  0  0
M  END
