17
title
C 2.0905972 -1.5700684 0.30289027
C 1.186099 -0.6124387 -0.475189
C -0.23760395 -0.5035952 0.046212792
C -1.1440893 0.45980057 -0.7248201
C -0.6028219 1.8169849 -0.8058272
N -0.16719691 2.884776 -0.87560683
C -0.9005737 -1.585817 0.78872794
O -0.39746585 -0.42709377 1.4635649
H 3.1250904 -1.4705974 -0.03592463
H 2.0574138 -1.3453066 1.3720676
H 1.798836 -2.615393 0.16136478
H 1.6191638 0.39506936 -0.4569725
H 1.1419126 -0.9031496 -1.5329291
H -1.299841 0.088380806 -1.7447579
H -2.12245 0.5028846 -0.23709138
H -1.9861864 -1.6749828 0.76068836
H -0.3682764 -2.5110674 0.99397385
