17
title
C 1.7280562 -0.5405736 1.4213991
O 1.3184848 -0.15783085 0.12005441
C 0.035455838 -0.56562793 -0.23999514
C -1.0996534 0.1634983 0.4755062
C -1.0650398 1.6110951 0.2604791
N -1.0448025 2.7538269 0.093053356
C -0.119598016 -0.9206327 -1.6844072
C -0.16536509 -2.010393 -0.6293447
H 2.7795274 -0.26087508 1.5121346
H 1.1631203 -0.019537153 2.2067926
H 1.6284369 -1.6239146 1.5749174
H -2.062127 -0.22080673 0.123110995
H -1.0649563 -0.029167937 1.5540695
H -1.0378317 -0.6451298 -2.191118
H 0.77582574 -0.85119545 -2.2899718
H 0.69918483 -2.6595643 -0.5516449
H -1.1139292 -2.4906237 -0.413923
