title
 OpenBabel02282109593D

 17 17  0  0  1  0  0  0  0  0999 V2000
    2.0906   -1.5701    0.3029 C   0  0  0  0  0  0  0  0  0  0  0  0
    1.1861   -0.6124   -0.4752 C   0  0  0  0  0  0  0  0  0  0  0  0
   -0.2376   -0.5036    0.0462 C   0  0  1  0  0  0  0  0  0  0  0  0
   -1.1441    0.4598   -0.7248 C   0  0  0  0  0  0  0  0  0  0  0  0
   -0.6028    1.8170   -0.8058 C   0  0  0  0  0  0  0  0  0  0  0  0
   -0.1672    2.8848   -0.8756 N   0  0  0  0  0  0  0  0  0  0  0  0
   -0.9006   -1.5858    0.7887 C   0  0  0  0  0  0  0  0  0  0  0  0
   -0.3975   -0.4271    1.4636 O   0  0  0  0  0  0  0  0  0  0  0  0
    3.1251   -1.4706   -0.0359 H   0  0  0  0  0  0  0  0  0  0  0  0
    2.0574   -1.3453    1.3721 H   0  0  0  0  0  0  0  0  0  0  0  0
    1.7988   -2.6154    0.1614 H   0  0  0  0  0  0  0  0  0  0  0  0
    1.6192    0.3951   -0.4570 H   0  0  0  0  0  0  0  0  0  0  0  0
    1.1419   -0.9031   -1.5329 H   0  0  0  0  0  0  0  0  0  0  0  0
   -1.2998    0.0884   -1.7448 H   0  0  0  0  0  0  0  0  0  0  0  0
   -2.1225    0.5029   -0.2371 H   0  0  0  0  0  0  0  0  0  0  0  0
   -1.9862   -1.6750    0.7607 H   0  0  0  0  0  0  0  0  0  0  0  0
   -0.3683   -2.5111    0.9940 H   0  0  0  0  0  0  0  0  0  0  0  0
  1 10  1  0  0  0  0
  2 12  1  0  0  0  0
  2  3  1  0  0  0  0
  2  1  1  0  0  0  0
  3  4  1  6  0  0  0
  3  7  1  0  0  0  0
  3  8  1  0  0  0  0
  4 15  1  0  0  0  0
  5  4  1  0  0  0  0
  6  5  3  0  0  0  0
  7 17  1  0  0  0  0
  7  8  1  0  0  0  0
  9  1  1  0  0  0  0
 11  1  1  0  0  0  0
 13  2  1  0  0  0  0
 14  4  1  0  0  0  0
 16  7  1  0  0  0  0
M  END
