title
 OpenBabel02282109593D

 17 17  0  0  0  0  0  0  0  0999 V2000
    1.7281   -0.5406    1.4214 C   0  0  0  0  0  0  0  0  0  0  0  0
    1.3185   -0.1578    0.1201 O   0  0  0  0  0  0  0  0  0  0  0  0
    0.0355   -0.5656   -0.2400 C   0  0  0  0  0  0  0  0  0  0  0  0
   -1.0997    0.1635    0.4755 C   0  0  0  0  0  0  0  0  0  0  0  0
   -1.0650    1.6111    0.2605 C   0  0  0  0  0  0  0  0  0  0  0  0
   -1.0448    2.7538    0.0931 N   0  0  0  0  0  0  0  0  0  0  0  0
   -0.1196   -0.9206   -1.6844 C   0  0  0  0  0  0  0  0  0  0  0  0
   -0.1654   -2.0104   -0.6293 C   0  0  0  0  0  0  0  0  0  0  0  0
    2.7795   -0.2609    1.5121 H   0  0  0  0  0  0  0  0  0  0  0  0
    1.1631   -0.0195    2.2068 H   0  0  0  0  0  0  0  0  0  0  0  0
    1.6284   -1.6239    1.5749 H   0  0  0  0  0  0  0  0  0  0  0  0
   -2.0621   -0.2208    0.1231 H   0  0  0  0  0  0  0  0  0  0  0  0
   -1.0650   -0.0292    1.5541 H   0  0  0  0  0  0  0  0  0  0  0  0
   -1.0378   -0.6451   -2.1911 H   0  0  0  0  0  0  0  0  0  0  0  0
    0.7758   -0.8512   -2.2900 H   0  0  0  0  0  0  0  0  0  0  0  0
    0.6992   -2.6596   -0.5516 H   0  0  0  0  0  0  0  0  0  0  0  0
   -1.1139   -2.4906   -0.4139 H   0  0  0  0  0  0  0  0  0  0  0  0
  1  9  1  0  0  0  0
  1 11  1  0  0  0  0
  1 10  1  0  0  0  0
  2  1  1  0  0  0  0
  3  2  1  0  0  0  0
  3  4  1  0  0  0  0
  4 13  1  0  0  0  0
  5  4  1  0  0  0  0
  6  5  3  0  0  0  0
  7  8  1  0  0  0  0
  7  3  1  0  0  0  0
  8 16  1  0  0  0  0
  8 17  1  0  0  0  0
  8  3  1  0  0  0  0
 12  4  1  0  0  0  0
 14  7  1  0  0  0  0
 15  7  1  0  0  0  0
M  END
