15
title
O 1.9701331 -1.4476488 -0.19005103
C 1.0677749 -0.5338661 -0.76558316
C -0.25652376 -0.49904165 -0.012018004
C -1.2774873 0.53668606 -0.47099176
C -0.7626348 1.9068722 -0.43413433
N -0.35142305 2.9861608 -0.41046134
C -0.72949976 -1.7006549 0.68342423
O -0.11064974 -0.6186645 1.4053051
H 2.0140495 -1.2260686 0.7491066
H 1.4826516 0.485763 -0.79808074
H 0.89641464 -0.8534425 -1.7999007
H -1.5981586 0.31285906 -1.4957634
H -2.162912 0.47810644 0.16905367
H -1.7923875 -1.8327196 0.8769984
H -0.1347981 -2.6075177 0.6211152
