title
 OpenBabel02282109593D

 17 17  0  0  1  0  0  0  0  0999 V2000
    1.7363    0.7444    0.6551 O   0  0  0  0  0  0  0  0  0  0  0  0
    1.4179   -0.3863   -0.1367 C   0  0  0  0  0  0  0  0  0  0  0  0
   -0.0439   -0.7970   -0.0158 C   0  0  1  0  0  0  0  0  0  0  0  0
   -1.0281   -0.0546   -0.9206 C   0  0  0  0  0  0  0  0  0  0  0  0
   -0.9151    1.4010   -0.8411 C   0  0  0  0  0  0  0  0  0  0  0  0
   -0.8007    2.5979   -0.7846 C   0  0  0  0  0  0  0  0  0  0  0  0
   -0.3569   -2.1928    0.3882 C   0  0  0  0  0  0  0  0  0  0  0  0
   -0.5507   -1.0797    1.3316 N   0  0  0  0  0  0  0  0  0  0  0  0
    1.1704    1.4688    0.3593 H   0  0  0  0  0  0  0  0  0  0  0  0
    1.6700   -0.2228   -1.1969 H   0  0  0  0  0  0  0  0  0  0  0  0
    2.0605   -1.1941    0.2291 H   0  0  0  0  0  0  0  0  0  0  0  0
   -0.8692   -0.3679   -1.9612 H   0  0  0  0  0  0  0  0  0  0  0  0
   -2.0449   -0.3549   -0.6464 H   0  0  0  0  0  0  0  0  0  0  0  0
   -0.7312    3.6569   -0.7383 H   0  0  0  0  0  0  0  0  0  0  0  0
   -1.2746   -2.6668    0.0487 H   0  0  0  0  0  0  0  0  0  0  0  0
    0.4735   -2.8781    0.5378 H   0  0  0  0  0  0  0  0  0  0  0  0
    0.2164   -1.0231    1.9979 H   0  0  0  0  0  0  0  0  0  0  0  0
  2  3  1  0  0  0  0
  2 11  1  0  0  0  0
  2  1  1  0  0  0  0
  3  4  1  6  0  0  0
  3  7  1  0  0  0  0
  3  8  1  0  0  0  0
  4  5  1  0  0  0  0
  4 13  1  0  0  0  0
  5  6  3  0  0  0  0
  6 14  1  0  0  0  0
  7 16  1  0  0  0  0
  7  8  1  0  0  0  0
  8 17  1  0  0  0  0
  9  1  1  0  0  0  0
 10  2  1  0  0  0  0
 12  4  1  0  0  0  0
 15  7  1  0  0  0  0
M  END
