title
 OpenBabel02282109593D

 18 18  0  0  0  0  0  0  0  0999 V2000
    1.5207   -1.0702    1.3035 O   0  0  0  0  0  0  0  0  0  0  0  0
    1.3795   -0.4480    0.0303 C   0  0  0  0  0  0  0  0  0  0  0  0
   -0.0774   -0.4967   -0.3613 C   0  0  0  0  0  0  0  0  0  0  0  0
   -1.0074    0.2764    0.5737 C   0  0  0  0  0  0  0  0  0  0  0  0
   -0.7745    1.7184    0.5557 C   0  0  0  0  0  0  0  0  0  0  0  0
   -0.5650    2.9021    0.5290 C   0  0  0  0  0  0  0  0  0  0  0  0
   -0.4108   -0.5448   -1.8297 C   0  0  0  0  0  0  0  0  0  0  0  0
   -0.5998   -1.7729   -0.9718 C   0  0  0  0  0  0  0  0  0  0  0  0
    2.3755   -0.8207    1.6657 H   0  0  0  0  0  0  0  0  0  0  0  0
    1.7127    0.5997    0.0656 H   0  0  0  0  0  0  0  0  0  0  0  0
    1.9825   -0.9667   -0.7317 H   0  0  0  0  0  0  0  0  0  0  0  0
   -2.0503    0.0745    0.3012 H   0  0  0  0  0  0  0  0  0  0  0  0
   -0.8686   -0.1034    1.5927 H   0  0  0  0  0  0  0  0  0  0  0  0
   -0.3928    3.9496    0.5119 H   0  0  0  0  0  0  0  0  0  0  0  0
   -1.2929   -0.0089   -2.1633 H   0  0  0  0  0  0  0  0  0  0  0  0
    0.4058   -0.5375   -2.5442 H   0  0  0  0  0  0  0  0  0  0  0  0
    0.0946   -2.5973   -1.0918 H   0  0  0  0  0  0  0  0  0  0  0  0
   -1.6124   -2.0785   -0.7306 H   0  0  0  0  0  0  0  0  0  0  0  0
  1  9  1  0  0  0  0
  2 10  1  0  0  0  0
  2  1  1  0  0  0  0
  3  2  1  0  0  0  0
  3  4  1  0  0  0  0
  4 13  1  0  0  0  0
  5  4  1  0  0  0  0
  6  5  3  0  0  0  0
  7  8  1  0  0  0  0
  7  3  1  0  0  0  0
  8 18  1  0  0  0  0
  8  3  1  0  0  0  0
 11  2  1  0  0  0  0
 12  4  1  0  0  0  0
 14  6  1  0  0  0  0
 15  7  1  0  0  0  0
 16  7  1  0  0  0  0
 17  8  1  0  0  0  0
M  END
