20
title
C 1.845281 0.16623321 1.5283964
C 1.4994917 0.03729764 0.039764743
C 0.17935227 -0.674232 -0.23564124
C -1.068147 0.0138619775 0.31009862
C -1.2811513 1.3790189 -0.31050628
O -1.417886 2.4045155 0.3061995
C 0.043558456 -1.4199986 -1.5454382
C 0.18947826 -2.184625 -0.2521664
H 2.833816 0.6169791 1.6579263
H 1.1262244 0.79901654 2.0573795
H 1.8550619 -0.81394833 2.0166793
H 1.479502 1.0366448 -0.41569048
H 2.2998545 -0.5107794 -0.47157672
H -1.9488776 -0.59615785 0.06547247
H -1.035186 0.1288806 1.3975132
H -1.2990975 1.3747023 -1.4255412
H -0.92356944 -1.4331136 -2.0373104
H 0.88484323 -1.40596 -2.2301614
H 1.1330351 -2.684796 -0.060392138
H -0.67652845 -2.7128677 0.13235107
