title
 OpenBabel02282109593D

 18 18  0  0  0  0  0  0  0  0999 V2000
   -2.2041   -0.0939    1.2508 C   0  0  0  0  0  0  0  0  0  0  0  0
   -0.6969   -0.0602    1.5273 C   0  0  0  0  0  0  0  0  0  0  0  0
    0.1329   -0.5565    0.3615 C   0  0  0  0  0  0  0  0  0  0  0  0
    1.4926   -1.1743    0.5626 C   0  0  0  0  0  0  0  0  0  0  0  0
    0.3181   -2.0222    0.1181 C   0  0  0  0  0  0  0  0  0  0  0  0
   -0.0647    0.1993   -0.8328 O   0  0  0  0  0  0  0  0  0  0  0  0
    0.6312    1.3498   -0.9523 C   0  0  0  0  0  0  0  0  0  0  0  0
    0.4972    2.0871   -1.8825 O   0  0  0  0  0  0  0  0  0  0  0  0
   -2.4548    0.5147    0.3779 H   0  0  0  0  0  0  0  0  0  0  0  0
   -2.5441   -1.1156    1.0536 H   0  0  0  0  0  0  0  0  0  0  0  0
   -2.7645    0.2904    2.1077 H   0  0  0  0  0  0  0  0  0  0  0  0
   -0.3862    0.9621    1.7801 H   0  0  0  0  0  0  0  0  0  0  0  0
   -0.4589   -0.6770    2.4015 H   0  0  0  0  0  0  0  0  0  0  0  0
    2.2585   -0.9652   -0.1755 H   0  0  0  0  0  0  0  0  0  0  0  0
    1.8599   -1.2789    1.5776 H   0  0  0  0  0  0  0  0  0  0  0  0
   -0.1235   -2.7138    0.8268 H   0  0  0  0  0  0  0  0  0  0  0  0
    0.3054   -2.3529   -0.9135 H   0  0  0  0  0  0  0  0  0  0  0  0
    1.3312    1.5184   -0.1132 H   0  0  0  0  0  0  0  0  0  0  0  0
  1  2  1  0  0  0  0
  1 11  1  0  0  0  0
  2 12  1  0  0  0  0
  2 13  1  0  0  0  0
  3  4  1  0  0  0  0
  3  2  1  0  0  0  0
  4 15  1  0  0  0  0
  5  3  1  0  0  0  0
  5  4  1  0  0  0  0
  5 16  1  0  0  0  0
  6  3  1  0  0  0  0
  7  6  1  0  0  0  0
  7 18  1  0  0  0  0
  8  7  2  0  0  0  0
  9  1  1  0  0  0  0
 10  1  1  0  0  0  0
 14  4  1  0  0  0  0
 17  5  1  0  0  0  0
M  END
