title
 OpenBabel02282109593D

 19 19  0  0  1  0  0  0  0  0999 V2000
    2.1113   -1.5056    0.8529 C   0  0  0  0  0  0  0  0  0  0  0  0
    1.2526   -0.7069   -0.1314 C   0  0  0  0  0  0  0  0  0  0  0  0
   -0.2179   -0.5076    0.2274 C   0  0  1  0  0  0  0  0  0  0  0  0
   -0.9926    0.2919   -0.8157 C   0  0  0  0  0  0  0  0  0  0  0  0
   -0.5273    1.7322   -0.8828 C   0  0  0  0  0  0  0  0  0  0  0  0
   -0.2274    2.3145   -1.8941 O   0  0  0  0  0  0  0  0  0  0  0  0
   -0.9580   -1.5048    1.0428 C   0  0  0  0  0  0  0  0  0  0  0  0
   -0.6239   -0.1829    1.6091 N   0  0  0  0  0  0  0  0  0  0  0  0
    3.1463   -1.5378    0.5014 H   0  0  0  0  0  0  0  0  0  0  0  0
    2.1295   -1.0558    1.8517 H   0  0  0  0  0  0  0  0  0  0  0  0
    1.7684   -2.5397    0.9528 H   0  0  0  0  0  0  0  0  0  0  0  0
    1.7053    0.2837   -0.2754 H   0  0  0  0  0  0  0  0  0  0  0  0
    1.2924   -1.1908   -1.1157 H   0  0  0  0  0  0  0  0  0  0  0  0
   -0.9133   -0.1550   -1.8115 H   0  0  0  0  0  0  0  0  0  0  0  0
   -2.0503    0.3108   -0.5239 H   0  0  0  0  0  0  0  0  0  0  0  0
   -0.4852    2.2355    0.1089 H   0  0  0  0  0  0  0  0  0  0  0  0
   -2.0164   -1.6726    0.8610 H   0  0  0  0  0  0  0  0  0  0  0  0
   -0.4255   -2.3737    1.4163 H   0  0  0  0  0  0  0  0  0  0  0  0
    0.1662   -0.2761    2.2422 H   0  0  0  0  0  0  0  0  0  0  0  0
  1 11  1  0  0  0  0
  1 10  1  0  0  0  0
  2  3  1  0  0  0  0
  2  1  1  0  0  0  0
  3  4  1  6  0  0  0
  3  7  1  0  0  0  0
  3  8  1  0  0  0  0
  4 15  1  0  0  0  0
  5  4  1  0  0  0  0
  5 16  1  0  0  0  0
  6  5  2  0  0  0  0
  7 18  1  0  0  0  0
  7  8  1  0  0  0  0
  8 19  1  0  0  0  0
  9  1  1  0  0  0  0
 12  2  1  0  0  0  0
 13  2  1  0  0  0  0
 14  4  1  0  0  0  0
 17  7  1  0  0  0  0
M  END
