title
 OpenBabel02282109593D

 19 19  0  0  0  0  0  0  0  0999 V2000
   -2.3247    0.0396    1.0009 C   0  0  0  0  0  0  0  0  0  0  0  0
   -0.8238   -0.0665    1.2888 C   0  0  0  0  0  0  0  0  0  0  0  0
   -0.0103   -0.5646    0.1030 C   0  0  0  0  0  0  0  0  0  0  0  0
    1.2850   -1.2905    0.3523 C   0  0  0  0  0  0  0  0  0  0  0  0
    0.0864   -2.0463   -0.1691 C   0  0  0  0  0  0  0  0  0  0  0  0
   -0.0537    0.2762   -1.0697 N   0  0  0  0  0  0  0  0  0  0  0  0
    0.5969    1.4702   -1.1583 C   0  0  0  0  0  0  0  0  0  0  0  0
    1.3305    1.9332   -0.3124 O   0  0  0  0  0  0  0  0  0  0  0  0
   -2.5199    0.7277    0.1719 H   0  0  0  0  0  0  0  0  0  0  0  0
   -2.7503   -0.9347    0.7361 H   0  0  0  0  0  0  0  0  0  0  0  0
   -2.8655    0.4153    1.8745 H   0  0  0  0  0  0  0  0  0  0  0  0
   -0.4254    0.9090    1.5882 H   0  0  0  0  0  0  0  0  0  0  0  0
   -0.6559   -0.7468    2.1316 H   0  0  0  0  0  0  0  0  0  0  0  0
    2.1022   -1.0996   -0.3320 H   0  0  0  0  0  0  0  0  0  0  0  0
    1.5849   -1.4404    1.3832 H   0  0  0  0  0  0  0  0  0  0  0  0
   -0.4405   -2.7147    0.5033 H   0  0  0  0  0  0  0  0  0  0  0  0
    0.1084   -2.3751   -1.2026 H   0  0  0  0  0  0  0  0  0  0  0  0
   -0.7083    0.0465   -1.8017 H   0  0  0  0  0  0  0  0  0  0  0  0
    0.3842    1.9789   -2.1215 H   0  0  0  0  0  0  0  0  0  0  0  0
  1  2  1  0  0  0  0
  1 11  1  0  0  0  0
  2 12  1  0  0  0  0
  2 13  1  0  0  0  0
  3  4  1  0  0  0  0
  3  2  1  0  0  0  0
  4 15  1  0  0  0  0
  5  3  1  0  0  0  0
  5  4  1  0  0  0  0
  5 16  1  0  0  0  0
  6  3  1  0  0  0  0
  7  6  1  0  0  0  0
  7  8  2  0  0  0  0
  9  1  1  0  0  0  0
 10  1  1  0  0  0  0
 14  4  1  0  0  0  0
 17  5  1  0  0  0  0
 18  6  1  0  0  0  0
 19  7  1  0  0  0  0
M  END
