title
 OpenBabel02282109593D

 17 17  0  0  1  0  0  0  0  0999 V2000
   -0.2580    3.4338    0.3688 C   0  0  0  0  0  0  0  0  0  0  0  0
   -0.1827    1.9805    0.3466 C   0  0  0  0  0  0  0  0  0  0  0  0
   -0.1182    0.7773    0.3251 C   0  0  0  0  0  0  0  0  0  0  0  0
   -0.0227   -0.6587    0.2798 C   0  0  1  0  0  0  0  0  0  0  0  0
    1.2266   -1.2446   -0.3648 C   0  0  0  0  0  0  0  0  0  0  0  0
    1.2278   -1.0501   -1.7623 O   0  0  0  0  0  0  0  0  0  0  0  0
   -0.7696   -1.4590    1.2962 C   0  0  0  0  0  0  0  0  0  0  0  0
   -1.2415   -1.4343   -0.0945 N   0  0  0  0  0  0  0  0  0  0  0  0
    0.6089    3.8790   -0.1316 H   0  0  0  0  0  0  0  0  0  0  0  0
   -1.1562    3.7933   -0.1455 H   0  0  0  0  0  0  0  0  0  0  0  0
   -0.2848    3.8194    1.3940 H   0  0  0  0  0  0  0  0  0  0  0  0
    2.1222   -0.7514    0.0241 H   0  0  0  0  0  0  0  0  0  0  0  0
    1.2810   -2.3131   -0.1054 H   0  0  0  0  0  0  0  0  0  0  0  0
    0.3971   -1.4241   -2.0806 H   0  0  0  0  0  0  0  0  0  0  0  0
   -0.3621   -2.4112    1.6256 H   0  0  0  0  0  0  0  0  0  0  0  0
   -1.3312   -0.9141    2.0487 H   0  0  0  0  0  0  0  0  0  0  0  0
   -2.0273   -0.7941   -0.1755 H   0  0  0  0  0  0  0  0  0  0  0  0
  1 11  1  0  0  0  0
  2  1  1  0  0  0  0
  3  2  3  0  0  0  0
  4  3  1  1  0  0  0
  4  7  1  0  0  0  0
  5 13  1  0  0  0  0
  5 12  1  0  0  0  0
  5  4  1  0  0  0  0
  6  5  1  0  0  0  0
  7 15  1  0  0  0  0
  7 16  1  0  0  0  0
  8  4  1  0  0  0  0
  8  7  1  0  0  0  0
  9  1  1  0  0  0  0
 10  1  1  0  0  0  0
 14  6  1  0  0  0  0
 17  8  1  0  0  0  0
M  END
