18
title
C -1.5675739 1.2557732 1.4472297
C -0.9786576 -0.15662558 1.515296
C -0.39335284 -0.6120359 0.18804373
C -0.5669532 -2.0111332 -0.25498247
O -1.3777055 -0.9790147 -0.8055154
C 0.7355019 0.14322203 -0.3066448
C 1.6780999 0.7900813 -0.686581
C 2.814531 1.5649273 -1.161888
H -0.8011562 1.9872905 1.1746955
H -2.3631248 1.3036551 0.6978211
H -1.9894807 1.547746 2.4132504
H -0.19187035 -0.20374787 2.277695
H -1.7550551 -0.8730144 1.8043578
H 0.16173337 -2.4494572 -0.93467224
H -1.0777396 -2.7139013 0.40330768
H 3.6239617 0.9142884 -1.5106534
H 2.52725 2.2149403 -1.9956769
H 3.2184885 2.2027843 -0.36820114
