16
title
O 1.8991898 0.98373526 0.057459228
C 1.2586083 0.3929194 -1.0630364
C 0.06750597 -0.44901848 -0.65900534
C -0.4513044 -1.5074196 -1.5806755
C 0.22155012 -1.8990691 -0.28228945
O -0.92406666 0.3169487 0.0055727283
C -0.7645916 0.50621915 1.3394914
O -1.4658858 1.2492467 1.9585586
H 1.5010868 1.8451711 0.21279965
H 0.9351371 1.1551895 -1.7844118
H 1.9951662 -0.24666128 -1.5614837
H -1.5281159 -1.6137233 -1.6371737
H 0.07431199 -1.6735353 -2.514626
H 1.2163213 -2.3294783 -0.31417608
H -0.41290352 -2.2863638 0.5064746
H 0.055143733 -0.0960333 1.7626929
