title
 OpenBabel02282109593D

 20 20  0  0  1  0  0  0  0  0999 V2000
    2.1126    1.7079    0.5960 C   0  0  0  0  0  0  0  0  0  0  0  0
    2.0172    0.3217   -0.0540 C   0  0  0  0  0  0  0  0  0  0  0  0
    0.6420   -0.3173    0.0666 C   0  0  1  0  0  0  0  0  0  0  0  0
   -0.4941    0.4092   -0.6374 C   0  0  0  0  0  0  0  0  0  0  0  0
   -1.8618   -0.2783   -0.5858 C   0  0  0  0  0  0  0  0  0  0  0  0
   -2.8866    0.5342   -1.1378 O   0  0  0  0  0  0  0  0  0  0  0  0
    0.5672   -1.7582    0.3624 C   0  0  0  0  0  0  0  0  0  0  0  0
    0.3390   -0.7913    1.3926 O   0  0  0  0  0  0  0  0  0  0  0  0
    3.1415    2.0781    0.5635 H   0  0  0  0  0  0  0  0  0  0  0  0
    1.4833    2.4448    0.0878 H   0  0  0  0  0  0  0  0  0  0  0  0
    1.8026    1.6604    1.6444 H   0  0  0  0  0  0  0  0  0  0  0  0
    2.2881    0.3839   -1.1158 H   0  0  0  0  0  0  0  0  0  0  0  0
    2.7443   -0.3468    0.4194 H   0  0  0  0  0  0  0  0  0  0  0  0
   -0.5960    1.4024   -0.1788 H   0  0  0  0  0  0  0  0  0  0  0  0
   -0.2170    0.5829   -1.6842 H   0  0  0  0  0  0  0  0  0  0  0  0
   -1.8574   -1.1876   -1.1949 H   0  0  0  0  0  0  0  0  0  0  0  0
   -2.0873   -0.5710    0.4492 H   0  0  0  0  0  0  0  0  0  0  0  0
   -2.9994    1.2963   -0.5608 H   0  0  0  0  0  0  0  0  0  0  0  0
   -0.3028   -2.3447    0.0745 H   0  0  0  0  0  0  0  0  0  0  0  0
    1.4897   -2.3306    0.4564 H   0  0  0  0  0  0  0  0  0  0  0  0
  1 11  1  0  0  0  0
  2  3  1  0  0  0  0
  2 13  1  0  0  0  0
  2  1  1  0  0  0  0
  3  4  1  6  0  0  0
  3  7  1  0  0  0  0
  3  8  1  0  0  0  0
  4  5  1  0  0  0  0
  4 14  1  0  0  0  0
  5 17  1  0  0  0  0
  6  5  1  0  0  0  0
  6 18  1  0  0  0  0
  7 20  1  0  0  0  0
  7  8  1  0  0  0  0
  9  1  1  0  0  0  0
 10  1  1  0  0  0  0
 12  2  1  0  0  0  0
 15  4  1  0  0  0  0
 16  5  1  0  0  0  0
 19  7  1  0  0  0  0
M  END
