title
 OpenBabel02282109593D

 18 18  0  0  0  0  0  0  0  0999 V2000
   -1.9404    0.4192    0.9425 C   0  0  0  0  0  0  0  0  0  0  0  0
   -0.5718    0.1469    1.1946 O   0  0  0  0  0  0  0  0  0  0  0  0
    0.0445   -0.6827    0.2478 C   0  0  0  0  0  0  0  0  0  0  0  0
    0.2400   -0.0411   -1.1153 C   0  0  0  0  0  0  0  0  0  0  0  0
    0.9573    1.2902   -0.9927 C   0  0  0  0  0  0  0  0  0  0  0  0
    0.5853    2.3135   -1.5051 O   0  0  0  0  0  0  0  0  0  0  0  0
    1.1104   -1.5652    0.8276 C   0  0  0  0  0  0  0  0  0  0  0  0
   -0.2020   -2.1669    0.3640 C   0  0  0  0  0  0  0  0  0  0  0  0
   -2.0802    1.0481    0.0533 H   0  0  0  0  0  0  0  0  0  0  0  0
   -2.5186   -0.5067    0.8170 H   0  0  0  0  0  0  0  0  0  0  0  0
   -2.3169    0.9603    1.8133 H   0  0  0  0  0  0  0  0  0  0  0  0
    0.8554   -0.7045   -1.7371 H   0  0  0  0  0  0  0  0  0  0  0  0
   -0.7052    0.1212   -1.6422 H   0  0  0  0  0  0  0  0  0  0  0  0
    1.8847    1.2559   -0.3776 H   0  0  0  0  0  0  0  0  0  0  0  0
    2.0049   -1.7554    0.2447 H   0  0  0  0  0  0  0  0  0  0  0  0
    1.2689   -1.4851    1.8964 H   0  0  0  0  0  0  0  0  0  0  0  0
   -0.8945   -2.4877    1.1338 H   0  0  0  0  0  0  0  0  0  0  0  0
   -0.2120   -2.7702   -0.5372 H   0  0  0  0  0  0  0  0  0  0  0  0
  1  2  1  0  0  0  0
  1 11  1  0  0  0  0
  3  8  1  0  0  0  0
  3  7  1  0  0  0  0
  3  2  1  0  0  0  0
  4  5  1  0  0  0  0
  4  3  1  0  0  0  0
  5 14  1  0  0  0  0
  6  5  2  0  0  0  0
  7 16  1  0  0  0  0
  8  7  1  0  0  0  0
  8 17  1  0  0  0  0
  9  1  1  0  0  0  0
 10  1  1  0  0  0  0
 12  4  1  0  0  0  0
 13  4  1  0  0  0  0
 15  7  1  0  0  0  0
 18  8  1  0  0  0  0
M  END
