16
title
O 2.0238202 -1.5192935 0.099880606
C 1.141037 -0.68715143 -0.6127588
C -0.21030243 -0.55832684 0.08098136
C -1.1660244 0.46254227 -0.5090499
C -0.6610643 1.8865011 -0.34840456
O -0.64520365 2.7068079 -1.2286801
C -0.7095687 -1.6758432 0.8897517
O -0.10108454 -0.5311907 1.516667
H 1.9793472 -1.224748 1.0193114
H 1.562316 0.3226323 -0.7579987
H 1.0051321 -1.1254009 -1.607893
H -1.3515005 0.27065793 -1.5703847
H -2.1225965 0.39776728 0.025196718
H -0.31135803 2.1301136 0.6791026
H -1.7791517 -1.7800448 1.0619094
H -0.12355096 -2.5890815 0.94615734
