title
 OpenBabel02282109593D

 16 16  0  0  1  0  0  0  0  0999 V2000
    2.0238   -1.5193    0.0999 O   0  0  0  0  0  0  0  0  0  0  0  0
    1.1410   -0.6872   -0.6128 C   0  0  0  0  0  0  0  0  0  0  0  0
   -0.2103   -0.5583    0.0810 C   0  0  1  0  0  0  0  0  0  0  0  0
   -1.1660    0.4625   -0.5090 C   0  0  0  0  0  0  0  0  0  0  0  0
   -0.6611    1.8865   -0.3484 C   0  0  0  0  0  0  0  0  0  0  0  0
   -0.6452    2.7068   -1.2287 O   0  0  0  0  0  0  0  0  0  0  0  0
   -0.7096   -1.6758    0.8898 C   0  0  0  0  0  0  0  0  0  0  0  0
   -0.1011   -0.5312    1.5167 O   0  0  0  0  0  0  0  0  0  0  0  0
    1.9793   -1.2247    1.0193 H   0  0  0  0  0  0  0  0  0  0  0  0
    1.5623    0.3226   -0.7580 H   0  0  0  0  0  0  0  0  0  0  0  0
    1.0051   -1.1254   -1.6079 H   0  0  0  0  0  0  0  0  0  0  0  0
   -1.3515    0.2707   -1.5704 H   0  0  0  0  0  0  0  0  0  0  0  0
   -2.1226    0.3978    0.0252 H   0  0  0  0  0  0  0  0  0  0  0  0
   -0.3114    2.1301    0.6791 H   0  0  0  0  0  0  0  0  0  0  0  0
   -1.7792   -1.7800    1.0619 H   0  0  0  0  0  0  0  0  0  0  0  0
   -0.1236   -2.5891    0.9462 H   0  0  0  0  0  0  0  0  0  0  0  0
  1  9  1  0  0  0  0
  2  1  1  0  0  0  0
  3  2  1  6  0  0  0
  3  7  1  0  0  0  0
  3  8  1  0  0  0  0
  4  5  1  0  0  0  0
  4 13  1  0  0  0  0
  4  3  1  0  0  0  0
  5 14  1  0  0  0  0
  6  5  2  0  0  0  0
  7 16  1  0  0  0  0
  7 15  1  0  0  0  0
  7  8  1  0  0  0  0
 10  2  1  0  0  0  0
 11  2  1  0  0  0  0
 12  4  1  0  0  0  0
M  END
