title
 OpenBabel02282109593D

 17 17  0  0  0  0  0  0  0  0999 V2000
    1.8531    1.0333    0.0452 O   0  0  0  0  0  0  0  0  0  0  0  0
    1.2027    0.4365   -1.0657 C   0  0  0  0  0  0  0  0  0  0  0  0
    0.0438   -0.4466   -0.6524 C   0  0  0  0  0  0  0  0  0  0  0  0
   -0.4629   -1.4986   -1.5871 C   0  0  0  0  0  0  0  0  0  0  0  0
    0.2474   -1.8993   -0.3103 C   0  0  0  0  0  0  0  0  0  0  0  0
   -0.9536    0.2722    0.0451 O   0  0  0  0  0  0  0  0  0  0  0  0
   -0.7484    0.4618    1.3712 C   0  0  0  0  0  0  0  0  0  0  0  0
   -1.4401    1.3187    1.9892 N   0  0  0  0  0  0  0  0  0  0  0  0
    1.3417    1.8056    0.3065 H   0  0  0  0  0  0  0  0  0  0  0  0
    0.8404    1.1984   -1.7699 H   0  0  0  0  0  0  0  0  0  0  0  0
    1.9513   -0.1702   -1.5861 H   0  0  0  0  0  0  0  0  0  0  0  0
   -1.5371   -1.6354   -1.6230 H   0  0  0  0  0  0  0  0  0  0  0  0
    0.0473   -1.6307   -2.5351 H   0  0  0  0  0  0  0  0  0  0  0  0
    1.2522   -2.3026   -0.3712 H   0  0  0  0  0  0  0  0  0  0  0  0
   -0.3619   -2.3203    0.4811 H   0  0  0  0  0  0  0  0  0  0  0  0
    0.0250   -0.1909    1.7887 H   0  0  0  0  0  0  0  0  0  0  0  0
   -1.1938    1.3088    2.9773 H   0  0  0  0  0  0  0  0  0  0  0  0
  1  9  1  0  0  0  0
  2  3  1  0  0  0  0
  2  1  1  0  0  0  0
  3  5  1  0  0  0  0
  3  6  1  0  0  0  0
  4  3  1  0  0  0  0
  4  5  1  0  0  0  0
  5 15  1  0  0  0  0
  6  7  1  0  0  0  0
  7 16  1  0  0  0  0
  7  8  2  0  0  0  0
  8 17  1  0  0  0  0
 10  2  1  0  0  0  0
 11  2  1  0  0  0  0
 12  4  1  0  0  0  0
 13  4  1  0  0  0  0
 14  5  1  0  0  0  0
M  END
