17
title
O 1.1939324 1.5465693 -1.3751565
C 1.2977841 0.30986646 -0.6856318
C -0.05046599 -0.35072327 -0.46350673
C -0.65964407 -1.1841326 -1.5589204
C -0.10987048 -1.8492529 -0.32061374
N -0.9718767 0.43490514 0.32153428
C -0.8677624 0.5924828 1.6718388
O -0.005039024 0.10268733 2.3668907
H 0.7924568 2.1765988 -0.7685559
H 1.919755 -0.33920035 -1.3100519
H 1.7999772 0.42980096 0.2836514
H -1.7376072 -1.1559969 -1.6785522
H -0.10738222 -1.2652314 -2.4883451
H 0.82264274 -2.397791 -0.39442655
H -0.812491 -2.2508614 0.39877754
H -1.7160139 0.91991466 -0.15565836
H -1.6798203 1.2341951 2.0719376
