title
 OpenBabel02282109593D

 18 18  0  0  1  0  0  0  0  0999 V2000
   -1.7365    1.5673    1.5594 C   0  0  0  0  0  0  0  0  0  0  0  0
   -0.8551    0.3314    1.7778 C   0  0  0  0  0  0  0  0  0  0  0  0
   -0.2671   -0.2303    0.4946 C   0  0  1  0  0  0  0  0  0  0  0  0
    0.7324    0.6619   -0.2335 C   0  0  0  0  0  0  0  0  0  0  0  0
    1.2308    0.1063   -1.5524 C   0  0  0  0  0  0  0  0  0  0  0  0
    2.3867    0.1107   -1.8923 O   0  0  0  0  0  0  0  0  0  0  0  0
   -0.2236   -1.6876    0.3003 C   0  0  0  0  0  0  0  0  0  0  0  0
   -1.2197   -0.8924   -0.3541 O   0  0  0  0  0  0  0  0  0  0  0  0
   -1.1643    2.4206    1.1820 H   0  0  0  0  0  0  0  0  0  0  0  0
   -2.5329    1.3473    0.8421 H   0  0  0  0  0  0  0  0  0  0  0  0
   -2.2021    1.8775    2.4991 H   0  0  0  0  0  0  0  0  0  0  0  0
   -0.0366    0.5665    2.4701 H   0  0  0  0  0  0  0  0  0  0  0  0
   -1.4512   -0.4574    2.2489 H   0  0  0  0  0  0  0  0  0  0  0  0
    0.2421    1.6191   -0.4642 H   0  0  0  0  0  0  0  0  0  0  0  0
    1.5942    0.8816    0.4043 H   0  0  0  0  0  0  0  0  0  0  0  0
    0.4326   -0.2955   -2.2110 H   0  0  0  0  0  0  0  0  0  0  0  0
    0.5254   -2.1313   -0.3556 H   0  0  0  0  0  0  0  0  0  0  0  0
   -0.5951   -2.3474    1.0828 H   0  0  0  0  0  0  0  0  0  0  0  0
  1  2  1  0  0  0  0
  1 11  1  0  0  0  0
  2 13  1  0  0  0  0
  2 12  1  0  0  0  0
  3  4  1  6  0  0  0
  3  2  1  0  0  0  0
  4 15  1  0  0  0  0
  5  4  1  0  0  0  0
  6  5  2  0  0  0  0
  7  3  1  0  0  0  0
  7 18  1  0  0  0  0
  8  7  1  0  0  0  0
  8  3  1  0  0  0  0
  9  1  1  0  0  0  0
 10  1  1  0  0  0  0
 14  4  1  0  0  0  0
 16  5  1  0  0  0  0
 17  7  1  0  0  0  0
M  END
