18
title
C -1.9404132 0.41921777 0.9424762
O -0.5718353 0.14688885 1.1945897
C 0.044457212 -0.6827232 0.24782234
C 0.24001957 -0.041143265 -1.1153361
C 0.9572588 1.2901926 -0.9926719
O 0.5853363 2.3134735 -1.505112
C 1.1103895 -1.5652026 0.827618
C -0.20198111 -2.1668813 0.36403072
H -2.0801697 1.0481114 0.05331308
H -2.5185685 -0.5067223 0.8169536
H -2.3168647 0.9603081 1.8133415
H 0.8554168 -0.70449674 -1.73712
H -0.70519966 0.12121133 -1.6422268
H 1.8846991 1.2559241 -0.37755698
H 2.0049076 -1.7553636 0.24474078
H 1.2689227 -1.4850914 1.8964039
H -0.89448017 -2.4877481 1.1338314
H -0.21203668 -2.7701862 -0.53723305
