21
title
C -0.52136886 3.0820909 0.73098004
C 0.10717783 1.7463452 0.3264498
C -0.9332384 0.6196683 0.21887943
C -0.36889794 -0.7374396 -0.1677734
C 0.6177019 -1.3854073 0.7960011
O 1.9178369 -0.83906215 0.66098833
C -1.1683711 -1.6191851 -1.0566742
N 0.048734643 -0.9608411 -1.5716162
H 0.23194233 3.8734193 0.79267955
H -1.2815915 3.4018786 0.008797925
H -1.0084978 3.0106385 1.7101469
H 0.6175893 1.857932 -0.6392474
H 0.8857052 1.4598008 1.0392507
H -1.459241 0.52118695 1.1789052
H -1.6993943 0.9059591 -0.5154289
H 0.3108035 -1.2148896 1.8334051
H 0.63162494 -2.4725904 0.62608093
H 2.1108353 -0.88564795 -0.28447688
H -1.0981728 -2.699678 -0.96378475
H -2.1345909 -1.2588242 -1.4004458
H -0.21137694 -0.15888767 -2.141046
