title
 OpenBabel02282109593D

 21 21  0  0  1  0  0  0  0  0999 V2000
   -1.6356    0.7779    1.7360 C   0  0  0  0  0  0  0  0  0  0  0  0
   -0.7537   -0.4237    1.3708 C   0  0  0  0  0  0  0  0  0  0  0  0
   -0.4513   -0.5436   -0.1135 C   0  0  1  0  0  0  0  0  0  0  0  0
    0.3840    0.5648   -0.7182 C   0  0  0  0  0  0  0  0  0  0  0  0
    1.6271    0.6101   -0.0472 O   0  0  0  0  0  0  0  0  0  0  0  0
    2.4651    1.6371   -0.5178 C   0  0  0  0  0  0  0  0  0  0  0  0
   -0.3618   -1.8961   -0.7176 C   0  0  0  0  0  0  0  0  0  0  0  0
   -1.5068   -1.0168   -1.0301 N   0  0  0  0  0  0  0  0  0  0  0  0
   -1.1396    1.7262    1.5083 H   0  0  0  0  0  0  0  0  0  0  0  0
   -2.5854    0.7601    1.1903 H   0  0  0  0  0  0  0  0  0  0  0  0
   -1.8649    0.7768    2.8059 H   0  0  0  0  0  0  0  0  0  0  0  0
    0.1964   -0.3590    1.9120 H   0  0  0  0  0  0  0  0  0  0  0  0
   -1.2429   -1.3484    1.7024 H   0  0  0  0  0  0  0  0  0  0  0  0
    0.5191    0.3734   -1.7939 H   0  0  0  0  0  0  0  0  0  0  0  0
   -0.1359    1.5336   -0.6266 H   0  0  0  0  0  0  0  0  0  0  0  0
    3.3905    1.5985    0.0624 H   0  0  0  0  0  0  0  0  0  0  0  0
    2.7089    1.5096   -1.5846 H   0  0  0  0  0  0  0  0  0  0  0  0
    2.0063    2.6309   -0.3905 H   0  0  0  0  0  0  0  0  0  0  0  0
    0.3135   -2.0789   -1.5491 H   0  0  0  0  0  0  0  0  0  0  0  0
   -0.5257   -2.7547   -0.0716 H   0  0  0  0  0  0  0  0  0  0  0  0
   -2.3190   -1.3100   -0.4913 H   0  0  0  0  0  0  0  0  0  0  0  0
  1 11  1  0  0  0  0
  2 13  1  0  0  0  0
  2  1  1  0  0  0  0
  2 12  1  0  0  0  0
  3  4  1  6  0  0  0
  3  2  1  0  0  0  0
  4 15  1  0  0  0  0
  4  5  1  0  0  0  0
  6 18  1  0  0  0  0
  6  5  1  0  0  0  0
  6 16  1  0  0  0  0
  7  3  1  0  0  0  0
  7 20  1  0  0  0  0
  8  7  1  0  0  0  0
  8 21  1  0  0  0  0
  8  3  1  0  0  0  0
  9  1  1  0  0  0  0
 10  1  1  0  0  0  0
 14  4  1  0  0  0  0
 17  6  1  0  0  0  0
 19  7  1  0  0  0  0
M  END
