title
 OpenBabel02282109593D

 22 22  0  0  1  0  0  0  0  0999 V2000
    0.8820    3.2898   -0.1398 C   0  0  0  0  0  0  0  0  0  0  0  0
    0.9254    1.7619   -0.2272 C   0  0  0  0  0  0  0  0  0  0  0  0
   -0.3637    1.1068    0.2909 C   0  0  0  0  0  0  0  0  0  0  0  0
   -0.4104   -0.4035    0.1129 C   0  0  1  0  0  0  0  0  0  0  0  0
    0.6057   -1.2023    0.9191 C   0  0  0  0  0  0  0  0  0  0  0  0
    0.5459   -2.7211    0.7388 C   0  0  0  0  0  0  0  0  0  0  0  0
   -1.6687   -1.0118   -0.3493 C   0  0  0  0  0  0  0  0  0  0  0  0
   -0.5773   -0.8202   -1.2550 O   0  0  0  0  0  0  0  0  0  0  0  0
    1.8075    3.7364   -0.5160 H   0  0  0  0  0  0  0  0  0  0  0  0
    0.0524    3.6968   -0.7287 H   0  0  0  0  0  0  0  0  0  0  0  0
    0.7473    3.6252    0.8949 H   0  0  0  0  0  0  0  0  0  0  0  0
    1.0794    1.4521   -1.2675 H   0  0  0  0  0  0  0  0  0  0  0  0
    1.7893    1.3938    0.3386 H   0  0  0  0  0  0  0  0  0  0  0  0
   -0.5015    1.3467    1.3543 H   0  0  0  0  0  0  0  0  0  0  0  0
   -1.2173    1.5428   -0.2413 H   0  0  0  0  0  0  0  0  0  0  0  0
    1.6057   -0.8509    0.6374 H   0  0  0  0  0  0  0  0  0  0  0  0
    0.4820   -0.9403    1.9780 H   0  0  0  0  0  0  0  0  0  0  0  0
   -0.3532   -3.1517    1.1904 H   0  0  0  0  0  0  0  0  0  0  0  0
    0.5534   -2.9799   -0.3235 H   0  0  0  0  0  0  0  0  0  0  0  0
    1.4093   -3.1962    1.2131 H   0  0  0  0  0  0  0  0  0  0  0  0
   -1.9034   -2.0488   -0.1193 H   0  0  0  0  0  0  0  0  0  0  0  0
   -2.5358   -0.3749   -0.5226 H   0  0  0  0  0  0  0  0  0  0  0  0
  1 11  1  0  0  0  0
  2  1  1  0  0  0  0
  2  3  1  0  0  0  0
  2 13  1  0  0  0  0
  3 14  1  0  0  0  0
  4  3  1  1  0  0  0
  4  5  1  0  0  0  0
  5 17  1  0  0  0  0
  6  5  1  0  0  0  0
  6 18  1  0  0  0  0
  6 20  1  0  0  0  0
  7 21  1  0  0  0  0
  7  4  1  0  0  0  0
  8  7  1  0  0  0  0
  8  4  1  0  0  0  0
  9  1  1  0  0  0  0
 10  1  1  0  0  0  0
 12  2  1  0  0  0  0
 15  3  1  0  0  0  0
 16  5  1  0  0  0  0
 19  6  1  0  0  0  0
 22  7  1  0  0  0  0
M  END
