title
 OpenBabel02282109593D

 20 20  0  0  1  0  0  0  0  0999 V2000
   -0.2354    3.2851    0.9573 C   0  0  0  0  0  0  0  0  0  0  0  0
   -0.1731    1.7558    0.9726 C   0  0  0  0  0  0  0  0  0  0  0  0
   -0.0640    1.1590   -0.4394 C   0  0  0  0  0  0  0  0  0  0  0  0
    0.0807   -0.3505   -0.4626 C   0  0  1  0  0  0  0  0  0  0  0  0
   -1.1472   -1.1725   -0.0817 C   0  0  0  0  0  0  0  0  0  0  0  0
   -0.8416   -2.5405    0.0680 O   0  0  0  0  0  0  0  0  0  0  0  0
    1.1112   -0.9899   -1.2903 C   0  0  0  0  0  0  0  0  0  0  0  0
    1.2913   -0.8624    0.1325 O   0  0  0  0  0  0  0  0  0  0  0  0
    0.6576    3.7134    0.4887 H   0  0  0  0  0  0  0  0  0  0  0  0
   -1.1061    3.6424    0.3959 H   0  0  0  0  0  0  0  0  0  0  0  0
   -0.3051    3.6895    1.9717 H   0  0  0  0  0  0  0  0  0  0  0  0
    0.6915    1.4216    1.5572 H   0  0  0  0  0  0  0  0  0  0  0  0
   -1.0615    1.3627    1.4807 H   0  0  0  0  0  0  0  0  0  0  0  0
   -0.9459    1.4376   -1.0329 H   0  0  0  0  0  0  0  0  0  0  0  0
    0.8018    1.6024   -0.9448 H   0  0  0  0  0  0  0  0  0  0  0  0
   -1.5887   -0.7601    0.8397 H   0  0  0  0  0  0  0  0  0  0  0  0
   -1.9036   -1.0877   -0.8707 H   0  0  0  0  0  0  0  0  0  0  0  0
   -0.0130   -2.5636    0.5663 H   0  0  0  0  0  0  0  0  0  0  0  0
    0.9598   -2.0080   -1.6401 H   0  0  0  0  0  0  0  0  0  0  0  0
    1.7744   -0.3717   -1.8926 H   0  0  0  0  0  0  0  0  0  0  0  0
  1  2  1  0  0  0  0
  1 11  1  0  0  0  0
  2 13  1  0  0  0  0
  2 12  1  0  0  0  0
  3  2  1  0  0  0  0
  4  3  1  6  0  0  0
  4  5  1  0  0  0  0
  4  8  1  0  0  0  0
  5  6  1  0  0  0  0
  5 16  1  0  0  0  0
  6 18  1  0  0  0  0
  7  4  1  0  0  0  0
  7  8  1  0  0  0  0
  9  1  1  0  0  0  0
 10  1  1  0  0  0  0
 14  3  1  0  0  0  0
 15  3  1  0  0  0  0
 17  5  1  0  0  0  0
 19  7  1  0  0  0  0
 20  7  1  0  0  0  0
M  END
