title
 OpenBabel02282109593D

 22 22  0  0  0  0  0  0  0  0999 V2000
    1.2258    2.9970    0.2452 C   0  0  0  0  0  0  0  0  0  0  0  0
    1.1706    1.4684    0.1955 C   0  0  0  0  0  0  0  0  0  0  0  0
   -0.1680    0.9332   -0.3299 C   0  0  0  0  0  0  0  0  0  0  0  0
   -0.2386   -0.5830   -0.3404 C   0  0  0  0  0  0  0  0  0  0  0  0
   -1.1431   -1.2985   -1.3148 C   0  0  0  0  0  0  0  0  0  0  0  0
    0.3644   -1.3475   -1.4800 C   0  0  0  0  0  0  0  0  0  0  0  0
   -0.0475   -1.2016    0.9074 O   0  0  0  0  0  0  0  0  0  0  0  0
   -1.1306   -1.0614    1.8054 C   0  0  0  0  0  0  0  0  0  0  0  0
    1.0820    3.4341   -0.7496 H   0  0  0  0  0  0  0  0  0  0  0  0
    0.4435    3.4021    0.8973 H   0  0  0  0  0  0  0  0  0  0  0  0
    2.1896    3.3493    0.6260 H   0  0  0  0  0  0  0  0  0  0  0  0
    1.9803    1.0874   -0.4392 H   0  0  0  0  0  0  0  0  0  0  0  0
    1.3499    1.0531    1.1935 H   0  0  0  0  0  0  0  0  0  0  0  0
   -0.9894    1.3407    0.2754 H   0  0  0  0  0  0  0  0  0  0  0  0
   -0.3414    1.2970   -1.3503 H   0  0  0  0  0  0  0  0  0  0  0  0
   -1.6278   -2.2043   -0.9678 H   0  0  0  0  0  0  0  0  0  0  0  0
   -1.7266   -0.7116   -2.0162 H   0  0  0  0  0  0  0  0  0  0  0  0
    0.8174   -0.7907   -2.2933 H   0  0  0  0  0  0  0  0  0  0  0  0
    0.8593   -2.2788   -1.2310 H   0  0  0  0  0  0  0  0  0  0  0  0
   -1.2716   -0.0223    2.1348 H   0  0  0  0  0  0  0  0  0  0  0  0
   -2.0729   -1.4149    1.3631 H   0  0  0  0  0  0  0  0  0  0  0  0
   -0.8969   -1.6729    2.6804 H   0  0  0  0  0  0  0  0  0  0  0  0
  1 11  1  0  0  0  0
  1 10  1  0  0  0  0
  2  1  1  0  0  0  0
  2 13  1  0  0  0  0
  3  2  1  0  0  0  0
  3 14  1  0  0  0  0
  4  3  1  0  0  0  0
  4  7  1  0  0  0  0
  5 16  1  0  0  0  0
  5  4  1  0  0  0  0
  6  5  1  0  0  0  0
  6 19  1  0  0  0  0
  6  4  1  0  0  0  0
  7  8  1  0  0  0  0
  8 20  1  0  0  0  0
  8 22  1  0  0  0  0
  9  1  1  0  0  0  0
 12  2  1  0  0  0  0
 15  3  1  0  0  0  0
 17  5  1  0  0  0  0
 18  6  1  0  0  0  0
 21  8  1  0  0  0  0
M  END
