title
 OpenBabel02282109593D

 21 21  0  0  1  0  0  0  0  0999 V2000
   -0.5214    3.0821    0.7310 C   0  0  0  0  0  0  0  0  0  0  0  0
    0.1072    1.7463    0.3264 C   0  0  0  0  0  0  0  0  0  0  0  0
   -0.9332    0.6197    0.2189 C   0  0  0  0  0  0  0  0  0  0  0  0
   -0.3689   -0.7374   -0.1678 C   0  0  1  0  0  0  0  0  0  0  0  0
    0.6177   -1.3854    0.7960 C   0  0  0  0  0  0  0  0  0  0  0  0
    1.9178   -0.8391    0.6610 O   0  0  0  0  0  0  0  0  0  0  0  0
   -1.1684   -1.6192   -1.0567 C   0  0  0  0  0  0  0  0  0  0  0  0
    0.0487   -0.9608   -1.5716 N   0  0  0  0  0  0  0  0  0  0  0  0
    0.2319    3.8734    0.7927 H   0  0  0  0  0  0  0  0  0  0  0  0
   -1.2816    3.4019    0.0088 H   0  0  0  0  0  0  0  0  0  0  0  0
   -1.0085    3.0106    1.7101 H   0  0  0  0  0  0  0  0  0  0  0  0
    0.6176    1.8579   -0.6392 H   0  0  0  0  0  0  0  0  0  0  0  0
    0.8857    1.4598    1.0393 H   0  0  0  0  0  0  0  0  0  0  0  0
   -1.4592    0.5212    1.1789 H   0  0  0  0  0  0  0  0  0  0  0  0
   -1.6994    0.9060   -0.5154 H   0  0  0  0  0  0  0  0  0  0  0  0
    0.3108   -1.2149    1.8334 H   0  0  0  0  0  0  0  0  0  0  0  0
    0.6316   -2.4726    0.6261 H   0  0  0  0  0  0  0  0  0  0  0  0
    2.1108   -0.8856   -0.2845 H   0  0  0  0  0  0  0  0  0  0  0  0
   -1.0982   -2.6997   -0.9638 H   0  0  0  0  0  0  0  0  0  0  0  0
   -2.1346   -1.2588   -1.4004 H   0  0  0  0  0  0  0  0  0  0  0  0
   -0.2114   -0.1589   -2.1410 H   0  0  0  0  0  0  0  0  0  0  0  0
  1  9  1  0  0  0  0
  1 11  1  0  0  0  0
  2  1  1  0  0  0  0
  2 13  1  0  0  0  0
  3  2  1  0  0  0  0
  3 14  1  0  0  0  0
  4  3  1  1  0  0  0
  4  5  1  0  0  0  0
  5 16  1  0  0  0  0
  6  5  1  0  0  0  0
  7 19  1  0  0  0  0
  7  4  1  0  0  0  0
  8  7  1  0  0  0  0
  8  4  1  0  0  0  0
 10  1  1  0  0  0  0
 12  2  1  0  0  0  0
 15  3  1  0  0  0  0
 17  5  1  0  0  0  0
 18  6  1  0  0  0  0
 20  7  1  0  0  0  0
 21  8  1  0  0  0  0
M  END
