22
title
C 1.2258189 2.996968 0.24519424
C 1.1705594 1.4683582 0.19552098
C -0.16799311 0.93323773 -0.32991537
C -0.23862545 -0.58301514 -0.3403947
C -1.1431028 -1.2985433 -1.3148477
C 0.364435 -1.3475045 -1.4799929
O -0.047505952 -1.2016276 0.9074477
C -1.1306456 -1.0613669 1.8053715
H 1.0819848 3.4340959 -0.74960536
H 0.44348946 3.4020984 0.8972553
H 2.1896143 3.3492763 0.62602407
H 1.980341 1.0873803 -0.43921778
H 1.3498893 1.0531368 1.1934733
H -0.9893502 1.3406848 0.27540407
H -0.34142283 1.2969648 -1.350276
H -1.6278024 -2.2042925 -0.967848
H -1.726634 -0.7116019 -2.0162015
H 0.81744075 -0.79074305 -2.293292
H 0.85932696 -2.2788482 -1.231041
H -1.2715931 -0.022283964 2.134763
H -2.0729144 -1.4148618 1.3630869
H -0.8969258 -1.6729046 2.6804097
