title
 OpenBabel02282109593D

 20 20  0  0  0  0  0  0  0  0999 V2000
   -1.3221    2.7727   -0.1845 C   0  0  0  0  0  0  0  0  0  0  0  0
   -0.9918    1.4444   -0.5107 O   0  0  0  0  0  0  0  0  0  0  0  0
   -0.2135    0.8101    0.4789 C   0  0  0  0  0  0  0  0  0  0  0  0
    0.0871   -0.6160    0.0521 C   0  0  0  0  0  0  0  0  0  0  0  0
   -0.9559   -1.4093   -0.6689 C   0  0  0  0  0  0  0  0  0  0  0  0
    0.2941   -0.9544   -1.4007 C   0  0  0  0  0  0  0  0  0  0  0  0
    0.8146   -1.3313    1.0129 O   0  0  0  0  0  0  0  0  0  0  0  0
    2.1989   -1.0385    1.0592 C   0  0  0  0  0  0  0  0  0  0  0  0
   -1.9116    2.8304    0.7438 H   0  0  0  0  0  0  0  0  0  0  0  0
   -0.4236    3.3975   -0.0588 H   0  0  0  0  0  0  0  0  0  0  0  0
   -1.9185    3.1731   -1.0079 H   0  0  0  0  0  0  0  0  0  0  0  0
    0.7241    1.3702    0.6382 H   0  0  0  0  0  0  0  0  0  0  0  0
   -0.7472    0.7876    1.4443 H   0  0  0  0  0  0  0  0  0  0  0  0
   -1.0279   -2.4581   -0.4054 H   0  0  0  0  0  0  0  0  0  0  0  0
   -1.8898   -0.9151   -0.9070 H   0  0  0  0  0  0  0  0  0  0  0  0
    0.1943   -0.1563   -2.1264 H   0  0  0  0  0  0  0  0  0  0  0  0
    1.0368   -1.7092   -1.6343 H   0  0  0  0  0  0  0  0  0  0  0  0
    2.6745   -1.1670    0.0772 H   0  0  0  0  0  0  0  0  0  0  0  0
    2.4027   -0.0176    1.4112 H   0  0  0  0  0  0  0  0  0  0  0  0
    2.6449   -1.7427    1.7658 H   0  0  0  0  0  0  0  0  0  0  0  0
  1 10  1  0  0  0  0
  1  9  1  0  0  0  0
  2  1  1  0  0  0  0
  2  3  1  0  0  0  0
  3 12  1  0  0  0  0
  3 13  1  0  0  0  0
  4  3  1  0  0  0  0
  4  7  1  0  0  0  0
  5 14  1  0  0  0  0
  5  4  1  0  0  0  0
  6  5  1  0  0  0  0
  6  4  1  0  0  0  0
  7  8  1  0  0  0  0
  8 19  1  0  0  0  0
  8 20  1  0  0  0  0
 11  1  1  0  0  0  0
 15  5  1  0  0  0  0
 16  6  1  0  0  0  0
 17  6  1  0  0  0  0
 18  8  1  0  0  0  0
M  END
