title
 OpenBabel02282109593D

 20 20  0  0  0  0  0  0  0  0999 V2000
   -1.2611    2.2065   -1.7020 O   0  0  0  0  0  0  0  0  0  0  0  0
   -0.9019    0.8701   -1.3788 C   0  0  0  0  0  0  0  0  0  0  0  0
   -0.3110    0.8821    0.0282 C   0  0  0  0  0  0  0  0  0  0  0  0
    0.0196   -0.4967    0.5767 C   0  0  0  0  0  0  0  0  0  0  0  0
    1.1205   -1.2481   -0.1391 C   0  0  0  0  0  0  0  0  0  0  0  0
    2.3133   -0.4770   -0.0663 O   0  0  0  0  0  0  0  0  0  0  0  0
   -0.0758   -0.7024    2.0690 C   0  0  0  0  0  0  0  0  0  0  0  0
   -1.1005   -1.3306    1.1570 C   0  0  0  0  0  0  0  0  0  0  0  0
   -1.5978    2.2173   -2.6024 H   0  0  0  0  0  0  0  0  0  0  0  0
   -1.7787    0.2027   -1.4090 H   0  0  0  0  0  0  0  0  0  0  0  0
   -0.1666    0.4772   -2.0984 H   0  0  0  0  0  0  0  0  0  0  0  0
    0.5922    1.5005    0.0262 H   0  0  0  0  0  0  0  0  0  0  0  0
   -1.0350    1.3739    0.6877 H   0  0  0  0  0  0  0  0  0  0  0  0
    1.2550   -2.2336    0.3354 H   0  0  0  0  0  0  0  0  0  0  0  0
    0.8376   -1.4315   -1.1882 H   0  0  0  0  0  0  0  0  0  0  0  0
    2.9750   -0.8933   -0.6261 H   0  0  0  0  0  0  0  0  0  0  0  0
    0.6553   -1.3501    2.5407 H   0  0  0  0  0  0  0  0  0  0  0  0
   -0.3818    0.1405    2.6791 H   0  0  0  0  0  0  0  0  0  0  0  0
   -2.1002   -0.9095    1.1438 H   0  0  0  0  0  0  0  0  0  0  0  0
   -1.0731   -2.4068    1.0185 H   0  0  0  0  0  0  0  0  0  0  0  0
  1  2  1  0  0  0  0
  2  3  1  0  0  0  0
  3  4  1  0  0  0  0
  3 13  1  0  0  0  0
  4  8  1  0  0  0  0
  4  7  1  0  0  0  0
  5  6  1  0  0  0  0
  5 14  1  0  0  0  0
  5  4  1  0  0  0  0
  7 17  1  0  0  0  0
  7 18  1  0  0  0  0
  8  7  1  0  0  0  0
  9  1  1  0  0  0  0
 10  2  1  0  0  0  0
 11  2  1  0  0  0  0
 12  3  1  0  0  0  0
 15  5  1  0  0  0  0
 16  6  1  0  0  0  0
 19  8  1  0  0  0  0
 20  8  1  0  0  0  0
M  END
