title
 OpenBabel02282109593D

 20 20  0  0  0  0  0  0  0  0999 V2000
   -0.9291    2.5275    1.3890 C   0  0  0  0  0  0  0  0  0  0  0  0
   -0.7099    1.0300    1.2559 C   0  0  0  0  0  0  0  0  0  0  0  0
    0.0760    0.8030    0.0882 O   0  0  0  0  0  0  0  0  0  0  0  0
    0.4560   -0.5343   -0.1331 C   0  0  0  0  0  0  0  0  0  0  0  0
   -0.6696   -1.3780   -0.6910 C   0  0  0  0  0  0  0  0  0  0  0  0
   -1.2105   -0.7959   -1.8626 O   0  0  0  0  0  0  0  0  0  0  0  0
    1.8472   -0.6990   -0.6604 C   0  0  0  0  0  0  0  0  0  0  0  0
    1.5137   -1.1361    0.7536 C   0  0  0  0  0  0  0  0  0  0  0  0
   -1.4522    2.9211    0.5127 H   0  0  0  0  0  0  0  0  0  0  0  0
   -1.5300    2.7457    2.2768 H   0  0  0  0  0  0  0  0  0  0  0  0
    0.0276    3.0498    1.4783 H   0  0  0  0  0  0  0  0  0  0  0  0
   -0.1889    0.6310    2.1379 H   0  0  0  0  0  0  0  0  0  0  0  0
   -1.6749    0.5075    1.1831 H   0  0  0  0  0  0  0  0  0  0  0  0
   -0.2945   -2.3719   -0.9566 H   0  0  0  0  0  0  0  0  0  0  0  0
   -1.4504   -1.5210    0.0749 H   0  0  0  0  0  0  0  0  0  0  0  0
   -1.2143    0.1559   -1.7035 H   0  0  0  0  0  0  0  0  0  0  0  0
    2.0224   -1.4565   -1.4160 H   0  0  0  0  0  0  0  0  0  0  0  0
    2.4327    0.2060   -0.7717 H   0  0  0  0  0  0  0  0  0  0  0  0
    1.8931   -0.5219    1.5626 H   0  0  0  0  0  0  0  0  0  0  0  0
    1.4643   -2.1966    0.9774 H   0  0  0  0  0  0  0  0  0  0  0  0
  1 11  1  0  0  0  0
  1 10  1  0  0  0  0
  2  1  1  0  0  0  0
  2 12  1  0  0  0  0
  3  2  1  0  0  0  0
  4  3  1  0  0  0  0
  4  8  1  0  0  0  0
  5  4  1  0  0  0  0
  5 15  1  0  0  0  0
  6 16  1  0  0  0  0
  6  5  1  0  0  0  0
  7  4  1  0  0  0  0
  7  8  1  0  0  0  0
  8 20  1  0  0  0  0
  8 19  1  0  0  0  0
  9  1  1  0  0  0  0
 13  2  1  0  0  0  0
 14  5  1  0  0  0  0
 17  7  1  0  0  0  0
 18  7  1  0  0  0  0
M  END
