20
title
C -0.3415761 3.0893548 -0.84033203
C -0.17522728 1.5697393 -0.9193762
C 0.09390855 0.9289043 0.4473328
C 0.25478882 -0.58850086 0.39357537
C 1.6206812 -1.1521574 0.02312385
C 1.1345289 -1.2584103 1.4395905
C -0.90448886 -1.3185652 -0.050144624
C -1.8849068 -1.9129161 -0.41647145
H 0.5577078 3.5689185 -0.43704683
H -0.5327136 3.520332 -1.828
H -1.1800197 3.3635364 -0.19025142
H -1.0755732 1.1185528 -1.3521892
H 0.64847606 1.3218893 -1.6010227
H 1.0069485 1.3571591 0.88081723
H -0.7233256 1.1770715 1.1367995
H 1.6481239 -2.051915 -0.5794687
H 2.4001842 -0.43187332 -0.20178683
H 1.5810708 -0.6142503 2.1895626
H 0.82553667 -2.2311378 1.802944
H -2.745971 -2.4418454 -0.7414171
