20
title
C -0.20256183 0.26068047 -2.3759682
O -0.95456797 0.07715192 -1.1915991
C -0.29313794 -0.65024424 -0.1863982
C 0.8297049 0.08851042 0.51496047
C 0.35731664 1.3780222 1.1789985
O 1.4878067 1.9891272 1.785367
C -1.2074995 -1.5401425 0.6024304
C -0.21767935 -2.1459403 -0.3741009
H 0.14283326 -0.6974825 -2.7889628
H -0.86556643 0.7418194 -3.0991764
H 0.6725935 0.9069738 -2.2211087
H 1.2731203 -0.5628745 1.2756202
H 1.6346523 0.33179706 -0.18884616
H -0.10060838 2.0332017 0.4239727
H -0.4206846 1.1451913 1.9232438
H 1.2031344 2.8185925 2.179414
H -1.0260384 -1.6553731 1.6655297
H -2.251604 -1.5399743 0.3124797
H -0.6228239 -2.5483868 -1.2957661
H 0.64181685 -2.6801589 0.016263084
