19
title
O -0.41316783 2.9811268 0.53699744
C 0.16432643 1.704378 0.30261582
C -0.90680075 0.6055939 0.22186372
C -0.38336766 -0.76969165 -0.15602708
C 0.5931929 -1.4335886 0.8034806
O 1.8883648 -0.8660764 0.7061858
C -1.2142537 -1.637159 -1.0303683
N 0.0138512915 -1.015067 -1.5626339
H -0.7521634 2.9894872 1.4375236
H 0.6843823 1.7877866 -0.6580737
H 0.9241322 1.4522105 1.0516199
H -1.4220262 0.53825647 1.1910589
H -1.6616268 0.92518294 -0.50720567
H 0.26951075 -1.2976276 1.8410162
H 0.62308055 -2.5141861 0.60069805
H 2.1213362 -0.92454046 -0.22923796
H -1.171094 -2.7181923 -0.92848355
H -2.1744018 -1.2537566 -1.3654432
H -0.23243916 -0.21299785 -2.1380484
