title
 OpenBabel02282109593D

 19 19  0  0  1  0  0  0  0  0999 V2000
   -0.4132    2.9811    0.5370 O   0  0  0  0  0  0  0  0  0  0  0  0
    0.1643    1.7044    0.3026 C   0  0  0  0  0  0  0  0  0  0  0  0
   -0.9068    0.6056    0.2219 C   0  0  0  0  0  0  0  0  0  0  0  0
   -0.3834   -0.7697   -0.1560 C   0  0  1  0  0  0  0  0  0  0  0  0
    0.5932   -1.4336    0.8035 C   0  0  0  0  0  0  0  0  0  0  0  0
    1.8884   -0.8661    0.7062 O   0  0  0  0  0  0  0  0  0  0  0  0
   -1.2143   -1.6372   -1.0304 C   0  0  0  0  0  0  0  0  0  0  0  0
    0.0139   -1.0151   -1.5626 N   0  0  0  0  0  0  0  0  0  0  0  0
   -0.7522    2.9895    1.4375 H   0  0  0  0  0  0  0  0  0  0  0  0
    0.6844    1.7878   -0.6581 H   0  0  0  0  0  0  0  0  0  0  0  0
    0.9241    1.4522    1.0516 H   0  0  0  0  0  0  0  0  0  0  0  0
   -1.4220    0.5383    1.1911 H   0  0  0  0  0  0  0  0  0  0  0  0
   -1.6616    0.9252   -0.5072 H   0  0  0  0  0  0  0  0  0  0  0  0
    0.2695   -1.2976    1.8410 H   0  0  0  0  0  0  0  0  0  0  0  0
    0.6231   -2.5142    0.6007 H   0  0  0  0  0  0  0  0  0  0  0  0
    2.1213   -0.9245   -0.2292 H   0  0  0  0  0  0  0  0  0  0  0  0
   -1.1711   -2.7182   -0.9285 H   0  0  0  0  0  0  0  0  0  0  0  0
   -2.1744   -1.2538   -1.3654 H   0  0  0  0  0  0  0  0  0  0  0  0
   -0.2324   -0.2130   -2.1380 H   0  0  0  0  0  0  0  0  0  0  0  0
  1  9  1  0  0  0  0
  2  1  1  0  0  0  0
  2 11  1  0  0  0  0
  3  2  1  0  0  0  0
  3 12  1  0  0  0  0
  4  3  1  1  0  0  0
  4  5  1  0  0  0  0
  5 14  1  0  0  0  0
  6  5  1  0  0  0  0
  7 17  1  0  0  0  0
  7  4  1  0  0  0  0
  8  7  1  0  0  0  0
  8  4  1  0  0  0  0
 10  2  1  0  0  0  0
 13  3  1  0  0  0  0
 15  5  1  0  0  0  0
 16  6  1  0  0  0  0
 18  7  1  0  0  0  0
 19  8  1  0  0  0  0
M  END
