20
title
O -1.2610844 2.206479 -1.7020007
C -0.90188855 0.8700551 -1.3788407
C -0.31095272 0.8821136 0.028215189
C 0.019635739 -0.49674416 0.5766899
C 1.1204773 -1.2480948 -0.13913156
O 2.3133378 -0.47702765 -0.06633658
C -0.075835645 -0.70240426 2.0690155
C -1.1004843 -1.3305941 1.156969
H -1.5978128 2.2173004 -2.6024477
H -1.778699 0.20273888 -1.409008
H -0.16663688 0.47717142 -2.0984464
H 0.59222955 1.5004508 0.026162941
H -1.0349718 1.3739266 0.6876786
H 1.2549669 -2.2335787 0.33537468
H 0.837581 -1.4315019 -1.1881503
H 2.9750452 -0.89333487 -0.62614244
H 0.6553169 -1.3500986 2.54073
H -0.3818124 0.14045739 2.6790624
H -2.1002455 -0.90945697 1.1438115
H -1.0730995 -2.4067643 1.0184944
