title
 OpenBabel02282109593D

 19 19  0  0  1  0  0  0  0  0999 V2000
   -0.6636    3.0686   -0.6803 C   0  0  0  0  0  0  0  0  0  0  0  0
   -0.7499    1.5425   -0.6041 C   0  0  0  0  0  0  0  0  0  0  0  0
    0.3074    0.9350    0.3272 C   0  0  0  0  0  0  0  0  0  0  0  0
    0.2436   -0.5855    0.4127 C   0  0  1  0  0  0  0  0  0  0  0  0
    0.5936   -1.2482    1.7062 C   0  0  0  0  0  0  0  0  0  0  0  0
   -0.8045   -1.2102    1.2624 N   0  0  0  0  0  0  0  0  0  0  0  0
    0.5201   -1.2821   -0.8223 C   0  0  0  0  0  0  0  0  0  0  0  0
    0.7832   -1.8314   -1.8590 C   0  0  0  0  0  0  0  0  0  0  0  0
    0.3145    3.3922   -1.0534 H   0  0  0  0  0  0  0  0  0  0  0  0
   -1.4263    3.4757   -1.3510 H   0  0  0  0  0  0  0  0  0  0  0  0
   -0.8085    3.5269    0.3046 H   0  0  0  0  0  0  0  0  0  0  0  0
   -1.7490    1.2442   -0.2617 H   0  0  0  0  0  0  0  0  0  0  0  0
   -0.6303    1.1109   -1.6042 H   0  0  0  0  0  0  0  0  0  0  0  0
    1.3082    1.2292   -0.0135 H   0  0  0  0  0  0  0  0  0  0  0  0
    0.1905    1.3429    1.3403 H   0  0  0  0  0  0  0  0  0  0  0  0
    1.0480   -2.2339    1.6948 H   0  0  0  0  0  0  0  0  0  0  0  0
    0.9096   -0.6049    2.5240 H   0  0  0  0  0  0  0  0  0  0  0  0
   -1.3046   -0.4736    1.7565 H   0  0  0  0  0  0  0  0  0  0  0  0
    1.0031   -2.3302   -2.7702 H   0  0  0  0  0  0  0  0  0  0  0  0
  1  2  1  0  0  0  0
  1 11  1  0  0  0  0
  2 12  1  0  0  0  0
  2  3  1  0  0  0  0
  3  4  1  0  0  0  0
  3 15  1  0  0  0  0
  4  7  1  6  0  0  0
  4  6  1  0  0  0  0
  4  5  1  0  0  0  0
  5 17  1  0  0  0  0
  6  5  1  0  0  0  0
  6 18  1  0  0  0  0
  8  7  3  0  0  0  0
  9  1  1  0  0  0  0
 10  1  1  0  0  0  0
 13  2  1  0  0  0  0
 14  3  1  0  0  0  0
 16  5  1  0  0  0  0
 19  8  1  0  0  0  0
M  END
