title
 OpenBabel02282109593D

 17 17  0  0  0  0  0  0  0  0999 V2000
    0.8163    2.9301    0.1311 C   0  0  0  0  0  0  0  0  0  0  0  0
    0.8835    1.4305    0.3525 C   0  0  0  0  0  0  0  0  0  0  0  0
   -0.3403    0.8619   -0.1243 O   0  0  0  0  0  0  0  0  0  0  0  0
   -0.4345   -0.5139    0.0298 C   0  0  0  0  0  0  0  0  0  0  0  0
   -0.8481   -1.0725    1.3834 C   0  0  0  0  0  0  0  0  0  0  0  0
   -1.8270   -1.0510    0.2403 C   0  0  0  0  0  0  0  0  0  0  0  0
    0.4912   -1.2906   -0.7732 C   0  0  0  0  0  0  0  0  0  0  0  0
    1.2449   -1.8930   -1.4112 N   0  0  0  0  0  0  0  0  0  0  0  0
    1.7379    3.4032    0.4823 H   0  0  0  0  0  0  0  0  0  0  0  0
    0.6931    3.1561   -0.9314 H   0  0  0  0  0  0  0  0  0  0  0  0
   -0.0267    3.3646    0.6758 H   0  0  0  0  0  0  0  0  0  0  0  0
    1.7317    0.9910   -0.1906 H   0  0  0  0  0  0  0  0  0  0  0  0
    1.0103    1.1915    1.4185 H   0  0  0  0  0  0  0  0  0  0  0  0
   -0.4318   -2.0216    1.6994 H   0  0  0  0  0  0  0  0  0  0  0  0
   -0.9733   -0.3339    2.1665 H   0  0  0  0  0  0  0  0  0  0  0  0
   -2.6040   -0.2960    0.2521 H   0  0  0  0  0  0  0  0  0  0  0  0
   -2.0893   -1.9846   -0.2420 H   0  0  0  0  0  0  0  0  0  0  0  0
  1  2  1  0  0  0  0
  1  9  1  0  0  0  0
  1 11  1  0  0  0  0
  2 13  1  0  0  0  0
  3  4  1  0  0  0  0
  3  2  1  0  0  0  0
  4  6  1  0  0  0  0
  4  5  1  0  0  0  0
  5 14  1  0  0  0  0
  5 15  1  0  0  0  0
  6 16  1  0  0  0  0
  6  5  1  0  0  0  0
  7  4  1  0  0  0  0
  8  7  3  0  0  0  0
 10  1  1  0  0  0  0
 12  2  1  0  0  0  0
 17  6  1  0  0  0  0
M  END
