18
title
C 0.79597735 2.925418 0.13839881
C 0.8730311 1.423734 0.3497637
O -0.34216505 0.85148567 -0.12648982
C -0.42128414 -0.5361355 0.016931562
C -0.85136384 -1.0720049 1.3753589
C -1.8215857 -1.0554541 0.22264569
C 0.50792116 -1.3058201 -0.77432126
C 1.2948526 -1.9306146 -1.4358289
H 1.7140743 3.4051018 0.49063757
H 0.6679065 3.1572747 -0.9226342
H -0.050058667 3.3505425 0.6861913
H 1.7258657 0.9945115 -0.19440617
H 1.006638 1.1826739 1.4155568
H -0.44556028 -2.0211484 1.7045416
H -0.9859801 -0.32760566 2.1517887
H -2.5966046 -0.29802817 0.22767787
H -2.086587 -1.992515 -0.2515387
H 1.982411 -2.4858522 -2.0245745
