title
 OpenBabel02282109593D

 19 19  0  0  0  0  0  0  0  0999 V2000
   -0.6388    3.0805    0.7280 C   0  0  0  0  0  0  0  0  0  0  0  0
   -0.7472    1.5571    0.6249 C   0  0  0  0  0  0  0  0  0  0  0  0
    0.3080    0.9526   -0.3097 C   0  0  0  0  0  0  0  0  0  0  0  0
    0.2232   -0.5655   -0.4331 C   0  0  0  0  0  0  0  0  0  0  0  0
   -0.7665   -1.1764   -1.4161 C   0  0  0  0  0  0  0  0  0  0  0  0
    0.7024   -1.2387   -1.7110 C   0  0  0  0  0  0  0  0  0  0  0  0
    0.4448   -1.2899    0.7949 C   0  0  0  0  0  0  0  0  0  0  0  0
    0.6258   -1.8567    1.7876 N   0  0  0  0  0  0  0  0  0  0  0  0
    0.3405    3.3830    1.1147 H   0  0  0  0  0  0  0  0  0  0  0  0
   -0.7694    3.5568   -0.2503 H   0  0  0  0  0  0  0  0  0  0  0  0
   -1.4010    3.4862    1.3997 H   0  0  0  0  0  0  0  0  0  0  0  0
   -0.6428    1.1102    1.6207 H   0  0  0  0  0  0  0  0  0  0  0  0
   -1.7466    1.2786    0.2675 H   0  0  0  0  0  0  0  0  0  0  0  0
    0.2000    1.3780   -1.3152 H   0  0  0  0  0  0  0  0  0  0  0  0
    1.3116    1.2286    0.0376 H   0  0  0  0  0  0  0  0  0  0  0  0
   -1.2716   -2.0898   -1.1265 H   0  0  0  0  0  0  0  0  0  0  0  0
   -1.3784   -0.4762   -1.9741 H   0  0  0  0  0  0  0  0  0  0  0  0
    1.1083   -0.5836   -2.4738 H   0  0  0  0  0  0  0  0  0  0  0  0
    1.2033   -2.1949   -1.6195 H   0  0  0  0  0  0  0  0  0  0  0  0
  1  9  1  0  0  0  0
  1 11  1  0  0  0  0
  2  1  1  0  0  0  0
  2 12  1  0  0  0  0
  3 15  1  0  0  0  0
  3  2  1  0  0  0  0
  4  3  1  0  0  0  0
  4  7  1  0  0  0  0
  5 16  1  0  0  0  0
  5  4  1  0  0  0  0
  6 19  1  0  0  0  0
  6  5  1  0  0  0  0
  6  4  1  0  0  0  0
  7  8  3  0  0  0  0
 10  1  1  0  0  0  0
 13  2  1  0  0  0  0
 14  3  1  0  0  0  0
 17  5  1  0  0  0  0
 18  6  1  0  0  0  0
M  END
