18
title
C -0.6795283 3.0736942 -0.6426037
C -0.7465608 1.5466855 -0.56717336
C 0.37289646 0.9486823 0.29439327
C 0.30095515 -0.5655613 0.39354023
C 0.6053614 -1.2478905 1.6689854
O -0.74370426 -1.069144 1.2530761
C 0.48499814 -1.2969398 -0.84064156
C 0.6547753 -1.8763862 -1.8801341
H 0.26898906 3.4095576 -1.0767988
H -1.4884158 3.4750733 -1.2606066
H -0.7656163 3.5256984 0.351912
H -1.712098 1.2342784 -0.15260121
H -0.68938667 1.1210037 -1.5757244
H 1.3522171 1.2283283 -0.11443094
H 0.31791845 1.3559465 1.310502
H 0.9708105 -2.272977 1.6522875
H 0.9214385 -0.6474345 2.5215676
H 0.7971932 -2.3983014 -2.7940516
