18
title
C -0.3438625 3.0681028 0.921826
C -0.20159723 1.5446503 0.95566183
C 0.11413146 0.9529499 -0.42486057
C 0.2707919 -0.56126606 -0.4183478
C 1.2275147 -1.2169262 -1.3610464
N 1.52496 -1.1749829 0.073004104
C -0.9276413 -1.2909049 -0.046238445
N -1.9072477 -1.840515 0.22721575
H 0.57825446 3.547803 0.57470983
H -1.1508374 3.3757544 0.24786578
H -0.57116437 3.464521 1.9155561
H 0.5887619 1.2606088 1.6619107
H -1.1257008 1.09325 1.3350157
H -0.6777803 1.2260668 -1.1334974
H 1.0443163 1.3855791 -0.8157534
H 1.0061139 -2.204625 -1.7525119
H 1.7678379 -0.5608305 -2.0384607
H 2.1921067 -0.4340124 0.2779728
