title
 OpenBabel02282109593D

 15 15  0  0  1  0  0  0  0  0999 V2000
    0.7101    2.8885   -0.2239 C   0  0  0  0  0  0  0  0  0  0  0  0
    0.6809    1.4798   -0.2985 O   0  0  0  0  0  0  0  0  0  0  0  0
   -0.5685    0.9375    0.0319 C   0  0  0  0  0  0  0  0  0  0  0  0
   -0.4545   -0.5698    0.0007 C   0  0  1  0  0  0  0  0  0  0  0  0
   -1.6271   -1.4049   -0.3289 C   0  0  0  0  0  0  0  0  0  0  0  0
   -0.5874   -1.1967   -1.2770 O   0  0  0  0  0  0  0  0  0  0  0  0
    0.5758   -1.1356    0.8573 C   0  0  0  0  0  0  0  0  0  0  0  0
    1.3732   -1.5829    1.5633 N   0  0  0  0  0  0  0  0  0  0  0  0
    1.7223    3.2027   -0.4850 H   0  0  0  0  0  0  0  0  0  0  0  0
   -0.0005    3.3469   -0.9286 H   0  0  0  0  0  0  0  0  0  0  0  0
    0.4738    3.2452    0.7904 H   0  0  0  0  0  0  0  0  0  0  0  0
   -0.8888    1.2583    1.0381 H   0  0  0  0  0  0  0  0  0  0  0  0
   -1.3475    1.2398   -0.6864 H   0  0  0  0  0  0  0  0  0  0  0  0
   -1.6963   -2.4072    0.0875 H   0  0  0  0  0  0  0  0  0  0  0  0
   -2.5731   -0.9121   -0.5479 H   0  0  0  0  0  0  0  0  0  0  0  0
  1 11  1  0  0  0  0
  2  1  1  0  0  0  0
  2  3  1  0  0  0  0
  3 12  1  0  0  0  0
  4  3  1  0  0  0  0
  4  7  1  1  0  0  0
  5  4  1  0  0  0  0
  5 14  1  0  0  0  0
  6  5  1  0  0  0  0
  6  4  1  0  0  0  0
  7  8  3  0  0  0  0
  9  1  1  0  0  0  0
 10  1  1  0  0  0  0
 13  3  1  0  0  0  0
 15  5  1  0  0  0  0
M  END
