16
title
C -0.33301514 2.1006587 1.0878425
O 0.5925116 1.8392075 0.044740424
C 0.14931592 0.900255 -0.90540195
C 0.14128205 -0.5389685 -0.3686446
C 1.1181886 -1.523047 -0.9384314
N 1.3246074 -0.9781336 0.39816093
C -1.1282936 -1.0248423 0.13018684
N -2.164113 -1.3883598 0.49384195
H -1.3040041 2.4244654 0.68641025
H -0.49348316 1.223745 1.7279823
H 0.09178179 2.9062457 1.6902167
H -0.84952646 1.1573929 -1.2871038
H 0.8609181 0.96614224 -1.7337077
H 0.85499316 -2.5757797 -0.9673245
H 1.7333343 -1.1765556 -1.765033
H 1.9930959 -0.20912322 0.39284188
