title
 OpenBabel02282109593D

 17 17  0  0  1  0  0  0  0  0999 V2000
    0.6064    2.0664   -1.1274 O   0  0  0  0  0  0  0  0  0  0  0  0
    0.8320    1.7362    0.2416 C   0  0  0  0  0  0  0  0  0  0  0  0
   -0.3788    0.9477    0.7328 C   0  0  0  0  0  0  0  0  0  0  0  0
   -0.4394   -0.4712    0.1729 C   0  0  1  0  0  0  0  0  0  0  0  0
   -1.7452   -0.9763   -0.3575 C   0  0  0  0  0  0  0  0  0  0  0  0
   -0.6612   -0.6515   -1.2825 N   0  0  0  0  0  0  0  0  0  0  0  0
    0.4946   -1.3952    0.7733 C   0  0  0  0  0  0  0  0  0  0  0  0
    1.2755   -2.1344    1.3120 C   0  0  0  0  0  0  0  0  0  0  0  0
    1.4504    2.2744   -1.5373 H   0  0  0  0  0  0  0  0  0  0  0  0
    1.7418    1.1320    0.3624 H   0  0  0  0  0  0  0  0  0  0  0  0
    0.9514    2.6493    0.8442 H   0  0  0  0  0  0  0  0  0  0  0  0
   -0.3625    0.9043    1.8269 H   0  0  0  0  0  0  0  0  0  0  0  0
   -1.2817    1.4961    0.4400 H   0  0  0  0  0  0  0  0  0  0  0  0
   -1.9771   -2.0342   -0.2790 H   0  0  0  0  0  0  0  0  0  0  0  0
   -2.6021   -0.3113   -0.2766 H   0  0  0  0  0  0  0  0  0  0  0  0
   -0.7808    0.2709   -1.6940 H   0  0  0  0  0  0  0  0  0  0  0  0
    1.9608   -2.8028    1.7713 H   0  0  0  0  0  0  0  0  0  0  0  0
  1  2  1  0  0  0  0
  2 10  1  0  0  0  0
  2  3  1  0  0  0  0
  2 11  1  0  0  0  0
  3 12  1  0  0  0  0
  4  3  1  0  0  0  0
  4  7  1  1  0  0  0
  5 14  1  0  0  0  0
  5 15  1  0  0  0  0
  5  4  1  0  0  0  0
  6  5  1  0  0  0  0
  6  4  1  0  0  0  0
  7  8  3  0  0  0  0
  8 17  1  0  0  0  0
  9  1  1  0  0  0  0
 13  3  1  0  0  0  0
 16  6  1  0  0  0  0
M  END
