17
title
O 0.7525547 2.9412239 0.15094106
C 0.8804456 1.5375198 0.3049377
C -0.44276962 0.9158779 -0.13316466
C -0.47781536 -0.598384 0.0220381
C -0.84004843 -1.2003511 1.3747872
C -1.8161854 -1.2893401 0.2414511
C 0.49450064 -1.3194534 -0.7636621
N 1.2809746 -1.8846053 -1.3973602
H 1.6042401 3.3445778 0.34146085
H 1.6998019 1.1356134 -0.309721
H 1.0905241 1.264074 1.3517073
H -1.2502416 1.3495067 0.46653873
H -0.6351874 1.1916431 -1.1756095
H -0.324779 -2.102458 1.6813912
H -1.0361716 -0.4945307 2.1742973
H -2.6889176 -0.64625895 0.25412208
H -1.96725 -2.2523952 -0.23085555
