title
 OpenBabel02282109593D

 17 17  0  0  0  0  0  0  0  0999 V2000
    0.7526    2.9412    0.1509 O   0  0  0  0  0  0  0  0  0  0  0  0
    0.8804    1.5375    0.3049 C   0  0  0  0  0  0  0  0  0  0  0  0
   -0.4428    0.9159   -0.1332 C   0  0  0  0  0  0  0  0  0  0  0  0
   -0.4778   -0.5984    0.0220 C   0  0  0  0  0  0  0  0  0  0  0  0
   -0.8400   -1.2004    1.3748 C   0  0  0  0  0  0  0  0  0  0  0  0
   -1.8162   -1.2893    0.2415 C   0  0  0  0  0  0  0  0  0  0  0  0
    0.4945   -1.3195   -0.7637 C   0  0  0  0  0  0  0  0  0  0  0  0
    1.2810   -1.8846   -1.3974 N   0  0  0  0  0  0  0  0  0  0  0  0
    1.6042    3.3446    0.3415 H   0  0  0  0  0  0  0  0  0  0  0  0
    1.6998    1.1356   -0.3097 H   0  0  0  0  0  0  0  0  0  0  0  0
    1.0905    1.2641    1.3517 H   0  0  0  0  0  0  0  0  0  0  0  0
   -1.2502    1.3495    0.4665 H   0  0  0  0  0  0  0  0  0  0  0  0
   -0.6352    1.1916   -1.1756 H   0  0  0  0  0  0  0  0  0  0  0  0
   -0.3248   -2.1025    1.6814 H   0  0  0  0  0  0  0  0  0  0  0  0
   -1.0362   -0.4945    2.1743 H   0  0  0  0  0  0  0  0  0  0  0  0
   -2.6889   -0.6463    0.2541 H   0  0  0  0  0  0  0  0  0  0  0  0
   -1.9672   -2.2524   -0.2309 H   0  0  0  0  0  0  0  0  0  0  0  0
  1  2  1  0  0  0  0
  1  9  1  0  0  0  0
  2 11  1  0  0  0  0
  3  4  1  0  0  0  0
  3  2  1  0  0  0  0
  3 12  1  0  0  0  0
  4  6  1  0  0  0  0
  4  5  1  0  0  0  0
  5 14  1  0  0  0  0
  5 15  1  0  0  0  0
  6 16  1  0  0  0  0
  6  5  1  0  0  0  0
  7  4  1  0  0  0  0
  8  7  3  0  0  0  0
 10  2  1  0  0  0  0
 13  3  1  0  0  0  0
 17  6  1  0  0  0  0
M  END
