17
title
C -0.56472045 2.8848908 0.5235254
O -0.68747467 1.4905493 0.35531208
C 0.3814752 0.92808956 -0.3646016
C 0.22236139 -0.578184 -0.3678952
C -0.7730836 -1.1972493 -1.3358135
C 0.69427115 -1.358574 -1.5875009
C 0.3769114 -1.2101694 0.91914964
N 0.5151127 -1.7226509 1.9468852
H 0.3522309 3.1492321 1.0722809
H -0.5530782 3.413449 -0.44289273
H -1.4308512 3.2186847 1.0986723
H 0.39008808 1.2909472 -1.4067868
H 1.3470476 1.2058442 0.088735156
H -1.3342073 -2.0573456 -0.9922003
H -1.3356639 -0.50146806 -1.9474102
H 1.1549776 -0.7829269 -2.3825998
H 1.145006 -2.3272178 -1.4099044
