18
title
C -0.57796144 2.8842587 0.4778993
O -0.6934801 1.4878343 0.35078335
C 0.38378456 0.9112512 -0.3513814
C 0.22823802 -0.5959927 -0.34408477
C -0.7628788 -1.1991321 -1.3275281
C 0.7073928 -1.3559679 -1.575044
C 0.38321814 -1.2307402 0.93782794
C 0.5288653 -1.7618312 2.007131
H 0.33414683 3.171706 1.0247052
H -0.56009364 3.3862674 -0.5032714
H -1.4494342 3.2342706 1.0361955
H 0.40310875 1.2728778 -1.3942399
H 1.3426658 1.1936059 0.11363815
H -1.3244324 -2.063944 -0.99667305
H -1.3218213 -0.5012201 -1.940688
H 1.1658827 -0.776019 -2.3689508
H 1.1579905 -2.3260937 -1.4052263
H 0.6461208 -2.22655 2.9542572
