15
title
C 0.7101165 2.8885188 -0.22391446
O 0.6809031 1.4797804 -0.29853523
C -0.56852734 0.93752295 0.031855855
C -0.4545287 -0.5697857 0.0006660716
C -1.6270523 -1.404915 -0.32890314
O -0.5874369 -1.1966878 -1.276965
C 0.57578725 -1.1356226 0.85728246
N 1.3732166 -1.5828646 1.5632666
H 1.7223324 3.2027311 -0.48501036
H -0.00045263217 3.346942 -0.9285721
H 0.47379178 3.245179 0.7903519
H -0.8888353 1.2583375 1.0381489
H -1.3474908 1.2398491 -0.68644106
H -1.6963227 -2.4072123 0.087508984
H -2.5730898 -0.9121262 -0.5479255
