title
 OpenBabel02282109593D

 18 18  0  0  0  0  0  0  0  0999 V2000
   -0.5780    2.8843    0.4779 C   0  0  0  0  0  0  0  0  0  0  0  0
   -0.6935    1.4878    0.3508 O   0  0  0  0  0  0  0  0  0  0  0  0
    0.3838    0.9113   -0.3514 C   0  0  0  0  0  0  0  0  0  0  0  0
    0.2282   -0.5960   -0.3441 C   0  0  0  0  0  0  0  0  0  0  0  0
   -0.7629   -1.1991   -1.3275 C   0  0  0  0  0  0  0  0  0  0  0  0
    0.7074   -1.3560   -1.5750 C   0  0  0  0  0  0  0  0  0  0  0  0
    0.3832   -1.2307    0.9378 C   0  0  0  0  0  0  0  0  0  0  0  0
    0.5289   -1.7618    2.0071 C   0  0  0  0  0  0  0  0  0  0  0  0
    0.3341    3.1717    1.0247 H   0  0  0  0  0  0  0  0  0  0  0  0
   -0.5601    3.3863   -0.5033 H   0  0  0  0  0  0  0  0  0  0  0  0
   -1.4494    3.2343    1.0362 H   0  0  0  0  0  0  0  0  0  0  0  0
    0.4031    1.2729   -1.3942 H   0  0  0  0  0  0  0  0  0  0  0  0
    1.3427    1.1936    0.1136 H   0  0  0  0  0  0  0  0  0  0  0  0
   -1.3244   -2.0639   -0.9967 H   0  0  0  0  0  0  0  0  0  0  0  0
   -1.3218   -0.5012   -1.9407 H   0  0  0  0  0  0  0  0  0  0  0  0
    1.1659   -0.7760   -2.3690 H   0  0  0  0  0  0  0  0  0  0  0  0
    1.1580   -2.3261   -1.4052 H   0  0  0  0  0  0  0  0  0  0  0  0
    0.6461   -2.2266    2.9543 H   0  0  0  0  0  0  0  0  0  0  0  0
  1  9  1  0  0  0  0
  1 11  1  0  0  0  0
  2  1  1  0  0  0  0
  3  4  1  0  0  0  0
  3 13  1  0  0  0  0
  3  2  1  0  0  0  0
  4  7  1  0  0  0  0
  5 14  1  0  0  0  0
  5  4  1  0  0  0  0
  6 17  1  0  0  0  0
  6  5  1  0  0  0  0
  6  4  1  0  0  0  0
  7  8  3  0  0  0  0
  8 18  1  0  0  0  0
 10  1  1  0  0  0  0
 12  3  1  0  0  0  0
 15  5  1  0  0  0  0
 16  6  1  0  0  0  0
M  END
