title
 OpenBabel02282109593D

 16 16  0  0  1  0  0  0  0  0999 V2000
   -0.1728    2.8858    0.7200 C   0  0  0  0  0  0  0  0  0  0  0  0
   -0.1024    1.4797    0.7436 O   0  0  0  0  0  0  0  0  0  0  0  0
    0.1811    0.9268   -0.5158 C   0  0  0  0  0  0  0  0  0  0  0  0
    0.1961   -0.5822   -0.3973 C   0  0  1  0  0  0  0  0  0  0  0  0
    1.0800   -1.3575   -1.2934 C   0  0  0  0  0  0  0  0  0  0  0  0
    1.4362   -1.1478    0.0657 O   0  0  0  0  0  0  0  0  0  0  0  0
   -1.0060   -1.1964    0.1142 C   0  0  0  0  0  0  0  0  0  0  0  0
   -2.0191   -1.7005    0.5175 C   0  0  0  0  0  0  0  0  0  0  0  0
    0.7813    3.3375    0.4056 H   0  0  0  0  0  0  0  0  0  0  0  0
   -0.9629    3.2433    0.0405 H   0  0  0  0  0  0  0  0  0  0  0  0
   -0.4025    3.2161    1.7353 H   0  0  0  0  0  0  0  0  0  0  0  0
   -0.5802    1.2266   -1.2569 H   0  0  0  0  0  0  0  0  0  0  0  0
    1.1647    1.2592   -0.8851 H   0  0  0  0  0  0  0  0  0  0  0  0
    0.7949   -2.3734   -1.5589 H   0  0  0  0  0  0  0  0  0  0  0  0
    1.6861   -0.8292   -2.0292 H   0  0  0  0  0  0  0  0  0  0  0  0
   -2.9094   -2.1455    0.8882 H   0  0  0  0  0  0  0  0  0  0  0  0
  1  2  1  0  0  0  0
  1 11  1  0  0  0  0
  3  4  1  0  0  0  0
  3  2  1  0  0  0  0
  4  6  1  0  0  0  0
  4  7  1  1  0  0  0
  5  4  1  0  0  0  0
  5  6  1  0  0  0  0
  7  8  3  0  0  0  0
  8 16  1  0  0  0  0
  9  1  1  0  0  0  0
 10  1  1  0  0  0  0
 12  3  1  0  0  0  0
 13  3  1  0  0  0  0
 14  5  1  0  0  0  0
 15  5  1  0  0  0  0
M  END
