17
title
O 0.60643554 2.0664086 -1.1274422
C 0.8319898 1.7362236 0.24155246
C -0.3787953 0.9477496 0.73276055
C -0.43940333 -0.47120482 0.17291427
C -1.7451502 -0.97633976 -0.35750613
N -0.66116196 -0.65146774 -1.2824918
C 0.49460113 -1.3951802 0.77330494
C 1.2755289 -2.1343808 1.3120202
H 1.4503607 2.2744343 -1.5372951
H 1.7417538 1.1320094 0.36237338
H 0.9514186 2.6493134 0.8442458
H -0.36248007 0.904281 1.8269047
H -1.2817382 1.4961092 0.44000342
H -1.9770948 -2.0341544 -0.2789802
H -2.602084 -0.31126636 -0.27660012
H -0.780829 0.27092987 -1.6940392
H 1.9607502 -2.802838 1.77135
