17
title
C -0.98068786 2.036781 -0.6675479
O -0.4278085 1.7533373 0.6047091
C 0.65106887 0.8374033 0.57168275
C 0.2009262 -0.5936103 0.29178193
C 0.17049612 -1.5897698 1.4174229
N -1.073995 -1.0596204 0.8899378
C 0.4264785 -1.1417208 -1.0788177
O 1.1139897 -0.62062335 -1.9216539
H -1.4612359 1.1560601 -1.1161423
H -1.736589 2.8114045 -0.51927227
H -0.21471123 2.406393 -1.3636174
H 1.3896602 1.1213771 -0.19000335
H 1.119222 0.9074989 1.5574833
H 0.34500396 -2.6437697 1.2152367
H 0.5465701 -1.2415335 2.3761754
H -1.4266135 -0.29858494 1.4683579
H -0.10822835 -2.1000245 -1.2612581
