title
 OpenBabel02282109593D

 18 18  0  0  0  0  0  0  0  0999 V2000
    0.7776    2.8564    0.3087 C   0  0  0  0  0  0  0  0  0  0  0  0
    0.8882    1.3462    0.4146 C   0  0  0  0  0  0  0  0  0  0  0  0
   -0.3592    0.7894   -0.0126 O   0  0  0  0  0  0  0  0  0  0  0  0
   -0.4490   -0.5867    0.0737 C   0  0  0  0  0  0  0  0  0  0  0  0
   -0.7297   -1.2212    1.4398 C   0  0  0  0  0  0  0  0  0  0  0  0
   -1.8226   -1.1251    0.4243 C   0  0  0  0  0  0  0  0  0  0  0  0
    0.3555   -1.3976   -0.8773 C   0  0  0  0  0  0  0  0  0  0  0  0
    1.1300   -0.9529   -1.6870 O   0  0  0  0  0  0  0  0  0  0  0  0
    1.7113    3.3267    0.6315 H   0  0  0  0  0  0  0  0  0  0  0  0
    0.5795    3.1533   -0.7248 H   0  0  0  0  0  0  0  0  0  0  0  0
   -0.0360    3.2317    0.9364 H   0  0  0  0  0  0  0  0  0  0  0  0
    1.6986    0.9672   -0.2169 H   0  0  0  0  0  0  0  0  0  0  0  0
    1.0905    1.0408    1.4527 H   0  0  0  0  0  0  0  0  0  0  0  0
   -0.2998   -2.1919    1.6616 H   0  0  0  0  0  0  0  0  0  0  0  0
   -0.7465   -0.5251    2.2700 H   0  0  0  0  0  0  0  0  0  0  0  0
   -2.5768   -0.3594    0.5588 H   0  0  0  0  0  0  0  0  0  0  0  0
   -2.1617   -2.0281   -0.0712 H   0  0  0  0  0  0  0  0  0  0  0  0
    0.1827   -2.4959   -0.7779 H   0  0  0  0  0  0  0  0  0  0  0  0
  1  2  1  0  0  0  0
  1  9  1  0  0  0  0
  1 11  1  0  0  0  0
  2 13  1  0  0  0  0
  3  4  1  0  0  0  0
  3  2  1  0  0  0  0
  4  6  1  0  0  0  0
  4  5  1  0  0  0  0
  5 14  1  0  0  0  0
  5 15  1  0  0  0  0
  6 16  1  0  0  0  0
  6  5  1  0  0  0  0
  7 18  1  0  0  0  0
  7  4  1  0  0  0  0
  8  7  2  0  0  0  0
 10  1  1  0  0  0  0
 12  2  1  0  0  0  0
 17  6  1  0  0  0  0
M  END
