20
title
C 0.8164881 3.041149 0.30310416
C 0.8293285 1.518312 0.4574607
C -0.44999114 0.86084116 -0.08067658
C -0.4745038 -0.6492663 0.06927033
C -0.75591075 -1.2746154 1.4324057
C -1.7924752 -1.3658394 0.3665242
C 0.44282162 -1.4247721 -0.8015221
O 1.1753312 -0.95265824 -1.6369287
H 1.7360231 3.4879313 0.69363993
H 0.7280639 3.3306565 -0.74979734
H -0.026329236 3.4906065 0.84105885
H 1.6906807 1.1000055 -0.072529875
H 0.95291525 1.2559927 1.5162399
H -1.3220396 1.2840976 0.43408117
H -0.5616015 1.106989 -1.1434501
H -0.21272363 -2.1740367 1.7037772
H -0.90958667 -0.5807865 2.2512138
H -2.671172 -0.73451096 0.43366802
H -1.9666152 -2.32814 -0.10370193
H 0.40168583 -2.5283775 -0.6343459
