title
 OpenBabel02282109593D

 19 19  0  0  1  0  0  0  0  0999 V2000
    0.8269    3.0418   -0.3017 C   0  0  0  0  0  0  0  0  0  0  0  0
    0.8435    1.5179   -0.4440 C   0  0  0  0  0  0  0  0  0  0  0  0
   -0.4519    0.8661    0.0645 C   0  0  0  0  0  0  0  0  0  0  0  0
   -0.4670   -0.6425   -0.0730 C   0  0  1  0  0  0  0  0  0  0  0  0
   -1.7316   -1.3509   -0.4632 C   0  0  0  0  0  0  0  0  0  0  0  0
   -0.6178   -1.2869   -1.4025 N   0  0  0  0  0  0  0  0  0  0  0  0
    0.4467   -1.4168    0.8217 C   0  0  0  0  0  0  0  0  0  0  0  0
    1.0391   -0.9498    1.7626 O   0  0  0  0  0  0  0  0  0  0  0  0
    1.7579    3.4844   -0.6684 H   0  0  0  0  0  0  0  0  0  0  0  0
    0.0007    3.4873   -0.8677 H   0  0  0  0  0  0  0  0  0  0  0  0
    0.7075    3.3384    0.7461 H   0  0  0  0  0  0  0  0  0  0  0  0
    1.0007    1.2480   -1.4966 H   0  0  0  0  0  0  0  0  0  0  0  0
    1.6900    1.1037    0.1132 H   0  0  0  0  0  0  0  0  0  0  0  0
   -0.5884    1.1160    1.1230 H   0  0  0  0  0  0  0  0  0  0  0  0
   -1.3126    1.2838   -0.4741 H   0  0  0  0  0  0  0  0  0  0  0  0
   -1.9490   -2.3425   -0.0745 H   0  0  0  0  0  0  0  0  0  0  0  0
   -2.6041   -0.7219   -0.6189 H   0  0  0  0  0  0  0  0  0  0  0  0
   -0.7828   -0.5645   -2.0997 H   0  0  0  0  0  0  0  0  0  0  0  0
    0.5280   -2.4916    0.5457 H   0  0  0  0  0  0  0  0  0  0  0  0
  1 11  1  0  0  0  0
  2  1  1  0  0  0  0
  2  3  1  0  0  0  0
  2 13  1  0  0  0  0
  3 14  1  0  0  0  0
  4  3  1  0  0  0  0
  4  7  1  1  0  0  0
  5 16  1  0  0  0  0
  5  4  1  0  0  0  0
  6  5  1  0  0  0  0
  6  4  1  0  0  0  0
  7  8  2  0  0  0  0
  9  1  1  0  0  0  0
 10  1  1  0  0  0  0
 12  2  1  0  0  0  0
 15  3  1  0  0  0  0
 17  5  1  0  0  0  0
 18  6  1  0  0  0  0
 19  7  1  0  0  0  0
M  END
