16
title
O 0.7463314 2.8895977 -0.06218221
C 0.8459788 1.4979944 -0.32154632
C -0.43522546 0.855736 0.20774022
C -0.5040791 -0.62612325 -0.06767919
C -1.7500252 -1.2700033 -0.54702544
O -0.67597973 -1.0387604 -1.4398631
C 0.4325573 -1.5337622 0.67368096
O 1.0949768 -1.2012792 1.6228518
H 1.5648168 3.3067572 -0.3457081
H 0.9361318 1.2944676 -1.3996385
H 1.7171397 1.0562105 0.18231687
H -0.49315557 1.0173423 1.2888532
H -1.2921985 1.3562872 -0.25264198
H -1.9543139 -2.3152485 -0.31633288
H -2.6266317 -0.63759667 -0.6771122
H 0.46264678 -2.5648692 0.2561552
