14
title
C -0.7020481 1.9699677 -1.2347884
C -0.61844414 0.46982634 -1.1367459
N 0.6828388 -0.14763606 -1.3508745
C 0.09540296 -0.21144354 0.0181929
C 0.75777686 0.5402359 1.0522366
C 1.2855468 1.1673628 1.929745
C -0.45813265 -1.4818612 0.44005692
N -0.8972946 -2.505908 0.74998367
H 0.1918431 2.4363122 -0.81705713
H -0.79057175 2.2680578 -2.284374
H -1.5797262 2.3419583 -0.6976845
H -1.4923583 -0.07374132 -1.4919895
H 0.597263 -1.0585519 -1.796792
H 1.7627392 1.7170565 2.7035298
