title
 OpenBabel02282109593D

 16 16  0  0  1  0  0  0  0  0999 V2000
    0.7463    2.8896   -0.0622 O   0  0  0  0  0  0  0  0  0  0  0  0
    0.8460    1.4980   -0.3215 C   0  0  0  0  0  0  0  0  0  0  0  0
   -0.4352    0.8557    0.2077 C   0  0  0  0  0  0  0  0  0  0  0  0
   -0.5041   -0.6261   -0.0677 C   0  0  1  0  0  0  0  0  0  0  0  0
   -1.7500   -1.2700   -0.5470 C   0  0  0  0  0  0  0  0  0  0  0  0
   -0.6760   -1.0388   -1.4399 O   0  0  0  0  0  0  0  0  0  0  0  0
    0.4326   -1.5338    0.6737 C   0  0  0  0  0  0  0  0  0  0  0  0
    1.0950   -1.2013    1.6229 O   0  0  0  0  0  0  0  0  0  0  0  0
    1.5648    3.3068   -0.3457 H   0  0  0  0  0  0  0  0  0  0  0  0
    0.9361    1.2945   -1.3996 H   0  0  0  0  0  0  0  0  0  0  0  0
    1.7171    1.0562    0.1823 H   0  0  0  0  0  0  0  0  0  0  0  0
   -0.4932    1.0173    1.2889 H   0  0  0  0  0  0  0  0  0  0  0  0
   -1.2922    1.3563   -0.2526 H   0  0  0  0  0  0  0  0  0  0  0  0
   -1.9543   -2.3152   -0.3163 H   0  0  0  0  0  0  0  0  0  0  0  0
   -2.6266   -0.6376   -0.6771 H   0  0  0  0  0  0  0  0  0  0  0  0
    0.4626   -2.5649    0.2562 H   0  0  0  0  0  0  0  0  0  0  0  0
  2  1  1  0  0  0  0
  2 11  1  0  0  0  0
  2  3  1  0  0  0  0
  3 12  1  0  0  0  0
  4  3  1  0  0  0  0
  4  7  1  1  0  0  0
  5 14  1  0  0  0  0
  5  4  1  0  0  0  0
  6  5  1  0  0  0  0
  6  4  1  0  0  0  0
  7  8  2  0  0  0  0
  9  1  1  0  0  0  0
 10  2  1  0  0  0  0
 13  3  1  0  0  0  0
 15  5  1  0  0  0  0
 16  7  1  0  0  0  0
M  END
