14
title
C -0.68010926 1.977875 -1.2342551
C -0.6426382 0.48048514 -1.1023654
O 0.6028183 -0.17258671 -1.3060132
C 0.03967663 -0.22513422 0.026412884
C 0.74168044 0.52701646 1.0397568
C 1.313464 1.1403804 1.9000809
C -0.4519595 -1.5174369 0.4452317
C -0.8720597 -2.5860918 0.7978235
H 0.15323122 2.4409823 -0.70290476
H -0.62252176 2.2578359 -2.291195
H -1.6198401 2.3692122 -0.83142906
H -1.4919165 -0.055906918 -1.5288669
H 1.8259584 1.6787723 2.6589847
H -1.2360557 -3.533835 1.110174
