13
title
C -0.67918277 1.982092 -1.2463514
C -0.64224327 0.48633468 -1.1094463
O 0.60406876 -0.17135315 -1.3061223
C 0.055051472 -0.20075487 0.022046892
C 0.74984705 0.5375261 1.0450612
C 1.3166277 1.1396955 1.9156984
C -0.44818994 -1.5008782 0.43930933
N -0.8654752 -2.5252774 0.772476
H 0.16389331 2.4459221 -0.7316203
H -0.6395716 2.2547867 -2.3056037
H -1.6119449 2.3746207 -0.8296847
H -1.4915571 -0.056273203 -1.5267557
H 1.8246374 1.669409 2.6843688
