15
title
C -0.7005873 1.9672749 -1.2110187
C -0.58078945 0.4633057 -1.1817007
C 0.71927834 -0.22920592 -1.4079658
C 0.11565995 -0.24068286 0.008303508
C 0.74189675 0.543517 1.0380522
C 1.265107 1.20108 1.8970815
C -0.47547427 -1.4826126 0.44892728
N -0.9599 -2.478995 0.78080475
H 0.19159424 2.4466996 -0.8012891
H -0.8326681 2.3116417 -2.241938
H -1.5627116 2.3042226 -0.6276369
H -1.459925 -0.07454862 -1.5237054
H 0.73373604 -1.1757203 -1.9349458
H 1.6116782 0.37638837 -1.5174525
H 1.7273155 1.7743325 2.6624513
