title
 OpenBabel02282109593D

 12 12  0  0  1  0  0  0  0  0999 V2000
    1.3290    1.7996    0.2262 O   0  0  0  0  0  0  0  0  0  0  0  0
    1.3019    0.4291    0.1448 C   0  0  1  0  0  0  0  0  0  0  0  0
    0.8012   -0.2858    1.3352 C   0  0  0  0  0  0  0  0  0  0  0  0
   -0.0941   -0.2850    0.0784 C   0  0  0  0  0  0  0  0  0  0  0  0
   -1.2568    0.5610    0.0715 C   0  0  0  0  0  0  0  0  0  0  0  0
   -2.1787    1.2580    0.0530 N   0  0  0  0  0  0  0  0  0  0  0  0
   -0.1763   -1.4982   -0.6897 C   0  0  0  0  0  0  0  0  0  0  0  0
   -0.1926   -2.4758   -1.3072 N   0  0  0  0  0  0  0  0  0  0  0  0
    1.2498    2.1773   -0.6576 H   0  0  0  0  0  0  0  0  0  0  0  0
    2.0650   -0.0491   -0.4667 H   0  0  0  0  0  0  0  0  0  0  0  0
    1.2392   -1.2382    1.6060 H   0  0  0  0  0  0  0  0  0  0  0  0
    0.4417    0.3256    2.1542 H   0  0  0  0  0  0  0  0  0  0  0  0
  2 10  1  6  0  0  0
  2  1  1  0  0  0  0
  2  3  1  0  0  0  0
  3 11  1  0  0  0  0
  3 12  1  0  0  0  0
  4  2  1  0  0  0  0
  4  3  1  0  0  0  0
  5  4  1  0  0  0  0
  6  5  3  0  0  0  0
  7  4  1  0  0  0  0
  8  7  3  0  0  0  0
  9  1  1  0  0  0  0
M  END
