16
title
C -0.66018546 1.9791096 -1.077582
C -0.62362593 0.46930578 -1.0868672
C 0.6201107 -0.2987044 -1.3326205
C 0.012069343 -0.35771418 0.076678894
C 0.74419004 0.37625414 1.1546427
O 1.5466772 1.2583878 0.9618908
C -0.6775803 -1.5439153 0.49633995
C -1.2487078 -2.5329154 0.87482417
H 0.25990784 2.4022367 -0.67221904
H -0.78413457 2.3448308 -2.1029005
H -1.5038075 2.3508146 -0.4871674
H -1.5375111 -0.003195039 -1.4354893
H 0.57985014 -1.2151177 -1.9088359
H 1.5504993 0.25747624 -1.3830379
H 0.4889552 0.040682442 2.1811383
H -1.7525342 -3.4088736 1.2009288
