title
 OpenBabel02282109593D

 13 13  0  0  0  0  0  0  0  0999 V2000
   -0.8094    1.7331   -1.2626 C   0  0  0  0  0  0  0  0  0  0  0  0
   -0.5805    0.2914   -1.1856 N   0  0  0  0  0  0  0  0  0  0  0  0
    0.7530   -0.2078   -1.3890 C   0  0  0  0  0  0  0  0  0  0  0  0
    0.1284   -0.2433   -0.0070 C   0  0  0  0  0  0  0  0  0  0  0  0
    0.6723    0.6601    0.9857 C   0  0  0  0  0  0  0  0  0  0  0  0
    1.0885    1.4015    1.7687 N   0  0  0  0  0  0  0  0  0  0  0  0
   -0.3919   -1.4872    0.5219 C   0  0  0  0  0  0  0  0  0  0  0  0
   -0.7923   -2.4899    0.9319 N   0  0  0  0  0  0  0  0  0  0  0  0
    0.0342    2.3364   -0.8998 H   0  0  0  0  0  0  0  0  0  0  0  0
   -0.9977    1.9793   -2.3105 H   0  0  0  0  0  0  0  0  0  0  0  0
   -1.6994    1.9823   -0.6802 H   0  0  0  0  0  0  0  0  0  0  0  0
    0.8432   -1.1436   -1.9320 H   0  0  0  0  0  0  0  0  0  0  0  0
    1.5708    0.5006   -1.5145 H   0  0  0  0  0  0  0  0  0  0  0  0
  1  2  1  0  0  0  0
  1  9  1  0  0  0  0
  1 11  1  0  0  0  0
  2  4  1  0  0  0  0
  3  2  1  0  0  0  0
  3  4  1  0  0  0  0
  4  7  1  0  0  0  0
  4  5  1  0  0  0  0
  5  6  3  0  0  0  0
  7  8  3  0  0  0  0
 10  1  1  0  0  0  0
 12  3  1  0  0  0  0
 13  3  1  0  0  0  0
M  END
