title
 OpenBabel02282109593D

 14 14  0  0  1  0  0  0  0  0999 V2000
   -0.8038    1.7276   -1.2853 C   0  0  0  0  0  0  0  0  0  0  0  0
   -0.5764    0.2894   -1.1875 N   0  0  0  0  0  0  0  0  0  0  0  0
    0.7628   -0.2053   -1.3815 C   0  0  0  0  0  0  0  0  0  0  0  0
    0.1446   -0.2223    0.0024 C   0  0  1  0  0  0  0  0  0  0  0  0
    0.6673    0.6711    1.0048 C   0  0  0  0  0  0  0  0  0  0  0  0
    1.0808    1.4126    1.8550 C   0  0  0  0  0  0  0  0  0  0  0  0
   -0.3781   -1.4754    0.5161 C   0  0  0  0  0  0  0  0  0  0  0  0
   -0.7763   -2.4808    0.9228 N   0  0  0  0  0  0  0  0  0  0  0  0
    0.0354    2.3357   -0.9212 H   0  0  0  0  0  0  0  0  0  0  0  0
   -0.9841    1.9634   -2.3376 H   0  0  0  0  0  0  0  0  0  0  0  0
   -1.6985    1.9860   -0.7134 H   0  0  0  0  0  0  0  0  0  0  0  0
    0.8588   -1.1421   -1.9226 H   0  0  0  0  0  0  0  0  0  0  0  0
    1.5742    0.5084   -1.5159 H   0  0  0  0  0  0  0  0  0  0  0  0
    1.4536    2.0615    2.6092 H   0  0  0  0  0  0  0  0  0  0  0  0
  1  2  1  0  0  0  0
  1  9  1  0  0  0  0
  1 11  1  0  0  0  0
  2  4  1  0  0  0  0
  3  2  1  0  0  0  0
  3  4  1  0  0  0  0
  4  7  1  1  0  0  0
  4  5  1  0  0  0  0
  5  6  3  0  0  0  0
  6 14  1  0  0  0  0
  7  8  3  0  0  0  0
 10  1  1  0  0  0  0
 12  3  1  0  0  0  0
 13  3  1  0  0  0  0
M  END
