title
 OpenBabel02282109593D

 12 12  0  0  1  0  0  0  0  0999 V2000
   -0.6726    1.9967   -1.2116 C   0  0  0  0  0  0  0  0  0  0  0  0
   -0.6566    0.4991   -1.1018 C   0  0  1  0  0  0  0  0  0  0  0  0
    0.5788   -0.1769   -1.3160 O   0  0  0  0  0  0  0  0  0  0  0  0
    0.0419   -0.2251    0.0064 C   0  0  0  0  0  0  0  0  0  0  0  0
    0.7635    0.5227    1.0190 C   0  0  0  0  0  0  0  0  0  0  0  0
    1.3244    1.1300    1.8254 N   0  0  0  0  0  0  0  0  0  0  0  0
   -0.4618   -1.5148    0.4416 C   0  0  0  0  0  0  0  0  0  0  0  0
   -0.8833   -2.5346    0.7821 N   0  0  0  0  0  0  0  0  0  0  0  0
    0.1921    2.4439   -0.7176 H   0  0  0  0  0  0  0  0  0  0  0  0
   -0.6602    2.2826   -2.2677 H   0  0  0  0  0  0  0  0  0  0  0  0
   -1.5868    2.3955   -0.7621 H   0  0  0  0  0  0  0  0  0  0  0  0
   -1.5169   -0.0292   -1.5134 H   0  0  0  0  0  0  0  0  0  0  0  0
  1  2  1  0  0  0  0
  1 11  1  0  0  0  0
  1  9  1  0  0  0  0
  2 12  1  6  0  0  0
  2  4  1  0  0  0  0
  3  2  1  0  0  0  0
  3  4  1  0  0  0  0
  4  7  1  0  0  0  0
  4  5  1  0  0  0  0
  5  6  3  0  0  0  0
  7  8  3  0  0  0  0
 10  1  1  0  0  0  0
M  END
