title
 OpenBabel02282109593D

 14 14  0  0  1  0  0  0  0  0999 V2000
    1.4095    1.8794    0.1024 N   0  0  0  0  0  0  0  0  0  0  0  0
    1.2959    0.4669    0.1457 C   0  0  1  0  0  0  0  0  0  0  0  0
    0.7875   -0.2286    1.3472 C   0  0  0  0  0  0  0  0  0  0  0  0
   -0.1080   -0.2780    0.0915 C   0  0  1  0  0  0  0  0  0  0  0  0
   -1.2816    0.5421    0.0630 C   0  0  0  0  0  0  0  0  0  0  0  0
   -2.2322    1.2788    0.0393 C   0  0  0  0  0  0  0  0  0  0  0  0
   -0.1544   -1.5162   -0.6374 C   0  0  0  0  0  0  0  0  0  0  0  0
   -0.1482   -2.5108   -1.2296 N   0  0  0  0  0  0  0  0  0  0  0  0
    1.3737    2.2200   -0.8533 H   0  0  0  0  0  0  0  0  0  0  0  0
    0.6587    2.3319    0.6136 H   0  0  0  0  0  0  0  0  0  0  0  0
    2.0581   -0.0471   -0.4307 H   0  0  0  0  0  0  0  0  0  0  0  0
    1.2484   -1.1618    1.6487 H   0  0  0  0  0  0  0  0  0  0  0  0
    0.3990    0.3728    2.1619 H   0  0  0  0  0  0  0  0  0  0  0  0
   -3.0933    1.9003    0.0199 H   0  0  0  0  0  0  0  0  0  0  0  0
  1  2  1  0  0  0  0
  1 10  1  0  0  0  0
  2  4  1  6  0  0  0
  2  3  1  0  0  0  0
  3 12  1  0  0  0  0
  3 13  1  0  0  0  0
  4  7  1  6  0  0  0
  4  3  1  0  0  0  0
  5  4  1  0  0  0  0
  6  5  3  0  0  0  0
  8  7  3  0  0  0  0
  9  1  1  0  0  0  0
 11  2  1  0  0  0  0
 14  6  1  0  0  0  0
M  END
