title
 OpenBabel02282109593D

 16 16  0  0  1  0  0  0  0  0999 V2000
   -0.6602    1.9791   -1.0776 C   0  0  0  0  0  0  0  0  0  0  0  0
   -0.6236    0.4693   -1.0869 C   0  0  1  0  0  0  0  0  0  0  0  0
    0.6201   -0.2987   -1.3326 C   0  0  0  0  0  0  0  0  0  0  0  0
    0.0121   -0.3577    0.0767 C   0  0  1  0  0  0  0  0  0  0  0  0
    0.7442    0.3763    1.1546 C   0  0  0  0  0  0  0  0  0  0  0  0
    1.5467    1.2584    0.9619 O   0  0  0  0  0  0  0  0  0  0  0  0
   -0.6776   -1.5439    0.4963 C   0  0  0  0  0  0  0  0  0  0  0  0
   -1.2487   -2.5329    0.8748 C   0  0  0  0  0  0  0  0  0  0  0  0
    0.2599    2.4022   -0.6722 H   0  0  0  0  0  0  0  0  0  0  0  0
   -0.7841    2.3448   -2.1029 H   0  0  0  0  0  0  0  0  0  0  0  0
   -1.5038    2.3508   -0.4872 H   0  0  0  0  0  0  0  0  0  0  0  0
   -1.5375   -0.0032   -1.4355 H   0  0  0  0  0  0  0  0  0  0  0  0
    0.5799   -1.2151   -1.9088 H   0  0  0  0  0  0  0  0  0  0  0  0
    1.5505    0.2575   -1.3830 H   0  0  0  0  0  0  0  0  0  0  0  0
    0.4890    0.0407    2.1811 H   0  0  0  0  0  0  0  0  0  0  0  0
   -1.7525   -3.4089    1.2009 H   0  0  0  0  0  0  0  0  0  0  0  0
  1  9  1  0  0  0  0
  1 11  1  0  0  0  0
  2  1  1  0  0  0  0
  2  4  1  1  0  0  0
  3  2  1  0  0  0  0
  3  4  1  0  0  0  0
  4  7  1  1  0  0  0
  4  5  1  0  0  0  0
  5 15  1  0  0  0  0
  6  5  2  0  0  0  0
  7  8  3  0  0  0  0
  8 16  1  0  0  0  0
 10  1  1  0  0  0  0
 12  2  1  0  0  0  0
 13  3  1  0  0  0  0
 14  3  1  0  0  0  0
M  END
