15
title
C -0.8039804 1.7223595 -1.2750357
N -0.5848763 0.28369462 -1.1848811
C 0.7581104 -0.20610921 -1.3774956
C 0.1356249 -0.24633475 0.0042586485
C 0.65851116 0.6622045 0.99801826
C 1.0725794 1.413984 1.8399003
C -0.37191227 -1.4950116 0.5230199
C -0.7740015 -2.539943 0.9581804
H 0.032353718 2.3262362 -0.89639723
H -0.9715327 1.9703703 -2.3273907
H -1.7037678 1.9829571 -0.7111019
H 0.8577212 -1.1374631 -1.9275682
H 1.5647897 0.5132975 -1.5118454
H 1.4449898 2.0703037 2.5872154
H -1.1394783 -3.4597547 1.3427389
