title
 OpenBabel02282109593D

 13 13  0  0  1  0  0  0  0  0999 V2000
    1.3049    1.8222    0.0266 O   0  0  0  0  0  0  0  0  0  0  0  0
    1.2765    0.4479    0.1037 C   0  0  1  0  0  0  0  0  0  0  0  0
    0.8468   -0.2858    1.3244 C   0  0  0  0  0  0  0  0  0  0  0  0
   -0.0903   -0.2983    0.0917 C   0  0  1  0  0  0  0  0  0  0  0  0
   -1.2511    0.5439    0.1342 C   0  0  0  0  0  0  0  0  0  0  0  0
   -2.1655    1.3253    0.1694 C   0  0  0  0  0  0  0  0  0  0  0  0
   -0.1880   -1.5156   -0.6702 C   0  0  0  0  0  0  0  0  0  0  0  0
   -0.2346   -2.4984   -1.2782 N   0  0  0  0  0  0  0  0  0  0  0  0
    0.4111    2.1641    0.1699 H   0  0  0  0  0  0  0  0  0  0  0  0
    2.0484   -0.0035   -0.5106 H   0  0  0  0  0  0  0  0  0  0  0  0
    1.3298   -1.2252    1.5672 H   0  0  0  0  0  0  0  0  0  0  0  0
    0.4858    0.2903    2.1683 H   0  0  0  0  0  0  0  0  0  0  0  0
   -3.0029    1.9785    0.2042 H   0  0  0  0  0  0  0  0  0  0  0  0
  1  2  1  0  0  0  0
  1  9  1  0  0  0  0
  2  4  1  6  0  0  0
  2  3  1  0  0  0  0
  3 11  1  0  0  0  0
  3 12  1  0  0  0  0
  4  7  1  6  0  0  0
  4  5  1  0  0  0  0
  4  3  1  0  0  0  0
  5  6  3  0  0  0  0
  6 13  1  0  0  0  0
  8  7  3  0  0  0  0
 10  2  1  0  0  0  0
M  END
