12
title
O 1.3289973 1.7995629 0.22622173
C 1.3019326 0.42905235 0.14477912
C 0.80121726 -0.28579307 1.3352159
C -0.09414521 -0.28504348 0.07838758
C -1.2568238 0.5610299 0.07148803
N -2.1787176 1.2580153 0.052972198
C -0.17630532 -1.4982115 -0.6897077
N -0.19261172 -2.4757721 -1.307243
H 1.2498294 2.1773496 -0.6575925
H 2.0649924 -0.04909021 -0.46669725
H 1.2392443 -1.2382354 1.6060051
H 0.44171038 0.32562172 2.1541502
