14
title
O 1.1302242 1.8328618 0.021506352
C 1.2115626 0.46964145 0.02628815
C 0.85073394 -0.3618152 1.1839317
C -0.12051164 -0.42229545 -0.02189094
C -1.3558229 0.37421262 0.10040262
O -1.4379343 1.3898729 0.76869136
C -0.14888822 -1.5885401 -0.8471157
C -0.1740291 -2.5662475 -1.5483495
H 0.33685637 2.0840886 0.5271641
H 1.9755019 0.11174247 -0.65478504
H 1.4035038 -1.2743515 1.3736504
H 0.44814354 0.14283639 2.0565383
H -2.2170925 0.008493034 -0.489943
H -0.19728754 -3.4289203 -2.167183
