title
 OpenBabel02282109593D

 13 13  0  0  1  0  0  0  0  0999 V2000
   -0.5882    2.0223   -1.0874 C   0  0  0  0  0  0  0  0  0  0  0  0
   -0.6966    0.5269   -0.9932 C   0  0  1  0  0  0  0  0  0  0  0  0
    0.4590   -0.2495   -1.2520 O   0  0  0  0  0  0  0  0  0  0  0  0
   -0.0374   -0.2973    0.0815 C   0  0  1  0  0  0  0  0  0  0  0  0
    0.7986    0.3583    1.1604 C   0  0  0  0  0  0  0  0  0  0  0  0
    1.6358    1.1886    0.9361 O   0  0  0  0  0  0  0  0  0  0  0  0
   -0.6705   -1.5393    0.4844 C   0  0  0  0  0  0  0  0  0  0  0  0
   -1.1696   -2.5154    0.8501 N   0  0  0  0  0  0  0  0  0  0  0  0
    0.3430    2.3802   -0.6489 H   0  0  0  0  0  0  0  0  0  0  0  0
   -0.6153    2.3132   -2.1425 H   0  0  0  0  0  0  0  0  0  0  0  0
   -1.4394    2.4946   -0.5874 H   0  0  0  0  0  0  0  0  0  0  0  0
   -1.6151    0.0871   -1.3858 H   0  0  0  0  0  0  0  0  0  0  0  0
    0.5590    0.0109    2.1862 H   0  0  0  0  0  0  0  0  0  0  0  0
  1  2  1  0  0  0  0
  1  9  1  0  0  0  0
  1 11  1  0  0  0  0
  2  4  1  1  0  0  0
  3  2  1  0  0  0  0
  3  4  1  0  0  0  0
  4  7  1  1  0  0  0
  4  5  1  0  0  0  0
  5 13  1  0  0  0  0
  6  5  2  0  0  0  0
  7  8  3  0  0  0  0
 10  1  1  0  0  0  0
 12  2  1  0  0  0  0
M  END
