13
title
O 1.1267517 1.8403269 0.04200309
C 1.2192019 0.4834484 0.048109155
C 0.8440137 -0.36005265 1.1901526
C -0.12424833 -0.40893298 -0.015373992
C -1.3650686 0.38290292 0.091692045
O -1.4476901 1.3856963 0.77554226
C -0.13846667 -1.5685478 -0.8525602
N -0.14660628 -2.5033216 -1.535501
H 0.34601784 2.0950758 0.56487423
H 1.986277 0.1295167 -0.6317626
H 1.3990574 -1.2723179 1.3753232
H 0.42853844 0.129966 2.0649505
H -2.2172015 0.030108234 -0.51769185
