15
title
C -0.6254399 1.9903238 -1.0878062
C -0.60508806 0.48058286 -1.0990932
C 0.62777686 -0.30535275 -1.3322564
C 0.017736435 -0.34101385 0.07697283
C 0.7528304 0.37547734 1.1668227
O 1.5605172 1.2495556 0.97045684
C -0.6975408 -1.5168955 0.49063274
N -1.271074 -2.4586544 0.8415365
H 0.2998371 2.404426 -0.6854785
H -0.74828786 2.3534715 -2.1137187
H -1.4648461 2.3689494 -0.4967021
H -1.5232956 0.017890446 -1.4498674
H 0.5787215 -1.2255685 -1.9017096
H 1.5683497 0.23389582 -1.374695
H 0.4956174 0.03914901 2.1914415
