title
 OpenBabel02282109593D

 15 15  0  0  1  0  0  0  0  0999 V2000
   -0.9620    1.6131   -1.2091 C   0  0  0  0  0  0  0  0  0  0  0  0
   -0.5603    0.2090   -1.1497 N   0  0  0  0  0  0  0  0  0  0  0  0
    0.8317   -0.1217   -1.2329 C   0  0  0  0  0  0  0  0  0  0  0  0
    0.0969   -0.3338    0.0772 C   0  0  1  0  0  0  0  0  0  0  0  0
    0.4710    0.5866    1.2078 C   0  0  0  0  0  0  0  0  0  0  0  0
    0.9911    1.6672    1.0690 O   0  0  0  0  0  0  0  0  0  0  0  0
   -0.3301   -1.6468    0.4838 C   0  0  0  0  0  0  0  0  0  0  0  0
   -0.6598   -2.7353    0.8731 C   0  0  0  0  0  0  0  0  0  0  0  0
   -0.2504    2.3092   -0.7523 H   0  0  0  0  0  0  0  0  0  0  0  0
   -1.0828    1.8663   -2.2668 H   0  0  0  0  0  0  0  0  0  0  0  0
   -1.9343    1.7222   -0.7203 H   0  0  0  0  0  0  0  0  0  0  0  0
    1.0844   -1.0046   -1.8135 H   0  0  0  0  0  0  0  0  0  0  0  0
    1.5638    0.6846   -1.2280 H   0  0  0  0  0  0  0  0  0  0  0  0
    0.2165    0.1875    2.2111 H   0  0  0  0  0  0  0  0  0  0  0  0
   -0.9615   -3.7004    1.1981 H   0  0  0  0  0  0  0  0  0  0  0  0
  1  2  1  0  0  0  0
  1  9  1  0  0  0  0
  1 11  1  0  0  0  0
  2  4  1  0  0  0  0
  3 13  1  0  0  0  0
  3  2  1  0  0  0  0
  3  4  1  0  0  0  0
  4  7  1  1  0  0  0
  4  5  1  0  0  0  0
  5 14  1  0  0  0  0
  6  5  2  0  0  0  0
  7  8  3  0  0  0  0
  8 15  1  0  0  0  0
 10  1  1  0  0  0  0
 12  3  1  0  0  0  0
M  END
