title
 OpenBabel02282109593D

 15 15  0  0  1  0  0  0  0  0999 V2000
   -0.6254    1.9903   -1.0878 C   0  0  0  0  0  0  0  0  0  0  0  0
   -0.6051    0.4806   -1.0991 C   0  0  1  0  0  0  0  0  0  0  0  0
    0.6278   -0.3054   -1.3323 C   0  0  0  0  0  0  0  0  0  0  0  0
    0.0177   -0.3410    0.0770 C   0  0  1  0  0  0  0  0  0  0  0  0
    0.7528    0.3755    1.1668 C   0  0  0  0  0  0  0  0  0  0  0  0
    1.5605    1.2496    0.9705 O   0  0  0  0  0  0  0  0  0  0  0  0
   -0.6975   -1.5169    0.4906 C   0  0  0  0  0  0  0  0  0  0  0  0
   -1.2711   -2.4587    0.8415 N   0  0  0  0  0  0  0  0  0  0  0  0
    0.2998    2.4044   -0.6855 H   0  0  0  0  0  0  0  0  0  0  0  0
   -0.7483    2.3535   -2.1137 H   0  0  0  0  0  0  0  0  0  0  0  0
   -1.4648    2.3689   -0.4967 H   0  0  0  0  0  0  0  0  0  0  0  0
   -1.5233    0.0179   -1.4499 H   0  0  0  0  0  0  0  0  0  0  0  0
    0.5787   -1.2256   -1.9017 H   0  0  0  0  0  0  0  0  0  0  0  0
    1.5683    0.2339   -1.3747 H   0  0  0  0  0  0  0  0  0  0  0  0
    0.4956    0.0391    2.1914 H   0  0  0  0  0  0  0  0  0  0  0  0
  1  9  1  0  0  0  0
  1 11  1  0  0  0  0
  2  1  1  0  0  0  0
  2  4  1  1  0  0  0
  3  2  1  0  0  0  0
  3  4  1  0  0  0  0
  4  7  1  1  0  0  0
  4  5  1  0  0  0  0
  5 15  1  0  0  0  0
  6  5  2  0  0  0  0
  7  8  3  0  0  0  0
 10  1  1  0  0  0  0
 12  2  1  0  0  0  0
 13  3  1  0  0  0  0
 14  3  1  0  0  0  0
M  END
