14
title
C -0.60309166 2.01887 -1.0757264
C -0.7035169 0.52117074 -0.98544407
O 0.4559947 -0.24354763 -1.2524735
C -0.0538192 -0.31509373 0.084835686
C 0.7802018 0.3541523 1.1546541
O 1.6264572 1.1792825 0.9370248
C -0.6641001 -1.5577822 0.48631015
C -1.1566879 -2.5852373 0.86890334
H 0.32205412 2.379875 -0.6267259
H -0.6203629 2.3154156 -2.129852
H -1.4608616 2.4871044 -0.58232486
H -1.6199585 0.082334146 -1.3851997
H 0.53051114 0.016551804 2.1823628
H -1.594408 -3.4981256 1.1911451
