18
title
C -0.6808397 2.0660443 -1.7133688
C -0.79431605 0.6175904 -1.3088542
O 0.3997393 -0.17765965 -1.3467387
C -0.23720862 0.05998079 -0.06536325
C 0.5494639 0.91907537 0.9238054
O 1.0100576 0.20168276 2.0505102
C -0.80028653 -1.2317102 0.49717143
O 0.26875046 -2.1552231 0.71224374
H 0.19502382 2.5456805 -1.2730811
H -0.6035644 2.1473286 -2.802333
H -1.5752661 2.6153328 -1.4003172
H -1.6646956 0.10590354 -1.7265239
H 1.3762441 1.3951693 0.37643936
H -0.0961323 1.7190698 1.3091742
H 1.2247348 -0.69664454 1.761845
H -1.26738 -1.0697204 1.4713949
H -1.5455986 -1.6538795 -0.18949802
H 0.70738906 -2.24856 -0.14334853
