title
 OpenBabel02282109593D

 14 14  0  0  1  0  0  0  0  0999 V2000
    1.1890    1.7561   -0.0948 O   0  0  0  0  0  0  0  0  0  0  0  0
    1.1549    0.4087    0.0175 C   0  0  1  0  0  0  0  0  0  0  0  0
    0.6527   -0.3060    1.1815 C   0  0  0  0  0  0  0  0  0  0  0  0
   -0.3186   -0.3532   -0.0137 C   0  0  0  0  0  0  0  0  0  0  0  0
   -1.4268    0.5916   -0.0448 C   0  0  0  0  0  0  0  0  0  0  0  0
   -1.4308    1.6600    0.5484 O   0  0  0  0  0  0  0  0  0  0  0  0
   -0.3762   -1.5901   -0.8035 C   0  0  0  0  0  0  0  0  0  0  0  0
    0.4697   -2.4572   -0.7714 O   0  0  0  0  0  0  0  0  0  0  0  0
    0.4290    2.1205    0.3978 H   0  0  0  0  0  0  0  0  0  0  0  0
    1.8574   -0.0880   -0.6429 H   0  0  0  0  0  0  0  0  0  0  0  0
    1.0853   -1.2763    1.4020 H   0  0  0  0  0  0  0  0  0  0  0  0
    0.3019    0.2803    2.0249 H   0  0  0  0  0  0  0  0  0  0  0  0
   -2.2859    0.3046   -0.6851 H   0  0  0  0  0  0  0  0  0  0  0  0
   -1.2634   -1.6776   -1.4696 H   0  0  0  0  0  0  0  0  0  0  0  0
  1  2  1  0  0  0  0
  1  9  1  0  0  0  0
  2 10  1  6  0  0  0
  2  3  1  0  0  0  0
  3 11  1  0  0  0  0
  3 12  1  0  0  0  0
  4  2  1  0  0  0  0
  4  3  1  0  0  0  0
  5  4  1  0  0  0  0
  5  6  2  0  0  0  0
  7  8  2  0  0  0  0
  7  4  1  0  0  0  0
 13  5  1  0  0  0  0
 14  7  1  0  0  0  0
M  END
