title
 OpenBabel02282109593D

 20 20  0  0  1  0  0  0  0  0999 V2000
   -0.8200    2.1050   -1.6461 C   0  0  0  0  0  0  0  0  0  0  0  0
   -0.7524    0.6131   -1.3940 C   0  0  1  0  0  0  0  0  0  0  0  0
    0.5534   -0.1416   -1.4433 C   0  0  0  0  0  0  0  0  0  0  0  0
   -0.1908   -0.0056   -0.1290 C   0  0  0  0  0  0  0  0  0  0  0  0
    0.4130    0.8589    0.9673 C   0  0  0  0  0  0  0  0  0  0  0  0
    1.4775    0.2212    1.6521 O   0  0  0  0  0  0  0  0  0  0  0  0
   -0.8971   -1.2424    0.3904 C   0  0  0  0  0  0  0  0  0  0  0  0
   -0.0244   -2.1176    1.1167 O   0  0  0  0  0  0  0  0  0  0  0  0
    0.0795    2.6239   -1.3051 H   0  0  0  0  0  0  0  0  0  0  0  0
   -0.9204    2.3023   -2.7189 H   0  0  0  0  0  0  0  0  0  0  0  0
   -1.6805    2.5603   -1.1435 H   0  0  0  0  0  0  0  0  0  0  0  0
   -1.6049    0.0755   -1.8057 H   0  0  0  0  0  0  0  0  0  0  0  0
    0.5766   -1.1080   -1.9390 H   0  0  0  0  0  0  0  0  0  0  0  0
    1.4673    0.4334   -1.5546 H   0  0  0  0  0  0  0  0  0  0  0  0
    0.8288    1.7801    0.5502 H   0  0  0  0  0  0  0  0  0  0  0  0
   -0.3869    1.1560    1.6682 H   0  0  0  0  0  0  0  0  0  0  0  0
    1.1467   -0.6513    1.9057 H   0  0  0  0  0  0  0  0  0  0  0  0
   -1.6795   -0.9676    1.1068 H   0  0  0  0  0  0  0  0  0  0  0  0
   -1.3797   -1.7836   -0.4367 H   0  0  0  0  0  0  0  0  0  0  0  0
    0.6748   -2.3860    0.5092 H   0  0  0  0  0  0  0  0  0  0  0  0
  1  2  1  0  0  0  0
  1  9  1  0  0  0  0
  1 11  1  0  0  0  0
  2 12  1  6  0  0  0
  2  4  1  0  0  0  0
  3  2  1  0  0  0  0
  3  4  1  0  0  0  0
  4  7  1  0  0  0  0
  4  5  1  0  0  0  0
  5  6  1  0  0  0  0
  5 16  1  0  0  0  0
  6 17  1  0  0  0  0
  7 18  1  0  0  0  0
  7  8  1  0  0  0  0
 10  1  1  0  0  0  0
 13  3  1  0  0  0  0
 14  3  1  0  0  0  0
 15  5  1  0  0  0  0
 19  7  1  0  0  0  0
 20  8  1  0  0  0  0
M  END
