title
 OpenBabel02282109593D

 23 23  0  0  0  0  0  0  0  0999 V2000
    0.5454    0.1992    2.6052 C   0  0  0  0  0  0  0  0  0  0  0  0
   -0.4397    0.4727    1.4598 C   0  0  0  0  0  0  0  0  0  0  0  0
    0.0758    0.0569    0.0846 C   0  0  0  0  0  0  0  0  0  0  0  0
    1.2217    0.9285   -0.4300 C   0  0  0  0  0  0  0  0  0  0  0  0
    1.8203    0.5224   -1.7784 C   0  0  0  0  0  0  0  0  0  0  0  0
   -0.0350   -1.3881   -0.2929 C   0  0  0  0  0  0  0  0  0  0  0  0
   -0.8563   -0.3862   -0.9602 N   0  0  0  0  0  0  0  0  0  0  0  0
   -2.2941   -0.4140   -0.7514 C   0  0  0  0  0  0  0  0  0  0  0  0
    0.8063   -0.8633    2.6523 H   0  0  0  0  0  0  0  0  0  0  0  0
    1.4748    0.7649    2.4933 H   0  0  0  0  0  0  0  0  0  0  0  0
    0.1055    0.4798    3.5674 H   0  0  0  0  0  0  0  0  0  0  0  0
   -1.3749   -0.0501    1.6794 H   0  0  0  0  0  0  0  0  0  0  0  0
   -0.6844    1.5435    1.4389 H   0  0  0  0  0  0  0  0  0  0  0  0
    0.8414    1.9576   -0.5000 H   0  0  0  0  0  0  0  0  0  0  0  0
    2.0147    0.9526    0.3273 H   0  0  0  0  0  0  0  0  0  0  0  0
    2.3546   -0.4310   -1.7134 H   0  0  0  0  0  0  0  0  0  0  0  0
    1.0362    0.4214   -2.5322 H   0  0  0  0  0  0  0  0  0  0  0  0
    2.5378    1.2752   -2.1185 H   0  0  0  0  0  0  0  0  0  0  0  0
    0.7163   -1.8816   -0.9041 H   0  0  0  0  0  0  0  0  0  0  0  0
   -0.5260   -2.0448    0.4269 H   0  0  0  0  0  0  0  0  0  0  0  0
   -2.6166   -0.8451    0.2093 H   0  0  0  0  0  0  0  0  0  0  0  0
   -2.6964    0.6019   -0.8237 H   0  0  0  0  0  0  0  0  0  0  0  0
   -2.7483   -1.0128   -1.5482 H   0  0  0  0  0  0  0  0  0  0  0  0
  1  9  1  0  0  0  0
  1 11  1  0  0  0  0
  2 12  1  0  0  0  0
  2  1  1  0  0  0  0
  3  2  1  0  0  0  0
  4  3  1  0  0  0  0
  4 15  1  0  0  0  0
  5 16  1  0  0  0  0
  5  4  1  0  0  0  0
  6  3  1  0  0  0  0
  6 20  1  0  0  0  0
  7  8  1  0  0  0  0
  7  6  1  0  0  0  0
  7  3  1  0  0  0  0
  8 21  1  0  0  0  0
 10  1  1  0  0  0  0
 13  2  1  0  0  0  0
 14  4  1  0  0  0  0
 17  5  1  0  0  0  0
 18  5  1  0  0  0  0
 19  6  1  0  0  0  0
 22  8  1  0  0  0  0
 23  8  1  0  0  0  0
M  END
