title
 OpenBabel02282109593D

 18 18  0  0  1  0  0  0  0  0999 V2000
   -0.6808    2.0660   -1.7134 C   0  0  0  0  0  0  0  0  0  0  0  0
   -0.7943    0.6176   -1.3089 C   0  0  1  0  0  0  0  0  0  0  0  0
    0.3997   -0.1777   -1.3467 O   0  0  0  0  0  0  0  0  0  0  0  0
   -0.2372    0.0600   -0.0654 C   0  0  0  0  0  0  0  0  0  0  0  0
    0.5495    0.9191    0.9238 C   0  0  0  0  0  0  0  0  0  0  0  0
    1.0101    0.2017    2.0505 O   0  0  0  0  0  0  0  0  0  0  0  0
   -0.8003   -1.2317    0.4972 C   0  0  0  0  0  0  0  0  0  0  0  0
    0.2688   -2.1552    0.7122 O   0  0  0  0  0  0  0  0  0  0  0  0
    0.1950    2.5457   -1.2731 H   0  0  0  0  0  0  0  0  0  0  0  0
   -0.6036    2.1473   -2.8023 H   0  0  0  0  0  0  0  0  0  0  0  0
   -1.5753    2.6153   -1.4003 H   0  0  0  0  0  0  0  0  0  0  0  0
   -1.6647    0.1059   -1.7265 H   0  0  0  0  0  0  0  0  0  0  0  0
    1.3762    1.3952    0.3764 H   0  0  0  0  0  0  0  0  0  0  0  0
   -0.0961    1.7191    1.3092 H   0  0  0  0  0  0  0  0  0  0  0  0
    1.2247   -0.6966    1.7618 H   0  0  0  0  0  0  0  0  0  0  0  0
   -1.2674   -1.0697    1.4714 H   0  0  0  0  0  0  0  0  0  0  0  0
   -1.5456   -1.6539   -0.1895 H   0  0  0  0  0  0  0  0  0  0  0  0
    0.7074   -2.2486   -0.1433 H   0  0  0  0  0  0  0  0  0  0  0  0
  1 11  1  0  0  0  0
  1  2  1  0  0  0  0
  1  9  1  0  0  0  0
  2 12  1  6  0  0  0
  2  4  1  0  0  0  0
  3  2  1  0  0  0  0
  3  4  1  0  0  0  0
  4  7  1  0  0  0  0
  4  5  1  0  0  0  0
  5 14  1  0  0  0  0
  5  6  1  0  0  0  0
  7  8  1  0  0  0  0
  7 16  1  0  0  0  0
 10  1  1  0  0  0  0
 13  5  1  0  0  0  0
 15  6  1  0  0  0  0
 17  7  1  0  0  0  0
 18  8  1  0  0  0  0
M  END
