23
title
C 0.5454448 0.19920252 2.605181
C -0.43972048 0.47268608 1.4598217
C 0.07577475 0.05690719 0.08463716
C 1.2217232 0.9285123 -0.4299655
C 1.8202888 0.5223562 -1.7783526
C -0.034989513 -1.388116 -0.29294717
N -0.8562998 -0.38622022 -0.96016705
C -2.2940679 -0.41401505 -0.75144374
H 0.80632824 -0.86328906 2.6523213
H 1.4747785 0.7648962 2.4932702
H 0.10546269 0.47976905 3.5673864
H -1.3749096 -0.050103683 1.6794176
H -0.68438876 1.5434843 1.4389317
H 0.8413871 1.9575711 -0.5000224
H 2.0147069 0.952649 0.32733476
H 2.3546484 -0.43098623 -1.7133921
H 1.0361981 0.42137748 -2.5321827
H 2.5377555 1.2752433 -2.1185026
H 0.7162973 -1.8815721 -0.9040793
H -0.5260466 -2.0447557 0.4268679
H -2.6165657 -0.845077 0.20933092
H -2.696415 0.60189646 -0.8237232
H -2.748258 -1.0128145 -1.5481707
