title
 OpenBabel02282109593D

 22 22  0  0  1  0  0  0  0  0999 V2000
   -1.5984    1.9651   -0.1734 C   0  0  0  0  0  0  0  0  0  0  0  0
   -0.9845    0.6900   -0.7635 C   0  0  0  0  0  0  0  0  0  0  0  0
   -0.0238    0.0122    0.1971 C   0  0  1  0  0  0  0  0  0  0  0  0
   -0.5458   -0.8801    1.2871 C   0  0  0  0  0  0  0  0  0  0  0  0
    0.2704   -1.4731    0.1522 C   0  0  1  0  0  0  0  0  0  0  0  0
   -0.3353   -2.4357   -0.8459 C   0  0  0  0  0  0  0  0  0  0  0  0
    1.0436    0.8258    0.6253 O   0  0  0  0  0  0  0  0  0  0  0  0
    2.0327    1.0625   -0.3564 C   0  0  0  0  0  0  0  0  0  0  0  0
   -0.8176    2.6734    0.1162 H   0  0  0  0  0  0  0  0  0  0  0  0
   -2.2584    2.4554   -0.8953 H   0  0  0  0  0  0  0  0  0  0  0  0
   -2.1848    1.7374    0.7228 H   0  0  0  0  0  0  0  0  0  0  0  0
   -1.7779   -0.0141   -1.0324 H   0  0  0  0  0  0  0  0  0  0  0  0
   -0.4655    0.9284   -1.7010 H   0  0  0  0  0  0  0  0  0  0  0  0
   -0.0801   -0.7935    2.2619 H   0  0  0  0  0  0  0  0  0  0  0  0
   -1.6124   -1.0838    1.3055 H   0  0  0  0  0  0  0  0  0  0  0  0
    1.2961   -1.7063    0.4280 H   0  0  0  0  0  0  0  0  0  0  0  0
   -1.3825   -2.2014   -1.0582 H   0  0  0  0  0  0  0  0  0  0  0  0
    0.2066   -2.4254   -1.7984 H   0  0  0  0  0  0  0  0  0  0  0  0
   -0.3058   -3.4606   -0.4592 H   0  0  0  0  0  0  0  0  0  0  0  0
    2.4308    0.1235   -0.7673 H   0  0  0  0  0  0  0  0  0  0  0  0
    1.6606    1.6745   -1.1903 H   0  0  0  0  0  0  0  0  0  0  0  0
    2.8435    1.6057    0.1355 H   0  0  0  0  0  0  0  0  0  0  0  0
  1  9  1  0  0  0  0
  1 11  1  0  0  0  0
  2  1  1  0  0  0  0
  2  3  1  0  0  0  0
  3  5  1  6  0  0  0
  3  7  1  0  0  0  0
  3  4  1  0  0  0  0
  4 15  1  0  0  0  0
  4 14  1  0  0  0  0
  5 16  1  1  0  0  0
  5  4  1  0  0  0  0
  6 19  1  0  0  0  0
  6  5  1  0  0  0  0
  8 22  1  0  0  0  0
  8  7  1  0  0  0  0
 10  1  1  0  0  0  0
 12  2  1  0  0  0  0
 13  2  1  0  0  0  0
 17  6  1  0  0  0  0
 18  6  1  0  0  0  0
 20  8  1  0  0  0  0
 21  8  1  0  0  0  0
M  END
