22
title
C -2.1227524 0.4357052 1.0907322
C -0.59756005 0.3278443 1.220075
C 0.113250986 0.06934773 -0.09899256
C 0.13030685 1.2121063 -1.1056625
C 0.954613 2.420197 -0.64225477
O 1.3854777 -0.60093236 0.01728776
C 0.30412498 -1.3064154 -0.60582453
C -0.17510013 -2.574748 0.05520084
H -2.418998 1.268522 0.44531575
H -2.5518587 -0.47929466 0.6691247
H -2.5825827 0.60035104 2.0698247
H -0.19991057 1.2498701 1.6604468
H -0.33542874 -0.47038937 1.9189048
H 0.54997516 0.83372563 -2.0437891
H -0.89889574 1.5208172 -1.3271335
H 0.5162554 2.9076285 0.23409626
H 1.9713193 2.109584 -0.38401535
H 1.0190107 3.1706495 -1.4357966
H 0.42284754 -1.4012798 -1.6885763
H -0.3358471 -2.4510543 1.1274945
H -1.1119635 -2.9107733 -0.4027672
H 0.5656723 -3.3695433 -0.0841203
