20
title
C -1.64986 1.9131806 -0.24036339
C -0.9545929 0.66381085 -0.7913555
C -0.0041682585 0.037949726 0.21094605
C -0.5506314 -0.8508649 1.3008189
C 0.28149736 -1.4400244 0.1784521
O -0.32502425 -2.2070384 -0.8211721
O 1.0527277 0.8522229 0.6497202
C 2.0453424 1.1053394 -0.3271841
H -0.9159369 2.6585903 0.07895181
H -2.2955484 2.3696456 -0.99665046
H -2.2686744 1.667617 0.6290777
H -1.6856463 -0.09318574 -1.087239
H -0.40371656 0.9166541 -1.7060059
H -0.09759824 -0.7754673 2.2826393
H -1.6173419 -1.0496516 1.2878697
H 1.299873 -1.7320479 0.43516895
H -0.6169333 -3.0344467 -0.42430648
H 2.4374077 0.17342646 -0.7584
H 1.675382 1.7370503 -1.1463709
H 2.8573658 1.6333146 0.17872247
