22
title
C -1.598388 1.9650623 -0.17340256
C -0.98453134 0.6900354 -0.76346904
C -0.02380836 0.012206542 0.19711767
C -0.5457984 -0.8801329 1.2870746
C 0.2704451 -1.4731182 0.15215419
C -0.3353411 -2.435705 -0.845916
O 1.0435922 0.8258292 0.6252519
C 2.0327213 1.0624963 -0.35640574
H -0.817616 2.6733854 0.116181545
H -2.2584321 2.4554107 -0.89534104
H -2.1847997 1.7373893 0.72283626
H -1.7779248 -0.014129144 -1.0324044
H -0.46554288 0.928352 -1.7009985
H -0.080058515 -0.7935387 2.2618628
H -1.6123639 -1.083799 1.3055465
H 1.2960877 -1.7063233 0.42798913
H -1.3825274 -2.2013927 -1.0582283
H 0.20660913 -2.4254262 -1.7984005
H -0.3058399 -3.460648 -0.4591729
H 2.4308045 0.12350376 -0.7673217
H 1.6606457 1.6745135 -1.1903284
H 2.8435457 1.6056747 0.13552855
