title
 OpenBabel02282109593D

 20 20  0  0  1  0  0  0  0  0999 V2000
   -0.8409    0.6491   -2.2059 C   0  0  0  0  0  0  0  0  0  0  0  0
   -1.1605    0.2491   -0.7596 C   0  0  0  0  0  0  0  0  0  0  0  0
    0.0731    0.0547    0.1026 C   0  0  1  0  0  0  0  0  0  0  0  0
    0.7486    1.3291    0.5812 C   0  0  0  0  0  0  0  0  0  0  0  0
   -0.0920    2.0382    1.4759 O   0  0  0  0  0  0  0  0  0  0  0  0
   -0.0651   -0.8924    1.1890 O   0  0  0  0  0  0  0  0  0  0  0  0
    0.8475   -1.2007    0.1242 C   0  0  1  0  0  0  0  0  0  0  0  0
    0.5506   -2.4211   -0.7101 C   0  0  0  0  0  0  0  0  0  0  0  0
   -0.2480   -0.1194   -2.7125 H   0  0  0  0  0  0  0  0  0  0  0  0
   -1.7622    0.7924   -2.7781 H   0  0  0  0  0  0  0  0  0  0  0  0
   -0.2786    1.5872   -2.2533 H   0  0  0  0  0  0  0  0  0  0  0  0
   -1.7721    1.0247   -0.2851 H   0  0  0  0  0  0  0  0  0  0  0  0
   -1.7529   -0.6695   -0.7420 H   0  0  0  0  0  0  0  0  0  0  0  0
    1.7108    1.0781    1.0518 H   0  0  0  0  0  0  0  0  0  0  0  0
    0.9503    2.0070   -0.2546 H   0  0  0  0  0  0  0  0  0  0  0  0
   -0.3108    1.4189    2.1826 H   0  0  0  0  0  0  0  0  0  0  0  0
    1.8955   -1.1175    0.4228 H   0  0  0  0  0  0  0  0  0  0  0  0
   -0.4925   -2.4586   -1.0287 H   0  0  0  0  0  0  0  0  0  0  0  0
    1.1903   -2.4365   -1.5991 H   0  0  0  0  0  0  0  0  0  0  0  0
    0.7614   -3.3276   -0.1330 H   0  0  0  0  0  0  0  0  0  0  0  0
  1  2  1  0  0  0  0
  2 13  1  0  0  0  0
  2 12  1  0  0  0  0
  2  3  1  0  0  0  0
  3  7  1  6  0  0  0
  3  4  1  0  0  0  0
  3  6  1  0  0  0  0
  4 14  1  0  0  0  0
  4  5  1  0  0  0  0
  5 16  1  0  0  0  0
  7 17  1  1  0  0  0
  7  6  1  0  0  0  0
  8 20  1  0  0  0  0
  8  7  1  0  0  0  0
  9  1  1  0  0  0  0
 10  1  1  0  0  0  0
 11  1  1  0  0  0  0
 15  4  1  0  0  0  0
 18  8  1  0  0  0  0
 19  8  1  0  0  0  0
M  END
