22
title
C -1.8869724 0.51285046 1.2995822
C -0.36799672 0.29464337 1.2929748
C 0.22756138 0.022503281 -0.08265494
C 0.13195994 1.1793048 -1.0544722
O 0.82614475 2.2939029 -0.50362355
C 1.4832611 -0.8167073 -0.17218588
C 0.17842558 -1.3628849 -0.7017899
C -0.50136095 -2.5498307 -0.052833717
H -2.1727383 1.3897542 0.7099876
H -2.4191227 -0.3515735 0.88925177
H -2.2499032 0.67600167 2.3193939
H 0.12834421 1.1813248 1.702339
H -0.12019154 -0.531743 1.967054
H 0.57068676 0.881437 -2.0200746
H -0.9233525 1.4326777 -1.2423502
H 0.65061754 3.0593505 -1.0583917
H 2.2557747 -0.52167886 -0.8746012
H 1.8652086 -1.2410334 0.75152564
H 0.0917776 -1.3660332 -1.7868284
H -0.39658675 -2.5407972 1.0354822
H -1.5721316 -2.5781088 -0.28423014
H -0.06149944 -3.4863863 -0.41390315
