title
 OpenBabel02282109593D

 19 19  0  0  0  0  0  0  0  0999 V2000
   -0.7255    1.6725   -1.2970 C   0  0  0  0  0  0  0  0  0  0  0  0
   -0.4686    0.2352   -1.2582 N   0  0  0  0  0  0  0  0  0  0  0  0
    0.8453   -0.2292   -1.6937 C   0  0  0  0  0  0  0  0  0  0  0  0
    0.4600   -0.3125   -0.2559 C   0  0  0  0  0  0  0  0  0  0  0  0
    1.1131    0.5882    0.7795 C   0  0  0  0  0  0  0  0  0  0  0  0
    0.1875    1.0417    1.7537 O   0  0  0  0  0  0  0  0  0  0  0  0
   -0.0405   -1.6342    0.2970 C   0  0  0  0  0  0  0  0  0  0  0  0
   -1.1271   -1.4306    1.2053 O   0  0  0  0  0  0  0  0  0  0  0  0
    0.1800    2.2948   -1.2565 H   0  0  0  0  0  0  0  0  0  0  0  0
   -1.2510    1.9046   -2.2285 H   0  0  0  0  0  0  0  0  0  0  0  0
   -1.3610    1.9491   -0.4523 H   0  0  0  0  0  0  0  0  0  0  0  0
    0.8636   -1.1206   -2.3168 H   0  0  0  0  0  0  0  0  0  0  0  0
    1.5820    0.5260   -1.9663 H   0  0  0  0  0  0  0  0  0  0  0  0
    1.9474    0.0354    1.2442 H   0  0  0  0  0  0  0  0  0  0  0  0
    1.5459    1.4789    0.3156 H   0  0  0  0  0  0  0  0  0  0  0  0
   -0.3441    0.2721    2.0038 H   0  0  0  0  0  0  0  0  0  0  0  0
   -0.3449   -2.2937   -0.5257 H   0  0  0  0  0  0  0  0  0  0  0  0
    0.7413   -2.1404    0.8732 H   0  0  0  0  0  0  0  0  0  0  0  0
   -1.8250   -1.0120    0.6854 H   0  0  0  0  0  0  0  0  0  0  0  0
  1  2  1  0  0  0  0
  1  9  1  0  0  0  0
  1 11  1  0  0  0  0
  2  4  1  0  0  0  0
  3  2  1  0  0  0  0
  3  4  1  0  0  0  0
  4  7  1  0  0  0  0
  4  5  1  0  0  0  0
  5 14  1  0  0  0  0
  5  6  1  0  0  0  0
  6 16  1  0  0  0  0
  7 18  1  0  0  0  0
  7  8  1  0  0  0  0
 10  1  1  0  0  0  0
 12  3  1  0  0  0  0
 13  3  1  0  0  0  0
 15  5  1  0  0  0  0
 17  7  1  0  0  0  0
 19  8  1  0  0  0  0
M  END
