20
title
C -0.8409036 0.64912087 -2.2058923
C -1.1604913 0.24905173 -0.75964963
C 0.07305988 0.05466275 0.10261506
C 0.7486424 1.3290669 0.58121926
O -0.09201772 2.0382423 1.4759437
O -0.065070786 -0.89237374 1.1889981
C 0.84746295 -1.200732 0.12422258
C 0.5505995 -2.4211197 -0.71007687
H -0.2479779 -0.119418755 -2.7124832
H -1.7622266 0.7923613 -2.7780585
H -0.27856037 1.5871768 -2.2532878
H -1.7721052 1.0246888 -0.28509527
H -1.7529194 -0.6694632 -0.7420019
H 1.7107592 1.0781419 1.051802
H 0.95034176 2.0070024 -0.2546032
H -0.31080845 1.4188931 2.1826355
H 1.8955171 -1.117537 0.42281264
H -0.49245867 -2.458561 -1.0286765
H 1.1902846 -2.4365008 -1.5990909
H 0.76144296 -3.3276386 -0.1330362
