21
title
C 1.1006091 -1.1453402 2.0744772
C 0.008283662 -0.30362833 1.400825
C 0.18023132 -0.18916164 -0.10610004
C 1.2887357 0.7516166 -0.55591637
O 0.9198926 2.1030772 -0.33682543
C -0.20840506 -1.3151611 -1.0050339
N -0.97289693 -0.06953887 -1.019251
C -2.3389294 -0.11527855 -0.5175944
H 1.1027603 -2.1706839 1.6899446
H 2.0982246 -0.7269969 1.9091009
H 0.9408663 -1.1919183 3.1561117
H -0.9667147 -0.737783 1.6397737
H 0.012335466 0.7110525 1.8167491
H 2.2077136 0.5867276 0.015742945
H 1.5141451 0.5680006 -1.6164566
H 0.10111128 2.2251334 -0.8331196
H 0.36391944 -1.5439757 -1.9012979
H -0.67652315 -2.1819544 -0.53784186
H -2.528436 -0.89771056 0.23260294
H -2.603531 0.85210764 -0.07829602
H -3.010946 -0.29772803 -1.362626
