20
title
C -2.2915504 -0.22684191 0.39858863
C -0.96303815 0.33681926 0.9190725
C 0.21005578 0.13629927 -0.031247642
C 0.14493926 0.9078697 -1.3300991
O 0.19094367 2.2976544 -1.0269833
C 1.5917498 -0.05449121 0.5722959
C 0.8793077 -1.2113998 -0.08327713
O 0.32337186 -2.2292082 0.70076376
H -2.6037726 0.25185716 -0.5355005
H -2.210646 -1.3029927 0.22065273
H -3.090785 -0.0628035 1.1285198
H -1.0607251 1.4104049 1.1136264
H -0.7282723 -0.14340083 1.8728104
H 0.9906594 0.6182465 -1.9745219
H -0.77827686 0.65531677 -1.874109
H 0.021976903 2.7860265 -1.837913
H 2.4477472 0.38534245 0.071396925
H 1.6550072 -0.06715184 1.6554306
H 1.2539994 -1.5478145 -1.0511608
H 1.0461571 -2.7378986 1.0820868
