title
 OpenBabel02282109593D

 22 22  0  0  1  0  0  0  0  0999 V2000
   -2.1228    0.4357    1.0907 C   0  0  0  0  0  0  0  0  0  0  0  0
   -0.5976    0.3278    1.2201 C   0  0  0  0  0  0  0  0  0  0  0  0
    0.1133    0.0693   -0.0990 C   0  0  0  0  0  0  0  0  0  0  0  0
    0.1303    1.2121   -1.1057 C   0  0  0  0  0  0  0  0  0  0  0  0
    0.9546    2.4202   -0.6423 C   0  0  0  0  0  0  0  0  0  0  0  0
    1.3855   -0.6009    0.0173 O   0  0  0  0  0  0  0  0  0  0  0  0
    0.3041   -1.3064   -0.6058 C   0  0  1  0  0  0  0  0  0  0  0  0
   -0.1751   -2.5747    0.0552 C   0  0  0  0  0  0  0  0  0  0  0  0
   -2.4190    1.2685    0.4453 H   0  0  0  0  0  0  0  0  0  0  0  0
   -2.5519   -0.4793    0.6691 H   0  0  0  0  0  0  0  0  0  0  0  0
   -2.5826    0.6004    2.0698 H   0  0  0  0  0  0  0  0  0  0  0  0
   -0.1999    1.2499    1.6604 H   0  0  0  0  0  0  0  0  0  0  0  0
   -0.3354   -0.4704    1.9189 H   0  0  0  0  0  0  0  0  0  0  0  0
    0.5500    0.8337   -2.0438 H   0  0  0  0  0  0  0  0  0  0  0  0
   -0.8989    1.5208   -1.3271 H   0  0  0  0  0  0  0  0  0  0  0  0
    0.5163    2.9076    0.2341 H   0  0  0  0  0  0  0  0  0  0  0  0
    1.9713    2.1096   -0.3840 H   0  0  0  0  0  0  0  0  0  0  0  0
    1.0190    3.1706   -1.4358 H   0  0  0  0  0  0  0  0  0  0  0  0
    0.4228   -1.4013   -1.6886 H   0  0  0  0  0  0  0  0  0  0  0  0
   -0.3358   -2.4511    1.1275 H   0  0  0  0  0  0  0  0  0  0  0  0
   -1.1120   -2.9108   -0.4028 H   0  0  0  0  0  0  0  0  0  0  0  0
    0.5657   -3.3695   -0.0841 H   0  0  0  0  0  0  0  0  0  0  0  0
  1  2  1  0  0  0  0
  1 11  1  0  0  0  0
  2 12  1  0  0  0  0
  2 13  1  0  0  0  0
  3  6  1  0  0  0  0
  3  2  1  0  0  0  0
  4  5  1  0  0  0  0
  4  3  1  0  0  0  0
  5 17  1  0  0  0  0
  5 16  1  0  0  0  0
  7 19  1  6  0  0  0
  7  3  1  0  0  0  0
  7  6  1  0  0  0  0
  7  8  1  0  0  0  0
  8 20  1  0  0  0  0
  9  1  1  0  0  0  0
 10  1  1  0  0  0  0
 14  4  1  0  0  0  0
 15  4  1  0  0  0  0
 18  5  1  0  0  0  0
 21  8  1  0  0  0  0
 22  8  1  0  0  0  0
M  END
