title
 OpenBabel02282109593D

 20 20  0  0  1  0  0  0  0  0999 V2000
    1.6851    1.3888    0.1469 C   0  0  0  0  0  0  0  0  0  0  0  0
    1.1183    0.1452    0.5345 O   0  0  0  0  0  0  0  0  0  0  0  0
   -0.1722   -0.1078    0.0576 C   0  0  1  0  0  0  0  0  0  0  0  0
   -1.2798    0.5914    0.8083 C   0  0  0  0  0  0  0  0  0  0  0  0
   -1.3119    1.9693    0.4423 O   0  0  0  0  0  0  0  0  0  0  0  0
   -0.3451   -0.3880   -1.4181 C   0  0  0  0  0  0  0  0  0  0  0  0
   -0.4114   -1.5221   -0.4156 C   0  0  1  0  0  0  0  0  0  0  0  0
    0.6889   -2.5570   -0.3527 C   0  0  0  0  0  0  0  0  0  0  0  0
    2.7057    1.3971    0.5386 H   0  0  0  0  0  0  0  0  0  0  0  0
    1.7219    1.4902   -0.9467 H   0  0  0  0  0  0  0  0  0  0  0  0
    1.1241    2.2359    0.5526 H   0  0  0  0  0  0  0  0  0  0  0  0
   -2.2392    0.1052    0.5735 H   0  0  0  0  0  0  0  0  0  0  0  0
   -1.0948    0.4736    1.8865 H   0  0  0  0  0  0  0  0  0  0  0  0
   -1.9248    2.4191    1.0318 H   0  0  0  0  0  0  0  0  0  0  0  0
   -1.2512   -0.0502   -1.9087 H   0  0  0  0  0  0  0  0  0  0  0  0
    0.5481   -0.3312   -2.0312 H   0  0  0  0  0  0  0  0  0  0  0  0
   -1.4066   -1.9115   -0.2140 H   0  0  0  0  0  0  0  0  0  0  0  0
    1.6678   -2.0901   -0.4792 H   0  0  0  0  0  0  0  0  0  0  0  0
    0.6913   -3.0725    0.6138 H   0  0  0  0  0  0  0  0  0  0  0  0
    0.5580   -3.3117   -1.1356 H   0  0  0  0  0  0  0  0  0  0  0  0
  1  2  1  0  0  0  0
  1  9  1  0  0  0  0
  1 11  1  0  0  0  0
  3  7  1  1  0  0  0
  3  2  1  0  0  0  0
  3  4  1  0  0  0  0
  4 13  1  0  0  0  0
  5  4  1  0  0  0  0
  5 14  1  0  0  0  0
  6  7  1  0  0  0  0
  6  3  1  0  0  0  0
  7  8  1  0  0  0  0
  7 17  1  1  0  0  0
  8 19  1  0  0  0  0
 10  1  1  0  0  0  0
 12  4  1  0  0  0  0
 15  6  1  0  0  0  0
 16  6  1  0  0  0  0
 18  8  1  0  0  0  0
 20  8  1  0  0  0  0
M  END
