title
 OpenBabel02282109593D

 18 18  0  0  1  0  0  0  0  0999 V2000
    1.5475    0.1262    1.4516 C   0  0  0  0  0  0  0  0  0  0  0  0
    1.1009    0.4524    0.1348 O   0  0  0  0  0  0  0  0  0  0  0  0
   -0.2310    0.0691   -0.1378 C   0  0  1  0  0  0  0  0  0  0  0  0
   -1.2715    0.8316    0.6450 C   0  0  0  0  0  0  0  0  0  0  0  0
   -1.1977    2.2245    0.3922 O   0  0  0  0  0  0  0  0  0  0  0  0
   -0.4639   -0.2513   -1.5953 C   0  0  0  0  0  0  0  0  0  0  0  0
   -0.4063   -1.3660   -0.5749 C   0  0  1  0  0  0  0  0  0  0  0  0
    0.6859   -2.2339   -0.5293 O   0  0  0  0  0  0  0  0  0  0  0  0
    2.6203    0.3319    1.4728 H   0  0  0  0  0  0  0  0  0  0  0  0
    1.0588    0.7441    2.2151 H   0  0  0  0  0  0  0  0  0  0  0  0
    1.3732   -0.9311    1.6805 H   0  0  0  0  0  0  0  0  0  0  0  0
   -2.2708    0.4992    0.3455 H   0  0  0  0  0  0  0  0  0  0  0  0
   -1.1734    0.6202    1.7223 H   0  0  0  0  0  0  0  0  0  0  0  0
   -0.2597    2.4453    0.3577 H   0  0  0  0  0  0  0  0  0  0  0  0
   -1.4158    0.0262   -2.0346 H   0  0  0  0  0  0  0  0  0  0  0  0
    0.3922   -0.1490   -2.2543 H   0  0  0  0  0  0  0  0  0  0  0  0
   -1.3194   -1.8927   -0.3172 H   0  0  0  0  0  0  0  0  0  0  0  0
    1.4769   -1.6908   -0.6322 H   0  0  0  0  0  0  0  0  0  0  0  0
  1  9  1  0  0  0  0
  1 11  1  0  0  0  0
  1 10  1  0  0  0  0
  2  1  1  0  0  0  0
  3  7  1  1  0  0  0
  3  2  1  0  0  0  0
  3  4  1  0  0  0  0
  4 13  1  0  0  0  0
  5  4  1  0  0  0  0
  6  7  1  0  0  0  0
  6  3  1  0  0  0  0
  7  8  1  0  0  0  0
  7 17  1  1  0  0  0
 12  4  1  0  0  0  0
 14  5  1  0  0  0  0
 15  6  1  0  0  0  0
 16  6  1  0  0  0  0
 18  8  1  0  0  0  0
M  END
