title
 OpenBabel02282109593D

 16 16  0  0  1  0  0  0  0  0999 V2000
   -0.6571    2.0704   -1.4802 C   0  0  0  0  0  0  0  0  0  0  0  0
   -0.6313    0.5864   -1.2173 C   0  0  1  0  0  0  0  0  0  0  0  0
    0.6346   -0.0731   -1.1894 O   0  0  0  0  0  0  0  0  0  0  0  0
   -0.1561   -0.0710    0.0277 C   0  0  1  0  0  0  0  0  0  0  0  0
    0.5042    0.6872    1.1684 C   0  0  0  0  0  0  0  0  0  0  0  0
    1.6743    0.0253    1.6028 O   0  0  0  0  0  0  0  0  0  0  0  0
   -0.7243   -1.3499    0.3879 C   0  0  0  0  0  0  0  0  0  0  0  0
   -1.2201   -2.3962    0.7099 C   0  0  0  0  0  0  0  0  0  0  0  0
    0.1354    2.6013   -0.9512 H   0  0  0  0  0  0  0  0  0  0  0  0
   -0.5271    2.2525   -2.5522 H   0  0  0  0  0  0  0  0  0  0  0  0
   -1.6241    2.4910   -1.1852 H   0  0  0  0  0  0  0  0  0  0  0  0
   -1.3921    0.0248   -1.7626 H   0  0  0  0  0  0  0  0  0  0  0  0
    0.7176    1.7166    0.8542 H   0  0  0  0  0  0  0  0  0  0  0  0
   -0.1716    0.7252    2.0279 H   0  0  0  0  0  0  0  0  0  0  0  0
    2.2334   -0.0889    0.8254 H   0  0  0  0  0  0  0  0  0  0  0  0
   -1.6462   -3.3274    0.9917 H   0  0  0  0  0  0  0  0  0  0  0  0
  1  2  1  0  0  0  0
  1 11  1  0  0  0  0
  1  9  1  0  0  0  0
  2  3  1  0  0  0  0
  2  4  1  1  0  0  0
  3  4  1  0  0  0  0
  4  7  1  1  0  0  0
  4  5  1  0  0  0  0
  5  6  1  0  0  0  0
  5 14  1  0  0  0  0
  7  8  3  0  0  0  0
  8 16  1  0  0  0  0
 10  1  1  0  0  0  0
 12  2  1  0  0  0  0
 13  5  1  0  0  0  0
 15  6  1  0  0  0  0
M  END
