18
title
O 1.4988669 1.5566151 -0.46690044
C 1.2642344 0.35701764 0.24907829
C -0.16893753 -0.13462827 0.115612485
C -1.1739365 0.64084613 0.9311335
O -1.1607374 2.0002608 0.47915763
C -0.5997989 -0.6538252 -1.2450148
C -0.4316922 -1.6041688 -0.09012616
O 0.665696 -2.469385 -0.037095774
H 0.76400876 2.1444602 -0.2490713
H 1.9508388 -0.3945487 -0.14597566
H 1.4984956 0.47947386 1.3208716
H -2.1804104 0.20959131 0.8205609
H -0.9025756 0.59129775 1.9968879
H -1.6317893 2.541284 1.1197236
H -1.600958 -0.43234015 -1.5996467
H 0.16527233 -0.6619896 -2.0137753
H -1.3389693 -2.0082028 0.36226055
H 0.5712997 -3.1102252 -0.7491126
