title
 OpenBabel02282109593D

 17 17  0  0  1  0  0  0  0  0999 V2000
   -0.6964    2.1223   -1.4006 C   0  0  0  0  0  0  0  0  0  0  0  0
   -0.6326    0.6262   -1.2100 C   0  0  1  0  0  0  0  0  0  0  0  0
    0.6811   -0.0213   -1.2634 N   0  0  0  0  0  0  0  0  0  0  0  0
   -0.0757   -0.0522    0.0125 C   0  0  1  0  0  0  0  0  0  0  0  0
    0.5768    0.6791    1.1732 C   0  0  0  0  0  0  0  0  0  0  0  0
    1.7016   -0.1148    1.6601 N   0  0  0  0  0  0  0  0  0  0  0  0
   -0.7066   -1.3081    0.3655 C   0  0  0  0  0  0  0  0  0  0  0  0
   -1.2285   -2.3080    0.6223 N   0  0  0  0  0  0  0  0  0  0  0  0
    0.1903    2.6191   -1.0040 H   0  0  0  0  0  0  0  0  0  0  0  0
   -0.7570    2.3533   -2.4693 H   0  0  0  0  0  0  0  0  0  0  0  0
   -1.5847    2.5394   -0.9156 H   0  0  0  0  0  0  0  0  0  0  0  0
   -1.4572    0.0853   -1.6713 H   0  0  0  0  0  0  0  0  0  0  0  0
    0.6311   -0.9228   -1.7308 H   0  0  0  0  0  0  0  0  0  0  0  0
    0.8443    1.6908    0.8374 H   0  0  0  0  0  0  0  0  0  0  0  0
   -0.1533    0.7847    1.9834 H   0  0  0  0  0  0  0  0  0  0  0  0
    2.4268   -0.1330    0.9490 H   0  0  0  0  0  0  0  0  0  0  0  0
    2.1048    0.3143    2.4860 H   0  0  0  0  0  0  0  0  0  0  0  0
  1  2  1  0  0  0  0
  1  9  1  0  0  0  0
  1 11  1  0  0  0  0
  2  4  1  1  0  0  0
  3  2  1  0  0  0  0
  3  4  1  0  0  0  0
  4  7  1  1  0  0  0
  4  5  1  0  0  0  0
  5  6  1  0  0  0  0
  5 15  1  0  0  0  0
  6 17  1  0  0  0  0
  7  8  3  0  0  0  0
 10  1  1  0  0  0  0
 12  2  1  0  0  0  0
 13  3  1  0  0  0  0
 14  5  1  0  0  0  0
 16  6  1  0  0  0  0
M  END
