16
title
C -0.6304379 2.1213632 -1.4368134
C -0.6289045 0.63425815 -1.1967657
O 0.62289506 -0.055872776 -1.2215
C -0.10362229 -0.03782276 0.018393556
C 0.5700651 0.67818743 1.1734487
N 1.674853 -0.14337175 1.6572496
C -0.7076925 -1.31624 0.37271693
N -1.2321111 -2.3069139 0.6531244
H 0.20048323 2.6226668 -0.93896866
H -0.5489553 2.3154023 -2.5111473
H -1.5712764 2.5597496 -1.0886339
H -1.4231542 0.09419515 -1.7145088
H 0.8568606 1.6856922 0.841284
H -0.15901366 0.79371166 1.983636
H 2.4078193 -0.17981164 0.9555976
H 2.0789304 0.26239562 2.4939382
