title
 OpenBabel02282109593D

 16 16  0  0  1  0  0  0  0  0999 V2000
   -0.7262    2.0891   -1.4292 C   0  0  0  0  0  0  0  0  0  0  0  0
   -0.6144    0.5960   -1.2405 C   0  0  1  0  0  0  0  0  0  0  0  0
    0.7244   -0.0003   -1.2128 N   0  0  0  0  0  0  0  0  0  0  0  0
   -0.1111   -0.0676    0.0135 C   0  0  1  0  0  0  0  0  0  0  0  0
    0.4800    0.6790    1.2023 C   0  0  0  0  0  0  0  0  0  0  0  0
    1.6618    0.0554    1.6518 O   0  0  0  0  0  0  0  0  0  0  0  0
   -0.7000   -1.3503    0.3331 C   0  0  0  0  0  0  0  0  0  0  0  0
   -1.1728   -2.3769    0.5793 N   0  0  0  0  0  0  0  0  0  0  0  0
    0.1097    2.6209   -0.9723 H   0  0  0  0  0  0  0  0  0  0  0  0
   -0.7231    2.3229   -2.4988 H   0  0  0  0  0  0  0  0  0  0  0  0
   -1.6622    2.4658   -1.0051 H   0  0  0  0  0  0  0  0  0  0  0  0
   -1.3845    0.0249   -1.7565 H   0  0  0  0  0  0  0  0  0  0  0  0
    0.7377   -0.9002   -1.6860 H   0  0  0  0  0  0  0  0  0  0  0  0
    0.6537    1.7246    0.9191 H   0  0  0  0  0  0  0  0  0  0  0  0
   -0.2219    0.6663    2.0411 H   0  0  0  0  0  0  0  0  0  0  0  0
    2.2652    0.0369    0.8991 H   0  0  0  0  0  0  0  0  0  0  0  0
  1  2  1  0  0  0  0
  1 11  1  0  0  0  0
  1  9  1  0  0  0  0
  2  3  1  0  0  0  0
  2  4  1  1  0  0  0
  3  4  1  0  0  0  0
  4  7  1  1  0  0  0
  4  5  1  0  0  0  0
  5  6  1  0  0  0  0
  5 15  1  0  0  0  0
  7  8  3  0  0  0  0
 10  1  1  0  0  0  0
 12  2  1  0  0  0  0
 13  3  1  0  0  0  0
 14  5  1  0  0  0  0
 16  6  1  0  0  0  0
M  END
