16
title
C -0.726197 2.0890853 -1.4292257
C -0.6143691 0.5960169 -1.2405226
N 0.72436833 -0.00029468705 -1.2127697
C -0.11111722 -0.06756455 0.013460637
C 0.48002198 0.6790483 1.2023187
O 1.6618077 0.05543226 1.6518478
C -0.70002484 -1.3502606 0.33309686
N -1.1728249 -2.3769403 0.5792831
H 0.109741114 2.6208503 -0.9723299
H -0.7230958 2.3228724 -2.4988458
H -1.6622238 2.4658172 -1.005069
H -1.3844848 0.024850307 -1.7564791
H 0.7377056 -0.90016735 -1.6859629
H 0.6536994 1.7246457 0.9190805
H -0.22186786 0.66631913 2.041075
H 2.265219 0.036871076 0.8991363
