19
title
C -1.151273 2.0139544 -0.90982556
C -0.5552911 0.63269377 -1.1991031
C 0.09144212 0.008761507 0.030965118
N -0.85151166 -0.56032807 1.0316542
C 0.05489953 -1.4681281 0.31944397
C -0.55791795 -2.5040612 -0.59173787
C 1.2395934 0.720394 0.54168046
C 2.1875634 1.3276383 0.96776783
H -0.3811664 2.7118924 -0.5678293
H -1.6153109 2.4332979 -1.8074101
H -1.9161152 1.9428815 -0.13057825
H -1.3417253 -0.035469938 -1.5584791
H 0.1976315 0.7030882 -1.9930929
H -0.5106495 -0.37462878 1.9713281
H 0.9184863 -1.8269659 0.8774725
H -1.4630545 -2.1331294 -1.0754243
H 0.1533543 -2.815446 -1.363993
H -0.8338987 -3.3914056 -0.0116916625
H 3.027099 1.8587425 1.34281
