17
title
C 1.356637 2.058296 -0.4749131
C 1.281127 0.6408645 0.09986747
C -0.11351306 0.028506175 0.0034331144
C -0.5699616 -0.58781815 -1.322661
C -0.27292854 -1.4760158 -0.14983979
O 0.9026382 -2.2207265 -0.11436971
C -1.1278098 0.6915233 0.78569704
N -1.9347565 1.2297653 1.4168854
H 2.370431 2.4575577 -0.3786954
H 1.0882632 2.070959 -1.5364808
H 0.6767847 2.736655 0.049884535
H 1.974329 -0.025848433 -0.41849968
H 1.5868312 0.6470069 1.152194
H -1.5994844 -0.45154414 -1.6315603
H 0.1652767 -0.56081843 -2.1198127
H -1.1200285 -1.9230227 0.36837456
H 0.82002133 -2.9421167 -0.74718225
