18
title
C -1.1407942 2.0002658 -0.98565954
C -0.5348666 0.6069801 -1.1754755
C 0.07576155 0.040738404 0.10486369
C -0.86554945 -0.5871384 1.1401027
C 0.05052607 -1.461271 0.33321825
O -0.4623194 -2.2480059 -0.6991944
C 1.2250133 0.7463304 0.6084079
C 2.1866488 1.3440765 1.016266
H -0.38840756 2.711362 -0.6313788
H -1.5473201 2.3781974 -1.9287308
H -1.9537145 1.9819436 -0.25184783
H -1.290511 -0.09649542 -1.5341657
H 0.2455654 0.64290917 -1.9442894
H -0.65380514 -0.43225566 2.191431
H -1.9172068 -0.5980917 0.8721369
H 0.91983104 -1.8793281 0.83870703
H -0.98929095 -2.9501345 -0.3034955
H 3.0359793 1.8693444 1.3764225
