title
 OpenBabel02282109593D

 18 18  0  0  1  0  0  0  0  0999 V2000
   -0.7236    1.7451    1.3726 C   0  0  0  0  0  0  0  0  0  0  0  0
   -0.2738    0.2812    1.4394 C   0  0  0  0  0  0  0  0  0  0  0  0
    0.2565   -0.2598    0.1144 C   0  0  1  0  0  0  0  0  0  0  0  0
    0.1647   -1.7291   -0.1922 C   0  0  0  0  0  0  0  0  0  0  0  0
   -0.6043   -0.7747   -0.9641 N   0  0  0  0  0  0  0  0  0  0  0  0
   -2.0531   -0.7590   -0.8196 C   0  0  0  0  0  0  0  0  0  0  0  0
    1.4161    0.4624   -0.3834 C   0  0  0  0  0  0  0  0  0  0  0  0
    2.3488    1.0445   -0.7413 N   0  0  0  0  0  0  0  0  0  0  0  0
    0.0951    2.3922    1.0443 H   0  0  0  0  0  0  0  0  0  0  0  0
   -1.5559    1.8779    0.6749 H   0  0  0  0  0  0  0  0  0  0  0  0
   -1.0519    2.0895    2.3573 H   0  0  0  0  0  0  0  0  0  0  0  0
    0.5246    0.1739    2.1830 H   0  0  0  0  0  0  0  0  0  0  0  0
   -1.0947   -0.3554    1.7811 H   0  0  0  0  0  0  0  0  0  0  0  0
    0.9712   -2.2356   -0.7147 H   0  0  0  0  0  0  0  0  0  0  0  0
   -0.3527   -2.3304    0.5559 H   0  0  0  0  0  0  0  0  0  0  0  0
   -2.4203   -1.0130    0.1856 H   0  0  0  0  0  0  0  0  0  0  0  0
   -2.4337    0.2290   -1.0934 H   0  0  0  0  0  0  0  0  0  0  0  0
   -2.4671   -1.4882   -1.5225 H   0  0  0  0  0  0  0  0  0  0  0  0
  1  2  1  0  0  0  0
  1 11  1  0  0  0  0
  2 13  1  0  0  0  0
  2 12  1  0  0  0  0
  3  7  1  6  0  0  0
  3  2  1  0  0  0  0
  4  3  1  0  0  0  0
  4 15  1  0  0  0  0
  5  6  1  0  0  0  0
  5  4  1  0  0  0  0
  5  3  1  0  0  0  0
  6 16  1  0  0  0  0
  8  7  3  0  0  0  0
  9  1  1  0  0  0  0
 10  1  1  0  0  0  0
 14  4  1  0  0  0  0
 17  6  1  0  0  0  0
 18  6  1  0  0  0  0
M  END
