17
title
C -0.71092296 1.7611315 -1.3067119
N -0.47238424 0.32383028 -1.2692775
C 0.8608377 -0.17113577 -1.5457597
C 0.29808074 -0.25372562 -0.15456942
C 0.8966012 0.615678 0.94653547
O -0.069762096 1.0040534 1.9042732
C -0.21974184 -1.5044556 0.3546674
C -0.62917167 -2.521005 0.8513833
H 0.18260352 2.3781009 -1.1286418
H -1.1008064 2.0157387 -2.2970626
H -1.4623743 2.0193963 -0.55648917
H 0.92945325 -1.0659089 -2.1580153
H 1.6612041 0.55449396 -1.6980952
H 1.7290945 0.064394414 1.4099013
H 1.305303 1.5388023 0.5300056
H -0.48087552 0.19661592 2.236104
H -0.9985615 -3.4305875 1.256699
