title
 OpenBabel02282109593D

 17 17  0  0  1  0  0  0  0  0999 V2000
   -1.0076    1.8831   -0.8551 C   0  0  0  0  0  0  0  0  0  0  0  0
   -0.4614    0.5823   -1.0376 O   0  0  0  0  0  0  0  0  0  0  0  0
    0.0547    0.0147    0.1205 C   0  0  1  0  0  0  0  0  0  0  0  0
   -0.9046   -0.6311    1.1125 C   0  0  0  0  0  0  0  0  0  0  0  0
   -0.0386   -1.4947    0.2324 C   0  0  1  0  0  0  0  0  0  0  0  0
   -0.6262   -2.2993   -0.9045 C   0  0  0  0  0  0  0  0  0  0  0  0
    1.2381    0.6703    0.6424 C   0  0  0  0  0  0  0  0  0  0  0  0
    2.1760    1.2092    1.0529 N   0  0  0  0  0  0  0  0  0  0  0  0
   -0.2412    2.5955   -0.5244 H   0  0  0  0  0  0  0  0  0  0  0  0
   -1.3940    2.1950   -1.8269 H   0  0  0  0  0  0  0  0  0  0  0  0
   -1.8253    1.8737   -0.1222 H   0  0  0  0  0  0  0  0  0  0  0  0
   -0.6861   -0.5574    2.1713 H   0  0  0  0  0  0  0  0  0  0  0  0
   -1.9535   -0.5456    0.8480 H   0  0  0  0  0  0  0  0  0  0  0  0
    0.8126   -1.9534    0.7268 H   0  0  0  0  0  0  0  0  0  0  0  0
   -1.4260   -1.7496   -1.4039 H   0  0  0  0  0  0  0  0  0  0  0  0
    0.1371   -2.5347   -1.6524 H   0  0  0  0  0  0  0  0  0  0  0  0
   -1.0339   -3.2428   -0.5275 H   0  0  0  0  0  0  0  0  0  0  0  0
  1  9  1  0  0  0  0
  1 11  1  0  0  0  0
  2  1  1  0  0  0  0
  2  3  1  0  0  0  0
  3  5  1  6  0  0  0
  3  7  1  0  0  0  0
  3  4  1  0  0  0  0
  4 12  1  0  0  0  0
  5 14  1  1  0  0  0
  5  4  1  0  0  0  0
  6 17  1  0  0  0  0
  6  5  1  0  0  0  0
  7  8  3  0  0  0  0
 10  1  1  0  0  0  0
 13  4  1  0  0  0  0
 15  6  1  0  0  0  0
 16  6  1  0  0  0  0
M  END
