17
title
C -1.007641 1.8831444 -0.85508287
O -0.46136785 0.5823452 -1.037567
C 0.05470956 0.014717616 0.1205181
C -0.90462565 -0.63110685 1.1124959
C -0.03861534 -1.4947053 0.23236658
C -0.62625 -2.299322 -0.904519
C 1.2380576 0.67034274 0.64242804
N 2.1759996 1.2091978 1.0528564
H -0.24120437 2.5954542 -0.5243689
H -1.3939799 2.1949978 -1.8268977
H -1.8253416 1.8737314 -0.12215315
H -0.68608177 -0.5574031 2.171292
H -1.9535319 -0.545565 0.84799457
H 0.812565 -1.953365 0.72677624
H -1.4260361 -1.7495733 -1.4038868
H 0.13713826 -2.5347393 -1.6523708
H -1.0339403 -3.24278 -0.5275345
