title
 OpenBabel02282109593D

 16 16  0  0  1  0  0  0  0  0999 V2000
   -0.6986    1.7580   -1.3176 C   0  0  0  0  0  0  0  0  0  0  0  0
   -0.4601    0.3193   -1.2697 N   0  0  0  0  0  0  0  0  0  0  0  0
    0.8673   -0.1880   -1.5416 C   0  0  0  0  0  0  0  0  0  0  0  0
    0.3027   -0.2435   -0.1499 C   0  0  1  0  0  0  0  0  0  0  0  0
    0.8997    0.6184    0.9587 C   0  0  0  0  0  0  0  0  0  0  0  0
   -0.0762    1.0609    1.8793 O   0  0  0  0  0  0  0  0  0  0  0  0
   -0.2338   -1.4937    0.3587 C   0  0  0  0  0  0  0  0  0  0  0  0
   -0.6357   -2.4711    0.8285 N   0  0  0  0  0  0  0  0  0  0  0  0
    0.1973    2.3722   -1.1468 H   0  0  0  0  0  0  0  0  0  0  0  0
   -1.0908    2.0013   -2.3091 H   0  0  0  0  0  0  0  0  0  0  0  0
   -1.4479    2.0204   -0.5674 H   0  0  0  0  0  0  0  0  0  0  0  0
    0.9300   -1.0908   -2.1420 H   0  0  0  0  0  0  0  0  0  0  0  0
    1.6771    0.5268   -1.6931 H   0  0  0  0  0  0  0  0  0  0  0  0
    1.7029    0.0508    1.4511 H   0  0  0  0  0  0  0  0  0  0  0  0
    1.3481    1.5169    0.5300 H   0  0  0  0  0  0  0  0  0  0  0  0
   -0.4307    0.2899    2.3373 H   0  0  0  0  0  0  0  0  0  0  0  0
  1  2  1  0  0  0  0
  1  9  1  0  0  0  0
  1 11  1  0  0  0  0
  2  4  1  0  0  0  0
  3  2  1  0  0  0  0
  3  4  1  0  0  0  0
  4  7  1  1  0  0  0
  4  5  1  0  0  0  0
  5 14  1  0  0  0  0
  5  6  1  0  0  0  0
  6 16  1  0  0  0  0
  7  8  3  0  0  0  0
 10  1  1  0  0  0  0
 12  3  1  0  0  0  0
 13  3  1  0  0  0  0
 15  5  1  0  0  0  0
M  END
