title
 OpenBabel02282109593D

 17 17  0  0  1  0  0  0  0  0999 V2000
   -0.7109    1.7611   -1.3067 C   0  0  0  0  0  0  0  0  0  0  0  0
   -0.4724    0.3238   -1.2693 N   0  0  0  0  0  0  0  0  0  0  0  0
    0.8608   -0.1711   -1.5458 C   0  0  0  0  0  0  0  0  0  0  0  0
    0.2981   -0.2537   -0.1546 C   0  0  1  0  0  0  0  0  0  0  0  0
    0.8966    0.6157    0.9465 C   0  0  0  0  0  0  0  0  0  0  0  0
   -0.0698    1.0041    1.9043 O   0  0  0  0  0  0  0  0  0  0  0  0
   -0.2197   -1.5045    0.3547 C   0  0  0  0  0  0  0  0  0  0  0  0
   -0.6292   -2.5210    0.8514 C   0  0  0  0  0  0  0  0  0  0  0  0
    0.1826    2.3781   -1.1286 H   0  0  0  0  0  0  0  0  0  0  0  0
   -1.1008    2.0157   -2.2971 H   0  0  0  0  0  0  0  0  0  0  0  0
   -1.4624    2.0194   -0.5565 H   0  0  0  0  0  0  0  0  0  0  0  0
    0.9295   -1.0659   -2.1580 H   0  0  0  0  0  0  0  0  0  0  0  0
    1.6612    0.5545   -1.6981 H   0  0  0  0  0  0  0  0  0  0  0  0
    1.7291    0.0644    1.4099 H   0  0  0  0  0  0  0  0  0  0  0  0
    1.3053    1.5388    0.5300 H   0  0  0  0  0  0  0  0  0  0  0  0
   -0.4809    0.1966    2.2361 H   0  0  0  0  0  0  0  0  0  0  0  0
   -0.9986   -3.4306    1.2567 H   0  0  0  0  0  0  0  0  0  0  0  0
  1  2  1  0  0  0  0
  1  9  1  0  0  0  0
  1 11  1  0  0  0  0
  2  4  1  0  0  0  0
  3  2  1  0  0  0  0
  3  4  1  0  0  0  0
  4  7  1  1  0  0  0
  4  5  1  0  0  0  0
  5 14  1  0  0  0  0
  5  6  1  0  0  0  0
  6 16  1  0  0  0  0
  7  8  3  0  0  0  0
  8 17  1  0  0  0  0
 10  1  1  0  0  0  0
 12  3  1  0  0  0  0
 13  3  1  0  0  0  0
 15  5  1  0  0  0  0
M  END
