title
 OpenBabel02282109593D

 18 18  0  0  1  0  0  0  0  0999 V2000
   -0.2250    1.8925    1.5001 C   0  0  0  0  0  0  0  0  0  0  0  0
   -0.7125    0.5276    0.9998 C   0  0  0  0  0  0  0  0  0  0  0  0
    0.1170   -0.0244   -0.1454 C   0  0  1  0  0  0  0  0  0  0  0  0
    1.5244   -0.5716    0.1306 C   0  0  0  0  0  0  0  0  0  0  0  0
    0.4270   -1.5187   -0.2175 C   0  0  1  0  0  0  0  0  0  0  0  0
   -0.1612   -2.3187    0.7602 O   0  0  0  0  0  0  0  0  0  0  0  0
   -0.0645    0.6197   -1.4719 C   0  0  0  0  0  0  0  0  0  0  0  0
   -0.8199    1.5322   -1.7016 O   0  0  0  0  0  0  0  0  0  0  0  0
    0.8086    1.8401    1.8596 H   0  0  0  0  0  0  0  0  0  0  0  0
   -0.2714    2.6387    0.7030 H   0  0  0  0  0  0  0  0  0  0  0  0
   -0.8481    2.2433    2.3285 H   0  0  0  0  0  0  0  0  0  0  0  0
   -0.7128   -0.2020    1.8135 H   0  0  0  0  0  0  0  0  0  0  0  0
   -1.7479    0.6176    0.6540 H   0  0  0  0  0  0  0  0  0  0  0  0
    2.3102   -0.3856   -0.5947 H   0  0  0  0  0  0  0  0  0  0  0  0
    1.8367   -0.5299    1.1685 H   0  0  0  0  0  0  0  0  0  0  0  0
    0.4436   -1.9607   -1.2142 H   0  0  0  0  0  0  0  0  0  0  0  0
    0.4804   -2.9862    1.0249 H   0  0  0  0  0  0  0  0  0  0  0  0
    0.5661    0.1835   -2.2840 H   0  0  0  0  0  0  0  0  0  0  0  0
  1  9  1  0  0  0  0
  1 11  1  0  0  0  0
  2  1  1  0  0  0  0
  2 12  1  0  0  0  0
  3  5  1  6  0  0  0
  3  4  1  0  0  0  0
  3  2  1  0  0  0  0
  4 15  1  0  0  0  0
  5 16  1  6  0  0  0
  5  4  1  0  0  0  0
  5  6  1  0  0  0  0
  6 17  1  0  0  0  0
  7  3  1  0  0  0  0
  8  7  2  0  0  0  0
 10  1  1  0  0  0  0
 13  2  1  0  0  0  0
 14  4  1  0  0  0  0
 18  7  1  0  0  0  0
M  END
