title
 OpenBabel02282109593D

 20 20  0  0  1  0  0  0  0  0999 V2000
   -0.1744    1.9245    1.4777 C   0  0  0  0  0  0  0  0  0  0  0  0
   -0.6772    0.5427    1.0386 C   0  0  0  0  0  0  0  0  0  0  0  0
    0.1158   -0.0414   -0.1172 C   0  0  1  0  0  0  0  0  0  0  0  0
    1.5248   -0.5925    0.1019 C   0  0  0  0  0  0  0  0  0  0  0  0
    0.4276   -1.5442   -0.2341 C   0  0  1  0  0  0  0  0  0  0  0  0
   -0.0977   -2.5579    0.7579 C   0  0  0  0  0  0  0  0  0  0  0  0
   -0.1008    0.6031   -1.4371 C   0  0  0  0  0  0  0  0  0  0  0  0
   -0.8856    1.4936   -1.6585 O   0  0  0  0  0  0  0  0  0  0  0  0
    0.8717    1.8816    1.8000 H   0  0  0  0  0  0  0  0  0  0  0  0
   -0.2506    2.6424    0.6578 H   0  0  0  0  0  0  0  0  0  0  0  0
   -0.7676    2.3032    2.3157 H   0  0  0  0  0  0  0  0  0  0  0  0
   -0.6504   -0.1424    1.8912 H   0  0  0  0  0  0  0  0  0  0  0  0
   -1.7254    0.6222    0.7301 H   0  0  0  0  0  0  0  0  0  0  0  0
    2.2876   -0.3751   -0.6391 H   0  0  0  0  0  0  0  0  0  0  0  0
    1.8802   -0.5685    1.1273 H   0  0  0  0  0  0  0  0  0  0  0  0
    0.4327   -1.9086   -1.2595 H   0  0  0  0  0  0  0  0  0  0  0  0
   -0.0110   -2.2096    1.7901 H   0  0  0  0  0  0  0  0  0  0  0  0
   -1.1494   -2.7972    0.5690 H   0  0  0  0  0  0  0  0  0  0  0  0
    0.4754   -3.4880    0.6787 H   0  0  0  0  0  0  0  0  0  0  0  0
    0.5309    0.1824   -2.2568 H   0  0  0  0  0  0  0  0  0  0  0  0
  1  9  1  0  0  0  0
  1 11  1  0  0  0  0
  2  1  1  0  0  0  0
  2 12  1  0  0  0  0
  3  5  1  6  0  0  0
  3  4  1  0  0  0  0
  3  2  1  0  0  0  0
  4 15  1  0  0  0  0
  5 16  1  6  0  0  0
  5  4  1  0  0  0  0
  5  6  1  0  0  0  0
  6 17  1  0  0  0  0
  7  3  1  0  0  0  0
  8  7  2  0  0  0  0
 10  1  1  0  0  0  0
 13  2  1  0  0  0  0
 14  4  1  0  0  0  0
 18  6  1  0  0  0  0
 19  6  1  0  0  0  0
 20  7  1  0  0  0  0
M  END
