15
title
C 1.3288718 1.8295825 -0.41750214
O 1.1152334 0.5373611 0.14554948
C -0.17734835 0.04168982 -0.0051774713
C -0.5527629 -0.5662169 -1.3582835
C -0.19812104 -1.4662726 -0.20580716
O 1.010692 -2.1357007 -0.16003218
C -1.190682 0.6926839 0.7907045
N -2.0029607 1.2225442 1.4217947
H 2.37998 2.0693858 -0.2502338
H 1.1164056 1.8330902 -1.4938725
H 0.7006106 2.5798922 0.07665407
H -1.5862323 -0.50131005 -1.6788837
H 0.19182006 -0.44695348 -2.1381242
H -0.99952203 -2.0211341 0.27075607
H 1.7008955 -1.4651356 -0.061515376
