title
 OpenBabel02282109593D

 19 19  0  0  1  0  0  0  0  0999 V2000
   -0.8690    1.6464    1.2894 C   0  0  0  0  0  0  0  0  0  0  0  0
   -0.3018    0.2209    1.3464 C   0  0  0  0  0  0  0  0  0  0  0  0
    0.2331   -0.2831    0.0175 C   0  0  1  0  0  0  0  0  0  0  0  0
    0.1541   -1.7528   -0.3238 C   0  0  0  0  0  0  0  0  0  0  0  0
   -0.6107   -0.7935   -1.0825 N   0  0  0  0  0  0  0  0  0  0  0  0
   -2.0608   -0.8056   -0.9480 C   0  0  0  0  0  0  0  0  0  0  0  0
    1.4493    0.4131   -0.5118 C   0  0  0  0  0  0  0  0  0  0  0  0
    2.1247    1.1895    0.1174 O   0  0  0  0  0  0  0  0  0  0  0  0
   -0.1027    2.3544    0.9660 H   0  0  0  0  0  0  0  0  0  0  0  0
   -1.7154    1.7180    0.5993 H   0  0  0  0  0  0  0  0  0  0  0  0
   -1.2192    1.9573    2.2782 H   0  0  0  0  0  0  0  0  0  0  0  0
    0.5317    0.1958    2.0568 H   0  0  0  0  0  0  0  0  0  0  0  0
   -1.0566   -0.4716    1.7311 H   0  0  0  0  0  0  0  0  0  0  0  0
    0.9651   -2.2532   -0.8485 H   0  0  0  0  0  0  0  0  0  0  0  0
   -0.3619   -2.3698    0.4122 H   0  0  0  0  0  0  0  0  0  0  0  0
   -2.4251   -1.0562    0.0589 H   0  0  0  0  0  0  0  0  0  0  0  0
   -2.4603    0.1724   -1.2308 H   0  0  0  0  0  0  0  0  0  0  0  0
   -2.4598   -1.5485   -1.6457 H   0  0  0  0  0  0  0  0  0  0  0  0
    1.6902    0.1334   -1.5612 H   0  0  0  0  0  0  0  0  0  0  0  0
  1  2  1  0  0  0  0
  1 11  1  0  0  0  0
  2 13  1  0  0  0  0
  2 12  1  0  0  0  0
  3  7  1  6  0  0  0
  3  2  1  0  0  0  0
  4  3  1  0  0  0  0
  4 15  1  0  0  0  0
  5  6  1  0  0  0  0
  5  4  1  0  0  0  0
  5  3  1  0  0  0  0
  6 16  1  0  0  0  0
  7  8  2  0  0  0  0
  9  1  1  0  0  0  0
 10  1  1  0  0  0  0
 14  4  1  0  0  0  0
 17  6  1  0  0  0  0
 18  6  1  0  0  0  0
 19  7  1  0  0  0  0
M  END
