16
title
O 2.0160177 0.5101626 -0.73091304
C 1.0673877 0.9307917 0.24969642
C -0.306671 0.26546103 0.10567069
C -0.7810525 -0.1949405 -1.2806218
C -0.35998294 -1.2181203 -0.2658974
O 0.7956035 -1.9716587 -0.3969168
C -1.2808212 0.77705306 1.0253843
C -2.0765452 1.2209991 1.8120763
H 1.8273891 0.9734407 -1.5528189
H 1.4984617 0.65496105 1.2166468
H 0.95227796 2.0215867 0.23522012
H -1.8322648 -0.07576782 -1.5157475
H -0.10669419 -0.026237138 -2.1142073
H -1.1432413 -1.8012588 0.20618881
H 1.4999335 -1.3769882 -0.6961073
H -2.7849414 1.6024404 2.5048912
