18
title
C -0.2249586 1.8925459 1.500084
C -0.712511 0.52759576 0.9998209
C 0.11700615 -0.024391327 -0.1454238
C 1.5243579 -0.5716243 0.13060161
C 0.4270251 -1.5187056 -0.21745315
O -0.16115764 -2.3186576 0.7602169
C -0.064546764 0.6197482 -1.471885
O -0.8199382 1.532192 -1.7015531
H 0.80864716 1.8400718 1.859633
H -0.2713695 2.638699 0.70299345
H -0.84809196 2.243273 2.32848
H -0.7128271 -0.20201287 1.8135455
H -1.7479082 0.61758476 0.65404195
H 2.3101661 -0.38559672 -0.5946759
H 1.8367337 -0.5298516 1.1684759
H 0.44357076 -1.960731 -1.214248
H 0.480392 -2.986193 1.0248532
H 0.56611 0.18354723 -2.2840219
