title
 OpenBabel02282109593D

 16 16  0  0  1  0  0  0  0  0999 V2000
    1.1194    1.9019    0.2319 N   0  0  0  0  0  0  0  0  0  0  0  0
    1.2344    0.4713    0.1915 C   0  0  1  0  0  0  0  0  0  0  0  0
    0.7082   -0.4659    1.2503 C   0  0  0  0  0  0  0  0  0  0  0  0
   -0.0149   -0.3510   -0.0957 C   0  0  1  0  0  0  0  0  0  0  0  0
   -1.3828    0.3490   -0.1899 C   0  0  0  0  0  0  0  0  0  0  0  0
   -1.6723    1.1835    0.9192 O   0  0  0  0  0  0  0  0  0  0  0  0
    0.1166   -1.4505   -1.0137 C   0  0  0  0  0  0  0  0  0  0  0  0
    0.2026   -2.3319   -1.7592 N   0  0  0  0  0  0  0  0  0  0  0  0
    0.2905    2.1779    0.7500 H   0  0  0  0  0  0  0  0  0  0  0  0
    1.9270    2.3013    0.6995 H   0  0  0  0  0  0  0  0  0  0  0  0
    2.1286    0.1414   -0.3286 H   0  0  0  0  0  0  0  0  0  0  0  0
    1.2343   -1.3902    1.4596 H   0  0  0  0  0  0  0  0  0  0  0  0
    0.2032   -0.0163    2.0979 H   0  0  0  0  0  0  0  0  0  0  0  0
   -1.3862    1.0025   -1.0671 H   0  0  0  0  0  0  0  0  0  0  0  0
   -2.1642   -0.4079   -0.3318 H   0  0  0  0  0  0  0  0  0  0  0  0
   -1.9423    0.6256    1.6554 H   0  0  0  0  0  0  0  0  0  0  0  0
  1 10  1  0  0  0  0
  1  9  1  0  0  0  0
  2  4  1  6  0  0  0
  2  1  1  0  0  0  0
  2  3  1  0  0  0  0
  3 12  1  0  0  0  0
  3 13  1  0  0  0  0
  4  7  1  6  0  0  0
  4  3  1  0  0  0  0
  5  4  1  0  0  0  0
  5  6  1  0  0  0  0
  6 16  1  0  0  0  0
  8  7  3  0  0  0  0
 11  2  1  0  0  0  0
 14  5  1  0  0  0  0
 15  5  1  0  0  0  0
M  END
