19
title
C -0.8690359 1.6463858 1.2893958
C -0.30180705 0.22089648 1.3463954
C 0.23311602 -0.283132 0.017515386
C 0.15407322 -1.7527878 -0.32379165
N -0.6106516 -0.79348946 -1.0824763
C -2.0607717 -0.80555934 -0.9480104
C 1.4493319 0.4131327 -0.5118138
O 2.124676 1.1894932 0.11735185
H -0.10267294 2.3543704 0.9659719
H -1.715393 1.7179626 0.59928846
H -1.2191786 1.9573298 2.2782395
H 0.5317314 0.19584398 2.0567646
H -1.0566336 -0.4716019 1.7311381
H 0.9650884 -2.253246 -0.8484935
H -0.36189055 -2.369831 0.41217533
H -2.425125 -1.056214 0.058935605
H -2.460304 0.17244026 -1.2307571
H -2.4597707 -1.5484523 -1.6456856
H 1.6902324 0.13339035 -1.5612317
