16
title
C -0.9268713 1.9991065 -1.3939874
C -0.6429892 0.5418137 -1.1374948
O 0.71185833 0.124892466 -1.0292854
C -0.12161185 -0.018921085 0.13773341
C 0.30418995 0.8022109 1.3308896
O 1.4857607 0.26013 1.8992296
C -0.49340457 -1.4513142 0.44729635
O -0.6078075 -2.3051496 -0.3924004
H -0.27129117 2.6565676 -0.82076484
H -0.77898383 2.217209 -2.4567797
H -1.9679245 2.232983 -1.1483246
H -1.2507831 -0.15632427 -1.7156692
H 0.43222478 1.8553743 1.0546659
H -0.4608381 0.75257456 2.1140575
H 2.155738 0.25976783 1.2055811
H -0.6820127 -1.658665 1.5224975
