18
title
C -0.20240057 1.8002009 1.2838666
O -0.58581644 0.4842231 0.9003158
C 0.1350162 -0.047336213 -0.15272242
C 1.5317013 -0.6183766 0.123514645
C 0.3840458 -1.551834 -0.103097744
C -0.20680037 -2.3653302 1.0259039
C -0.08717745 0.53807914 -1.499655
O -0.80851835 1.4738123 -1.7411685
H 0.86225975 1.8414394 1.5539305
H -0.40399933 2.5207903 0.48612773
H -0.80151707 2.0510614 2.1617684
H 2.2998152 -0.5159607 -0.63562304
H 1.8754755 -0.48637253 1.1438549
H 0.36441746 -2.040919 -1.0742552
H -0.23635685 -1.785185 1.9498976
H -1.2304583 -2.6739252 0.79223436
H 0.38889322 -3.268032 1.1966711
H 0.49084088 0.025005078 -2.3051386
