16
title
C -0.4072062 1.828275 1.1162565
C 0.14449675 0.42318144 1.045907
O 0.6562366 -0.12194116 1.9999061
C 0.03980655 -0.30419952 -0.27782813
C 1.1881471 -1.2907981 -0.55641085
C -0.13282458 -1.829053 -0.156073
C -0.5689289 0.3583717 -1.3955245
C -1.0789509 0.9115024 -2.334831
H 0.09183695 2.4681878 0.38093844
H -1.4704428 1.8311428 0.85408455
H -0.2645848 2.2251592 2.1214314
H 1.4991709 -1.3754785 -1.5902827
H 1.9762717 -1.2863078 0.18708995
H -0.24246374 -2.190381 0.8594933
H -0.7596815 -2.2958364 -0.9057142
H -1.5291514 1.3998083 -3.1632943
