16
title
O 1.2461498 1.8155081 -0.48400193
C 1.2080438 0.4900038 0.0045456723
C -0.19996528 -0.086602785 -0.013204367
C -0.75569266 -0.66958034 -1.3219187
C -0.41427988 -1.5807604 -0.19312304
O 0.7418662 -2.3591008 -0.22724497
C -1.1805509 0.629931 0.832158
O -0.9486677 1.6701747 1.4076346
H 0.7205242 2.3366883 0.13603483
H 1.8605961 -0.11224983 -0.6302109
H 1.5996478 0.4282443 1.0307236
H -1.8000821 -0.5024314 -1.5638958
H -0.072304055 -0.6177914 -2.1621375
H -1.2436897 -2.0209854 0.36263204
H 0.6209035 -3.0460224 -0.8912593
H -2.1860197 0.1548899 0.90522677
