17
title
C -0.89100236 1.6813568 -1.4250714
N -0.5595441 0.26180556 -1.366334
C 0.7856491 -0.15627688 -1.6700488
C 0.2828741 -0.22579372 -0.25323486
C 0.87165886 0.675733 0.8179972
O -0.066118784 0.9869741 1.8296959
C -0.21387771 -1.5418776 0.24556623
O -0.16405371 -1.8856374 1.4045994
H -0.02986229 2.3513455 -1.2902026
H -1.3303078 1.8876672 -2.4055772
H -1.6296958 1.907654 -0.652514
H 0.89482063 -1.0585841 -2.2678764
H 1.5397978 0.60895467 -1.8581252
H 1.7625806 0.17951158 1.2313364
H 1.2008499 1.6248282 0.38774264
H -0.26647606 0.15034015 2.2683494
H -0.66625804 -2.1872919 -0.53676057
