title
 OpenBabel02282109593D

 14 14  0  0  1  0  0  0  0  0999 V2000
    1.2758    1.5837   -0.7989 C   0  0  0  0  0  0  0  0  0  0  0  0
    0.9797    0.5374    0.2425 C   0  0  0  0  0  0  0  0  0  0  0  0
    1.6776    0.3378    1.2112 O   0  0  0  0  0  0  0  0  0  0  0  0
   -0.2655   -0.3186    0.0617 C   0  0  1  0  0  0  0  0  0  0  0  0
   -0.0419   -1.8033    0.2479 C   0  0  0  0  0  0  0  0  0  0  0  0
   -0.7377   -1.0397    1.2605 N   0  0  0  0  0  0  0  0  0  0  0  0
   -1.2789    0.1394   -0.8571 C   0  0  0  0  0  0  0  0  0  0  0  0
   -2.0587    0.5248   -1.6187 N   0  0  0  0  0  0  0  0  0  0  0  0
    2.2318    2.0587   -0.5796 H   0  0  0  0  0  0  0  0  0  0  0  0
    1.2923    1.1370   -1.7989 H   0  0  0  0  0  0  0  0  0  0  0  0
    0.4785    2.3350   -0.8092 H   0  0  0  0  0  0  0  0  0  0  0  0
   -0.6554   -2.4859   -0.3316 H   0  0  0  0  0  0  0  0  0  0  0  0
    0.9863   -2.1057    0.4255 H   0  0  0  0  0  0  0  0  0  0  0  0
   -0.0779   -0.7970    2.0027 H   0  0  0  0  0  0  0  0  0  0  0  0
  1  9  1  0  0  0  0
  1  2  1  0  0  0  0
  2  3  2  0  0  0  0
  4  7  1  6  0  0  0
  4  2  1  0  0  0  0
  4  5  1  0  0  0  0
  4  6  1  0  0  0  0
  5 13  1  0  0  0  0
  5  6  1  0  0  0  0
  6 14  1  0  0  0  0
  8  7  3  0  0  0  0
 10  1  1  0  0  0  0
 11  1  1  0  0  0  0
 12  5  1  0  0  0  0
M  END
