title
 OpenBabel02282109593D

 16 16  0  0  1  0  0  0  0  0999 V2000
   -0.2392    1.7279    1.3660 C   0  0  0  0  0  0  0  0  0  0  0  0
   -0.5782    0.4275    0.8886 O   0  0  0  0  0  0  0  0  0  0  0  0
    0.1604   -0.0167   -0.1972 C   0  0  1  0  0  0  0  0  0  0  0  0
    1.5630   -0.5875    0.0787 C   0  0  0  0  0  0  0  0  0  0  0  0
    0.4178   -1.5249   -0.1301 C   0  0  1  0  0  0  0  0  0  0  0  0
   -0.1560   -2.2114    0.9246 O   0  0  0  0  0  0  0  0  0  0  0  0
   -0.1057    0.6051   -1.5139 C   0  0  0  0  0  0  0  0  0  0  0  0
   -0.8669    1.5216   -1.7036 O   0  0  0  0  0  0  0  0  0  0  0  0
    0.8215    1.7825    1.6447 H   0  0  0  0  0  0  0  0  0  0  0  0
   -0.4619    2.4860    0.6105 H   0  0  0  0  0  0  0  0  0  0  0  0
   -0.8531    1.9010    2.2519 H   0  0  0  0  0  0  0  0  0  0  0  0
    2.3179   -0.4906   -0.6945 H   0  0  0  0  0  0  0  0  0  0  0  0
    1.9164   -0.4579    1.0956 H   0  0  0  0  0  0  0  0  0  0  0  0
    0.3763   -2.0844   -1.0603 H   0  0  0  0  0  0  0  0  0  0  0  0
   -0.5849   -1.5462    1.4828 H   0  0  0  0  0  0  0  0  0  0  0  0
    0.4744    0.1434   -2.3472 H   0  0  0  0  0  0  0  0  0  0  0  0
  1  9  1  0  0  0  0
  1 11  1  0  0  0  0
  2  1  1  0  0  0  0
  3  5  1  6  0  0  0
  3  4  1  0  0  0  0
  3  2  1  0  0  0  0
  4 13  1  0  0  0  0
  5 14  1  6  0  0  0
  5  4  1  0  0  0  0
  5  6  1  0  0  0  0
  6 15  1  0  0  0  0
  7  3  1  0  0  0  0
  8  7  2  0  0  0  0
 10  1  1  0  0  0  0
 12  4  1  0  0  0  0
 16  7  1  0  0  0  0
M  END
