title
 OpenBabel02282109593D

 16 16  0  0  0  0  0  0  0  0999 V2000
   -0.2978    1.7599    1.1601 C   0  0  0  0  0  0  0  0  0  0  0  0
    0.2347    0.3559    1.0090 C   0  0  0  0  0  0  0  0  0  0  0  0
    0.8156   -0.2044    1.9161 O   0  0  0  0  0  0  0  0  0  0  0  0
    0.0434   -0.3766   -0.3015 C   0  0  0  0  0  0  0  0  0  0  0  0
    1.1705   -1.3716   -0.6580 C   0  0  0  0  0  0  0  0  0  0  0  0
   -0.1092   -1.9086   -0.1710 C   0  0  0  0  0  0  0  0  0  0  0  0
   -0.6491    0.2088   -1.4756 C   0  0  0  0  0  0  0  0  0  0  0  0
   -1.1416    1.3073   -1.5573 O   0  0  0  0  0  0  0  0  0  0  0  0
    0.1382    2.4206    0.4055 H   0  0  0  0  0  0  0  0  0  0  0  0
   -1.3765    1.7842    0.9817 H   0  0  0  0  0  0  0  0  0  0  0  0
   -0.0643    2.1141    2.1649 H   0  0  0  0  0  0  0  0  0  0  0  0
    1.4193   -1.4652   -1.7095 H   0  0  0  0  0  0  0  0  0  0  0  0
    2.0058   -1.3468    0.0307 H   0  0  0  0  0  0  0  0  0  0  0  0
   -0.1573   -2.2546    0.8541 H   0  0  0  0  0  0  0  0  0  0  0  0
   -0.7835   -2.3898   -0.8710 H   0  0  0  0  0  0  0  0  0  0  0  0
   -0.6851   -0.4922   -2.3436 H   0  0  0  0  0  0  0  0  0  0  0  0
  1 11  1  0  0  0  0
  2  1  1  0  0  0  0
  2  3  2  0  0  0  0
  4  6  1  0  0  0  0
  4  2  1  0  0  0  0
  5  4  1  0  0  0  0
  5  6  1  0  0  0  0
  5 13  1  0  0  0  0
  6 14  1  0  0  0  0
  7  4  1  0  0  0  0
  8  7  2  0  0  0  0
  9  1  1  0  0  0  0
 10  1  1  0  0  0  0
 12  5  1  0  0  0  0
 15  6  1  0  0  0  0
 16  7  1  0  0  0  0
M  END
