title
 OpenBabel02282109593D

 15 15  0  0  1  0  0  0  0  0999 V2000
    0.7583    1.3816    1.4318 C   0  0  0  0  0  0  0  0  0  0  0  0
   -0.3227    0.4559    0.9415 C   0  0  0  0  0  0  0  0  0  0  0  0
   -1.3745    0.3099    1.5309 O   0  0  0  0  0  0  0  0  0  0  0  0
   -0.0935   -0.3479   -0.3239 C   0  0  1  0  0  0  0  0  0  0  0  0
   -0.2836   -1.8439   -0.1407 C   0  0  0  0  0  0  0  0  0  0  0  0
   -1.2736   -1.0729   -0.8474 N   0  0  0  0  0  0  0  0  0  0  0  0
    0.8598    0.0640   -1.3973 C   0  0  0  0  0  0  0  0  0  0  0  0
    1.6983    0.9259   -1.3124 O   0  0  0  0  0  0  0  0  0  0  0  0
    1.7039    0.8410    1.5428 H   0  0  0  0  0  0  0  0  0  0  0  0
    0.9502    2.1610    0.6896 H   0  0  0  0  0  0  0  0  0  0  0  0
    0.4518    1.8165    2.3837 H   0  0  0  0  0  0  0  0  0  0  0  0
    0.3124   -2.5230   -0.7453 H   0  0  0  0  0  0  0  0  0  0  0  0
   -0.4829   -2.1672    0.8775 H   0  0  0  0  0  0  0  0  0  0  0  0
   -2.0375   -0.8461   -0.2074 H   0  0  0  0  0  0  0  0  0  0  0  0
    0.7175   -0.5278   -2.3274 H   0  0  0  0  0  0  0  0  0  0  0  0
  1  9  1  0  0  0  0
  1 11  1  0  0  0  0
  2  1  1  0  0  0  0
  2  3  2  0  0  0  0
  4  7  1  6  0  0  0
  4  5  1  0  0  0  0
  4  2  1  0  0  0  0
  5 13  1  0  0  0  0
  6  4  1  0  0  0  0
  6 14  1  0  0  0  0
  6  5  1  0  0  0  0
  7  8  2  0  0  0  0
 10  1  1  0  0  0  0
 12  5  1  0  0  0  0
 15  7  1  0  0  0  0
M  END
