12
title
N 1.2752067 1.2912395 1.1400228
C 1.0051143 0.57970816 0.016649622
O 1.69112 0.53352433 -0.97916555
C -0.27197543 -0.25040662 0.12657952
C -0.3775901 -1.2790163 1.1897024
O -1.0875145 -0.04823858 1.2869751
C -0.9841866 -0.455903 -1.1188664
N -1.5763141 -0.62375116 -2.09571
H 2.0665321 1.9140158 1.1248324
H 0.55847174 1.4131567 1.8370445
H -0.989711 -2.1587172 1.0074853
H 0.45904878 -1.3973451 1.8744205
