14
title
N 1.18872 1.4551566 -0.7302578
C 0.9757116 0.51188123 0.21469761
O 1.7296509 0.2991522 1.1495472
C -0.29157272 -0.31569833 0.048721183
C -0.09710423 -1.7856672 0.3162467
N -0.76910514 -0.95233816 1.298017
C -1.2851653 0.1344223 -0.8885077
C -2.0783207 0.5310528 -1.7017466
H 1.9959158 2.049568 -0.64265364
H 0.50133854 1.6411246 -1.4410415
H -0.7326543 -2.4872015 -0.21497093
H 0.9225812 -2.1039398 0.5114901
H -0.08548967 -0.6921266 2.0119116
H -2.8023598 0.8675342 -2.4023416
