title
 OpenBabel02282109593D

 12 12  0  0  1  0  0  0  0  0999 V2000
    1.2752    1.2912    1.1400 N   0  0  0  0  0  0  0  0  0  0  0  0
    1.0051    0.5797    0.0166 C   0  0  0  0  0  0  0  0  0  0  0  0
    1.6911    0.5335   -0.9792 O   0  0  0  0  0  0  0  0  0  0  0  0
   -0.2720   -0.2504    0.1266 C   0  0  1  0  0  0  0  0  0  0  0  0
   -0.3776   -1.2790    1.1897 C   0  0  0  0  0  0  0  0  0  0  0  0
   -1.0875   -0.0482    1.2870 O   0  0  0  0  0  0  0  0  0  0  0  0
   -0.9842   -0.4559   -1.1189 C   0  0  0  0  0  0  0  0  0  0  0  0
   -1.5763   -0.6238   -2.0957 N   0  0  0  0  0  0  0  0  0  0  0  0
    2.0665    1.9140    1.1248 H   0  0  0  0  0  0  0  0  0  0  0  0
    0.5585    1.4132    1.8370 H   0  0  0  0  0  0  0  0  0  0  0  0
   -0.9897   -2.1587    1.0075 H   0  0  0  0  0  0  0  0  0  0  0  0
    0.4590   -1.3973    1.8744 H   0  0  0  0  0  0  0  0  0  0  0  0
  1 10  1  0  0  0  0
  2  4  1  0  0  0  0
  2  1  1  0  0  0  0
  3  2  2  0  0  0  0
  4  7  1  6  0  0  0
  4  5  1  0  0  0  0
  4  6  1  0  0  0  0
  5  6  1  0  0  0  0
  5 12  1  0  0  0  0
  8  7  3  0  0  0  0
  9  1  1  0  0  0  0
 11  5  1  0  0  0  0
M  END
