13
title
N 1.3296351 1.1829535 1.1548636
C 1.0103238 0.53819185 0.0014565898
O 1.680517 0.536201 -1.0075271
C -0.28936225 -0.26124132 0.10003951
C -0.3655966 -1.3294462 1.1274849
O -1.034521 -0.08933823 1.3254899
C -1.0566877 -0.3710659 -1.1112673
C -1.7081553 -0.4545238 -2.1162436
H 2.1353672 1.7862532 1.1508685
H 0.6337129 1.2771654 1.8764664
H -1.011047 -2.1841612 0.9390688
H 0.4996671 -1.5058889 1.7635196
H -2.276799 -0.52545655 -3.0105963
