title
 OpenBabel02282109593D

 15 15  0  0  0  0  0  0  0  0999 V2000
    1.0368    1.6869    0.3590 N   0  0  0  0  0  0  0  0  0  0  0  0
    1.0245    0.4402   -0.1740 C   0  0  0  0  0  0  0  0  0  0  0  0
    1.9850   -0.0616   -0.7311 O   0  0  0  0  0  0  0  0  0  0  0  0
   -0.2858   -0.3138   -0.0339 C   0  0  0  0  0  0  0  0  0  0  0  0
   -0.5882   -1.2737   -1.1905 C   0  0  0  0  0  0  0  0  0  0  0  0
   -0.1279   -1.8324    0.1073 C   0  0  0  0  0  0  0  0  0  0  0  0
   -1.3828    0.3282    0.6317 C   0  0  0  0  0  0  0  0  0  0  0  0
   -2.2882    0.8889    1.1944 C   0  0  0  0  0  0  0  0  0  0  0  0
    1.8829    2.2267    0.2917 H   0  0  0  0  0  0  0  0  0  0  0  0
    0.2258    2.0712    0.8127 H   0  0  0  0  0  0  0  0  0  0  0  0
   -1.6303   -1.3779   -1.4667 H   0  0  0  0  0  0  0  0  0  0  0  0
    0.1267   -1.2407   -2.0036 H   0  0  0  0  0  0  0  0  0  0  0  0
    0.8972   -2.1765    0.1694 H   0  0  0  0  0  0  0  0  0  0  0  0
   -0.8452   -2.3306    0.7478 H   0  0  0  0  0  0  0  0  0  0  0  0
   -3.0977    1.3675    1.6877 H   0  0  0  0  0  0  0  0  0  0  0  0
  1 10  1  0  0  0  0
  2  4  1  0  0  0  0
  2  1  1  0  0  0  0
  3  2  2  0  0  0  0
  4  6  1  0  0  0  0
  4  7  1  0  0  0  0
  5  4  1  0  0  0  0
  5  6  1  0  0  0  0
  6 13  1  0  0  0  0
  6 14  1  0  0  0  0
  7  8  3  0  0  0  0
  8 15  1  0  0  0  0
  9  1  1  0  0  0  0
 11  5  1  0  0  0  0
 12  5  1  0  0  0  0
M  END
