14
title
C -1.195766 1.450477 1.3279129
C -0.007313534 0.5762427 0.99042076
O 0.9923976 0.5256325 1.662371
C -0.11094482 -0.25584093 -0.28469416
C -1.2716306 -1.1775922 -0.4245815
O -1.2354935 0.044762667 -1.1352086
C 1.127644 -0.5770581 -0.94381547
C 2.1615646 -0.83050513 -1.4992268
H -1.2940387 2.2357895 0.57096225
H -2.1357658 0.89199245 1.315623
H -1.0369982 1.8975457 2.3094988
H -1.1328878 -2.078776 -1.0180125
H -2.0040889 -1.2440557 0.37862042
H 3.0788891 -1.0531684 -1.9863417
