title
 OpenBabel02282109593D

 14 14  0  0  1  0  0  0  0  0999 V2000
    1.1887    1.4552   -0.7303 N   0  0  0  0  0  0  0  0  0  0  0  0
    0.9757    0.5119    0.2147 C   0  0  0  0  0  0  0  0  0  0  0  0
    1.7297    0.2992    1.1495 O   0  0  0  0  0  0  0  0  0  0  0  0
   -0.2916   -0.3157    0.0487 C   0  0  1  0  0  0  0  0  0  0  0  0
   -0.0971   -1.7857    0.3162 C   0  0  0  0  0  0  0  0  0  0  0  0
   -0.7691   -0.9523    1.2980 N   0  0  0  0  0  0  0  0  0  0  0  0
   -1.2852    0.1344   -0.8885 C   0  0  0  0  0  0  0  0  0  0  0  0
   -2.0783    0.5311   -1.7017 C   0  0  0  0  0  0  0  0  0  0  0  0
    1.9959    2.0496   -0.6427 H   0  0  0  0  0  0  0  0  0  0  0  0
    0.5013    1.6411   -1.4410 H   0  0  0  0  0  0  0  0  0  0  0  0
   -0.7327   -2.4872   -0.2150 H   0  0  0  0  0  0  0  0  0  0  0  0
    0.9226   -2.1039    0.5115 H   0  0  0  0  0  0  0  0  0  0  0  0
   -0.0855   -0.6921    2.0119 H   0  0  0  0  0  0  0  0  0  0  0  0
   -2.8024    0.8675   -2.4023 H   0  0  0  0  0  0  0  0  0  0  0  0
  1  9  1  0  0  0  0
  1  2  1  0  0  0  0
  2  3  2  0  0  0  0
  4  7  1  6  0  0  0
  4  2  1  0  0  0  0
  4  5  1  0  0  0  0
  4  6  1  0  0  0  0
  5 12  1  0  0  0  0
  5  6  1  0  0  0  0
  6 13  1  0  0  0  0
  8  7  3  0  0  0  0
 10  1  1  0  0  0  0
 11  5  1  0  0  0  0
 14  8  1  0  0  0  0
M  END
