16
title
C -0.2977639 1.7598752 1.160115
C 0.23468745 0.3559123 1.0089587
O 0.81556726 -0.20442091 1.9160962
C 0.043442734 -0.37661755 -0.3014752
C 1.1704997 -1.3715731 -0.65804696
C -0.10917616 -1.9086354 -0.1709961
C -0.6491424 0.20875512 -1.4755822
O -1.1415598 1.3072952 -1.5573078
H 0.13818449 2.4205844 0.40548864
H -1.3764747 1.7841588 0.9816959
H -0.06432526 2.1141002 2.1648877
H 1.4193448 -1.4652436 -1.7095033
H 2.0058308 -1.3468361 0.030741908
H -0.15729997 -2.2545896 0.85410416
H -0.78346866 -2.3897913 -0.8710432
H -0.6850981 -0.49217302 -2.3435993
