title
 OpenBabel02282109593D

 13 13  0  0  1  0  0  0  0  0999 V2000
    1.1900    1.4620   -0.7165 N   0  0  0  0  0  0  0  0  0  0  0  0
    0.9899    0.5018    0.2117 C   0  0  0  0  0  0  0  0  0  0  0  0
    1.7513    0.2613    1.1313 O   0  0  0  0  0  0  0  0  0  0  0  0
   -0.2829   -0.3229    0.0614 C   0  0  1  0  0  0  0  0  0  0  0  0
   -0.1114   -1.8004    0.2973 C   0  0  0  0  0  0  0  0  0  0  0  0
   -0.7616   -0.9726    1.2960 N   0  0  0  0  0  0  0  0  0  0  0  0
   -1.2846    0.1576   -0.8580 C   0  0  0  0  0  0  0  0  0  0  0  0
   -2.0242    0.5850   -1.6382 N   0  0  0  0  0  0  0  0  0  0  0  0
    2.0082    2.0428   -0.6336 H   0  0  0  0  0  0  0  0  0  0  0  0
    0.5097    1.6674   -1.4294 H   0  0  0  0  0  0  0  0  0  0  0  0
   -0.7609   -2.4850   -0.2387 H   0  0  0  0  0  0  0  0  0  0  0  0
    0.9087   -2.1286    0.4719 H   0  0  0  0  0  0  0  0  0  0  0  0
   -0.0753   -0.7282    2.0131 H   0  0  0  0  0  0  0  0  0  0  0  0
  1  9  1  0  0  0  0
  1  2  1  0  0  0  0
  2  3  2  0  0  0  0
  4  7  1  6  0  0  0
  4  2  1  0  0  0  0
  4  5  1  0  0  0  0
  4  6  1  0  0  0  0
  5 12  1  0  0  0  0
  5  6  1  0  0  0  0
  6 13  1  0  0  0  0
  8  7  3  0  0  0  0
 10  1  1  0  0  0  0
 11  5  1  0  0  0  0
M  END
