title
 OpenBabel02282109593D

 15 15  0  0  0  0  0  0  0  0999 V2000
    1.0792    1.5783    0.3516 N   0  0  0  0  0  0  0  0  0  0  0  0
    1.0080    0.3587   -0.2253 C   0  0  0  0  0  0  0  0  0  0  0  0
    1.9239   -0.1558   -0.8472 O   0  0  0  0  0  0  0  0  0  0  0  0
   -0.3120   -0.3709   -0.0598 C   0  0  0  0  0  0  0  0  0  0  0  0
   -0.6910   -1.2894   -1.2377 C   0  0  0  0  0  0  0  0  0  0  0  0
   -0.1940   -1.9062    0.0050 C   0  0  0  0  0  0  0  0  0  0  0  0
   -1.4593    0.1935    0.6798 C   0  0  0  0  0  0  0  0  0  0  0  0
   -1.5096    1.2701    1.2358 O   0  0  0  0  0  0  0  0  0  0  0  0
    1.9405    2.0914    0.2625 H   0  0  0  0  0  0  0  0  0  0  0  0
    0.2855    1.9515    0.8550 H   0  0  0  0  0  0  0  0  0  0  0  0
   -1.7448   -1.3630   -1.4829 H   0  0  0  0  0  0  0  0  0  0  0  0
   -0.0080   -1.2195   -2.0751 H   0  0  0  0  0  0  0  0  0  0  0  0
    0.8296   -2.2590    0.0194 H   0  0  0  0  0  0  0  0  0  0  0  0
   -0.8898   -2.4241    0.6559 H   0  0  0  0  0  0  0  0  0  0  0  0
   -2.3448   -0.4803    0.6986 H   0  0  0  0  0  0  0  0  0  0  0  0
  1 10  1  0  0  0  0
  2  4  1  0  0  0  0
  2  1  1  0  0  0  0
  3  2  2  0  0  0  0
  4  6  1  0  0  0  0
  4  7  1  0  0  0  0
  5  4  1  0  0  0  0
  5  6  1  0  0  0  0
  6 13  1  0  0  0  0
  6 14  1  0  0  0  0
  7 15  1  0  0  0  0
  7  8  2  0  0  0  0
  9  1  1  0  0  0  0
 11  5  1  0  0  0  0
 12  5  1  0  0  0  0
M  END
