20
title
C -1.2150494 1.5926046 -0.8138395
C -0.74836487 0.13585593 -0.9316925
C 0.15369496 -0.06946048 -2.1555939
C -0.06255362 -0.3394061 0.35663825
C -0.9465882 -0.8373339 1.4912184
C -0.13647655 -1.8210863 0.69705206
C 1.1431204 0.35850582 0.7220116
C 2.149497 0.9503439 1.0153848
H -0.3608289 2.2617743 -0.6688884
H -1.7413936 1.9067168 -1.7208436
H -1.8925761 1.7255471 0.035649344
H -1.6372334 -0.4983628 -1.052819
H 1.0663881 0.5287081 -2.067969
H 0.4493709 -1.1182696 -2.2601066
H -0.36179313 0.23145935 -3.073243
H -0.6357985 -0.6168647 2.505351
H -2.0184476 -0.80027145 1.3267282
H -0.6520459 -2.4595554 -0.012778892
H 0.727983 -2.2729607 1.1684116
H 3.0374625 1.4692695 1.278499
