title
 OpenBabel02282109593D

 19 19  0  0  0  0  0  0  0  0999 V2000
    1.2689    1.6494   -0.6005 C   0  0  0  0  0  0  0  0  0  0  0  0
    1.1863    0.1734   -0.1893 C   0  0  0  0  0  0  0  0  0  0  0  0
    1.8058   -0.0641    1.1944 C   0  0  0  0  0  0  0  0  0  0  0  0
   -0.2556   -0.3450   -0.2529 C   0  0  0  0  0  0  0  0  0  0  0  0
   -0.8175   -0.8090   -1.5885 C   0  0  0  0  0  0  0  0  0  0  0  0
   -0.5004   -1.8212   -0.5281 C   0  0  0  0  0  0  0  0  0  0  0  0
   -1.1807    0.3046    0.6440 C   0  0  0  0  0  0  0  0  0  0  0  0
   -1.9084    0.8373    1.3696 N   0  0  0  0  0  0  0  0  0  0  0  0
    2.3082    1.9919   -0.5990 H   0  0  0  0  0  0  0  0  0  0  0  0
    0.8600    1.8082   -1.6033 H   0  0  0  0  0  0  0  0  0  0  0  0
    0.7065    2.2805    0.0957 H   0  0  0  0  0  0  0  0  0  0  0  0
    1.7469   -0.4202   -0.9236 H   0  0  0  0  0  0  0  0  0  0  0  0
    1.2657    0.4959    1.9650 H   0  0  0  0  0  0  0  0  0  0  0  0
    1.7786   -1.1236    1.4677 H   0  0  0  0  0  0  0  0  0  0  0  0
    2.8494    0.2645    1.2104 H   0  0  0  0  0  0  0  0  0  0  0  0
   -1.8583   -0.5980   -1.8020 H   0  0  0  0  0  0  0  0  0  0  0  0
   -0.1531   -0.7256   -2.4416 H   0  0  0  0  0  0  0  0  0  0  0  0
    0.3835   -2.4383   -0.6474 H   0  0  0  0  0  0  0  0  0  0  0  0
   -1.3241   -2.3032   -0.0156 H   0  0  0  0  0  0  0  0  0  0  0  0
  1  9  1  0  0  0  0
  1  2  1  0  0  0  0
  1 11  1  0  0  0  0
  2  3  1  0  0  0  0
  3 15  1  0  0  0  0
  3 14  1  0  0  0  0
  3 13  1  0  0  0  0
  4  2  1  0  0  0  0
  4  7  1  0  0  0  0
  5  6  1  0  0  0  0
  5  4  1  0  0  0  0
  6  4  1  0  0  0  0
  6 19  1  0  0  0  0
  7  8  3  0  0  0  0
 10  1  1  0  0  0  0
 12  2  1  0  0  0  0
 16  5  1  0  0  0  0
 17  5  1  0  0  0  0
 18  6  1  0  0  0  0
M  END
