title
 OpenBabel02282109593D

 17 17  0  0  1  0  0  0  0  0999 V2000
    1.0654    1.7677    0.3756 C   0  0  0  0  0  0  0  0  0  0  0  0
    1.1557    0.2996   -0.0746 C   0  0  0  0  0  0  0  0  0  0  0  0
    2.1322   -0.4914    0.8030 C   0  0  0  0  0  0  0  0  0  0  0  0
   -0.2466   -0.3137   -0.0932 C   0  0  1  0  0  0  0  0  0  0  0  0
   -0.5704   -1.6905    0.3375 C   0  0  0  0  0  0  0  0  0  0  0  0
   -0.8613   -0.5738    1.1747 O   0  0  0  0  0  0  0  0  0  0  0  0
   -1.1465    0.2866   -1.0714 C   0  0  0  0  0  0  0  0  0  0  0  0
   -1.8292    0.7688   -1.8696 N   0  0  0  0  0  0  0  0  0  0  0  0
    2.0514    2.2387    0.3328 H   0  0  0  0  0  0  0  0  0  0  0  0
    0.3874    2.3431   -0.2611 H   0  0  0  0  0  0  0  0  0  0  0  0
    0.7009    1.8299    1.4059 H   0  0  0  0  0  0  0  0  0  0  0  0
    1.5147    0.2768   -1.1119 H   0  0  0  0  0  0  0  0  0  0  0  0
    2.3367   -1.4867    0.3983 H   0  0  0  0  0  0  0  0  0  0  0  0
    3.0857    0.0402    0.8649 H   0  0  0  0  0  0  0  0  0  0  0  0
    1.7405   -0.6000    1.8189 H   0  0  0  0  0  0  0  0  0  0  0  0
   -1.4360   -2.1896   -0.0935 H   0  0  0  0  0  0  0  0  0  0  0  0
    0.2296   -2.3398    0.6817 H   0  0  0  0  0  0  0  0  0  0  0  0
  1 11  1  0  0  0  0
  2  1  1  0  0  0  0
  2  3  1  0  0  0  0
  3 14  1  0  0  0  0
  3 15  1  0  0  0  0
  4  7  1  6  0  0  0
  4  2  1  0  0  0  0
  4  5  1  0  0  0  0
  4  6  1  0  0  0  0
  5 17  1  0  0  0  0
  5  6  1  0  0  0  0
  8  7  3  0  0  0  0
  9  1  1  0  0  0  0
 10  1  1  0  0  0  0
 12  2  1  0  0  0  0
 13  3  1  0  0  0  0
 16  5  1  0  0  0  0
M  END
