17
title
C 1.0654433 1.7676884 0.3756231
C 1.15572 0.2996493 -0.07460163
C 2.132215 -0.4914035 0.8029744
C -0.246571 -0.31371054 -0.0932268
C -0.570437 -1.6904852 0.33748358
O -0.8612694 -0.5738071 1.1746532
C -1.1464742 0.28657517 -1.0713568
N -1.8291816 0.76880676 -1.8695915
H 2.0513642 2.238744 0.3327711
H 0.38737947 2.343107 -0.26106957
H 0.7008642 1.8299458 1.4058528
H 1.5147209 0.27679783 -1.111906
H 2.3366592 -1.4867367 0.39830524
H 3.0857246 0.04017081 0.8649402
H 1.7405276 -0.6000334 1.8188826
H -1.4360062 -2.18959 -0.093484886
H 0.22963691 -2.3398457 0.6817121
