13
title
N 1.149197 1.4923766 -0.55183893
C 0.9835503 0.45665327 0.30039656
O 1.7611783 0.1449874 1.1791826
C -0.29150414 -0.3604068 0.07891479
C -0.20493293 -1.8067328 0.42868185
O -0.86371326 -0.90326244 1.279959
C -1.3526468 0.00025480747 -0.9115136
O -1.2605679 0.8329557 -1.7830083
H 1.9888804 2.042047 -0.46988538
H 0.47183365 1.6736968 -1.279786
H -0.83786714 -2.5261183 -0.09018377
H 0.76815414 -2.1492257 0.7726212
H -2.283457 -0.5849897 -0.7625934
