15
title
N 1.0791739 1.5783179 0.35156065
C 1.0080296 0.35872713 -0.2253459
O 1.9239373 -0.15575227 -0.84720135
C -0.31195313 -0.37085488 -0.059831847
C -0.6910092 -1.2893612 -1.2376822
C -0.19400543 -1.9061894 0.0049775066
C -1.4593192 0.19349273 0.67984265
O -1.5096363 1.2701035 1.2357519
H 1.9405291 2.0914168 0.26251644
H 0.2855001 1.9515421 0.85501856
H -1.7448019 -1.3630055 -1.4829072
H -0.008032315 -1.219515 -2.075075
H 0.8296236 -2.2590427 0.019430397
H -0.8897583 -2.4240906 0.65591747
H -2.344777 -0.4802976 0.6985962
