14
title
N 1.2609916 1.3101574 -0.69853806
C 0.9651042 0.42932296 0.27836302
O 1.6671023 0.21156219 1.2542845
C -0.33611184 -0.3359005 0.10773677
C -0.22051005 -1.8234586 0.3728887
N -0.8592493 -0.9668934 1.3417137
C -1.4022303 0.08243687 -0.8405288
O -1.2755172 0.88064486 -1.7428478
H 2.0910063 1.8710806 -0.59666675
H 0.5840429 1.4976908 -1.4268229
H -0.8752999 -2.506039 -0.16231678
H 0.790223 -2.1740658 0.5601455
H -0.17750375 -0.73478156 2.067273
H -2.3690827 -0.4271075 -0.6529779
