title
 OpenBabel02282109593D

 20 20  0  0  0  0  0  0  0  0999 V2000
    1.5397    1.6450   -0.5125 C   0  0  0  0  0  0  0  0  0  0  0  0
    1.3213    0.1885   -0.0712 C   0  0  0  0  0  0  0  0  0  0  0  0
    1.8839   -0.0680    1.3365 C   0  0  0  0  0  0  0  0  0  0  0  0
   -0.1422   -0.2326   -0.1890 C   0  0  0  0  0  0  0  0  0  0  0  0
   -0.6687   -0.6974   -1.5451 C   0  0  0  0  0  0  0  0  0  0  0  0
   -0.4673   -1.6996   -0.4626 C   0  0  0  0  0  0  0  0  0  0  0  0
   -1.1476    0.4741    0.6525 C   0  0  0  0  0  0  0  0  0  0  0  0
   -2.3337    0.2343    0.6500 O   0  0  0  0  0  0  0  0  0  0  0  0
    2.6045    1.8986   -0.4992 H   0  0  0  0  0  0  0  0  0  0  0  0
    1.1641    1.8113   -1.5270 H   0  0  0  0  0  0  0  0  0  0  0  0
    1.0286    2.3505    0.1520 H   0  0  0  0  0  0  0  0  0  0  0  0
    1.8812   -0.4504   -0.7674 H   0  0  0  0  0  0  0  0  0  0  0  0
    1.7521   -1.1140    1.6303 H   0  0  0  0  0  0  0  0  0  0  0  0
    2.9534    0.1628    1.3745 H   0  0  0  0  0  0  0  0  0  0  0  0
    1.3894    0.5549    2.0900 H   0  0  0  0  0  0  0  0  0  0  0  0
   -1.6871   -0.4142   -1.7845 H   0  0  0  0  0  0  0  0  0  0  0  0
    0.0339   -0.6714   -2.3712 H   0  0  0  0  0  0  0  0  0  0  0  0
    0.3769   -2.3777   -0.5279 H   0  0  0  0  0  0  0  0  0  0  0  0
   -1.3498   -2.0927    0.0287 H   0  0  0  0  0  0  0  0  0  0  0  0
   -0.7404    1.2692    1.3142 H   0  0  0  0  0  0  0  0  0  0  0  0
  1  9  1  0  0  0  0
  1  2  1  0  0  0  0
  1 11  1  0  0  0  0
  2  3  1  0  0  0  0
  3 14  1  0  0  0  0
  3 13  1  0  0  0  0
  3 15  1  0  0  0  0
  4  2  1  0  0  0  0
  4  7  1  0  0  0  0
  5  6  1  0  0  0  0
  5  4  1  0  0  0  0
  6  4  1  0  0  0  0
  6 19  1  0  0  0  0
  7 20  1  0  0  0  0
  8  7  2  0  0  0  0
 10  1  1  0  0  0  0
 12  2  1  0  0  0  0
 16  5  1  0  0  0  0
 17  5  1  0  0  0  0
 18  6  1  0  0  0  0
M  END
