title
 OpenBabel02282109593D

 17 17  0  0  1  0  0  0  0  0999 V2000
    1.2294    1.6561   -0.6183 C   0  0  0  0  0  0  0  0  0  0  0  0
    1.1448    0.1829   -0.2194 C   0  0  1  0  0  0  0  0  0  0  0  0
    1.7454   -0.0617    1.0404 O   0  0  0  0  0  0  0  0  0  0  0  0
   -0.2912   -0.3562   -0.2600 C   0  0  0  0  0  0  0  0  0  0  0  0
   -0.8556   -0.8724   -1.5742 C   0  0  0  0  0  0  0  0  0  0  0  0
   -0.5039   -1.8425   -0.4869 C   0  0  0  0  0  0  0  0  0  0  0  0
   -1.1884    0.3096    0.6500 C   0  0  0  0  0  0  0  0  0  0  0  0
   -1.8663    0.8676    1.4046 N   0  0  0  0  0  0  0  0  0  0  0  0
    2.2687    1.9910   -0.5740 H   0  0  0  0  0  0  0  0  0  0  0  0
    0.8514    1.8141   -1.6332 H   0  0  0  0  0  0  0  0  0  0  0  0
    0.6352    2.2771    0.0614 H   0  0  0  0  0  0  0  0  0  0  0  0
    1.7258   -0.4191   -0.9283 H   0  0  0  0  0  0  0  0  0  0  0  0
    1.3099    0.5000    1.6928 H   0  0  0  0  0  0  0  0  0  0  0  0
   -1.9021   -0.6847   -1.7819 H   0  0  0  0  0  0  0  0  0  0  0  0
   -0.2029   -0.7996   -2.4375 H   0  0  0  0  0  0  0  0  0  0  0  0
    0.3951   -2.4399   -0.5878 H   0  0  0  0  0  0  0  0  0  0  0  0
   -1.3113   -2.3232    0.0518 H   0  0  0  0  0  0  0  0  0  0  0  0
  1  9  1  0  0  0  0
  1  2  1  0  0  0  0
  1 11  1  0  0  0  0
  2 12  1  6  0  0  0
  2  3  1  0  0  0  0
  3 13  1  0  0  0  0
  4  2  1  0  0  0  0
  4  7  1  0  0  0  0
  5  6  1  0  0  0  0
  5  4  1  0  0  0  0
  6  4  1  0  0  0  0
  6 17  1  0  0  0  0
  7  8  3  0  0  0  0
 10  1  1  0  0  0  0
 14  5  1  0  0  0  0
 15  5  1  0  0  0  0
 16  6  1  0  0  0  0
M  END
