title
 OpenBabel02282109593D

 16 16  0  0  1  0  0  0  0  0999 V2000
   -0.7729    1.7313    0.9194 C   0  0  0  0  0  0  0  0  0  0  0  0
   -0.4055    0.2532    1.0694 C   0  0  1  0  0  0  0  0  0  0  0  0
   -1.5374   -0.5325    1.3893 O   0  0  0  0  0  0  0  0  0  0  0  0
    0.2670   -0.2946   -0.2009 C   0  0  1  0  0  0  0  0  0  0  0  0
    0.0888   -1.7131   -0.5638 C   0  0  0  0  0  0  0  0  0  0  0  0
   -0.6874   -0.6961   -1.2090 O   0  0  0  0  0  0  0  0  0  0  0  0
    1.4331    0.4110   -0.6718 C   0  0  0  0  0  0  0  0  0  0  0  0
    2.4159    1.0087   -1.0210 C   0  0  0  0  0  0  0  0  0  0  0  0
    0.1152    2.3471    0.7556 H   0  0  0  0  0  0  0  0  0  0  0  0
   -1.4468    1.8715    0.0670 H   0  0  0  0  0  0  0  0  0  0  0  0
   -1.2814    2.0732    1.8238 H   0  0  0  0  0  0  0  0  0  0  0  0
    0.2943    0.1280    1.9035 H   0  0  0  0  0  0  0  0  0  0  0  0
   -2.0853   -0.5467    0.5928 H   0  0  0  0  0  0  0  0  0  0  0  0
    0.8343   -2.1916   -1.1947 H   0  0  0  0  0  0  0  0  0  0  0  0
   -0.4635   -2.3537    0.1180 H   0  0  0  0  0  0  0  0  0  0  0  0
    3.2821    1.5333   -1.3420 H   0  0  0  0  0  0  0  0  0  0  0  0
  1  2  1  0  0  0  0
  1 11  1  0  0  0  0
  2  3  1  0  0  0  0
  2 12  1  1  0  0  0
  4  7  1  6  0  0  0
  4  2  1  0  0  0  0
  5  4  1  0  0  0  0
  5 15  1  0  0  0  0
  6  5  1  0  0  0  0
  6  4  1  0  0  0  0
  8  7  3  0  0  0  0
  9  1  1  0  0  0  0
 10  1  1  0  0  0  0
 13  3  1  0  0  0  0
 14  5  1  0  0  0  0
 16  8  1  0  0  0  0
M  END
