16
title
C 1.0794592 1.7985421 0.2177629
C 1.1504728 0.2924118 -0.0852133
N 1.9784561 -0.47594476 0.8438664
C -0.25359342 -0.3211779 -0.099502414
C -0.50723976 -1.7193975 0.2977711
O -0.809202 -0.63422525 1.1824412
C -1.1857238 0.2924885 -1.0329938
N -1.8974066 0.78609085 -1.7983251
H 2.0855243 2.2283869 0.21353506
H 0.4778314 2.336094 -0.5215367
H 0.6381684 1.9675604 1.2059132
H 1.5659133 0.15048891 -1.0911654
H 2.9379137 -0.15053804 0.79124165
H 1.6587511 -0.30443436 1.7935269
H -1.3737524 -2.2351744 -0.10990328
H 0.35046646 -2.3211741 0.58054775
