18
title
C -0.07570379 1.5883346 1.4511755
C -0.4011188 0.13802992 1.0894085
O -1.7967812 -0.05841582 0.921893
C 0.3732964 -0.34817803 -0.14139573
C 1.7954395 -0.84945923 0.054186057
C 0.6967978 -1.8296771 -0.23686568
C 0.042422872 0.34672272 -1.3571773
C -0.28778753 0.94433737 -2.3493125
H 0.98717934 1.708711 1.68421
H -0.31571466 2.2559388 0.61692905
H -0.6634462 1.8935846 2.32068
H -0.12337693 -0.5130606 1.9270847
H -2.0556405 0.41595852 0.12214584
H 2.515607 -0.6328847 -0.725617
H 2.1931493 -0.8043051 1.0628198
H 0.33200476 -2.4580956 0.56810004
H 0.6644217 -2.285605 -1.219018
H -0.5550507 1.4647774 -3.2355092
