title
 OpenBabel02282109593D

 17 17  0  0  1  0  0  0  0  0999 V2000
   -0.8228    1.7164    0.9099 C   0  0  0  0  0  0  0  0  0  0  0  0
   -0.4241    0.2455    1.0339 C   0  0  1  0  0  0  0  0  0  0  0  0
   -1.5613   -0.5790    1.2735 O   0  0  0  0  0  0  0  0  0  0  0  0
    0.2412   -0.2785   -0.2453 C   0  0  1  0  0  0  0  0  0  0  0  0
    0.1066   -1.7240   -0.5942 C   0  0  0  0  0  0  0  0  0  0  0  0
   -0.6322   -0.7111   -1.3620 N   0  0  0  0  0  0  0  0  0  0  0  0
    1.4465    0.4237   -0.6122 C   0  0  0  0  0  0  0  0  0  0  0  0
    2.4655    1.0059   -0.8740 C   0  0  0  0  0  0  0  0  0  0  0  0
    0.0531    2.3387    0.7121 H   0  0  0  0  0  0  0  0  0  0  0  0
   -1.5375    1.8526    0.0922 H   0  0  0  0  0  0  0  0  0  0  0  0
   -1.2847    2.0684    1.8397 H   0  0  0  0  0  0  0  0  0  0  0  0
    0.3006    0.1345    1.8554 H   0  0  0  0  0  0  0  0  0  0  0  0
   -2.1127   -0.1433    1.9294 H   0  0  0  0  0  0  0  0  0  0  0  0
    0.9160   -2.2058   -1.1336 H   0  0  0  0  0  0  0  0  0  0  0  0
   -0.4444   -2.3498    0.0994 H   0  0  0  0  0  0  0  0  0  0  0  0
   -1.5876   -0.6917   -1.0064 H   0  0  0  0  0  0  0  0  0  0  0  0
    3.3619    1.5166   -1.1253 H   0  0  0  0  0  0  0  0  0  0  0  0
  1  2  1  0  0  0  0
  1 11  1  0  0  0  0
  2  3  1  0  0  0  0
  2 12  1  1  0  0  0
  3 13  1  0  0  0  0
  4  7  1  6  0  0  0
  4  2  1  0  0  0  0
  5  4  1  0  0  0  0
  5 15  1  0  0  0  0
  6 16  1  0  0  0  0
  6  5  1  0  0  0  0
  6  4  1  0  0  0  0
  8  7  3  0  0  0  0
  9  1  1  0  0  0  0
 10  1  1  0  0  0  0
 14  5  1  0  0  0  0
 17  8  1  0  0  0  0
M  END
