17
title
C 1.2294205 1.6560897 -0.6183293
C 1.144785 0.18286891 -0.21944693
O 1.7453872 -0.061716933 1.0403587
C -0.29115278 -0.3562011 -0.25996524
C -0.8555904 -0.8723718 -1.5742292
C -0.50391895 -1.8425226 -0.48690858
C -1.1884322 0.30961135 0.65001804
N -1.8662584 0.86763096 1.4046463
H 2.26865 1.9909935 -0.5740218
H 0.8514472 1.8140815 -1.6331623
H 0.63518226 2.2770836 0.061439022
H 1.7258478 -0.4191053 -0.9282645
H 1.3098593 0.50000453 1.6927683
H -1.9020753 -0.6847485 -1.7818725
H -0.2028653 -0.79957557 -2.4374766
H 0.39513707 -2.4398873 -0.5878102
H -1.3113325 -2.3232155 0.05184491
