title
 OpenBabel02282109593D

 15 15  0  0  1  0  0  0  0  0999 V2000
    1.1196    1.7698    0.2547 C   0  0  0  0  0  0  0  0  0  0  0  0
    1.1387    0.2886   -0.1271 C   0  0  1  0  0  0  0  0  0  0  0  0
    1.9712   -0.4686    0.7256 O   0  0  0  0  0  0  0  0  0  0  0  0
   -0.2771   -0.3117   -0.1216 C   0  0  1  0  0  0  0  0  0  0  0  0
   -0.4950   -1.7290    0.2204 C   0  0  0  0  0  0  0  0  0  0  0  0
   -0.7467   -0.6924    1.1780 O   0  0  0  0  0  0  0  0  0  0  0  0
   -1.2532    0.3520   -0.9669 C   0  0  0  0  0  0  0  0  0  0  0  0
   -1.9935    0.8951   -1.6690 N   0  0  0  0  0  0  0  0  0  0  0  0
    2.1426    2.1521    0.2772 H   0  0  0  0  0  0  0  0  0  0  0  0
    0.5391    2.3594   -0.4604 H   0  0  0  0  0  0  0  0  0  0  0  0
    0.6750    1.9038    1.2471 H   0  0  0  0  0  0  0  0  0  0  0  0
    1.5522    0.1685   -1.1348 H   0  0  0  0  0  0  0  0  0  0  0  0
    1.5782   -0.4256    1.6073 H   0  0  0  0  0  0  0  0  0  0  0  0
   -1.3813   -2.2359   -0.1528 H   0  0  0  0  0  0  0  0  0  0  0  0
    0.3814   -2.3386    0.4190 H   0  0  0  0  0  0  0  0  0  0  0  0
  1  9  1  0  0  0  0
  1 11  1  0  0  0  0
  2 12  1  6  0  0  0
  2  4  1  0  0  0  0
  2  1  1  0  0  0  0
  2  3  1  0  0  0  0
  3 13  1  0  0  0  0
  4  7  1  6  0  0  0
  4  5  1  0  0  0  0
  4  6  1  0  0  0  0
  5 15  1  0  0  0  0
  5  6  1  0  0  0  0
  8  7  3  0  0  0  0
 10  1  1  0  0  0  0
 14  5  1  0  0  0  0
M  END
