title
 OpenBabel02282109593D

 16 16  0  0  1  0  0  0  0  0999 V2000
    1.0968    1.7466    0.1234 C   0  0  0  0  0  0  0  0  0  0  0  0
    1.0674    0.2398   -0.1433 C   0  0  1  0  0  0  0  0  0  0  0  0
    1.9660   -0.4557    0.7055 O   0  0  0  0  0  0  0  0  0  0  0  0
   -0.3416   -0.3328    0.0012 C   0  0  1  0  0  0  0  0  0  0  0  0
   -0.5440   -1.7078    0.5087 C   0  0  0  0  0  0  0  0  0  0  0  0
   -0.7601   -0.5833    1.3563 O   0  0  0  0  0  0  0  0  0  0  0  0
   -1.4397    0.1965   -0.8683 C   0  0  0  0  0  0  0  0  0  0  0  0
   -1.2636    0.8411   -1.8708 O   0  0  0  0  0  0  0  0  0  0  0  0
    2.1284    2.1025    0.0727 H   0  0  0  0  0  0  0  0  0  0  0  0
    0.4988    2.2868   -0.6139 H   0  0  0  0  0  0  0  0  0  0  0  0
    0.7025    1.9678    1.1220 H   0  0  0  0  0  0  0  0  0  0  0  0
    1.4074    0.0423   -1.1652 H   0  0  0  0  0  0  0  0  0  0  0  0
    1.6461   -0.3271    1.6075 H   0  0  0  0  0  0  0  0  0  0  0  0
   -1.4410   -2.2624    0.2377 H   0  0  0  0  0  0  0  0  0  0  0  0
    0.3478   -2.2907    0.7198 H   0  0  0  0  0  0  0  0  0  0  0  0
   -2.4554   -0.0738   -0.5033 H   0  0  0  0  0  0  0  0  0  0  0  0
  1 11  1  0  0  0  0
  2 12  1  6  0  0  0
  2  4  1  0  0  0  0
  2  1  1  0  0  0  0
  2  3  1  0  0  0  0
  3 13  1  0  0  0  0
  4  7  1  6  0  0  0
  4  5  1  0  0  0  0
  4  6  1  0  0  0  0
  5 15  1  0  0  0  0
  5  6  1  0  0  0  0
  7 16  1  0  0  0  0
  8  7  2  0  0  0  0
  9  1  1  0  0  0  0
 10  1  1  0  0  0  0
 14  5  1  0  0  0  0
M  END
