20
title
C 2.2333853 0.4466232 1.0443307
C 1.566704 0.3537746 -0.33544472
C 0.19084257 -0.29739073 -0.31278637
C -0.19407624 -1.2154616 -1.4790442
C 0.11954087 -1.80334 -0.14325716
C -0.99377245 0.46416 0.22666799
C -0.8975646 1.9782071 0.31774855
O -2.0227218 -0.106793664 0.52619433
H 3.2246413 0.9042998 0.96956974
H 1.644084 1.0459865 1.7458107
H 2.352831 -0.54744816 1.4865832
H 1.5074052 1.3501656 -0.7891189
H 2.2128856 -0.2343371 -0.99771416
H -1.2324463 -1.1996107 -1.7889019
H 0.52886313 -1.3137598 -2.2818742
H 1.0626686 -2.3241603 -0.017898165
H -0.7094974 -2.1787996 0.4438845
H -0.68499607 2.4066677 -0.6684063
H -1.8452662 2.3699448 0.6881257
H -0.0864324 2.2910182 0.9821026
