title
 OpenBabel02282109593D

 16 16  0  0  1  0  0  0  0  0999 V2000
   -1.1662    1.4015    1.3330 C   0  0  0  0  0  0  0  0  0  0  0  0
   -0.1138    0.3392    1.1064 C   0  0  0  0  0  0  0  0  0  0  0  0
    0.7456    0.0746    1.9146 O   0  0  0  0  0  0  0  0  0  0  0  0
   -0.1520   -0.4127   -0.2124 C   0  0  1  0  0  0  0  0  0  0  0  0
    1.1906   -0.7661   -0.8174 C   0  0  0  0  0  0  0  0  0  0  0  0
    1.8042    0.3837   -1.3699 O   0  0  0  0  0  0  0  0  0  0  0  0
   -1.3555   -1.2070   -0.5308 C   0  0  0  0  0  0  0  0  0  0  0  0
   -1.1246    0.0426   -1.1719 O   0  0  0  0  0  0  0  0  0  0  0  0
   -0.9858    2.2347    0.6444 H   0  0  0  0  0  0  0  0  0  0  0  0
   -2.1719    1.0337    1.1108 H   0  0  0  0  0  0  0  0  0  0  0  0
   -1.1071    1.7548    2.3627 H   0  0  0  0  0  0  0  0  0  0  0  0
    1.8529   -1.1314   -0.0295 H   0  0  0  0  0  0  0  0  0  0  0  0
    1.0600   -1.5581   -1.5692 H   0  0  0  0  0  0  0  0  0  0  0  0
    1.2017    0.7228   -2.0421 H   0  0  0  0  0  0  0  0  0  0  0  0
   -1.2492   -2.0896   -1.1594 H   0  0  0  0  0  0  0  0  0  0  0  0
   -2.1923   -1.2304    0.1656 H   0  0  0  0  0  0  0  0  0  0  0  0
  1 11  1  0  0  0  0
  2  1  1  0  0  0  0
  2  3  2  0  0  0  0
  4  2  1  1  0  0  0
  5  4  1  0  0  0  0
  5 12  1  0  0  0  0
  6  5  1  0  0  0  0
  7  4  1  0  0  0  0
  7 16  1  0  0  0  0
  8  7  1  0  0  0  0
  8  4  1  0  0  0  0
  9  1  1  0  0  0  0
 10  1  1  0  0  0  0
 13  5  1  0  0  0  0
 14  6  1  0  0  0  0
 15  7  1  0  0  0  0
M  END
