17
title
C 1.5737615 1.2410649 -0.87060595
C 1.0491462 0.3422703 0.22424364
O 1.5896469 0.2581551 1.3085946
C -0.20151256 -0.46417913 -0.052961502
C -1.1338707 -0.034039486 -1.1630275
O -1.6896716 1.2463838 -0.9078883
C -0.12507628 -1.9043357 0.35299134
N -0.8968607 -0.9610212 1.1534219
H 2.4775326 1.7452478 -0.5281311
H 1.7930968 0.6626122 -1.7751753
H 0.8035584 1.9734268 -1.1338919
H -0.6052216 0.047005083 -2.1177208
H -1.917324 -0.7957946 -1.2791691
H -2.1488621 1.1793768 -0.06219322
H -0.70560455 -2.6362567 -0.20260237
H 0.8252506 -2.255697 0.74418205
H -0.3235596 -0.6842594 1.9519649
