19
title
C 1.1761535 1.5150352 -0.6610002
N 1.0341036 0.128519 -0.22682543
C 1.7505691 -0.15216984 1.0137401
C -0.30994797 -0.3644823 -0.25661772
C -0.8429172 -0.8251323 -1.6135868
C -0.49119294 -1.8459918 -0.5881545
C -1.3355364 0.20418653 0.66125625
O -1.1354314 1.0812248 1.4663177
H 2.2391958 1.7357812 -0.8070397
H 0.6699129 1.6503954 -1.6218518
H 0.7657922 2.2429457 0.05415406
H 1.3890861 0.4338975 1.8713838
H 1.6572201 -1.2152233 1.2567229
H 2.8139973 0.067452446 0.8688193
H -1.8889726 -0.6479061 -1.8385859
H -0.15823853 -0.6789699 -2.4397213
H 0.43317485 -2.3955173 -0.71548843
H -1.2899343 -2.3865757 -0.09212411
H -2.3493688 -0.25456443 0.55278677
