title
 OpenBabel02282109593D

 19 19  0  0  1  0  0  0  0  0999 V2000
    0.9960    1.7758    0.3831 C   0  0  0  0  0  0  0  0  0  0  0  0
    1.0471    0.3025   -0.0610 C   0  0  0  0  0  0  0  0  0  0  0  0
    2.1457   -0.4599    0.6886 C   0  0  0  0  0  0  0  0  0  0  0  0
   -0.3425   -0.3228    0.0435 C   0  0  1  0  0  0  0  0  0  0  0  0
   -0.5860   -1.7060    0.5743 C   0  0  0  0  0  0  0  0  0  0  0  0
   -1.0125   -0.5462    1.3504 N   0  0  0  0  0  0  0  0  0  0  0  0
   -1.3300    0.1136   -0.9955 C   0  0  0  0  0  0  0  0  0  0  0  0
   -1.0505    0.7217   -1.9983 O   0  0  0  0  0  0  0  0  0  0  0  0
    1.9674    2.2556    0.2294 H   0  0  0  0  0  0  0  0  0  0  0  0
    0.2502    2.3336   -0.1879 H   0  0  0  0  0  0  0  0  0  0  0  0
    0.7472    1.8627    1.4473 H   0  0  0  0  0  0  0  0  0  0  0  0
    1.2908    0.2925   -1.1297 H   0  0  0  0  0  0  0  0  0  0  0  0
    1.9274   -0.5527    1.7604 H   0  0  0  0  0  0  0  0  0  0  0  0
    2.2982   -1.4647    0.2846 H   0  0  0  0  0  0  0  0  0  0  0  0
    3.0949    0.0775    0.6045 H   0  0  0  0  0  0  0  0  0  0  0  0
   -1.3942   -2.3083    0.1669 H   0  0  0  0  0  0  0  0  0  0  0  0
    0.2816   -2.2720    0.8962 H   0  0  0  0  0  0  0  0  0  0  0  0
   -0.3477   -0.3629    2.0990 H   0  0  0  0  0  0  0  0  0  0  0  0
   -2.3744   -0.1895   -0.7606 H   0  0  0  0  0  0  0  0  0  0  0  0
  1 11  1  0  0  0  0
  2  4  1  0  0  0  0
  2  1  1  0  0  0  0
  2  3  1  0  0  0  0
  3 13  1  0  0  0  0
  4  7  1  6  0  0  0
  4  5  1  0  0  0  0
  4  6  1  0  0  0  0
  5 17  1  0  0  0  0
  5  6  1  0  0  0  0
  6 18  1  0  0  0  0
  7 19  1  0  0  0  0
  8  7  2  0  0  0  0
  9  1  1  0  0  0  0
 10  1  1  0  0  0  0
 12  2  1  0  0  0  0
 14  3  1  0  0  0  0
 15  3  1  0  0  0  0
 16  5  1  0  0  0  0
M  END
