17
title
C -0.26792908 1.7064569 -1.1363221
C -0.57754 0.23041128 -0.8796869
O -0.19348732 -0.5771137 -1.9926913
C 0.17264083 -0.3168245 0.32853252
C 0.55814713 -1.7662306 0.3717646
N 1.5844182 -0.7438517 0.18723269
C -0.12587082 0.30230212 1.6503505
O -1.0415019 1.0586568 1.867556
H 0.80506927 1.8564843 -1.2922018
H -0.7978584 2.0538676 -2.0309713
H -0.5961717 2.3178499 -0.29368454
H -1.6540427 0.12036326 -0.6834968
H -0.5312551 -0.16089623 -2.7909338
H 0.5888222 -2.2851715 1.326183
H 0.252054 -2.3611505 -0.48136503
H 1.8058025 -0.69276774 -0.8063589
H 0.57888776 -0.015420955 2.4497833
