title
 OpenBabel02282109593D

 17 17  0  0  1  0  0  0  0  0999 V2000
    1.5738    1.2411   -0.8706 C   0  0  0  0  0  0  0  0  0  0  0  0
    1.0491    0.3423    0.2242 C   0  0  0  0  0  0  0  0  0  0  0  0
    1.5896    0.2582    1.3086 O   0  0  0  0  0  0  0  0  0  0  0  0
   -0.2015   -0.4642   -0.0530 C   0  0  1  0  0  0  0  0  0  0  0  0
   -1.1339   -0.0340   -1.1630 C   0  0  0  0  0  0  0  0  0  0  0  0
   -1.6897    1.2464   -0.9079 O   0  0  0  0  0  0  0  0  0  0  0  0
   -0.1251   -1.9043    0.3530 C   0  0  0  0  0  0  0  0  0  0  0  0
   -0.8969   -0.9610    1.1534 N   0  0  0  0  0  0  0  0  0  0  0  0
    2.4775    1.7452   -0.5281 H   0  0  0  0  0  0  0  0  0  0  0  0
    1.7931    0.6626   -1.7752 H   0  0  0  0  0  0  0  0  0  0  0  0
    0.8036    1.9734   -1.1339 H   0  0  0  0  0  0  0  0  0  0  0  0
   -0.6052    0.0470   -2.1177 H   0  0  0  0  0  0  0  0  0  0  0  0
   -1.9173   -0.7958   -1.2792 H   0  0  0  0  0  0  0  0  0  0  0  0
   -2.1489    1.1794   -0.0622 H   0  0  0  0  0  0  0  0  0  0  0  0
   -0.7056   -2.6363   -0.2026 H   0  0  0  0  0  0  0  0  0  0  0  0
    0.8253   -2.2557    0.7442 H   0  0  0  0  0  0  0  0  0  0  0  0
   -0.3236   -0.6843    1.9520 H   0  0  0  0  0  0  0  0  0  0  0  0
  1  9  1  0  0  0  0
  1  2  1  0  0  0  0
  2  3  2  0  0  0  0
  4  2  1  1  0  0  0
  4  7  1  0  0  0  0
  4  8  1  0  0  0  0
  5  6  1  0  0  0  0
  5  4  1  0  0  0  0
  6 14  1  0  0  0  0
  7 16  1  0  0  0  0
  7  8  1  0  0  0  0
  8 17  1  0  0  0  0
 10  1  1  0  0  0  0
 11  1  1  0  0  0  0
 12  5  1  0  0  0  0
 13  5  1  0  0  0  0
 15  7  1  0  0  0  0
M  END
