16
title
C 1.0967586 1.7465731 0.12338076
C 1.0674162 0.23976566 -0.14334059
O 1.9660023 -0.45567426 0.7054915
C -0.3415544 -0.3327752 0.0012486323
C -0.54398847 -1.7078128 0.5086666
O -0.76008105 -0.58330864 1.3562877
C -1.4396563 0.19654019 -0.86827606
O -1.2636254 0.8410972 -1.8708484
H 2.128446 2.1024888 0.07272061
H 0.49881423 2.286835 -0.613891
H 0.7025273 1.9678035 1.1220496
H 1.4073844 0.04227737 -1.1651744
H 1.6460603 -0.32709667 1.6074727
H -1.4410117 -2.2624402 0.23772582
H 0.34780097 -2.2906663 0.71984583
H -2.4554303 -0.07384597 -0.5032607
