18
title
C 1.0037628 1.7647438 0.34978685
C 1.0739677 0.28526542 -0.07008453
C 2.1279082 -0.46913117 0.7475477
C -0.3150513 -0.3303365 0.0153138535
C -0.61276525 -1.6561767 0.6092874
O -0.9117077 -0.46716666 1.3206019
C -1.3230821 0.113078386 -1.0075593
O -1.053434 0.68151766 -2.0343068
H 1.9865708 2.2348812 0.25147134
H 0.30053243 2.322438 -0.2737716
H 0.686438 1.8528899 1.3939
H 1.3483082 0.24787226 -1.1310289
H 1.8311555 -0.5372508 1.7996536
H 2.2957063 -1.4815778 0.36805156
H 3.083894 0.06079442 0.70553774
H -1.4756457 -2.2256014 0.26355246
H 0.21090767 -2.2493296 0.99742174
H -2.369138 -0.14129095 -0.7240223
