title
 OpenBabel02282109593D

 17 17  0  0  1  0  0  0  0  0999 V2000
   -1.2462    1.2085    1.6993 C   0  0  0  0  0  0  0  0  0  0  0  0
   -0.6973   -0.2084    1.4953 C   0  0  0  0  0  0  0  0  0  0  0  0
   -0.2284   -0.4539    0.0785 C   0  0  1  0  0  0  0  0  0  0  0  0
   -0.4743   -1.7425   -0.5962 C   0  0  0  0  0  0  0  0  0  0  0  0
   -1.2506   -0.5889   -0.9282 O   0  0  0  0  0  0  0  0  0  0  0  0
    0.9957    0.3395   -0.3548 C   0  0  0  0  0  0  0  0  0  0  0  0
    1.0121    0.6541   -1.6774 N   0  0  0  0  0  0  0  0  0  0  0  0
    1.8771    0.6256    0.4336 O   0  0  0  0  0  0  0  0  0  0  0  0
   -0.4687    1.9572    1.5219 H   0  0  0  0  0  0  0  0  0  0  0  0
   -2.0798    1.4056    1.0181 H   0  0  0  0  0  0  0  0  0  0  0  0
   -1.6076    1.3380    2.7234 H   0  0  0  0  0  0  0  0  0  0  0  0
    0.1555   -0.3794    2.1591 H   0  0  0  0  0  0  0  0  0  0  0  0
   -1.4658   -0.9495    1.7387 H   0  0  0  0  0  0  0  0  0  0  0  0
    0.2069   -2.0855   -1.3727 H   0  0  0  0  0  0  0  0  0  0  0  0
   -1.0092   -2.5239   -0.0589 H   0  0  0  0  0  0  0  0  0  0  0  0
    0.1715    0.5352   -2.2190 H   0  0  0  0  0  0  0  0  0  0  0  0
    1.7564    1.2384   -2.0199 H   0  0  0  0  0  0  0  0  0  0  0  0
  1 11  1  0  0  0  0
  2  1  1  0  0  0  0
  2 13  1  0  0  0  0
  2 12  1  0  0  0  0
  3  6  1  6  0  0  0
  3  2  1  0  0  0  0
  4 15  1  0  0  0  0
  4  3  1  0  0  0  0
  5  4  1  0  0  0  0
  5  3  1  0  0  0  0
  6  8  2  0  0  0  0
  7  6  1  0  0  0  0
  9  1  1  0  0  0  0
 10  1  1  0  0  0  0
 14  4  1  0  0  0  0
 16  7  1  0  0  0  0
 17  7  1  0  0  0  0
M  END
