title
 OpenBabel02282109593D

 18 18  0  0  1  0  0  0  0  0999 V2000
   -0.7907    0.5859    2.2311 C   0  0  0  0  0  0  0  0  0  0  0  0
   -0.4429   -0.6882    1.4519 C   0  0  0  0  0  0  0  0  0  0  0  0
   -0.2585   -0.4327   -0.0296 C   0  0  1  0  0  0  0  0  0  0  0  0
   -0.7976   -1.3840   -1.0273 C   0  0  0  0  0  0  0  0  0  0  0  0
   -1.4503   -0.1463   -0.7831 O   0  0  0  0  0  0  0  0  0  0  0  0
    0.9619    0.3766   -0.4267 C   0  0  0  0  0  0  0  0  0  0  0  0
    0.8776    1.1959   -1.6978 C   0  0  0  0  0  0  0  0  0  0  0  0
    1.9459    0.3667    0.2792 O   0  0  0  0  0  0  0  0  0  0  0  0
    0.0202    1.3175    2.1710 H   0  0  0  0  0  0  0  0  0  0  0  0
   -1.7019    1.0456    1.8362 H   0  0  0  0  0  0  0  0  0  0  0  0
   -0.9565    0.3582    3.2878 H   0  0  0  0  0  0  0  0  0  0  0  0
    0.4853   -1.1217    1.8361 H   0  0  0  0  0  0  0  0  0  0  0  0
   -1.2362   -1.4321    1.5786 H   0  0  0  0  0  0  0  0  0  0  0  0
   -0.3290   -1.4878   -2.0049 H   0  0  0  0  0  0  0  0  0  0  0  0
   -1.3121   -2.2724   -0.6636 H   0  0  0  0  0  0  0  0  0  0  0  0
    0.1459    1.9993   -1.5606 H   0  0  0  0  0  0  0  0  0  0  0  0
    1.8582    1.6207   -1.9144 H   0  0  0  0  0  0  0  0  0  0  0  0
    0.5255    0.6040   -2.5472 H   0  0  0  0  0  0  0  0  0  0  0  0
  1 11  1  0  0  0  0
  2 13  1  0  0  0  0
  2 12  1  0  0  0  0
  2  1  1  0  0  0  0
  3  6  1  6  0  0  0
  3  2  1  0  0  0  0
  4  5  1  0  0  0  0
  4 15  1  0  0  0  0
  4  3  1  0  0  0  0
  5  3  1  0  0  0  0
  6  8  2  0  0  0  0
  7 16  1  0  0  0  0
  7  6  1  0  0  0  0
  9  1  1  0  0  0  0
 10  1  1  0  0  0  0
 14  4  1  0  0  0  0
 17  7  1  0  0  0  0
 18  7  1  0  0  0  0
M  END
