16
title
N 1.2841984 1.324409 -0.6497898
C 1.0651163 0.28531957 0.20318231
O 1.8446201 -0.04002542 1.0841119
C -0.23727964 -0.4646889 -0.006663616
C -1.1469467 -0.09540311 -1.1573215
O -1.5420156 1.275995 -1.1348087
C -0.2540164 -1.8626702 0.5060336
N -0.948176 -0.81112695 1.2513533
H 2.0837178 1.9039109 -0.4446295
H 0.4853511 1.7498603 -1.1019796
H -0.63388884 -0.23988737 -2.1133332
H -2.0246422 -0.75349665 -1.1363182
H -1.9915369 1.4222472 -0.29387125
H -0.89919114 -2.5912063 0.022777427
H 0.68141335 -2.2381847 0.9065666
H -0.3442912 -0.5339933 2.0251048
