title
 OpenBabel02282109593D

 18 18  0  0  1  0  0  0  0  0999 V2000
   -1.2522    1.2105    1.7148 C   0  0  0  0  0  0  0  0  0  0  0  0
   -0.7617   -0.2179    1.4484 C   0  0  0  0  0  0  0  0  0  0  0  0
   -0.2703   -0.4294    0.0294 C   0  0  1  0  0  0  0  0  0  0  0  0
   -0.4904   -1.7500   -0.6316 C   0  0  0  0  0  0  0  0  0  0  0  0
   -1.2373   -0.5671   -1.0819 N   0  0  0  0  0  0  0  0  0  0  0  0
    0.9982    0.3296   -0.3220 C   0  0  0  0  0  0  0  0  0  0  0  0
    1.1324    0.6153   -1.6443 N   0  0  0  0  0  0  0  0  0  0  0  0
    1.8252    0.6137    0.5266 O   0  0  0  0  0  0  0  0  0  0  0  0
   -0.4386    1.9275    1.5770 H   0  0  0  0  0  0  0  0  0  0  0  0
   -2.0710    1.4884    1.0416 H   0  0  0  0  0  0  0  0  0  0  0  0
   -1.6170    1.3088    2.7414 H   0  0  0  0  0  0  0  0  0  0  0  0
    0.0637   -0.4518    2.1271 H   0  0  0  0  0  0  0  0  0  0  0  0
   -1.5648   -0.9374    1.6518 H   0  0  0  0  0  0  0  0  0  0  0  0
    0.2377   -2.1279   -1.3430 H   0  0  0  0  0  0  0  0  0  0  0  0
   -1.0133   -2.5126   -0.0602 H   0  0  0  0  0  0  0  0  0  0  0  0
   -2.1859   -0.5829   -0.7158 H   0  0  0  0  0  0  0  0  0  0  0  0
    0.3271    0.5153   -2.2428 H   0  0  0  0  0  0  0  0  0  0  0  0
    1.9165    1.1766   -1.9313 H   0  0  0  0  0  0  0  0  0  0  0  0
  1 11  1  0  0  0  0
  2 13  1  0  0  0  0
  2  1  1  0  0  0  0
  2 12  1  0  0  0  0
  3  6  1  6  0  0  0
  3  2  1  0  0  0  0
  4 15  1  0  0  0  0
  4  3  1  0  0  0  0
  5 16  1  0  0  0  0
  5  4  1  0  0  0  0
  5  3  1  0  0  0  0
  6  8  2  0  0  0  0
  7  6  1  0  0  0  0
  9  1  1  0  0  0  0
 10  1  1  0  0  0  0
 14  4  1  0  0  0  0
 17  7  1  0  0  0  0
 18  7  1  0  0  0  0
M  END
