title
 OpenBabel02282109593D

 17 17  0  0  0  0  0  0  0  0999 V2000
    2.0814   -0.6068    0.4073 N   0  0  0  0  0  0  0  0  0  0  0  0
    0.9343    0.1207    0.5113 C   0  0  0  0  0  0  0  0  0  0  0  0
    0.9209    1.1880    1.1140 O   0  0  0  0  0  0  0  0  0  0  0  0
   -0.3036   -0.4032   -0.1644 C   0  0  0  0  0  0  0  0  0  0  0  0
   -1.5548    0.3823    0.2103 C   0  0  0  0  0  0  0  0  0  0  0  0
   -1.4869    1.7377   -0.1669 O   0  0  0  0  0  0  0  0  0  0  0  0
   -0.1829   -0.9153   -1.5906 C   0  0  0  0  0  0  0  0  0  0  0  0
   -0.4657   -1.8782   -0.4778 C   0  0  0  0  0  0  0  0  0  0  0  0
    2.8991   -0.2489    0.8725 H   0  0  0  0  0  0  0  0  0  0  0  0
    2.1177   -1.5297    0.0150 H   0  0  0  0  0  0  0  0  0  0  0  0
   -2.4165   -0.0523   -0.3089 H   0  0  0  0  0  0  0  0  0  0  0  0
   -1.7316    0.2718    1.2920 H   0  0  0  0  0  0  0  0  0  0  0  0
   -0.7173    2.0812    0.3104 H   0  0  0  0  0  0  0  0  0  0  0  0
   -0.9865   -0.6525   -2.2695 H   0  0  0  0  0  0  0  0  0  0  0  0
    0.8021   -0.9194   -2.0437 H   0  0  0  0  0  0  0  0  0  0  0  0
    0.3039   -2.5759   -0.1647 H   0  0  0  0  0  0  0  0  0  0  0  0
   -1.4689   -2.2820   -0.3885 H   0  0  0  0  0  0  0  0  0  0  0  0
  1  2  1  0  0  0  0
  1  9  1  0  0  0  0
  2  3  2  0  0  0  0
  4  5  1  0  0  0  0
  4  2  1  0  0  0  0
  5 12  1  0  0  0  0
  6  5  1  0  0  0  0
  6 13  1  0  0  0  0
  7  8  1  0  0  0  0
  7  4  1  0  0  0  0
  8 17  1  0  0  0  0
  8 16  1  0  0  0  0
  8  4  1  0  0  0  0
 10  1  1  0  0  0  0
 11  5  1  0  0  0  0
 14  7  1  0  0  0  0
 15  7  1  0  0  0  0
M  END
