19
title
C 2.1755235 0.4578002 1.1282221
C 1.5893995 0.35489738 -0.2875679
C 0.2063646 -0.2781832 -0.34975663
C -0.13876835 -1.1402189 -1.5603368
C 0.118572436 -1.7903328 -0.23940612
C -0.9936854 0.44889948 0.20853278
N -0.8052215 1.7552897 0.57363814
O -2.08019 -0.09103325 0.3314246
H 3.177829 0.8967748 1.1049532
H 1.5509899 1.0731205 1.7820945
H 2.2524824 -0.5332616 1.5863062
H 1.5790354 1.3444656 -0.76729923
H 2.263694 -0.24897525 -0.90588623
H -1.1657232 -1.1023642 -1.9029417
H 0.61244136 -1.2166706 -2.3391829
H 1.0525903 -2.3231366 -0.09689377
H -0.736571 -2.1819584 0.29693434
H 0.01293739 2.2719276 0.30458313
H -1.63315 2.2752082 0.8167398
