17
title
C -1.1688749 1.0952886 1.685849
O 0.13366434 0.64011854 1.338813
C 0.15545073 -0.30163223 0.3027777
C 1.0571625 -1.4965507 0.5109433
C -0.43450537 -1.6749486 0.5268207
C 0.117831916 0.24761109 -1.104497
N 0.25175455 1.6038785 -1.1758456
O -0.012602242 -0.47115856 -2.0787902
H -1.6644422 1.5905256 0.84092146
H -1.8035705 0.26970375 2.030971
H -1.042367 1.8127279 2.499867
H 1.6069764 -1.8522686 -0.35195082
H 1.5808319 -1.5250338 1.4592793
H -0.90837526 -1.8507899 1.4855886
H -0.90206355 -2.1408818 -0.3317997
H 0.56962705 2.1035218 -0.3617044
H 0.39574876 2.0066805 -2.0875442
