17
title
C -1.2461852 1.2084755 1.6993333
C -0.6973198 -0.20840505 1.4952729
C -0.22838236 -0.45386586 0.07853606
C -0.47428548 -1.7424608 -0.59622353
O -1.250625 -0.5888571 -0.9282326
C 0.9956616 0.33953303 -0.35481712
N 1.0120902 0.65406597 -1.6774347
O 1.8771265 0.62563556 0.43360177
H -0.4686842 1.9571506 1.5219239
H -2.0797985 1.4055532 1.0181421
H -1.6075823 1.337963 2.7233582
H 0.15545867 -0.3794462 2.1590586
H -1.4657646 -0.94945276 1.7387297
H 0.20687066 -2.0855026 -1.3726697
H -1.0091773 -2.5239403 -0.05894622
H 0.17150484 0.53517216 -2.2189765
H 1.7564418 1.2383991 -2.0198839
