21
title
C 2.3321986 -0.83593214 1.026967
C 1.4100341 0.08946954 0.22718363
C -0.073953904 -0.25863943 0.21280774
C -0.5439163 -1.6344653 0.51247656
N -0.7942049 -0.53563803 1.4690976
C -0.927967 0.57228273 -0.75088733
C -0.9983484 2.0503428 -0.370079
O -0.5069743 0.38890412 -2.1018996
H 3.3484104 -0.43154225 1.043523
H 2.0133336 -0.94070745 2.0704618
H 2.383098 -1.8365439 0.58870405
H 1.5217345 1.1131866 0.60821414
H 1.7538923 0.11039765 -0.8141344
H -1.4302686 -2.0201116 0.015571578
H 0.18348332 -2.3936434 0.7815503
H -0.14029638 -0.6053243 2.245267
H -1.9419168 0.16007066 -0.7045292
H -0.01761786 2.5355756 -0.4497337
H -1.6896087 2.5780382 -1.033242
H -1.3476161 2.1586409 0.6602531
H 0.17067845 1.0442771 -2.2940748
