18
title
C 1.3282096 1.8880023 0.15923288
C 1.3080171 0.3893425 -0.16454257
O 2.1018786 -0.33146244 0.7629182
C -0.1068507 -0.1972636 -0.20859703
C -1.1662649 0.5215369 -1.0346892
O -2.4420404 -0.061858986 -0.8827128
C -0.29654497 -1.6185491 0.09317009
O -0.5932881 -0.60725236 1.088236
H 2.364505 2.2061768 0.29512677
H 0.88655585 2.4897172 -0.6408589
H 0.78044 2.0928078 1.085812
H 1.7739562 0.22648725 -1.1448381
H 1.571042 -0.3936572 1.5690188
H -1.185021 1.5858856 -0.75762594
H -0.90649515 0.46352696 -2.097998
H -2.5778813 -0.14786297 0.06995998
H -1.1714271 -2.1260285 -0.30201215
H 0.5712092 -2.2298539 0.31996912
