title
 OpenBabel02282109593D

 22 22  0  0  1  0  0  0  0  0999 V2000
    2.2467    0.3247    1.2365 C   0  0  0  0  0  0  0  0  0  0  0  0
    1.6726    0.2629   -0.1857 C   0  0  0  0  0  0  0  0  0  0  0  0
    0.2546   -0.2925   -0.2704 C   0  0  0  0  0  0  0  0  0  0  0  0
   -0.1385   -0.9677   -1.5630 C   0  0  0  0  0  0  0  0  0  0  0  0
    0.1148   -1.7934   -0.3228 C   0  0  0  0  0  0  0  0  0  0  0  0
   -0.8219    0.4937    0.4919 C   0  0  1  0  0  0  0  0  0  0  0  0
   -0.9544    1.9427    0.0163 C   0  0  0  0  0  0  0  0  0  0  0  0
   -2.0908   -0.1576    0.4600 O   0  0  0  0  0  0  0  0  0  0  0  0
    3.2933    0.6442    1.2181 H   0  0  0  0  0  0  0  0  0  0  0  0
    1.7018    1.0322    1.8695 H   0  0  0  0  0  0  0  0  0  0  0  0
    2.2026   -0.6562    1.7211 H   0  0  0  0  0  0  0  0  0  0  0  0
    1.7145    1.2604   -0.6414 H   0  0  0  0  0  0  0  0  0  0  0  0
    2.3218   -0.3712   -0.8013 H   0  0  0  0  0  0  0  0  0  0  0  0
   -1.1648   -0.8931   -1.9076 H   0  0  0  0  0  0  0  0  0  0  0  0
    0.5909   -0.9937   -2.3659 H   0  0  0  0  0  0  0  0  0  0  0  0
    1.0193   -2.3916   -0.2801 H   0  0  0  0  0  0  0  0  0  0  0  0
   -0.7504   -2.2312    0.1597 H   0  0  0  0  0  0  0  0  0  0  0  0
   -0.5534    0.4943    1.5550 H   0  0  0  0  0  0  0  0  0  0  0  0
   -1.1807    1.9782   -1.0568 H   0  0  0  0  0  0  0  0  0  0  0  0
   -1.7640    2.4387    0.5589 H   0  0  0  0  0  0  0  0  0  0  0  0
   -0.0353    2.5123    0.1789 H   0  0  0  0  0  0  0  0  0  0  0  0
   -2.4969    0.0313   -0.3924 H   0  0  0  0  0  0  0  0  0  0  0  0
  1 11  1  0  0  0  0
  1 10  1  0  0  0  0
  2  1  1  0  0  0  0
  3  2  1  0  0  0  0
  3  6  1  0  0  0  0
  4  5  1  0  0  0  0
  4  3  1  0  0  0  0
  5 16  1  0  0  0  0
  5  3  1  0  0  0  0
  5 17  1  0  0  0  0
  6 18  1  1  0  0  0
  7 21  1  0  0  0  0
  7  6  1  0  0  0  0
  7 20  1  0  0  0  0
  8  6  1  0  0  0  0
  9  1  1  0  0  0  0
 12  2  1  0  0  0  0
 13  2  1  0  0  0  0
 14  4  1  0  0  0  0
 15  4  1  0  0  0  0
 19  7  1  0  0  0  0
 22  8  1  0  0  0  0
M  END
