title
 OpenBabel02282109593D

 19 19  0  0  1  0  0  0  0  0999 V2000
    2.0412   -0.8762    0.5713 C   0  0  0  0  0  0  0  0  0  0  0  0
    1.0364   -0.2142   -0.3729 C   0  0  1  0  0  0  0  0  0  0  0  0
    1.0176   -0.8655   -1.6439 O   0  0  0  0  0  0  0  0  0  0  0  0
   -0.3941   -0.0833    0.1484 C   0  0  1  0  0  0  0  0  0  0  0  0
   -1.2257    0.9223   -0.6306 C   0  0  0  0  0  0  0  0  0  0  0  0
   -0.8297    2.2456   -0.3140 O   0  0  0  0  0  0  0  0  0  0  0  0
   -1.0735   -1.2246    0.8150 C   0  0  0  0  0  0  0  0  0  0  0  0
   -0.6975   -0.0274    1.5921 N   0  0  0  0  0  0  0  0  0  0  0  0
    2.9961   -0.9762    0.0497 H   0  0  0  0  0  0  0  0  0  0  0  0
    2.2153   -0.2773    1.4712 H   0  0  0  0  0  0  0  0  0  0  0  0
    1.7246   -1.8803    0.8777 H   0  0  0  0  0  0  0  0  0  0  0  0
    1.3850    0.8007   -0.5944 H   0  0  0  0  0  0  0  0  0  0  0  0
    0.6218   -1.7352   -1.5158 H   0  0  0  0  0  0  0  0  0  0  0  0
   -1.0613    0.7900   -1.7035 H   0  0  0  0  0  0  0  0  0  0  0  0
   -2.2932    0.7634   -0.4184 H   0  0  0  0  0  0  0  0  0  0  0  0
   -0.9311    2.3227    0.6428 H   0  0  0  0  0  0  0  0  0  0  0  0
   -2.1421   -1.3702    0.6815 H   0  0  0  0  0  0  0  0  0  0  0  0
   -0.5169   -2.1422    0.9887 H   0  0  0  0  0  0  0  0  0  0  0  0
    0.1330   -0.2309    2.1414 H   0  0  0  0  0  0  0  0  0  0  0  0
  1 11  1  0  0  0  0
  1 10  1  0  0  0  0
  2 12  1  6  0  0  0
  2  4  1  0  0  0  0
  2  1  1  0  0  0  0
  3 13  1  0  0  0  0
  3  2  1  0  0  0  0
  4  5  1  6  0  0  0
  4  7  1  0  0  0  0
  4  8  1  0  0  0  0
  5 15  1  0  0  0  0
  5  6  1  0  0  0  0
  6 16  1  0  0  0  0
  7 18  1  0  0  0  0
  7  8  1  0  0  0  0
  8 19  1  0  0  0  0
  9  1  1  0  0  0  0
 14  5  1  0  0  0  0
 17  7  1  0  0  0  0
M  END
