title
 OpenBabel02282109593D

 22 22  0  0  1  0  0  0  0  0999 V2000
   -0.6414    2.3005    1.1518 C   0  0  0  0  0  0  0  0  0  0  0  0
   -0.7660    0.7908    0.9269 C   0  0  0  0  0  0  0  0  0  0  0  0
    0.1192    0.2163   -0.1722 C   0  0  1  0  0  0  0  0  0  0  0  0
    0.5950    1.0570   -1.2830 C   0  0  0  0  0  0  0  0  0  0  0  0
    1.4652    0.7251   -0.1958 O   0  0  0  0  0  0  0  0  0  0  0  0
    0.0480   -1.2935   -0.4112 C   0  0  0  0  0  0  0  0  0  0  0  0
    0.4852   -2.0940    0.8250 C   0  0  0  0  0  0  0  0  0  0  0  0
   -1.3316   -1.7389   -0.9185 C   0  0  0  0  0  0  0  0  0  0  0  0
    0.4080    2.5868    1.2597 H   0  0  0  0  0  0  0  0  0  0  0  0
   -1.0707    2.8748    0.3250 H   0  0  0  0  0  0  0  0  0  0  0  0
   -1.1724    2.5936    2.0619 H   0  0  0  0  0  0  0  0  0  0  0  0
   -0.5159    0.2727    1.8606 H   0  0  0  0  0  0  0  0  0  0  0  0
   -1.8088    0.5316    0.7080 H   0  0  0  0  0  0  0  0  0  0  0  0
    0.8431    0.5911   -2.2367 H   0  0  0  0  0  0  0  0  0  0  0  0
    0.3143    2.1058   -1.3477 H   0  0  0  0  0  0  0  0  0  0  0  0
    0.7803   -1.4954   -1.2027 H   0  0  0  0  0  0  0  0  0  0  0  0
    0.5779   -3.1566    0.5786 H   0  0  0  0  0  0  0  0  0  0  0  0
    1.4556   -1.7445    1.1898 H   0  0  0  0  0  0  0  0  0  0  0  0
   -0.2389   -2.0113    1.6425 H   0  0  0  0  0  0  0  0  0  0  0  0
   -1.6415   -1.1625   -1.7966 H   0  0  0  0  0  0  0  0  0  0  0  0
   -1.3118   -2.7963   -1.2009 H   0  0  0  0  0  0  0  0  0  0  0  0
   -2.1028   -1.6213   -0.1499 H   0  0  0  0  0  0  0  0  0  0  0  0
  1  9  1  0  0  0  0
  1 11  1  0  0  0  0
  2  1  1  0  0  0  0
  2 12  1  0  0  0  0
  3  6  1  6  0  0  0
  3  2  1  0  0  0  0
  4  5  1  0  0  0  0
  4  3  1  0  0  0  0
  5  3  1  0  0  0  0
  6  7  1  0  0  0  0
  7 18  1  0  0  0  0
  7 19  1  0  0  0  0
  8  6  1  0  0  0  0
  8 22  1  0  0  0  0
 10  1  1  0  0  0  0
 13  2  1  0  0  0  0
 14  4  1  0  0  0  0
 15  4  1  0  0  0  0
 16  6  1  0  0  0  0
 17  7  1  0  0  0  0
 20  8  1  0  0  0  0
 21  8  1  0  0  0  0
M  END
