20
title
C 2.1345105 0.60844934 1.0041839
O 1.4404385 0.5214116 -0.22726259
C 0.27261654 -0.25811434 -0.19399026
C 0.0685114 -1.1060913 -1.4132993
C 0.43430963 -1.7508767 -0.08990747
C -0.9201677 0.44026756 0.4678135
C -1.2389607 1.7720039 -0.20996644
O -2.060637 -0.41057932 0.52394456
H 3.0746999 1.1261944 0.79880834
H 1.5805997 1.1816416 1.7606081
H 2.3554502 -0.3855356 1.4159374
H -0.93748546 -1.2534567 -1.791076
H 0.8374449 -1.0450985 -2.1742883
H 1.4422162 -2.1374485 0.011090659
H -0.3368331 -2.3043244 0.43171185
H -0.6670592 0.6257707 1.5191673
H -1.5389204 1.6078801 -1.2527282
H -2.0543966 2.2807376 0.3114202
H -0.3596588 2.4201272 -0.22176883
H -2.4987724 -0.3681056 -0.33252588
