title
 OpenBabel02282109593D

 18 18  0  0  0  0  0  0  0  0999 V2000
    0.7259    1.6950    0.7708 C   0  0  0  0  0  0  0  0  0  0  0  0
    0.3026    0.2307    0.5586 C   0  0  0  0  0  0  0  0  0  0  0  0
    0.8431   -0.6695    1.6837 C   0  0  0  0  0  0  0  0  0  0  0  0
   -1.1816    0.1581    0.5610 C   0  0  0  0  0  0  0  0  0  0  0  0
   -2.3350    0.0833    0.5161 N   0  0  0  0  0  0  0  0  0  0  0  0
    0.8892   -0.2291   -0.7077 N   0  0  0  0  0  0  0  0  0  0  0  0
    0.2850   -1.3402   -1.4359 C   0  0  0  0  0  0  0  0  0  0  0  0
    0.2161    0.0492   -1.9724 C   0  0  0  0  0  0  0  0  0  0  0  0
    1.8172    1.7486    0.7636 H   0  0  0  0  0  0  0  0  0  0  0  0
    0.3397    2.3300   -0.0304 H   0  0  0  0  0  0  0  0  0  0  0  0
    0.3516    2.0739    1.7250 H   0  0  0  0  0  0  0  0  0  0  0  0
    0.4714   -0.3410    2.6574 H   0  0  0  0  0  0  0  0  0  0  0  0
    0.5398   -1.7079    1.5287 H   0  0  0  0  0  0  0  0  0  0  0  0
    1.9346   -0.6199    1.6780 H   0  0  0  0  0  0  0  0  0  0  0  0
    0.9861   -2.0609   -1.8457 H   0  0  0  0  0  0  0  0  0  0  0  0
   -0.6465   -1.7596   -1.0617 H   0  0  0  0  0  0  0  0  0  0  0  0
   -0.7600    0.5289   -1.9454 H   0  0  0  0  0  0  0  0  0  0  0  0
    0.8658    0.3657   -2.7827 H   0  0  0  0  0  0  0  0  0  0  0  0
  1 11  1  0  0  0  0
  2  4  1  0  0  0  0
  2  1  1  0  0  0  0
  2  3  1  0  0  0  0
  3 12  1  0  0  0  0
  5  4  3  0  0  0  0
  6  2  1  0  0  0  0
  7 16  1  0  0  0  0
  7  6  1  0  0  0  0
  8 17  1  0  0  0  0
  8  7  1  0  0  0  0
  8  6  1  0  0  0  0
  9  1  1  0  0  0  0
 10  1  1  0  0  0  0
 13  3  1  0  0  0  0
 14  3  1  0  0  0  0
 15  7  1  0  0  0  0
 18  8  1  0  0  0  0
M  END
