17
title
C 0.04685496 1.9570538 0.2839479
C 0.17119434 0.43664426 0.533769
C 0.8912908 0.1544088 1.8714966
C -1.1770598 -0.15038173 0.5840178
N -2.2334542 -0.61402464 0.65201926
C 0.9746894 -0.18625395 -0.6109629
C 0.6631989 -1.4721384 -1.2440345
O 0.36309293 -0.22697954 -1.89022
H 1.0440497 2.4077013 0.26433125
H -0.4415597 2.1475189 -0.6740238
H -0.5332926 2.4353673 1.0770719
H 0.34799692 0.607552 2.7042162
H 0.974529 -0.9194634 2.057136
H 1.8980948 0.5823913 1.8450758
H 2.0127199 0.15415235 -0.61693305
H 1.4647236 -2.0505052 -1.7001752
H -0.20419174 -2.0393558 -0.9146432
