title
 OpenBabel02282109593D

 22 22  0  0  0  0  0  0  0  0999 V2000
   -0.5161    2.0320    1.4628 C   0  0  0  0  0  0  0  0  0  0  0  0
   -0.0797    0.7057    1.2948 O   0  0  0  0  0  0  0  0  0  0  0  0
    0.2161    0.2383   -0.0048 C   0  0  0  0  0  0  0  0  0  0  0  0
   -0.1926    1.0067   -1.2343 C   0  0  0  0  0  0  0  0  0  0  0  0
    1.2689    0.9398   -0.8203 C   0  0  0  0  0  0  0  0  0  0  0  0
    0.0961   -1.2853    0.0435 C   0  0  0  0  0  0  0  0  0  0  0  0
   -1.3756   -1.6908    0.2242 C   0  0  0  0  0  0  0  0  0  0  0  0
    0.7277   -2.0233   -1.1420 C   0  0  0  0  0  0  0  0  0  0  0  0
    0.2008    2.7729    1.0784 H   0  0  0  0  0  0  0  0  0  0  0  0
   -1.4926    2.2148    0.9927 H   0  0  0  0  0  0  0  0  0  0  0  0
   -0.6161    2.1865    2.5403 H   0  0  0  0  0  0  0  0  0  0  0  0
   -0.5095    0.4428   -2.1051 H   0  0  0  0  0  0  0  0  0  0  0  0
   -0.6998    1.9576   -1.1251 H   0  0  0  0  0  0  0  0  0  0  0  0
    1.7036    1.8422   -0.4033 H   0  0  0  0  0  0  0  0  0  0  0  0
    1.9565    0.3576   -1.4213 H   0  0  0  0  0  0  0  0  0  0  0  0
    0.6388   -1.5841    0.9503 H   0  0  0  0  0  0  0  0  0  0  0  0
   -1.4660   -2.7673    0.4017 H   0  0  0  0  0  0  0  0  0  0  0  0
   -1.8184   -1.1642    1.0726 H   0  0  0  0  0  0  0  0  0  0  0  0
   -1.9607   -1.4495   -0.6709 H   0  0  0  0  0  0  0  0  0  0  0  0
    1.8043   -1.8471   -1.2130 H   0  0  0  0  0  0  0  0  0  0  0  0
    0.5792   -3.1014   -1.0256 H   0  0  0  0  0  0  0  0  0  0  0  0
    0.2701   -1.7376   -2.0961 H   0  0  0  0  0  0  0  0  0  0  0  0
  1 11  1  0  0  0  0
  2  1  1  0  0  0  0
  3  6  1  0  0  0  0
  3  2  1  0  0  0  0
  4 13  1  0  0  0  0
  4  5  1  0  0  0  0
  4  3  1  0  0  0  0
  5 14  1  0  0  0  0
  5  3  1  0  0  0  0
  6  7  1  0  0  0  0
  6 16  1  0  0  0  0
  7 17  1  0  0  0  0
  7 18  1  0  0  0  0
  8 21  1  0  0  0  0
  8  6  1  0  0  0  0
  9  1  1  0  0  0  0
 10  1  1  0  0  0  0
 12  4  1  0  0  0  0
 15  5  1  0  0  0  0
 19  7  1  0  0  0  0
 20  8  1  0  0  0  0
 22  8  1  0  0  0  0
M  END
