title
 OpenBabel02282109593D

 18 18  0  0  1  0  0  0  0  0999 V2000
    0.0634    1.9534    0.2957 C   0  0  0  0  0  0  0  0  0  0  0  0
    0.1504    0.4277    0.5372 C   0  0  0  0  0  0  0  0  0  0  0  0
    0.8774    0.1365    1.8708 C   0  0  0  0  0  0  0  0  0  0  0  0
   -1.2023   -0.1341    0.5829 C   0  0  0  0  0  0  0  0  0  0  0  0
   -2.3161   -0.5804    0.6568 C   0  0  0  0  0  0  0  0  0  0  0  0
    0.9700   -0.1882   -0.6011 C   0  0  1  0  0  0  0  0  0  0  0  0
    0.6789   -1.4798   -1.2304 C   0  0  0  0  0  0  0  0  0  0  0  0
    0.3753   -0.2445   -1.8909 O   0  0  0  0  0  0  0  0  0  0  0  0
    1.0677    2.3901    0.2778 H   0  0  0  0  0  0  0  0  0  0  0  0
   -0.4230    2.1589   -0.6605 H   0  0  0  0  0  0  0  0  0  0  0  0
   -0.5097    2.4372    1.0909 H   0  0  0  0  0  0  0  0  0  0  0  0
    0.3395    0.5926    2.7058 H   0  0  0  0  0  0  0  0  0  0  0  0
    0.9455   -0.9393    2.0534 H   0  0  0  0  0  0  0  0  0  0  0  0
    1.8911    0.5504    1.8480 H   0  0  0  0  0  0  0  0  0  0  0  0
   -3.3020   -0.9717    0.7094 H   0  0  0  0  0  0  0  0  0  0  0  0
    2.0062    0.1591   -0.6038 H   0  0  0  0  0  0  0  0  0  0  0  0
    1.4897   -2.0571   -1.6725 H   0  0  0  0  0  0  0  0  0  0  0  0
   -0.1874   -2.0487   -0.9014 H   0  0  0  0  0  0  0  0  0  0  0  0
  1  2  1  0  0  0  0
  1 11  1  0  0  0  0
  2  4  1  0  0  0  0
  2  3  1  0  0  0  0
  3 13  1  0  0  0  0
  3 12  1  0  0  0  0
  4  5  3  0  0  0  0
  5 15  1  0  0  0  0
  6 16  1  1  0  0  0
  6  2  1  0  0  0  0
  7 18  1  0  0  0  0
  7  6  1  0  0  0  0
  8  7  1  0  0  0  0
  8  6  1  0  0  0  0
  9  1  1  0  0  0  0
 10  1  1  0  0  0  0
 14  3  1  0  0  0  0
 17  7  1  0  0  0  0
M  END
