title
 OpenBabel02282109593D

 18 18  0  0  1  0  0  0  0  0999 V2000
    0.0589    1.9991    0.3277 C   0  0  0  0  0  0  0  0  0  0  0  0
    0.1823    0.4679    0.5100 C   0  0  0  0  0  0  0  0  0  0  0  0
    0.9303    0.1387    1.8216 C   0  0  0  0  0  0  0  0  0  0  0  0
   -1.1707   -0.1079    0.5671 C   0  0  0  0  0  0  0  0  0  0  0  0
   -2.2346   -0.5604    0.5918 N   0  0  0  0  0  0  0  0  0  0  0  0
    0.9473   -0.1288   -0.6791 C   0  0  1  0  0  0  0  0  0  0  0  0
    0.7592   -1.5242   -1.1393 C   0  0  0  0  0  0  0  0  0  0  0  0
    0.3155   -0.3892   -1.9743 N   0  0  0  0  0  0  0  0  0  0  0  0
    1.0591    2.4411    0.2915 H   0  0  0  0  0  0  0  0  0  0  0  0
   -0.4590    2.2434   -0.6028 H   0  0  0  0  0  0  0  0  0  0  0  0
   -0.4884    2.4494    1.1599 H   0  0  0  0  0  0  0  0  0  0  0  0
    0.4243    0.5831    2.6826 H   0  0  0  0  0  0  0  0  0  0  0  0
    0.9973   -0.9409    1.9749 H   0  0  0  0  0  0  0  0  0  0  0  0
    1.9450    0.5452    1.7716 H   0  0  0  0  0  0  0  0  0  0  0  0
    1.9400    0.3115   -0.7654 H   0  0  0  0  0  0  0  0  0  0  0  0
    1.6031   -2.0834   -1.5322 H   0  0  0  0  0  0  0  0  0  0  0  0
   -0.0019   -2.1249   -0.6489 H   0  0  0  0  0  0  0  0  0  0  0  0
   -0.6963   -0.2958   -1.8980 H   0  0  0  0  0  0  0  0  0  0  0  0
  1  2  1  0  0  0  0
  1 11  1  0  0  0  0
  2  4  1  0  0  0  0
  2  3  1  0  0  0  0
  3 13  1  0  0  0  0
  3 12  1  0  0  0  0
  4  5  3  0  0  0  0
  6 15  1  6  0  0  0
  6  2  1  0  0  0  0
  7  6  1  0  0  0  0
  7 17  1  0  0  0  0
  8 18  1  0  0  0  0
  8  7  1  0  0  0  0
  8  6  1  0  0  0  0
  9  1  1  0  0  0  0
 10  1  1  0  0  0  0
 14  3  1  0  0  0  0
 16  7  1  0  0  0  0
M  END
