title
 OpenBabel02282109593D

 17 17  0  0  1  0  0  0  0  0999 V2000
    0.0469    1.9571    0.2839 C   0  0  0  0  0  0  0  0  0  0  0  0
    0.1712    0.4366    0.5338 C   0  0  0  0  0  0  0  0  0  0  0  0
    0.8913    0.1544    1.8715 C   0  0  0  0  0  0  0  0  0  0  0  0
   -1.1771   -0.1504    0.5840 C   0  0  0  0  0  0  0  0  0  0  0  0
   -2.2335   -0.6140    0.6520 N   0  0  0  0  0  0  0  0  0  0  0  0
    0.9747   -0.1863   -0.6110 C   0  0  1  0  0  0  0  0  0  0  0  0
    0.6632   -1.4721   -1.2440 C   0  0  0  0  0  0  0  0  0  0  0  0
    0.3631   -0.2270   -1.8902 O   0  0  0  0  0  0  0  0  0  0  0  0
    1.0440    2.4077    0.2643 H   0  0  0  0  0  0  0  0  0  0  0  0
   -0.4416    2.1475   -0.6740 H   0  0  0  0  0  0  0  0  0  0  0  0
   -0.5333    2.4354    1.0771 H   0  0  0  0  0  0  0  0  0  0  0  0
    0.3480    0.6076    2.7042 H   0  0  0  0  0  0  0  0  0  0  0  0
    0.9745   -0.9195    2.0571 H   0  0  0  0  0  0  0  0  0  0  0  0
    1.8981    0.5824    1.8451 H   0  0  0  0  0  0  0  0  0  0  0  0
    2.0127    0.1542   -0.6169 H   0  0  0  0  0  0  0  0  0  0  0  0
    1.4647   -2.0505   -1.7002 H   0  0  0  0  0  0  0  0  0  0  0  0
   -0.2042   -2.0394   -0.9146 H   0  0  0  0  0  0  0  0  0  0  0  0
  1  2  1  0  0  0  0
  1 11  1  0  0  0  0
  2  4  1  0  0  0  0
  2  3  1  0  0  0  0
  3 13  1  0  0  0  0
  3 12  1  0  0  0  0
  4  5  3  0  0  0  0
  6 15  1  6  0  0  0
  6  2  1  0  0  0  0
  7 17  1  0  0  0  0
  7  6  1  0  0  0  0
  8  7  1  0  0  0  0
  8  6  1  0  0  0  0
  9  1  1  0  0  0  0
 10  1  1  0  0  0  0
 14  3  1  0  0  0  0
 16  7  1  0  0  0  0
M  END
