19
title
C 0.70921075 1.6937851 0.7713999
C 0.2753874 0.23089844 0.5603506
C 0.84155786 -0.6648788 1.6783023
C -1.1970117 0.15152067 0.568784
C -2.398253 0.0794032 0.55638987
N 0.89053607 -0.22183573 -0.7068947
C 0.301475 -1.3360945 -1.4395094
C 0.22357045 0.053156585 -1.9737115
H 1.8009136 1.7503538 0.7600746
H 0.31862247 2.3301458 -0.027012857
H 0.3374035 2.0729382 1.7267697
H 0.4729733 -0.34247643 2.6555073
H 0.54504436 -1.7057927 1.5248318
H 1.9332305 -0.6077655 1.6667259
H -3.4588795 0.021056592 0.55871177
H 1.0101999 -2.0510092 -1.8478334
H -0.6281075 -1.762322 -1.0686353
H -0.756355 0.52477837 -1.9480782
H 0.8740643 0.3767188 -2.781355
