18
title
C 0.06339171 1.9534336 0.29569444
C 0.15044649 0.4277346 0.5371664
C 0.877403 0.13650449 1.8707904
C -1.2023106 -0.13408782 0.5829136
C -2.3161013 -0.58044153 0.65682316
C 0.9699887 -0.18820615 -0.6011195
C 0.6788563 -1.4798441 -1.2303747
O 0.37528774 -0.2445255 -1.8908582
H 1.0677294 2.3900921 0.27780506
H -0.42299408 2.1588633 -0.66050375
H -0.5096802 2.4372156 1.0909488
H 0.3395477 0.5925948 2.705786
H 0.9454749 -0.93925744 2.0534058
H 1.8911073 0.55036104 1.8480453
H -3.3019736 -0.97172076 0.709385
H 2.006211 0.15905456 -0.60382235
H 1.489676 -2.0571213 -1.6725395
H -0.18740138 -2.0486937 -0.90140307
