18
title
C 0.058892377 1.9991221 0.3277471
C 0.18234463 0.46793067 0.51003724
C 0.93027794 0.1387024 1.821567
C -1.1706984 -0.10787562 0.567072
N -2.2345874 -0.56037205 0.59182763
C 0.9473439 -0.12882933 -0.6791356
C 0.7592083 -1.5242444 -1.139271
N 0.3154887 -0.38919267 -1.9743083
H 1.059079 2.4410527 0.29150078
H -0.45901352 2.2434185 -0.6028121
H -0.488446 2.4493687 1.1599314
H 0.42427364 0.5831012 2.6826208
H 0.9973096 -0.9408739 1.9749073
H 1.9449726 0.54519993 1.7715987
H 1.9399917 0.31145665 -0.76540834
H 1.6031148 -2.0834193 -1.532211
H -0.001918734 -2.1249044 -0.648905
H -0.6963403 -0.2958378 -1.8979723
