20
title
C 1.2361664 2.363591 -0.051316503
C 1.1526321 0.8526102 0.17929198
C -0.22338186 0.23726293 -0.025225949
C -1.4542055 1.0301582 0.10027846
O -0.94516516 0.66722065 -1.1904368
C -0.33370253 -1.2738655 0.20415546
C 0.44013444 -2.0896096 -0.83074594
O 0.027391093 -1.6148144 1.5400544
H 2.278979 2.6929448 -0.048146594
H 0.7963744 2.628147 -1.0167856
H 0.71342796 2.9240198 0.7295311
H 1.8518243 0.35152525 -0.50223213
H 1.481191 0.6084242 1.1967576
H -2.3794937 0.53556937 0.39320454
H -1.4085464 2.091671 0.33101836
H -1.3953276 -1.5310584 0.11812609
H 1.5210428 -1.922403 -0.7515926
H 0.25185606 -3.1565235 -0.6832091
H 0.12885846 -1.8126305 -1.8417206
H 0.9839752 -1.7167636 1.5729415
