title
 OpenBabel02282109593D

 16 16  0  0  1  0  0  0  0  0999 V2000
    0.1282    1.9548    0.3152 C   0  0  0  0  0  0  0  0  0  0  0  0
    0.1516    0.4332    0.5044 C   0  0  1  0  0  0  0  0  0  0  0  0
    0.8568    0.1963    1.7271 O   0  0  0  0  0  0  0  0  0  0  0  0
   -1.2156   -0.0993    0.5808 C   0  0  0  0  0  0  0  0  0  0  0  0
   -2.3255   -0.5493    0.6836 C   0  0  0  0  0  0  0  0  0  0  0  0
    0.9505   -0.2092   -0.6345 C   0  0  1  0  0  0  0  0  0  0  0  0
    0.6334   -1.5122   -1.2295 C   0  0  0  0  0  0  0  0  0  0  0  0
    0.3379   -0.2883   -1.9135 O   0  0  0  0  0  0  0  0  0  0  0  0
    1.1541    2.3341    0.3178 H   0  0  0  0  0  0  0  0  0  0  0  0
   -0.3472    2.2061   -0.6352 H   0  0  0  0  0  0  0  0  0  0  0  0
   -0.4229    2.4246    1.1321 H   0  0  0  0  0  0  0  0  0  0  0  0
    0.7669   -0.7396    1.9394 H   0  0  0  0  0  0  0  0  0  0  0  0
   -3.3116   -0.9353    0.7688 H   0  0  0  0  0  0  0  0  0  0  0  0
    1.9885    0.1275   -0.6380 H   0  0  0  0  0  0  0  0  0  0  0  0
    1.4334   -2.1076   -1.6668 H   0  0  0  0  0  0  0  0  0  0  0  0
   -0.2367   -2.0637   -0.8812 H   0  0  0  0  0  0  0  0  0  0  0  0
  1  9  1  0  0  0  0
  1  2  1  0  0  0  0
  1 11  1  0  0  0  0
  2  4  1  1  0  0  0
  2  3  1  0  0  0  0
  3 12  1  0  0  0  0
  4  5  3  0  0  0  0
  5 13  1  0  0  0  0
  6 14  1  6  0  0  0
  6  2  1  0  0  0  0
  7 16  1  0  0  0  0
  7  6  1  0  0  0  0
  8  7  1  0  0  0  0
  8  6  1  0  0  0  0
 10  1  1  0  0  0  0
 15  7  1  0  0  0  0
M  END
