18
title
C 0.03817801 1.9509206 0.33440924
C -0.10898611 0.41593826 0.33906716
N 0.41726083 -0.0836937 1.6129992
C -1.5502807 0.07521556 0.3056885
N -2.6714566 -0.19735362 0.24586579
C 0.52405065 -0.16441514 -0.94153017
C 1.9956912 -0.47290224 -1.0239713
C 0.9822501 -1.5918226 -1.0420501
H 1.1020858 2.2078567 0.34186053
H -0.41215032 2.3834693 -0.56190777
H -0.43766338 2.3800342 1.2180829
H 0.3492675 -1.09451 1.67004
H 1.3947245 0.17237754 1.7072195
H 0.077504516 0.24796303 -1.8420031
H 2.519435 -0.22174086 -1.9391422
H 2.5978987 -0.3672129 -0.12747583
H 0.9210565 -2.2182 -0.15815628
H 0.79953784 -2.1219077 -1.9694016
