title
 OpenBabel02282109593D

 18 18  0  0  1  0  0  0  0  0999 V2000
    0.0475    1.9287    0.3835 C   0  0  0  0  0  0  0  0  0  0  0  0
   -0.1519    0.4084    0.3018 C   0  0  1  0  0  0  0  0  0  0  0  0
    0.4650   -0.1284    1.4788 O   0  0  0  0  0  0  0  0  0  0  0  0
   -1.5851    0.0748    0.2934 C   0  0  0  0  0  0  0  0  0  0  0  0
   -2.7490   -0.2271    0.2912 C   0  0  0  0  0  0  0  0  0  0  0  0
    0.5055   -0.1470   -0.9682 C   0  0  0  0  0  0  0  0  0  0  0  0
    1.9891   -0.3941   -1.0059 C   0  0  0  0  0  0  0  0  0  0  0  0
    1.0253   -1.5565   -1.0308 C   0  0  0  0  0  0  0  0  0  0  0  0
    1.1172    2.1447    0.4427 H   0  0  0  0  0  0  0  0  0  0  0  0
   -0.3654    2.4192   -0.5015 H   0  0  0  0  0  0  0  0  0  0  0  0
   -0.4460    2.3259    1.2730 H   0  0  0  0  0  0  0  0  0  0  0  0
    0.0614   -0.9842    1.6562 H   0  0  0  0  0  0  0  0  0  0  0  0
   -3.7793   -0.4856    0.2904 H   0  0  0  0  0  0  0  0  0  0  0  0
    0.0494    0.2355   -1.8765 H   0  0  0  0  0  0  0  0  0  0  0  0
    2.5307   -0.1422   -1.9107 H   0  0  0  0  0  0  0  0  0  0  0  0
    2.5372   -0.2389   -0.0840 H   0  0  0  0  0  0  0  0  0  0  0  0
    0.9698   -2.1646   -0.1345 H   0  0  0  0  0  0  0  0  0  0  0  0
    0.8910   -2.1104   -1.9530 H   0  0  0  0  0  0  0  0  0  0  0  0
  1  9  1  0  0  0  0
  1 11  1  0  0  0  0
  2  4  1  6  0  0  0
  2  1  1  0  0  0  0
  2  3  1  0  0  0  0
  3 12  1  0  0  0  0
  5  4  3  0  0  0  0
  6  2  1  0  0  0  0
  7  6  1  0  0  0  0
  7 16  1  0  0  0  0
  8  7  1  0  0  0  0
  8  6  1  0  0  0  0
  8 17  1  0  0  0  0
 10  1  1  0  0  0  0
 13  5  1  0  0  0  0
 14  6  1  0  0  0  0
 15  7  1  0  0  0  0
 18  8  1  0  0  0  0
M  END
