18
title
C 0.04746551 1.9286665 0.38348773
C -0.15188442 0.40840253 0.30178496
O 0.46495417 -0.12844723 1.4788029
C -1.5850837 0.0748147 0.2934067
C -2.7490027 -0.22708273 0.2912391
C 0.5055436 -0.14698696 -0.9681856
C 1.9890581 -0.39405656 -1.0059355
C 1.0253136 -1.5565388 -1.0307904
H 1.1172295 2.1447392 0.44268817
H -0.3654356 2.419219 -0.50145984
H -0.44597158 2.3259408 1.2730013
H 0.061353467 -0.98420453 1.6561627
H -3.7792795 -0.4856091 0.29037595
H 0.04938344 0.235502 -1.8765161
H 2.5306597 -0.14219916 -1.9107482
H 2.537212 -0.23893571 -0.083971865
H 0.9697522 -2.16465 -0.13452509
H 0.89095235 -2.1103535 -1.9529905
