title
 OpenBabel02282109593D

 20 20  0  0  0  0  0  0  0  0999 V2000
    0.0918    1.8429    0.3277 C   0  0  0  0  0  0  0  0  0  0  0  0
   -0.0562    0.3162    0.3510 C   0  0  0  0  0  0  0  0  0  0  0  0
    0.5217   -0.2648    1.6565 C   0  0  0  0  0  0  0  0  0  0  0  0
   -1.5316   -0.0768    0.3040 C   0  0  0  0  0  0  0  0  0  0  0  0
   -2.4577    0.6871    0.2162 O   0  0  0  0  0  0  0  0  0  0  0  0
    0.5695   -0.2846   -0.9165 C   0  0  0  0  0  0  0  0  0  0  0  0
    2.0324   -0.6307   -1.0473 C   0  0  0  0  0  0  0  0  0  0  0  0
    0.9963   -1.7261   -1.0596 C   0  0  0  0  0  0  0  0  0  0  0  0
    1.1498    2.1211    0.3427 H   0  0  0  0  0  0  0  0  0  0  0  0
   -0.3654    2.2663   -0.5705 H   0  0  0  0  0  0  0  0  0  0  0  0
   -0.4020    2.2981    1.1905 H   0  0  0  0  0  0  0  0  0  0  0  0
    0.0434    0.2060    2.5208 H   0  0  0  0  0  0  0  0  0  0  0  0
    0.3620   -1.3445    1.7372 H   0  0  0  0  0  0  0  0  0  0  0  0
    1.5957   -0.0721    1.7296 H   0  0  0  0  0  0  0  0  0  0  0  0
   -1.7001   -1.1785    0.3470 H   0  0  0  0  0  0  0  0  0  0  0  0
    0.1325    0.1440   -1.8158 H   0  0  0  0  0  0  0  0  0  0  0  0
    2.5298   -0.3730   -1.9756 H   0  0  0  0  0  0  0  0  0  0  0  0
    2.6682   -0.5523   -0.1728 H   0  0  0  0  0  0  0  0  0  0  0  0
    0.9490   -2.3741   -0.1919 H   0  0  0  0  0  0  0  0  0  0  0  0
    0.7803   -2.2299   -1.9951 H   0  0  0  0  0  0  0  0  0  0  0  0
  1  9  1  0  0  0  0
  1  2  1  0  0  0  0
  1 11  1  0  0  0  0
  2  3  1  0  0  0  0
  3 14  1  0  0  0  0
  3 13  1  0  0  0  0
  3 12  1  0  0  0  0
  4 15  1  0  0  0  0
  4  2  1  0  0  0  0
  5  4  2  0  0  0  0
  6  2  1  0  0  0  0
  7  6  1  0  0  0  0
  7 18  1  0  0  0  0
  8  7  1  0  0  0  0
  8  6  1  0  0  0  0
  8 19  1  0  0  0  0
 10  1  1  0  0  0  0
 16  6  1  0  0  0  0
 17  7  1  0  0  0  0
 20  8  1  0  0  0  0
M  END
