title
 OpenBabel02282109593D

 17 17  0  0  1  0  0  0  0  0999 V2000
    0.0755    1.9994    0.3234 C   0  0  0  0  0  0  0  0  0  0  0  0
    0.1805    0.4721    0.4926 C   0  0  1  0  0  0  0  0  0  0  0  0
    0.9354    0.1843    1.7159 N   0  0  0  0  0  0  0  0  0  0  0  0
   -1.1920   -0.0968    0.5372 C   0  0  0  0  0  0  0  0  0  0  0  0
   -2.2519   -0.5564    0.6016 N   0  0  0  0  0  0  0  0  0  0  0  0
    0.9533   -0.1328   -0.6821 C   0  0  1  0  0  0  0  0  0  0  0  0
    0.7651   -1.5389   -1.1156 C   0  0  0  0  0  0  0  0  0  0  0  0
    0.3219   -0.4202   -1.9703 N   0  0  0  0  0  0  0  0  0  0  0  0
    1.0839    2.4195    0.3040 H   0  0  0  0  0  0  0  0  0  0  0  0
   -0.4387    2.2526   -0.6064 H   0  0  0  0  0  0  0  0  0  0  0  0
   -0.4753    2.4468    1.1558 H   0  0  0  0  0  0  0  0  0  0  0  0
    0.4693    0.5870    2.5239 H   0  0  0  0  0  0  0  0  0  0  0  0
    0.9879   -0.8187    1.8674 H   0  0  0  0  0  0  0  0  0  0  0  0
    1.9446    0.3075   -0.7587 H   0  0  0  0  0  0  0  0  0  0  0  0
    1.6113   -2.1023   -1.4968 H   0  0  0  0  0  0  0  0  0  0  0  0
    0.0033   -2.1328   -0.6177 H   0  0  0  0  0  0  0  0  0  0  0  0
   -0.6902   -0.3266   -1.9001 H   0  0  0  0  0  0  0  0  0  0  0  0
  1  2  1  0  0  0  0
  1 11  1  0  0  0  0
  2  4  1  1  0  0  0
  2  3  1  0  0  0  0
  3 13  1  0  0  0  0
  3 12  1  0  0  0  0
  4  5  3  0  0  0  0
  6 14  1  6  0  0  0
  6  2  1  0  0  0  0
  7  6  1  0  0  0  0
  7 16  1  0  0  0  0
  8 17  1  0  0  0  0
  8  7  1  0  0  0  0
  8  6  1  0  0  0  0
  9  1  1  0  0  0  0
 10  1  1  0  0  0  0
 15  7  1  0  0  0  0
M  END
