title
 OpenBabel02282109593D

 17 17  0  0  1  0  0  0  0  0999 V2000
    0.0793    1.9270    0.3845 C   0  0  0  0  0  0  0  0  0  0  0  0
   -0.1238    0.4089    0.3035 C   0  0  1  0  0  0  0  0  0  0  0  0
    0.4450   -0.1290    1.4914 O   0  0  0  0  0  0  0  0  0  0  0  0
   -1.5764    0.1004    0.2736 C   0  0  0  0  0  0  0  0  0  0  0  0
   -2.7006   -0.1674    0.2515 N   0  0  0  0  0  0  0  0  0  0  0  0
    0.5208   -0.1627   -0.9626 C   0  0  0  0  0  0  0  0  0  0  0  0
    2.0005   -0.4324   -0.9937 C   0  0  0  0  0  0  0  0  0  0  0  0
    1.0212   -1.5805   -1.0237 C   0  0  0  0  0  0  0  0  0  0  0  0
    1.1510    2.1316    0.4378 H   0  0  0  0  0  0  0  0  0  0  0  0
   -0.3343    2.4192   -0.4987 H   0  0  0  0  0  0  0  0  0  0  0  0
   -0.4058    2.3270    1.2771 H   0  0  0  0  0  0  0  0  0  0  0  0
    0.1561   -1.0434    1.5854 H   0  0  0  0  0  0  0  0  0  0  0  0
    0.0723    0.2264   -1.8718 H   0  0  0  0  0  0  0  0  0  0  0  0
    2.5475   -0.1853   -1.8962 H   0  0  0  0  0  0  0  0  0  0  0  0
    2.5483   -0.2840   -0.0704 H   0  0  0  0  0  0  0  0  0  0  0  0
    0.9567   -2.1962   -0.1329 H   0  0  0  0  0  0  0  0  0  0  0  0
    0.8770   -2.1284   -1.9475 H   0  0  0  0  0  0  0  0  0  0  0  0
  1  9  1  0  0  0  0
  1 11  1  0  0  0  0
  2  4  1  6  0  0  0
  2  1  1  0  0  0  0
  2  3  1  0  0  0  0
  3 12  1  0  0  0  0
  5  4  3  0  0  0  0
  6  2  1  0  0  0  0
  7  6  1  0  0  0  0
  7 15  1  0  0  0  0
  8  7  1  0  0  0  0
  8  6  1  0  0  0  0
  8 16  1  0  0  0  0
 10  1  1  0  0  0  0
 13  6  1  0  0  0  0
 14  7  1  0  0  0  0
 17  8  1  0  0  0  0
M  END
