19
title
C 1.0825534 1.5521276 0.76857734
C 0.41738158 0.17436524 0.56854016
C 1.0237534 -0.85126 1.5488987
C -1.0541707 0.33723095 0.9592918
O -2.0190692 0.13587229 0.26681015
N 0.7300428 -0.27281857 -0.78525203
C -0.05623011 -1.2708288 -1.4991605
C -0.0212319 0.14970897 -1.9604087
H 2.1571672 1.4583997 0.5939737
H 0.6823114 2.2834003 0.059896242
H 0.9236717 1.9309274 1.7828492
H 0.8628944 -0.55490893 2.5899467
H 0.58138514 -1.8407044 1.3989236
H 2.0988357 -0.9255862 1.3679568
H -1.1796112 0.68312734 2.0146914
H 0.5274135 -2.0304856 -2.013795
H -0.99239874 -1.6128902 -1.0710417
H -0.9349389 0.71924955 -1.8282864
H 0.5881515 0.43551877 -2.8145363
