17
title
C -0.16724287 1.8363805 0.53900045
C -0.13303873 0.30438796 0.43837562
O 0.6438775 -0.15328023 1.5415401
C -1.5787245 -0.18388876 0.59787846
O -2.367026 -0.3116171 -0.29928124
C 0.43991816 -0.14157882 -0.90658885
C 1.8819743 0.012257089 -1.1967227
N 1.295445 -1.3320322 -1.014095
H 0.8573468 2.2156312 0.5657212
H -0.6842701 2.2616277 -0.3246644
H -0.67805225 2.156688 1.4521555
H 0.4297818 -1.0766468 1.716236
H -1.8542234 -0.3881248 1.6606424
H -0.2785894 -0.04589134 -1.7155118
H 2.214243 0.23866147 -2.2055297
H 2.5179317 0.39606518 -0.40370536
H 1.5471101 -1.6460388 -0.07865839
