18
title
C 0.2256358 1.8368996 0.5856678
C -0.07404011 0.33852327 0.43700048
O 0.5057316 -0.28413942 1.5795192
C -1.5989451 0.17798328 0.51465553
O -2.3439593 0.1329104 -0.42812142
C 0.45777473 -0.2066516 -0.8810503
C 1.9317342 -0.41346028 -1.0918436
C 1.0080202 -1.6047918 -1.0084747
H 1.3078991 1.9809302 0.63707507
H -0.16932558 2.3920748 -0.2687132
H -0.21911453 2.2322564 1.5038407
H 0.2963225 -1.2242504 1.5513406
H -1.9692957 0.12206569 1.5655274
H -0.11989724 0.14572936 -1.7288201
H 2.360848 -0.14942393 -2.0517528
H 2.5821187 -0.24445173 -0.24053952
H 1.0915595 -2.228449 -0.12413588
H 0.7775721 -2.1573634 -1.9120648
