title
 OpenBabel02282109593D

 20 20  0  0  1  0  0  0  0  0999 V2000
    0.0674    1.5084    0.5652 C   0  0  0  0  0  0  0  0  0  0  0  0
   -0.0460    0.0034    0.3034 C   0  0  1  0  0  0  0  0  0  0  0  0
    0.3305   -0.7185    1.4934 O   0  0  0  0  0  0  0  0  0  0  0  0
   -1.5199   -0.4017    0.1092 C   0  0  0  0  0  0  0  0  0  0  0  0
   -2.2975   -0.1287    1.2564 O   0  0  0  0  0  0  0  0  0  0  0  0
    0.7817   -0.5133   -0.8636 C   0  0  0  0  0  0  0  0  0  0  0  0
    0.9185    0.2077   -2.1811 C   0  0  0  0  0  0  0  0  0  0  0  0
    2.1122    0.0779   -1.2695 C   0  0  0  0  0  0  0  0  0  0  0  0
    1.0761    1.7802    0.8935 H   0  0  0  0  0  0  0  0  0  0  0  0
   -0.1692    2.0980   -0.3255 H   0  0  0  0  0  0  0  0  0  0  0  0
   -0.6397    1.7826    1.3502 H   0  0  0  0  0  0  0  0  0  0  0  0
    1.2438   -0.4943    1.6988 H   0  0  0  0  0  0  0  0  0  0  0  0
   -1.9544    0.1633   -0.7209 H   0  0  0  0  0  0  0  0  0  0  0  0
   -1.5554   -1.4710   -0.1520 H   0  0  0  0  0  0  0  0  0  0  0  0
   -1.8028   -0.5057    1.9948 H   0  0  0  0  0  0  0  0  0  0  0  0
    0.7237   -1.5963   -0.9339 H   0  0  0  0  0  0  0  0  0  0  0  0
    0.8908   -0.3850   -3.0887 H   0  0  0  0  0  0  0  0  0  0  0  0
    0.4714    1.1901   -2.2840 H   0  0  0  0  0  0  0  0  0  0  0  0
    2.4584    0.9765   -0.7711 H   0  0  0  0  0  0  0  0  0  0  0  0
    2.9067   -0.6049   -1.5497 H   0  0  0  0  0  0  0  0  0  0  0  0
  1  9  1  0  0  0  0
  1 11  1  0  0  0  0
  2  1  1  0  0  0  0
  2  3  1  1  0  0  0
  3 12  1  0  0  0  0
  4  2  1  0  0  0  0
  4  5  1  0  0  0  0
  5 15  1  0  0  0  0
  6  2  1  0  0  0  0
  7  8  1  0  0  0  0
  7  6  1  0  0  0  0
  8  6  1  0  0  0  0
  8 19  1  0  0  0  0
 10  1  1  0  0  0  0
 13  4  1  0  0  0  0
 14  4  1  0  0  0  0
 16  6  1  0  0  0  0
 17  7  1  0  0  0  0
 18  7  1  0  0  0  0
 20  8  1  0  0  0  0
M  END
