21
title
C 0.41108412 1.777156 0.088660575
C 0.014642037 0.29600012 0.17848015
C 0.47942743 -0.28445858 1.5257665
C -1.5206428 0.1485481 0.058109093
O -2.2419686 0.7887353 1.0991179
N 0.5453117 -0.34551013 -1.0408682
C 1.9125189 -0.83780485 -1.1017493
C 0.7593551 -1.7828485 -1.1217164
H 1.4995792 1.8860506 0.12325208
H 0.059976365 2.2124088 -0.8519437
H -0.002295237 2.3477817 0.9265638
H -0.10142544 0.18195753 2.325159
H 0.30795604 -1.3632505 1.592689
H 1.5386261 -0.08860379 1.7168148
H -1.8282136 0.5079102 -0.9334225
H -1.7840389 -0.91296023 0.1201947
H -2.2179277 1.7360545 0.9358378
H 2.4566944 -0.6044619 -2.0133998
H 2.5193517 -0.8288383 -0.19894525
H 0.614708 -2.3978965 -0.23653638
H 0.4408197 -2.2505598 -2.0497746
