16
title
C 0.61063296 1.7573471 0.66844344
C 0.09907243 0.3295357 0.46041337
O 0.49683705 -0.5514457 1.5007383
C -1.4358842 0.30286208 0.49137294
O -2.1257021 1.1304793 -0.04204436
C 0.52407074 -0.18459892 -0.91917956
C 1.5773377 -1.1921105 -1.091233
O 0.19903396 -1.5370029 -1.2286187
H 1.694343 1.808557 0.515029
H 0.124102384 2.436505 -0.035138626
H 0.38090116 2.091701 1.683843
H 1.4030749 -0.34071618 1.7457117
H -1.852221 -0.5652681 1.0428382
H 0.33087745 0.52010226 -1.7288822
H 2.1604009 -1.2054421 -2.0110016
H 2.066045 -1.6115254 -0.21486469
