title
 OpenBabel02282109593D

 18 18  0  0  1  0  0  0  0  0999 V2000
    0.2256    1.8369    0.5857 C   0  0  0  0  0  0  0  0  0  0  0  0
   -0.0740    0.3385    0.4370 C   0  0  1  0  0  0  0  0  0  0  0  0
    0.5057   -0.2841    1.5795 O   0  0  0  0  0  0  0  0  0  0  0  0
   -1.5989    0.1780    0.5147 C   0  0  0  0  0  0  0  0  0  0  0  0
   -2.3440    0.1329   -0.4281 O   0  0  0  0  0  0  0  0  0  0  0  0
    0.4578   -0.2067   -0.8811 C   0  0  0  0  0  0  0  0  0  0  0  0
    1.9317   -0.4135   -1.0918 C   0  0  0  0  0  0  0  0  0  0  0  0
    1.0080   -1.6048   -1.0085 C   0  0  0  0  0  0  0  0  0  0  0  0
    1.3079    1.9809    0.6371 H   0  0  0  0  0  0  0  0  0  0  0  0
   -0.1693    2.3921   -0.2687 H   0  0  0  0  0  0  0  0  0  0  0  0
   -0.2191    2.2323    1.5038 H   0  0  0  0  0  0  0  0  0  0  0  0
    0.2963   -1.2243    1.5513 H   0  0  0  0  0  0  0  0  0  0  0  0
   -1.9693    0.1221    1.5655 H   0  0  0  0  0  0  0  0  0  0  0  0
   -0.1199    0.1457   -1.7288 H   0  0  0  0  0  0  0  0  0  0  0  0
    2.3608   -0.1494   -2.0518 H   0  0  0  0  0  0  0  0  0  0  0  0
    2.5821   -0.2445   -0.2405 H   0  0  0  0  0  0  0  0  0  0  0  0
    1.0916   -2.2284   -0.1241 H   0  0  0  0  0  0  0  0  0  0  0  0
    0.7776   -2.1574   -1.9121 H   0  0  0  0  0  0  0  0  0  0  0  0
  1  9  1  0  0  0  0
  1 11  1  0  0  0  0
  2  4  1  1  0  0  0
  2  1  1  0  0  0  0
  2  3  1  0  0  0  0
  4 13  1  0  0  0  0
  5  4  2  0  0  0  0
  6  2  1  0  0  0  0
  7  8  1  0  0  0  0
  7  6  1  0  0  0  0
  7 16  1  0  0  0  0
  8  6  1  0  0  0  0
  8 17  1  0  0  0  0
 10  1  1  0  0  0  0
 12  3  1  0  0  0  0
 14  6  1  0  0  0  0
 15  7  1  0  0  0  0
 18  8  1  0  0  0  0
M  END
