title
 OpenBabel02282109593D

 16 16  0  0  1  0  0  0  0  0999 V2000
    0.6106    1.7573    0.6684 C   0  0  0  0  0  0  0  0  0  0  0  0
    0.0991    0.3295    0.4604 C   0  0  1  0  0  0  0  0  0  0  0  0
    0.4968   -0.5514    1.5007 O   0  0  0  0  0  0  0  0  0  0  0  0
   -1.4359    0.3029    0.4914 C   0  0  0  0  0  0  0  0  0  0  0  0
   -2.1257    1.1305   -0.0420 O   0  0  0  0  0  0  0  0  0  0  0  0
    0.5241   -0.1846   -0.9192 C   0  0  1  0  0  0  0  0  0  0  0  0
    1.5773   -1.1921   -1.0912 C   0  0  0  0  0  0  0  0  0  0  0  0
    0.1990   -1.5370   -1.2286 O   0  0  0  0  0  0  0  0  0  0  0  0
    1.6943    1.8086    0.5150 H   0  0  0  0  0  0  0  0  0  0  0  0
    0.1241    2.4365   -0.0351 H   0  0  0  0  0  0  0  0  0  0  0  0
    0.3809    2.0917    1.6838 H   0  0  0  0  0  0  0  0  0  0  0  0
    1.4031   -0.3407    1.7457 H   0  0  0  0  0  0  0  0  0  0  0  0
   -1.8522   -0.5653    1.0428 H   0  0  0  0  0  0  0  0  0  0  0  0
    0.3309    0.5201   -1.7289 H   0  0  0  0  0  0  0  0  0  0  0  0
    2.1604   -1.2054   -2.0110 H   0  0  0  0  0  0  0  0  0  0  0  0
    2.0660   -1.6115   -0.2149 H   0  0  0  0  0  0  0  0  0  0  0  0
  1 11  1  0  0  0  0
  2  4  1  1  0  0  0
  2  1  1  0  0  0  0
  2  3  1  0  0  0  0
  3 12  1  0  0  0  0
  4 13  1  0  0  0  0
  5  4  2  0  0  0  0
  6 14  1  6  0  0  0
  6  2  1  0  0  0  0
  7  6  1  0  0  0  0
  7 16  1  0  0  0  0
  8  7  1  0  0  0  0
  8  6  1  0  0  0  0
  9  1  1  0  0  0  0
 10  1  1  0  0  0  0
 15  7  1  0  0  0  0
M  END
