title
 OpenBabel02282109593D

 18 18  0  0  1  0  0  0  0  0999 V2000
   -0.3035    1.8719    0.1248 C   0  0  0  0  0  0  0  0  0  0  0  0
   -0.1839    0.3505    0.0792 C   0  0  1  0  0  0  0  0  0  0  0  0
    0.4740   -0.0661    1.2788 O   0  0  0  0  0  0  0  0  0  0  0  0
   -1.5741   -0.3235    0.0547 C   0  0  0  0  0  0  0  0  0  0  0  0
   -2.2741   -0.0753    1.2533 O   0  0  0  0  0  0  0  0  0  0  0  0
    0.6273   -0.1067   -1.1252 C   0  0  1  0  0  0  0  0  0  0  0  0
    2.0915   -0.1583   -1.0987 C   0  0  0  0  0  0  0  0  0  0  0  0
    1.3092   -1.3564   -0.9464 O   0  0  0  0  0  0  0  0  0  0  0  0
    0.6748    2.3258    0.3001 H   0  0  0  0  0  0  0  0  0  0  0  0
   -0.7066    2.2559   -0.8177 H   0  0  0  0  0  0  0  0  0  0  0  0
   -0.9820    2.1624    0.9298 H   0  0  0  0  0  0  0  0  0  0  0  0
    0.8219   -0.9506    1.0880 H   0  0  0  0  0  0  0  0  0  0  0  0
   -2.1816    0.0716   -0.7674 H   0  0  0  0  0  0  0  0  0  0  0  0
   -1.4376   -1.4044   -0.1182 H   0  0  0  0  0  0  0  0  0  0  0  0
   -1.6269   -0.2237    1.9561 H   0  0  0  0  0  0  0  0  0  0  0  0
    0.1297   -0.0034   -2.0901 H   0  0  0  0  0  0  0  0  0  0  0  0
    2.6507   -0.0923   -2.0295 H   0  0  0  0  0  0  0  0  0  0  0  0
    2.6167    0.1615   -0.2024 H   0  0  0  0  0  0  0  0  0  0  0  0
  1  9  1  0  0  0  0
  1 11  1  0  0  0  0
  2  1  1  0  0  0  0
  2  3  1  1  0  0  0
  4  2  1  0  0  0  0
  4  5  1  0  0  0  0
  5 15  1  0  0  0  0
  6 16  1  6  0  0  0
  6  7  1  0  0  0  0
  6  8  1  0  0  0  0
  6  2  1  0  0  0  0
  7  8  1  0  0  0  0
  7 18  1  0  0  0  0
 10  1  1  0  0  0  0
 12  3  1  0  0  0  0
 13  4  1  0  0  0  0
 14  4  1  0  0  0  0
 17  7  1  0  0  0  0
M  END
