21
title
C -0.52657735 2.185108 0.84831595
O -0.3856271 0.7878096 0.72483665
C 0.20231736 0.27132872 -0.47616905
C -0.6587939 0.6113173 -1.7041742
C 1.6445994 0.76952547 -0.65494126
C 0.21619964 -1.2456706 -0.282241
C 0.46130627 -1.8570657 1.0434122
N -0.8787622 -1.921421 0.4220308
H 0.43787593 2.7095416 0.8183972
H -1.1806067 2.613895 0.07731378
H -0.9844024 2.3631532 1.824744
H -0.66263247 1.6840831 -1.9175771
H -0.26614895 0.10298391 -2.5899253
H -1.6894834 0.279865 -1.5499631
H 2.2213862 0.59724855 0.25783303
H 2.1295056 0.22855534 -1.4734389
H 1.6836631 1.8351408 -0.9002995
H 0.5612747 -1.7767074 -1.1677569
H 0.98161405 -2.808126 1.1151675
H 0.5958896 -1.1864214 1.8856083
H -1.4518218 -1.2001767 0.8570052
