title
 OpenBabel02282109593D

 22 22  0  0  0  0  0  0  0  0999 V2000
    1.1880    2.2974    0.4828 C   0  0  0  0  0  0  0  0  0  0  0  0
    1.1117    0.8984    0.3405 O   0  0  0  0  0  0  0  0  0  0  0  0
   -0.1881    0.3034    0.1732 C   0  0  0  0  0  0  0  0  0  0  0  0
   -1.0817    0.5780    1.3957 C   0  0  0  0  0  0  0  0  0  0  0  0
   -0.8571    0.8194   -1.1089 C   0  0  0  0  0  0  0  0  0  0  0  0
    0.1351   -1.1880    0.1323 C   0  0  0  0  0  0  0  0  0  0  0  0
   -0.8239   -2.2362   -0.3688 C   0  0  0  0  0  0  0  0  0  0  0  0
    0.4515   -1.9510   -1.1254 C   0  0  0  0  0  0  0  0  0  0  0  0
    2.2490    2.5366    0.5963 H   0  0  0  0  0  0  0  0  0  0  0  0
    0.8089    2.8391   -0.3955 H   0  0  0  0  0  0  0  0  0  0  0  0
    0.6577    2.6681    1.3716 H   0  0  0  0  0  0  0  0  0  0  0  0
   -1.3455    1.6361    1.4831 H   0  0  0  0  0  0  0  0  0  0  0  0
   -2.0125    0.0096    1.3140 H   0  0  0  0  0  0  0  0  0  0  0  0
   -0.5723    0.2716    2.3143 H   0  0  0  0  0  0  0  0  0  0  0  0
   -0.1695    0.7549   -1.9560 H   0  0  0  0  0  0  0  0  0  0  0  0
   -1.7578    0.2454   -1.3436 H   0  0  0  0  0  0  0  0  0  0  0  0
   -1.1645    1.8630   -0.9991 H   0  0  0  0  0  0  0  0  0  0  0  0
    0.7217   -1.4728    1.0013 H   0  0  0  0  0  0  0  0  0  0  0  0
   -0.9046   -3.1622    0.1900 H   0  0  0  0  0  0  0  0  0  0  0  0
   -1.7568   -1.9166   -0.8211 H   0  0  0  0  0  0  0  0  0  0  0  0
    0.3643   -1.4427   -2.0786 H   0  0  0  0  0  0  0  0  0  0  0  0
    1.2524   -2.6811   -1.0883 H   0  0  0  0  0  0  0  0  0  0  0  0
  1  9  1  0  0  0  0
  1 11  1  0  0  0  0
  2  1  1  0  0  0  0
  3  2  1  0  0  0  0
  3  4  1  0  0  0  0
  4 12  1  0  0  0  0
  4 14  1  0  0  0  0
  5 17  1  0  0  0  0
  5  3  1  0  0  0  0
  6  3  1  0  0  0  0
  6 18  1  0  0  0  0
  7  6  1  0  0  0  0
  7 19  1  0  0  0  0
  8 22  1  0  0  0  0
  8  7  1  0  0  0  0
  8  6  1  0  0  0  0
 10  1  1  0  0  0  0
 13  4  1  0  0  0  0
 15  5  1  0  0  0  0
 16  5  1  0  0  0  0
 20  7  1  0  0  0  0
 21  8  1  0  0  0  0
M  END
