24
title
C -0.82962185 2.2335544 1.5187279
C -0.6430341 0.73264205 1.2689427
C 0.2013413 0.32396308 0.031392004
C -0.41802216 0.9030374 -1.252608
C 1.6504551 0.8336907 0.16719678
C 0.2507892 -1.2095699 0.020983247
C -0.7960832 -2.0937428 -0.6078993
C 0.5990978 -2.0433297 -1.1855797
H 0.12582687 2.7500336 1.6531047
H -1.3615793 2.7240813 0.6978327
H -1.4173114 2.3949766 2.4281833
H -0.17976046 0.28341424 2.1575558
H -1.62951 0.26120192 1.1744149
H -0.35592756 1.9948808 -1.2526749
H 0.10754309 0.55533326 -2.1472042
H -1.4746244 0.63527244 -1.3535365
H 2.1146624 0.46009454 1.0869379
H 2.2589834 0.489257 -0.6752409
H 1.6993634 1.9268533 0.18784502
H 0.6545761 -1.5985994 0.95423627
H -1.1063442 -2.9850864 -0.07321915
H -1.5891241 -1.6319196 -1.1854557
H 0.724058 -1.55092 -2.1437774
H 1.251363 -2.898776 -1.0461484
