title
 OpenBabel02282109593D

 20 20  0  0  1  0  0  0  0  0999 V2000
   -1.4623    1.4433   -0.2590 C   0  0  0  0  0  0  0  0  0  0  0  0
   -1.1969   -0.0583   -0.2220 C   0  0  1  0  0  0  0  0  0  0  0  0
   -0.0022   -0.5407   -1.1300 C   0  0  1  0  0  0  0  0  0  0  0  0
    0.4902    0.2504   -2.3328 C   0  0  0  0  0  0  0  0  0  0  0  0
    0.8430   -0.5539    0.1516 C   0  0  0  0  0  0  0  0  0  0  0  0
    2.0141   -0.4162    0.3694 O   0  0  0  0  0  0  0  0  0  0  0  0
   -0.4050   -0.5582    1.0458 C   0  0  1  0  0  0  0  0  0  0  0  0
   -0.3779    0.2125    2.3574 C   0  0  0  0  0  0  0  0  0  0  0  0
   -0.5523    2.0280   -0.0858 H   0  0  0  0  0  0  0  0  0  0  0  0
   -1.8667    1.7449   -1.2304 H   0  0  0  0  0  0  0  0  0  0  0  0
   -2.1885    1.7308    0.5079 H   0  0  0  0  0  0  0  0  0  0  0  0
   -2.1286   -0.6012   -0.3988 H   0  0  0  0  0  0  0  0  0  0  0  0
   -0.1856   -1.5839   -1.4192 H   0  0  0  0  0  0  0  0  0  0  0  0
    0.6859    1.2955   -2.0780 H   0  0  0  0  0  0  0  0  0  0  0  0
    1.4271   -0.1767   -2.7028 H   0  0  0  0  0  0  0  0  0  0  0  0
   -0.2373    0.2294   -3.1506 H   0  0  0  0  0  0  0  0  0  0  0  0
   -0.6766   -1.6053    1.2339 H   0  0  0  0  0  0  0  0  0  0  0  0
   -0.1071    1.2610    2.2058 H   0  0  0  0  0  0  0  0  0  0  0  0
   -1.3498    0.1808    2.8602 H   0  0  0  0  0  0  0  0  0  0  0  0
    0.3658   -0.2230    3.0314 H   0  0  0  0  0  0  0  0  0  0  0  0
  1  2  1  0  0  0  0
  1  9  1  0  0  0  0
  1 11  1  0  0  0  0
  2 12  1  6  0  0  0
  3  2  1  1  0  0  0
  3  5  1  0  0  0  0
  4 14  1  0  0  0  0
  4  3  1  0  0  0  0
  5  6  2  0  0  0  0
  5  7  1  0  0  0  0
  7  2  1  6  0  0  0
  7 17  1  0  0  0  0
  7  8  1  0  0  0  0
  8 19  1  0  0  0  0
  8 20  1  0  0  0  0
 10  1  1  0  0  0  0
 13  3  1  0  0  0  0
 15  4  1  0  0  0  0
 16  4  1  0  0  0  0
 18  8  1  0  0  0  0
M  END
