20
title
C -0.94448084 2.2524714 -1.3242794
C -0.6175978 0.7577974 -1.284757
C 0.24741891 0.32295853 -0.07718443
C 1.6330411 0.969844 -0.07993638
O -0.38330644 0.699013 1.1428024
C 0.38424602 -1.199443 -0.1119455
C 0.5616312 -1.9901508 1.1081878
O -0.7211526 -1.9105569 0.46097624
H -0.055305514 2.8611457 -1.5152056
H -1.6658554 2.4687119 -2.1179736
H -1.3740069 2.5728009 -0.3715679
H -1.5506704 0.18106766 -1.2422291
H -0.112794735 0.45459077 -2.2113168
H 1.5484488 2.0565925 -0.008193603
H 2.2148662 0.61876327 0.7763263
H 2.1774528 0.72542095 -0.99751097
H -1.119733 0.081618614 1.2568902
H 0.73995805 -1.6159109 -1.055179
H 1.0412618 -2.9655478 1.0558482
H 0.6218841 -1.4774314 2.064631
