title
 OpenBabel02282109593D

 22 22  0  0  1  0  0  0  0  0999 V2000
   -0.6596    2.2496    1.5611 C   0  0  0  0  0  0  0  0  0  0  0  0
   -0.6659    0.7401    1.3067 C   0  0  0  0  0  0  0  0  0  0  0  0
    0.1356    0.2824    0.0640 C   0  0  1  0  0  0  0  0  0  0  0  0
   -0.3768    0.9564   -1.2107 C   0  0  0  0  0  0  0  0  0  0  0  0
    1.5005    0.7203    0.1821 O   0  0  0  0  0  0  0  0  0  0  0  0
    0.1019   -1.2446    0.0070 C   0  0  0  0  0  0  0  0  0  0  0  0
   -0.8458   -2.0425   -0.8551 C   0  0  0  0  0  0  0  0  0  0  0  0
    0.6298   -2.0312   -1.1639 C   0  0  0  0  0  0  0  0  0  0  0  0
    0.3655    2.6299    1.5651 H   0  0  0  0  0  0  0  0  0  0  0  0
   -1.2194    2.7959    0.7959 H   0  0  0  0  0  0  0  0  0  0  0  0
   -1.1168    2.4807    2.5281 H   0  0  0  0  0  0  0  0  0  0  0  0
   -0.2379    0.2288    2.1805 H   0  0  0  0  0  0  0  0  0  0  0  0
   -1.6950    0.3705    1.2154 H   0  0  0  0  0  0  0  0  0  0  0  0
   -0.1532    2.0244   -1.1714 H   0  0  0  0  0  0  0  0  0  0  0  0
    0.1165    0.5534   -2.0987 H   0  0  0  0  0  0  0  0  0  0  0  0
   -1.4574    0.8336   -1.3203 H   0  0  0  0  0  0  0  0  0  0  0  0
    1.9207    0.1839    0.8630 H   0  0  0  0  0  0  0  0  0  0  0  0
    0.3056   -1.6896    0.9806 H   0  0  0  0  0  0  0  0  0  0  0  0
   -1.2845   -2.9416   -0.4362 H   0  0  0  0  0  0  0  0  0  0  0  0
   -1.5022   -1.5054   -1.5301 H   0  0  0  0  0  0  0  0  0  0  0  0
    0.9615   -1.4854   -2.0398 H   0  0  0  0  0  0  0  0  0  0  0  0
    1.2096   -2.9242   -0.9572 H   0  0  0  0  0  0  0  0  0  0  0  0
  1  9  1  0  0  0  0
  1 11  1  0  0  0  0
  2  1  1  0  0  0  0
  2 12  1  0  0  0  0
  3  5  1  1  0  0  0
  3  2  1  0  0  0  0
  4 14  1  0  0  0  0
  4  3  1  0  0  0  0
  5 17  1  0  0  0  0
  6  3  1  0  0  0  0
  6 18  1  0  0  0  0
  7 19  1  0  0  0  0
  7  6  1  0  0  0  0
  8 22  1  0  0  0  0
  8  7  1  0  0  0  0
  8  6  1  0  0  0  0
 10  1  1  0  0  0  0
 13  2  1  0  0  0  0
 15  4  1  0  0  0  0
 16  4  1  0  0  0  0
 20  7  1  0  0  0  0
 21  8  1  0  0  0  0
M  END
