24
title
C -1.3270112 1.5167496 -0.11432424
C -1.203168 -0.002785376 -0.0060866955
C -0.26619908 -0.7098579 -1.0429908
C 0.06945064 -0.033982255 -2.3665311
C 0.828084 -0.8703764 0.06596386
C 2.0165725 0.08865657 0.004239131
C -0.2775528 -0.5559823 1.1297963
C 0.04484143 0.29991674 2.3482883
H -0.3584443 2.024362 -0.14520611
H -1.8717657 1.7979298 -1.0221062
H -1.8809475 1.9226234 0.7390822
H -2.216163 -0.41962546 0.018147621
H -0.6815052 -1.7002832 -1.261389
H 0.49145094 0.9660283 -2.231662
H 0.79787016 -0.6250085 -2.9332163
H -0.8253107 0.067780145 -2.991092
H 1.2244265 -1.8891543 0.14017792
H 1.7167695 1.1379894 -0.07167061
H 2.640372 -0.008455365 0.8994088
H 2.6495626 -0.13321912 -0.8617715
H -0.69581306 -1.5060574 1.4812698
H 0.46923056 1.2711318 2.0782328
H -0.8563252 0.4882677 2.9428127
H 0.7666881 -0.20494539 3.0002742
