18
title
C -1.36555 1.4399043 0.28229186
C -1.2075176 -0.064908266 0.10548857
C -0.3478398 -0.5147443 -1.1410613
C -0.22729662 0.33354688 -2.3969955
C 0.8231892 -0.5387404 -0.15626413
O 1.9661131 -0.1698708 -0.21498305
C -0.09944704 -0.6824777 1.050568
O 0.28288588 -0.041400053 2.2287047
H -0.40617207 1.9636146 0.20929608
H -2.0340748 1.8592635 -0.47533625
H -1.7795445 1.6615251 1.2694961
H -2.1740367 -0.56729835 0.17985696
H -0.62360585 -1.5443895 -1.3982679
H 0.07328817 1.357949 -2.1622205
H 0.52989835 -0.08573998 -3.0661173
H -1.1758839 0.37057254 -2.9415205
H -0.3410624 -1.7329897 1.2569405
H 1.1241257 0.39751065 2.0474648
