16
title
C -1.2875744 1.4685394 -0.22870383
C -1.1874356 -0.048852332 -0.21862514
C -0.030491278 -0.62557685 -1.1418585
O 0.46227628 0.10414818 -2.2188523
C 0.7867319 -0.57782155 0.14149255
O 1.85457 -0.05181761 0.3407036
C -0.43345797 -0.6376151 1.0496074
O -0.35751605 0.07958127 2.239178
H -0.31648117 1.9418942 -0.04762636
H -1.6491783 1.8211745 -1.1977903
H -1.9708265 1.811568 0.5521528
H -2.155034 -0.5193265 -0.3991238
H -0.28366894 -1.6401451 -1.4659554
H 1.2314435 0.59445196 -1.8992547
H -0.7833859 -1.6550751 1.2516137
H 0.4738317 0.5721408 2.2192032
