22
title
C -2.077988 1.1058308 -0.37359312
C -1.273078 -0.1817939 -0.2452158
C -0.0043107313 -0.41073456 -1.1368213
C 0.6942979 0.82676136 -1.6984706
C 0.6827781 -1.0555396 0.109585874
O 2.042384 -0.8005469 0.37263492
C -0.41774875 -0.45214525 1.0402626
C 0.017791983 0.75900877 1.8638574
H -1.4629444 2.000411 -0.23981257
H -2.5487733 1.1747819 -1.3605797
H -2.8781552 1.1418415 0.37405184
H -1.9554834 -1.0262023 -0.39087343
H -0.16467142 -1.113002 -1.961528
H 0.870723 1.6028137 -0.9457777
H 1.6651409 0.55322355 -2.1241293
H 0.09827923 1.285499 -2.4937398
H 0.6035938 -2.1455855 0.073815666
H 2.1703765 0.15222111 0.41507283
H -0.8642754 -1.1830742 1.7224592
H 0.45236528 1.5609082 1.2572001
H -0.83138627 1.1924003 2.4016302
H 0.76698446 0.46328247 2.605343
