19
title
C -1.3900522 1.5479538 0.41887566
C -1.1198889 0.043807916 0.30241182
N -0.4644868 -0.48254472 -0.9208234
C -0.5419314 0.20341666 -2.1891782
C 0.8313601 -0.76861906 -0.25610825
C 2.0425575 0.118743345 -0.56367177
C 0.12672648 -0.43161875 1.0705656
O 0.4427646 -0.46460223 2.222661
H -0.49532142 2.145573 0.2203929
H -2.172625 1.86189 -0.27887616
H -1.7301813 1.7748222 1.4336947
H -2.0371504 -0.50628525 0.5557858
H -0.120264314 1.2232157 -2.1996887
H -0.01618769 -0.38095647 -2.95192
H -1.5893519 0.27415743 -2.5015523
H 1.1261679 -1.8233719 -0.34967336
H 1.8176919 1.1825246 -0.44163784
H 2.857668 -0.13540794 0.120445415
H 2.3968372 -0.04064759 -1.5868602
