14
title
O 1.195068 1.1260786 -1.3686529
C 0.7970917 -0.12667827 -0.92729175
C 0.95135945 -0.43603355 0.60587263
O 1.1140306 0.77114356 1.3254015
C -0.5304042 -0.8880979 0.601045
O -1.2696453 -1.295874 1.4523809
C -0.7468556 -0.41195947 -0.85719025
O -1.462758 0.80769575 -0.8945994
H 0.7329941 1.7735038 -0.8220438
H 1.3111914 -0.87412107 -1.5363057
H 1.6973661 -1.1933265 0.88162565
H 0.8226666 0.6170782 2.2312462
H -1.1421654 -1.1530547 -1.5646956
H -2.3179135 0.6616921 -0.47439125
