title
 OpenBabel02282109593D

 16 16  0  0  1  0  0  0  0  0999 V2000
   -1.1662    2.0958    0.1750 C   0  0  0  0  0  0  0  0  0  0  0  0
   -1.1588    0.5770    0.1326 C   0  0  1  0  0  0  0  0  0  0  0  0
   -0.5029   -0.1808   -1.0782 C   0  0  1  0  0  0  0  0  0  0  0  0
    0.5491    0.5611   -1.6371 O   0  0  0  0  0  0  0  0  0  0  0  0
    0.0666   -1.2521   -0.0803 C   0  0  1  0  0  0  0  0  0  0  0  0
    1.3892   -1.6643   -0.3025 O   0  0  0  0  0  0  0  0  0  0  0  0
   -0.1462   -0.1815    0.9971 C   0  0  0  0  0  0  0  0  0  0  0  0
    0.5114    0.0843    1.9646 O   0  0  0  0  0  0  0  0  0  0  0  0
   -0.1878    2.4844   -0.1138 H   0  0  0  0  0  0  0  0  0  0  0  0
   -1.9150    2.5044   -0.5100 H   0  0  0  0  0  0  0  0  0  0  0  0
   -1.3967    2.4475    1.1846 H   0  0  0  0  0  0  0  0  0  0  0  0
   -2.1600    0.1614    0.3051 H   0  0  0  0  0  0  0  0  0  0  0  0
   -1.1942   -0.5485   -1.8441 H   0  0  0  0  0  0  0  0  0  0  0  0
    1.3184   -0.0277   -1.6372 H   0  0  0  0  0  0  0  0  0  0  0  0
   -0.6087   -2.1099    0.0256 H   0  0  0  0  0  0  0  0  0  0  0  0
    1.9087   -1.3510    0.4503 H   0  0  0  0  0  0  0  0  0  0  0  0
  1 11  1  0  0  0  0
  2  3  1  6  0  0  0
  2  1  1  0  0  0  0
  2 12  1  0  0  0  0
  2  7  1  0  0  0  0
  3  5  1  1  0  0  0
  4  3  1  0  0  0  0
  5 15  1  1  0  0  0
  5  7  1  0  0  0  0
  6  5  1  0  0  0  0
  6 16  1  0  0  0  0
  7  8  2  0  0  0  0
  9  1  1  0  0  0  0
 10  1  1  0  0  0  0
 13  3  1  0  0  0  0
 14  4  1  0  0  0  0
M  END
