title
 OpenBabel02282109593D

 18 18  0  0  1  0  0  0  0  0999 V2000
   -2.2016    0.8591    0.0629 C   0  0  0  0  0  0  0  0  0  0  0  0
   -1.2064   -0.2890    0.1247 C   0  0  1  0  0  0  0  0  0  0  0  0
   -0.2088   -0.5473   -1.0493 C   0  0  1  0  0  0  0  0  0  0  0  0
   -0.0166    0.6597   -1.7582 O   0  0  0  0  0  0  0  0  0  0  0  0
    0.9345   -0.8471   -0.0130 C   0  0  1  0  0  0  0  0  0  0  0  0
    2.3351   -0.2972   -0.2324 C   0  0  0  0  0  0  0  0  0  0  0  0
    0.0299   -0.1683    1.0325 C   0  0  0  0  0  0  0  0  0  0  0  0
    0.2412    0.3718    2.0798 O   0  0  0  0  0  0  0  0  0  0  0  0
   -1.7109    1.7769   -0.2660 H   0  0  0  0  0  0  0  0  0  0  0  0
   -3.0183    0.6406   -0.6316 H   0  0  0  0  0  0  0  0  0  0  0  0
   -2.6308    1.0327    1.0539 H   0  0  0  0  0  0  0  0  0  0  0  0
   -1.7114   -1.2328    0.3686 H   0  0  0  0  0  0  0  0  0  0  0  0
   -0.4683   -1.3706   -1.7255 H   0  0  0  0  0  0  0  0  0  0  0  0
    0.7128    0.5356   -2.3737 H   0  0  0  0  0  0  0  0  0  0  0  0
    0.9617   -1.9243    0.1971 H   0  0  0  0  0  0  0  0  0  0  0  0
    2.2925    0.7543   -0.5297 H   0  0  0  0  0  0  0  0  0  0  0  0
    2.9132   -0.3575    0.6940 H   0  0  0  0  0  0  0  0  0  0  0  0
    2.8751   -0.8574   -1.0035 H   0  0  0  0  0  0  0  0  0  0  0  0
  1  2  1  0  0  0  0
  1 11  1  0  0  0  0
  2  3  1  6  0  0  0
  2 12  1  0  0  0  0
  2  7  1  0  0  0  0
  3 13  1  6  0  0  0
  4  3  1  0  0  0  0
  5  3  1  6  0  0  0
  5 15  1  0  0  0  0
  5  7  1  0  0  0  0
  6  5  1  0  0  0  0
  6 17  1  0  0  0  0
  7  8  2  0  0  0  0
  9  1  1  0  0  0  0
 10  1  1  0  0  0  0
 14  4  1  0  0  0  0
 16  6  1  0  0  0  0
 18  6  1  0  0  0  0
M  END
