title
 OpenBabel02282109593D

 14 14  0  0  1  0  0  0  0  0999 V2000
    1.1951    1.1261   -1.3687 O   0  0  0  0  0  0  0  0  0  0  0  0
    0.7971   -0.1267   -0.9273 C   0  0  1  0  0  0  0  0  0  0  0  0
    0.9514   -0.4360    0.6059 C   0  0  1  0  0  0  0  0  0  0  0  0
    1.1140    0.7711    1.3254 O   0  0  0  0  0  0  0  0  0  0  0  0
   -0.5304   -0.8881    0.6010 C   0  0  0  0  0  0  0  0  0  0  0  0
   -1.2696   -1.2959    1.4524 O   0  0  0  0  0  0  0  0  0  0  0  0
   -0.7469   -0.4120   -0.8572 C   0  0  1  0  0  0  0  0  0  0  0  0
   -1.4628    0.8077   -0.8946 O   0  0  0  0  0  0  0  0  0  0  0  0
    0.7330    1.7735   -0.8220 H   0  0  0  0  0  0  0  0  0  0  0  0
    1.3112   -0.8741   -1.5363 H   0  0  0  0  0  0  0  0  0  0  0  0
    1.6974   -1.1933    0.8816 H   0  0  0  0  0  0  0  0  0  0  0  0
    0.8227    0.6171    2.2312 H   0  0  0  0  0  0  0  0  0  0  0  0
   -1.1422   -1.1531   -1.5647 H   0  0  0  0  0  0  0  0  0  0  0  0
   -2.3179    0.6617   -0.4744 H   0  0  0  0  0  0  0  0  0  0  0  0
  1  2  1  0  0  0  0
  1  9  1  0  0  0  0
  2 10  1  6  0  0  0
  3  2  1  6  0  0  0
  3 11  1  0  0  0  0
  3  4  1  0  0  0  0
  4 12  1  0  0  0  0
  5  3  1  0  0  0  0
  5  6  2  0  0  0  0
  7  2  1  6  0  0  0
  7  5  1  0  0  0  0
  8  7  1  0  0  0  0
  8 14  1  0  0  0  0
 13  7  1  0  0  0  0
M  END
