14
title
N -0.09321093 2.598698 -0.6154259
C -0.0021946644 1.354199 -0.42192867
C -1.2516679 0.5066345 -0.42136633
O -1.1830738 -0.694718 0.3555088
C 0.0022353271 -1.3542049 0.42192286
N 0.093375936 -2.5987244 0.6152511
C 1.2515287 -0.5064125 0.42179132
O 1.1830279 0.6945255 -0.3557389
H 0.83646244 3.0198474 -0.6710798
H -2.0819256 1.0932267 -0.030844335
H -1.4787118 0.23417142 -1.4611012
H -0.8362546 -3.020013 0.6705894
H 1.4779027 -0.23340854 1.4615338
H 2.0821362 -1.0929778 0.031988557
