18
title
C -1.2969328 2.0305495 -0.20927274
C -1.2093159 0.5129613 -0.23936215
C -0.17339055 -0.18988003 -1.1586888
O 1.0356841 0.5580289 -1.1996925
C -0.04227381 -1.3011153 -0.067797594
O 1.2614236 -1.7658906 0.17122905
C -0.5972177 -0.2674348 0.96287924
O 0.47178632 0.39203703 1.6245553
H -0.31934816 2.4890711 -0.044253014
H -1.6830488 2.413476 -1.1593314
H -1.9673146 2.3652506 0.58864707
H -2.1955974 0.08285046 -0.4491274
H -0.49037582 -0.47679713 -2.168691
H 1.7401693 -0.10545357 -1.1434535
H -0.71909225 -2.1432593 -0.24183463
H 1.5557144 -1.2847767 0.96090406
H -1.2712829 -0.6269838 1.7434658
H 0.951904 0.88064414 0.939334
