title
 OpenBabel02282109593D

 20 20  0  0  1  0  0  0  0  0999 V2000
   -0.4897    1.9534   -0.0635 C   0  0  0  0  0  0  0  0  0  0  0  0
   -1.0714    0.5471   -0.1911 C   0  0  1  0  0  0  0  0  0  0  0  0
   -0.3212   -0.4147   -1.1708 C   0  0  1  0  0  0  0  0  0  0  0  0
    0.5168    0.1222   -2.1677 O   0  0  0  0  0  0  0  0  0  0  0  0
    0.3095   -1.1774    0.0409 C   0  0  1  0  0  0  0  0  0  0  0  0
    1.7823   -0.8841    0.3182 C   0  0  0  0  0  0  0  0  0  0  0  0
   -0.7176   -0.4446    0.9661 C   0  0  1  0  0  0  0  0  0  0  0  0
   -0.2954    0.0609    2.2113 O   0  0  0  0  0  0  0  0  0  0  0  0
    0.5890    1.9622    0.1367 H   0  0  0  0  0  0  0  0  0  0  0  0
   -0.6487    2.5192   -0.9861 H   0  0  0  0  0  0  0  0  0  0  0  0
   -0.9718    2.4948    0.7558 H   0  0  0  0  0  0  0  0  0  0  0  0
   -2.1441    0.6343   -0.3888 H   0  0  0  0  0  0  0  0  0  0  0  0
   -1.0255   -1.0515   -1.7120 H   0  0  0  0  0  0  0  0  0  0  0  0
    1.1642    0.6973   -1.7482 H   0  0  0  0  0  0  0  0  0  0  0  0
    0.1756   -2.2628    0.0009 H   0  0  0  0  0  0  0  0  0  0  0  0
    2.0099    0.1877    0.3754 H   0  0  0  0  0  0  0  0  0  0  0  0
    2.0890   -1.3277    1.2700 H   0  0  0  0  0  0  0  0  0  0  0  0
    2.4121   -1.3033   -0.4720 H   0  0  0  0  0  0  0  0  0  0  0  0
   -1.5659   -1.0923    1.2013 H   0  0  0  0  0  0  0  0  0  0  0  0
    0.4565    0.6438    2.0676 H   0  0  0  0  0  0  0  0  0  0  0  0
  1  9  1  0  0  0  0
  1 11  1  0  0  0  0
  2  3  1  6  0  0  0
  2  1  1  0  0  0  0
  3  5  1  1  0  0  0
  4 14  1  0  0  0  0
  4  3  1  0  0  0  0
  5  6  1  0  0  0  0
  5  7  1  1  0  0  0
  6 16  1  0  0  0  0
  6 17  1  0  0  0  0
  7  2  1  6  0  0  0
  7 19  1  0  0  0  0
  7  8  1  0  0  0  0
 10  1  1  0  0  0  0
 12  2  1  0  0  0  0
 13  3  1  0  0  0  0
 15  5  1  0  0  0  0
 18  6  1  0  0  0  0
 20  8  1  0  0  0  0
M  END
