15
title
N -0.17759037 2.5865543 -0.7578843
C -0.061092783 1.3492229 -0.52706087
C -1.1909653 0.37676284 -0.750583
C -1.2786188 -0.6207273 0.41594362
C 0.03535974 -1.3657697 0.5506867
O 0.15103091 -2.4865758 0.97892
C 1.2523142 -0.5944234 0.03365947
O 1.0875924 0.82257307 0.0025673609
H 0.6965102 3.0705652 -0.5412516
H -2.1091905 0.9504912 -0.8737732
H -1.0231063 -0.16901384 -1.6886315
H -1.4596542 -0.07990657 1.3546277
H -2.0885384 -1.3441516 0.2978642
H 2.1094627 -0.79495096 0.6786916
H 1.4940403 -0.97714126 -0.9694234
