title
 OpenBabel02282109593D

 15 15  0  0  0  0  0  0  0  0999 V2000
   -0.1776    2.5866   -0.7579 N   0  0  0  0  0  0  0  0  0  0  0  0
   -0.0611    1.3492   -0.5271 C   0  0  0  0  0  0  0  0  0  0  0  0
   -1.1910    0.3768   -0.7506 C   0  0  0  0  0  0  0  0  0  0  0  0
   -1.2786   -0.6207    0.4159 C   0  0  0  0  0  0  0  0  0  0  0  0
    0.0354   -1.3658    0.5507 C   0  0  0  0  0  0  0  0  0  0  0  0
    0.1510   -2.4866    0.9789 O   0  0  0  0  0  0  0  0  0  0  0  0
    1.2523   -0.5944    0.0337 C   0  0  0  0  0  0  0  0  0  0  0  0
    1.0876    0.8226    0.0026 O   0  0  0  0  0  0  0  0  0  0  0  0
    0.6965    3.0706   -0.5413 H   0  0  0  0  0  0  0  0  0  0  0  0
   -2.1092    0.9505   -0.8738 H   0  0  0  0  0  0  0  0  0  0  0  0
   -1.0231   -0.1690   -1.6886 H   0  0  0  0  0  0  0  0  0  0  0  0
   -1.4597   -0.0799    1.3546 H   0  0  0  0  0  0  0  0  0  0  0  0
   -2.0885   -1.3442    0.2979 H   0  0  0  0  0  0  0  0  0  0  0  0
    2.1095   -0.7950    0.6787 H   0  0  0  0  0  0  0  0  0  0  0  0
    1.4940   -0.9771   -0.9694 H   0  0  0  0  0  0  0  0  0  0  0  0
  1  9  1  0  0  0  0
  1  2  2  0  0  0  0
  2  8  1  0  0  0  0
  3  2  1  0  0  0  0
  3  4  1  0  0  0  0
  4  5  1  0  0  0  0
  4 12  1  0  0  0  0
  5  6  2  0  0  0  0
  7  5  1  0  0  0  0
  7 14  1  0  0  0  0
  8  7  1  0  0  0  0
 10  3  1  0  0  0  0
 11  3  1  0  0  0  0
 13  4  1  0  0  0  0
 15  7  1  0  0  0  0
M  END
