title
 OpenBabel02282109593D

 18 18  0  0  1  0  0  0  0  0999 V2000
   -1.2969    2.0305   -0.2093 C   0  0  0  0  0  0  0  0  0  0  0  0
   -1.2093    0.5130   -0.2394 C   0  0  1  0  0  0  0  0  0  0  0  0
   -0.1734   -0.1899   -1.1587 C   0  0  1  0  0  0  0  0  0  0  0  0
    1.0357    0.5580   -1.1997 O   0  0  0  0  0  0  0  0  0  0  0  0
   -0.0423   -1.3011   -0.0678 C   0  0  1  0  0  0  0  0  0  0  0  0
    1.2614   -1.7659    0.1712 O   0  0  0  0  0  0  0  0  0  0  0  0
   -0.5972   -0.2674    0.9629 C   0  0  1  0  0  0  0  0  0  0  0  0
    0.4718    0.3920    1.6246 O   0  0  0  0  0  0  0  0  0  0  0  0
   -0.3193    2.4891   -0.0443 H   0  0  0  0  0  0  0  0  0  0  0  0
   -1.6830    2.4135   -1.1593 H   0  0  0  0  0  0  0  0  0  0  0  0
   -1.9673    2.3653    0.5886 H   0  0  0  0  0  0  0  0  0  0  0  0
   -2.1956    0.0829   -0.4491 H   0  0  0  0  0  0  0  0  0  0  0  0
   -0.4904   -0.4768   -2.1687 H   0  0  0  0  0  0  0  0  0  0  0  0
    1.7402   -0.1055   -1.1435 H   0  0  0  0  0  0  0  0  0  0  0  0
   -0.7191   -2.1433   -0.2418 H   0  0  0  0  0  0  0  0  0  0  0  0
    1.5557   -1.2848    0.9609 H   0  0  0  0  0  0  0  0  0  0  0  0
   -1.2713   -0.6270    1.7435 H   0  0  0  0  0  0  0  0  0  0  0  0
    0.9519    0.8806    0.9393 H   0  0  0  0  0  0  0  0  0  0  0  0
  1  9  1  0  0  0  0
  1 11  1  0  0  0  0
  2 12  1  6  0  0  0
  2  1  1  0  0  0  0
  3  2  1  1  0  0  0
  4  3  1  0  0  0  0
  4 14  1  0  0  0  0
  5  3  1  6  0  0  0
  5  6  1  0  0  0  0
  5  7  1  0  0  0  0
  6 16  1  0  0  0  0
  7  2  1  6  0  0  0
  7  8  1  0  0  0  0
  7 17  1  0  0  0  0
 10  1  1  0  0  0  0
 13  3  1  0  0  0  0
 15  5  1  0  0  0  0
 18  8  1  0  0  0  0
M  END
