13
title
N 2.3533 -1.3400353 0.29801166
H 2.3991654 -2.1408198 0.90958506
H 3.1278458 -0.702161 0.41392767
C 1.1186728 -0.73829085 0.20657969
O 1.155625 0.5281419 -0.13577853
C 0.04559647 1.2738596 -0.34764853
H 0.29118526 2.2876973 -0.6278714
C -1.2789634 0.7670397 -0.20682792
O -2.3064651 1.4333886 -0.38859656
C -1.2690319 -0.644278 0.18240173
C -0.11677564 -1.3655537 0.3767084
H -2.237863 -1.1166365 0.31418467
H -0.13574828 -2.4135935 0.6551988
