20
title
C -2.0578709 1.1151654 0.41027686
C -1.270148 -0.18129663 0.2837402
C -0.45356733 -0.5056845 -1.0158367
C -0.008167676 0.6875069 -1.8579047
C 0.6630679 -1.0989141 -0.08916366
O 2.0100198 -0.8112737 -0.35125354
C 0.019750068 -0.362194 1.1258068
O 0.6592707 0.8926618 1.349336
H -1.4214847 1.9904321 0.2654381
H -2.8665912 1.1515242 -0.32735905
H -2.5107033 1.1983496 1.4041127
H -1.931132 -1.0270952 0.5039313
H -0.92859435 -1.2457874 -1.6675719
H 0.4375263 1.4782603 -1.247441
H 0.73590344 0.3732383 -2.5962794
H -0.85513526 1.124238 -2.3966398
H 0.580154 -2.185878 -0.0012360814
H 2.1087368 0.13690361 -0.19591138
H -0.0742734 -0.91520727 2.0683057
H 1.3797868 0.74510235 1.9696434
