14
title
O 0.099006064 -2.6386523 0.45981425
C 0.038032655 -1.4332799 0.342943
C -1.2796668 -0.6751595 0.28836086
C -1.2170517 0.5741679 -0.60474735
C 0.008150321 1.4351512 -0.337109
O 0.0002446445 2.6426919 -0.4470156
C 1.2550184 0.7068183 0.018623447
C 1.2722442 -0.6046209 0.3013868
H -2.0657673 -1.3657252 -0.02471673
H -1.5099912 -0.37499624 1.3201482
H -1.1585608 0.26703805 -1.6583048
H -2.1086912 1.19685 -0.5042598
H 2.1585276 1.3099107 0.029146438
H 2.1949198 -1.1338581 0.52215064
