20
title
C -0.48974478 1.9533919 -0.063479
C -1.071427 0.54709804 -0.19107111
C -0.32120615 -0.4147019 -1.170814
O 0.51682794 0.1222447 -2.167664
C 0.30947196 -1.17743 0.040911157
C 1.7823422 -0.88408685 0.31821418
C -0.7175713 -0.44463214 0.96610034
O -0.2954036 0.06091298 2.2112994
H 0.58898485 1.9622401 0.13673227
H -0.6487243 2.519198 -0.9861473
H -0.9718244 2.4947934 0.75579554
H -2.1441429 0.63431025 -0.38882226
H -1.025505 -1.0514622 -1.7120155
H 1.1642287 0.6972703 -1.7482221
H 0.17564929 -2.2627506 0.0008877255
H 2.0099168 0.1877128 0.37542945
H 2.089011 -1.327699 1.2699964
H 2.4121158 -1.3033113 -0.4719515
H -1.5658866 -1.0922657 1.2013264
H 0.45649636 0.64376575 2.0676236
