14
title
N -0.110232584 2.2476685 -1.474058
C -0.04207575 1.2762766 -0.66917616
C -1.2991983 0.62515366 -0.13400377
N -1.1024517 -0.80373347 0.0497819
C 0.027054185 -1.2999204 0.62271863
O 0.17650974 -2.4493062 0.98165065
C 1.1178057 -0.24384846 0.7885402
O 1.1367627 0.7545952 -0.23900543
H 0.82627183 2.5870593 -1.7027522
H -1.5858039 1.1204435 0.8071615
H -2.0979369 0.80471253 -0.8524924
H -1.8890227 -1.4319528 -0.022439439
H 1.0075055 0.23319648 1.7728032
H 2.0863574 -0.7414222 0.75627154
