title
 OpenBabel02282109593D

 14 14  0  0  0  0  0  0  0  0999 V2000
    0.0990   -2.6387    0.4598 O   0  0  0  0  0  0  0  0  0  0  0  0
    0.0380   -1.4333    0.3429 C   0  0  0  0  0  0  0  0  0  0  0  0
   -1.2797   -0.6752    0.2884 C   0  0  0  0  0  0  0  0  0  0  0  0
   -1.2171    0.5742   -0.6047 C   0  0  0  0  0  0  0  0  0  0  0  0
    0.0082    1.4352   -0.3371 C   0  0  0  0  0  0  0  0  0  0  0  0
    0.0002    2.6427   -0.4470 O   0  0  0  0  0  0  0  0  0  0  0  0
    1.2550    0.7068    0.0186 C   0  0  0  0  0  0  0  0  0  0  0  0
    1.2722   -0.6046    0.3014 C   0  0  0  0  0  0  0  0  0  0  0  0
   -2.0658   -1.3657   -0.0247 H   0  0  0  0  0  0  0  0  0  0  0  0
   -1.5100   -0.3750    1.3201 H   0  0  0  0  0  0  0  0  0  0  0  0
   -1.1586    0.2670   -1.6583 H   0  0  0  0  0  0  0  0  0  0  0  0
   -2.1087    1.1968   -0.5043 H   0  0  0  0  0  0  0  0  0  0  0  0
    2.1585    1.3099    0.0291 H   0  0  0  0  0  0  0  0  0  0  0  0
    2.1949   -1.1339    0.5222 H   0  0  0  0  0  0  0  0  0  0  0  0
  2  1  2  0  0  0  0
  3  2  1  0  0  0  0
  3 10  1  0  0  0  0
  4 12  1  0  0  0  0
  4  5  1  0  0  0  0
  4  3  1  0  0  0  0
  5  7  1  0  0  0  0
  6  5  2  0  0  0  0
  7 13  1  0  0  0  0
  7  8  2  0  0  0  0
  8  2  1  0  0  0  0
  8 14  1  0  0  0  0
  9  3  1  0  0  0  0
 11  4  1  0  0  0  0
M  END
