14
title
O 0.029644039 -2.667384 0.31624666
C 0.03150979 -1.4560336 0.22556849
C -1.2761428 -0.66880226 0.22321749
N -1.1526413 0.68610215 -0.2837921
C -0.029393824 1.451648 -0.2525222
O -0.011276313 2.6294487 -0.5492633
C 1.2433453 0.73655605 0.19298086
N 1.1650432 -0.7117237 0.12640464
H -1.9772775 -1.2343798 -0.3951802
H -1.6689204 -0.6877481 1.2507037
H -1.9942129 1.1849604 -0.5359122
H 2.0444458 1.0955582 -0.45758882
H 1.4751115 1.0882273 1.2093323
H 2.0225759 -1.2435552 0.17600965
