title
 OpenBabel02282109593D

 12 12  0  0  0  0  0  0  0  0999 V2000
    0.0675   -2.3764    1.0835 O   0  0  0  0  0  0  0  0  0  0  0  0
    0.0515   -1.3437    0.4800 C   0  0  0  0  0  0  0  0  0  0  0  0
   -1.2280   -0.6540    0.0302 C   0  0  0  0  0  0  0  0  0  0  0  0
   -1.1574    0.7761    0.0597 O   0  0  0  0  0  0  0  0  0  0  0  0
   -0.0436    1.3589   -0.4358 C   0  0  0  0  0  0  0  0  0  0  0  0
    0.0188    2.5414   -0.6055 O   0  0  0  0  0  0  0  0  0  0  0  0
    1.0971    0.4038   -0.7550 C   0  0  0  0  0  0  0  0  0  0  0  0
    1.1946   -0.7051    0.1461 O   0  0  0  0  0  0  0  0  0  0  0  0
   -1.4870   -0.9970   -0.9808 H   0  0  0  0  0  0  0  0  0  0  0  0
   -2.0320   -0.9421    0.7055 H   0  0  0  0  0  0  0  0  0  0  0  0
    0.9873    0.0419   -1.7864 H   0  0  0  0  0  0  0  0  0  0  0  0
    2.0361    0.9501   -0.6823 H   0  0  0  0  0  0  0  0  0  0  0  0
  2  1  2  0  0  0  0
  3  4  1  0  0  0  0
  3  2  1  0  0  0  0
  3 10  1  0  0  0  0
  5  4  1  0  0  0  0
  6  5  2  0  0  0  0
  7 12  1  0  0  0  0
  7  5  1  0  0  0  0
  7  8  1  0  0  0  0
  8  2  1  0  0  0  0
  9  3  1  0  0  0  0
 11  7  1  0  0  0  0
M  END
