13
title
N -0.09800027 2.498638 0.89088196
C -0.017819745 1.3108156 0.4860491
O 1.0359757 0.80283916 -0.2187467
C 1.2610334 -0.60694486 -0.121523485
C 0.009866725 -1.3774493 -0.51604843
O 0.016322276 -2.4903934 -0.9709989
C -1.2500944 -0.5639915 -0.26005095
O -1.0178057 0.43281406 0.7358032
H 0.77690506 2.9862597 0.7078147
H 2.0840173 -0.8442388 -0.7968273
H 1.5532643 -0.8858941 0.90051854
H -1.5898647 -0.107661664 -1.2003872
H -2.04557 -1.2073684 0.118499026
