14
title
O 0.010671367 -2.2748384 -1.4529737
C 0.005923203 -1.2607745 -0.8050981
C -1.2706833 -0.662598 -0.22163199
N -1.1022063 0.75319266 0.063224815
C -0.0057083704 1.2125087 0.7742637
O -0.010518268 2.2364857 1.4280379
N 1.096855 0.38154197 0.6615104
C 1.2760639 -0.47147846 -0.50220007
H -2.0793364 -0.8093687 -0.94158375
H -1.5190425 -1.2542295 0.67594296
H -1.9370236 1.2804897 0.27140555
H 1.9272212 0.79785657 1.0558171
H 2.0885644 -1.181102 -0.32876694
H 1.5248765 0.09541631 -1.4154724
