13
title
O 0.05126081 -2.6666706 0.02069744
C 0.075642094 -1.456383 0.09652308
C -1.1865938 -0.64075834 0.35661513
O -1.1817888 0.68792206 -0.18518631
C -0.059051413 1.4341768 -0.13637061
O -0.083793625 2.5977361 -0.419203
C 1.218275 0.71929437 0.29351267
N 1.1961347 -0.695453 -0.02546055
H -2.027995 -1.1572512 -0.10385131
H -1.3646812 -0.5935983 1.4391716
H 2.0427456 1.2080582 -0.22720145
H 1.3594819 0.9050229 1.3701378
H 2.0677116 -1.1941309 -0.13199006
