title
 OpenBabel02282109593D

 13 13  0  0  0  0  0  0  0  0999 V2000
    0.0403   -2.4048    1.2107 O   0  0  0  0  0  0  0  0  0  0  0  0
    0.0000   -1.3140    0.7052 C   0  0  0  0  0  0  0  0  0  0  0  0
   -1.2977   -0.6228    0.3081 C   0  0  0  0  0  0  0  0  0  0  0  0
   -1.0635    0.7969    0.0901 N   0  0  0  0  0  0  0  0  0  0  0  0
   -0.0101    1.2473   -0.6759 C   0  0  0  0  0  0  0  0  0  0  0  0
    0.0034    2.2839   -1.2827 O   0  0  0  0  0  0  0  0  0  0  0  0
    1.0639    0.4042   -0.6935 O   0  0  0  0  0  0  0  0  0  0  0  0
    1.2414   -0.4854    0.4087 C   0  0  0  0  0  0  0  0  0  0  0  0
   -1.6900   -1.1347   -0.5851 H   0  0  0  0  0  0  0  0  0  0  0  0
   -2.0269   -0.7634    1.1101 H   0  0  0  0  0  0  0  0  0  0  0  0
   -1.8761    1.3899    0.0091 H   0  0  0  0  0  0  0  0  0  0  0  0
    1.5047    0.0789    1.3152 H   0  0  0  0  0  0  0  0  0  0  0  0
    2.0757   -1.1415    0.1571 H   0  0  0  0  0  0  0  0  0  0  0  0
  2  1  2  0  0  0  0
  3  2  1  0  0  0  0
  3 10  1  0  0  0  0
  4  3  1  0  0  0  0
  5  4  1  0  0  0  0
  6  5  2  0  0  0  0
  7  5  1  0  0  0  0
  7  8  1  0  0  0  0
  8  2  1  0  0  0  0
  8 12  1  0  0  0  0
  9  3  1  0  0  0  0
 11  4  1  0  0  0  0
 13  8  1  0  0  0  0
M  END
