title
 OpenBabel02282109593D

 13 13  0  0  0  0  0  0  0  0999 V2000
    0.0513   -2.6667    0.0207 O   0  0  0  0  0  0  0  0  0  0  0  0
    0.0756   -1.4564    0.0965 C   0  0  0  0  0  0  0  0  0  0  0  0
   -1.1866   -0.6408    0.3566 C   0  0  0  0  0  0  0  0  0  0  0  0
   -1.1818    0.6879   -0.1852 O   0  0  0  0  0  0  0  0  0  0  0  0
   -0.0591    1.4342   -0.1364 C   0  0  0  0  0  0  0  0  0  0  0  0
   -0.0838    2.5977   -0.4192 O   0  0  0  0  0  0  0  0  0  0  0  0
    1.2183    0.7193    0.2935 C   0  0  0  0  0  0  0  0  0  0  0  0
    1.1961   -0.6955   -0.0255 N   0  0  0  0  0  0  0  0  0  0  0  0
   -2.0280   -1.1573   -0.1039 H   0  0  0  0  0  0  0  0  0  0  0  0
   -1.3647   -0.5936    1.4392 H   0  0  0  0  0  0  0  0  0  0  0  0
    2.0427    1.2081   -0.2272 H   0  0  0  0  0  0  0  0  0  0  0  0
    1.3595    0.9050    1.3701 H   0  0  0  0  0  0  0  0  0  0  0  0
    2.0677   -1.1941   -0.1320 H   0  0  0  0  0  0  0  0  0  0  0  0
  1  2  2  0  0  0  0
  2  3  1  0  0  0  0
  3 10  1  0  0  0  0
  4  5  1  0  0  0  0
  4  3  1  0  0  0  0
  5  7  1  0  0  0  0
  6  5  2  0  0  0  0
  7 12  1  0  0  0  0
  8  2  1  0  0  0  0
  8  7  1  0  0  0  0
  9  3  1  0  0  0  0
 11  7  1  0  0  0  0
 13  8  1  0  0  0  0
M  END
