15
title
O 0.008486256 -2.40822 -1.2139726
C -0.018732123 -1.2901123 -0.76404274
C -1.287218 -0.49179932 -0.5418769
C -1.193768 0.3301932 0.7530625
C 0.00862254 1.2666701 0.7503754
O 0.0015329533 2.3675282 1.2632022
N 1.1026148 0.77712744 0.08250224
C 1.2852621 -0.5954792 -0.35185292
H -1.4026316 0.18967216 -1.3962121
H -2.1391284 -1.1751412 -0.5502534
H -2.083054 0.94226617 0.9101417
H -1.10942 -0.33843264 1.6198237
H 1.9149444 1.3761157 0.12321591
H 1.7507682 -1.226035 0.42133987
H 1.9560654 -0.6209088 -1.2168645
