title
 OpenBabel02282109593D

 14 14  0  0  0  0  0  0  0  0999 V2000
    0.0107   -2.2748   -1.4530 O   0  0  0  0  0  0  0  0  0  0  0  0
    0.0059   -1.2608   -0.8051 C   0  0  0  0  0  0  0  0  0  0  0  0
   -1.2707   -0.6626   -0.2216 C   0  0  0  0  0  0  0  0  0  0  0  0
   -1.1022    0.7532    0.0632 N   0  0  0  0  0  0  0  0  0  0  0  0
   -0.0057    1.2125    0.7743 C   0  0  0  0  0  0  0  0  0  0  0  0
   -0.0105    2.2365    1.4280 O   0  0  0  0  0  0  0  0  0  0  0  0
    1.0969    0.3815    0.6615 N   0  0  0  0  0  0  0  0  0  0  0  0
    1.2761   -0.4715   -0.5022 C   0  0  0  0  0  0  0  0  0  0  0  0
   -2.0793   -0.8094   -0.9416 H   0  0  0  0  0  0  0  0  0  0  0  0
   -1.5190   -1.2542    0.6759 H   0  0  0  0  0  0  0  0  0  0  0  0
   -1.9370    1.2805    0.2714 H   0  0  0  0  0  0  0  0  0  0  0  0
    1.9272    0.7979    1.0558 H   0  0  0  0  0  0  0  0  0  0  0  0
    2.0886   -1.1811   -0.3288 H   0  0  0  0  0  0  0  0  0  0  0  0
    1.5249    0.0954   -1.4155 H   0  0  0  0  0  0  0  0  0  0  0  0
  1  2  2  0  0  0  0
  2  8  1  0  0  0  0
  2  3  1  0  0  0  0
  3  4  1  0  0  0  0
  3 10  1  0  0  0  0
  4 11  1  0  0  0  0
  4  5  1  0  0  0  0
  5  6  2  0  0  0  0
  7  5  1  0  0  0  0
  7 12  1  0  0  0  0
  8 13  1  0  0  0  0
  8  7  1  0  0  0  0
  9  3  1  0  0  0  0
 14  8  1  0  0  0  0
M  END
