16
title
O 0.04373214 -2.5495393 0.63074666
C 0.026573958 -1.3427566 0.59302795
C -1.2683979 -0.5378601 0.58910054
C -1.2982041 0.5024311 -0.5542116
C -0.026568372 1.3428018 -0.5925646
O -0.043738965 2.549558 -0.6311413
C 1.2683333 0.53783625 -0.58905447
C 1.2982718 -0.5024554 0.5542538
H -2.1124213 -1.2277316 0.52640617
H -1.3363028 -0.012043986 1.5513954
H -1.3773793 -0.025434287 -1.5145243
H -2.1589918 1.1687222 -0.46860027
H 1.3359439 0.011997906 -1.551361
H 2.1124234 1.2276466 -0.5265864
H 1.3777455 0.025391785 1.5145487
H 2.1589866 -1.1688112 0.46841303
