title
 OpenBabel02282109593D

 13 13  0  0  0  0  0  0  0  0999 V2000
   -0.0873    2.4378   -1.0764 N   0  0  0  0  0  0  0  0  0  0  0  0
   -0.0085    1.3617   -0.4224 C   0  0  0  0  0  0  0  0  0  0  0  0
   -1.2458    0.6305    0.0324 C   0  0  0  0  0  0  0  0  0  0  0  0
   -1.1196   -0.7933   -0.1143 O   0  0  0  0  0  0  0  0  0  0  0  0
    0.0092   -1.3583    0.3664 C   0  0  0  0  0  0  0  0  0  0  0  0
    0.1284   -2.5464    0.4500 O   0  0  0  0  0  0  0  0  0  0  0  0
    1.0903   -0.3688    0.7821 C   0  0  0  0  0  0  0  0  0  0  0  0
    1.1677    0.7734   -0.0755 O   0  0  0  0  0  0  0  0  0  0  0  0
    0.8427    2.8164   -1.2656 H   0  0  0  0  0  0  0  0  0  0  0  0
   -1.4659    0.8699    1.0816 H   0  0  0  0  0  0  0  0  0  0  0  0
   -2.0920    0.9373   -0.5782 H   0  0  0  0  0  0  0  0  0  0  0  0
    0.9153   -0.0565    1.8215 H   0  0  0  0  0  0  0  0  0  0  0  0
    2.0563   -0.8689    0.7310 H   0  0  0  0  0  0  0  0  0  0  0  0
  1  2  2  0  0  0  0
  2  8  1  0  0  0  0
  2  3  1  0  0  0  0
  3 10  1  0  0  0  0
  4  3  1  0  0  0  0
  4  5  1  0  0  0  0
  5  6  2  0  0  0  0
  5  7  1  0  0  0  0
  7 12  1  0  0  0  0
  8  7  1  0  0  0  0
  9  1  1  0  0  0  0
 11  3  1  0  0  0  0
 13  7  1  0  0  0  0
M  END
