12
title
O 0.06748326 -2.376358 1.0835292
C 0.051528774 -1.3436683 0.4799894
C -1.2279917 -0.65400964 0.030169101
O -1.1574101 0.7761087 0.05969434
C -0.04356181 1.3589189 -0.43581423
O 0.018844614 2.5414112 -0.6054553
C 1.0970969 0.40382236 -0.7549521
O 1.1945893 -0.7051118 0.14607362
H -1.4869545 -0.9970432 -0.98083305
H -2.0319571 -0.942094 0.70549035
H 0.98725617 0.04190463 -1.7863623
H 2.0361166 0.95006937 -0.68234813
