13
title
N -0.08734678 2.4378393 -1.0764302
C -0.008507819 1.3616582 -0.42243913
C -1.2458484 0.630513 0.032430686
O -1.1195846 -0.79332036 -0.11431109
C 0.009191602 -1.35827 0.36643505
O 0.12840396 -2.5464373 0.4500305
C 1.0903474 -0.36881596 0.78206897
O 1.1677206 0.77344465 -0.075535856
H 0.84273607 2.8163588 -1.2656353
H -1.4659011 0.8698837 1.0815524
H -2.0919993 0.93727005 -0.5781884
H 0.9153365 -0.056539472 1.8215245
H 2.0562868 -0.86887115 0.7310163
