title
 OpenBabel02282109593D

 17 17  0  0  0  0  0  0  0  0999 V2000
    0.2529    2.9215    0.0291 C   0  0  0  0  0  0  0  0  0  0  0  0
    0.1274    1.4261   -0.0636 C   0  0  0  0  0  0  0  0  0  0  0  0
    0.1263    0.7599   -1.2164 C   0  0  0  0  0  0  0  0  0  0  0  0
    0.0021   -0.7295   -1.3275 C   0  0  0  0  0  0  0  0  0  0  0  0
   -0.1284   -1.4822   -0.0116 C   0  0  0  0  0  0  0  0  0  0  0  0
   -0.2345   -2.6946    0.0254 O   0  0  0  0  0  0  0  0  0  0  0  0
   -0.1214   -0.7275    1.1248 N   0  0  0  0  0  0  0  0  0  0  0  0
    0.0008    0.7118    1.2540 C   0  0  0  0  0  0  0  0  0  0  0  0
    1.1328    3.2133    0.6168 H   0  0  0  0  0  0  0  0  0  0  0  0
    0.3422    3.3738   -0.9614 H   0  0  0  0  0  0  0  0  0  0  0  0
   -0.6178    3.3657    0.5285 H   0  0  0  0  0  0  0  0  0  0  0  0
    0.2204    1.3113   -2.1497 H   0  0  0  0  0  0  0  0  0  0  0  0
   -0.8657   -1.0090   -1.9394 H   0  0  0  0  0  0  0  0  0  0  0  0
    0.8639   -1.1598   -1.8545 H   0  0  0  0  0  0  0  0  0  0  0  0
   -0.2100   -1.2716    1.9710 H   0  0  0  0  0  0  0  0  0  0  0  0
    0.8743    0.9572    1.8798 H   0  0  0  0  0  0  0  0  0  0  0  0
   -0.8711    1.1122    1.7965 H   0  0  0  0  0  0  0  0  0  0  0  0
  1 11  1  0  0  0  0
  1  9  1  0  0  0  0
  2  1  1  0  0  0  0
  2  8  1  0  0  0  0
  3  2  2  0  0  0  0
  4  3  1  0  0  0  0
  4  5  1  0  0  0  0
  5  6  2  0  0  0  0
  5  7  1  0  0  0  0
  7  8  1  0  0  0  0
  7 15  1  0  0  0  0
  8 17  1  0  0  0  0
  8 16  1  0  0  0  0
 10  1  1  0  0  0  0
 12  3  1  0  0  0  0
 13  4  1  0  0  0  0
 14  4  1  0  0  0  0
M  END
