17
title
C 0.25290057 2.921469 0.029057723
C 0.1273656 1.4260845 -0.06364419
C 0.12626195 0.75985396 -1.2164483
C 0.0020607582 -0.72951925 -1.3275251
C -0.1283997 -1.4822179 -0.011560769
O -0.23449504 -2.6946049 0.02541465
N -0.121361524 -0.7275425 1.1248078
C 0.00076304586 0.711813 1.2539623
H 1.1328145 3.213285 0.6168013
H 0.34223408 3.373821 -0.9613608
H -0.6177787 3.3656518 0.52852625
H 0.2203582 1.3112967 -2.1496615
H -0.8657483 -1.0089544 -1.9394448
H 0.8638782 -1.1597539 -1.8544928
H -0.20996612 -1.2716066 1.9709653
H 0.8742931 0.95715404 1.8798239
H -0.8710569 1.1121554 1.7965493
