title
 OpenBabel02282109593D

 17 17  0  0  0  0  0  0  0  0999 V2000
   -0.1447    2.8850   -0.0252 C   0  0  0  0  0  0  0  0  0  0  0  0
   -0.1908    1.3872   -0.1186 C   0  0  0  0  0  0  0  0  0  0  0  0
   -0.1639    0.6977   -1.2557 C   0  0  0  0  0  0  0  0  0  0  0  0
   -0.2751   -0.8002   -1.2608 C   0  0  0  0  0  0  0  0  0  0  0  0
    0.2188   -1.4402    0.0172 C   0  0  0  0  0  0  0  0  0  0  0  0
    0.6568   -2.6289    0.0170 N   0  0  0  0  0  0  0  0  0  0  0  0
    0.1845   -0.7034    1.1608 O   0  0  0  0  0  0  0  0  0  0  0  0
   -0.3123    0.6385    1.1812 C   0  0  0  0  0  0  0  0  0  0  0  0
    0.7394    3.2234    0.5299 H   0  0  0  0  0  0  0  0  0  0  0  0
   -0.1225    3.3428   -1.0172 H   0  0  0  0  0  0  0  0  0  0  0  0
   -1.0191    3.2794    0.5087 H   0  0  0  0  0  0  0  0  0  0  0  0
   -0.0902    1.2062   -2.2130 H   0  0  0  0  0  0  0  0  0  0  0  0
   -1.3248   -1.0974   -1.4096 H   0  0  0  0  0  0  0  0  0  0  0  0
    0.2783   -1.2544   -2.0854 H   0  0  0  0  0  0  0  0  0  0  0  0
    0.9337   -2.8988    0.9632 H   0  0  0  0  0  0  0  0  0  0  0  0
    0.2561    1.1413    1.9717 H   0  0  0  0  0  0  0  0  0  0  0  0
   -1.3632    0.6189    1.5116 H   0  0  0  0  0  0  0  0  0  0  0  0
  1 11  1  0  0  0  0
  1  9  1  0  0  0  0
  2  1  1  0  0  0  0
  2  8  1  0  0  0  0
  3  2  2  0  0  0  0
  4  3  1  0  0  0  0
  4  5  1  0  0  0  0
  5  7  1  0  0  0  0
  6  5  2  0  0  0  0
  6 15  1  0  0  0  0
  7  8  1  0  0  0  0
  8 17  1  0  0  0  0
  8 16  1  0  0  0  0
 10  1  1  0  0  0  0
 12  3  1  0  0  0  0
 13  4  1  0  0  0  0
 14  4  1  0  0  0  0
M  END
