18
title
C -0.27366546 2.892117 0.021890566
C -0.16936034 1.3931043 -0.049310315
C -0.18231958 0.72935903 -1.2079971
C -0.027176468 -0.76307213 -1.3451856
C 0.20702246 -1.4836313 -0.022505226
O 0.8386984 -2.5114214 0.04765567
C -0.42575324 -0.8146647 1.1833986
C -0.026644154 0.66989195 1.2722105
H 0.5931929 3.3228097 0.5399388
H -0.3322466 3.3427696 -0.9721811
H -1.1592281 3.2017667 0.59179723
H -0.28456333 1.2847766 -2.1381164
H -0.929693 -1.2004999 -1.8017044
H 0.7947015 -1.0240666 -2.0219493
H -1.5157367 -0.87554204 1.0580739
H -0.15399885 -1.3706113 2.0833738
H 1.0112808 0.75701 1.6253783
H -0.636504 1.1668717 2.036543
