17
title
C 0.19597264 2.9213502 0.043867197
C 0.15232827 1.4228437 0.0064711235
C 0.12605152 0.72948855 -1.1353134
N 0.10442954 -0.6729077 -1.169518
C -0.13820769 -1.4784139 -0.07924021
O -0.09792193 -2.6898046 -0.15205972
C -0.5191451 -0.7067188 1.1775851
C 0.18720606 0.65249276 1.3075422
H 1.083311 3.2790864 0.5834361
H 0.22033231 3.3510358 -0.9617994
H -0.6741357 3.3387175 0.56763434
H 0.13053569 1.2042277 -2.1101913
H 0.27964443 -1.1573673 -2.0365686
H -1.6048826 -0.547842 1.1202717
H -0.3340998 -1.3558942 2.0351574
H 1.2334476 0.5049243 1.6168687
H -0.28118256 1.2324557 2.1105578
