15
title
C -0.28939018 2.7906246 0.016564133
C -0.12196546 1.3061676 -0.11156256
N -0.1833262 0.7127119 -1.2285765
C 0.100334466 -0.7086339 -1.3058529
C 0.14551066 -1.476889 0.003110501
O 0.33147988 -2.666868 0.071286134
C -0.12159516 -0.652616 1.2532303
O 0.12155685 0.7450718 1.1114833
H 0.5894557 3.22398 0.5046839
H -0.41812676 3.2325132 -0.9702855
H -1.1545613 3.0244153 0.64516705
H -0.63536114 -1.1976017 -1.9574699
H 1.066648 -0.85641634 -1.8083113
H -1.173659 -0.81186116 1.5347188
H 0.5035228 -1.0136653 2.072586
