title
 OpenBabel02282109593D

 16 16  0  0  0  0  0  0  0  0999 V2000
   -0.0022    2.9204    0.0469 C   0  0  0  0  0  0  0  0  0  0  0  0
   -0.0261    1.4233   -0.0106 C   0  0  0  0  0  0  0  0  0  0  0  0
   -0.0755    0.7329   -1.1520 C   0  0  0  0  0  0  0  0  0  0  0  0
   -0.1154   -0.6579   -1.1905 N   0  0  0  0  0  0  0  0  0  0  0  0
    0.0263   -1.4536   -0.0647 C   0  0  0  0  0  0  0  0  0  0  0  0
    0.0666   -2.6688   -0.1280 O   0  0  0  0  0  0  0  0  0  0  0  0
    0.1332   -0.7527    1.1071 N   0  0  0  0  0  0  0  0  0  0  0  0
   -0.0197    0.6837    1.3026 C   0  0  0  0  0  0  0  0  0  0  0  0
    0.9033    3.2918    0.5458 H   0  0  0  0  0  0  0  0  0  0  0  0
   -0.0372    3.3586   -0.9542 H   0  0  0  0  0  0  0  0  0  0  0  0
   -0.8551    3.3158    0.6157 H   0  0  0  0  0  0  0  0  0  0  0  0
   -0.0960    1.2191   -2.1209 H   0  0  0  0  0  0  0  0  0  0  0  0
   -0.1121   -1.1558   -2.0637 H   0  0  0  0  0  0  0  0  0  0  0  0
    0.1935   -1.3470    1.9179 H   0  0  0  0  0  0  0  0  0  0  0  0
    0.8039    1.0537    1.9338 H   0  0  0  0  0  0  0  0  0  0  0  0
   -0.9467    0.9064    1.8614 H   0  0  0  0  0  0  0  0  0  0  0  0
  1  9  1  0  0  0  0
  1 11  1  0  0  0  0
  2  1  1  0  0  0  0
  2  8  1  0  0  0  0
  3  2  2  0  0  0  0
  4  3  1  0  0  0  0
  4  5  1  0  0  0  0
  5  7  1  0  0  0  0
  6  5  2  0  0  0  0
  7  8  1  0  0  0  0
  7 14  1  0  0  0  0
  8 16  1  0  0  0  0
  8 15  1  0  0  0  0
 10  1  1  0  0  0  0
 12  3  1  0  0  0  0
 13  4  1  0  0  0  0
M  END
