15
title
C 0.1090379 2.912265 0.026192665
C 0.15613991 1.417507 -0.048427373
C 0.18500899 0.7129515 -1.1784958
N 0.22653802 -0.6845974 -1.1430653
C -0.15166126 -1.4209994 -0.03531967
O -0.34784517 -2.6077442 -0.06649103
O -0.33055142 -0.7058078 1.0979395
C 0.21032366 0.62391645 1.2280936
H 0.9614743 3.3155959 0.5890038
H 0.12838148 3.3597436 -0.97129834
H -0.7975475 3.2627745 0.53638935
H 0.1749066 1.1559587 -2.1674612
H 0.23102704 -1.2127503 -1.9998496
H 1.2429357 0.54159904 1.6032187
H -0.38486734 1.0932392 2.0174773
