17
title
C -0.14466734 2.8850453 -0.025194226
C -0.19079927 1.3871683 -0.118597165
C -0.16386996 0.69771606 -1.2556978
C -0.27510756 -0.8001525 -1.2607852
C 0.21879028 -1.4402043 0.017204976
N 0.65680104 -2.6288745 0.016961893
O 0.18446372 -0.7033867 1.1607658
C -0.31231385 0.63852346 1.1811928
H 0.7394013 3.2233727 0.5298552
H -0.122491084 3.342836 -1.0172157
H -1.0191478 3.2794268 0.50873417
H -0.090150945 1.2061855 -2.2130284
H -1.3247509 -1.097421 -1.409649
H 0.27826634 -1.2543513 -2.0853915
H 0.93373364 -2.898763 0.9632155
H 0.25610283 1.1412599 1.9717228
H -1.3631524 0.6188863 1.5116016
