17
title
C -0.7630962 2.765549 0.026092287
C -0.8103686 1.2324865 0.039123956
C -0.1698833 0.6458707 -1.225657
N -0.026512368 -0.79909563 -1.1093735
C 0.49965414 -1.3903964 0.016437437
O 0.9076188 -2.539207 0.024148345
C 0.47669265 -0.53607714 1.2326236
C -0.13883154 0.648061 1.2580571
H 0.27042624 3.1279259 0.0108416155
H -1.2751889 3.1672509 -0.85406363
H -1.2503673 3.1788177 0.9144602
H -1.8669484 0.9224034 0.063854754
H -0.7902625 0.86601585 -2.0996714
H 0.80646425 1.1330105 -1.3865494
H 0.115413085 -1.3352163 -1.9532505
H 0.94246286 -0.9748564 2.1073997
H -0.19572656 1.2189744 2.182792
