title
 OpenBabel02282109593D

 16 16  0  0  1  0  0  0  0  0999 V2000
   -1.2605    2.5654    0.0793 C   0  0  0  0  0  0  0  0  0  0  0  0
   -1.0161    1.0504    0.0906 C   0  0  1  0  0  0  0  0  0  0  0  0
   -0.2645    0.6080   -1.1640 C   0  0  0  0  0  0  0  0  0  0  0  0
    0.1165   -0.7740   -1.1366 O   0  0  0  0  0  0  0  0  0  0  0  0
    0.7332   -1.2510   -0.0213 C   0  0  0  0  0  0  0  0  0  0  0  0
    1.2782   -2.3236   -0.0547 O   0  0  0  0  0  0  0  0  0  0  0  0
    0.6231   -0.4284    1.2063 C   0  0  0  0  0  0  0  0  0  0  0  0
   -0.2228    0.6007    1.2886 C   0  0  0  0  0  0  0  0  0  0  0  0
   -0.3151    3.1181    0.0620 H   0  0  0  0  0  0  0  0  0  0  0  0
   -1.8426    2.8625   -0.7985 H   0  0  0  0  0  0  0  0  0  0  0  0
   -1.8149    2.8762    0.9698 H   0  0  0  0  0  0  0  0  0  0  0  0
   -1.9931    0.5438    0.1147 H   0  0  0  0  0  0  0  0  0  0  0  0
   -0.8770    0.7211   -2.0615 H   0  0  0  0  0  0  0  0  0  0  0  0
    0.6382    1.2235   -1.2840 H   0  0  0  0  0  0  0  0  0  0  0  0
    1.2034   -0.7869    2.0480 H   0  0  0  0  0  0  0  0  0  0  0  0
   -0.3641    1.1302    2.2284 H   0  0  0  0  0  0  0  0  0  0  0  0
  1  2  1  0  0  0  0
  1 11  1  0  0  0  0
  2 12  1  1  0  0  0
  2  8  1  0  0  0  0
  3  4  1  0  0  0  0
  3  2  1  0  0  0  0
  4  5  1  0  0  0  0
  5  7  1  0  0  0  0
  6  5  2  0  0  0  0
  7  8  2  0  0  0  0
  7 15  1  0  0  0  0
  8 16  1  0  0  0  0
  9  1  1  0  0  0  0
 10  1  1  0  0  0  0
 13  3  1  0  0  0  0
 14  3  1  0  0  0  0
M  END
