title
 OpenBabel02282109593D

 17 17  0  0  1  0  0  0  0  0999 V2000
   -1.0880    2.5833    0.0761 C   0  0  0  0  0  0  0  0  0  0  0  0
   -1.0122    1.0523    0.0826 C   0  0  1  0  0  0  0  0  0  0  0  0
   -0.3641    0.5881   -1.1395 N   0  0  0  0  0  0  0  0  0  0  0  0
   -0.1179   -0.8485   -1.1733 C   0  0  0  0  0  0  0  0  0  0  0  0
    0.7809   -1.2640   -0.0114 C   0  0  0  0  0  0  0  0  0  0  0  0
    1.5253   -2.2197   -0.0839 O   0  0  0  0  0  0  0  0  0  0  0  0
    0.6069   -0.4769    1.2249 C   0  0  0  0  0  0  0  0  0  0  0  0
   -0.2549    0.5450    1.2799 C   0  0  0  0  0  0  0  0  0  0  0  0
   -0.0840    3.0124    0.0212 H   0  0  0  0  0  0  0  0  0  0  0  0
   -1.6588    2.9343   -0.7899 H   0  0  0  0  0  0  0  0  0  0  0  0
   -1.5860    2.9535    0.9773 H   0  0  0  0  0  0  0  0  0  0  0  0
   -2.0504    0.6643    0.1794 H   0  0  0  0  0  0  0  0  0  0  0  0
   -0.9069    0.8724   -1.9474 H   0  0  0  0  0  0  0  0  0  0  0  0
   -1.0382   -1.4641   -1.1005 H   0  0  0  0  0  0  0  0  0  0  0  0
    0.3806   -1.1199   -2.1070 H   0  0  0  0  0  0  0  0  0  0  0  0
    1.1655   -0.8132    2.0928 H   0  0  0  0  0  0  0  0  0  0  0  0
   -0.4413    1.0598    2.2197 H   0  0  0  0  0  0  0  0  0  0  0  0
  1  2  1  0  0  0  0
  1 11  1  0  0  0  0
  2 12  1  1  0  0  0
  2  8  1  0  0  0  0
  3  2  1  0  0  0  0
  4  3  1  0  0  0  0
  4 14  1  0  0  0  0
  4  5  1  0  0  0  0
  5  7  1  0  0  0  0
  6  5  2  0  0  0  0
  7  8  2  0  0  0  0
  7 16  1  0  0  0  0
  8 17  1  0  0  0  0
  9  1  1  0  0  0  0
 10  1  1  0  0  0  0
 13  3  1  0  0  0  0
 15  4  1  0  0  0  0
M  END
