15
title
O 0.9973121 1.4189641 1.5761682
C 0.79769915 0.02854856 1.3403211
C -0.6829171 -0.36191854 1.3050508
N -1.2779888 0.015764413 0.030443095
C -0.6673778 -0.26193354 -1.1716907
O -1.2653254 -0.24058521 -2.2330787
C 0.79623765 -0.5170352 -1.0814676
C 1.4806554 -0.38831007 0.05823853
H 0.63387567 1.8895649 0.8165553
H 1.2616549 -0.47030184 2.1967487
H -0.77047515 -1.4445885 1.4860301
H -1.2048296 0.1594915 2.1117373
H -2.2836583 0.08745689 -0.028774954
H 1.2690549 -0.7603079 -2.0264068
H 2.560847 -0.5023905 0.08013453
