20
title
C -0.7911813 2.7747335 0.02470836
C -0.77841413 1.2429506 0.016347518
C -0.11119796 0.6904953 -1.2537526
C -0.09583385 -0.8504701 -1.2848471
C 0.50472593 -1.4362981 -0.013975493
O 1.3633295 -2.2875216 -0.029221954
C -0.06393708 -0.8641947 1.2776518
C -0.079864696 0.67701364 1.2634565
H 0.22932528 3.1755018 0.014143718
H -1.3131386 3.1730509 -0.8515963
H -1.291099 3.1635773 0.91795474
H -1.8220361 0.8921914 0.027459474
H -0.6207755 1.0706306 -2.1463215
H 0.92132163 1.0629497 -1.3047748
H -1.1300917 -1.2167051 -1.3600719
H 0.45655832 -1.2391586 -2.1436865
H -1.0960517 -1.2313507 1.3746684
H 0.5096079 -1.2619867 2.1182635
H 0.9536544 1.0490382 1.29275
H -0.5670178 1.047498 2.1724527
