15
title
O 0.5564358 2.421292 0.9691349
C 0.5888751 1.0076697 0.82573986
C -0.87074846 0.55837905 0.8242019
O -1.0124948 -0.8221744 0.48199254
C -0.38337624 -1.2665088 -0.6484551
N -0.71752614 -2.3549297 -1.212771
C 0.74652714 -0.47277242 -1.1485051
C 1.2291787 0.56633663 -0.46521237
H 1.4535928 2.7317336 1.1252023
H 1.114373 0.54465896 1.6775458
H -1.3213825 0.67142254 1.8113979
H -1.4204297 1.1866419 0.1118333
H -1.5076698 -2.77388 -0.7170811
H 1.1798618 -0.82289964 -2.0772624
H 2.095885 1.1206958 -0.81635827
