18
title
C -1.009811 2.7172148 0.017279448
C -0.8095812 1.200575 -0.03883908
C -0.08104834 0.7391417 -1.3034021
C 0.060263246 -0.7845644 -1.2874684
C 0.5134424 -1.3876325 0.036386084
O 0.9820167 -2.4903345 0.11820969
O 0.2974715 -0.68059444 1.1732249
C -0.0045441682 0.72475463 1.1662982
H -0.048877686 3.2432733 -0.015343949
H -1.6062363 3.0613554 -0.83301026
H -1.5269214 3.02073 0.93347067
H -1.793559 0.7116595 -0.0065575247
H -0.6143439 1.0595353 -2.2047741
H 0.90961504 1.2123908 -1.3400817
H -0.9131219 -1.2482165 -1.4968235
H 0.7438811 -1.1535012 -2.0553138
H 0.9461359 1.2745272 1.2168458
H -0.5415485 0.9040736 2.1019773
