title
 OpenBabel02282109593D

 19 19  0  0  1  0  0  0  0  0999 V2000
   -0.7885    2.7305    0.0316 C   0  0  0  0  0  0  0  0  0  0  0  0
   -0.7719    1.2037   -0.0125 C   0  0  1  0  0  0  0  0  0  0  0  0
   -0.1103    0.6678   -1.2955 C   0  0  0  0  0  0  0  0  0  0  0  0
   -0.0431   -0.8722   -1.2973 C   0  0  0  0  0  0  0  0  0  0  0  0
    0.5103   -1.4221    0.0101 C   0  0  0  0  0  0  0  0  0  0  0  0
    1.3498   -2.2912    0.0588 O   0  0  0  0  0  0  0  0  0  0  0  0
   -0.0860   -0.7769    1.2621 C   0  0  0  0  0  0  0  0  0  0  0  0
   -0.1311    0.6881    1.2046 N   0  0  0  0  0  0  0  0  0  0  0  0
    0.2323    3.1316    0.0119 H   0  0  0  0  0  0  0  0  0  0  0  0
   -1.3222    3.1427   -0.8299 H   0  0  0  0  0  0  0  0  0  0  0  0
   -1.2724    3.0821    0.9462 H   0  0  0  0  0  0  0  0  0  0  0  0
   -1.8117    0.8424    0.0130 H   0  0  0  0  0  0  0  0  0  0  0  0
   -0.6487    1.0199   -2.1837 H   0  0  0  0  0  0  0  0  0  0  0  0
    0.9070    1.0781   -1.3620 H   0  0  0  0  0  0  0  0  0  0  0  0
   -1.0617   -1.2739   -1.4057 H   0  0  0  0  0  0  0  0  0  0  0  0
    0.5527   -1.2627   -2.1261 H   0  0  0  0  0  0  0  0  0  0  0  0
   -1.1153   -1.1473    1.3819 H   0  0  0  0  0  0  0  0  0  0  0  0
    0.4856   -1.1018    2.1350 H   0  0  0  0  0  0  0  0  0  0  0  0
    0.8171    1.0527    1.2586 H   0  0  0  0  0  0  0  0  0  0  0  0
  1 11  1  0  0  0  0
  2 12  1  1  0  0  0
  2  1  1  0  0  0  0
  2  8  1  0  0  0  0
  3  2  1  0  0  0  0
  4  3  1  0  0  0  0
  4  5  1  0  0  0  0
  5  6  2  0  0  0  0
  5  7  1  0  0  0  0
  7 17  1  0  0  0  0
  7 18  1  0  0  0  0
  8 19  1  0  0  0  0
  8  7  1  0  0  0  0
  9  1  1  0  0  0  0
 10  1  1  0  0  0  0
 13  3  1  0  0  0  0
 14  3  1  0  0  0  0
 15  4  1  0  0  0  0
 16  4  1  0  0  0  0
M  END
