17
title
C -0.6655122 2.7428725 0.016573407
C -0.62380815 1.2247242 -0.044584446
C 0.11923125 0.70422465 -1.2754723
N 0.30210152 -0.7354126 -1.1659046
C 0.31420496 -1.4423456 -0.0004704852
O 0.53744125 -2.6369655 0.052369338
C -0.031053578 -0.64418125 1.2565237
O 0.04296037 0.7614016 1.1208842
H 0.3487768 3.1504126 0.062055264
H -1.1700197 3.1539757 -0.8629079
H -1.2045069 3.0666702 0.91002625
H -1.6517057 0.8222789 -0.060407173
H -0.4561473 0.9279792 -2.1811976
H 1.0864601 1.2213396 -1.3556557
H 0.5739329 -1.2634358 -1.9827535
H -1.03867 -0.9605453 1.5743035
H 0.6702405 -0.9360392 2.0410087
