17
title
C -1.0066396 2.6125026 0.068823926
C -0.8173681 1.1053253 0.016506195
C -0.055522926 0.65782756 -1.2220249
O 0.23453414 -0.7487892 -1.2097948
C 0.5559174 -1.3456266 -0.027737532
N 1.1646057 -2.4520779 0.028681034
C 0.041793637 -0.6925645 1.240741
O -0.0690685 0.7144405 1.1595576
H -0.037728257 3.1206732 0.05877736
H -1.5949812 2.9605408 -0.78531647
H -1.5288093 2.8904164 0.9873769
H -1.799233 0.6002796 0.033802543
H -0.6315926 0.833464 -2.134572
H 0.8898194 1.2126 -1.2873837
H 1.3848938 -2.7827768 -0.9134745
H -0.9405909 -1.1396794 1.4718455
H 0.7225268 -0.929137 2.0584888
