18
title
C -0.94224745 2.6742656 0.054802254
C -0.80403227 1.1547121 0.04757462
C -0.07296501 0.6672529 -1.2025726
O 0.17744817 -0.7474618 -1.2011842
C 0.53860086 -1.3655217 -0.037281096
N 1.1980573 -2.4454753 -0.033446945
C 0.011336698 -0.7642324 1.2524573
N -0.12542753 0.6911368 1.2599983
H 0.04169549 3.1583078 0.03818158
H -1.5022415 3.0262353 -0.81682265
H -1.4624635 2.9977396 0.95940393
H -1.8056108 0.70158017 0.057623796
H -0.6487241 0.8583504 -2.1131907
H 0.89050835 1.192441 -1.2921742
H 1.4234499 -2.720935 -0.99262077
H -0.9830345 -1.1976461 1.4305111
H 0.65294677 -1.0919776 2.0714805
H 0.7965805 1.1194705 1.3088075
