title
 OpenBabel02282109593D

 16 16  0  0  1  0  0  0  0  0999 V2000
   -1.0311    2.6190    0.0408 C   0  0  0  0  0  0  0  0  0  0  0  0
   -0.7829    1.1200   -0.0021 C   0  0  1  0  0  0  0  0  0  0  0  0
    0.0308    0.7009   -1.2155 C   0  0  0  0  0  0  0  0  0  0  0  0
    0.3680   -0.6982   -1.1986 O   0  0  0  0  0  0  0  0  0  0  0  0
    0.4942   -1.3627   -0.0301 C   0  0  0  0  0  0  0  0  0  0  0  0
    0.8440   -2.5105   -0.0228 O   0  0  0  0  0  0  0  0  0  0  0  0
    0.1138   -0.6360    1.2579 C   0  0  0  0  0  0  0  0  0  0  0  0
   -0.0465    0.7614    1.1593 O   0  0  0  0  0  0  0  0  0  0  0  0
   -0.0825    3.1637    0.0569 H   0  0  0  0  0  0  0  0  0  0  0  0
   -1.6083    2.9425   -0.8302 H   0  0  0  0  0  0  0  0  0  0  0  0
   -1.5893    2.8775    0.9436 H   0  0  0  0  0  0  0  0  0  0  0  0
   -1.7455    0.5794   -0.0095 H   0  0  0  0  0  0  0  0  0  0  0  0
   -0.5199    0.8615   -2.1466 H   0  0  0  0  0  0  0  0  0  0  0  0
    0.9616    1.2795   -1.2512 H   0  0  0  0  0  0  0  0  0  0  0  0
   -0.8092   -1.1189    1.6207 H   0  0  0  0  0  0  0  0  0  0  0  0
    0.8970   -0.8318    1.9934 H   0  0  0  0  0  0  0  0  0  0  0  0
  1  9  1  0  0  0  0
  1 11  1  0  0  0  0
  2 12  1  6  0  0  0
  2  1  1  0  0  0  0
  2  8  1  0  0  0  0
  3  4  1  0  0  0  0
  3  2  1  0  0  0  0
  4  5  1  0  0  0  0
  5  6  2  0  0  0  0
  5  7  1  0  0  0  0
  7 15  1  0  0  0  0
  7 16  1  0  0  0  0
  8  7  1  0  0  0  0
 10  1  1  0  0  0  0
 13  3  1  0  0  0  0
 14  3  1  0  0  0  0
M  END
