title
 OpenBabel02282109593D

 17 17  0  0  1  0  0  0  0  0999 V2000
   -0.9829    2.6813    0.0323 C   0  0  0  0  0  0  0  0  0  0  0  0
   -0.7737    1.1697    0.0327 C   0  0  1  0  0  0  0  0  0  0  0  0
    0.0109    0.7178   -1.1963 C   0  0  0  0  0  0  0  0  0  0  0  0
    0.3376   -0.6840   -1.1916 O   0  0  0  0  0  0  0  0  0  0  0  0
    0.4848   -1.3831   -0.0414 C   0  0  0  0  0  0  0  0  0  0  0  0
    0.8645   -2.5214   -0.0869 O   0  0  0  0  0  0  0  0  0  0  0  0
    0.0825   -0.7069    1.2705 C   0  0  0  0  0  0  0  0  0  0  0  0
   -0.0977    0.7401    1.2576 N   0  0  0  0  0  0  0  0  0  0  0  0
   -0.0222    3.2095    0.0452 H   0  0  0  0  0  0  0  0  0  0  0  0
   -1.5315    3.0061   -0.8568 H   0  0  0  0  0  0  0  0  0  0  0  0
   -1.5451    2.9805    0.9198 H   0  0  0  0  0  0  0  0  0  0  0  0
   -1.7536    0.6714    0.0215 H   0  0  0  0  0  0  0  0  0  0  0  0
   -0.5486    0.8825   -2.1226 H   0  0  0  0  0  0  0  0  0  0  0  0
    0.9507    1.2842   -1.2640 H   0  0  0  0  0  0  0  0  0  0  0  0
   -0.8605   -1.1853    1.5707 H   0  0  0  0  0  0  0  0  0  0  0  0
    0.8207   -0.9926    2.0231 H   0  0  0  0  0  0  0  0  0  0  0  0
    0.8081    1.1991    1.3139 H   0  0  0  0  0  0  0  0  0  0  0  0
  1  2  1  0  0  0  0
  1  9  1  0  0  0  0
  1 11  1  0  0  0  0
  2 12  1  6  0  0  0
  2  8  1  0  0  0  0
  3  4  1  0  0  0  0
  3  2  1  0  0  0  0
  4  5  1  0  0  0  0
  5  7  1  0  0  0  0
  6  5  2  0  0  0  0
  7 15  1  0  0  0  0
  7 16  1  0  0  0  0
  8  7  1  0  0  0  0
  8 17  1  0  0  0  0
 10  1  1  0  0  0  0
 13  3  1  0  0  0  0
 14  3  1  0  0  0  0
M  END
