title
 OpenBabel02282109593D

 18 18  0  0  0  0  0  0  0  0999 V2000
   -0.6066    2.8303    0.0164 C   0  0  0  0  0  0  0  0  0  0  0  0
   -0.6261    1.3013    0.0082 C   0  0  0  0  0  0  0  0  0  0  0  0
    0.0570    0.7329   -1.2398 C   0  0  0  0  0  0  0  0  0  0  0  0
    0.0979   -0.7173   -1.1679 N   0  0  0  0  0  0  0  0  0  0  0  0
    0.2890   -1.4389   -0.0083 C   0  0  0  0  0  0  0  0  0  0  0  0
    0.5459   -2.6310   -0.0153 O   0  0  0  0  0  0  0  0  0  0  0  0
    0.1029   -0.7298    1.1597 N   0  0  0  0  0  0  0  0  0  0  0  0
    0.0617    0.7195    1.2475 C   0  0  0  0  0  0  0  0  0  0  0  0
    0.4201    3.2137    0.0166 H   0  0  0  0  0  0  0  0  0  0  0  0
   -1.1142    3.2358   -0.8643 H   0  0  0  0  0  0  0  0  0  0  0  0
   -1.1109    3.2263    0.9035 H   0  0  0  0  0  0  0  0  0  0  0  0
   -1.6649    0.9490    0.0083 H   0  0  0  0  0  0  0  0  0  0  0  0
   -0.4985    1.0262   -2.1377 H   0  0  0  0  0  0  0  0  0  0  0  0
    1.0664    1.1692   -1.3308 H   0  0  0  0  0  0  0  0  0  0  0  0
    0.3445   -1.2392   -1.9934 H   0  0  0  0  0  0  0  0  0  0  0  0
    0.3525   -1.2606    1.9786 H   0  0  0  0  0  0  0  0  0  0  0  0
    1.0713    1.1551    1.3396 H   0  0  0  0  0  0  0  0  0  0  0  0
   -0.4907    1.0028    2.1505 H   0  0  0  0  0  0  0  0  0  0  0  0
  1  9  1  0  0  0  0
  1 11  1  0  0  0  0
  2 12  1  0  0  0  0
  2  1  1  0  0  0  0
  2  8  1  0  0  0  0
  3  4  1  0  0  0  0
  3  2  1  0  0  0  0
  4  5  1  0  0  0  0
  5  7  1  0  0  0  0
  6  5  2  0  0  0  0
  7  8  1  0  0  0  0
  7 16  1  0  0  0  0
  8 17  1  0  0  0  0
  8 18  1  0  0  0  0
 10  1  1  0  0  0  0
 13  3  1  0  0  0  0
 14  3  1  0  0  0  0
 15  4  1  0  0  0  0
M  END
