title
 OpenBabel02282109593D

 18 18  0  0  1  0  0  0  0  0999 V2000
   -0.9422    2.6743    0.0548 C   0  0  0  0  0  0  0  0  0  0  0  0
   -0.8040    1.1547    0.0476 C   0  0  1  0  0  0  0  0  0  0  0  0
   -0.0730    0.6673   -1.2026 C   0  0  0  0  0  0  0  0  0  0  0  0
    0.1774   -0.7475   -1.2012 O   0  0  0  0  0  0  0  0  0  0  0  0
    0.5386   -1.3655   -0.0373 C   0  0  0  0  0  0  0  0  0  0  0  0
    1.1981   -2.4455   -0.0334 N   0  0  0  0  0  0  0  0  0  0  0  0
    0.0113   -0.7642    1.2525 C   0  0  0  0  0  0  0  0  0  0  0  0
   -0.1254    0.6911    1.2600 N   0  0  0  0  0  0  0  0  0  0  0  0
    0.0417    3.1583    0.0382 H   0  0  0  0  0  0  0  0  0  0  0  0
   -1.5022    3.0262   -0.8168 H   0  0  0  0  0  0  0  0  0  0  0  0
   -1.4625    2.9977    0.9594 H   0  0  0  0  0  0  0  0  0  0  0  0
   -1.8056    0.7016    0.0576 H   0  0  0  0  0  0  0  0  0  0  0  0
   -0.6487    0.8584   -2.1132 H   0  0  0  0  0  0  0  0  0  0  0  0
    0.8905    1.1924   -1.2922 H   0  0  0  0  0  0  0  0  0  0  0  0
    1.4234   -2.7209   -0.9926 H   0  0  0  0  0  0  0  0  0  0  0  0
   -0.9830   -1.1976    1.4305 H   0  0  0  0  0  0  0  0  0  0  0  0
    0.6529   -1.0920    2.0715 H   0  0  0  0  0  0  0  0  0  0  0  0
    0.7966    1.1195    1.3088 H   0  0  0  0  0  0  0  0  0  0  0  0
  1 11  1  0  0  0  0
  2  1  1  0  0  0  0
  2 12  1  6  0  0  0
  2  8  1  0  0  0  0
  3  4  1  0  0  0  0
  3  2  1  0  0  0  0
  4  5  1  0  0  0  0
  5  6  2  0  0  0  0
  5  7  1  0  0  0  0
  7  8  1  0  0  0  0
  7 16  1  0  0  0  0
  7 17  1  0  0  0  0
  8 18  1  0  0  0  0
  9  1  1  0  0  0  0
 10  1  1  0  0  0  0
 13  3  1  0  0  0  0
 14  3  1  0  0  0  0
 15  6  1  0  0  0  0
M  END
