title
 OpenBabel02282109593D

 17 17  0  0  1  0  0  0  0  0999 V2000
   -1.1121    2.6463    0.0165 C   0  0  0  0  0  0  0  0  0  0  0  0
   -0.8734    1.1357    0.0082 C   0  0  1  0  0  0  0  0  0  0  0  0
   -0.0719    0.6874   -1.2050 C   0  0  0  0  0  0  0  0  0  0  0  0
    0.1964   -0.7146   -1.1722 O   0  0  0  0  0  0  0  0  0  0  0  0
    0.5635   -1.3148   -0.0204 C   0  0  2  0  0  0  0  0  0  0  0  0
    1.1175   -2.4476   -0.0779 N   0  0  0  0  0  0  0  0  0  0  0  0
    0.2378   -0.7169    1.1596 O   0  0  0  0  0  0  0  0  0  0  0  0
   -0.0845    0.6767    1.2253 C   0  0  0  0  0  0  0  0  0  0  0  0
   -0.1657    3.1984    0.0207 H   0  0  0  0  0  0  0  0  0  0  0  0
   -1.6781    2.9588   -0.8664 H   0  0  0  0  0  0  0  0  0  0  0  0
   -1.6806    2.9497    0.9010 H   0  0  0  0  0  0  0  0  0  0  0  0
   -1.8354    0.6084   -0.0020 H   0  0  0  0  0  0  0  0  0  0  0  0
   -0.6119    0.8542   -2.1402 H   0  0  0  0  0  0  0  0  0  0  0  0
    0.8781    1.2406   -1.2584 H   0  0  0  0  0  0  0  0  0  0  0  0
    1.2816   -2.7896    0.8667 H   0  0  0  0  0  0  0  0  0  0  0  0
    0.8469    1.2561    1.3119 H   0  0  0  0  0  0  0  0  0  0  0  0
   -0.6476    0.8017    2.1540 H   0  0  0  0  0  0  0  0  0  0  0  0
  1  9  1  0  0  0  0
  1 11  1  0  0  0  0
  2 12  1  6  0  0  0
  2  1  1  0  0  0  0
  2  8  1  0  0  0  0
  3  4  1  0  0  0  0
  3  2  1  0  0  0  0
  4  5  1  0  0  0  0
  5  6  1  1  0  0  0
  5  7  1  0  0  0  0
  6 15  1  0  0  0  0
  7  8  1  0  0  0  0
  8 16  1  0  0  0  0
  8 17  1  0  0  0  0
 10  1  1  0  0  0  0
 13  3  1  0  0  0  0
 14  3  1  0  0  0  0
M  RAD  2   5   2   6   2
M  END
