title
 OpenBabel02282109593D

 16 16  0  0  0  0  0  0  0  0999 V2000
   -1.1210    2.6552    0.0188 C   0  0  0  0  0  0  0  0  0  0  0  0
   -0.8429    1.1510    0.0096 C   0  0  0  0  0  0  0  0  0  0  0  0
   -0.0429    0.7254   -1.2105 C   0  0  0  0  0  0  0  0  0  0  0  0
    0.2959   -0.6676   -1.1673 O   0  0  0  0  0  0  0  0  0  0  0  0
    0.5104   -1.3299   -0.0092 C   0  0  0  0  0  0  0  0  0  0  0  0
    0.8480   -2.4750   -0.0167 O   0  0  0  0  0  0  0  0  0  0  0  0
    0.3054   -0.6800    1.1577 O   0  0  0  0  0  0  0  0  0  0  0  0
   -0.0327    0.7125    1.2184 C   0  0  0  0  0  0  0  0  0  0  0  0
   -0.1894    3.2318    0.0179 H   0  0  0  0  0  0  0  0  0  0  0  0
   -1.7000    2.9521   -0.8608 H   0  0  0  0  0  0  0  0  0  0  0  0
   -1.6925    2.9427    0.9064 H   0  0  0  0  0  0  0  0  0  0  0  0
   -1.7925    0.6010    0.0108 H   0  0  0  0  0  0  0  0  0  0  0  0
   -0.6027    0.8598   -2.1397 H   0  0  0  0  0  0  0  0  0  0  0  0
    0.8839    1.3111   -1.2839 H   0  0  0  0  0  0  0  0  0  0  0  0
    0.8949    1.2973    1.2901 H   0  0  0  0  0  0  0  0  0  0  0  0
   -0.5844    0.8372    2.1537 H   0  0  0  0  0  0  0  0  0  0  0  0
  1 11  1  0  0  0  0
  2 12  1  0  0  0  0
  2  1  1  0  0  0  0
  2  8  1  0  0  0  0
  3  4  1  0  0  0  0
  3  2  1  0  0  0  0
  4  5  1  0  0  0  0
  5  7  1  0  0  0  0
  6  5  2  0  0  0  0
  7  8  1  0  0  0  0
  8 15  1  0  0  0  0
  8 16  1  0  0  0  0
  9  1  1  0  0  0  0
 10  1  1  0  0  0  0
 13  3  1  0  0  0  0
 14  3  1  0  0  0  0
M  END
