14
title
O 0.4274559 2.526994 -0.8830883
C 0.41645765 1.1228396 -0.7244257
C 1.068087 0.69372195 0.58364
O 0.88986826 -0.708313 0.8073616
C -0.24734178 -1.3504596 0.45048466
O -0.42067072 -2.4920084 0.750347
O -1.1650469 -0.6830113 -0.28439042
C -1.0388713 0.69737846 -0.64424783
H 1.3150368 2.8030624 -1.1316662
H 0.9043279 0.60924524 -1.5656523
H 2.1491842 0.8580064 0.58271945
H 0.6308907 1.2657617 1.4117084
H -1.5543218 1.3181502 0.098711446
H -1.548426 0.8099579 -1.6031839
