16
title
O 0.38329822 2.5784597 0.8184786
C 0.3547554 1.1655856 0.721158
C -1.0945308 0.70721674 0.72872615
C -1.1375462 -0.8155471 0.57628214
C -0.20884912 -1.4075968 -0.47851792
O -0.3587757 -2.5097594 -0.9282576
O 0.8837609 -0.6899196 -0.85190237
C 0.9945209 0.7158 -0.59344864
H 1.2973047 2.8613653 0.9254097
H 0.88833994 0.6989209 1.5652039
H -1.5909759 1.0204425 1.6514727
H -1.6165206 1.1986866 -0.10104784
H -0.83932835 -1.2936482 1.5189061
H -2.1424303 -1.1819794 0.35696882
H 0.5269303 1.2727474 -1.415456
H 2.068129 0.9287887 -0.60756135
