15
title
O 0.21080106 2.648396 0.5695703
C 0.2827691 1.2359154 0.5934518
C -1.1488451 0.7144466 0.5903129
N -1.1493918 -0.690812 0.21851413
C -0.1158706 -1.4313045 -0.2928586
O -0.16928342 -2.6238194 -0.45633942
O 1.021845 -0.74802434 -0.6076067
C 0.9819183 0.67822695 -0.6444439
H 1.0887448 3.0016198 0.74392563
H 0.8076434 0.8699879 1.4881905
H -1.6047202 0.84098625 1.5777384
H -1.7259378 1.3205118 -0.12180453
H -1.9597716 -1.2487123 0.43204865
H 0.46381134 1.0272571 -1.5477207
H 2.0246084 1.0038854 -0.6988322
