20
title
C -0.024655009 2.9818356 0.06933074
C 0.00966507 1.4801176 -0.017960602
C -0.032174673 0.83109194 -1.1847345
C -0.025551822 -0.6702035 -1.3200319
C -0.36128628 -1.3709054 0.0019384017
O -0.050001767 -2.7578404 -0.031371027
C 0.43668002 -0.74473673 1.1395227
C 0.082667395 0.7393733 1.2998688
H 0.8807803 3.3718598 0.55243826
H -0.11074422 3.4446867 -0.9173726
H -0.8708779 3.32318 0.68022615
H -0.077464 1.4041651 -2.1088061
H -0.7370914 -0.9773646 -2.099912
H 0.9599989 -1.0253844 -1.6559001
H -1.4357072 -1.2283578 0.21099141
H -0.51992804 -3.1497118 -0.774492
H 0.24778225 -1.294404 2.0668077
H 1.5040112 -0.85555226 0.91194344
H 0.8165896 1.2284006 1.9539104
H -0.88065946 0.8458825 1.8218626
