17
title
O 0.33874625 2.5731363 0.77009094
C 0.35214317 1.1557255 0.73696387
C -1.0858045 0.6575939 0.7455838
C -1.0913745 -0.8713701 0.6256374
C -0.22922464 -1.3942969 -0.5011136
N -0.54313564 -2.4367812 -1.1455009
O 0.96797705 -0.7584753 -0.71324295
C 1.0334698 0.6615229 -0.5417991
H 1.2429225 2.885468 0.87837315
H 0.8826794 0.7440704 1.6108755
H -1.5932219 0.97719795 1.6601185
H -1.6166943 1.1164918 -0.097471975
H -0.6968034 -1.3046422 1.5550864
H -2.0976965 -1.2701352 0.4924718
H 0.18390186 -2.6507144 -1.8322186
H 0.5648612 1.163163 -1.3999236
H 2.1004395 0.9053957 -0.54535395
