title
 OpenBabel02282109593D

 14 14  0  0  0  0  0  0  0  0999 V2000
    0.4275    2.5270   -0.8831 O   0  0  0  0  0  0  0  0  0  0  0  0
    0.4165    1.1228   -0.7244 C   0  0  0  0  0  0  0  0  0  0  0  0
    1.0681    0.6937    0.5836 C   0  0  0  0  0  0  0  0  0  0  0  0
    0.8899   -0.7083    0.8074 O   0  0  0  0  0  0  0  0  0  0  0  0
   -0.2473   -1.3505    0.4505 C   0  0  0  0  0  0  0  0  0  0  0  0
   -0.4207   -2.4920    0.7503 O   0  0  0  0  0  0  0  0  0  0  0  0
   -1.1650   -0.6830   -0.2844 O   0  0  0  0  0  0  0  0  0  0  0  0
   -1.0389    0.6974   -0.6442 C   0  0  0  0  0  0  0  0  0  0  0  0
    1.3150    2.8031   -1.1317 H   0  0  0  0  0  0  0  0  0  0  0  0
    0.9043    0.6092   -1.5657 H   0  0  0  0  0  0  0  0  0  0  0  0
    2.1492    0.8580    0.5827 H   0  0  0  0  0  0  0  0  0  0  0  0
    0.6309    1.2658    1.4117 H   0  0  0  0  0  0  0  0  0  0  0  0
   -1.5543    1.3182    0.0987 H   0  0  0  0  0  0  0  0  0  0  0  0
   -1.5484    0.8100   -1.6032 H   0  0  0  0  0  0  0  0  0  0  0  0
  1  2  1  0  0  0  0
  2  8  1  0  0  0  0
  2  3  1  0  0  0  0
  3  4  1  0  0  0  0
  3 12  1  0  0  0  0
  5  6  2  0  0  0  0
  5  4  1  0  0  0  0
  7  5  1  0  0  0  0
  8  7  1  0  0  0  0
  8 13  1  0  0  0  0
  9  1  1  0  0  0  0
 10  2  1  0  0  0  0
 11  3  1  0  0  0  0
 14  8  1  0  0  0  0
M  END
