title
 OpenBabel02282109593D

 17 17  0  0  1  0  0  0  0  0999 V2000
   -0.0282    2.8508    0.0366 C   0  0  0  0  0  0  0  0  0  0  0  0
    0.0171    1.3568   -0.0939 C   0  0  0  0  0  0  0  0  0  0  0  0
   -0.0429    0.7748   -1.2178 N   0  0  0  0  0  0  0  0  0  0  0  0
   -0.0499   -0.6820   -1.2762 C   0  0  0  0  0  0  0  0  0  0  0  0
   -0.3914   -1.3453    0.0546 C   0  0  1  0  0  0  0  0  0  0  0  0
   -0.0265   -2.7132   -0.0239 O   0  0  0  0  0  0  0  0  0  0  0  0
    0.3935   -0.6263    1.1506 C   0  0  0  0  0  0  0  0  0  0  0  0
    0.1224    0.7771    1.1411 O   0  0  0  0  0  0  0  0  0  0  0  0
    0.8941    3.2204    0.4963 H   0  0  0  0  0  0  0  0  0  0  0  0
   -0.1562    3.3004   -0.9469 H   0  0  0  0  0  0  0  0  0  0  0  0
   -0.8548    3.1474    0.6903 H   0  0  0  0  0  0  0  0  0  0  0  0
   -0.7602   -0.9939   -2.0490 H   0  0  0  0  0  0  0  0  0  0  0  0
    0.9355   -1.0415   -1.6015 H   0  0  0  0  0  0  0  0  0  0  0  0
   -1.4676   -1.2295    0.2538 H   0  0  0  0  0  0  0  0  0  0  0  0
   -0.4053   -3.1755    0.7306 H   0  0  0  0  0  0  0  0  0  0  0  0
    0.1249   -0.9815    2.1502 H   0  0  0  0  0  0  0  0  0  0  0  0
    1.4666   -0.8000    0.9968 H   0  0  0  0  0  0  0  0  0  0  0  0
  1  9  1  0  0  0  0
  1 11  1  0  0  0  0
  2  1  1  0  0  0  0
  2  8  1  0  0  0  0
  3  2  2  0  0  0  0
  4  3  1  0  0  0  0
  4  5  1  0  0  0  0
  5 14  1  1  0  0  0
  5  7  1  0  0  0  0
  6  5  1  0  0  0  0
  6 15  1  0  0  0  0
  7 16  1  0  0  0  0
  8  7  1  0  0  0  0
 10  1  1  0  0  0  0
 12  4  1  0  0  0  0
 13  4  1  0  0  0  0
 17  7  1  0  0  0  0
M  END
