title
 OpenBabel02282109593D

 17 17  0  0  1  0  0  0  0  0999 V2000
    0.3387    2.5731    0.7701 O   0  0  0  0  0  0  0  0  0  0  0  0
    0.3521    1.1557    0.7370 C   0  0  1  0  0  0  0  0  0  0  0  0
   -1.0858    0.6576    0.7456 C   0  0  0  0  0  0  0  0  0  0  0  0
   -1.0914   -0.8714    0.6256 C   0  0  0  0  0  0  0  0  0  0  0  0
   -0.2292   -1.3943   -0.5011 C   0  0  0  0  0  0  0  0  0  0  0  0
   -0.5431   -2.4368   -1.1455 N   0  0  0  0  0  0  0  0  0  0  0  0
    0.9680   -0.7585   -0.7132 O   0  0  0  0  0  0  0  0  0  0  0  0
    1.0335    0.6615   -0.5418 C   0  0  0  0  0  0  0  0  0  0  0  0
    1.2429    2.8855    0.8784 H   0  0  0  0  0  0  0  0  0  0  0  0
    0.8827    0.7441    1.6109 H   0  0  0  0  0  0  0  0  0  0  0  0
   -1.5932    0.9772    1.6601 H   0  0  0  0  0  0  0  0  0  0  0  0
   -1.6167    1.1165   -0.0975 H   0  0  0  0  0  0  0  0  0  0  0  0
   -0.6968   -1.3046    1.5551 H   0  0  0  0  0  0  0  0  0  0  0  0
   -2.0977   -1.2701    0.4925 H   0  0  0  0  0  0  0  0  0  0  0  0
    0.1839   -2.6507   -1.8322 H   0  0  0  0  0  0  0  0  0  0  0  0
    0.5649    1.1632   -1.3999 H   0  0  0  0  0  0  0  0  0  0  0  0
    2.1004    0.9054   -0.5454 H   0  0  0  0  0  0  0  0  0  0  0  0
  1  9  1  0  0  0  0
  2  3  1  0  0  0  0
  2  1  1  0  0  0  0
  2 10  1  1  0  0  0
  3 11  1  0  0  0  0
  4  3  1  0  0  0  0
  4 13  1  0  0  0  0
  5  4  1  0  0  0  0
  6  5  2  0  0  0  0
  7  8  1  0  0  0  0
  7  5  1  0  0  0  0
  8  2  1  0  0  0  0
 12  3  1  0  0  0  0
 14  4  1  0  0  0  0
 15  6  1  0  0  0  0
 16  8  1  0  0  0  0
 17  8  1  0  0  0  0
M  END
