16
title
O 0.15728705 2.6867208 -0.4260736
C 0.29428962 1.2809702 -0.5143598
C 1.0312871 0.7048934 0.70001435
N 0.9819244 -0.744053 0.648088
C -0.11711653 -1.4664897 0.22560918
O -0.2224237 -2.665435 0.41704142
N -1.0514035 -0.7454145 -0.4862509
C -1.1175627 0.7026219 -0.5592984
H 1.026966 3.084093 -0.5324549
H 0.8279459 0.98252714 -1.4285201
H 2.0796237 1.02648 0.6902542
H 0.5690279 1.1197331 1.6095223
H 1.5863892 -1.2758077 1.253306
H -1.8736278 -1.2820283 -0.70897657
H -1.6945219 1.1441652 0.26788855
H -1.6055872 0.9994745 -1.4925888
