title
 OpenBabel02282109593D

 15 15  0  0  1  0  0  0  0  0999 V2000
    0.2108    2.6484    0.5696 O   0  0  0  0  0  0  0  0  0  0  0  0
    0.2828    1.2359    0.5935 C   0  0  1  0  0  0  0  0  0  0  0  0
   -1.1488    0.7144    0.5903 C   0  0  0  0  0  0  0  0  0  0  0  0
   -1.1494   -0.6908    0.2185 N   0  0  0  0  0  0  0  0  0  0  0  0
   -0.1159   -1.4313   -0.2929 C   0  0  0  0  0  0  0  0  0  0  0  0
   -0.1693   -2.6238   -0.4563 O   0  0  0  0  0  0  0  0  0  0  0  0
    1.0218   -0.7480   -0.6076 O   0  0  0  0  0  0  0  0  0  0  0  0
    0.9819    0.6782   -0.6444 C   0  0  0  0  0  0  0  0  0  0  0  0
    1.0887    3.0016    0.7439 H   0  0  0  0  0  0  0  0  0  0  0  0
    0.8076    0.8700    1.4882 H   0  0  0  0  0  0  0  0  0  0  0  0
   -1.6047    0.8410    1.5777 H   0  0  0  0  0  0  0  0  0  0  0  0
   -1.7259    1.3205   -0.1218 H   0  0  0  0  0  0  0  0  0  0  0  0
   -1.9598   -1.2487    0.4320 H   0  0  0  0  0  0  0  0  0  0  0  0
    0.4638    1.0273   -1.5477 H   0  0  0  0  0  0  0  0  0  0  0  0
    2.0246    1.0039   -0.6988 H   0  0  0  0  0  0  0  0  0  0  0  0
  1  2  1  0  0  0  0
  1  9  1  0  0  0  0
  2 10  1  1  0  0  0
  3  2  1  0  0  0  0
  3 11  1  0  0  0  0
  4 13  1  0  0  0  0
  4  3  1  0  0  0  0
  5  4  1  0  0  0  0
  6  5  2  0  0  0  0
  7  5  1  0  0  0  0
  8  7  1  0  0  0  0
  8  2  1  0  0  0  0
 12  3  1  0  0  0  0
 14  8  1  0  0  0  0
 15  8  1  0  0  0  0
M  END
