title
 OpenBabel02282109593D

 17 17  0  0  1  0  0  0  0  0999 V2000
    0.2098    2.6912    0.4886 O   0  0  0  0  0  0  0  0  0  0  0  0
    0.2904    1.2773    0.5409 C   0  0  1  0  0  0  0  0  0  0  0  0
   -1.1260    0.7194    0.5880 C   0  0  0  0  0  0  0  0  0  0  0  0
   -1.0862   -0.8093    0.6872 C   0  0  0  0  0  0  0  0  0  0  0  0
   -0.1216   -1.4956   -0.2773 C   0  0  0  0  0  0  0  0  0  0  0  0
   -0.2115   -2.6777   -0.5506 O   0  0  0  0  0  0  0  0  0  0  0  0
    0.8979   -0.7214   -0.7689 N   0  0  0  0  0  0  0  0  0  0  0  0
    1.0069    0.7272   -0.6985 C   0  0  0  0  0  0  0  0  0  0  0  0
    1.1007    3.0505    0.5508 H   0  0  0  0  0  0  0  0  0  0  0  0
    0.8332    0.9486    1.4423 H   0  0  0  0  0  0  0  0  0  0  0  0
   -1.6658    1.1514    1.4357 H   0  0  0  0  0  0  0  0  0  0  0  0
   -1.6521    1.0360   -0.3210 H   0  0  0  0  0  0  0  0  0  0  0  0
   -0.7771   -1.1152    1.6952 H   0  0  0  0  0  0  0  0  0  0  0  0
   -2.0702   -1.2541    0.5235 H   0  0  0  0  0  0  0  0  0  0  0  0
    1.4965   -1.2133   -1.4171 H   0  0  0  0  0  0  0  0  0  0  0  0
    0.5665    1.2141   -1.5815 H   0  0  0  0  0  0  0  0  0  0  0  0
    2.0695    0.9999   -0.6723 H   0  0  0  0  0  0  0  0  0  0  0  0
  1  2  1  0  0  0  0
  1  9  1  0  0  0  0
  2  3  1  0  0  0  0
  2 10  1  1  0  0  0
  3  4  1  0  0  0  0
  3 11  1  0  0  0  0
  4 13  1  0  0  0  0
  5  4  1  0  0  0  0
  6  5  2  0  0  0  0
  7  8  1  0  0  0  0
  7  5  1  0  0  0  0
  8 17  1  0  0  0  0
  8  2  1  0  0  0  0
 12  3  1  0  0  0  0
 14  4  1  0  0  0  0
 15  7  1  0  0  0  0
 16  8  1  0  0  0  0
M  END
