17
title
O 0.2098005 2.6911583 0.4885989
C 0.2903634 1.2773466 0.54091805
C -1.1259586 0.7193583 0.5880188
C -1.0861567 -0.80932057 0.6871795
C -0.12163391 -1.4955922 -0.27726927
O -0.21153286 -2.6776912 -0.5506182
N 0.89790684 -0.72139215 -0.7689049
C 1.0068722 0.7272106 -0.6984855
H 1.1006805 3.0504677 0.5507975
H 0.8331668 0.9485528 1.4422897
H -1.6657861 1.1514491 1.4356941
H -1.6520884 1.035991 -0.32103243
H -0.7771186 -1.115188 1.6951506
H -2.0702305 -1.2540752 0.5234975
H 1.4964827 -1.2132839 -1.417111
H 0.5665215 1.214103 -1.5815072
H 2.0694659 0.99987936 -0.6723074
