20
title
C -1.2773412 2.4574084 0.100639224
C -1.178984 0.92480814 0.079478264
C -0.5091321 0.4083454 -1.2037984
C -0.19977818 -1.0885619 -1.1031433
C 0.7653805 -1.3857911 0.054360293
O 2.1323318 -1.1377056 -0.30184308
C 0.3963914 -0.6174418 1.2976699
C -0.46063298 0.404959 1.3026636
H -0.2811396 2.9137323 0.08742408
H -1.8277786 2.8255925 -0.7711833
H -1.7942252 2.8110037 0.99906635
H -2.2085354 0.5310901 0.1068481
H -1.145383 0.6176601 -2.070558
H 0.42531037 0.96435356 -1.3672864
H -1.1328247 -1.6435225 -0.9378557
H 0.24406733 -1.465188 -2.029662
H 0.740417 -2.4609227 0.2686569
H 2.2744887 -0.1874994 -0.2388316
H 0.8980608 -0.917274 2.2145646
H -0.67550874 0.917021 2.2397552
