20
title
C -0.69761103 2.7438953 0.032161444
C -0.6403138 1.2279488 -0.07320251
C 0.091808714 0.72924054 -1.3246474
C 0.39789596 -0.7405771 -1.2104801
C 0.33432046 -1.395632 -0.051092055
C 0.5836521 -2.8698308 0.09432919
C -0.014510657 -0.65308857 1.2176036
O 0.021349046 0.7523379 1.0944648
H 0.31406048 3.157309 0.091596454
H -1.197782 3.1725426 -0.84172815
H -1.2434977 3.0454812 0.93012226
H -1.6676861 0.82272375 -0.0904642
H -0.526719 0.92090034 -2.2112603
H 1.0170972 1.3067076 -1.4668725
H 0.67118734 -1.2725012 -2.1194386
H 0.79416436 -3.3363898 -0.87164557
H 1.4321622 -3.06856 0.76196307
H -0.28361848 -3.380082 0.53386986
H -1.0078969 -0.9871378 1.5754273
H 0.70143515 -0.90637493 2.0100787
