18
title
O 0.5756457 2.3362422 0.9975864
C 0.63788134 0.9121732 0.9618684
C -0.79637337 0.3920452 1.0295494
C -0.8382822 -1.1083852 0.72372544
C -0.31376472 -1.4160235 -0.6879502
O -1.3068528 -1.2001212 -1.6976575
C 0.9295447 -0.62346286 -1.0076008
C 1.3380791 0.41814122 -0.28338364
H 1.4760389 2.6768792 1.0013982
H 1.1902251 0.5438399 1.8456984
H -1.2244282 0.612547 2.011545
H -1.3894594 0.95068383 0.29461715
H -0.22336581 -1.6487925 1.455613
H -1.8570433 -1.4975717 0.80685604
H -0.094873704 -2.4878492 -0.7599003
H -1.3751493 -0.24900487 -1.8337673
H 1.4660391 -0.9137265 -1.9076418
H 2.2334406 0.96639055 -0.5752962
