18
title
C -1.1418099 2.3671305 0.07198142
C -1.1479905 0.8412177 0.10825437
O -0.48712423 0.3924598 -1.0691801
C -0.246084 -1.0074183 -1.0535176
C 0.7947594 -1.3428202 0.014279664
O 2.1028447 -0.9364489 -0.38526416
C 0.39504275 -0.6944042 1.3188336
C -0.4981005 0.29271075 1.3547184
H -0.116720706 2.7458134 0.1208679
H -1.5999757 2.720133 -0.85538316
H -1.7046639 2.7732935 0.9175451
H -2.1996553 0.49477404 0.07848315
H -1.1811143 -1.5622926 -0.8713855
H 0.13411137 -1.2706552 -2.0440085
H 0.85766363 -2.4307857 0.13301378
H 2.0476458 0.015342277 -0.5342712
H 0.88660884 -1.0414392 2.223112
H -0.7939726 0.75151455 2.2954123
