20
title
C -1.6300262 1.8332661 0.03751695
C -1.5588061 0.29612947 0.02060499
C -0.8170077 -0.23242174 -1.214914
O 0.5807576 -0.023305409 -1.1009035
C 1.1748023 -0.7910528 -0.06265754
C 2.58676 -0.24524044 0.13893938
C 0.35840204 -0.753193 1.2050722
C -0.8709464 -0.24534206 1.2504369
H -0.624229 2.2540324 -0.048966713
H -2.2341852 2.2071643 -0.7963137
H -2.074215 2.201636 0.967756
H -2.5852096 -0.096799396 -0.0075610545
H -1.0324938 -1.3049191 -1.3505242
H -1.1300757 0.29393074 -2.1222234
H 1.2545242 -1.8441669 -0.39709476
H 2.546526 0.788597 0.49357855
H 3.130783 -0.8470427 0.8731627
H 3.13445 -0.2688155 -0.80688864
H 0.8297112 -1.1667247 2.0934966
H -1.4153398 -0.20435812 2.1911085
