22
title
C -1.8321171 1.5444658 0.0083993105
C -1.6234112 0.024487449 -0.034694735
C -0.90222925 -0.4480324 -1.3139415
C 0.59128654 -0.08465912 -1.2907141
C 1.2428967 -0.5406687 0.0207257
C 2.6870894 -0.08498333 0.16567498
O 0.5276643 -0.02480364 1.140509
C -0.81940186 -0.46435148 1.1797484
H -0.87828976 2.0735078 0.08300317
H -2.351178 1.8989025 -0.8882791
H -2.4339707 1.8297422 0.8779366
H -2.6081815 -0.45991254 0.0056217415
H -0.9995457 -1.5394437 -1.3909023
H -1.3856788 -0.028766429 -2.2036324
H 1.1092571 -0.54755497 -2.138878
H 0.72531116 0.9994148 -1.3894471
H 1.2044038 -1.6456577 0.061770566
H 2.7460804 1.0077304 0.13897516
H 3.1021814 -0.42602816 1.1178912
H 3.3007998 -0.4854635 -0.6469873
H -1.2385576 -0.07537605 2.1136103
H -0.8524002 -1.5670409 1.2280984
