title
 OpenBabel02282109593D

 20 20  0  0  1  0  0  0  0  0999 V2000
   -0.6976    2.7439    0.0322 C   0  0  0  0  0  0  0  0  0  0  0  0
   -0.6403    1.2279   -0.0732 C   0  0  1  0  0  0  0  0  0  0  0  0
    0.0918    0.7292   -1.3246 C   0  0  0  0  0  0  0  0  0  0  0  0
    0.3979   -0.7406   -1.2105 C   0  0  0  0  0  0  0  0  0  0  0  0
    0.3343   -1.3956   -0.0511 C   0  0  0  0  0  0  0  0  0  0  0  0
    0.5837   -2.8698    0.0943 C   0  0  0  0  0  0  0  0  0  0  0  0
   -0.0145   -0.6531    1.2176 C   0  0  0  0  0  0  0  0  0  0  0  0
    0.0213    0.7523    1.0945 O   0  0  0  0  0  0  0  0  0  0  0  0
    0.3141    3.1573    0.0916 H   0  0  0  0  0  0  0  0  0  0  0  0
   -1.1978    3.1725   -0.8417 H   0  0  0  0  0  0  0  0  0  0  0  0
   -1.2435    3.0455    0.9301 H   0  0  0  0  0  0  0  0  0  0  0  0
   -1.6677    0.8227   -0.0905 H   0  0  0  0  0  0  0  0  0  0  0  0
   -0.5267    0.9209   -2.2113 H   0  0  0  0  0  0  0  0  0  0  0  0
    1.0171    1.3067   -1.4669 H   0  0  0  0  0  0  0  0  0  0  0  0
    0.6712   -1.2725   -2.1194 H   0  0  0  0  0  0  0  0  0  0  0  0
    0.7942   -3.3364   -0.8716 H   0  0  0  0  0  0  0  0  0  0  0  0
    1.4322   -3.0686    0.7620 H   0  0  0  0  0  0  0  0  0  0  0  0
   -0.2836   -3.3801    0.5339 H   0  0  0  0  0  0  0  0  0  0  0  0
   -1.0079   -0.9871    1.5754 H   0  0  0  0  0  0  0  0  0  0  0  0
    0.7014   -0.9064    2.0101 H   0  0  0  0  0  0  0  0  0  0  0  0
  1  9  1  0  0  0  0
  1 11  1  0  0  0  0
  2 12  1  6  0  0  0
  2  1  1  0  0  0  0
  2  8  1  0  0  0  0
  3  4  1  0  0  0  0
  3  2  1  0  0  0  0
  4  5  2  0  0  0  0
  5  6  1  0  0  0  0
  5  7  1  0  0  0  0
  6 18  1  0  0  0  0
  6 17  1  0  0  0  0
  7 19  1  0  0  0  0
  7 20  1  0  0  0  0
  8  7  1  0  0  0  0
 10  1  1  0  0  0  0
 13  3  1  0  0  0  0
 14  3  1  0  0  0  0
 15  4  1  0  0  0  0
 16  6  1  0  0  0  0
M  END
