title
 OpenBabel02282109593D

 18 18  0  0  1  0  0  0  0  0999 V2000
   -1.1418    2.3671    0.0720 C   0  0  0  0  0  0  0  0  0  0  0  0
   -1.1480    0.8412    0.1083 C   0  0  1  0  0  0  0  0  0  0  0  0
   -0.4871    0.3925   -1.0692 O   0  0  0  0  0  0  0  0  0  0  0  0
   -0.2461   -1.0074   -1.0535 C   0  0  0  0  0  0  0  0  0  0  0  0
    0.7948   -1.3428    0.0143 C   0  0  1  0  0  0  0  0  0  0  0  0
    2.1028   -0.9364   -0.3853 O   0  0  0  0  0  0  0  0  0  0  0  0
    0.3950   -0.6944    1.3188 C   0  0  0  0  0  0  0  0  0  0  0  0
   -0.4981    0.2927    1.3547 C   0  0  0  0  0  0  0  0  0  0  0  0
   -0.1167    2.7458    0.1209 H   0  0  0  0  0  0  0  0  0  0  0  0
   -1.6000    2.7201   -0.8554 H   0  0  0  0  0  0  0  0  0  0  0  0
   -1.7047    2.7733    0.9175 H   0  0  0  0  0  0  0  0  0  0  0  0
   -2.1997    0.4948    0.0785 H   0  0  0  0  0  0  0  0  0  0  0  0
   -1.1811   -1.5623   -0.8714 H   0  0  0  0  0  0  0  0  0  0  0  0
    0.1341   -1.2707   -2.0440 H   0  0  0  0  0  0  0  0  0  0  0  0
    0.8577   -2.4308    0.1330 H   0  0  0  0  0  0  0  0  0  0  0  0
    2.0476    0.0153   -0.5343 H   0  0  0  0  0  0  0  0  0  0  0  0
    0.8866   -1.0414    2.2231 H   0  0  0  0  0  0  0  0  0  0  0  0
   -0.7940    0.7515    2.2954 H   0  0  0  0  0  0  0  0  0  0  0  0
  1  2  1  0  0  0  0
  1  9  1  0  0  0  0
  1 11  1  0  0  0  0
  2 12  1  6  0  0  0
  2  8  1  0  0  0  0
  3  4  1  0  0  0  0
  3  2  1  0  0  0  0
  4 13  1  0  0  0  0
  4  5  1  0  0  0  0
  5 15  1  1  0  0  0
  5  7  1  0  0  0  0
  6  5  1  0  0  0  0
  7  8  2  0  0  0  0
  7 17  1  0  0  0  0
  8 18  1  0  0  0  0
 10  1  1  0  0  0  0
 14  4  1  0  0  0  0
 16  6  1  0  0  0  0
M  END
