20
title
O 0.3538905 2.4870355 -0.7926596
C 0.4510403 1.0686244 -0.7869786
C 1.1949881 0.54565865 0.44796917
C 1.192437 -0.9906652 0.50092554
C -0.23493354 -1.5610621 0.44219646
O -0.94860476 -1.3287191 1.6547679
C -0.98861235 -1.0164099 -0.7824533
C -0.9741979 0.51942664 -0.8345422
H 1.2444826 2.846465 -0.72601515
H 0.98627543 0.7215163 -1.6892323
H 2.2260585 0.92201877 0.45363483
H 0.7122957 0.9627186 1.3423744
H 1.7647642 -1.3869708 -0.34831724
H 1.683197 -1.3447304 1.4127747
H -0.17887704 -2.6526208 0.37096295
H -1.0890225 -0.38133493 1.7481333
H -0.51852965 -1.4167049 -1.6903342
H -2.0178277 -1.388288 -0.7642592
H -1.5317595 0.94271797 0.012596822
H -1.4763675 0.8825581 -1.7365376
