20
title
C -0.92527604 2.5179334 0.05390325
C -0.91413534 1.0000291 -0.038971115
C -0.26135832 0.47342557 -1.3237699
C -0.11621726 -1.0566548 -1.2866473
C 0.54136074 -1.5016919 0.030264786
O 1.9034228 -1.0971967 0.09704493
C -0.23379105 -0.9023116 1.2045538
O -0.21412963 0.51634866 1.113263
H 0.096372955 2.9097903 0.021790704
H -1.4869772 2.9495606 -0.77989364
H -1.3864816 2.8411932 0.9908286
H -1.9516113 0.6228664 0.009926983
H -0.85066396 0.78671056 -2.1925929
H 0.729023 0.93400544 -1.4284947
H -1.1047286 -1.5285751 -1.367162
H 0.48292887 -1.4092299 -2.1314852
H 0.5385263 -2.5953984 0.10200818
H 1.8958325 -0.18198162 0.4034242
H -1.270429 -1.2765063 1.2218817
H 0.247702 -1.1572043 2.1529908
