title
 OpenBabel02282109593D

 15 16  0  0  1  0  0  0  0  0999 V2000
    0.0719    2.1377   -0.1779 C   0  0  0  0  0  0  0  0  0  0  0  0
   -0.0159    0.6475   -0.0989 C   0  0  1  0  0  0  0  0  0  0  0  0
    0.6293   -0.2931   -1.1445 N   0  0  0  0  0  0  0  0  0  0  0  0
    0.0197   -1.2732   -0.1354 C   0  0  1  0  0  0  0  0  0  0  0  0
    0.6295   -0.3311    0.9532 C   0  0  1  0  0  0  0  0  0  0  0  0
    2.0100   -0.2964    1.0894 O   0  0  0  0  0  0  0  0  0  0  0  0
   -1.2004   -0.3363   -0.1555 C   0  0  0  0  0  0  0  0  0  0  0  0
   -2.3806   -0.3506   -0.3316 O   0  0  0  0  0  0  0  0  0  0  0  0
    1.1130    2.4656   -0.0990 H   0  0  0  0  0  0  0  0  0  0  0  0
   -0.3435    2.5134   -1.1181 H   0  0  0  0  0  0  0  0  0  0  0  0
   -0.4930    2.5889    0.6436 H   0  0  0  0  0  0  0  0  0  0  0  0
    0.1072   -0.2884   -2.0244 H   0  0  0  0  0  0  0  0  0  0  0  0
    0.1150   -2.3503   -0.2517 H   0  0  0  0  0  0  0  0  0  0  0  0
    0.1802   -0.3592    1.9462 H   0  0  0  0  0  0  0  0  0  0  0  0
    2.3612   -0.2917    0.1865 H   0  0  0  0  0  0  0  0  0  0  0  0
  1  9  1  0  0  0  0
  1  2  1  0  0  0  0
  1 11  1  0  0  0  0
  2  5  1  1  0  0  0
  3  4  1  0  0  0  0
  3  2  1  0  0  0  0
  4  5  1  1  0  0  0
  5  6  1  0  0  0  0
  5 14  1  1  0  0  0
  7  4  1  0  0  0  0
  7  2  1  0  0  0  0
  8  7  2  0  0  0  0
 10  1  1  0  0  0  0
 12  3  1  0  0  0  0
 13  4  1  0  0  0  0
 15  6  1  0  0  0  0
M  END
