title
 OpenBabel02282109593D

 16 17  0  0  1  0  0  0  0  0999 V2000
    0.0203    2.1510   -0.1254 C   0  0  0  0  0  0  0  0  0  0  0  0
    0.0044    0.6515   -0.1574 C   0  0  1  0  0  0  0  0  0  0  0  0
    0.5616   -0.3236   -1.2719 C   0  0  0  0  0  0  0  0  0  0  0  0
    0.0023   -1.3115   -0.1888 C   0  0  1  0  0  0  0  0  0  0  0  0
    0.6477   -0.3395    0.8710 C   0  0  1  0  0  0  0  0  0  0  0  0
    2.0463   -0.2460    0.9390 O   0  0  0  0  0  0  0  0  0  0  0  0
   -1.1739   -0.3344   -0.1358 C   0  0  0  0  0  0  0  0  0  0  0  0
   -2.3675   -0.3280   -0.1283 O   0  0  0  0  0  0  0  0  0  0  0  0
    1.0462    2.5311   -0.0963 H   0  0  0  0  0  0  0  0  0  0  0  0
   -0.4733    2.5651   -1.0101 H   0  0  0  0  0  0  0  0  0  0  0  0
   -0.5072    2.5261    0.7577 H   0  0  0  0  0  0  0  0  0  0  0  0
    0.0609   -0.3088   -2.2410 H   0  0  0  0  0  0  0  0  0  0  0  0
    1.6458   -0.3207   -1.3586 H   0  0  0  0  0  0  0  0  0  0  0  0
    0.0084   -2.3989   -0.2003 H   0  0  0  0  0  0  0  0  0  0  0  0
    0.1990   -0.3559    1.8718 H   0  0  0  0  0  0  0  0  0  0  0  0
    2.3766   -1.0084    1.4243 H   0  0  0  0  0  0  0  0  0  0  0  0
  1  9  1  0  0  0  0
  1 11  1  0  0  0  0
  2  7  1  0  0  0  0
  2  1  1  0  0  0  0
  2  5  1  1  0  0  0
  3  4  1  0  0  0  0
  3  2  1  0  0  0  0
  4  7  1  0  0  0  0
  4  5  1  1  0  0  0
  5  6  1  0  0  0  0
  5 15  1  1  0  0  0
  6 16  1  0  0  0  0
  7  8  2  0  0  0  0
 10  1  1  0  0  0  0
 12  3  1  0  0  0  0
 13  3  1  0  0  0  0
 14  4  1  0  0  0  0
M  END
