title
 OpenBabel02282109593D

 20 20  0  0  1  0  0  0  0  0999 V2000
   -1.7532    1.5830    0.0159 C   0  0  0  0  0  0  0  0  0  0  0  0
   -1.5979    0.0579    0.0069 C   0  0  1  0  0  0  0  0  0  0  0  0
   -0.8343   -0.4343   -1.2329 C   0  0  0  0  0  0  0  0  0  0  0  0
    0.5349   -0.0555   -1.1689 O   0  0  0  0  0  0  0  0  0  0  0  0
    1.1594   -0.5539   -0.0078 C   0  0  1  0  0  0  0  0  0  0  0  0
    2.6040   -0.1045   -0.0113 C   0  0  0  0  0  0  0  0  0  0  0  0
    0.5445   -0.0682    1.1638 O   0  0  0  0  0  0  0  0  0  0  0  0
   -0.8241   -0.4478    1.2349 C   0  0  0  0  0  0  0  0  0  0  0  0
   -0.7742    2.0676    0.0148 H   0  0  0  0  0  0  0  0  0  0  0  0
   -2.3049    1.9269   -0.8652 H   0  0  0  0  0  0  0  0  0  0  0  0
   -2.2981    1.9172    0.9049 H   0  0  0  0  0  0  0  0  0  0  0  0
   -2.5902   -0.4123    0.0084 H   0  0  0  0  0  0  0  0  0  0  0  0
   -0.9135   -1.5321   -1.3119 H   0  0  0  0  0  0  0  0  0  0  0  0
   -1.2329    0.0017   -2.1535 H   0  0  0  0  0  0  0  0  0  0  0  0
    1.0795   -1.6605   -0.0135 H   0  0  0  0  0  0  0  0  0  0  0  0
    2.6454    0.9875   -0.0056 H   0  0  0  0  0  0  0  0  0  0  0  0
    3.1152   -0.4849    0.8758 H   0  0  0  0  0  0  0  0  0  0  0  0
    3.1079   -0.4754   -0.9065 H   0  0  0  0  0  0  0  0  0  0  0  0
   -1.2151   -0.0218    2.1634 H   0  0  0  0  0  0  0  0  0  0  0  0
   -0.9028   -1.5464    1.3025 H   0  0  0  0  0  0  0  0  0  0  0  0
  1 11  1  0  0  0  0
  2 12  1  1  0  0  0
  2  1  1  0  0  0  0
  2  8  1  0  0  0  0
  3  4  1  0  0  0  0
  3  2  1  0  0  0  0
  4  5  1  0  0  0  0
  5 15  1  6  0  0  0
  5  7  1  0  0  0  0
  6  5  1  0  0  0  0
  6 16  1  0  0  0  0
  6 17  1  0  0  0  0
  7  8  1  0  0  0  0
  8 20  1  0  0  0  0
  8 19  1  0  0  0  0
  9  1  1  0  0  0  0
 10  1  1  0  0  0  0
 13  3  1  0  0  0  0
 14  3  1  0  0  0  0
 18  6  1  0  0  0  0
M  END
