title
 OpenBabel02282109593D

 22 22  0  0  1  0  0  0  0  0999 V2000
   -0.9978    2.6187    0.0216 C   0  0  0  0  0  0  0  0  0  0  0  0
   -0.9357    1.0888    0.0039 C   0  0  1  0  0  0  0  0  0  0  0  0
   -0.2284    0.5608   -1.2565 C   0  0  0  0  0  0  0  0  0  0  0  0
   -0.1497   -0.9737   -1.2781 C   0  0  0  0  0  0  0  0  0  0  0  0
    0.5186   -1.5363   -0.0133 C   0  0  1  0  0  0  0  0  0  0  0  0
    1.9230   -1.2816    0.0035 O   0  0  0  0  0  0  0  0  0  0  0  0
   -0.1745   -1.0040    1.2513 C   0  0  0  0  0  0  0  0  0  0  0  0
   -0.2531    0.5306    1.2649 C   0  0  0  0  0  0  0  0  0  0  0  0
    0.0098    3.0517    0.0366 H   0  0  0  0  0  0  0  0  0  0  0  0
   -1.5115    3.0078   -0.8641 H   0  0  0  0  0  0  0  0  0  0  0  0
   -1.5289    2.9866    0.9061 H   0  0  0  0  0  0  0  0  0  0  0  0
   -1.9673    0.7042   -0.0109 H   0  0  0  0  0  0  0  0  0  0  0  0
   -0.7403    0.9221   -2.1560 H   0  0  0  0  0  0  0  0  0  0  0  0
    0.7856    0.9873   -1.3029 H   0  0  0  0  0  0  0  0  0  0  0  0
   -1.1647   -1.3865   -1.3514 H   0  0  0  0  0  0  0  0  0  0  0  0
    0.4029   -1.3202   -2.1576 H   0  0  0  0  0  0  0  0  0  0  0  0
    0.4481   -2.6294   -0.0271 H   0  0  0  0  0  0  0  0  0  0  0  0
    2.0566   -0.3288    0.0161 H   0  0  0  0  0  0  0  0  0  0  0  0
   -1.1907   -1.4182    1.2947 H   0  0  0  0  0  0  0  0  0  0  0  0
    0.3608   -1.3716    2.1329 H   0  0  0  0  0  0  0  0  0  0  0  0
    0.7597    0.9557    1.3413 H   0  0  0  0  0  0  0  0  0  0  0  0
   -0.7827    0.8704    2.1625 H   0  0  0  0  0  0  0  0  0  0  0  0
  1  9  1  0  0  0  0
  1 11  1  0  0  0  0
  2 12  1  6  0  0  0
  2  1  1  0  0  0  0
  2  8  1  0  0  0  0
  3  2  1  0  0  0  0
  4  3  1  0  0  0  0
  4  5  1  0  0  0  0
  5 17  1  6  0  0  0
  5  6  1  0  0  0  0
  5  7  1  0  0  0  0
  6 18  1  0  0  0  0
  7  8  1  0  0  0  0
  7 19  1  0  0  0  0
  7 20  1  0  0  0  0
  8 21  1  0  0  0  0
  8 22  1  0  0  0  0
 10  1  1  0  0  0  0
 13  3  1  0  0  0  0
 14  3  1  0  0  0  0
 15  4  1  0  0  0  0
 16  4  1  0  0  0  0
M  END
