18
title
C -0.91430795 2.4468005 0.02462167
C -0.8905144 0.93493253 0.00081905373
O -0.20609848 0.5162223 -1.1605073
C -0.15473776 -0.9049978 -1.2577037
C 0.5373407 -1.4770257 -0.015103498
O 1.9056348 -1.1134114 0.012434638
C -0.19412284 -0.9446795 1.2225634
O -0.24313323 0.47894263 1.1693242
H 0.10922333 2.8292873 0.04622385
H -1.416152 2.8258832 -0.86823946
H -1.4431293 2.797341 0.91356355
H -1.9147543 0.5126239 -0.02222405
H -1.1712742 -1.3190947 -1.3617547
H 0.4179997 -1.1372142 -2.1582036
H 0.50242215 -2.5719097 -0.03316316
H 1.9227718 -0.14854583 0.02815245
H -1.2132318 -1.3614008 1.2809919
H 0.34986612 -1.2058771 2.1328957
