20
title
C -1.7532296 1.5829612 0.015861465
C -1.5978522 0.05793659 0.006871144
C -0.83426726 -0.43432176 -1.2328789
O 0.53490007 -0.05551933 -1.1688812
C 1.159438 -0.55393153 -0.007783453
C 2.6039543 -0.10446062 -0.011268514
O 0.54447305 -0.06821139 1.1637571
C -0.82413614 -0.44777277 1.2348766
H -0.7741566 2.067613 0.01475992
H -2.3049436 1.9269242 -0.8651757
H -2.2981253 1.9171593 0.90486425
H -2.5901823 -0.41231507 0.008371044
H -0.9135278 -1.5321447 -1.3118573
H -1.2328774 0.0017035928 -2.1534688
H 1.0794536 -1.6605006 -0.013475104
H 2.6454282 0.9874678 -0.0055771787
H 3.1151657 -0.4849331 0.87578994
H 3.1078901 -0.4753604 -0.906507
H -1.2151492 -0.021828571 2.1634095
H -0.90277404 -1.5463946 1.3025368
