22
title
C -0.99781793 2.6186693 0.02155629
C -0.9356582 1.088843 0.0038535274
C -0.22835042 0.56080556 -1.2565144
C -0.14969547 -0.9737343 -1.2781463
C 0.5185709 -1.536327 -0.013301026
O 1.9229989 -1.2815574 0.0035373666
C -0.17451937 -1.0040122 1.2512915
C -0.25308427 0.5306238 1.2648537
H 0.009786526 3.0516639 0.0366274
H -1.5114882 3.007796 -0.8641266
H -1.5288582 2.9866045 0.906051
H -1.9672512 0.70418257 -0.0108716935
H -0.74031657 0.92206556 -2.1559618
H 0.7856029 0.9873394 -1.302895
H -1.1646947 -1.386546 -1.3513576
H 0.40291795 -1.3202494 -2.1576273
H 0.44808027 -2.6294057 -0.027078018
H 2.0566003 -0.32883233 0.016094273
H -1.1906638 -1.4182178 1.2946721
H 0.36081466 -1.3716091 2.1328979
H 0.759671 0.9556694 1.3412997
H -0.78267455 0.87038237 2.1624732
