title
 OpenBabel02282109593D

 20 20  0  0  1  0  0  0  0  0999 V2000
   -1.0614    2.4552    0.0626 C   0  0  0  0  0  0  0  0  0  0  0  0
   -0.9646    0.9398    0.0127 C   0  0  1  0  0  0  0  0  0  0  0  0
   -0.2524    0.4277   -1.2399 C   0  0  0  0  0  0  0  0  0  0  0  0
   -0.0662   -0.9788   -1.1963 O   0  0  0  0  0  0  0  0  0  0  0  0
    0.6002   -1.4340   -0.0153 C   0  0  1  0  0  0  0  0  0  0  0  0
    2.0903   -1.0800   -0.0100 C   0  0  0  0  0  0  0  0  0  0  0  0
   -0.1413   -0.9017    1.2147 C   0  0  0  0  0  0  0  0  0  0  0  0
   -0.2483    0.5119    1.1698 O   0  0  0  0  0  0  0  0  0  0  0  0
   -0.0640    2.9051    0.0376 H   0  0  0  0  0  0  0  0  0  0  0  0
   -1.6367    2.8343   -0.7875 H   0  0  0  0  0  0  0  0  0  0  0  0
   -1.5548    2.7717    0.9852 H   0  0  0  0  0  0  0  0  0  0  0  0
   -1.9746    0.4941    0.0391 H   0  0  0  0  0  0  0  0  0  0  0  0
   -0.8527    0.6264   -2.1335 H   0  0  0  0  0  0  0  0  0  0  0  0
    0.7087    0.9539   -1.3508 H   0  0  0  0  0  0  0  0  0  0  0  0
    0.4911   -2.5243   -0.0464 H   0  0  0  0  0  0  0  0  0  0  0  0
    2.2498   -0.0156    0.1800 H   0  0  0  0  0  0  0  0  0  0  0  0
    2.6057   -1.6396    0.7774 H   0  0  0  0  0  0  0  0  0  0  0  0
    2.5427   -1.3411   -0.9705 H   0  0  0  0  0  0  0  0  0  0  0  0
   -1.1450   -1.3547    1.2577 H   0  0  0  0  0  0  0  0  0  0  0  0
    0.3937   -1.1500    2.1367 H   0  0  0  0  0  0  0  0  0  0  0  0
  1 11  1  0  0  0  0
  2 12  1  1  0  0  0
  2  1  1  0  0  0  0
  2  8  1  0  0  0  0
  3  4  1  0  0  0  0
  3  2  1  0  0  0  0
  4  5  1  0  0  0  0
  5 15  1  1  0  0  0
  5  6  1  0  0  0  0
  5  7  1  0  0  0  0
  6 16  1  0  0  0  0
  6 17  1  0  0  0  0
  7 19  1  0  0  0  0
  7 20  1  0  0  0  0
  8  7  1  0  0  0  0
  9  1  1  0  0  0  0
 10  1  1  0  0  0  0
 13  3  1  0  0  0  0
 14  3  1  0  0  0  0
 18  6  1  0  0  0  0
M  END
