title
 OpenBabel02282109593D

 22 23  0  0  1  0  0  0  0  0999 V2000
   -0.7539    2.2678   -0.3446 C   0  0  0  0  0  0  0  0  0  0  0  0
   -0.6225    0.7509   -0.3928 C   0  0  1  0  0  0  0  0  0  0  0  0
    0.5067    0.0400   -1.2051 C   0  0  1  0  0  0  0  0  0  0  0  0
    1.5041    0.4612   -0.0899 C   0  0  0  0  0  0  0  0  0  0  0  0
    0.2318   -0.0426    0.6624 C   0  0  1  0  0  0  0  0  0  0  0  0
    0.0151   -0.1095    2.1522 C   0  0  0  0  0  0  0  0  0  0  0  0
    0.2445   -1.2435   -0.3522 C   0  0  1  0  0  0  0  0  0  0  0  0
   -0.9589   -2.1505   -0.5703 C   0  0  0  0  0  0  0  0  0  0  0  0
    0.1924    2.7915   -0.1898 H   0  0  0  0  0  0  0  0  0  0  0  0
   -1.1863    2.6414   -1.2799 H   0  0  0  0  0  0  0  0  0  0  0  0
   -1.4311    2.5664    0.4642 H   0  0  0  0  0  0  0  0  0  0  0  0
   -1.6175    0.3278   -0.5553 H   0  0  0  0  0  0  0  0  0  0  0  0
    0.6709    0.0879   -2.2837 H   0  0  0  0  0  0  0  0  0  0  0  0
    2.4011   -0.1567    0.0171 H   0  0  0  0  0  0  0  0  0  0  0  0
    1.7554    1.5189   -0.0058 H   0  0  0  0  0  0  0  0  0  0  0  0
    0.0495    0.8884    2.6037 H   0  0  0  0  0  0  0  0  0  0  0  0
   -0.9595   -0.5498    2.3919 H   0  0  0  0  0  0  0  0  0  0  0  0
    0.7857   -0.7202    2.6362 H   0  0  0  0  0  0  0  0  0  0  0  0
    1.1424   -1.8651   -0.2459 H   0  0  0  0  0  0  0  0  0  0  0  0
   -1.9010   -1.6159   -0.7127 H   0  0  0  0  0  0  0  0  0  0  0  0
   -0.8030   -2.7794   -1.4541 H   0  0  0  0  0  0  0  0  0  0  0  0
   -1.0887   -2.8235    0.2852 H   0  0  0  0  0  0  0  0  0  0  0  0
  1  9  1  0  0  0  0
  1 11  1  0  0  0  0
  2  3  1  6  0  0  0
  2  1  1  0  0  0  0
  3 13  1  6  0  0  0
  3  4  1  0  0  0  0
  4 15  1  0  0  0  0
  4 14  1  0  0  0  0
  4  5  1  0  0  0  0
  5  2  1  6  0  0  0
  5  6  1  0  0  0  0
  6 17  1  0  0  0  0
  6 16  1  0  0  0  0
  6 18  1  0  0  0  0
  7  3  1  6  0  0  0
  7 19  1  0  0  0  0
  7  5  1  0  0  0  0
  8  7  1  0  0  0  0
  8 22  1  0  0  0  0
 10  1  1  0  0  0  0
 12  2  1  0  0  0  0
 20  8  1  0  0  0  0
 21  8  1  0  0  0  0
M  END
