title
 OpenBabel02282109593D

 20 21  0  0  1  0  0  0  0  0999 V2000
   -0.8158    2.2316   -0.4844 C   0  0  0  0  0  0  0  0  0  0  0  0
   -0.6248    0.7211   -0.4478 C   0  0  1  0  0  0  0  0  0  0  0  0
    0.5566    0.0128   -1.1893 C   0  0  1  0  0  0  0  0  0  0  0  0
    1.4940    0.5085   -0.0534 C   0  0  0  0  0  0  0  0  0  0  0  0
    0.2116    0.0150    0.6844 C   0  0  1  0  0  0  0  0  0  0  0  0
   -0.0693    0.0066    2.1630 C   0  0  0  0  0  0  0  0  0  0  0  0
    0.3010   -1.2240   -0.2738 C   0  0  1  0  0  0  0  0  0  0  0  0
   -0.7775   -2.0962   -0.4625 O   0  0  0  0  0  0  0  0  0  0  0  0
    0.1079    2.7942   -0.3310 H   0  0  0  0  0  0  0  0  0  0  0  0
   -1.2316    2.5400   -1.4501 H   0  0  0  0  0  0  0  0  0  0  0  0
   -1.5259    2.5456    0.2891 H   0  0  0  0  0  0  0  0  0  0  0  0
   -1.6070    0.2614   -0.6237 H   0  0  0  0  0  0  0  0  0  0  0  0
    0.7609    0.0156   -2.2612 H   0  0  0  0  0  0  0  0  0  0  0  0
    2.4040   -0.0752    0.1164 H   0  0  0  0  0  0  0  0  0  0  0  0
    1.7099    1.5753   -0.0167 H   0  0  0  0  0  0  0  0  0  0  0  0
   -0.1410    1.0229    2.5660 H   0  0  0  0  0  0  0  0  0  0  0  0
   -1.0132   -0.5081    2.3751 H   0  0  0  0  0  0  0  0  0  0  0  0
    0.7236   -0.5152    2.7102 H   0  0  0  0  0  0  0  0  0  0  0  0
    1.1711   -1.8658   -0.1103 H   0  0  0  0  0  0  0  0  0  0  0  0
   -1.5680   -1.5890   -0.6722 H   0  0  0  0  0  0  0  0  0  0  0  0
  1  2  1  0  0  0  0
  1  9  1  0  0  0  0
  1 11  1  0  0  0  0
  2  3  1  6  0  0  0
  3  7  1  1  0  0  0
  3  4  1  0  0  0  0
  4 15  1  0  0  0  0
  4 14  1  0  0  0  0
  4  5  1  0  0  0  0
  5  2  1  6  0  0  0
  5  6  1  0  0  0  0
  6 17  1  0  0  0  0
  6 16  1  0  0  0  0
  6 18  1  0  0  0  0
  7 19  1  0  0  0  0
  7  5  1  1  0  0  0
  8  7  1  0  0  0  0
 10  1  1  0  0  0  0
 12  2  1  0  0  0  0
 13  3  1  0  0  0  0
 20  8  1  0  0  0  0
M  END
