title
 OpenBabel02282109593D

 17 18  0  0  1  0  0  0  0  0999 V2000
    0.0123    2.1182   -0.3579 C   0  0  0  0  0  0  0  0  0  0  0  0
   -0.0233    0.6215   -0.2901 C   0  0  1  0  0  0  0  0  0  0  0  0
    0.6554   -0.2719   -1.3325 N   0  0  0  0  0  0  0  0  0  0  0  0
    0.0391   -1.2395   -0.3374 C   0  0  1  0  0  0  0  0  0  0  0  0
    0.6476   -0.3269    0.7667 C   0  0  1  0  0  0  0  0  0  0  0  0
    2.0275   -0.2745    0.9138 O   0  0  0  0  0  0  0  0  0  0  0  0
   -1.2329   -0.3412   -0.3095 C   0  0  1  0  0  0  0  0  0  0  0  0
   -2.0814   -0.2966    0.8078 O   0  0  0  0  0  0  0  0  0  0  0  0
    1.0415    2.4775   -0.2613 H   0  0  0  0  0  0  0  0  0  0  0  0
   -0.3965    2.4887   -1.3043 H   0  0  0  0  0  0  0  0  0  0  0  0
   -0.5792    2.5443    0.4585 H   0  0  0  0  0  0  0  0  0  0  0  0
    0.1174   -0.2658   -2.2054 H   0  0  0  0  0  0  0  0  0  0  0  0
    0.1250   -2.3198   -0.4656 H   0  0  0  0  0  0  0  0  0  0  0  0
    0.1829   -0.3661    1.7491 H   0  0  0  0  0  0  0  0  0  0  0  0
    2.3749   -0.2534    0.0096 H   0  0  0  0  0  0  0  0  0  0  0  0
   -1.7889   -0.3376   -1.2590 H   0  0  0  0  0  0  0  0  0  0  0  0
   -2.6885   -1.0419    0.7629 H   0  0  0  0  0  0  0  0  0  0  0  0
  1  2  1  0  0  0  0
  1  9  1  0  0  0  0
  1 11  1  0  0  0  0
  2  7  1  6  0  0  0
  2  5  1  0  0  0  0
  3  4  1  0  0  0  0
  3  2  1  0  0  0  0
  4 13  1  6  0  0  0
  5  4  1  6  0  0  0
  5  6  1  0  0  0  0
  5 14  1  0  0  0  0
  7  4  1  1  0  0  0
  7  8  1  0  0  0  0
 10  1  1  0  0  0  0
 12  3  1  0  0  0  0
 15  6  1  0  0  0  0
 16  7  1  0  0  0  0
 17  8  1  0  0  0  0
M  END
