title
 OpenBabel02282109593D

 16 17  0  0  1  0  0  0  0  0999 V2000
    0.0367    2.1030   -0.3759 C   0  0  0  0  0  0  0  0  0  0  0  0
   -0.0372    0.6173   -0.2476 C   0  0  1  0  0  0  0  0  0  0  0  0
    0.5956   -0.2294   -1.3145 O   0  0  0  0  0  0  0  0  0  0  0  0
    0.0501   -1.2070   -0.3392 C   0  0  1  0  0  0  0  0  0  0  0  0
    0.6406   -0.3326    0.7982 C   0  0  1  0  0  0  0  0  0  0  0  0
    2.0216   -0.2627    0.9243 O   0  0  0  0  0  0  0  0  0  0  0  0
   -1.2424   -0.3429   -0.3173 C   0  0  1  0  0  0  0  0  0  0  0  0
   -2.1010   -0.3388    0.7885 O   0  0  0  0  0  0  0  0  0  0  0  0
    1.0691    2.4458   -0.2566 H   0  0  0  0  0  0  0  0  0  0  0  0
   -0.3341    2.4300   -1.3519 H   0  0  0  0  0  0  0  0  0  0  0  0
   -0.5736    2.5695    0.4036 H   0  0  0  0  0  0  0  0  0  0  0  0
    0.1930   -2.2641   -0.5659 H   0  0  0  0  0  0  0  0  0  0  0  0
    0.1884   -0.4024    1.7865 H   0  0  0  0  0  0  0  0  0  0  0  0
    2.3557   -0.2192    0.0164 H   0  0  0  0  0  0  0  0  0  0  0  0
   -1.7564   -0.3212   -1.2841 H   0  0  0  0  0  0  0  0  0  0  0  0
   -2.7545   -1.0352    0.6721 H   0  0  0  0  0  0  0  0  0  0  0  0
  1  9  1  0  0  0  0
  1  2  1  0  0  0  0
  1 11  1  0  0  0  0
  2  7  1  1  0  0  0
  2  5  1  0  0  0  0
  3  4  1  0  0  0  0
  3  2  1  0  0  0  0
  4 12  1  6  0  0  0
  5  4  1  6  0  0  0
  5  6  1  0  0  0  0
  5 13  1  0  0  0  0
  7  4  1  1  0  0  0
  7  8  1  0  0  0  0
 10  1  1  0  0  0  0
 14  6  1  0  0  0  0
 15  7  1  0  0  0  0
 16  8  1  0  0  0  0
M  END
