17
title
C -0.040189195 1.6055784 -1.3046191
N -0.05272216 0.1471524 -1.1536266
C -1.2063088 -0.4883897 -0.39178333
C -0.26528803 -1.7025555 -0.19235942
C 0.6444168 -0.46733245 0.07029084
C 2.1224046 -0.3928545 0.29592887
C -0.55020773 0.13046327 0.86692756
O -0.7787671 0.8724958 1.7720655
H 0.94770557 1.9070163 -1.6656638
H -0.7726798 1.8775626 -2.070528
H -0.26650095 2.1710865 -0.38808677
H -2.2272713 -0.46198353 -0.7672389
H -0.4678333 -2.3693864 0.6471196
H -0.028740559 -2.2237573 -1.121395
H 2.6700146 -0.8355496 -0.5416507
H 2.448627 0.64521474 0.41518942
H 2.3914099 -0.93309313 1.208681
