19
title
C -0.0031194577 1.697564 -1.1823355
N 0.009774901 0.23444049 -1.1227742
C -1.1396836 -0.5237106 -0.49623516
C -0.17398416 -1.7373818 -0.4702424
C 0.6189225 -0.5067852 0.06697503
C 2.0692 -0.3967553 0.43652132
C -0.6310608 -0.2205398 0.95319355
O -0.7225251 1.0520517 1.5397819
H 1.0114552 2.0339105 -1.425183
H -0.6433634 1.9886655 -2.0234976
H -0.3392631 2.2199335 -0.28317568
H -2.1531482 -0.4775031 -0.89941263
H -0.3871542 -2.5472124 0.23025957
H 0.14086874 -2.0819561 -1.4532813
H 2.703338 -0.6204488 -0.42695525
H 2.3056998 0.6126877 0.7882775
H 2.3164406 -1.0993167 1.238983
H -0.8626074 -1.0003046 1.695273
H -1.5810299 1.1246048 1.9682568
