title
 OpenBabel02282109593D

 19 20  0  0  1  0  0  0  0  0999 V2000
   -0.7724    2.2369   -0.2890 C   0  0  0  0  0  0  0  0  0  0  0  0
   -0.6161    0.7283   -0.3327 C   0  0  1  0  0  0  0  0  0  0  0  0
    0.5224    0.1141   -1.1929 N   0  0  1  0  0  0  0  0  0  0  0  0
    1.4560    0.4857   -0.0318 C   0  0  0  0  0  0  0  0  0  0  0  0
    0.2061   -0.0803    0.6883 C   0  0  1  0  0  0  0  0  0  0  0  0
   -0.0966   -0.1645    2.0392 O   0  0  0  0  0  0  0  0  0  0  0  0
    0.2741   -1.1935   -0.4021 C   0  0  1  0  0  0  0  0  0  0  0  0
   -0.8806   -2.0972   -0.7906 C   0  0  0  0  0  0  0  0  0  0  0  0
   -1.0231    2.6114   -1.2870 H   0  0  0  0  0  0  0  0  0  0  0  0
   -1.6010    2.4916    0.3801 H   0  0  0  0  0  0  0  0  0  0  0  0
    0.1099    2.7748    0.0619 H   0  0  0  0  0  0  0  0  0  0  0  0
   -1.5793    0.2930   -0.6023 H   0  0  0  0  0  0  0  0  0  0  0  0
    2.3728   -0.1105   -0.0113 H   0  0  0  0  0  0  0  0  0  0  0  0
    1.6809    1.5481    0.0406 H   0  0  0  0  0  0  0  0  0  0  0  0
    0.5810   -0.6921    2.4763 H   0  0  0  0  0  0  0  0  0  0  0  0
    1.1970   -1.7845   -0.3782 H   0  0  0  0  0  0  0  0  0  0  0  0
   -0.7416   -2.4595   -1.8146 H   0  0  0  0  0  0  0  0  0  0  0  0
   -0.8918   -2.9696   -0.1286 H   0  0  0  0  0  0  0  0  0  0  0  0
   -1.8641   -1.6279   -0.7293 H   0  0  0  0  0  0  0  0  0  0  0  0
  1 11  1  0  0  0  0
  1 10  1  0  0  0  0
  2  3  1  6  0  0  0
  2  1  1  0  0  0  0
  2  5  1  0  0  0  0
  3  4  1  1  0  0  0
  4 13  1  0  0  0  0
  4 14  1  0  0  0  0
  4  5  1  0  0  0  0
  5  7  1  6  0  0  0
  5  6  1  0  0  0  0
  6 15  1  0  0  0  0
  7  3  1  6  0  0  0
  7 16  1  0  0  0  0
  8 19  1  0  0  0  0
  8  7  1  0  0  0  0
  8 18  1  0  0  0  0
  9  1  1  0  0  0  0
 12  2  1  0  0  0  0
 17  8  1  0  0  0  0
M  END
