title
 OpenBabel02282109593D

 19 20  0  0  1  0  0  0  0  0999 V2000
   -0.0031    1.6976   -1.1823 C   0  0  0  0  0  0  0  0  0  0  0  0
    0.0098    0.2344   -1.1228 N   0  0  0  0  0  0  0  0  0  0  0  0
   -1.1397   -0.5237   -0.4962 C   0  0  1  0  0  0  0  0  0  0  0  0
   -0.1740   -1.7374   -0.4702 C   0  0  0  0  0  0  0  0  0  0  0  0
    0.6189   -0.5068    0.0670 C   0  0  1  0  0  0  0  0  0  0  0  0
    2.0692   -0.3968    0.4365 C   0  0  0  0  0  0  0  0  0  0  0  0
   -0.6311   -0.2205    0.9532 C   0  0  1  0  0  0  0  0  0  0  0  0
   -0.7225    1.0521    1.5398 O   0  0  0  0  0  0  0  0  0  0  0  0
    1.0115    2.0339   -1.4252 H   0  0  0  0  0  0  0  0  0  0  0  0
   -0.6434    1.9887   -2.0235 H   0  0  0  0  0  0  0  0  0  0  0  0
   -0.3393    2.2199   -0.2832 H   0  0  0  0  0  0  0  0  0  0  0  0
   -2.1531   -0.4775   -0.8994 H   0  0  0  0  0  0  0  0  0  0  0  0
   -0.3872   -2.5472    0.2303 H   0  0  0  0  0  0  0  0  0  0  0  0
    0.1409   -2.0820   -1.4533 H   0  0  0  0  0  0  0  0  0  0  0  0
    2.7033   -0.6204   -0.4270 H   0  0  0  0  0  0  0  0  0  0  0  0
    2.3057    0.6127    0.7883 H   0  0  0  0  0  0  0  0  0  0  0  0
    2.3164   -1.0993    1.2390 H   0  0  0  0  0  0  0  0  0  0  0  0
   -0.8626   -1.0003    1.6953 H   0  0  0  0  0  0  0  0  0  0  0  0
   -1.5810    1.1246    1.9683 H   0  0  0  0  0  0  0  0  0  0  0  0
  1  2  1  0  0  0  0
  1 11  1  0  0  0  0
  2  3  1  0  0  0  0
  2  5  1  0  0  0  0
  3  4  1  0  0  0  0
  3  7  1  1  0  0  0
  4  5  1  0  0  0  0
  4 13  1  0  0  0  0
  5  6  1  0  0  0  0
  5  7  1  1  0  0  0
  6 16  1  0  0  0  0
  6 17  1  0  0  0  0
  7  8  1  0  0  0  0
  7 18  1  1  0  0  0
  8 19  1  0  0  0  0
  9  1  1  0  0  0  0
 10  1  1  0  0  0  0
 12  3  1  0  0  0  0
 14  4  1  0  0  0  0
 15  6  1  0  0  0  0
M  END
