19
title
C -0.7724457 2.236924 -0.28901064
C -0.6160721 0.72832304 -0.33265567
N 0.5224179 0.11411778 -1.1929415
C 1.4559889 0.48565236 -0.031778965
C 0.2061174 -0.08033272 0.688348
O -0.096630976 -0.16452022 2.0391757
C 0.27408263 -1.193529 -0.40210673
C -0.88055867 -2.0972478 -0.79063725
H -1.0230842 2.6114347 -1.2870499
H -1.60098 2.4915526 0.38007808
H 0.109928146 2.7747617 0.061862763
H -1.5792874 0.29300976 -0.60227686
H 2.3727877 -0.11049136 -0.01133913
H 1.6809437 1.5480902 0.040649887
H 0.58103704 -0.6921146 2.4763186
H 1.197037 -1.784515 -0.378237
H -0.74164486 -2.4594533 -1.8146335
H -0.89177924 -2.9695866 -0.1285888
H -1.8640815 -1.6279322 -0.7292572
