title
 OpenBabel02282109593D

 16 17  0  0  1  0  0  0  0  0999 V2000
    0.8957    2.0540   -0.4068 O   0  0  0  0  0  0  0  0  0  0  0  0
    0.7541    0.6718   -0.2595 C   0  0  1  0  0  0  0  0  0  0  0  0
    0.6632   -0.0070    1.1482 C   0  0  1  0  0  0  0  0  0  0  0  0
   -0.7970    0.5271    1.2550 C   0  0  0  0  0  0  0  0  0  0  0  0
   -0.6657   -0.0033   -0.1949 C   0  0  1  0  0  0  0  0  0  0  0  0
   -1.6908    0.0298   -1.1163 O   0  0  0  0  0  0  0  0  0  0  0  0
    0.0391   -1.2402    0.4233 C   0  0  1  0  0  0  0  0  0  0  0  0
    0.8004   -2.0062   -0.4771 O   0  0  0  0  0  0  0  0  0  0  0  0
    0.1635    2.5023    0.0281 H   0  0  0  0  0  0  0  0  0  0  0  0
    1.4645    0.2121   -0.9444 H   0  0  0  0  0  0  0  0  0  0  0  0
    1.4163   -0.0143    1.9326 H   0  0  0  0  0  0  0  0  0  0  0  0
   -1.4795   -0.0193    1.9111 H   0  0  0  0  0  0  0  0  0  0  0  0
   -0.9234    1.6025    1.3936 H   0  0  0  0  0  0  0  0  0  0  0  0
   -1.3826   -0.4022   -1.9212 H   0  0  0  0  0  0  0  0  0  0  0  0
   -0.6021   -1.8669    1.0552 H   0  0  0  0  0  0  0  0  0  0  0  0
    1.3341   -2.6283    0.0263 H   0  0  0  0  0  0  0  0  0  0  0  0
  1  2  1  0  0  0  0
  1  9  1  0  0  0  0
  2  5  1  6  0  0  0
  3  2  1  6  0  0  0
  3  4  1  0  0  0  0
  3 11  1  0  0  0  0
  4 13  1  0  0  0  0
  4 12  1  0  0  0  0
  5  6  1  6  0  0  0
  5  4  1  0  0  0  0
  7  5  1  6  0  0  0
  7 15  1  0  0  0  0
  7  3  1  0  0  0  0
  8 16  1  0  0  0  0
  8  7  1  0  0  0  0
 10  2  1  0  0  0  0
 14  6  1  0  0  0  0
M  END
