title
 OpenBabel02282109593D

 16 17  0  0  1  0  0  0  0  0999 V2000
   -0.4235    2.3873    0.3056 C   0  0  0  0  0  0  0  0  0  0  0  0
   -0.3911    0.8879    0.2541 C   0  0  2  0  0  0  0  0  0  0  0  0
   -1.2818    0.0017    1.0463 C   0  0  0  0  0  0  0  0  0  0  0  0
    0.2244   -0.1090    1.2939 C   0  0  1  0  0  0  0  0  0  0  0  0
    0.8135   -0.8918    0.1711 C   0  0  0  0  0  0  0  0  0  0  0  0
    1.5752   -1.8158    0.0824 O   0  0  0  0  0  0  0  0  0  0  0  0
    0.2090    0.0702   -0.8961 C   0  0  1  0  0  0  0  0  0  0  0  0
   -0.7144   -0.4220   -1.8381 O   0  0  0  0  0  0  0  0  0  0  0  0
    0.5481    2.8184    0.0413 H   0  0  0  0  0  0  0  0  0  0  0  0
   -1.1667    2.7823   -0.3961 H   0  0  0  0  0  0  0  0  0  0  0  0
   -0.6917    2.7420    1.3057 H   0  0  0  0  0  0  0  0  0  0  0  0
   -1.8187    0.4770    1.8615 H   0  0  0  0  0  0  0  0  0  0  0  0
   -1.8173   -0.8119    0.5693 H   0  0  0  0  0  0  0  0  0  0  0  0
    0.6516    0.0729    2.2725 H   0  0  0  0  0  0  0  0  0  0  0  0
    1.0363    0.6164   -1.3794 H   0  0  0  0  0  0  0  0  0  0  0  0
   -0.2833   -1.1356   -2.3215 H   0  0  0  0  0  0  0  0  0  0  0  0
  1 11  1  0  0  0  0
  2  7  1  6  0  0  0
  2  1  1  0  0  0  0
  2  3  1  0  0  0  0
  3  4  1  0  0  0  0
  3 12  1  0  0  0  0
  4  2  1  6  0  0  0
  4 14  1  0  0  0  0
  5  4  1  0  0  0  0
  6  5  2  0  0  0  0
  7 15  1  6  0  0  0
  7  5  1  0  0  0  0
  8  7  1  0  0  0  0
  9  1  1  0  0  0  0
 10  1  1  0  0  0  0
 13  3  1  0  0  0  0
 16  8  1  0  0  0  0
M  END
