18
title
C -0.8719633 2.2213488 -0.46790153
C -0.6663484 0.7141709 -0.4383842
C 0.49834248 0.009405979 -1.2138662
C 1.4794924 0.52667934 -0.11815856
C 0.23847583 0.019380758 0.6485451
O 0.10091528 0.056925245 2.0222292
C 0.29834196 -1.2308359 -0.29108325
O -0.7910971 -2.1046858 -0.41986147
H 0.05592093 2.791392 -0.3839762
H -1.3628359 2.5250137 -1.3990499
H -1.5209751 2.5274048 0.35982966
H -1.646602 0.23644902 -0.56749356
H 0.6643531 0.0072434633 -2.2891219
H 2.40054 -0.046184234 0.019362768
H 1.6765056 1.5964321 -0.097501524
H -0.5803496 -0.5793908 2.268212
H 1.1802968 -1.8626405 -0.15734582
H -1.5460327 -1.6248285 -0.77415466
