20
title
C -0.7455838 2.2639835 -0.35676566
C -0.61894315 0.74768263 -0.40638256
C 0.51864135 0.025150198 -1.2061714
C 1.5167274 0.4587365 -0.09360218
C 0.22679034 -0.037796777 0.6334902
O -0.060222648 -0.032390695 1.9881158
C 0.24466768 -1.2593263 -0.3547161
C -0.96240413 -2.1604145 -0.5673846
H 0.20469788 2.785484 -0.22280958
H -1.1994942 2.6372383 -1.2815037
H -1.4008605 2.5573242 0.4704815
H -1.610766 0.32148388 -0.5720673
H 0.6912621 0.06499692 -2.2800472
H 2.40896 -0.16466163 0.019452542
H 1.7657104 1.5165418 -0.019490033
H 0.6180494 -0.54007345 2.4465947
H 1.1435646 -1.877794 -0.23834193
H -1.8977286 -1.6197782 -0.7277985
H -0.80513537 -2.8113868 -1.4344884
H -1.105983 -2.8082454 0.304691
