title
 OpenBabel02282109593D

 15 16  0  0  1  0  0  0  0  0999 V2000
   -0.3678    2.3776    0.2775 C   0  0  0  0  0  0  0  0  0  0  0  0
   -0.3979    0.8828    0.1893 C   0  0  2  0  0  0  0  0  0  0  0  0
   -1.2042    0.0140    1.0538 C   0  0  0  0  0  0  0  0  0  0  0  0
    0.2858   -0.0097    1.2614 N   0  0  0  0  0  0  0  0  0  0  0  0
    0.7624   -0.8517    0.1840 C   0  0  0  0  0  0  0  0  0  0  0  0
    1.4099   -1.8514    0.2248 O   0  0  0  0  0  0  0  0  0  0  0  0
    0.2174    0.0603   -0.9409 C   0  0  1  0  0  0  0  0  0  0  0  0
   -0.6854   -0.4677   -1.8790 O   0  0  0  0  0  0  0  0  0  0  0  0
    0.6185    2.7712    0.0123 H   0  0  0  0  0  0  0  0  0  0  0  0
   -1.1028    2.8133   -0.4083 H   0  0  0  0  0  0  0  0  0  0  0  0
   -0.6085    2.7111    1.2905 H   0  0  0  0  0  0  0  0  0  0  0  0
   -1.7193    0.4710    1.8924 H   0  0  0  0  0  0  0  0  0  0  0  0
   -1.6857   -0.8715    0.6497 H   0  0  0  0  0  0  0  0  0  0  0  0
    1.0477    0.6027   -1.4195 H   0  0  0  0  0  0  0  0  0  0  0  0
   -0.2210   -1.1413   -2.3885 H   0  0  0  0  0  0  0  0  0  0  0  0
  1 11  1  0  0  0  0
  2  7  1  6  0  0  0
  2  1  1  0  0  0  0
  2  3  1  0  0  0  0
  2  4  1  0  0  0  0
  3  4  1  0  0  0  0
  3 12  1  0  0  0  0
  5  6  2  0  0  0  0
  5  4  1  0  0  0  0
  7 14  1  6  0  0  0
  7  5  1  0  0  0  0
  8  7  1  0  0  0  0
  9  1  1  0  0  0  0
 10  1  1  0  0  0  0
 13  3  1  0  0  0  0
 15  8  1  0  0  0  0
M  END
