title
 OpenBabel02282109593D

 20 21  0  0  1  0  0  0  0  0999 V2000
   -0.7456    2.2640   -0.3568 C   0  0  0  0  0  0  0  0  0  0  0  0
   -0.6189    0.7477   -0.4064 C   0  0  1  0  0  0  0  0  0  0  0  0
    0.5186    0.0252   -1.2062 C   0  0  1  0  0  0  0  0  0  0  0  0
    1.5167    0.4587   -0.0936 C   0  0  0  0  0  0  0  0  0  0  0  0
    0.2268   -0.0378    0.6335 C   0  0  1  0  0  0  0  0  0  0  0  0
   -0.0602   -0.0324    1.9881 O   0  0  0  0  0  0  0  0  0  0  0  0
    0.2447   -1.2593   -0.3547 C   0  0  1  0  0  0  0  0  0  0  0  0
   -0.9624   -2.1604   -0.5674 C   0  0  0  0  0  0  0  0  0  0  0  0
    0.2047    2.7855   -0.2228 H   0  0  0  0  0  0  0  0  0  0  0  0
   -1.1995    2.6372   -1.2815 H   0  0  0  0  0  0  0  0  0  0  0  0
   -1.4009    2.5573    0.4705 H   0  0  0  0  0  0  0  0  0  0  0  0
   -1.6108    0.3215   -0.5721 H   0  0  0  0  0  0  0  0  0  0  0  0
    0.6913    0.0650   -2.2800 H   0  0  0  0  0  0  0  0  0  0  0  0
    2.4090   -0.1647    0.0195 H   0  0  0  0  0  0  0  0  0  0  0  0
    1.7657    1.5165   -0.0195 H   0  0  0  0  0  0  0  0  0  0  0  0
    0.6180   -0.5401    2.4466 H   0  0  0  0  0  0  0  0  0  0  0  0
    1.1436   -1.8778   -0.2383 H   0  0  0  0  0  0  0  0  0  0  0  0
   -1.8977   -1.6198   -0.7278 H   0  0  0  0  0  0  0  0  0  0  0  0
   -0.8051   -2.8114   -1.4345 H   0  0  0  0  0  0  0  0  0  0  0  0
   -1.1060   -2.8082    0.3047 H   0  0  0  0  0  0  0  0  0  0  0  0
  1  9  1  0  0  0  0
  1 11  1  0  0  0  0
  2  3  1  6  0  0  0
  2  1  1  0  0  0  0
  3 13  1  6  0  0  0
  3  4  1  0  0  0  0
  4 15  1  0  0  0  0
  4 14  1  0  0  0  0
  4  5  1  0  0  0  0
  5  2  1  6  0  0  0
  5  6  1  0  0  0  0
  6 16  1  0  0  0  0
  7  3  1  6  0  0  0
  7 17  1  0  0  0  0
  7  5  1  0  0  0  0
  8  7  1  0  0  0  0
  8 20  1  0  0  0  0
 10  1  1  0  0  0  0
 12  2  1  0  0  0  0
 18  8  1  0  0  0  0
 19  8  1  0  0  0  0
M  END
