title
 OpenBabel02282109593D

 14 15  0  0  1  0  0  0  0  0999 V2000
   -0.5430    2.3622    0.3605 C   0  0  0  0  0  0  0  0  0  0  0  0
   -0.2877    0.8955    0.2578 C   0  0  2  0  0  0  0  0  0  0  0  0
   -1.2001   -0.0197    0.8799 O   0  0  0  0  0  0  0  0  0  0  0  0
    0.2003   -0.0835    1.2682 C   0  0  1  0  0  0  0  0  0  0  0  0
    0.8288   -0.9287    0.1690 C   0  0  0  0  0  0  0  0  0  0  0  0
    1.5376   -1.8881    0.1410 O   0  0  0  0  0  0  0  0  0  0  0  0
    0.2882    0.0794   -0.9225 C   0  0  1  0  0  0  0  0  0  0  0  0
   -0.6010   -0.3462   -1.9086 O   0  0  0  0  0  0  0  0  0  0  0  0
    0.3676    2.9273    0.1392 H   0  0  0  0  0  0  0  0  0  0  0  0
   -1.3105    2.6647   -0.3596 H   0  0  0  0  0  0  0  0  0  0  0  0
   -0.8890    2.6244    1.3634 H   0  0  0  0  0  0  0  0  0  0  0  0
    0.4324    0.0397    2.3191 H   0  0  0  0  0  0  0  0  0  0  0  0
    1.1340    0.5650   -1.4220 H   0  0  0  0  0  0  0  0  0  0  0  0
   -1.3495   -0.7482   -1.4494 H   0  0  0  0  0  0  0  0  0  0  0  0
  1 11  1  0  0  0  0
  2  7  1  6  0  0  0
  2  1  1  0  0  0  0
  2  3  1  0  0  0  0
  3  4  1  0  0  0  0
  4  2  1  6  0  0  0
  4 12  1  0  0  0  0
  5  4  1  0  0  0  0
  6  5  2  0  0  0  0
  7 13  1  6  0  0  0
  7  5  1  0  0  0  0
  8 14  1  0  0  0  0
  8  7  1  0  0  0  0
  9  1  1  0  0  0  0
 10  1  1  0  0  0  0
M  END
