17
title
C 0.23549788 2.0983706 -0.14065853
N -0.25768623 0.73721564 -0.12221615
C -0.106452614 -0.21442968 -1.136867
O -0.07134933 -0.09821784 -2.3316429
C 0.032198112 -1.3411925 -0.12109896
C 1.2143744 -0.9760396 0.78470594
C -0.09893852 -0.26684982 0.9449828
C -0.9428767 -0.21703345 2.1811912
H 1.2668302 2.174985 0.23233297
H 0.2125443 2.4447918 -1.1768028
H -0.40210503 2.7547765 0.45991775
H -0.3968338 -2.332269 -0.16067591
H 1.4592335 -1.7232771 1.5352558
H 2.0754523 -0.46209532 0.36705807
H -0.6470461 0.6147131 2.830858
H -1.998948 -0.08858668 1.9245843
H -0.83338696 -1.1395955 2.7584395
