17
title
C -0.9379927 2.0075417 -0.32232767
C -0.81185657 0.49080673 -0.25212565
C 0.2525307 -0.24225399 -1.0902302
O 0.5393759 -0.2900689 -2.24547
N 0.79394543 -1.0067943 0.021658018
C 1.2903916 0.03968043 0.9758567
C -0.15657495 -0.21804371 0.9462183
C -0.90848655 -0.8994166 2.0493462
H 0.0024269896 2.50739 -0.07331316
H -1.2192096 2.312614 -1.3346444
H -1.7071376 2.3707116 0.36659268
H -1.7805836 0.023821807 -0.47054544
H 1.8695322 -0.3929672 1.7856299
H 1.7122799 0.9538812 0.5660155
H -1.3304753 -0.16205648 2.7417283
H -1.7335472 -1.4992226 1.6514812
H -0.25020522 -1.5603555 2.6199179
