title
 OpenBabel02282109593D

 16 17  0  0  1  0  0  0  0  0999 V2000
   -0.9230    1.9474   -0.2245 C   0  0  0  0  0  0  0  0  0  0  0  0
   -0.8293    0.4295   -0.2934 C   0  0  1  0  0  0  0  0  0  0  0  0
    0.2720   -0.2327   -1.1826 C   0  0  0  0  0  0  0  0  0  0  0  0
    0.4680   -0.2684   -2.3607 O   0  0  0  0  0  0  0  0  0  0  0  0
    0.8680   -0.9404    0.0280 C   0  0  1  0  0  0  0  0  0  0  0  0
    1.1584    0.1302    0.9613 O   0  0  0  0  0  0  0  0  0  0  0  0
   -0.1882   -0.3380    0.8890 C   0  0  1  0  0  0  0  0  0  0  0  0
   -0.8434   -0.8620    2.1247 C   0  0  0  0  0  0  0  0  0  0  0  0
    0.0144    2.3699    0.1455 H   0  0  0  0  0  0  0  0  0  0  0  0
   -1.1166    2.3598   -1.2193 H   0  0  0  0  0  0  0  0  0  0  0  0
   -1.7352    2.2681    0.4360 H   0  0  0  0  0  0  0  0  0  0  0  0
   -1.7890   -0.0175   -0.5853 H   0  0  0  0  0  0  0  0  0  0  0  0
    1.4430   -1.8545    0.1214 H   0  0  0  0  0  0  0  0  0  0  0  0
   -1.1796   -0.0376    2.7629 H   0  0  0  0  0  0  0  0  0  0  0  0
   -1.7181   -1.4686    1.8703 H   0  0  0  0  0  0  0  0  0  0  0  0
   -0.1430   -1.4732    2.6994 H   0  0  0  0  0  0  0  0  0  0  0  0
  1  9  1  0  0  0  0
  1 11  1  0  0  0  0
  2  1  1  0  0  0  0
  2  7  1  1  0  0  0
  3  2  1  0  0  0  0
  3  5  1  0  0  0  0
  4  3  2  0  0  0  0
  5 13  1  0  0  0  0
  5  7  1  1  0  0  0
  5  6  1  0  0  0  0
  7  6  1  0  0  0  0
  7  8  1  1  0  0  0
  8 16  1  0  0  0  0
  8 14  1  0  0  0  0
 10  1  1  0  0  0  0
 12  2  1  0  0  0  0
 15  8  1  0  0  0  0
M  END
