title
 OpenBabel02282109593D

 14 15  0  0  1  0  0  0  0  0999 V2000
    0.6032    1.8221   -0.6637 O   0  0  0  0  0  0  0  0  0  0  0  0
    0.6292    0.4202   -0.5487 C   0  0  1  0  0  0  0  0  0  0  0  0
    0.8605   -0.2339    0.8464 C   0  0  0  0  0  0  0  0  0  0  0  0
    1.7882   -0.2006    1.6068 O   0  0  0  0  0  0  0  0  0  0  0  0
   -0.4434   -0.9596    0.7846 C   0  0  1  0  0  0  0  0  0  0  0  0
   -1.5498    0.0927    0.5888 C   0  0  0  0  0  0  0  0  0  0  0  0
   -0.7280   -0.2890   -0.5865 C   0  0  1  0  0  0  0  0  0  0  0  0
   -1.2291   -0.9288   -1.6975 O   0  0  0  0  0  0  0  0  0  0  0  0
    1.4384    2.1576   -0.3184 H   0  0  0  0  0  0  0  0  0  0  0  0
    1.3108   -0.0500   -1.2758 H   0  0  0  0  0  0  0  0  0  0  0  0
   -0.6817   -1.9529    1.1427 H   0  0  0  0  0  0  0  0  0  0  0  0
   -2.5437   -0.3430    0.6114 H   0  0  0  0  0  0  0  0  0  0  0  0
   -1.4653    1.0761    1.0385 H   0  0  0  0  0  0  0  0  0  0  0  0
   -1.8337   -0.3296   -2.1491 H   0  0  0  0  0  0  0  0  0  0  0  0
  1  2  1  0  0  0  0
  1  9  1  0  0  0  0
  2  7  1  6  0  0  0
  2  3  1  0  0  0  0
  3  4  2  0  0  0  0
  5  7  1  6  0  0  0
  5  3  1  0  0  0  0
  5 11  1  0  0  0  0
  6 12  1  0  0  0  0
  6  5  1  0  0  0  0
  6 13  1  0  0  0  0
  7  8  1  6  0  0  0
  7  6  1  0  0  0  0
 10  2  1  0  0  0  0
 14  8  1  0  0  0  0
M  END
