title
 OpenBabel02282109593D

 17 18  0  0  1  0  0  0  0  0999 V2000
   -0.9380    2.0075   -0.3223 C   0  0  0  0  0  0  0  0  0  0  0  0
   -0.8119    0.4908   -0.2521 C   0  0  1  0  0  0  0  0  0  0  0  0
    0.2525   -0.2423   -1.0902 C   0  0  0  0  0  0  0  0  0  0  0  0
    0.5394   -0.2901   -2.2455 O   0  0  0  0  0  0  0  0  0  0  0  0
    0.7939   -1.0068    0.0217 N   0  0  0  0  0  0  0  0  0  0  0  0
    1.2904    0.0397    0.9759 C   0  0  0  0  0  0  0  0  0  0  0  0
   -0.1566   -0.2180    0.9462 C   0  0  1  0  0  0  0  0  0  0  0  0
   -0.9085   -0.8994    2.0493 C   0  0  0  0  0  0  0  0  0  0  0  0
    0.0024    2.5074   -0.0733 H   0  0  0  0  0  0  0  0  0  0  0  0
   -1.2192    2.3126   -1.3346 H   0  0  0  0  0  0  0  0  0  0  0  0
   -1.7071    2.3707    0.3666 H   0  0  0  0  0  0  0  0  0  0  0  0
   -1.7806    0.0238   -0.4705 H   0  0  0  0  0  0  0  0  0  0  0  0
    1.8695   -0.3930    1.7856 H   0  0  0  0  0  0  0  0  0  0  0  0
    1.7123    0.9539    0.5660 H   0  0  0  0  0  0  0  0  0  0  0  0
   -1.3305   -0.1621    2.7417 H   0  0  0  0  0  0  0  0  0  0  0  0
   -1.7335   -1.4992    1.6515 H   0  0  0  0  0  0  0  0  0  0  0  0
   -0.2502   -1.5604    2.6199 H   0  0  0  0  0  0  0  0  0  0  0  0
  1  2  1  0  0  0  0
  1  9  1  0  0  0  0
  1 11  1  0  0  0  0
  2  7  1  1  0  0  0
  3  2  1  0  0  0  0
  3  5  1  0  0  0  0
  4  3  2  0  0  0  0
  5  7  1  0  0  0  0
  5  6  1  0  0  0  0
  6 13  1  0  0  0  0
  7  6  1  0  0  0  0
  7  8  1  1  0  0  0
  8 17  1  0  0  0  0
  8 15  1  0  0  0  0
 10  1  1  0  0  0  0
 12  2  1  0  0  0  0
 14  6  1  0  0  0  0
 16  8  1  0  0  0  0
M  END
