title
 OpenBabel02282109593D

 18 19  0  0  1  0  0  0  0  0999 V2000
   -0.9481    1.9714   -0.2604 C   0  0  0  0  0  0  0  0  0  0  0  0
   -0.7827    0.4568   -0.2481 C   0  0  1  0  0  0  0  0  0  0  0  0
    0.2763   -0.2368   -1.1516 C   0  0  0  0  0  0  0  0  0  0  0  0
    0.4062   -0.3003   -2.3426 O   0  0  0  0  0  0  0  0  0  0  0  0
    0.9177   -0.9336    0.0063 C   0  0  1  0  0  0  0  0  0  0  0  0
    1.3007    0.1132    1.0516 C   0  0  0  0  0  0  0  0  0  0  0  0
   -0.1317   -0.2758    0.9507 C   0  0  1  0  0  0  0  0  0  0  0  0
   -0.9050   -0.9197    2.0647 C   0  0  0  0  0  0  0  0  0  0  0  0
   -0.0244    2.4875    0.0176 H   0  0  0  0  0  0  0  0  0  0  0  0
   -1.2270    2.3084   -1.2636 H   0  0  0  0  0  0  0  0  0  0  0  0
   -1.7334    2.2921    0.4322 H   0  0  0  0  0  0  0  0  0  0  0  0
   -1.7416   -0.0217   -0.4905 H   0  0  0  0  0  0  0  0  0  0  0  0
    1.3573   -1.9239    0.0157 H   0  0  0  0  0  0  0  0  0  0  0  0
    1.8459   -0.2996    1.8953 H   0  0  0  0  0  0  0  0  0  0  0  0
    1.6545    1.0916    0.7408 H   0  0  0  0  0  0  0  0  0  0  0  0
   -1.3488   -0.1638    2.7232 H   0  0  0  0  0  0  0  0  0  0  0  0
   -1.7199   -1.5407    1.6767 H   0  0  0  0  0  0  0  0  0  0  0  0
   -0.2598   -1.5538    2.6812 H   0  0  0  0  0  0  0  0  0  0  0  0
  1  2  1  0  0  0  0
  1  9  1  0  0  0  0
  1 11  1  0  0  0  0
  2  7  1  1  0  0  0
  3  2  1  0  0  0  0
  3  5  1  0  0  0  0
  4  3  2  0  0  0  0
  5 13  1  0  0  0  0
  5  7  1  1  0  0  0
  5  6  1  0  0  0  0
  6 14  1  0  0  0  0
  7  6  1  0  0  0  0
  7  8  1  1  0  0  0
  8 18  1  0  0  0  0
  8 16  1  0  0  0  0
 10  1  1  0  0  0  0
 12  2  1  0  0  0  0
 15  6  1  0  0  0  0
 17  8  1  0  0  0  0
M  END
