15
title
C -0.5589712 2.3780406 0.35561383
C -0.32160306 0.9048402 0.26585704
N -1.2183201 -0.105810076 0.9411255
C 0.22191644 -0.10704461 1.2432917
C 0.8194572 -0.9880048 0.13143775
O 0.37703317 -2.3061047 0.03547206
C 0.28627604 0.10969034 -0.87332064
O 0.45682567 0.3278676 -2.0362122
H 0.32135594 2.93063 0.013572751
H -1.4033728 2.675334 -0.27475724
H -0.7768541 2.6850328 1.3841466
H -1.703514 0.3969591 1.6842092
H 0.6000974 0.069378644 2.2421496
H 1.9140874 -0.9955163 0.11836369
H -0.58445835 -2.269393 0.13051595
