title
 OpenBabel02282109593D

 16 17  0  0  1  0  0  0  0  0999 V2000
   -1.1464    2.2364    0.0436 C   0  0  0  0  0  0  0  0  0  0  0  0
   -1.1108    0.7123   -0.0050 C   0  0  1  0  0  0  0  0  0  0  0  0
   -0.4990   -0.0182   -1.2110 C   0  0  1  0  0  0  0  0  0  0  0  0
    0.9473    0.3283   -1.3678 C   0  0  0  0  0  0  0  0  0  0  0  0
    0.6329   -0.6640   -0.2876 C   0  0  2  0  0  0  0  0  0  0  0  0
    1.2547   -1.8818   -0.2752 O   0  0  0  0  0  0  0  0  0  0  0  0
   -0.0923   -0.0768    0.8698 C   0  0  0  0  0  0  0  0  0  0  0  0
   -0.1126   -0.4150    2.0262 O   0  0  0  0  0  0  0  0  0  0  0  0
   -0.1772    2.6816   -0.1986 H   0  0  0  0  0  0  0  0  0  0  0  0
   -1.8830    2.6332   -0.6624 H   0  0  0  0  0  0  0  0  0  0  0  0
   -1.4251    2.5736    1.0467 H   0  0  0  0  0  0  0  0  0  0  0  0
   -2.1041    0.3137    0.2340 H   0  0  0  0  0  0  0  0  0  0  0  0
   -1.0627   -0.5307   -1.9792 H   0  0  0  0  0  0  0  0  0  0  0  0
    1.4428   -0.1459   -2.2104 H   0  0  0  0  0  0  0  0  0  0  0  0
    1.3272    1.3195   -1.1374 H   0  0  0  0  0  0  0  0  0  0  0  0
    0.8682   -2.3931    0.4476 H   0  0  0  0  0  0  0  0  0  0  0  0
  1 11  1  0  0  0  0
  2  3  1  6  0  0  0
  2  1  1  0  0  0  0
  2 12  1  0  0  0  0
  2  7  1  0  0  0  0
  3  5  1  1  0  0  0
  4  3  1  0  0  0  0
  4 15  1  0  0  0  0
  4  5  1  0  0  0  0
  5  6  1  6  0  0  0
  5  7  1  0  0  0  0
  6 16  1  0  0  0  0
  7  8  2  0  0  0  0
  9  1  1  0  0  0  0
 10  1  1  0  0  0  0
 13  3  1  0  0  0  0
 14  4  1  0  0  0  0
M  END
