title
 OpenBabel02282109593D

 18 19  0  0  1  0  0  0  0  0999 V2000
   -1.2530    2.1739   -0.0323 C   0  0  0  0  0  0  0  0  0  0  0  0
   -1.1033    0.6577   -0.0571 C   0  0  1  0  0  0  0  0  0  0  0  0
   -0.4086   -0.0562   -1.2330 C   0  0  1  0  0  0  0  0  0  0  0  0
    1.0343    0.3109   -1.2802 C   0  0  0  0  0  0  0  0  0  0  0  0
    0.6013   -0.7562   -0.2789 C   0  0  2  0  0  0  0  0  0  0  0  0
    1.1818   -2.1408   -0.2467 C   0  0  0  0  0  0  0  0  0  0  0  0
   -0.0757   -0.0590    0.8669 C   0  0  0  0  0  0  0  0  0  0  0  0
    0.0102   -0.1644    2.0594 O   0  0  0  0  0  0  0  0  0  0  0  0
   -0.3174    2.6819   -0.2841 H   0  0  0  0  0  0  0  0  0  0  0  0
   -2.0168    2.5072   -0.7426 H   0  0  0  0  0  0  0  0  0  0  0  0
   -1.5537    2.5052    0.9665 H   0  0  0  0  0  0  0  0  0  0  0  0
   -2.0730    0.1873    0.1526 H   0  0  0  0  0  0  0  0  0  0  0  0
   -0.9203   -0.5154   -2.0695 H   0  0  0  0  0  0  0  0  0  0  0  0
    1.6051   -0.0896   -2.1128 H   0  0  0  0  0  0  0  0  0  0  0  0
    1.3783    1.2853   -0.9458 H   0  0  0  0  0  0  0  0  0  0  0  0
    1.4018   -2.5005   -1.2568 H   0  0  0  0  0  0  0  0  0  0  0  0
    2.1161   -2.1576    0.3246 H   0  0  0  0  0  0  0  0  0  0  0  0
    0.4932   -2.8486    0.2258 H   0  0  0  0  0  0  0  0  0  0  0  0
  1 11  1  0  0  0  0
  2  3  1  6  0  0  0
  2  1  1  0  0  0  0
  2 12  1  0  0  0  0
  2  7  1  0  0  0  0
  3  5  1  1  0  0  0
  4  3  1  0  0  0  0
  4 15  1  0  0  0  0
  4  5  1  0  0  0  0
  5  6  1  6  0  0  0
  5  7  1  0  0  0  0
  6 18  1  0  0  0  0
  6 17  1  0  0  0  0
  7  8  2  0  0  0  0
  9  1  1  0  0  0  0
 10  1  1  0  0  0  0
 13  3  1  0  0  0  0
 14  4  1  0  0  0  0
 16  6  1  0  0  0  0
M  END
