16
title
C -0.48816833 2.4103036 0.44308802
C -0.15203112 0.9625293 0.30705747
O -0.9911117 0.010359097 1.0013883
C 0.4251176 -0.019584786 1.2525375
C 0.97373253 -0.8928606 0.11400364
O 0.3152929 -2.1272058 -0.053046674
C 0.47903073 0.22156088 -0.89150196
O -0.33817974 -0.2128063 -1.933669
H 0.358836 3.0313075 0.13477507
H -1.3414037 2.6645172 -0.19456282
H -0.7471531 2.6532671 1.4769869
H 0.752101 0.08352642 2.28117
H 2.049513 -1.0722923 0.108486876
H -0.576187 -1.9853619 0.29955593
H 1.3220012 0.80378276 -1.2864426
H -0.4713079 -1.1596612 -1.7797345
