20
title
C -1.4077224 1.9760478 -0.026134335
C -1.2364147 0.46227768 -0.02978272
C -0.5157868 -0.21303286 -1.2035534
C 0.93403727 0.1879517 -1.245513
C 0.5072778 -0.8619053 -0.25641823
C 1.0770417 -2.2515981 -0.22874667
C -0.16335756 -0.18061765 0.9344071
O 0.70310277 0.679376 1.6488824
H -0.4534189 2.4932659 -0.15189606
H -2.0748823 2.2936394 -0.8347302
H -1.8486528 2.3208015 0.91698295
H -2.2062106 -0.015603645 0.14601225
H -1.0065645 -0.66081315 -2.0605164
H 1.490738 -0.19586314 -2.0952103
H 1.2616619 1.1658517 -0.9078141
H 1.3058592 -2.6046445 -1.2397776
H 2.0073051 -2.285934 0.35082597
H 0.3778047 -2.9650245 0.22322002
H -0.6257889 -0.9135055 1.6102468
H 0.20370513 1.0809982 2.3671012
