title
 OpenBabel02282109593D

 18 19  0  0  1  0  0  0  0  0999 V2000
   -1.1365    1.7462   -0.2661 C   0  0  0  0  0  0  0  0  0  0  0  0
   -0.9669    0.2358   -0.3224 C   0  0  1  0  0  0  0  0  0  0  0  0
    0.1714   -0.3599   -1.2587 C   0  0  1  0  0  0  0  0  0  0  0  0
    1.0206    0.5338   -1.9239 O   0  0  0  0  0  0  0  0  0  0  0  0
    0.7555   -1.0517   -0.0197 C   0  0  1  0  0  0  0  0  0  0  0  0
    1.0858    0.0274    0.8781 O   0  0  0  0  0  0  0  0  0  0  0  0
   -0.2727   -0.4666    0.8603 C   0  0  1  0  0  0  0  0  0  0  0  0
   -0.8624   -0.9345    2.1505 C   0  0  0  0  0  0  0  0  0  0  0  0
   -0.2187    2.2306    0.0783 H   0  0  0  0  0  0  0  0  0  0  0  0
   -1.3776    2.1463   -1.2555 H   0  0  0  0  0  0  0  0  0  0  0  0
   -1.9430    2.0286    0.4189 H   0  0  0  0  0  0  0  0  0  0  0  0
   -1.9186   -0.2560   -0.5524 H   0  0  0  0  0  0  0  0  0  0  0  0
   -0.2257   -1.0486   -2.0082 H   0  0  0  0  0  0  0  0  0  0  0  0
    1.5020    1.0063   -1.2325 H   0  0  0  0  0  0  0  0  0  0  0  0
    1.3434   -1.9594    0.0679 H   0  0  0  0  0  0  0  0  0  0  0  0
   -1.1663   -0.0844    2.7713 H   0  0  0  0  0  0  0  0  0  0  0  0
   -1.7496   -1.5492    1.9670 H   0  0  0  0  0  0  0  0  0  0  0  0
   -0.1352   -1.5245    2.7146 H   0  0  0  0  0  0  0  0  0  0  0  0
  1  9  1  0  0  0  0
  1 11  1  0  0  0  0
  2  3  1  6  0  0  0
  2  1  1  0  0  0  0
  3  5  1  1  0  0  0
  4  3  1  0  0  0  0
  4 14  1  0  0  0  0
  5 15  1  0  0  0  0
  5  7  1  1  0  0  0
  5  6  1  0  0  0  0
  7  2  1  6  0  0  0
  7  6  1  0  0  0  0
  7  8  1  0  0  0  0
  8 18  1  0  0  0  0
  8 16  1  0  0  0  0
 10  1  1  0  0  0  0
 12  2  1  0  0  0  0
 13  3  1  0  0  0  0
 17  8  1  0  0  0  0
M  END
