title
 OpenBabel02282109593D

 18 19  0  0  1  0  0  0  0  0999 V2000
   -1.1283    1.7972   -0.2542 C   0  0  0  0  0  0  0  0  0  0  0  0
   -0.9294    0.2879   -0.2858 C   0  0  1  0  0  0  0  0  0  0  0  0
    0.1742   -0.3206   -1.2434 C   0  0  1  0  0  0  0  0  0  0  0  0
    1.0588    0.5777   -1.8836 O   0  0  0  0  0  0  0  0  0  0  0  0
    0.8056   -1.0364   -0.0577 C   0  0  1  0  0  0  0  0  0  0  0  0
    1.2197   -0.0230    0.9892 C   0  0  0  0  0  0  0  0  0  0  0  0
   -0.2240   -0.4185    0.8808 C   0  0  1  0  0  0  0  0  0  0  0  0
   -0.8978   -1.0673    1.9032 O   0  0  0  0  0  0  0  0  0  0  0  0
   -0.1813    2.3272   -0.1229 H   0  0  0  0  0  0  0  0  0  0  0  0
   -1.5815    2.1564   -1.1859 H   0  0  0  0  0  0  0  0  0  0  0  0
   -1.7982    2.0865    0.5631 H   0  0  0  0  0  0  0  0  0  0  0  0
   -1.8827   -0.2165   -0.4749 H   0  0  0  0  0  0  0  0  0  0  0  0
   -0.2639   -1.0190   -1.9676 H   0  0  0  0  0  0  0  0  0  0  0  0
    0.5745    1.0276   -2.5833 H   0  0  0  0  0  0  0  0  0  0  0  0
    1.2133   -2.0390   -0.0696 H   0  0  0  0  0  0  0  0  0  0  0  0
    1.7291   -0.4614    1.8416 H   0  0  0  0  0  0  0  0  0  0  0  0
    1.5810    0.9565    0.6932 H   0  0  0  0  0  0  0  0  0  0  0  0
   -0.9673   -0.4640    2.6506 H   0  0  0  0  0  0  0  0  0  0  0  0
  1  9  1  0  0  0  0
  1 11  1  0  0  0  0
  2  3  1  6  0  0  0
  2  1  1  0  0  0  0
  3  5  1  1  0  0  0
  4  3  1  0  0  0  0
  5  7  1  1  0  0  0
  5  6  1  0  0  0  0
  6 16  1  0  0  0  0
  7  2  1  6  0  0  0
  7  6  1  0  0  0  0
  7  8  1  0  0  0  0
  8 18  1  0  0  0  0
 10  1  1  0  0  0  0
 12  2  1  0  0  0  0
 13  3  1  0  0  0  0
 14  4  1  0  0  0  0
 15  5  1  0  0  0  0
 17  6  1  0  0  0  0
M  END
