title
 OpenBabel02282109593D

 20 21  0  0  1  0  0  0  0  0999 V2000
   -1.0922    1.7967   -0.2510 C   0  0  0  0  0  0  0  0  0  0  0  0
   -0.9206    0.2831   -0.2751 C   0  0  1  0  0  0  0  0  0  0  0  0
    0.1776   -0.3425   -1.2224 C   0  0  1  0  0  0  0  0  0  0  0  0
    1.0625    0.5343   -1.8931 O   0  0  0  0  0  0  0  0  0  0  0  0
    0.8088   -1.0339   -0.0255 C   0  0  1  0  0  0  0  0  0  0  0  0
    1.1957   -0.0130    1.0120 C   0  0  0  0  0  0  0  0  0  0  0  0
   -0.2460   -0.4266    0.9144 C   0  0  1  0  0  0  0  0  0  0  0  0
   -0.9950   -1.0671    2.0484 C   0  0  0  0  0  0  0  0  0  0  0  0
   -0.1388    2.3113   -0.1085 H   0  0  0  0  0  0  0  0  0  0  0  0
   -1.5247    2.1588   -1.1915 H   0  0  0  0  0  0  0  0  0  0  0  0
   -1.7675    2.1013    0.5560 H   0  0  0  0  0  0  0  0  0  0  0  0
   -1.8862   -0.1913   -0.4855 H   0  0  0  0  0  0  0  0  0  0  0  0
   -0.2669   -1.0575   -1.9272 H   0  0  0  0  0  0  0  0  0  0  0  0
    0.5797    0.9555   -2.6116 H   0  0  0  0  0  0  0  0  0  0  0  0
    1.2285   -2.0331   -0.0312 H   0  0  0  0  0  0  0  0  0  0  0  0
    1.7276   -0.4174    1.8679 H   0  0  0  0  0  0  0  0  0  0  0  0
    1.5356    0.9709    0.7054 H   0  0  0  0  0  0  0  0  0  0  0  0
   -1.4329   -0.3135    2.7146 H   0  0  0  0  0  0  0  0  0  0  0  0
   -1.8134   -1.6978    1.6812 H   0  0  0  0  0  0  0  0  0  0  0  0
   -0.3348   -1.6955    2.6556 H   0  0  0  0  0  0  0  0  0  0  0  0
  1  9  1  0  0  0  0
  1 11  1  0  0  0  0
  2  3  1  6  0  0  0
  2  1  1  0  0  0  0
  3  5  1  1  0  0  0
  4  3  1  0  0  0  0
  5  7  1  1  0  0  0
  5  6  1  0  0  0  0
  6 16  1  0  0  0  0
  7  2  1  6  0  0  0
  7  6  1  0  0  0  0
  7  8  1  0  0  0  0
  8 20  1  0  0  0  0
  8 18  1  0  0  0  0
 10  1  1  0  0  0  0
 12  2  1  0  0  0  0
 13  3  1  0  0  0  0
 14  4  1  0  0  0  0
 15  5  1  0  0  0  0
 17  6  1  0  0  0  0
 19  8  1  0  0  0  0
M  END
