22
title
C -1.5512055 1.811944 0.5032384
C -1.2180625 0.33236548 0.34136415
C -0.78571177 -0.18054584 -1.0393745
C 0.5549733 0.38280565 -1.4314399
C 0.507008 -0.76450944 -0.4592335
C 1.1747937 -2.0848544 -0.7218926
C 0.11972802 -0.25779256 0.94477046
C 1.0918667 0.6421176 1.7008437
H -0.7571281 2.460544 0.12164376
H -2.467955 2.0606148 -0.0430921
H -1.7133409 2.0702066 1.5557058
H -2.062275 -0.25788012 0.712212
H -1.4506361 -0.61533064 -1.7781154
H 0.88692707 0.11697855 -2.4308531
H 0.85889906 1.3813761 -1.1282694
H 1.1553082 -2.3350537 -1.7880659
H 2.2262769 -2.0728316 -0.4084259
H 0.6790082 -2.8985395 -0.17896952
H -0.12942512 -1.113923 1.5817773
H 1.4020901 1.5090182 1.1099393
H 0.64443415 1.0169375 2.6281102
H 1.9981458 0.0895231 1.9734503
