title
 OpenBabel02282109593D

 19 20  0  0  1  0  0  0  0  0999 V2000
   -1.1348    1.7610   -0.2691 C   0  0  0  0  0  0  0  0  0  0  0  0
   -0.9521    0.2518   -0.3074 C   0  0  1  0  0  0  0  0  0  0  0  0
    0.1735   -0.3527   -1.2534 C   0  0  1  0  0  0  0  0  0  0  0  0
    1.0329    0.5363   -1.9106 O   0  0  0  0  0  0  0  0  0  0  0  0
    0.7530   -1.0666   -0.0260 C   0  0  1  0  0  0  0  0  0  0  0  0
    1.1394    0.0577    0.8732 N   0  0  0  0  0  0  0  0  0  0  0  0
   -0.2601   -0.4505    0.8757 C   0  0  1  0  0  0  0  0  0  0  0  0
   -0.9059   -0.9647    2.1249 C   0  0  0  0  0  0  0  0  0  0  0  0
   -0.2123    2.2594    0.0388 H   0  0  0  0  0  0  0  0  0  0  0  0
   -1.4122    2.1433   -1.2563 H   0  0  0  0  0  0  0  0  0  0  0  0
   -1.9237    2.0450    0.4360 H   0  0  0  0  0  0  0  0  0  0  0  0
   -1.9030   -0.2476   -0.5246 H   0  0  0  0  0  0  0  0  0  0  0  0
   -0.2371   -1.0261   -2.0088 H   0  0  0  0  0  0  0  0  0  0  0  0
    1.5337    0.9705   -1.2059 H   0  0  0  0  0  0  0  0  0  0  0  0
    1.2668   -2.0195    0.0329 H   0  0  0  0  0  0  0  0  0  0  0  0
    1.6168   -0.3455    1.6781 H   0  0  0  0  0  0  0  0  0  0  0  0
   -1.2027   -0.1429    2.7870 H   0  0  0  0  0  0  0  0  0  0  0  0
   -1.8063   -1.5419    1.8887 H   0  0  0  0  0  0  0  0  0  0  0  0
   -0.2265   -1.6168    2.6854 H   0  0  0  0  0  0  0  0  0  0  0  0
  1  9  1  0  0  0  0
  1 11  1  0  0  0  0
  2  3  1  6  0  0  0
  2  1  1  0  0  0  0
  3  5  1  1  0  0  0
  4  3  1  0  0  0  0
  4 14  1  0  0  0  0
  5 15  1  0  0  0  0
  5  6  1  0  0  0  0
  5  7  1  1  0  0  0
  6  7  1  0  0  0  0
  6 16  1  0  0  0  0
  7  2  1  6  0  0  0
  7  8  1  0  0  0  0
  8 19  1  0  0  0  0
  8 17  1  0  0  0  0
 10  1  1  0  0  0  0
 12  2  1  0  0  0  0
 13  3  1  0  0  0  0
 18  8  1  0  0  0  0
M  END
