16
title
C 0.23021339 2.7552512 -0.222986
C 0.08325433 1.2719514 -0.13674842
C -1.198919 0.4279091 -0.2546486
C -0.52384746 -0.6492629 0.6870973
C -0.38190645 -2.0100744 0.21065132
C -0.26697847 -3.1405163 -0.18220872
C 0.73570484 0.24964151 0.70074713
O 1.1427068 0.44823495 -0.6521632
H 1.2459558 3.0544364 0.048406255
H 0.03302747 3.1057692 -1.242455
H -0.47639132 3.2563725 0.44641405
H -2.0797863 0.8812084 0.20521758
H -1.4341944 0.09275821 -1.2660216
H -1.0072479 -0.63672864 1.6694921
H -0.15791924 -4.1361175 -0.5347354
H 1.4977148 0.31676713 1.4696041
