19
title
C -1.2858598 1.5020683 -0.75519264
C -0.83897364 0.06997053 -0.49998993
N 0.45895782 -0.4198639 -1.0887209
C 1.2751806 0.43960056 -1.9252335
C 0.9587576 -0.786758 0.22991619
C 0.98289853 0.37693918 1.2089788
C -0.31562725 -0.3237037 0.8903456
O -1.0683591 -0.9967196 1.834979
H -0.54932165 2.2376065 -0.4203358
H -1.4784627 1.6758538 -1.8190976
H -2.22194 1.6934276 -0.21903212
H -1.6393744 -0.6186868 -0.7990827
H 1.6152631 1.374887 -1.4472147
H 2.1683176 -0.115827076 -2.2316222
H 0.7247365 0.7036248 -2.8336992
H 1.5442616 -1.6871804 0.38118953
H 1.3816822 0.12158805 2.1863387
H 1.1919134 1.3921558 0.88364935
H -1.408701 -0.3527564 2.465093
