19
title
C -1.4098417 1.9731661 -0.024202293
C -1.2565517 0.46018574 -0.035497088
C -0.48683468 -0.19982472 -1.1840159
N 0.9234226 0.2701024 -1.0656337
C 0.45437005 -0.8874833 -0.25742742
C 1.1310775 -2.2213671 -0.30484924
C -0.20457445 -0.20163736 0.9562755
O 0.6220732 0.6408264 1.7097596
H -0.45866618 2.4646049 -0.24336128
H -2.138352 2.2985067 -0.7748604
H -1.753496 2.3217936 0.9545779
H -2.2277381 -0.028361946 0.09684087
H -0.867369 -0.5327611 -2.1431699
H 1.4422054 -0.10169932 -1.8599488
H 1.3541057 -2.517949 -1.336012
H 2.074469 -2.2038584 0.25301737
H 0.49799588 -2.9978852 0.13761614
H -0.6752399 -0.9007266 1.6520679
H 1.1656041 1.1065394 1.0586994
