title
 OpenBabel02282109593D

 16 17  0  0  1  0  0  0  0  0999 V2000
    0.1847    2.7681   -0.2506 C   0  0  0  0  0  0  0  0  0  0  0  0
    0.1116    1.2726   -0.2032 C   0  0  2  0  0  0  0  0  0  0  0  0
   -1.1804    0.4368   -0.2799 C   0  0  0  0  0  0  0  0  0  0  0  0
   -0.5316   -0.6047    0.7059 C   0  0  1  0  0  0  0  0  0  0  0  0
   -0.3854   -1.9754    0.2355 C   0  0  0  0  0  0  0  0  0  0  0  0
   -0.2539   -3.0499   -0.1719 N   0  0  0  0  0  0  0  0  0  0  0  0
    0.7499    0.2634    0.7165 C   0  0  1  0  0  0  0  0  0  0  0  0
    1.2604    0.4813   -0.6245 N   0  0  0  0  0  0  0  0  0  0  0  0
    1.1974    3.1056   -0.0172 H   0  0  0  0  0  0  0  0  0  0  0  0
   -0.0705    3.1380   -1.2506 H   0  0  0  0  0  0  0  0  0  0  0  0
   -0.5120    3.2214    0.4622 H   0  0  0  0  0  0  0  0  0  0  0  0
   -2.0497    0.9205    0.1705 H   0  0  0  0  0  0  0  0  0  0  0  0
   -1.4522    0.0649   -1.2717 H   0  0  0  0  0  0  0  0  0  0  0  0
   -1.0402   -0.6028    1.6728 H   0  0  0  0  0  0  0  0  0  0  0  0
    1.4199    0.3734    1.5614 H   0  0  0  0  0  0  0  0  0  0  0  0
    1.0480   -0.2754   -1.2732 H   0  0  0  0  0  0  0  0  0  0  0  0
  1  2  1  0  0  0  0
  1  9  1  0  0  0  0
  1 11  1  0  0  0  0
  2  7  1  1  0  0  0
  3  2  1  0  0  0  0
  3 12  1  0  0  0  0
  3  4  1  0  0  0  0
  4  7  1  1  0  0  0
  4 14  1  0  0  0  0
  5  4  1  0  0  0  0
  6  5  3  0  0  0  0
  7 15  1  1  0  0  0
  8  2  1  0  0  0  0
  8  7  1  0  0  0  0
 10  1  1  0  0  0  0
 13  3  1  0  0  0  0
 16  8  1  0  0  0  0
M  END
