20
title
C -1.5200001 1.8345236 0.53765607
C -1.2255572 0.34639475 0.3782098
C -0.8512609 -0.18526249 -1.0132847
C 0.48812166 0.37241885 -1.4545939
C 0.47144547 -0.7348585 -0.45935407
O 1.171053 -1.8955477 -0.74193627
C 0.12654474 -0.24944513 0.95350075
C 1.1228057 0.6310326 1.699304
H -0.7297091 2.462239 0.11568141
H -2.4534392 2.0964642 0.027557759
H -1.6316692 2.1065323 1.5930482
H -2.068162 -0.22186176 0.7853881
H -1.5401547 -0.6184295 -1.729092
H 0.7943401 0.049602263 -2.444547
H 0.8034031 1.3812958 -1.2000117
H 0.7377662 -2.624658 -0.2839628
H -0.11873987 -1.1163827 1.5802078
H 1.4130517 1.5095257 1.1155814
H 0.70822006 0.98507994 2.649494
H 2.0358815 0.06903032 1.9235189
