title
 OpenBabel02282109593D

 20 21  0  0  1  0  0  0  0  0999 V2000
   -1.5200    1.8345    0.5377 C   0  0  0  0  0  0  0  0  0  0  0  0
   -1.2256    0.3464    0.3782 C   0  0  1  0  0  0  0  0  0  0  0  0
   -0.8513   -0.1853   -1.0133 C   0  0  1  0  0  0  0  0  0  0  0  0
    0.4881    0.3724   -1.4546 C   0  0  0  0  0  0  0  0  0  0  0  0
    0.4714   -0.7349   -0.4594 C   0  0  2  0  0  0  0  0  0  0  0  0
    1.1711   -1.8955   -0.7419 O   0  0  0  0  0  0  0  0  0  0  0  0
    0.1265   -0.2494    0.9535 C   0  0  1  0  0  0  0  0  0  0  0  0
    1.1228    0.6310    1.6993 C   0  0  0  0  0  0  0  0  0  0  0  0
   -0.7297    2.4622    0.1157 H   0  0  0  0  0  0  0  0  0  0  0  0
   -2.4534    2.0965    0.0276 H   0  0  0  0  0  0  0  0  0  0  0  0
   -1.6317    2.1065    1.5930 H   0  0  0  0  0  0  0  0  0  0  0  0
   -2.0682   -0.2219    0.7854 H   0  0  0  0  0  0  0  0  0  0  0  0
   -1.5402   -0.6184   -1.7291 H   0  0  0  0  0  0  0  0  0  0  0  0
    0.7943    0.0496   -2.4445 H   0  0  0  0  0  0  0  0  0  0  0  0
    0.8034    1.3813   -1.2000 H   0  0  0  0  0  0  0  0  0  0  0  0
    0.7378   -2.6247   -0.2840 H   0  0  0  0  0  0  0  0  0  0  0  0
   -0.1187   -1.1164    1.5802 H   0  0  0  0  0  0  0  0  0  0  0  0
    1.4131    1.5095    1.1156 H   0  0  0  0  0  0  0  0  0  0  0  0
    0.7082    0.9851    2.6495 H   0  0  0  0  0  0  0  0  0  0  0  0
    2.0359    0.0690    1.9235 H   0  0  0  0  0  0  0  0  0  0  0  0
  1 11  1  0  0  0  0
  2  3  1  6  0  0  0
  2  1  1  0  0  0  0
  2 12  1  0  0  0  0
  3  5  1  1  0  0  0
  4 15  1  0  0  0  0
  4  3  1  0  0  0  0
  4  5  1  0  0  0  0
  5  7  1  1  0  0  0
  6  5  1  0  0  0  0
  6 16  1  0  0  0  0
  7  2  1  6  0  0  0
  7 17  1  0  0  0  0
  7  8  1  0  0  0  0
  8 20  1  0  0  0  0
  8 19  1  0  0  0  0
  9  1  1  0  0  0  0
 10  1  1  0  0  0  0
 13  3  1  0  0  0  0
 14  4  1  0  0  0  0
 18  8  1  0  0  0  0
M  END
