15
title
C 0.23629513 2.7604728 -0.2664553
C 0.08617323 1.2801931 -0.15216199
C -1.1993676 0.4377909 -0.25848117
C -0.52771366 -0.6213892 0.6999742
C -0.3723296 -1.985165 0.21872334
N -0.25253668 -3.0706103 -0.1601085
C 0.73508775 0.27157077 0.7065708
O 1.1431223 0.44128606 -0.6466447
H 1.252433 3.0618155 7.908408e-05
H 0.0411492 3.0897298 -1.293044
H -0.46996927 3.275451 0.39229944
H -2.078119 0.89671826 0.19851099
H -1.4381168 0.08899179 -1.2641873
H -1.018462 -0.63214725 1.6766657
H 1.4910307 0.34309503 1.4799936
