title
 OpenBabel02282109593D

 15 16  0  0  1  0  0  0  0  0999 V2000
    0.5623    2.0815   -1.1211 O   0  0  0  0  0  0  0  0  0  0  0  0
    0.4411    0.7323   -0.8816 C   0  0  2  0  0  0  0  0  0  0  0  0
   -0.0141   -0.1668   -1.9778 C   0  0  0  0  0  0  0  0  0  0  0  0
   -0.7918   -0.1639   -0.6783 C   0  0  1  0  0  0  0  0  0  0  0  0
   -0.0152   -1.0030    0.3566 C   0  0  1  0  0  0  0  0  0  0  0  0
    1.2260   -0.0448    0.1800 C   0  0  0  0  0  0  0  0  0  0  0  0
   -0.5823   -0.9913    1.6958 C   0  0  0  0  0  0  0  0  0  0  0  0
   -1.0375   -0.9676    2.7585 N   0  0  0  0  0  0  0  0  0  0  0  0
    0.4128    2.5554   -0.2946 H   0  0  0  0  0  0  0  0  0  0  0  0
   -0.5115    0.3546   -2.7887 H   0  0  0  0  0  0  0  0  0  0  0  0
    0.5645   -1.0369   -2.2826 H   0  0  0  0  0  0  0  0  0  0  0  0
   -1.8484    0.0628   -0.6268 H   0  0  0  0  0  0  0  0  0  0  0  0
    0.1654   -2.0403    0.0554 H   0  0  0  0  0  0  0  0  0  0  0  0
    2.1638   -0.5126   -0.1336 H   0  0  0  0  0  0  0  0  0  0  0  0
    1.4014    0.5391    1.0864 H   0  0  0  0  0  0  0  0  0  0  0  0
  1  2  1  0  0  0  0
  1  9  1  0  0  0  0
  2  4  1  1  0  0  0
  2  6  1  0  0  0  0
  3  2  1  0  0  0  0
  3  4  1  0  0  0  0
  4 12  1  0  0  0  0
  4  5  1  1  0  0  0
  5 13  1  6  0  0  0
  5  7  1  0  0  0  0
  6  5  1  0  0  0  0
  6 15  1  0  0  0  0
  7  8  3  0  0  0  0
 10  3  1  0  0  0  0
 11  3  1  0  0  0  0
 14  6  1  0  0  0  0
M  END
