16
title
C -0.8098221 2.361526 0.03567273
C -0.9116379 0.8694339 -0.056126397
C -1.7601339 0.040645268 0.82214135
N -0.29151952 -0.07021102 0.97899127
C 0.13570935 -0.97164357 -0.15719995
C -0.39274016 0.03214016 -1.2272427
C 1.5770941 -1.1855345 -0.17383584
N 2.7188246 -1.3584683 -0.21710525
H 0.18678075 2.7082727 -0.25618112
H -1.5425181 2.8393817 -0.6251446
H -1.0027654 2.7001388 1.0574156
H -2.228529 0.52626616 1.6723421
H -2.3148425 -0.8079914 0.42501205
H -0.36298025 -1.9465837 -0.13338113
H -1.1293329 -0.34382734 -1.9417683
H 0.4208551 0.5149091 -1.7700458
