15
title
O 0.562331 2.0814695 -1.1210601
C 0.44114792 0.7322737 -0.88156605
C -0.014135266 -0.1668311 -1.977791
C -0.79178596 -0.16391507 -0.67825377
C -0.015218014 -1.003004 0.35659912
C 1.226043 -0.044802696 0.17996892
C -0.5822624 -0.9913135 1.6957661
N -1.0374732 -0.96763545 2.7584693
H 0.41279733 2.555373 -0.29460803
H -0.51150805 0.3546387 -2.788678
H 0.56449544 -1.0369382 -2.282599
H -1.8483926 0.06275275 -0.6267904
H 0.16537923 -2.0403404 0.055443678
H 2.1638403 -0.51258665 -0.13361815
H 1.4013846 0.539092 1.0863668
