title
 OpenBabel02282109593D

 18 19  0  0  1  0  0  0  0  0999 V2000
   -1.1046    2.2759   -0.0318 C   0  0  0  0  0  0  0  0  0  0  0  0
   -0.9708    0.7808   -0.0511 C   0  0  2  0  0  0  0  0  0  0  0  0
   -1.8416   -0.1376    0.7630 C   0  0  0  0  0  0  0  0  0  0  0  0
   -0.3516   -0.1758    0.9710 C   0  0  1  0  0  0  0  0  0  0  0  0
    0.2992   -1.0120   -0.1523 C   0  0  1  0  0  0  0  0  0  0  0  0
   -0.3340   -0.0163   -1.1996 C   0  0  0  0  0  0  0  0  0  0  0  0
    1.7485   -1.0370   -0.1443 C   0  0  0  0  0  0  0  0  0  0  0  0
    2.9513   -1.0471   -0.1308 C   0  0  0  0  0  0  0  0  0  0  0  0
   -0.1595    2.7645   -0.2949 H   0  0  0  0  0  0  0  0  0  0  0  0
   -1.8645    2.6162   -0.7461 H   0  0  0  0  0  0  0  0  0  0  0  0
   -1.4022    2.6336    0.9595 H   0  0  0  0  0  0  0  0  0  0  0  0
   -2.4045    0.3431    1.5574 H   0  0  0  0  0  0  0  0  0  0  0  0
   -2.3553   -0.9805    0.3035 H   0  0  0  0  0  0  0  0  0  0  0  0
    0.1133    0.0355    1.9263 H   0  0  0  0  0  0  0  0  0  0  0  0
   -0.0860   -2.0370   -0.2144 H   0  0  0  0  0  0  0  0  0  0  0  0
   -1.0185   -0.4562   -1.9324 H   0  0  0  0  0  0  0  0  0  0  0  0
    0.4415    0.5434   -1.7256 H   0  0  0  0  0  0  0  0  0  0  0  0
    4.0127   -1.0644   -0.1210 H   0  0  0  0  0  0  0  0  0  0  0  0
  1 11  1  0  0  0  0
  2  1  1  0  0  0  0
  2  3  1  0  0  0  0
  2  4  1  1  0  0  0
  3  4  1  0  0  0  0
  3 12  1  0  0  0  0
  4  5  1  6  0  0  0
  4 14  1  0  0  0  0
  5 15  1  6  0  0  0
  5  7  1  0  0  0  0
  6  5  1  0  0  0  0
  6  2  1  0  0  0  0
  7  8  3  0  0  0  0
  8 18  1  0  0  0  0
  9  1  1  0  0  0  0
 10  1  1  0  0  0  0
 13  3  1  0  0  0  0
 16  6  1  0  0  0  0
 17  6  1  0  0  0  0
M  END
