title
 OpenBabel02282109593D

 17 18  0  0  1  0  0  0  0  0999 V2000
   -1.0843    2.2943   -0.0254 C   0  0  0  0  0  0  0  0  0  0  0  0
   -0.9723    0.7978   -0.0449 C   0  0  2  0  0  0  0  0  0  0  0  0
   -1.8512   -0.1129    0.7674 C   0  0  0  0  0  0  0  0  0  0  0  0
   -0.3620   -0.1686    0.9759 C   0  0  1  0  0  0  0  0  0  0  0  0
    0.2695   -1.0108   -0.1510 C   0  0  1  0  0  0  0  0  0  0  0  0
   -0.3485   -0.0067   -1.1965 C   0  0  0  0  0  0  0  0  0  0  0  0
    1.7233   -1.0368   -0.1493 C   0  0  0  0  0  0  0  0  0  0  0  0
    2.8796   -1.0499   -0.1424 N   0  0  0  0  0  0  0  0  0  0  0  0
   -0.1335    2.7693   -0.2912 H   0  0  0  0  0  0  0  0  0  0  0  0
   -1.8419    2.6433   -0.7375 H   0  0  0  0  0  0  0  0  0  0  0  0
   -1.3742    2.6552    0.9667 H   0  0  0  0  0  0  0  0  0  0  0  0
   -2.4042    0.3701    1.5668 H   0  0  0  0  0  0  0  0  0  0  0  0
   -2.3755   -0.9488    0.3077 H   0  0  0  0  0  0  0  0  0  0  0  0
    0.1077    0.0296    1.9311 H   0  0  0  0  0  0  0  0  0  0  0  0
   -0.0998   -2.0401   -0.2129 H   0  0  0  0  0  0  0  0  0  0  0  0
   -1.0384   -0.4440   -1.9247 H   0  0  0  0  0  0  0  0  0  0  0  0
    0.4300    0.5434   -1.7279 H   0  0  0  0  0  0  0  0  0  0  0  0
  1 11  1  0  0  0  0
  2  1  1  0  0  0  0
  2  3  1  0  0  0  0
  2  4  1  1  0  0  0
  3  4  1  0  0  0  0
  3 12  1  0  0  0  0
  4  5  1  6  0  0  0
  4 14  1  0  0  0  0
  5 15  1  6  0  0  0
  5  7  1  0  0  0  0
  6  5  1  0  0  0  0
  6  2  1  0  0  0  0
  7  8  3  0  0  0  0
  9  1  1  0  0  0  0
 10  1  1  0  0  0  0
 13  3  1  0  0  0  0
 16  6  1  0  0  0  0
 17  6  1  0  0  0  0
M  END
