17
title
C -1.0843443 2.2943194 -0.025430322
C -0.97225404 0.79781216 -0.044850297
C -1.8511797 -0.11293606 0.7674474
C -0.36199236 -0.16861317 0.9758809
C 0.2695347 -1.0107884 -0.15099582
C -0.34853005 -0.006741858 -1.1965213
C 1.7232705 -1.0367634 -0.1492853
N 2.8795936 -1.0499178 -0.1423666
H -0.1334809 2.7692797 -0.29123324
H -1.8419377 2.6433017 -0.73746526
H -1.3741885 2.6551542 0.9666584
H -2.4042387 0.37013683 1.5668302
H -2.3754754 -0.9488399 0.30774045
H 0.10768497 0.029580317 1.9311266
H -0.099787 -2.0401428 -0.21287866
H -1.038393 -0.44403335 -1.9246775
H 0.43000698 0.5433553 -1.7278796
