17
title
C -0.8313531 2.348349 0.025837647
C -0.90978354 0.8537626 -0.06263358
C -1.7526481 0.01901275 0.8159631
N -0.28366622 -0.06972796 0.9771084
C 0.16580676 -0.9765225 -0.15794826
C -0.37684885 0.02212292 -1.2289159
C 1.5983031 -1.1937393 -0.17055431
C 2.7861784 -1.3738552 -0.20613122
H 0.16192327 2.7089245 -0.2617859
H -1.5668104 2.8156593 -0.6398905
H -1.0338535 2.6873145 1.0458853
H -2.2354965 0.5032352 1.6594114
H -2.293261 -0.8386598 0.41816124
H -0.35328534 -1.9419943 -0.12982662
H -1.1070069 -0.3579318 -1.9490069
H 0.43566558 0.5137059 -1.7657839
H 3.8353608 -1.5362588 -0.22531857
