16
title
C -1.0565528 2.2580197 -0.04134357
C -0.9606533 0.7637369 -0.004187416
C -1.8534598 -0.14161734 0.80063033
C -0.35865855 -0.20301168 1.0088624
C 0.26072156 -0.9638065 -0.17239888
N -0.31153512 0.043031048 -1.1155282
C 1.7253089 -0.9877597 -0.2006687
N 2.8802547 -1.0206724 -0.19497341
H -0.09107012 2.701387 -0.30102384
H -1.7904334 2.5832527 -0.78838694
H -1.3756856 2.6507866 0.9286438
H -2.4004958 0.3346989 1.6086916
H -2.3784578 -0.9721477 0.33187795
H 0.12864219 -0.0131356 1.9552373
H -0.10384781 -1.9910538 -0.2993173
H -0.9527883 -0.35419977 -1.7986511
