title
 OpenBabel02282109593D

 15 16  0  0  1  0  0  0  0  0999 V2000
    0.1942    2.4784   -0.8772 O   0  0  0  0  0  0  0  0  0  0  0  0
    0.2192    1.1167   -0.6807 C   0  0  2  0  0  0  0  0  0  0  0  0
   -0.0339    0.1088   -1.7742 C   0  0  0  0  0  0  0  0  0  0  0  0
   -0.9708    0.1796   -0.5838 C   0  0  1  0  0  0  0  0  0  0  0  0
   -0.3628   -0.4539    0.5778 N   0  0  0  0  0  0  0  0  0  0  0  0
    0.8085    0.4445    0.5766 C   0  0  0  0  0  0  0  0  0  0  0  0
   -0.4167   -1.7446    0.9993 C   0  0  0  0  0  0  0  0  0  0  0  0
    0.3988   -2.2648    1.7308 O   0  0  0  0  0  0  0  0  0  0  0  0
    0.9268    2.7185   -1.4552 H   0  0  0  0  0  0  0  0  0  0  0  0
   -0.4404    0.5467   -2.6811 H   0  0  0  0  0  0  0  0  0  0  0  0
    0.6090   -0.7554   -1.9196 H   0  0  0  0  0  0  0  0  0  0  0  0
   -2.0344    0.3700   -0.6481 H   0  0  0  0  0  0  0  0  0  0  0  0
    1.7709   -0.0681    0.4879 H   0  0  0  0  0  0  0  0  0  0  0  0
    0.8159    1.1135    1.4420 H   0  0  0  0  0  0  0  0  0  0  0  0
   -1.3260   -2.2601    0.6267 H   0  0  0  0  0  0  0  0  0  0  0  0
  1  2  1  0  0  0  0
  2  4  1  1  0  0  0
  2  6  1  0  0  0  0
  3  2  1  0  0  0  0
  3  4  1  0  0  0  0
  4 12  1  6  0  0  0
  4  5  1  0  0  0  0
  5  7  1  0  0  0  0
  6  5  1  0  0  0  0
  6 14  1  0  0  0  0
  7  8  2  0  0  0  0
  9  1  1  0  0  0  0
 10  3  1  0  0  0  0
 11  3  1  0  0  0  0
 13  6  1  0  0  0  0
 15  7  1  0  0  0  0
M  END
