15
title
O 0.19422834 2.4784214 -0.87719256
C 0.21917067 1.1167128 -0.68066573
C -0.033918876 0.10884174 -1.7742225
C -0.97078085 0.17959788 -0.5838403
N -0.36284918 -0.45393702 0.577809
C 0.80845577 0.444509 0.57663095
C -0.41674286 -1.744615 0.9993124
O 0.39882824 -2.2647717 1.7307906
H 0.9267603 2.7184885 -1.4552029
H -0.44040483 0.54665595 -2.6810937
H 0.6089757 -0.7554281 -1.9195725
H -2.0344443 0.37003145 -0.6480584
H 1.7708809 -0.068087675 0.48785996
H 0.8159215 1.1135303 1.441973
H -1.3260217 -2.2601101 0.62670374
