19
title
C 0.39012584 2.843931 -0.25620112
C 0.32712576 1.3465266 -0.24859919
C -0.95342064 0.4905111 -0.313858
C -0.27892905 -0.5431166 0.650527
C -0.17565103 -1.9952792 0.22370419
O -1.4953696 -2.514753 0.13982844
C 0.9950526 0.31898674 0.6287179
N 1.4720007 0.5798955 -0.72967076
H 1.4061403 3.1838827 -0.039263193
H 0.104967706 3.2423844 -1.2375065
H -0.29084748 3.2718534 0.48739824
H -1.8303554 0.96521217 0.13200638
H -1.2258459 0.12754281 -1.3108705
H -0.7584579 -0.50278383 1.6332933
H 0.3394737 -2.0735471 -0.74814343
H 0.43062407 -2.5530052 0.9564639
H -1.4423189 -3.4281988 -0.15605304
H 1.7024498 0.44089612 1.4424635
H 1.2180547 -0.14929037 -1.3935517
