title
 OpenBabel02282109593D

 17 18  0  0  1  0  0  0  0  0999 V2000
    1.7029    2.3474    0.0763 C   0  0  0  0  0  0  0  0  0  0  0  0
    1.7758    0.8965    0.1737 N   0  0  0  0  0  0  0  0  0  0  0  0
    0.7299    0.2258    0.0440 C   0  0  0  0  0  0  0  0  0  0  0  0
   -0.5947    0.6440   -0.1700 O   0  0  0  0  0  0  0  0  0  0  0  0
   -1.0541   -0.7303    0.0060 C   0  0  1  0  0  0  0  0  0  0  0  0
   -2.2916   -0.9362    0.8105 C   0  0  0  0  0  0  0  0  0  0  0  0
   -0.4945   -1.5553   -1.0978 C   0  0  0  0  0  0  0  0  0  0  0  0
    0.3773   -1.2185    0.1218 C   0  0  1  0  0  0  0  0  0  0  0  0
    2.2778    2.6773   -0.7966 H   0  0  0  0  0  0  0  0  0  0  0  0
    0.6829    2.7401   -0.0080 H   0  0  0  0  0  0  0  0  0  0  0  0
    2.1810    2.7885    0.9575 H   0  0  0  0  0  0  0  0  0  0  0  0
   -3.1604   -0.5120    0.2955 H   0  0  0  0  0  0  0  0  0  0  0  0
   -2.4740   -2.0044    0.9573 H   0  0  0  0  0  0  0  0  0  0  0  0
   -2.2054   -0.4564    1.7898 H   0  0  0  0  0  0  0  0  0  0  0  0
   -0.8210   -2.5907   -1.1302 H   0  0  0  0  0  0  0  0  0  0  0  0
   -0.2813   -1.1053   -2.0623 H   0  0  0  0  0  0  0  0  0  0  0  0
    0.8383   -1.9686    0.7475 H   0  0  0  0  0  0  0  0  0  0  0  0
  1  2  1  0  0  0  0
  1 11  1  0  0  0  0
  3  8  1  0  0  0  0
  3  2  2  0  0  0  0
  4  5  1  0  0  0  0
  4  3  1  0  0  0  0
  5  8  1  1  0  0  0
  5  6  1  0  0  0  0
  6 13  1  0  0  0  0
  6 14  1  0  0  0  0
  7  5  1  0  0  0  0
  7  8  1  0  0  0  0
  8 17  1  1  0  0  0
  9  1  1  0  0  0  0
 10  1  1  0  0  0  0
 12  6  1  0  0  0  0
 15  7  1  0  0  0  0
 16  7  1  0  0  0  0
M  END
