title
 OpenBabel02282109593D

 19 20  0  0  1  0  0  0  0  0999 V2000
    0.3901    2.8439   -0.2562 C   0  0  0  0  0  0  0  0  0  0  0  0
    0.3271    1.3465   -0.2486 C   0  0  2  0  0  0  0  0  0  0  0  0
   -0.9534    0.4905   -0.3139 C   0  0  0  0  0  0  0  0  0  0  0  0
   -0.2789   -0.5431    0.6505 C   0  0  1  0  0  0  0  0  0  0  0  0
   -0.1757   -1.9953    0.2237 C   0  0  0  0  0  0  0  0  0  0  0  0
   -1.4954   -2.5148    0.1398 O   0  0  0  0  0  0  0  0  0  0  0  0
    0.9951    0.3190    0.6287 C   0  0  1  0  0  0  0  0  0  0  0  0
    1.4720    0.5799   -0.7297 N   0  0  0  0  0  0  0  0  0  0  0  0
    1.4061    3.1839   -0.0393 H   0  0  0  0  0  0  0  0  0  0  0  0
    0.1050    3.2424   -1.2375 H   0  0  0  0  0  0  0  0  0  0  0  0
   -0.2908    3.2719    0.4874 H   0  0  0  0  0  0  0  0  0  0  0  0
   -1.8304    0.9652    0.1320 H   0  0  0  0  0  0  0  0  0  0  0  0
   -1.2258    0.1275   -1.3109 H   0  0  0  0  0  0  0  0  0  0  0  0
   -0.7585   -0.5028    1.6333 H   0  0  0  0  0  0  0  0  0  0  0  0
    0.3395   -2.0735   -0.7481 H   0  0  0  0  0  0  0  0  0  0  0  0
    0.4306   -2.5530    0.9565 H   0  0  0  0  0  0  0  0  0  0  0  0
   -1.4423   -3.4282   -0.1561 H   0  0  0  0  0  0  0  0  0  0  0  0
    1.7024    0.4409    1.4425 H   0  0  0  0  0  0  0  0  0  0  0  0
    1.2181   -0.1493   -1.3936 H   0  0  0  0  0  0  0  0  0  0  0  0
  1  2  1  0  0  0  0
  1  9  1  0  0  0  0
  1 11  1  0  0  0  0
  2  7  1  1  0  0  0
  3  2  1  0  0  0  0
  3 12  1  0  0  0  0
  3  4  1  0  0  0  0
  4  7  1  1  0  0  0
  4 14  1  0  0  0  0
  5  4  1  0  0  0  0
  5 16  1  0  0  0  0
  6  5  1  0  0  0  0
  7 18  1  1  0  0  0
  8  2  1  0  0  0  0
  8  7  1  0  0  0  0
 10  1  1  0  0  0  0
 13  3  1  0  0  0  0
 15  5  1  0  0  0  0
 17  6  1  0  0  0  0
 19  8  1  0  0  0  0
M  END
