title
 OpenBabel02282109593D

 17 18  0  0  1  0  0  0  0  0999 V2000
    0.0767    2.7129   -0.4217 C   0  0  0  0  0  0  0  0  0  0  0  0
    0.0483    1.2287   -0.2187 C   0  0  2  0  0  0  0  0  0  0  0  0
   -1.2107    0.3837    0.0641 C   0  0  0  0  0  0  0  0  0  0  0  0
   -0.3619   -0.5617    0.9692 C   0  0  1  0  0  0  0  0  0  0  0  0
   -0.1806   -1.9885    0.5438 C   0  0  0  0  0  0  0  0  0  0  0  0
   -0.3246   -2.3712   -0.5952 O   0  0  0  0  0  0  0  0  0  0  0  0
    0.8894    0.3208    0.6369 C   0  0  1  0  0  0  0  0  0  0  0  0
    1.1032    0.4048   -0.7966 N   0  0  0  0  0  0  0  0  0  0  0  0
    1.1074    3.0761   -0.4331 H   0  0  0  0  0  0  0  0  0  0  0  0
   -0.3850    2.9822   -1.3792 H   0  0  0  0  0  0  0  0  0  0  0  0
   -0.4722    3.2319    0.3713 H   0  0  0  0  0  0  0  0  0  0  0  0
   -1.9705    0.9158    0.6415 H   0  0  0  0  0  0  0  0  0  0  0  0
   -1.6767   -0.0818   -0.8082 H   0  0  0  0  0  0  0  0  0  0  0  0
   -0.6260   -0.5018    2.0280 H   0  0  0  0  0  0  0  0  0  0  0  0
    0.1682   -2.6898    1.3351 H   0  0  0  0  0  0  0  0  0  0  0  0
    1.7161    0.5186    1.3101 H   0  0  0  0  0  0  0  0  0  0  0  0
    0.7639   -0.4142   -1.3008 H   0  0  0  0  0  0  0  0  0  0  0  0
  1  2  1  0  0  0  0
  1 11  1  0  0  0  0
  2  3  1  0  0  0  0
  2  7  1  1  0  0  0
  3 12  1  0  0  0  0
  3  4  1  0  0  0  0
  4  7  1  6  0  0  0
  4 14  1  0  0  0  0
  5  4  1  0  0  0  0
  5 15  1  0  0  0  0
  6  5  2  0  0  0  0
  7 16  1  1  0  0  0
  8  2  1  0  0  0  0
  8  7  1  0  0  0  0
  9  1  1  0  0  0  0
 10  1  1  0  0  0  0
 13  3  1  0  0  0  0
 17  8  1  0  0  0  0
M  END
