title
 OpenBabel02282109593D

 19 20  0  0  1  0  0  0  0  0999 V2000
   -1.1117    2.7523    0.8539 C   0  0  0  0  0  0  0  0  0  0  0  0
   -1.3180    1.2397    0.8147 C   0  0  0  0  0  0  0  0  0  0  0  0
   -0.5326    0.6267   -0.2455 N   0  0  0  0  0  0  0  0  0  0  0  0
    0.9484    0.5096   -0.0745 C   0  0  0  0  0  0  0  0  0  0  0  0
    0.8417   -0.9948   -0.3546 C   0  0  1  0  0  0  0  0  0  0  0  0
    1.6737   -1.6928   -1.2078 O   0  0  0  0  0  0  0  0  0  0  0  0
   -0.0586   -1.6500    0.6620 C   0  0  0  0  0  0  0  0  0  0  0  0
   -0.6518   -0.8131   -0.4633 C   0  0  1  0  0  0  0  0  0  0  0  0
   -0.0684    3.0037    1.0739 H   0  0  0  0  0  0  0  0  0  0  0  0
   -1.3686    3.1999   -0.1105 H   0  0  0  0  0  0  0  0  0  0  0  0
   -1.7335    3.2086    1.6304 H   0  0  0  0  0  0  0  0  0  0  0  0
   -1.0983    0.8113    1.8111 H   0  0  0  0  0  0  0  0  0  0  0  0
   -2.3715    1.0150    0.6068 H   0  0  0  0  0  0  0  0  0  0  0  0
    1.4957    1.0611   -0.8454 H   0  0  0  0  0  0  0  0  0  0  0  0
    1.3313    0.7896    0.9169 H   0  0  0  0  0  0  0  0  0  0  0  0
    2.3633   -2.1119   -0.6815 H   0  0  0  0  0  0  0  0  0  0  0  0
   -0.1769   -2.7199    0.5183 H   0  0  0  0  0  0  0  0  0  0  0  0
   -0.0862   -1.3190    1.6969 H   0  0  0  0  0  0  0  0  0  0  0  0
   -1.3668   -1.2160   -1.1723 H   0  0  0  0  0  0  0  0  0  0  0  0
  1  9  1  0  0  0  0
  1 11  1  0  0  0  0
  2  1  1  0  0  0  0
  2 12  1  0  0  0  0
  3  4  1  0  0  0  0
  3  2  1  0  0  0  0
  4 15  1  0  0  0  0
  5  8  1  6  0  0  0
  5  4  1  0  0  0  0
  5  7  1  0  0  0  0
  6 16  1  0  0  0  0
  6  5  1  0  0  0  0
  7 18  1  0  0  0  0
  8 19  1  6  0  0  0
  8  3  1  0  0  0  0
  8  7  1  0  0  0  0
 10  1  1  0  0  0  0
 13  2  1  0  0  0  0
 14  4  1  0  0  0  0
 17  7  1  0  0  0  0
M  END
