title
 OpenBabel02282109593D

 18 19  0  0  1  0  0  0  0  0999 V2000
   -0.3458    2.7029    0.0898 C   0  0  0  0  0  0  0  0  0  0  0  0
   -0.4183    1.2211    0.2563 C   0  0  2  0  0  0  0  0  0  0  0  0
   -1.4430    0.4380    1.0130 C   0  0  0  0  0  0  0  0  0  0  0  0
    0.0331    0.2448    1.3252 C   0  0  1  0  0  0  0  0  0  0  0  0
    0.7140   -0.5016    0.1830 C   0  0  1  0  0  0  0  0  0  0  0  0
    0.3794   -1.9454   -0.1453 C   0  0  0  0  0  0  0  0  0  0  0  0
    0.8095   -2.2639   -1.4566 O   0  0  0  0  0  0  0  0  0  0  0  0
    0.1342    0.4124   -0.8014 O   0  0  0  0  0  0  0  0  0  0  0  0
    0.6820    3.0281   -0.0987 H   0  0  0  0  0  0  0  0  0  0  0  0
   -0.9642    3.0236   -0.7564 H   0  0  0  0  0  0  0  0  0  0  0  0
   -0.7153    3.2074    0.9872 H   0  0  0  0  0  0  0  0  0  0  0  0
   -1.9821    0.9920    1.7756 H   0  0  0  0  0  0  0  0  0  0  0  0
   -2.0251   -0.3295    0.5122 H   0  0  0  0  0  0  0  0  0  0  0  0
    0.4554    0.4217    2.3052 H   0  0  0  0  0  0  0  0  0  0  0  0
    1.8026   -0.3654    0.1891 H   0  0  0  0  0  0  0  0  0  0  0  0
    0.9107   -2.6161    0.5393 H   0  0  0  0  0  0  0  0  0  0  0  0
   -0.6988   -2.1244   -0.0202 H   0  0  0  0  0  0  0  0  0  0  0  0
    0.4321   -1.5863   -2.0308 H   0  0  0  0  0  0  0  0  0  0  0  0
  1  2  1  0  0  0  0
  1 11  1  0  0  0  0
  2  3  1  0  0  0  0
  2  4  1  1  0  0  0
  3  4  1  0  0  0  0
  3 12  1  0  0  0  0
  4  5  1  6  0  0  0
  4 14  1  0  0  0  0
  5 15  1  1  0  0  0
  6 17  1  0  0  0  0
  6  5  1  0  0  0  0
  6 16  1  0  0  0  0
  7  6  1  0  0  0  0
  8  5  1  0  0  0  0
  8  2  1  0  0  0  0
  9  1  1  0  0  0  0
 10  1  1  0  0  0  0
 13  3  1  0  0  0  0
 18  7  1  0  0  0  0
M  END
