title
 OpenBabel02282109593D

 20 21  0  0  1  0  0  0  0  0999 V2000
   -0.3090    2.6620   -1.6266 C   0  0  0  0  0  0  0  0  0  0  0  0
   -0.0649    1.1503   -1.6628 C   0  0  0  0  0  0  0  0  0  0  0  0
    0.5978    0.6171   -0.3974 C   0  0  1  0  0  0  0  0  0  0  0  0
   -0.2250    0.6065    0.9477 C   0  0  0  0  0  0  0  0  0  0  0  0
   -0.0190   -0.9182    1.0141 C   0  0  1  0  0  0  0  0  0  0  0  0
    0.0374   -1.7997    2.2185 C   0  0  0  0  0  0  0  0  0  0  0  0
   -0.6014   -1.4486   -0.1895 O   0  0  0  0  0  0  0  0  0  0  0  0
    0.7286   -0.9097   -0.2560 C   0  0  1  0  0  0  0  0  0  0  0  0
    0.6309    3.2150   -1.5163 H   0  0  0  0  0  0  0  0  0  0  0  0
   -0.7920    3.0079   -2.5458 H   0  0  0  0  0  0  0  0  0  0  0  0
   -0.9554    2.9410   -0.7873 H   0  0  0  0  0  0  0  0  0  0  0  0
   -1.0119    0.6187   -1.8075 H   0  0  0  0  0  0  0  0  0  0  0  0
    0.5662    0.9024   -2.5269 H   0  0  0  0  0  0  0  0  0  0  0  0
    1.5684    1.1008   -0.2379 H   0  0  0  0  0  0  0  0  0  0  0  0
    0.2694    1.1537    1.7542 H   0  0  0  0  0  0  0  0  0  0  0  0
   -1.2707    0.9195    0.8824 H   0  0  0  0  0  0  0  0  0  0  0  0
   -0.9461   -1.8670    2.6979 H   0  0  0  0  0  0  0  0  0  0  0  0
    0.3487   -2.8098    1.9391 H   0  0  0  0  0  0  0  0  0  0  0  0
    0.7429   -1.4048    2.9569 H   0  0  0  0  0  0  0  0  0  0  0  0
    1.5052   -1.5686   -0.6313 H   0  0  0  0  0  0  0  0  0  0  0  0
  1  9  1  0  0  0  0
  1 11  1  0  0  0  0
  2  1  1  0  0  0  0
  2  3  1  0  0  0  0
  3  8  1  6  0  0  0
  3 14  1  0  0  0  0
  3  4  1  0  0  0  0
  4  5  1  0  0  0  0
  4 15  1  0  0  0  0
  5  8  1  6  0  0  0
  5  6  1  0  0  0  0
  6 17  1  0  0  0  0
  6 19  1  0  0  0  0
  7  5  1  0  0  0  0
  8 20  1  6  0  0  0
  8  7  1  0  0  0  0
 10  1  1  0  0  0  0
 12  2  1  0  0  0  0
 13  2  1  0  0  0  0
 16  4  1  0  0  0  0
 18  6  1  0  0  0  0
M  END
