20
title
C -0.59590495 2.6985586 -1.0206804
O -0.07406453 1.4101896 -1.2477299
C 0.3980956 0.7889839 -0.077562414
C -0.6482533 0.1980402 0.93575495
C -0.01609112 -1.1870382 0.7266049
C 0.21696375 -2.1912184 1.8178629
C -0.123524405 -1.5472996 -0.7271346
C 0.96903807 -0.60103494 -0.2994677
H 0.16072719 3.3747847 -0.5909871
H -0.9154624 3.0971942 -1.9867138
H -1.4626487 2.6816447 -0.34221008
H 1.1085904 1.4521258 0.43850937
H -0.52134097 0.59036344 1.9483
H -1.7002579 0.29070565 0.6457972
H -0.7272821 -2.634125 2.158098
H 0.8581216 -3.009339 1.4731137
H 0.6983569 -1.732178 2.689389
H 0.219047 -2.5450575 -0.98428035
H -0.94621843 -1.1845846 -1.3371683
H 2.0169306 -0.82723767 -0.45808628
