19
title
C -0.004212614 2.811804 0.23169129
C -0.3070352 1.3691212 -0.040451534
C -1.2001104 0.53702724 0.784045
N 0.25285572 0.23064767 0.8102988
C 0.5744723 -0.50230086 -0.47793034
C 0.042197857 -1.9210922 -0.55556333
O 0.56909263 -2.7102845 0.49583778
C -0.0009371603 0.639315 -1.3548372
H 1.0059468 3.0743196 -0.10070855
H -0.711372 3.4624639 -0.29656515
H -0.07727523 3.0283618 1.3013059
H -1.5435586 0.94832087 1.7285268
H -1.8987558 -0.15385164 0.31841812
H 1.6651986 -0.5455625 -0.543535
H -1.0600463 -1.9320465 -0.55068034
H 0.36031264 -2.3864088 -1.495954
H 0.4960512 -2.1820831 1.2999997
H -0.86759865 0.41119418 -1.9835697
H 0.7567841 1.1288557 -1.969565
