19
title
C -1.1117123 2.7523398 0.8538868
C -1.3180312 1.2396662 0.81466043
N -0.5325728 0.6266959 -0.24548158
C 0.948438 0.50961864 -0.074493565
C 0.8417335 -0.9947851 -0.35456857
O 1.6737422 -1.6928163 -1.2077572
C -0.058568034 -1.649992 0.6619681
C -0.6517944 -0.81305075 -0.46333846
H -0.06836715 3.0037456 1.0739137
H -1.3685653 3.1998901 -0.11046449
H -1.7334822 3.208584 1.6303581
H -1.0983098 0.8112854 1.811143
H -2.3714824 1.0149549 0.6067681
H 1.4957098 1.0610927 -0.84542596
H 1.3312682 0.7895954 0.91692066
H 2.3633342 -2.1118686 -0.68151677
H -0.17685589 -2.7198672 0.5183452
H -0.08624104 -1.3189828 1.696896
H -1.3667629 -1.2160163 -1.1723232
