title
 OpenBabel02282109593D

 19 20  0  0  1  0  0  0  0  0999 V2000
   -0.0042    2.8118    0.2317 C   0  0  0  0  0  0  0  0  0  0  0  0
   -0.3070    1.3691   -0.0405 C   0  0  2  0  0  0  0  0  0  0  0  0
   -1.2001    0.5370    0.7840 C   0  0  0  0  0  0  0  0  0  0  0  0
    0.2529    0.2306    0.8103 N   0  0  1  0  0  0  0  0  0  0  0  0
    0.5745   -0.5023   -0.4779 C   0  0  1  0  0  0  0  0  0  0  0  0
    0.0422   -1.9211   -0.5556 C   0  0  0  0  0  0  0  0  0  0  0  0
    0.5691   -2.7103    0.4958 O   0  0  0  0  0  0  0  0  0  0  0  0
   -0.0009    0.6393   -1.3548 C   0  0  0  0  0  0  0  0  0  0  0  0
    1.0059    3.0743   -0.1007 H   0  0  0  0  0  0  0  0  0  0  0  0
   -0.7114    3.4625   -0.2966 H   0  0  0  0  0  0  0  0  0  0  0  0
   -0.0773    3.0284    1.3013 H   0  0  0  0  0  0  0  0  0  0  0  0
   -1.5436    0.9483    1.7285 H   0  0  0  0  0  0  0  0  0  0  0  0
   -1.8988   -0.1539    0.3184 H   0  0  0  0  0  0  0  0  0  0  0  0
    1.6652   -0.5456   -0.5435 H   0  0  0  0  0  0  0  0  0  0  0  0
   -1.0600   -1.9320   -0.5507 H   0  0  0  0  0  0  0  0  0  0  0  0
    0.3603   -2.3864   -1.4960 H   0  0  0  0  0  0  0  0  0  0  0  0
    0.4961   -2.1821    1.3000 H   0  0  0  0  0  0  0  0  0  0  0  0
   -0.8676    0.4112   -1.9836 H   0  0  0  0  0  0  0  0  0  0  0  0
    0.7568    1.1289   -1.9696 H   0  0  0  0  0  0  0  0  0  0  0  0
  1 11  1  0  0  0  0
  2  1  1  0  0  0  0
  2  3  1  0  0  0  0
  2  4  1  1  0  0  0
  3  4  1  0  0  0  0
  3 12  1  0  0  0  0
  4  5  1  6  0  0  0
  5 14  1  6  0  0  0
  6 15  1  0  0  0  0
  6  5  1  0  0  0  0
  6  7  1  0  0  0  0
  7 17  1  0  0  0  0
  8  5  1  0  0  0  0
  8  2  1  0  0  0  0
  9  1  1  0  0  0  0
 10  1  1  0  0  0  0
 13  3  1  0  0  0  0
 16  6  1  0  0  0  0
 18  8  1  0  0  0  0
 19  8  1  0  0  0  0
M  END
