title
 OpenBabel02282109593D

 18 19  0  0  1  0  0  0  0  0999 V2000
    1.1640    2.7312    0.0746 C   0  0  0  0  0  0  0  0  0  0  0  0
    1.1175    1.4208    0.5925 O   0  0  0  0  0  0  0  0  0  0  0  0
   -0.1195    0.7997    0.4140 C   0  0  1  0  0  0  0  0  0  0  0  0
   -0.5317    0.2603   -1.0126 C   0  0  0  0  0  0  0  0  0  0  0  0
   -0.6721   -1.1314   -0.3685 C   0  0  1  0  0  0  0  0  0  0  0  0
   -1.5988   -2.2423   -0.7395 C   0  0  0  0  0  0  0  0  0  0  0  0
    0.6350   -1.4571    0.1202 O   0  0  0  0  0  0  0  0  0  0  0  0
   -0.2000   -0.6311    0.9406 C   0  0  1  0  0  0  0  0  0  0  0  0
    2.1593    3.1286    0.2863 H   0  0  0  0  0  0  0  0  0  0  0  0
    0.9994    2.7500   -1.0132 H   0  0  0  0  0  0  0  0  0  0  0  0
    0.4122    3.3832    0.5476 H   0  0  0  0  0  0  0  0  0  0  0  0
   -0.9333    1.4142    0.8324 H   0  0  0  0  0  0  0  0  0  0  0  0
   -1.4633    0.6930   -1.3847 H   0  0  0  0  0  0  0  0  0  0  0  0
    0.2451    0.3146   -1.7784 H   0  0  0  0  0  0  0  0  0  0  0  0
   -1.3261   -2.6654   -1.7130 H   0  0  0  0  0  0  0  0  0  0  0  0
   -1.5533   -3.0424    0.0040 H   0  0  0  0  0  0  0  0  0  0  0  0
   -2.6304   -1.8821   -0.8083 H   0  0  0  0  0  0  0  0  0  0  0  0
   -0.3913   -0.9706    1.9526 H   0  0  0  0  0  0  0  0  0  0  0  0
  1  9  1  0  0  0  0
  1 11  1  0  0  0  0
  1  2  1  0  0  0  0
  3  2  1  0  0  0  0
  3 12  1  0  0  0  0
  3  8  1  1  0  0  0
  4  5  1  0  0  0  0
  4  3  1  0  0  0  0
  5  7  1  0  0  0  0
  5  8  1  1  0  0  0
  6  5  1  0  0  0  0
  6 16  1  0  0  0  0
  7  8  1  0  0  0  0
  8 18  1  1  0  0  0
 10  1  1  0  0  0  0
 13  4  1  0  0  0  0
 14  4  1  0  0  0  0
 15  6  1  0  0  0  0
 17  6  1  0  0  0  0
M  END
