title
 OpenBabel02282109593D

 16 17  0  0  1  0  0  0  0  0999 V2000
    0.3272    2.2098    0.0885 C   0  0  0  0  0  0  0  0  0  0  0  0
    0.3470    0.7020    0.0690 C   0  0  1  0  0  0  0  0  0  0  0  0
    1.0391   -0.1545   -1.0468 C   0  0  0  0  0  0  0  0  0  0  0  0
    0.1671   -1.3273   -0.5024 C   0  0  1  0  0  0  0  0  0  0  0  0
    0.6226   -1.3845    0.9452 C   0  0  0  0  0  0  0  0  0  0  0  0
    0.7388   -0.0937    1.3079 C   0  0  0  0  0  0  0  0  0  0  0  0
   -0.9188   -0.1899   -0.2979 C   0  0  0  0  0  0  0  0  0  0  0  0
   -2.0876   -0.0415   -0.4275 O   0  0  0  0  0  0  0  0  0  0  0  0
    1.3348    2.6174    0.2230 H   0  0  0  0  0  0  0  0  0  0  0  0
   -0.0784    2.6110   -0.8451 H   0  0  0  0  0  0  0  0  0  0  0  0
   -0.2966    2.5818    0.9077 H   0  0  0  0  0  0  0  0  0  0  0  0
    0.7717    0.1588   -2.0618 H   0  0  0  0  0  0  0  0  0  0  0  0
    2.1191   -0.2825   -0.9345 H   0  0  0  0  0  0  0  0  0  0  0  0
   -0.0180   -2.2445   -1.0554 H   0  0  0  0  0  0  0  0  0  0  0  0
    0.6936   -2.2757    1.5522 H   0  0  0  0  0  0  0  0  0  0  0  0
    0.9282    0.3301    2.2847 H   0  0  0  0  0  0  0  0  0  0  0  0
  1  9  1  0  0  0  0
  1 11  1  0  0  0  0
  2  1  1  6  0  0  0
  2  6  1  0  0  0  0
  3 13  1  0  0  0  0
  3  4  1  0  0  0  0
  3  2  1  0  0  0  0
  4 14  1  6  0  0  0
  4  7  1  0  0  0  0
  4  5  1  0  0  0  0
  5  6  2  0  0  0  0
  5 15  1  0  0  0  0
  6 16  1  0  0  0  0
  7  2  1  0  0  0  0
  8  7  2  0  0  0  0
 10  1  1  0  0  0  0
 12  3  1  0  0  0  0
M  END
