18
title
C -0.63264227 2.681506 1.0831991
O -1.0611466 1.3886617 0.72219306
C -0.28802404 0.813915 -0.30065855
C 1.135579 0.25055474 0.07199772
C 0.634973 -1.1363401 -0.3475171
O 1.3755409 -2.0366502 -1.0925531
C -0.5614144 -1.5352936 0.46437338
C -0.7395549 -0.5830324 -0.70180225
H 0.396892 2.683063 1.4724898
H -0.6767766 3.3774168 0.23025014
H -1.3043996 3.0413303 1.8663307
H -0.22828905 1.4974236 -1.160084
H 1.9190153 0.6297751 -0.58781385
H 1.4456292 0.36475605 1.1161263
H 1.8469287 -2.6161785 -0.48412856
H -0.91908616 -2.5400767 0.26345566
H -0.7047381 -1.1865401 1.4830359
H -1.3902822 -0.8203657 -1.533674
