title
 OpenBabel02282109593D

 18 19  0  0  1  0  0  0  0  0999 V2000
    1.3685    2.5573    0.5168 O   0  0  0  0  0  0  0  0  0  0  0  0
    1.4521    1.1659    0.7981 C   0  0  0  0  0  0  0  0  0  0  0  0
    0.0552    0.5899    0.6692 C   0  0  1  0  0  0  0  0  0  0  0  0
   -0.6130    0.5524   -0.7493 C   0  0  0  0  0  0  0  0  0  0  0  0
   -0.8031   -0.9618   -0.5824 C   0  0  1  0  0  0  0  0  0  0  0  0
   -1.9603   -1.6433   -0.9189 O   0  0  0  0  0  0  0  0  0  0  0  0
    0.5156   -1.6513   -0.3932 C   0  0  0  0  0  0  0  0  0  0  0  0
   -0.1274   -0.9309    0.7800 C   0  0  1  0  0  0  0  0  0  0  0  0
    2.2546    2.9278    0.5630 H   0  0  0  0  0  0  0  0  0  0  0  0
    2.1407    0.6633    0.1012 H   0  0  0  0  0  0  0  0  0  0  0  0
    1.8316    0.9853    1.8175 H   0  0  0  0  0  0  0  0  0  0  0  0
   -0.5971    1.1132    1.3741 H   0  0  0  0  0  0  0  0  0  0  0  0
   -1.5624    1.0903   -0.7715 H   0  0  0  0  0  0  0  0  0  0  0  0
    0.0031    0.8803   -1.5931 H   0  0  0  0  0  0  0  0  0  0  0  0
   -1.8748   -1.9540   -1.8270 H   0  0  0  0  0  0  0  0  0  0  0  0
    0.4428   -2.7325   -0.3284 H   0  0  0  0  0  0  0  0  0  0  0  0
    1.4263   -1.2873   -0.8633 H   0  0  0  0  0  0  0  0  0  0  0  0
   -0.3868   -1.4685    1.6840 H   0  0  0  0  0  0  0  0  0  0  0  0
  1  9  1  0  0  0  0
  1  2  1  0  0  0  0
  2 11  1  0  0  0  0
  3  8  1  1  0  0  0
  3  2  1  0  0  0  0
  3 12  1  0  0  0  0
  4  5  1  0  0  0  0
  4  3  1  0  0  0  0
  5  7  1  0  0  0  0
  5  8  1  1  0  0  0
  6  5  1  0  0  0  0
  7 16  1  0  0  0  0
  7  8  1  0  0  0  0
  8 18  1  1  0  0  0
 10  2  1  0  0  0  0
 13  4  1  0  0  0  0
 14  4  1  0  0  0  0
 15  6  1  0  0  0  0
 17  7  1  0  0  0  0
M  END
