title
 OpenBabel02282109593D

 14 15  0  0  1  0  0  0  0  0999 V2000
    0.3647    2.1743   -0.0563 C   0  0  0  0  0  0  0  0  0  0  0  0
    0.3213    0.6796    0.0428 C   0  0  1  0  0  0  0  0  0  0  0  0
    0.6566   -0.0614   -1.1759 O   0  0  0  0  0  0  0  0  0  0  0  0
    0.0827   -1.2381   -0.5468 C   0  0  1  0  0  0  0  0  0  0  0  0
    0.8990   -1.3843    0.7161 C   0  0  0  0  0  0  0  0  0  0  0  0
    1.0590   -0.1067    1.1083 C   0  0  0  0  0  0  0  0  0  0  0  0
   -1.0097   -0.2118   -0.0068 C   0  0  0  0  0  0  0  0  0  0  0  0
   -2.1784   -0.0993    0.1206 O   0  0  0  0  0  0  0  0  0  0  0  0
    1.3814    2.5182   -0.2692 H   0  0  0  0  0  0  0  0  0  0  0  0
   -0.2974    2.5284   -0.8500 H   0  0  0  0  0  0  0  0  0  0  0  0
    0.0412    2.6208    0.8885 H   0  0  0  0  0  0  0  0  0  0  0  0
   -0.1127   -2.0720   -1.2152 H   0  0  0  0  0  0  0  0  0  0  0  0
    1.1747   -2.3054    1.2076 H   0  0  0  0  0  0  0  0  0  0  0  0
    1.5043    0.2963    2.0064 H   0  0  0  0  0  0  0  0  0  0  0  0
  1 11  1  0  0  0  0
  2  1  1  1  0  0  0
  2  6  1  0  0  0  0
  3  4  1  0  0  0  0
  3  2  1  0  0  0  0
  4 12  1  6  0  0  0
  4  7  1  0  0  0  0
  4  5  1  0  0  0  0
  5  6  2  0  0  0  0
  5 13  1  0  0  0  0
  6 14  1  0  0  0  0
  7  2  1  0  0  0  0
  7  8  2  0  0  0  0
  9  1  1  0  0  0  0
 10  1  1  0  0  0  0
M  END
