title
 OpenBabel02282109593D

 14 15  0  0  1  0  0  0  0  0999 V2000
   -0.1996    2.0547   -0.3773 O   0  0  0  0  0  0  0  0  0  0  0  0
   -0.1196    0.6763   -0.3397 C   0  0  1  0  0  0  0  0  0  0  0  0
   -1.4176   -0.1745   -0.3731 C   0  0  0  0  0  0  0  0  0  0  0  0
   -0.4973   -1.3354    0.1239 C   0  0  1  0  0  0  0  0  0  0  0  0
    0.5400   -1.3957   -0.9823 C   0  0  0  0  0  0  0  0  0  0  0  0
    0.7785   -0.1072   -1.2894 C   0  0  0  0  0  0  0  0  0  0  0  0
    0.2092   -0.1908    0.9692 C   0  0  0  0  0  0  0  0  0  0  0  0
    0.6844   -0.0342    2.0429 O   0  0  0  0  0  0  0  0  0  0  0  0
    0.6729    2.4216   -0.1987 H   0  0  0  0  0  0  0  0  0  0  0  0
   -2.1577    0.1468    0.3661 H   0  0  0  0  0  0  0  0  0  0  0  0
   -1.8587   -0.3149   -1.3626 H   0  0  0  0  0  0  0  0  0  0  0  0
   -0.8846   -2.2491    0.5642 H   0  0  0  0  0  0  0  0  0  0  0  0
    1.0508   -2.2859   -1.3213 H   0  0  0  0  0  0  0  0  0  0  0  0
    1.5205    0.3248   -1.9468 H   0  0  0  0  0  0  0  0  0  0  0  0
  1  9  1  0  0  0  0
  2  1  1  1  0  0  0
  2  7  1  0  0  0  0
  3  2  1  0  0  0  0
  3  4  1  0  0  0  0
  3 10  1  0  0  0  0
  4 12  1  1  0  0  0
  4  7  1  0  0  0  0
  5  4  1  0  0  0  0
  6  5  2  0  0  0  0
  6  2  1  0  0  0  0
  7  8  2  0  0  0  0
 11  3  1  0  0  0  0
 13  5  1  0  0  0  0
 14  6  1  0  0  0  0
M  END
