title
 OpenBabel02282109593D

 19 20  0  0  1  0  0  0  0  0999 V2000
    1.1461    2.7331    0.0627 C   0  0  0  0  0  0  0  0  0  0  0  0
    1.1083    1.4322    0.6012 O   0  0  0  0  0  0  0  0  0  0  0  0
   -0.1146    0.7873    0.3990 C   0  0  1  0  0  0  0  0  0  0  0  0
   -0.4857    0.2271   -1.0303 C   0  0  0  0  0  0  0  0  0  0  0  0
   -0.6478   -1.1563   -0.3781 C   0  0  1  0  0  0  0  0  0  0  0  0
   -1.6495   -2.2097   -0.7336 C   0  0  0  0  0  0  0  0  0  0  0  0
    0.7040   -1.4814    0.1317 N   0  0  0  0  0  0  0  0  0  0  0  0
   -0.2019   -0.6283    0.9479 C   0  0  1  0  0  0  0  0  0  0  0  0
    2.1264    3.1544    0.2976 H   0  0  0  0  0  0  0  0  0  0  0  0
    1.0155    2.7318   -1.0302 H   0  0  0  0  0  0  0  0  0  0  0  0
    0.3676    3.3795    0.5001 H   0  0  0  0  0  0  0  0  0  0  0  0
   -0.9440    1.4023    0.7837 H   0  0  0  0  0  0  0  0  0  0  0  0
   -1.4097    0.6511   -1.4302 H   0  0  0  0  0  0  0  0  0  0  0  0
    0.3113    0.2799   -1.7753 H   0  0  0  0  0  0  0  0  0  0  0  0
   -1.4011   -2.6854   -1.6898 H   0  0  0  0  0  0  0  0  0  0  0  0
   -1.6850   -2.9941    0.0308 H   0  0  0  0  0  0  0  0  0  0  0  0
   -2.6548   -1.7846   -0.8262 H   0  0  0  0  0  0  0  0  0  0  0  0
    0.6533   -2.4153    0.5408 H   0  0  0  0  0  0  0  0  0  0  0  0
   -0.4773   -0.9247    1.9534 H   0  0  0  0  0  0  0  0  0  0  0  0
  1  9  1  0  0  0  0
  1 11  1  0  0  0  0
  1  2  1  0  0  0  0
  3  2  1  0  0  0  0
  3 12  1  0  0  0  0
  3  8  1  1  0  0  0
  4  5  1  0  0  0  0
  4  3  1  0  0  0  0
  5  7  1  0  0  0  0
  5  8  1  1  0  0  0
  6  5  1  0  0  0  0
  6 16  1  0  0  0  0
  7 18  1  0  0  0  0
  7  8  1  0  0  0  0
  8 19  1  1  0  0  0
 10  1  1  0  0  0  0
 13  4  1  0  0  0  0
 14  4  1  0  0  0  0
 15  6  1  0  0  0  0
 17  6  1  0  0  0  0
M  END
