16
title
O 0.06683359 2.03519 -0.4283026
C -0.047954 0.66380787 -0.34588927
C -1.4183698 -0.13756715 -0.33294037
C -0.5500327 -1.2868191 0.2767861
C 0.40706527 -1.6035244 -0.897655
C 0.7701218 -0.15026794 -1.363108
C 0.18376713 -0.11834918 0.9551915
O 0.5231171 0.19219677 2.0614464
H -0.030552499 2.3942587 0.46224844
H -2.1508605 0.27636775 0.36212325
H -1.8632874 -0.33200595 -1.3114377
H -0.9802884 -2.107759 0.84375024
H 1.2832094 -2.173025 -0.57788295
H -0.10051502 -2.1747012 -1.6791369
H 0.4509167 0.062021986 -2.386757
H 1.8372254 0.072340444 -1.2868189
