16
title
C 0.28346467 2.231331 0.10732478
C 0.30256948 0.72646105 0.06251204
C 1.0149525 -0.1383551 -1.0471534
C 0.11105499 -1.2721448 -0.48941076
O 0.5883908 -1.4382118 0.8530214
C 0.73876995 -0.06664631 1.3085667
C -0.9279775 -0.13760468 -0.32982704
O -2.0776985 0.06800863 -0.57300985
H 1.2844003 2.6395848 0.28348956
H -0.093120396 2.6456137 -0.83250725
H -0.37021965 2.5860243 0.9111056
H 0.7665081 0.17295352 -2.063934
H 2.088392 -0.2979919 -0.92389727
H -0.05880469 -2.2333772 -0.9660772
H 1.7818704 0.11653367 1.5940412
H 0.09370455 0.115314454 2.176565
