title
 OpenBabel02282109593D

 16 17  0  0  1  0  0  0  0  0999 V2000
    0.3230    2.1836   -0.0361 C   0  0  0  0  0  0  0  0  0  0  0  0
    0.2655    0.6889   -0.1219 C   0  0  1  0  0  0  0  0  0  0  0  0
    0.8441   -0.0678   -1.3374 C   0  0  0  0  0  0  0  0  0  0  0  0
    0.7196   -1.5331   -0.7984 C   0  0  0  0  0  0  0  0  0  0  0  0
    0.1032   -1.2102    0.5746 C   0  0  1  0  0  0  0  0  0  0  0  0
    0.8783   -0.0452    1.0069 O   0  0  0  0  0  0  0  0  0  0  0  0
   -0.9787   -0.1645    0.2339 C   0  0  0  0  0  0  0  0  0  0  0  0
   -2.1463    0.0056    0.3979 O   0  0  0  0  0  0  0  0  0  0  0  0
    1.3568    2.5379   -0.0996 H   0  0  0  0  0  0  0  0  0  0  0  0
   -0.2395    2.6237   -0.8652 H   0  0  0  0  0  0  0  0  0  0  0  0
   -0.1131    2.5362    0.9018 H   0  0  0  0  0  0  0  0  0  0  0  0
    0.2684    0.1096   -2.2501 H   0  0  0  0  0  0  0  0  0  0  0  0
    1.8812    0.2256   -1.5176 H   0  0  0  0  0  0  0  0  0  0  0  0
    0.0758   -2.1705   -1.4105 H   0  0  0  0  0  0  0  0  0  0  0  0
    1.6904   -2.0202   -0.6873 H   0  0  0  0  0  0  0  0  0  0  0  0
   -0.0071   -1.9859    1.3294 H   0  0  0  0  0  0  0  0  0  0  0  0
  1 11  1  0  0  0  0
  2  1  1  1  0  0  0
  2  7  1  0  0  0  0
  2  6  1  0  0  0  0
  3  4  1  0  0  0  0
  3  2  1  0  0  0  0
  4 15  1  0  0  0  0
  4  5  1  0  0  0  0
  5  6  1  0  0  0  0
  5 16  1  1  0  0  0
  7  8  2  0  0  0  0
  7  5  1  0  0  0  0
  9  1  1  0  0  0  0
 10  1  1  0  0  0  0
 12  3  1  0  0  0  0
 13  3  1  0  0  0  0
 14  4  1  0  0  0  0
M  END
