14
title
O 0.09106841 2.0547025 -0.41133493
C -0.057791185 0.6919953 -0.308649
C -1.4300283 -0.108761914 -0.31191012
C -0.5222551 -1.2587513 0.20121908
O 0.3640441 -1.4941403 -0.9033894
C 0.7375298 -0.15474719 -1.3148042
C 0.19131593 -0.12544346 0.97757155
O 0.52503145 0.14168262 2.0933347
H -0.015543083 2.4370568 0.4681014
H -2.151579 0.25518516 0.42206815
H -1.8834978 -0.27298498 -1.2907133
H -0.8797244 -2.1889172 0.6307674
H 0.4379777 0.020710284 -2.3539662
H 1.8190695 -0.009189253 -1.2193042
