17
title
C 0.32491866 2.2257485 -0.13751523
C 0.2849421 0.7200939 -0.12788911
N 0.74598986 -0.051547624 -1.3603286
C 0.014166264 -1.1940511 -0.67951363
C 0.88227683 -1.3373497 0.57339215
C 1.0628718 -0.06492201 0.9410418
C -1.043386 -0.1398481 -0.18454005
O -1.8509792 -0.34435114 0.92763364
H 1.3513036 2.5901947 -0.24854028
H -0.27094027 2.6326766 -0.9610109
H -0.08192423 2.6256256 0.79706854
H 0.16474955 0.25954828 -2.1464207
H -0.23333344 -2.077124 -1.2670493
H 1.2496669 -2.2548563 1.0093529
H 1.6217989 0.35850734 1.7636638
H -1.7021998 0.19224025 -0.9937572
H -1.2672993 -0.6433444 1.6389219
