title
 OpenBabel02282109593D

 16 17  0  0  1  0  0  0  0  0999 V2000
    0.2835    2.2313    0.1073 C   0  0  0  0  0  0  0  0  0  0  0  0
    0.3026    0.7265    0.0625 C   0  0  1  0  0  0  0  0  0  0  0  0
    1.0150   -0.1384   -1.0472 C   0  0  0  0  0  0  0  0  0  0  0  0
    0.1111   -1.2721   -0.4894 C   0  0  1  0  0  0  0  0  0  0  0  0
    0.5884   -1.4382    0.8530 O   0  0  0  0  0  0  0  0  0  0  0  0
    0.7388   -0.0666    1.3086 C   0  0  0  0  0  0  0  0  0  0  0  0
   -0.9280   -0.1376   -0.3298 C   0  0  0  0  0  0  0  0  0  0  0  0
   -2.0777    0.0680   -0.5730 O   0  0  0  0  0  0  0  0  0  0  0  0
    1.2844    2.6396    0.2835 H   0  0  0  0  0  0  0  0  0  0  0  0
   -0.0931    2.6456   -0.8325 H   0  0  0  0  0  0  0  0  0  0  0  0
   -0.3702    2.5860    0.9111 H   0  0  0  0  0  0  0  0  0  0  0  0
    0.7665    0.1730   -2.0639 H   0  0  0  0  0  0  0  0  0  0  0  0
    2.0884   -0.2980   -0.9239 H   0  0  0  0  0  0  0  0  0  0  0  0
   -0.0588   -2.2334   -0.9661 H   0  0  0  0  0  0  0  0  0  0  0  0
    1.7819    0.1165    1.5940 H   0  0  0  0  0  0  0  0  0  0  0  0
    0.0937    0.1153    2.1766 H   0  0  0  0  0  0  0  0  0  0  0  0
  1  9  1  0  0  0  0
  1 11  1  0  0  0  0
  2  1  1  6  0  0  0
  2  6  1  0  0  0  0
  3 13  1  0  0  0  0
  3  4  1  0  0  0  0
  3  2  1  0  0  0  0
  4 14  1  6  0  0  0
  4  7  1  0  0  0  0
  4  5  1  0  0  0  0
  5  6  1  0  0  0  0
  6 15  1  0  0  0  0
  6 16  1  0  0  0  0
  7  2  1  0  0  0  0
  8  7  2  0  0  0  0
 10  1  1  0  0  0  0
 12  3  1  0  0  0  0
M  END
