18
title
C -0.9814931 2.0190327 -0.46467492
C -0.78444153 0.50933456 -0.46143225
C 0.38357264 -0.12002164 -1.3256344
C 1.3501403 0.2754376 -0.15718268
C 0.08364898 -0.12631893 0.68314177
O -0.14220029 0.28396118 1.9940842
C -0.027058784 -1.615877 0.3067816
C 0.17204976 -1.6069001 -1.0138714
H -0.050038222 2.5830793 -0.37475792
H -1.4742278 2.3345766 -1.3909384
H -1.6254781 2.312388 0.3709417
H -1.7483168 0.011074814 -0.60076845
H 0.5666235 0.18540424 -2.3542
H 2.249291 -0.33246607 -0.032320578
H 1.590431 1.3393853 -0.109988056
H 0.48570675 -0.16657066 2.5688572
H -0.24750692 -2.4260495 0.9883345
H 0.17006415 -2.4202073 -1.7259985
