title
 OpenBabel02282109593D

 20 21  0  0  1  0  0  0  0  0999 V2000
   -0.9749    2.0209   -0.4977 C   0  0  0  0  0  0  0  0  0  0  0  0
   -0.7767    0.5104   -0.4679 C   0  0  1  0  0  0  0  0  0  0  0  0
    0.4013   -0.1164   -1.3106 C   0  0  1  0  0  0  0  0  0  0  0  0
    1.3405    0.2700   -0.1206 C   0  0  0  0  0  0  0  0  0  0  0  0
    0.0705   -0.1260    0.7170 C   0  0  1  0  0  0  0  0  0  0  0  0
   -0.1170    0.2592    2.1665 C   0  0  0  0  0  0  0  0  0  0  0  0
   -0.0379   -1.6083    0.3162 C   0  0  0  0  0  0  0  0  0  0  0  0
    0.1785   -1.6014   -1.0022 C   0  0  0  0  0  0  0  0  0  0  0  0
   -0.0504    2.5874   -0.3582 H   0  0  0  0  0  0  0  0  0  0  0  0
   -1.4070    2.3272   -1.4572 H   0  0  0  0  0  0  0  0  0  0  0  0
   -1.6749    2.3317    0.2865 H   0  0  0  0  0  0  0  0  0  0  0  0
   -1.7394    0.0140   -0.6271 H   0  0  0  0  0  0  0  0  0  0  0  0
    0.6046    0.1843   -2.3387 H   0  0  0  0  0  0  0  0  0  0  0  0
    2.2364   -0.3390    0.0222 H   0  0  0  0  0  0  0  0  0  0  0  0
    1.5932    1.3326   -0.0710 H   0  0  0  0  0  0  0  0  0  0  0  0
   -0.0439    1.3425    2.3076 H   0  0  0  0  0  0  0  0  0  0  0  0
   -1.0981   -0.0593    2.5379 H   0  0  0  0  0  0  0  0  0  0  0  0
    0.6445   -0.2094    2.8005 H   0  0  0  0  0  0  0  0  0  0  0  0
   -0.2563   -2.4288    0.9863 H   0  0  0  0  0  0  0  0  0  0  0  0
    0.1865   -2.4159   -1.7128 H   0  0  0  0  0  0  0  0  0  0  0  0
  1  2  1  0  0  0  0
  1  9  1  0  0  0  0
  1 11  1  0  0  0  0
  2  3  1  6  0  0  0
  3 13  1  6  0  0  0
  3  8  1  0  0  0  0
  3  4  1  0  0  0  0
  4 15  1  0  0  0  0
  4 14  1  0  0  0  0
  4  5  1  0  0  0  0
  5  2  1  6  0  0  0
  5  6  1  0  0  0  0
  6 16  1  0  0  0  0
  6 17  1  0  0  0  0
  6 18  1  0  0  0  0
  7  5  1  0  0  0  0
  7 19  1  0  0  0  0
  8  7  2  0  0  0  0
 10  1  1  0  0  0  0
 12  2  1  0  0  0  0
 20  8  1  0  0  0  0
M  END
