18
title
C 0.27913922 2.2037325 -0.07804547
C 0.23660217 0.7090682 -0.2178771
C 0.6110542 -0.09855192 -1.4934818
C -0.07248197 -1.2463685 -0.69100314
C 0.85211295 -1.3228767 0.52825207
O 1.0492368 0.08216608 0.7934424
C -1.06253 -0.13807122 -0.1949955
O -1.6925822 -0.24765764 1.0508318
H 1.3086022 2.5669305 -0.15159236
H -0.31674206 2.68216 -0.8605114
H -0.119726814 2.5002608 0.8964664
H 0.058049567 0.19838561 -2.3865967
H 1.6773951 -0.1942399 -1.7062614
H -0.40182227 -2.1791332 -1.1479336
H 0.3797006 -1.8010635 1.3926849
H 1.8126699 -1.8069243 0.31753975
H -1.7562965 0.16738571 -0.98779476
H -2.4862304 -0.7812475 0.9463879
