title
 OpenBabel02282109593D

 16 17  0  0  1  0  0  0  0  0999 V2000
    0.8931    1.8829   -0.2996 O   0  0  0  0  0  0  0  0  0  0  0  0
    0.8464    0.4808   -0.3108 C   0  0  1  0  0  0  0  0  0  0  0  0
    0.7930   -0.1686    1.1216 C   0  0  1  0  0  0  0  0  0  0  0  0
   -0.7146    0.2534    1.1511 C   0  0  0  0  0  0  0  0  0  0  0  0
   -0.5951   -0.1366   -0.3644 C   0  0  1  0  0  0  0  0  0  0  0  0
   -1.4466    0.3347   -1.3615 O   0  0  0  0  0  0  0  0  0  0  0  0
   -0.2324   -1.6232   -0.2639 C   0  0  0  0  0  0  0  0  0  0  0  0
    0.6825   -1.6394    0.7114 C   0  0  0  0  0  0  0  0  0  0  0  0
    0.3684    2.1887   -1.0490 H   0  0  0  0  0  0  0  0  0  0  0  0
    1.5767    0.0475   -1.0067 H   0  0  0  0  0  0  0  0  0  0  0  0
    1.4924    0.1209    1.9024 H   0  0  0  0  0  0  0  0  0  0  0  0
   -1.3879   -0.3416    1.7721 H   0  0  0  0  0  0  0  0  0  0  0  0
   -0.8518    1.3252    1.2998 H   0  0  0  0  0  0  0  0  0  0  0  0
   -2.3526    0.1014   -1.1340 H   0  0  0  0  0  0  0  0  0  0  0  0
   -0.6098   -2.4144   -0.8967 H   0  0  0  0  0  0  0  0  0  0  0  0
    1.2583   -2.4626    1.1104 H   0  0  0  0  0  0  0  0  0  0  0  0
  2  5  1  6  0  0  0
  2  1  1  0  0  0  0
  3  2  1  6  0  0  0
  3  4  1  0  0  0  0
  3 11  1  0  0  0  0
  4 13  1  0  0  0  0
  4 12  1  0  0  0  0
  5  6  1  6  0  0  0
  5  7  1  0  0  0  0
  5  4  1  0  0  0  0
  6 14  1  0  0  0  0
  7  8  2  0  0  0  0
  8 16  1  0  0  0  0
  8  3  1  0  0  0  0
  9  1  1  0  0  0  0
 10  2  1  0  0  0  0
 15  7  1  0  0  0  0
M  END
