16
title
O 0.89312863 1.8828815 -0.29963347
C 0.8464041 0.48084545 -0.3108156
C 0.7930163 -0.16862981 1.1215969
C -0.7145751 0.2534441 1.151093
C -0.5950741 -0.13657723 -0.36436397
O -1.4466373 0.3347393 -1.3615319
C -0.23243865 -1.6231879 -0.26393282
C 0.68245256 -1.639409 0.71143496
H 0.36835527 2.1887317 -1.0489691
H 1.576718 0.047450356 -1.0066917
H 1.4923866 0.120918654 1.9023963
H -1.3879064 -0.34161606 1.7721173
H -0.8518098 1.3252182 1.2997861
H -2.3525882 0.10136538 -1.1340282
H -0.6097854 -2.414393 -0.89668757
H 1.2582668 -2.4625733 1.1104283
