title
 OpenBabel02282109593D

 18 19  0  0  1  0  0  0  0  0999 V2000
    0.2791    2.2037   -0.0780 C   0  0  0  0  0  0  0  0  0  0  0  0
    0.2366    0.7091   -0.2179 C   0  0  1  0  0  0  0  0  0  0  0  0
    0.6111   -0.0986   -1.4935 C   0  0  0  0  0  0  0  0  0  0  0  0
   -0.0725   -1.2464   -0.6910 C   0  0  1  0  0  0  0  0  0  0  0  0
    0.8521   -1.3229    0.5283 C   0  0  0  0  0  0  0  0  0  0  0  0
    1.0492    0.0822    0.7934 O   0  0  0  0  0  0  0  0  0  0  0  0
   -1.0625   -0.1381   -0.1950 C   0  0  1  0  0  0  0  0  0  0  0  0
   -1.6926   -0.2477    1.0508 O   0  0  0  0  0  0  0  0  0  0  0  0
    1.3086    2.5669   -0.1516 H   0  0  0  0  0  0  0  0  0  0  0  0
   -0.3167    2.6822   -0.8605 H   0  0  0  0  0  0  0  0  0  0  0  0
   -0.1197    2.5003    0.8965 H   0  0  0  0  0  0  0  0  0  0  0  0
    0.0580    0.1984   -2.3866 H   0  0  0  0  0  0  0  0  0  0  0  0
    1.6774   -0.1942   -1.7063 H   0  0  0  0  0  0  0  0  0  0  0  0
   -0.4018   -2.1791   -1.1479 H   0  0  0  0  0  0  0  0  0  0  0  0
    0.3797   -1.8011    1.3927 H   0  0  0  0  0  0  0  0  0  0  0  0
    1.8127   -1.8069    0.3175 H   0  0  0  0  0  0  0  0  0  0  0  0
   -1.7563    0.1674   -0.9878 H   0  0  0  0  0  0  0  0  0  0  0  0
   -2.4862   -0.7812    0.9464 H   0  0  0  0  0  0  0  0  0  0  0  0
  1 11  1  0  0  0  0
  2  7  1  1  0  0  0
  2  1  1  0  0  0  0
  2  6  1  0  0  0  0
  3  4  1  0  0  0  0
  3  2  1  0  0  0  0
  4  7  1  1  0  0  0
  4  5  1  0  0  0  0
  5  6  1  0  0  0  0
  5 15  1  0  0  0  0
  7 17  1  6  0  0  0
  7  8  1  0  0  0  0
  9  1  1  0  0  0  0
 10  1  1  0  0  0  0
 12  3  1  0  0  0  0
 13  3  1  0  0  0  0
 14  4  1  0  0  0  0
 16  5  1  0  0  0  0
 18  8  1  0  0  0  0
M  END
