22
title
C -0.9442899 2.0511885 -0.46208343
C -0.77081627 0.537733 -0.4347191
C 0.3613644 -0.07845074 -1.3165414
C 1.3384409 0.23716539 -0.14991705
C 0.08777705 -0.083875835 0.72838426
C -0.036331143 0.36896053 2.1651094
C -0.08984241 -1.5913011 0.43602356
C 0.118711084 -1.5864104 -1.1159939
H -0.003057566 2.5953045 -0.34390467
H -1.3880322 2.368159 -1.4125087
H -1.6171638 2.3809462 0.33748642
H -1.7544236 0.06765938 -0.5668735
H 0.54620904 0.27108982 -2.333858
H 2.2179985 -0.404846 -0.03385474
H 1.6444216 1.2827886 -0.10048519
H 0.08487865 1.4532701 2.2599146
H -1.0162522 0.10510054 2.5810409
H 0.7254891 -0.1058166 2.7947662
H 0.6529115 -2.2002828 0.9615725
H -1.0816107 -1.950359 0.72973585
H -0.7605847 -1.9428529 -1.66103
H 0.9745329 -2.1925004 -1.4277797
