title
 OpenBabel02282109593D

 18 19  0  0  1  0  0  0  0  0999 V2000
    0.3003    2.2833   -0.1388 C   0  0  0  0  0  0  0  0  0  0  0  0
    0.2840    0.7757   -0.1921 C   0  0  1  0  0  0  0  0  0  0  0  0
    0.6866   -0.0659   -1.4465 C   0  0  0  0  0  0  0  0  0  0  0  0
   -0.0625   -1.1713   -0.6778 C   0  0  1  0  0  0  0  0  0  0  0  0
    0.7266   -1.3713    0.5166 O   0  0  0  0  0  0  0  0  0  0  0  0
    1.0452   -0.0032    0.8879 C   0  0  0  0  0  0  0  0  0  0  0  0
   -1.0484   -0.0773   -0.2128 C   0  0  1  0  0  0  0  0  0  0  0  0
   -1.7753   -0.2896    0.9590 O   0  0  0  0  0  0  0  0  0  0  0  0
    1.3221    2.6778   -0.1805 H   0  0  0  0  0  0  0  0  0  0  0  0
   -0.2573    2.7134   -0.9769 H   0  0  0  0  0  0  0  0  0  0  0  0
   -0.1598    2.6433    0.7882 H   0  0  0  0  0  0  0  0  0  0  0  0
    0.1728    0.2519   -2.3562 H   0  0  0  0  0  0  0  0  0  0  0  0
    1.7497   -0.2280   -1.6353 H   0  0  0  0  0  0  0  0  0  0  0  0
   -0.3511   -2.1370   -1.0893 H   0  0  0  0  0  0  0  0  0  0  0  0
    2.1296    0.1520    0.8571 H   0  0  0  0  0  0  0  0  0  0  0  0
    0.6818    0.2043    1.9011 H   0  0  0  0  0  0  0  0  0  0  0  0
   -1.7326    0.2660   -0.9921 H   0  0  0  0  0  0  0  0  0  0  0  0
   -1.2699   -0.9321    1.4749 H   0  0  0  0  0  0  0  0  0  0  0  0
  1 11  1  0  0  0  0
  2  7  1  1  0  0  0
  2  1  1  0  0  0  0
  2  6  1  0  0  0  0
  3  4  1  0  0  0  0
  3  2  1  0  0  0  0
  4  7  1  1  0  0  0
  4  5  1  0  0  0  0
  5  6  1  0  0  0  0
  6 16  1  0  0  0  0
  7 17  1  6  0  0  0
  7  8  1  0  0  0  0
  8 18  1  0  0  0  0
  9  1  1  0  0  0  0
 10  1  1  0  0  0  0
 12  3  1  0  0  0  0
 13  3  1  0  0  0  0
 14  4  1  0  0  0  0
 15  6  1  0  0  0  0
M  END
