15
title
C -0.67723376 2.4240267 -0.13352185
C -0.5397784 0.92506737 -0.15389104
N -1.4168437 0.060658243 0.6846842
C 0.06163338 0.1091158 0.92379665
C 0.7923852 -1.0456263 0.25720075
O 1.4818598 -1.8746947 0.8005068
C 0.5170561 -0.9032773 -1.2032201
C -0.20195484 0.20215955 -1.4324781
H 0.22398654 2.9068446 -0.5253072
H -1.5249108 2.7488182 -0.74763054
H -0.83879757 2.7888684 0.885579
H -1.8561671 0.6423459 1.4007746
H 0.43632963 0.5184918 1.8544009
H 0.85324955 -1.6310619 -1.9300694
H -0.55491376 0.54472065 -2.399208
