18
title
O 0.6329987 1.9352602 -0.4761907
C 0.79455554 0.5342012 -0.3754535
C 0.8967586 -0.06322571 1.0596063
C -0.6222716 0.23366733 1.2028549
C -0.61324745 -0.12802501 -0.3237235
O -1.6124268 0.24082817 -1.2102603
C -0.2627717 -1.6187465 -0.30713907
C 0.9031103 -1.573864 0.73880184
H 1.4771732 2.3585236 -0.29465932
H 1.5057312 0.16180982 -1.1270094
H 1.6275473 0.30720183 1.7789363
H -1.2092786 -0.3975915 1.8753034
H -0.8309552 1.2888285 1.3742602
H -1.5862026 1.2032249 -1.2751168
H -1.1093172 -2.2301238 0.015494923
H 0.056055635 -1.9711821 -1.2919651
H 1.8560067 -1.9072497 0.31675297
H 0.69757307 -2.1810534 1.6242543
