15
title
C -0.45137808 2.3826935 -0.46903595
C -0.4140117 0.8724576 -0.47657242
C 0.29990634 0.11593532 -1.5552527
N 0.8584964 0.19882143 -0.1879631
C 0.5397501 -0.9682619 0.61642265
O 1.3439263 -1.8023697 0.9355829
C -0.9172432 -0.91915613 0.91666055
C -1.4656677 0.1098259 0.26094687
H 0.42554608 2.7915363 -0.97589916
H -1.3479701 2.7473326 -0.9818837
H -0.46342105 2.7673652 0.55547965
H -0.109362476 -0.8385387 -1.876025
H 0.85792375 0.6621933 -2.3112986
H -1.4128476 -1.6740247 1.5114924
H -2.5096016 0.4010384 0.26281005
