title
 OpenBabel02282109593D

 18 19  0  0  1  0  0  0  0  0999 V2000
    0.6330    1.9353   -0.4762 O   0  0  0  0  0  0  0  0  0  0  0  0
    0.7946    0.5342   -0.3755 C   0  0  1  0  0  0  0  0  0  0  0  0
    0.8968   -0.0632    1.0596 C   0  0  1  0  0  0  0  0  0  0  0  0
   -0.6223    0.2337    1.2029 C   0  0  0  0  0  0  0  0  0  0  0  0
   -0.6132   -0.1280   -0.3237 C   0  0  1  0  0  0  0  0  0  0  0  0
   -1.6124    0.2408   -1.2103 O   0  0  0  0  0  0  0  0  0  0  0  0
   -0.2628   -1.6187   -0.3071 C   0  0  0  0  0  0  0  0  0  0  0  0
    0.9031   -1.5739    0.7388 C   0  0  0  0  0  0  0  0  0  0  0  0
    1.4772    2.3585   -0.2947 H   0  0  0  0  0  0  0  0  0  0  0  0
    1.5057    0.1618   -1.1270 H   0  0  0  0  0  0  0  0  0  0  0  0
    1.6275    0.3072    1.7789 H   0  0  0  0  0  0  0  0  0  0  0  0
   -1.2093   -0.3976    1.8753 H   0  0  0  0  0  0  0  0  0  0  0  0
   -0.8310    1.2888    1.3743 H   0  0  0  0  0  0  0  0  0  0  0  0
   -1.5862    1.2032   -1.2751 H   0  0  0  0  0  0  0  0  0  0  0  0
   -1.1093   -2.2301    0.0155 H   0  0  0  0  0  0  0  0  0  0  0  0
    0.0561   -1.9712   -1.2920 H   0  0  0  0  0  0  0  0  0  0  0  0
    1.8560   -1.9072    0.3168 H   0  0  0  0  0  0  0  0  0  0  0  0
    0.6976   -2.1811    1.6243 H   0  0  0  0  0  0  0  0  0  0  0  0
  1  2  1  0  0  0  0
  1  9  1  0  0  0  0
  2  5  1  6  0  0  0
  3  2  1  6  0  0  0
  3  4  1  0  0  0  0
  3 11  1  0  0  0  0
  4 13  1  0  0  0  0
  4 12  1  0  0  0  0
  5  6  1  6  0  0  0
  5  7  1  0  0  0  0
  5  4  1  0  0  0  0
  7 15  1  0  0  0  0
  7  8  1  0  0  0  0
  8  3  1  0  0  0  0
  8 18  1  0  0  0  0
 10  2  1  0  0  0  0
 14  6  1  0  0  0  0
 16  7  1  0  0  0  0
 17  8  1  0  0  0  0
M  END
