17
title
C -0.5842305 2.4661765 -0.053887468
C -0.5584656 0.9594572 -0.107382394
C -1.4759495 0.12460273 0.7357112
C 0.024148168 0.080880575 0.98194325
C 0.7308221 -1.027868 0.29521698
N 1.4818417 -1.887149 0.8355726
O 0.4363848 -0.9849367 -1.0480256
C -0.12612501 0.2877828 -1.4042751
H 0.38695586 2.8915803 -0.3303203
H -1.3361081 2.8738277 -0.7396551
H -0.8320036 2.8185441 0.95155656
H -2.0662403 0.63969576 1.4857125
H -1.9521345 -0.7512106 0.30585587
H 0.43313372 0.4564992 1.9097078
H 1.8696591 -2.5136 0.1280172
H -0.95094144 0.10706752 -2.101646
H 0.63975763 0.88544625 -1.9161166
