title
 OpenBabel02282109593D

 15 16  0  0  1  0  0  0  0  0999 V2000
   -0.6772    2.4240   -0.1335 C   0  0  0  0  0  0  0  0  0  0  0  0
   -0.5398    0.9251   -0.1539 C   0  0  2  0  0  0  0  0  0  0  0  0
   -1.4168    0.0607    0.6847 N   0  0  0  0  0  0  0  0  0  0  0  0
    0.0616    0.1091    0.9238 C   0  0  1  0  0  0  0  0  0  0  0  0
    0.7924   -1.0456    0.2572 C   0  0  0  0  0  0  0  0  0  0  0  0
    1.4819   -1.8747    0.8005 O   0  0  0  0  0  0  0  0  0  0  0  0
    0.5171   -0.9033   -1.2032 C   0  0  0  0  0  0  0  0  0  0  0  0
   -0.2020    0.2022   -1.4325 C   0  0  0  0  0  0  0  0  0  0  0  0
    0.2240    2.9068   -0.5253 H   0  0  0  0  0  0  0  0  0  0  0  0
   -1.5249    2.7488   -0.7476 H   0  0  0  0  0  0  0  0  0  0  0  0
   -0.8388    2.7889    0.8856 H   0  0  0  0  0  0  0  0  0  0  0  0
   -1.8562    0.6423    1.4008 H   0  0  0  0  0  0  0  0  0  0  0  0
    0.4363    0.5185    1.8544 H   0  0  0  0  0  0  0  0  0  0  0  0
    0.8532   -1.6311   -1.9301 H   0  0  0  0  0  0  0  0  0  0  0  0
   -0.5549    0.5447   -2.3992 H   0  0  0  0  0  0  0  0  0  0  0  0
  1 11  1  0  0  0  0
  2  1  1  0  0  0  0
  2  3  1  0  0  0  0
  2  4  1  1  0  0  0
  3  4  1  0  0  0  0
  3 12  1  0  0  0  0
  4 13  1  1  0  0  0
  5  6  2  0  0  0  0
  5  4  1  0  0  0  0
  7  5  1  0  0  0  0
  8  7  2  0  0  0  0
  8  2  1  0  0  0  0
  9  1  1  0  0  0  0
 10  1  1  0  0  0  0
 14  7  1  0  0  0  0
 15  8  1  0  0  0  0
M  END
