title
 OpenBabel02282109593D

 14 15  0  0  1  0  0  0  0  0999 V2000
    0.3747    2.2913   -0.4054 O   0  0  0  0  0  0  0  0  0  0  0  0
    0.4164    0.9014   -0.4068 C   0  0  2  0  0  0  0  0  0  0  0  0
    0.0543    0.1137   -1.6472 C   0  0  0  0  0  0  0  0  0  0  0  0
   -0.8455    0.0930   -0.4098 C   0  0  1  0  0  0  0  0  0  0  0  0
   -0.6213   -1.0553    0.5547 C   0  0  0  0  0  0  0  0  0  0  0  0
   -1.4248   -1.8994    0.8721 O   0  0  0  0  0  0  0  0  0  0  0  0
    0.7859   -0.9226    1.0418 C   0  0  0  0  0  0  0  0  0  0  0  0
    1.3443    0.1829    0.5331 C   0  0  0  0  0  0  0  0  0  0  0  0
    1.0842    2.6170   -0.9699 H   0  0  0  0  0  0  0  0  0  0  0  0
   -0.3314    0.6827   -2.4875 H   0  0  0  0  0  0  0  0  0  0  0  0
    0.6283   -0.7703   -1.9037 H   0  0  0  0  0  0  0  0  0  0  0  0
   -1.8242    0.5476   -0.4829 H   0  0  0  0  0  0  0  0  0  0  0  0
    1.2433   -1.6499    1.6994 H   0  0  0  0  0  0  0  0  0  0  0  0
    2.3528    0.5371    0.7190 H   0  0  0  0  0  0  0  0  0  0  0  0
  2  4  1  1  0  0  0
  2  1  1  0  0  0  0
  2  8  1  0  0  0  0
  3  4  1  0  0  0  0
  3  2  1  0  0  0  0
  4 12  1  6  0  0  0
  4  5  1  0  0  0  0
  5  6  2  0  0  0  0
  5  7  1  0  0  0  0
  7 13  1  0  0  0  0
  8 14  1  0  0  0  0
  8  7  2  0  0  0  0
  9  1  1  0  0  0  0
 10  3  1  0  0  0  0
 11  3  1  0  0  0  0
M  END
