title
 OpenBabel02282109593D

 17 18  0  0  1  0  0  0  0  0999 V2000
    0.1351    2.4489   -0.6267 C   0  0  0  0  0  0  0  0  0  0  0  0
    0.1091    0.9448   -0.5374 C   0  0  2  0  0  0  0  0  0  0  0  0
   -1.1473    0.1946   -0.9894 C   0  0  0  0  0  0  0  0  0  0  0  0
   -1.0621   -1.2030   -0.3408 C   0  0  0  0  0  0  0  0  0  0  0  0
   -0.0844   -1.0400    0.8382 C   0  0  0  0  0  0  0  0  0  0  0  0
   -0.0429   -1.7383    1.8201 O   0  0  0  0  0  0  0  0  0  0  0  0
    0.7508    0.1769    0.5839 C   0  0  1  0  0  0  0  0  0  0  0  0
    1.3759    0.2587   -0.7604 N   0  0  0  0  0  0  0  0  0  0  0  0
    1.0976    2.8370   -0.2860 H   0  0  0  0  0  0  0  0  0  0  0  0
   -0.0118    2.7742   -1.6630 H   0  0  0  0  0  0  0  0  0  0  0  0
   -0.6609    2.8914   -0.0188 H   0  0  0  0  0  0  0  0  0  0  0  0
   -2.0333    0.7275   -0.6278 H   0  0  0  0  0  0  0  0  0  0  0  0
   -1.2191    0.1618   -2.0822 H   0  0  0  0  0  0  0  0  0  0  0  0
   -2.0190   -1.5711    0.0336 H   0  0  0  0  0  0  0  0  0  0  0  0
   -0.6848   -1.9694   -1.0277 H   0  0  0  0  0  0  0  0  0  0  0  0
    1.3102    0.6203    1.4000 H   0  0  0  0  0  0  0  0  0  0  0  0
    1.2592   -0.6131   -1.2735 H   0  0  0  0  0  0  0  0  0  0  0  0
  1  2  1  0  0  0  0
  1  9  1  0  0  0  0
  1 11  1  0  0  0  0
  2  7  1  1  0  0  0
  3 12  1  0  0  0  0
  3  2  1  0  0  0  0
  3  4  1  0  0  0  0
  4 14  1  0  0  0  0
  4  5  1  0  0  0  0
  5  6  2  0  0  0  0
  7  5  1  0  0  0  0
  7 16  1  1  0  0  0
  8  2  1  0  0  0  0
  8  7  1  0  0  0  0
 10  1  1  0  0  0  0
 13  3  1  0  0  0  0
 15  4  1  0  0  0  0
 17  8  1  0  0  0  0
M  END
