17
title
C 0.13506162 2.448861 -0.626697
C 0.10911714 0.9448071 -0.5373894
C -1.1472899 0.1945885 -0.9894333
C -1.0621301 -1.2029682 -0.34082544
C -0.084433064 -1.0400437 0.83817106
O -0.042856157 -1.7383312 1.8201114
C 0.7508362 0.17687924 0.58392674
N 1.3758501 0.2587228 -0.76043326
H 1.097644 2.8369796 -0.2860278
H -0.011761235 2.7742484 -1.6630262
H -0.6609 2.8913674 -0.018751528
H -2.033253 0.7274727 -0.6277722
H -1.2191256 0.16176416 -2.0822463
H -2.0190148 -1.5711488 0.033558164
H -0.6848393 -1.9694351 -1.0276697
H 1.3101835 0.6203369 1.3999856
H 1.2592282 -0.6130537 -1.2734962
