16
title
C -0.6120116 2.3856938 -0.22805294
C -0.57617176 0.89249194 -0.08301634
C -1.3726833 0.14443563 0.93057907
C 0.16679713 0.13393049 0.9980451
C 0.81673956 -1.0088724 0.30036953
O 1.6445591 -1.7726678 0.7276013
C 0.27542213 -0.99698156 -1.1395047
O -0.39923805 0.23682432 -1.3271005
H 0.3213679 2.7539017 -0.66372997
H -1.4357234 2.6799676 -0.8863164
H -0.7612194 2.8653007 0.7427908
H -1.8606706 0.70894635 1.7173363
H -1.8871162 -0.7647758 0.6382101
H 0.6665566 0.59059143 1.8422687
H 1.1002347 -1.0809385 -1.8544756
H -0.39608613 -1.8536628 -1.2962142
