16
title
C -0.6878088 2.450894 -0.15259193
C -0.60422945 0.9456547 -0.12288574
C -1.4301594 0.12792236 0.82159334
C 0.08506413 0.1542319 0.9667763
C 0.78015375 -0.98591125 0.2975087
O 1.5247115 -1.7961385 0.76630163
O 0.429688 -1.0007124 -1.0291569
C -0.23245002 0.21405864 -1.4089353
H 0.24762209 2.894544 -0.51071036
H -1.4938638 2.787552 -0.8146871
H -0.8918507 2.8524632 0.8441545
H -1.9854413 0.6606133 1.5858874
H -1.8999177 -0.7874503 0.4748957
H 0.5412619 0.5839534 1.848209
H -1.0994421 -0.049233682 -2.0234115
H 0.4583241 0.8121571 -2.0160213
