title
 OpenBabel02282109593D

 16 17  0  0  1  0  0  0  0  0999 V2000
   -0.6878    2.4509   -0.1526 C   0  0  0  0  0  0  0  0  0  0  0  0
   -0.6042    0.9457   -0.1229 C   0  0  2  0  0  0  0  0  0  0  0  0
   -1.4302    0.1279    0.8216 C   0  0  0  0  0  0  0  0  0  0  0  0
    0.0851    0.1542    0.9668 C   0  0  1  0  0  0  0  0  0  0  0  0
    0.7802   -0.9859    0.2975 C   0  0  0  0  0  0  0  0  0  0  0  0
    1.5247   -1.7961    0.7663 O   0  0  0  0  0  0  0  0  0  0  0  0
    0.4297   -1.0007   -1.0292 O   0  0  0  0  0  0  0  0  0  0  0  0
   -0.2325    0.2141   -1.4089 C   0  0  0  0  0  0  0  0  0  0  0  0
    0.2476    2.8945   -0.5107 H   0  0  0  0  0  0  0  0  0  0  0  0
   -1.4939    2.7876   -0.8147 H   0  0  0  0  0  0  0  0  0  0  0  0
   -0.8919    2.8525    0.8442 H   0  0  0  0  0  0  0  0  0  0  0  0
   -1.9854    0.6606    1.5859 H   0  0  0  0  0  0  0  0  0  0  0  0
   -1.8999   -0.7875    0.4749 H   0  0  0  0  0  0  0  0  0  0  0  0
    0.5413    0.5840    1.8482 H   0  0  0  0  0  0  0  0  0  0  0  0
   -1.0994   -0.0492   -2.0234 H   0  0  0  0  0  0  0  0  0  0  0  0
    0.4583    0.8122   -2.0160 H   0  0  0  0  0  0  0  0  0  0  0  0
  1  2  1  0  0  0  0
  1 11  1  0  0  0  0
  2  3  1  0  0  0  0
  2  4  1  1  0  0  0
  3  4  1  0  0  0  0
  3 12  1  0  0  0  0
  4 14  1  1  0  0  0
  5  6  2  0  0  0  0
  5  4  1  0  0  0  0
  7  5  1  0  0  0  0
  8  7  1  0  0  0  0
  8  2  1  0  0  0  0
  9  1  1  0  0  0  0
 10  1  1  0  0  0  0
 13  3  1  0  0  0  0
 15  8  1  0  0  0  0
 16  8  1  0  0  0  0
M  END
