title
 OpenBabel02282109593D

 16 17  0  0  1  0  0  0  0  0999 V2000
   -0.6120    2.3857   -0.2281 C   0  0  0  0  0  0  0  0  0  0  0  0
   -0.5762    0.8925   -0.0830 C   0  0  2  0  0  0  0  0  0  0  0  0
   -1.3727    0.1444    0.9306 C   0  0  0  0  0  0  0  0  0  0  0  0
    0.1668    0.1339    0.9980 C   0  0  1  0  0  0  0  0  0  0  0  0
    0.8167   -1.0089    0.3004 C   0  0  0  0  0  0  0  0  0  0  0  0
    1.6446   -1.7727    0.7276 O   0  0  0  0  0  0  0  0  0  0  0  0
    0.2754   -0.9970   -1.1395 C   0  0  0  0  0  0  0  0  0  0  0  0
   -0.3992    0.2368   -1.3271 O   0  0  0  0  0  0  0  0  0  0  0  0
    0.3214    2.7539   -0.6637 H   0  0  0  0  0  0  0  0  0  0  0  0
   -1.4357    2.6800   -0.8863 H   0  0  0  0  0  0  0  0  0  0  0  0
   -0.7612    2.8653    0.7428 H   0  0  0  0  0  0  0  0  0  0  0  0
   -1.8607    0.7089    1.7173 H   0  0  0  0  0  0  0  0  0  0  0  0
   -1.8871   -0.7648    0.6382 H   0  0  0  0  0  0  0  0  0  0  0  0
    0.6666    0.5906    1.8423 H   0  0  0  0  0  0  0  0  0  0  0  0
    1.1002   -1.0809   -1.8545 H   0  0  0  0  0  0  0  0  0  0  0  0
   -0.3961   -1.8537   -1.2962 H   0  0  0  0  0  0  0  0  0  0  0  0
  1  2  1  0  0  0  0
  1 11  1  0  0  0  0
  2  3  1  0  0  0  0
  2  4  1  1  0  0  0
  3  4  1  0  0  0  0
  3 12  1  0  0  0  0
  4 14  1  1  0  0  0
  5  6  2  0  0  0  0
  5  4  1  0  0  0  0
  7  5  1  0  0  0  0
  8  7  1  0  0  0  0
  8  2  1  0  0  0  0
  9  1  1  0  0  0  0
 10  1  1  0  0  0  0
 13  3  1  0  0  0  0
 15  7  1  0  0  0  0
 16  7  1  0  0  0  0
M  END
