17
title
C -0.6914837 2.441322 -0.15271802
C -0.59879863 0.9359198 -0.15312614
C -1.4582498 0.11090522 0.76022506
C 0.047488034 0.13489306 0.9613593
C 0.7859519 -1.0078661 0.3178414
O 1.5191314 -1.8137782 0.84719723
N 0.46194965 -0.9714682 -1.0208571
C -0.19863817 0.24439013 -1.4615377
H 0.2511382 2.899447 -0.472592
H -1.4794624 2.7895334 -0.8311133
H -0.92663044 2.81989 0.8464218
H -2.0501857 0.6463417 1.4951804
H -1.9123765 -0.8040544 0.392577
H 0.46986943 0.57257164 1.856277
H 0.890294 -1.6251364 -1.6561607
H -1.0684401 0.027187817 -2.094806
H 0.48144954 0.88827384 -2.0384443
