15
title
C 0.22589834 2.4518907 -0.6422686
C 0.12957191 0.9627367 -0.47809803
C -1.1216357 0.2035426 -0.8897766
O -1.0904219 -1.0419866 -0.17242445
C -0.119492464 -1.0335705 0.7940939
N 0.006860754 -1.8863295 1.7149208
C 0.75154066 0.1566021 0.5827312
O 1.2966658 0.18310465 -0.7527848
H 1.18938 2.81049 -0.27349383
H 0.14150292 2.7301717 -1.6983371
H -0.573692 2.9586306 -0.09291963
H -2.0311491 0.7517024 -0.6160863
H -1.1416575 -0.01612644 -1.9615521
H -0.73644245 -2.5857959 1.663142
H 1.3813101 0.53197676 1.3803494
