15
title
C 0.16149406 2.4653237 -0.6539302
C 0.13706645 0.965619 -0.5298809
C -1.1415626 0.20595855 -0.8592638
O -1.0716119 -1.0442393 -0.15759708
C -0.09062401 -1.014289 0.8043748
O -0.008251019 -1.8456448 1.6591383
C 0.7883131 0.17381209 0.5535352
N 1.3712065 0.23821473 -0.80609405
H 1.1429888 2.8505185 -0.36968675
H -0.03236165 2.7719722 -1.6879088
H -0.5984088 2.9257598 -0.014581332
H -2.0279405 0.75366926 -0.5185134
H -1.2505362 -0.006172838 -1.9283595
H 1.3845018 0.5695411 1.3660437
H 1.1988102 -0.6284535 -1.3139426
