title
 OpenBabel02282109593D

 14 15  0  0  1  0  0  0  0  0999 V2000
    0.3088    2.3292   -0.3904 O   0  0  0  0  0  0  0  0  0  0  0  0
    0.3592    0.9431   -0.4371 C   0  0  2  0  0  0  0  0  0  0  0  0
   -0.0483    0.1793   -1.6546 C   0  0  0  0  0  0  0  0  0  0  0  0
   -0.8948    0.1149   -0.3825 C   0  0  1  0  0  0  0  0  0  0  0  0
   -0.5992   -1.0446    0.5133 C   0  0  0  0  0  0  0  0  0  0  0  0
   -1.3331   -1.9042    0.9023 O   0  0  0  0  0  0  0  0  0  0  0  0
    0.7279   -1.0079    0.8645 O   0  0  0  0  0  0  0  0  0  0  0  0
    1.3373    0.2370    0.4969 C   0  0  0  0  0  0  0  0  0  0  0  0
    0.9397    2.6798   -1.0281 H   0  0  0  0  0  0  0  0  0  0  0  0
   -0.4914    0.7540   -2.4603 H   0  0  0  0  0  0  0  0  0  0  0  0
    0.5141   -0.6971   -1.9614 H   0  0  0  0  0  0  0  0  0  0  0  0
   -1.8930    0.5290   -0.3889 H   0  0  0  0  0  0  0  0  0  0  0  0
    2.3081    0.0187    0.0405 H   0  0  0  0  0  0  0  0  0  0  0  0
    1.4895    0.8460    1.3950 H   0  0  0  0  0  0  0  0  0  0  0  0
  2  1  1  0  0  0  0
  2  4  1  1  0  0  0
  2  8  1  0  0  0  0
  3  2  1  0  0  0  0
  3  4  1  0  0  0  0
  4 12  1  1  0  0  0
  4  5  1  0  0  0  0
  5  7  1  0  0  0  0
  5  6  2  0  0  0  0
  8  7  1  0  0  0  0
  8 14  1  0  0  0  0
  9  1  1  0  0  0  0
 10  3  1  0  0  0  0
 11  3  1  0  0  0  0
 13  8  1  0  0  0  0
M  END
