15
title
C 0.19201905 2.4564786 -0.66939723
C 0.086165994 0.96833354 -0.4975068
C -1.2107576 0.2382813 -0.8518955
N -1.143505 -0.9683442 -0.04571912
C -0.07453281 -1.0593749 0.80892545
O 0.1329957 -1.9331533 1.6201949
C 0.77499944 0.16524278 0.52440363
O 1.2321599 0.18567239 -0.8433879
H 1.1836863 2.8012397 -0.36817822
H 0.038012665 2.7364988 -1.7173712
H -0.56031036 2.9748194 -0.06660923
H -2.0842927 0.8512587 -0.5929919
H -1.2512374 0.016944638 -1.9254998
H -1.7966814 -1.730173 -0.13023412
H 1.4586923 0.54737896 1.2745326
