15
title
O 0.17721117 2.3341124 -0.36096594
C 0.32433185 0.9540013 -0.405555
C 0.05815351 0.17268628 -1.6529695
C -0.8734868 0.041159447 -0.44888645
C -0.5720804 -1.0837709 0.47022995
N -1.3677503 -1.9966389 0.82463956
O 0.7374106 -0.9871927 0.88794327
C 1.2751426 0.31061715 0.5966785
H 0.82517725 2.7281072 -0.95468825
H -0.35667998 0.7245873 -2.4890966
H 0.7003439 -0.6616896 -1.9172425
H -1.8891933 0.40089476 -0.5277134
H -0.91594654 -2.6209245 1.4952682
H 2.2962277 0.17627871 0.2242941
H 1.302354 0.9163272 1.5104898
