16
title
C 0.16723546 2.4554527 -0.65951777
C 0.11349762 0.95549524 -0.5412054
C -1.2074059 0.2406993 -0.8439314
N -1.0927061 -1.0077621 -0.110133596
C -0.07453402 -1.0370777 0.81955004
O 0.071831584 -1.8635324 1.6915221
C 0.8063038 0.15009929 0.5097704
N 1.3295884 0.21580787 -0.87389493
H 1.1680086 2.8164098 -0.41272733
H -0.060855467 2.7737918 -1.6833235
H -0.55508554 2.9307814 0.012180261
H -2.0545409 0.8461031 -0.4924137
H -1.3417712 0.071941204 -1.9205983
H -1.8261441 -1.6972119 -0.07584227
H 1.4419022 0.5475531 1.291696
H 1.1190956 -0.6493655 -1.3692638
