14
title
C 0.19155705 2.4642532 -0.66419506
C 0.110242575 0.97598976 -0.48836005
C -1.1430135 0.2019794 -0.8672009
O -1.0962901 -1.0315824 -0.1321669
C -0.09291574 -1.0345924 0.7936984
O 0.021917077 -1.8842869 1.6259409
C 0.7639404 0.18343407 0.5610793
O 1.27639 0.20258921 -0.7855803
H 1.1643673 2.8314965 -0.3302008
H 0.06952494 2.7344134 -1.718591
H -0.5928698 2.9686136 -0.09153069
H -2.0531323 0.7432409 -0.5858587
H -1.176419 -0.032177683 -1.9351752
H 1.4100318 0.56224996 1.3445534
