title
 OpenBabel02282109593D

 15 16  0  0  1  0  0  0  0  0999 V2000
    0.2259    2.4519   -0.6423 C   0  0  0  0  0  0  0  0  0  0  0  0
    0.1296    0.9627   -0.4781 C   0  0  2  0  0  0  0  0  0  0  0  0
   -1.1216    0.2035   -0.8898 C   0  0  0  0  0  0  0  0  0  0  0  0
   -1.0904   -1.0420   -0.1724 O   0  0  0  0  0  0  0  0  0  0  0  0
   -0.1195   -1.0336    0.7941 C   0  0  0  0  0  0  0  0  0  0  0  0
    0.0069   -1.8863    1.7149 N   0  0  0  0  0  0  0  0  0  0  0  0
    0.7515    0.1566    0.5827 C   0  0  1  0  0  0  0  0  0  0  0  0
    1.2967    0.1831   -0.7528 O   0  0  0  0  0  0  0  0  0  0  0  0
    1.1894    2.8105   -0.2735 H   0  0  0  0  0  0  0  0  0  0  0  0
    0.1415    2.7302   -1.6983 H   0  0  0  0  0  0  0  0  0  0  0  0
   -0.5737    2.9586   -0.0929 H   0  0  0  0  0  0  0  0  0  0  0  0
   -2.0311    0.7517   -0.6161 H   0  0  0  0  0  0  0  0  0  0  0  0
   -1.1417   -0.0161   -1.9616 H   0  0  0  0  0  0  0  0  0  0  0  0
   -0.7364   -2.5858    1.6631 H   0  0  0  0  0  0  0  0  0  0  0  0
    1.3813    0.5320    1.3803 H   0  0  0  0  0  0  0  0  0  0  0  0
  1  2  1  0  0  0  0
  1  9  1  0  0  0  0
  1 11  1  0  0  0  0
  2  7  1  1  0  0  0
  3 12  1  0  0  0  0
  3  2  1  0  0  0  0
  3  4  1  0  0  0  0
  4  5  1  0  0  0  0
  5  6  2  0  0  0  0
  7  5  1  0  0  0  0
  7 15  1  1  0  0  0
  8  2  1  0  0  0  0
  8  7  1  0  0  0  0
 10  1  1  0  0  0  0
 13  3  1  0  0  0  0
 14  6  1  0  0  0  0
M  END
