title
 OpenBabel02282109593D

 16 17  0  0  1  0  0  0  0  0999 V2000
    0.3120    2.3050   -0.3933 O   0  0  0  0  0  0  0  0  0  0  0  0
    0.3842    0.9151   -0.4286 C   0  0  2  0  0  0  0  0  0  0  0  0
   -0.0886    0.1774   -1.6363 C   0  0  0  0  0  0  0  0  0  0  0  0
   -0.9016    0.1199   -0.3334 C   0  0  1  0  0  0  0  0  0  0  0  0
   -0.6368   -1.0584    0.5461 C   0  0  0  0  0  0  0  0  0  0  0  0
   -1.4637   -1.7654    1.0656 O   0  0  0  0  0  0  0  0  0  0  0  0
    0.8867   -1.1766    0.7348 C   0  0  0  0  0  0  0  0  0  0  0  0
    1.4419    0.2317    0.4397 C   0  0  0  0  0  0  0  0  0  0  0  0
    1.0002    2.6567   -0.9689 H   0  0  0  0  0  0  0  0  0  0  0  0
   -0.5474    0.7748   -2.4160 H   0  0  0  0  0  0  0  0  0  0  0  0
    0.4275   -0.7121   -1.9835 H   0  0  0  0  0  0  0  0  0  0  0  0
   -1.8787    0.5843   -0.3209 H   0  0  0  0  0  0  0  0  0  0  0  0
    1.1109   -1.5440    1.7376 H   0  0  0  0  0  0  0  0  0  0  0  0
    1.2691   -1.9242    0.0294 H   0  0  0  0  0  0  0  0  0  0  0  0
    2.4277    0.2152   -0.0381 H   0  0  0  0  0  0  0  0  0  0  0  0
    1.5318    0.8093    1.3653 H   0  0  0  0  0  0  0  0  0  0  0  0
  2  1  1  0  0  0  0
  2  4  1  1  0  0  0
  2  8  1  0  0  0  0
  3  2  1  0  0  0  0
  3  4  1  0  0  0  0
  4 12  1  1  0  0  0
  4  5  1  0  0  0  0
  5  7  1  0  0  0  0
  5  6  2  0  0  0  0
  7 13  1  0  0  0  0
  8  7  1  0  0  0  0
  8 16  1  0  0  0  0
  9  1  1  0  0  0  0
 10  3  1  0  0  0  0
 11  3  1  0  0  0  0
 14  7  1  0  0  0  0
 15  8  1  0  0  0  0
M  END
