title
 OpenBabel02282109593D

 16 17  0  0  1  0  0  0  0  0999 V2000
    0.1672    2.4555   -0.6595 C   0  0  0  0  0  0  0  0  0  0  0  0
    0.1135    0.9555   -0.5412 C   0  0  2  0  0  0  0  0  0  0  0  0
   -1.2074    0.2407   -0.8439 C   0  0  0  0  0  0  0  0  0  0  0  0
   -1.0927   -1.0078   -0.1101 N   0  0  0  0  0  0  0  0  0  0  0  0
   -0.0745   -1.0371    0.8196 C   0  0  0  0  0  0  0  0  0  0  0  0
    0.0718   -1.8635    1.6915 O   0  0  0  0  0  0  0  0  0  0  0  0
    0.8063    0.1501    0.5098 C   0  0  1  0  0  0  0  0  0  0  0  0
    1.3296    0.2158   -0.8739 N   0  0  0  0  0  0  0  0  0  0  0  0
    1.1680    2.8164   -0.4127 H   0  0  0  0  0  0  0  0  0  0  0  0
   -0.0609    2.7738   -1.6833 H   0  0  0  0  0  0  0  0  0  0  0  0
   -0.5551    2.9308    0.0122 H   0  0  0  0  0  0  0  0  0  0  0  0
   -2.0545    0.8461   -0.4924 H   0  0  0  0  0  0  0  0  0  0  0  0
   -1.3418    0.0719   -1.9206 H   0  0  0  0  0  0  0  0  0  0  0  0
   -1.8261   -1.6972   -0.0758 H   0  0  0  0  0  0  0  0  0  0  0  0
    1.4419    0.5476    1.2917 H   0  0  0  0  0  0  0  0  0  0  0  0
    1.1191   -0.6494   -1.3693 H   0  0  0  0  0  0  0  0  0  0  0  0
  1  2  1  0  0  0  0
  1  9  1  0  0  0  0
  1 11  1  0  0  0  0
  2  7  1  1  0  0  0
  3  2  1  0  0  0  0
  3 12  1  0  0  0  0
  3  4  1  0  0  0  0
  4 14  1  0  0  0  0
  4  5  1  0  0  0  0
  5  6  2  0  0  0  0
  7  5  1  0  0  0  0
  7 15  1  1  0  0  0
  8  2  1  0  0  0  0
  8  7  1  0  0  0  0
 10  1  1  0  0  0  0
 13  3  1  0  0  0  0
 16  8  1  0  0  0  0
M  END
