title
 OpenBabel02282109593D

 16 17  0  0  1  0  0  0  0  0999 V2000
   -0.6770    2.4850   -0.0683 C   0  0  0  0  0  0  0  0  0  0  0  0
   -0.3625    1.0197   -0.1498 C   0  0  2  0  0  0  0  0  0  0  0  0
   -1.1668    0.1413    0.6985 O   0  0  0  0  0  0  0  0  0  0  0  0
    0.2532    0.2081    0.9056 C   0  0  1  0  0  0  0  0  0  0  0  0
    0.9684   -0.9842    0.2587 C   0  0  1  0  0  0  0  0  0  0  0  0
    0.4526   -2.2302    0.6966 O   0  0  0  0  0  0  0  0  0  0  0  0
    0.7290   -0.7411   -1.2278 C   0  0  0  0  0  0  0  0  0  0  0  0
   -0.0049    0.3495   -1.4486 C   0  0  0  0  0  0  0  0  0  0  0  0
    0.1583    3.0802   -0.4520 H   0  0  0  0  0  0  0  0  0  0  0  0
   -1.5622    2.7243   -0.6677 H   0  0  0  0  0  0  0  0  0  0  0  0
   -0.8749    2.7792    0.9648 H   0  0  0  0  0  0  0  0  0  0  0  0
    0.5709    0.5999    1.8680 H   0  0  0  0  0  0  0  0  0  0  0  0
    2.0353   -0.9949    0.5088 H   0  0  0  0  0  0  0  0  0  0  0  0
   -0.5083   -2.1416    0.6375 H   0  0  0  0  0  0  0  0  0  0  0  0
    1.0620   -1.4534   -1.9739 H   0  0  0  0  0  0  0  0  0  0  0  0
   -0.3443    0.7152   -2.4111 H   0  0  0  0  0  0  0  0  0  0  0  0
  1 11  1  0  0  0  0
  2  1  1  0  0  0  0
  2  3  1  0  0  0  0
  2  4  1  1  0  0  0
  3  4  1  0  0  0  0
  4  5  1  6  0  0  0
  4 12  1  0  0  0  0
  5 13  1  1  0  0  0
  5  6  1  0  0  0  0
  7  5  1  0  0  0  0
  8  7  2  0  0  0  0
  8  2  1  0  0  0  0
  9  1  1  0  0  0  0
 10  1  1  0  0  0  0
 14  6  1  0  0  0  0
 15  7  1  0  0  0  0
 16  8  1  0  0  0  0
M  END
