16
title
C 0.19351032 2.4564297 -0.6959263
C 0.08308617 0.96847224 -0.5225157
C -1.203364 0.20233509 -0.84041196
N -1.1924136 -1.0261755 -0.0364614
C -0.15857285 -1.0081067 0.72089505
N 0.09553973 -1.9349333 1.7032514
C 0.7574481 0.16479275 0.5108832
O 1.2503518 0.19182292 -0.8433108
H 1.1765672 2.810798 -0.37622753
H 0.060083907 2.7316356 -1.747942
H -0.57571006 2.9739187 -0.113774225
H -2.0883715 0.80401146 -0.5935574
H -1.2670143 -0.043370165 -1.9072429
H -0.49407604 -2.7547798 1.6575379
H 1.0664471 -2.1418834 1.883184
H 1.4254957 0.5498054 1.2767996
