19
title
C -1.285721 2.1983252 -0.28153643
C -1.2015201 0.6653357 -0.3249978
C -0.43924692 0.12674847 -1.5255798
C 0.55463976 -0.6926285 -1.1813338
C 0.65107375 -0.82425356 0.3101389
C 1.1251974 -2.1038797 0.9473005
N 0.9847266 0.4927383 0.934439
C -0.42817774 0.04996124 0.8439451
H -0.2828454 2.624943 -0.20219001
H -1.7637502 2.5927722 -1.1841891
H -1.8728298 2.5327022 0.580232
H -2.2251234 0.2617483 -0.32789344
H -0.6799092 0.43046662 -2.539216
H 1.2366374 -1.1889855 -1.8626058
H 2.1849966 -2.2841666 0.73199826
H 1.005631 -2.0706537 2.035413
H 0.55953246 -2.9638875 0.57271004
H 1.3031869 0.3249516 1.8886644
H -0.95039356 -0.19114897 1.7648209
