title
 OpenBabel02282109593D

 19 20  0  0  1  0  0  0  0  0999 V2000
   -0.0183    2.7326   -0.3060 C   0  0  0  0  0  0  0  0  0  0  0  0
   -0.0591    1.2404   -0.3933 C   0  0  0  0  0  0  0  0  0  0  0  0
   -0.0497    0.4778   -1.4921 C   0  0  0  0  0  0  0  0  0  0  0  0
   -0.0932   -1.0032   -1.1830 C   0  0  0  0  0  0  0  0  0  0  0  0
   -0.0829   -1.0486    0.3492 C   0  0  1  0  0  0  0  0  0  0  0  0
   -0.7844   -2.1723    1.0664 C   0  0  0  0  0  0  0  0  0  0  0  0
    1.1647   -0.4831    0.9142 N   0  0  0  0  0  0  0  0  0  0  0  0
   -0.0662    0.3631    0.8206 C   0  0  1  0  0  0  0  0  0  0  0  0
    0.8853    3.0728    0.2155 H   0  0  0  0  0  0  0  0  0  0  0  0
   -0.0333    3.1938   -1.2973 H   0  0  0  0  0  0  0  0  0  0  0  0
   -0.8729    3.1229    0.2617 H   0  0  0  0  0  0  0  0  0  0  0  0
    0.0153    0.8572   -2.5066 H   0  0  0  0  0  0  0  0  0  0  0  0
   -0.9968   -1.4791   -1.5891 H   0  0  0  0  0  0  0  0  0  0  0  0
    0.7658   -1.5402   -1.6034 H   0  0  0  0  0  0  0  0  0  0  0  0
   -0.2813   -3.1304    0.8884 H   0  0  0  0  0  0  0  0  0  0  0  0
   -0.8039   -2.0011    2.1482 H   0  0  0  0  0  0  0  0  0  0  0  0
   -1.8200   -2.2747    0.7243 H   0  0  0  0  0  0  0  0  0  0  0  0
    1.2492   -0.8164    1.8750 H   0  0  0  0  0  0  0  0  0  0  0  0
   -0.5461    0.6804    1.7422 H   0  0  0  0  0  0  0  0  0  0  0  0
  1  9  1  0  0  0  0
  1 11  1  0  0  0  0
  2  1  1  0  0  0  0
  2  8  1  0  0  0  0
  3  4  1  0  0  0  0
  3  2  2  0  0  0  0
  4  5  1  0  0  0  0
  5  8  1  1  0  0  0
  5  7  1  0  0  0  0
  5  6  1  0  0  0  0
  6 16  1  0  0  0  0
  7 18  1  0  0  0  0
  8  7  1  0  0  0  0
  8 19  1  1  0  0  0
 10  1  1  0  0  0  0
 12  3  1  0  0  0  0
 13  4  1  0  0  0  0
 14  4  1  0  0  0  0
 15  6  1  0  0  0  0
 17  6  1  0  0  0  0
M  END
