18
title
C -0.05296095 2.738309 -0.3146265
C -0.056017507 1.2443596 -0.39525366
C -0.026745692 0.48716483 -1.4992104
C -0.06956601 -0.9935294 -1.1934859
C -0.029553179 -1.0420957 0.3369908
O -0.7967578 -2.0096474 0.98921645
C 1.1812738 -0.47907296 1.0320665
C -0.063080065 0.38391826 0.8300812
H 0.817024 3.104634 0.24492505
H -0.038891364 3.1947956 -1.3080851
H -0.940524 3.1066046 0.21557221
H 0.026525658 0.87240416 -2.5118866
H -0.99905956 -1.4583285 -1.5498632
H 0.75897086 -1.5459874 -1.6559705
H -0.29435405 -2.831549 0.9966626
H 1.3532357 -0.84314924 2.0399985
H 2.0731957 -0.24036554 0.4606988
H -0.63567996 0.66671 1.7068578
