17
title
C -0.6406339 2.4966736 -0.08779185
C -0.40826625 1.0106434 -0.14980496
N -1.2246506 0.08745695 0.7052868
C 0.24135874 0.20779526 0.91084236
C 0.9765042 -0.9712428 0.26135778
O 0.483346 -2.2281065 0.69427675
C 0.72998357 -0.7285807 -1.2242019
C -0.03604282 0.33943886 -1.4429646
H 0.21544193 3.0429754 -0.49779347
H -1.5257723 2.782091 -0.6678687
H -0.7914345 2.8315134 0.9436471
H -1.6966463 0.63451564 1.4245206
H 0.60671294 0.6441128 1.8339963
H 2.0439696 -0.9677439 0.5096601
H -0.47977167 -2.1366947 0.65851516
H 1.0833292 -1.4273618 -1.9737148
H -0.39204714 0.68770003 -2.406428
