18
title
C -0.00090722274 2.7406156 -0.302801
C -0.05485259 1.2492481 -0.39599112
C -0.054155126 0.48633164 -1.4954036
C -0.12431933 -0.99330086 -1.1852369
C -0.11612265 -1.0367866 0.34600464
C -0.73702997 -2.1883194 1.0875453
O 1.0881735 -0.49664015 0.908453
C -0.07624642 0.36155623 0.8122833
H 0.9023331 3.072928 0.22400078
H -0.007854088 3.2044888 -1.2928281
H -0.8551926 3.1358266 0.261605
H 0.023461085 0.8637925 -2.5097904
H -1.0346045 -1.4554741 -1.5904212
H 0.7251758 -1.5490468 -1.6013422
H -0.21077543 -3.1229608 0.8625196
H -0.68421966 -2.0226343 2.1664793
H -1.7862312 -2.3180723 0.80173826
H -0.47813317 0.693925 1.7666543
