title
 OpenBabel02282109593D

 20 21  0  0  1  0  0  0  0  0999 V2000
   -0.7105    2.5151    0.0861 C   0  0  0  0  0  0  0  0  0  0  0  0
   -0.5124    1.0351   -0.1364 C   0  0  2  0  0  0  0  0  0  0  0  0
   -1.4561    0.0459    0.5034 C   0  0  0  0  0  0  0  0  0  0  0  0
   -0.0042    0.1015    0.9400 C   0  0  1  0  0  0  0  0  0  0  0  0
    0.9462   -0.9054    0.3115 C   0  0  1  0  0  0  0  0  0  0  0  0
    0.9000   -2.2106    0.8663 O   0  0  0  0  0  0  0  0  0  0  0  0
    0.6238   -0.8488   -1.2032 C   0  0  0  0  0  0  0  0  0  0  0  0
    0.1177    0.5847   -1.4572 C   0  0  0  0  0  0  0  0  0  0  0  0
    0.2334    3.0625   -0.0226 H   0  0  0  0  0  0  0  0  0  0  0  0
   -1.4196    2.9331   -0.6387 H   0  0  0  0  0  0  0  0  0  0  0  0
   -1.1028    2.7205    1.0872 H   0  0  0  0  0  0  0  0  0  0  0  0
   -2.1864    0.4432    1.2005 H   0  0  0  0  0  0  0  0  0  0  0  0
   -1.8208   -0.8015   -0.0703 H   0  0  0  0  0  0  0  0  0  0  0  0
    0.2148    0.4590    1.9406 H   0  0  0  0  0  0  0  0  0  0  0  0
    1.9768   -0.5727    0.4835 H   0  0  0  0  0  0  0  0  0  0  0  0
   -0.0264   -2.4750    0.8934 H   0  0  0  0  0  0  0  0  0  0  0  0
    1.4866   -1.1161   -1.8175 H   0  0  0  0  0  0  0  0  0  0  0  0
   -0.1564   -1.5863   -1.4242 H   0  0  0  0  0  0  0  0  0  0  0  0
   -0.5775    0.6457   -2.3028 H   0  0  0  0  0  0  0  0  0  0  0  0
    0.9587    1.2504   -1.6893 H   0  0  0  0  0  0  0  0  0  0  0  0
  1 11  1  0  0  0  0
  2  1  1  0  0  0  0
  2  3  1  0  0  0  0
  2  4  1  1  0  0  0
  3  4  1  0  0  0  0
  3 12  1  0  0  0  0
  4  5  1  6  0  0  0
  4 14  1  0  0  0  0
  5 15  1  1  0  0  0
  5  6  1  0  0  0  0
  6 16  1  0  0  0  0
  7  5  1  0  0  0  0
  8  7  1  0  0  0  0
  8  2  1  0  0  0  0
  9  1  1  0  0  0  0
 10  1  1  0  0  0  0
 13  3  1  0  0  0  0
 17  7  1  0  0  0  0
 18  7  1  0  0  0  0
 19  8  1  0  0  0  0
 20  8  1  0  0  0  0
M  END
