20
title
C -1.0587239 2.4348469 -0.35539085
C -0.99338764 0.90675753 -0.34573442
C -0.25295052 0.30433524 -1.5689561
C 0.26138952 -1.0743822 -1.1042184
C 0.48908177 -0.91380614 0.3943072
O 0.48914507 -2.065201 1.1860182
C 1.2472179 0.30498558 0.8596009
C -0.2751588 0.29483885 0.85245645
H -0.05348429 2.8695123 -0.3194474
H -1.551474 2.8042064 -1.2616012
H -1.6168733 2.8163548 0.5060714
H -2.020758 0.5163157 -0.3383977
H -0.89716417 0.23837139 -2.450084
H 0.58793384 0.95085347 -1.8454797
H -0.50426686 -1.8469805 -1.241564
H 1.1552744 -1.3977107 -1.6509594
H 1.3436623 -2.497267 1.0806069
H 1.7093341 0.2235023 1.8373675
H 1.7969794 0.91640735 0.15062535
H -0.77162623 0.2848134 1.8166547
