title
 OpenBabel02282109593D

 18 19  0  0  1  0  0  0  0  0999 V2000
    0.1529    2.5201   -0.6579 C   0  0  0  0  0  0  0  0  0  0  0  0
   -0.0146    1.0425   -0.4376 C   0  0  2  0  0  0  0  0  0  0  0  0
   -1.3000    0.3334   -0.8478 C   0  0  0  0  0  0  0  0  0  0  0  0
   -1.1564   -1.0876   -0.2638 C   0  0  0  0  0  0  0  0  0  0  0  0
   -0.2176   -0.9533    0.9665 C   0  0  1  0  0  0  0  0  0  0  0  0
    0.5569   -2.1084    1.2304 O   0  0  0  0  0  0  0  0  0  0  0  0
    0.6069    0.2819    0.6526 C   0  0  1  0  0  0  0  0  0  0  0  0
    1.1551    0.2300   -0.6804 O   0  0  0  0  0  0  0  0  0  0  0  0
    1.1197    2.8605   -0.2792 H   0  0  0  0  0  0  0  0  0  0  0  0
    0.1020    2.7584   -1.7261 H   0  0  0  0  0  0  0  0  0  0  0  0
   -0.6407    3.0803   -0.1523 H   0  0  0  0  0  0  0  0  0  0  0  0
   -2.1509    0.8654   -0.4048 H   0  0  0  0  0  0  0  0  0  0  0  0
   -1.4470    0.3354   -1.9331 H   0  0  0  0  0  0  0  0  0  0  0  0
   -2.1135   -1.5434   -0.0024 H   0  0  0  0  0  0  0  0  0  0  0  0
   -0.6694   -1.7433   -0.9906 H   0  0  0  0  0  0  0  0  0  0  0  0
   -0.7947   -0.7766    1.8822 H   0  0  0  0  0  0  0  0  0  0  0  0
    1.1527   -2.2170    0.4793 H   0  0  0  0  0  0  0  0  0  0  0  0
    1.2506    0.7290    1.4066 H   0  0  0  0  0  0  0  0  0  0  0  0
  1  2  1  0  0  0  0
  1  9  1  0  0  0  0
  1 11  1  0  0  0  0
  2  7  1  1  0  0  0
  3  2  1  0  0  0  0
  3 12  1  0  0  0  0
  3  4  1  0  0  0  0
  4 14  1  0  0  0  0
  4  5  1  0  0  0  0
  5  7  1  6  0  0  0
  5  6  1  0  0  0  0
  5 16  1  0  0  0  0
  7 18  1  1  0  0  0
  8  2  1  0  0  0  0
  8  7  1  0  0  0  0
 10  1  1  0  0  0  0
 13  3  1  0  0  0  0
 15  4  1  0  0  0  0
 17  6  1  0  0  0  0
M  END
