20
title
C -0.9559869 2.440641 -0.32676047
C -0.9988028 0.9116436 -0.3508262
C -0.26420167 0.28169125 -1.5643371
C 0.21734086 -1.1093628 -1.0952425
C 0.4047579 -0.9546679 0.40799177
C 0.68329823 -2.1494932 1.2774146
O 1.1163712 0.25482804 0.7459369
C -0.31930092 0.24952503 0.8359494
H 0.07919994 2.790078 -0.2569585
H -1.3963555 2.8625515 -1.2362317
H -1.5080832 2.8444762 0.5286767
H -2.0478332 0.5812587 -0.34621844
H -0.9002878 0.2309831 -2.4518478
H 0.60028017 0.9014063 -1.8162919
H -0.5433111 -1.8793879 -1.2765237
H 1.1334522 -1.4329941 -1.6006671
H 1.6322715 -2.6200883 0.9968803
H 0.7488996 -1.855741 2.328045
H -0.106021434 -2.9015043 1.1711477
H -0.7205011 0.36677146 1.8413942
