18
title
C 0.1529097 2.5200846 -0.6579419
C -0.014596812 1.0425415 -0.43762517
C -1.2999637 0.33343756 -0.847847
C -1.1563817 -1.0875945 -0.2638426
C -0.21763997 -0.9533426 0.96647
O 0.5569001 -2.1083536 1.2303584
C 0.6069388 0.2818914 0.6526376
O 1.1551219 0.23004562 -0.68042284
H 1.1196604 2.8605075 -0.27920368
H 0.10198562 2.7583585 -1.7261174
H -0.64066917 3.0803177 -0.15226014
H -2.1508553 0.86540896 -0.4048413
H -1.4469554 0.33535707 -1.9331222
H -2.113515 -1.5434465 -0.002407539
H -0.6693513 -1.743324 -0.9905527
H -0.7946817 -0.7766356 1.8822443
H 1.152677 -2.217002 0.47928
H 1.2506121 0.7289979 1.4065827
