18
title
C -1.3689595 2.2025695 -0.2892626
C -1.1962014 0.6765793 -0.32470998
C -0.41520515 0.16982673 -1.5268465
C 0.5812352 -0.6467882 -1.1828337
C 0.6801741 -0.79397506 0.30517226
O 0.9449662 -2.0461757 0.8612521
C 1.0428478 0.47235483 1.0488487
C -0.41519842 0.08927641 0.8544422
H -0.400642 2.7110178 -0.25094453
H -1.8991034 2.5573344 -1.1795377
H -1.9463964 2.5090938 0.5885705
H -2.2028835 0.2326514 -0.34109336
H -0.6529826 0.48260328 -2.5382857
H 1.2682709 -1.1407207 -1.8614804
H 1.9005564 -2.1570852 0.90466493
H 1.4192373 0.34766307 2.0596516
H 1.472556 1.3006237 0.49506348
H -0.9534719 -0.22137882 1.7418144
