19
title
C 0.038004987 2.5498662 -0.5565498
C -0.004791116 1.0465019 -0.45457274
C -1.2845454 0.31755072 -0.86125124
C -1.1338997 -1.106756 -0.28835303
C -0.19877318 -0.95873374 0.9390977
O 0.63258344 -2.0890293 1.165362
C 0.648752 0.2592675 0.63066894
N 1.2648269 0.34520227 -0.70203406
H 1.003246 2.9297965 -0.21365088
H -0.0993553 2.873324 -1.5950216
H -0.7552164 3.0087917 0.04439076
H -2.1430755 0.8298292 -0.40999925
H -1.4472749 0.3245988 -1.9455479
H -2.0941207 -1.5615873 -0.029833054
H -0.6503536 -1.776741 -1.006904
H -0.79395837 -0.7406804 1.8412437
H 0.06782488 -2.8335204 1.3956915
H 1.2160618 0.71442634 1.437371
H 1.1398591 -0.5226187 -1.2173567
