20
title
C -1.0572008 2.408942 -0.37359565
C -1.0146592 0.8830148 -0.2837554
C -0.27002567 0.2202971 -1.4685278
O 0.2872414 -0.9986419 -0.9898866
C 0.48814934 -0.8843915 0.40462008
C 0.5943828 -2.2270436 1.0679758
C 1.2445468 0.33024395 0.88762194
C -0.2794158 0.30066133 0.91638297
H -0.046754196 2.8312016 -0.35504624
H -1.5427483 2.7390423 -1.2987916
H -1.6143671 2.83944 0.46429977
H -2.043191 0.50061035 -0.25417942
H -0.9235593 -0.0150904 -2.3137121
H 0.52376634 0.88795877 -1.8374592
H 1.4544221 -2.7831604 0.6803352
H 0.72074085 -2.114317 2.1481788
H -0.3055197 -2.8218966 0.8813191
H 1.7544657 0.25169623 1.8420105
H 1.7533752 0.961396 0.16654763
H -0.7838742 0.2798987 1.8763738
