title
 OpenBabel02282109593D

 20 21  0  0  1  0  0  0  0  0999 V2000
   -0.9574    2.3893   -0.3720 C   0  0  0  0  0  0  0  0  0  0  0  0
   -0.9628    0.8722   -0.2686 C   0  0  1  0  0  0  0  0  0  0  0  0
   -0.2832    0.3372   -1.4096 O   0  0  0  0  0  0  0  0  0  0  0  0
    0.1757   -0.9684   -1.0847 C   0  0  0  0  0  0  0  0  0  0  0  0
    0.4921   -0.9521    0.4060 C   0  0  1  0  0  0  0  0  0  0  0  0
    0.5807   -2.2658    1.1409 C   0  0  0  0  0  0  0  0  0  0  0  0
    1.2707    0.2611    0.8529 C   0  0  0  0  0  0  0  0  0  0  0  0
   -0.2386    0.2646    0.9246 C   0  0  1  0  0  0  0  0  0  0  0  0
    0.0647    2.7765   -0.3350 H   0  0  0  0  0  0  0  0  0  0  0  0
   -1.4147    2.7079   -1.3130 H   0  0  0  0  0  0  0  0  0  0  0  0
   -1.5267    2.8287    0.4531 H   0  0  0  0  0  0  0  0  0  0  0  0
   -2.0078    0.5138   -0.2584 H   0  0  0  0  0  0  0  0  0  0  0  0
   -0.6001   -1.7268   -1.2888 H   0  0  0  0  0  0  0  0  0  0  0  0
    1.0386   -1.1822   -1.7257 H   0  0  0  0  0  0  0  0  0  0  0  0
    1.4274   -2.8659    0.7868 H   0  0  0  0  0  0  0  0  0  0  0  0
    0.7171   -2.1095    2.2154 H   0  0  0  0  0  0  0  0  0  0  0  0
   -0.3289   -2.8623    1.0021 H   0  0  0  0  0  0  0  0  0  0  0  0
    1.8103    0.1847    1.7909 H   0  0  0  0  0  0  0  0  0  0  0  0
    1.7537    0.8762    0.1000 H   0  0  0  0  0  0  0  0  0  0  0  0
   -0.7336    0.2612    1.8894 H   0  0  0  0  0  0  0  0  0  0  0  0
  1  9  1  0  0  0  0
  1  2  1  0  0  0  0
  1 11  1  0  0  0  0
  2 12  1  0  0  0  0
  2  8  1  1  0  0  0
  3  4  1  0  0  0  0
  3  2  1  0  0  0  0
  4  5  1  0  0  0  0
  5  7  1  0  0  0  0
  5  8  1  1  0  0  0
  5  6  1  0  0  0  0
  6 16  1  0  0  0  0
  7  8  1  0  0  0  0
  7 18  1  0  0  0  0
  8 20  1  1  0  0  0
 10  1  1  0  0  0  0
 13  4  1  0  0  0  0
 14  4  1  0  0  0  0
 15  6  1  0  0  0  0
 17  6  1  0  0  0  0
 19  7  1  0  0  0  0
M  END
