18
title
C -1.0450513 2.370592 -0.38206056
C -1.0197136 0.8584253 -0.22801597
O -0.40736473 0.2995813 -1.4021648
C 0.12595145 -0.97470695 -1.083038
C 0.5336916 -0.89677244 0.38195413
O 0.76907414 -2.0777802 1.0763007
C 1.3001529 0.32036972 0.7830134
C -0.21191229 0.2995113 0.9321788
H -0.028936574 2.7735584 -0.41303214
H -1.5562533 2.6486025 -1.3081939
H -1.5769582 2.8295648 0.45706064
H -2.0555646 0.48515683 -0.1417649
H -0.6254407 -1.7765199 -1.2067902
H 0.95432657 -1.1750859 -1.7704986
H -0.052977033 -2.581238 1.1016096
H 1.8688239 0.23554407 1.7017145
H 1.7503382 0.93662935 0.011270854
H -0.6425653 0.28512257 1.9264379
