title
 OpenBabel02282109593D

 18 19  0  0  1  0  0  0  0  0999 V2000
   -1.0451    2.3706   -0.3821 C   0  0  0  0  0  0  0  0  0  0  0  0
   -1.0197    0.8584   -0.2280 C   0  0  1  0  0  0  0  0  0  0  0  0
   -0.4074    0.2996   -1.4022 O   0  0  0  0  0  0  0  0  0  0  0  0
    0.1260   -0.9747   -1.0830 C   0  0  0  0  0  0  0  0  0  0  0  0
    0.5337   -0.8968    0.3820 C   0  0  1  0  0  0  0  0  0  0  0  0
    0.7691   -2.0778    1.0763 O   0  0  0  0  0  0  0  0  0  0  0  0
    1.3002    0.3204    0.7830 C   0  0  0  0  0  0  0  0  0  0  0  0
   -0.2119    0.2995    0.9322 C   0  0  1  0  0  0  0  0  0  0  0  0
   -0.0289    2.7736   -0.4130 H   0  0  0  0  0  0  0  0  0  0  0  0
   -1.5563    2.6486   -1.3082 H   0  0  0  0  0  0  0  0  0  0  0  0
   -1.5770    2.8296    0.4571 H   0  0  0  0  0  0  0  0  0  0  0  0
   -2.0556    0.4852   -0.1418 H   0  0  0  0  0  0  0  0  0  0  0  0
   -0.6254   -1.7765   -1.2068 H   0  0  0  0  0  0  0  0  0  0  0  0
    0.9543   -1.1751   -1.7705 H   0  0  0  0  0  0  0  0  0  0  0  0
   -0.0530   -2.5812    1.1016 H   0  0  0  0  0  0  0  0  0  0  0  0
    1.8688    0.2355    1.7017 H   0  0  0  0  0  0  0  0  0  0  0  0
    1.7503    0.9366    0.0113 H   0  0  0  0  0  0  0  0  0  0  0  0
   -0.6426    0.2851    1.9264 H   0  0  0  0  0  0  0  0  0  0  0  0
  1  2  1  0  0  0  0
  1 11  1  0  0  0  0
  2 12  1  0  0  0  0
  2  8  1  1  0  0  0
  3  4  1  0  0  0  0
  3  2  1  0  0  0  0
  4  5  1  0  0  0  0
  5  7  1  0  0  0  0
  5  8  1  1  0  0  0
  5  6  1  0  0  0  0
  6 15  1  0  0  0  0
  7  8  1  0  0  0  0
  7 16  1  0  0  0  0
  8 18  1  1  0  0  0
  9  1  1  0  0  0  0
 10  1  1  0  0  0  0
 13  4  1  0  0  0  0
 14  4  1  0  0  0  0
 17  7  1  0  0  0  0
M  END
