title
 OpenBabel02282109593D

 18 19  0  0  1  0  0  0  0  0999 V2000
   -0.0758    2.3149    0.0684 C   0  0  0  0  0  0  0  0  0  0  0  0
   -0.0482    0.7964    0.0613 C   0  0  1  0  0  0  0  0  0  0  0  0
    0.6589    0.0669   -1.1283 C   0  0  0  0  0  0  0  0  0  0  0  0
    0.3406   -1.3428   -0.5467 C   0  0  1  0  0  0  0  0  0  0  0  0
    0.9613   -1.1496    0.8528 C   0  0  0  0  0  0  0  0  0  0  0  0
    0.7254    0.1104    1.2131 C   0  0  0  0  0  0  0  0  0  0  0  0
   -1.1876   -1.1829   -0.4041 C   0  0  0  0  0  0  0  0  0  0  0  0
   -1.4151    0.0773   -0.0390 C   0  0  0  0  0  0  0  0  0  0  0  0
    0.9379    2.7290    0.0778 H   0  0  0  0  0  0  0  0  0  0  0  0
   -0.5905    2.7053   -0.8159 H   0  0  0  0  0  0  0  0  0  0  0  0
   -0.5985    2.6982    0.9522 H   0  0  0  0  0  0  0  0  0  0  0  0
    0.1767    0.2577   -2.0918 H   0  0  0  0  0  0  0  0  0  0  0  0
    1.7304    0.2818   -1.1829 H   0  0  0  0  0  0  0  0  0  0  0  0
    0.6804   -2.2150   -1.1045 H   0  0  0  0  0  0  0  0  0  0  0  0
    1.4411   -1.9331    1.4240 H   0  0  0  0  0  0  0  0  0  0  0  0
    0.9678    0.6001    2.1478 H   0  0  0  0  0  0  0  0  0  0  0  0
   -1.9023   -1.9849   -0.5316 H   0  0  0  0  0  0  0  0  0  0  0  0
   -2.3597    0.5486    0.2012 H   0  0  0  0  0  0  0  0  0  0  0  0
  1  9  1  0  0  0  0
  1 11  1  0  0  0  0
  2  1  1  6  0  0  0
  2  6  1  0  0  0  0
  3  4  1  0  0  0  0
  3  2  1  0  0  0  0
  4 14  1  6  0  0  0
  4  7  1  0  0  0  0
  4  5  1  0  0  0  0
  5  6  2  0  0  0  0
  5 15  1  0  0  0  0
  6 16  1  0  0  0  0
  7  8  2  0  0  0  0
  8  2  1  0  0  0  0
  8 18  1  0  0  0  0
 10  1  1  0  0  0  0
 12  3  1  0  0  0  0
 13  3  1  0  0  0  0
 17  7  1  0  0  0  0
M  END
