16
title
C -0.045428313 2.2630432 0.019842235
C -0.07120967 0.75592333 0.09867341
O 0.61423147 0.1356855 -1.0101007
C 0.37570634 -1.2134584 -0.5867418
C 0.96365225 -1.1558596 0.8478485
C 0.6802522 0.068512134 1.2761824
C -1.1698202 -1.1869997 -0.4543609
C -1.4469883 0.036995765 -0.020904673
H 0.9845152 2.6300473 0.027214633
H -0.530294 2.6074955 -0.8976477
H -0.57347804 2.6984024 0.87410927
H 0.8086574 -1.9339728 -1.2789215
H 1.4328898 -1.9794369 1.3665379
H 0.8582188 0.5224107 2.2410061
H -1.8279867 -2.026967 -0.623991
H -2.3957815 0.47411966 0.25711372
