title
 OpenBabel02282109593D

 16 17  0  0  1  0  0  0  0  0999 V2000
   -0.0178    2.1687    0.0217 O   0  0  0  0  0  0  0  0  0  0  0  0
    0.0666    0.7686    0.0081 C   0  0  1  0  0  0  0  0  0  0  0  0
   -1.3046    0.0412   -0.0075 C   0  0  0  0  0  0  0  0  0  0  0  0
   -0.6170   -1.3618   -0.0174 C   0  0  1  0  0  0  0  0  0  0  0  0
    0.2796   -1.1631   -1.2579 C   0  0  0  0  0  0  0  0  0  0  0  0
    0.6917    0.1026   -1.2412 C   0  0  0  0  0  0  0  0  0  0  0  0
    0.2649   -1.1882    1.2375 C   0  0  0  0  0  0  0  0  0  0  0  0
    0.6763    0.0777    1.2516 C   0  0  0  0  0  0  0  0  0  0  0  0
    0.8749    2.5284    0.0276 H   0  0  0  0  0  0  0  0  0  0  0  0
   -1.8941    0.2330    0.8923 H   0  0  0  0  0  0  0  0  0  0  0  0
   -1.8832    0.2512   -0.9103 H   0  0  0  0  0  0  0  0  0  0  0  0
   -1.2606   -2.2403   -0.0300 H   0  0  0  0  0  0  0  0  0  0  0  0
    0.5403   -1.9465   -1.9571 H   0  0  0  0  0  0  0  0  0  0  0  0
    1.3641    0.6112   -1.9202 H   0  0  0  0  0  0  0  0  0  0  0  0
    0.5173   -1.9855    1.9239 H   0  0  0  0  0  0  0  0  0  0  0  0
    1.3400    0.5728    1.9489 H   0  0  0  0  0  0  0  0  0  0  0  0
  1  9  1  0  0  0  0
  2  1  1  1  0  0  0
  2  8  1  0  0  0  0
  3  2  1  0  0  0  0
  3 10  1  0  0  0  0
  4 12  1  6  0  0  0
  4  3  1  0  0  0  0
  4  7  1  0  0  0  0
  5  6  2  0  0  0  0
  5  4  1  0  0  0  0
  6  2  1  0  0  0  0
  7  8  2  0  0  0  0
  7 15  1  0  0  0  0
  8 16  1  0  0  0  0
 11  3  1  0  0  0  0
 13  5  1  0  0  0  0
 14  6  1  0  0  0  0
M  END
