title
 OpenBabel02282109593D

 18 19  0  0  1  0  0  0  0  0999 V2000
    0.7509    2.3051   -0.5952 O   0  0  0  0  0  0  0  0  0  0  0  0
    0.8067    0.8857   -0.6476 C   0  0  1  0  0  0  0  0  0  0  0  0
    1.4797    0.2464    0.5955 C   0  0  0  0  0  0  0  0  0  0  0  0
    0.7926   -1.1222    0.7764 C   0  0  0  0  0  0  0  0  0  0  0  0
   -0.6054   -0.9252    0.1998 C   0  0  1  0  0  0  0  0  0  0  0  0
   -1.2993   -2.0585   -0.2290 O   0  0  0  0  0  0  0  0  0  0  0  0
   -1.3735    0.2987    0.6253 C   0  0  0  0  0  0  0  0  0  0  0  0
   -0.5880    0.2974   -0.6758 C   0  0  1  0  0  0  0  0  0  0  0  0
    1.6534    2.6380   -0.6290 H   0  0  0  0  0  0  0  0  0  0  0  0
    1.3342    0.5656   -1.5607 H   0  0  0  0  0  0  0  0  0  0  0  0
    2.5653    0.1643    0.4888 H   0  0  0  0  0  0  0  0  0  0  0  0
    1.2870    0.8983    1.4537 H   0  0  0  0  0  0  0  0  0  0  0  0
    1.2913   -1.8967    0.1826 H   0  0  0  0  0  0  0  0  0  0  0  0
    0.7914   -1.4597    1.8197 H   0  0  0  0  0  0  0  0  0  0  0  0
   -1.6855   -2.4808    0.5459 H   0  0  0  0  0  0  0  0  0  0  0  0
   -2.4503    0.2383    0.5143 H   0  0  0  0  0  0  0  0  0  0  0  0
   -1.0353    0.9054    1.4585 H   0  0  0  0  0  0  0  0  0  0  0  0
   -1.1485    0.3153   -1.6026 H   0  0  0  0  0  0  0  0  0  0  0  0
  2  8  1  6  0  0  0
  2  1  1  0  0  0  0
  2  3  1  0  0  0  0
  3  4  1  0  0  0  0
  3 12  1  0  0  0  0
  4 14  1  0  0  0  0
  5  8  1  6  0  0  0
  5  7  1  0  0  0  0
  5  4  1  0  0  0  0
  6  5  1  0  0  0  0
  6 15  1  0  0  0  0
  7 17  1  0  0  0  0
  8 18  1  6  0  0  0
  8  7  1  0  0  0  0
  9  1  1  0  0  0  0
 10  2  1  0  0  0  0
 11  3  1  0  0  0  0
 13  4  1  0  0  0  0
 16  7  1  0  0  0  0
M  END
