18
title
C -0.09337505 2.3465443 -0.037478637
C -0.08162742 0.8302567 -0.011818629
C 0.6803798 0.1407842 -1.1923026
O 0.8979142 -1.2009498 -0.7501983
C 0.30069894 -1.2781643 0.57976764
C 0.6464388 0.10064846 1.1549957
C -1.20481 -1.1555469 0.39903
C -1.4259984 0.11131704 0.032988325
H 0.924793 2.7501807 -0.039444935
H -0.60220605 2.72538 -0.93126667
H -0.61411166 2.751657 0.83627635
H 0.099205755 0.14783931 -2.1224945
H 1.6475421 0.62860626 -1.375509
H 0.68915254 -2.1713157 1.0657457
H 1.7240671 0.28865778 1.1901344
H 0.18971293 0.30242515 2.1254447
H -1.9110961 -1.9749562 0.4292276
H -2.358615 0.55536556 -0.29511473
