18
title
C -0.03722902 2.2847636 -0.013074917
C -0.08365912 0.77775675 -0.09253365
C 0.6357381 0.10752472 -1.3173169
C 0.92965657 -1.313206 -0.7596725
C 0.31585795 -1.1886982 0.6746088
O 0.6342963 0.16787532 0.9969261
C -1.1974399 -1.1301405 0.5014847
C -1.4446774 0.08637193 0.018332351
H 0.9983294 2.6370854 -0.027955648
H -0.56322014 2.7293358 -0.8637987
H -0.5097883 2.637688 0.90786153
H 0.015854988 0.106407434 -2.2168493
H 1.561 0.64630044 -1.5388385
H 0.47701907 -2.1177094 -1.3437651
H 2.0041509 -1.4994068 -0.6921546
H 0.71500784 -1.8703158 1.4249157
H -1.8795102 -1.958765 0.63754916
H -2.3797302 0.50071514 -0.33546162
