16
title
O -0.013621351 2.2002165 -0.016314493
C 0.04834162 0.8026695 -0.051354807
C 0.69662976 0.10882006 1.1964774
O 0.21562764 -1.2330635 1.1340348
C -0.64089406 -1.290525 -0.052459147
C -1.3207924 0.0851836 -0.013337904
C 0.26472682 -1.1442268 -1.2662054
C 0.6839141 0.1253325 -1.2590747
H 0.8840105 2.5481956 -0.037003454
H 1.7937691 0.12495295 1.1656321
H 0.35351226 0.5962718 2.1178706
H -1.2521935 -2.1869526 0.026077816
H -1.8819109 0.26166221 0.90784013
H -1.9287512 0.30808058 -0.8904055
H 0.5931234 -1.9533603 -1.9055531
H 1.4264778 0.59272647 -1.8954167
