title
 OpenBabel02282109593D

 16 17  0  0  1  0  0  0  0  0999 V2000
    0.0233    2.2406   -0.0629 C   0  0  0  0  0  0  0  0  0  0  0  0
   -0.0875    0.7438   -0.0340 C   0  0  1  0  0  0  0  0  0  0  0  0
    0.5801    0.1620   -1.1964 O   0  0  0  0  0  0  0  0  0  0  0  0
    0.9177   -1.1618   -0.7828 C   0  0  0  0  0  0  0  0  0  0  0  0
    0.3083   -1.2096    0.6568 C   0  0  1  0  0  0  0  0  0  0  0  0
    0.5971    0.1420    1.0484 O   0  0  0  0  0  0  0  0  0  0  0  0
   -1.2016   -1.1750    0.4659 C   0  0  0  0  0  0  0  0  0  0  0  0
   -1.4562    0.0584    0.0286 C   0  0  0  0  0  0  0  0  0  0  0  0
    1.0753    2.5333   -0.0649 H   0  0  0  0  0  0  0  0  0  0  0  0
   -0.4523    2.6304   -0.9662 H   0  0  0  0  0  0  0  0  0  0  0  0
   -0.4707    2.6710    0.8115 H   0  0  0  0  0  0  0  0  0  0  0  0
    0.4859   -1.9057   -1.4606 H   0  0  0  0  0  0  0  0  0  0  0  0
    2.0067   -1.2743   -0.7507 H   0  0  0  0  0  0  0  0  0  0  0  0
    0.7398   -1.9306    1.3479 H   0  0  0  0  0  0  0  0  0  0  0  0
   -1.8643   -2.0263    0.5371 H   0  0  0  0  0  0  0  0  0  0  0  0
   -2.3806    0.4798   -0.3413 H   0  0  0  0  0  0  0  0  0  0  0  0
  1 11  1  0  0  0  0
  2  1  1  1  0  0  0
  2  8  1  0  0  0  0
  2  6  1  0  0  0  0
  3  4  1  0  0  0  0
  3  2  1  0  0  0  0
  4 13  1  0  0  0  0
  4  5  1  0  0  0  0
  5  6  1  0  0  0  0
  5 14  1  1  0  0  0
  7 15  1  0  0  0  0
  7  5  1  0  0  0  0
  8  7  2  0  0  0  0
  9  1  1  0  0  0  0
 10  1  1  0  0  0  0
 12  4  1  0  0  0  0
 16  8  1  0  0  0  0
M  END
