title
 OpenBabel02282109593D

 18 19  0  0  1  0  0  0  0  0999 V2000
   -0.0372    2.2848   -0.0131 C   0  0  0  0  0  0  0  0  0  0  0  0
   -0.0837    0.7778   -0.0925 C   0  0  1  0  0  0  0  0  0  0  0  0
    0.6357    0.1075   -1.3173 C   0  0  0  0  0  0  0  0  0  0  0  0
    0.9297   -1.3132   -0.7597 C   0  0  0  0  0  0  0  0  0  0  0  0
    0.3159   -1.1887    0.6746 C   0  0  1  0  0  0  0  0  0  0  0  0
    0.6343    0.1679    0.9969 O   0  0  0  0  0  0  0  0  0  0  0  0
   -1.1974   -1.1301    0.5015 C   0  0  0  0  0  0  0  0  0  0  0  0
   -1.4447    0.0864    0.0183 C   0  0  0  0  0  0  0  0  0  0  0  0
    0.9983    2.6371   -0.0280 H   0  0  0  0  0  0  0  0  0  0  0  0
   -0.5632    2.7293   -0.8638 H   0  0  0  0  0  0  0  0  0  0  0  0
   -0.5098    2.6377    0.9079 H   0  0  0  0  0  0  0  0  0  0  0  0
    0.0159    0.1064   -2.2168 H   0  0  0  0  0  0  0  0  0  0  0  0
    1.5610    0.6463   -1.5388 H   0  0  0  0  0  0  0  0  0  0  0  0
    0.4770   -2.1177   -1.3438 H   0  0  0  0  0  0  0  0  0  0  0  0
    2.0042   -1.4994   -0.6922 H   0  0  0  0  0  0  0  0  0  0  0  0
    0.7150   -1.8703    1.4249 H   0  0  0  0  0  0  0  0  0  0  0  0
   -1.8795   -1.9588    0.6375 H   0  0  0  0  0  0  0  0  0  0  0  0
   -2.3797    0.5007   -0.3355 H   0  0  0  0  0  0  0  0  0  0  0  0
  1 11  1  0  0  0  0
  2  1  1  6  0  0  0
  2  8  1  0  0  0  0
  2  6  1  0  0  0  0
  3  4  1  0  0  0  0
  3  2  1  0  0  0  0
  4 15  1  0  0  0  0
  4  5  1  0  0  0  0
  5  6  1  0  0  0  0
  5 16  1  1  0  0  0
  7 17  1  0  0  0  0
  7  5  1  0  0  0  0
  8  7  2  0  0  0  0
  9  1  1  0  0  0  0
 10  1  1  0  0  0  0
 12  3  1  0  0  0  0
 13  3  1  0  0  0  0
 14  4  1  0  0  0  0
 18  8  1  0  0  0  0
M  END
