title
 OpenBabel02282109593D

 20 21  0  0  1  0  0  0  0  0999 V2000
   -0.0662    2.3389   -0.0581 C   0  0  0  0  0  0  0  0  0  0  0  0
   -0.0543    0.8203   -0.0466 C   0  0  1  0  0  0  0  0  0  0  0  0
    0.6805    0.1493   -1.2634 C   0  0  0  0  0  0  0  0  0  0  0  0
    0.9156   -1.3145   -0.7852 C   0  0  0  0  0  0  0  0  0  0  0  0
    0.2848   -1.3128    0.6496 C   0  0  1  0  0  0  0  0  0  0  0  0
    0.6732    0.1053    1.1226 C   0  0  0  0  0  0  0  0  0  0  0  0
   -1.2121   -1.1296    0.4524 C   0  0  0  0  0  0  0  0  0  0  0  0
   -1.4100    0.1238    0.0347 C   0  0  0  0  0  0  0  0  0  0  0  0
    0.9523    2.7424   -0.0793 H   0  0  0  0  0  0  0  0  0  0  0  0
   -0.5922    2.7264   -0.9383 H   0  0  0  0  0  0  0  0  0  0  0  0
   -0.5675    2.7389    0.8299 H   0  0  0  0  0  0  0  0  0  0  0  0
    0.0843    0.2106   -2.1775 H   0  0  0  0  0  0  0  0  0  0  0  0
    1.6294    0.6620   -1.4552 H   0  0  0  0  0  0  0  0  0  0  0  0
    0.4464   -2.0568   -1.4352 H   0  0  0  0  0  0  0  0  0  0  0  0
    1.9835   -1.5488   -0.7331 H   0  0  0  0  0  0  0  0  0  0  0  0
    0.5904   -2.1525    1.2749 H   0  0  0  0  0  0  0  0  0  0  0  0
    1.7546    0.2849    1.1295 H   0  0  0  0  0  0  0  0  0  0  0  0
    0.2509    0.3609    2.0983 H   0  0  0  0  0  0  0  0  0  0  0  0
   -1.9459   -1.9233    0.5252 H   0  0  0  0  0  0  0  0  0  0  0  0
   -2.3389    0.5698   -0.3024 H   0  0  0  0  0  0  0  0  0  0  0  0
  1 11  1  0  0  0  0
  2  1  1  1  0  0  0
  2  8  1  0  0  0  0
  2  6  1  0  0  0  0
  3  4  1  0  0  0  0
  3  2  1  0  0  0  0
  4 15  1  0  0  0  0
  4  5  1  0  0  0  0
  5  6  1  0  0  0  0
  5 16  1  1  0  0  0
  6 17  1  0  0  0  0
  6 18  1  0  0  0  0
  7 19  1  0  0  0  0
  7  5  1  0  0  0  0
  8  7  2  0  0  0  0
  9  1  1  0  0  0  0
 10  1  1  0  0  0  0
 12  3  1  0  0  0  0
 13  3  1  0  0  0  0
 14  4  1  0  0  0  0
 20  8  1  0  0  0  0
M  END
