title
 OpenBabel02282109593D

 18 19  0  0  1  0  0  0  0  0999 V2000
   -0.0977    2.2546    0.1424 C   0  0  0  0  0  0  0  0  0  0  0  0
   -0.0152    0.7562    0.0174 C   0  0  1  0  0  0  0  0  0  0  0  0
    0.6827    0.0824   -1.1740 C   0  0  0  0  0  0  0  0  0  0  0  0
    0.3592   -1.3120   -0.6023 C   0  0  1  0  0  0  0  0  0  0  0  0
    0.9692   -1.1570    0.8018 C   0  0  0  0  0  0  0  0  0  0  0  0
    0.6804    0.2131    1.1404 O   0  0  0  0  0  0  0  0  0  0  0  0
   -1.1644   -1.1712   -0.4398 C   0  0  0  0  0  0  0  0  0  0  0  0
   -1.3297    0.1998   -0.0296 O   0  0  0  0  0  0  0  0  0  0  0  0
    0.9053    2.6847    0.1835 H   0  0  0  0  0  0  0  0  0  0  0  0
   -0.6383    2.6739   -0.7089 H   0  0  0  0  0  0  0  0  0  0  0  0
   -0.6299    2.5166    1.0601 H   0  0  0  0  0  0  0  0  0  0  0  0
    0.1984    0.2958   -2.1291 H   0  0  0  0  0  0  0  0  0  0  0  0
    1.7502    0.3061   -1.2259 H   0  0  0  0  0  0  0  0  0  0  0  0
    0.6891   -2.1889   -1.1592 H   0  0  0  0  0  0  0  0  0  0  0  0
    0.5123   -1.8255    1.5413 H   0  0  0  0  0  0  0  0  0  0  0  0
    2.0553   -1.3170    0.8082 H   0  0  0  0  0  0  0  0  0  0  0  0
   -1.7049   -1.3421   -1.3800 H   0  0  0  0  0  0  0  0  0  0  0  0
   -1.5749   -1.8393    0.3267 H   0  0  0  0  0  0  0  0  0  0  0  0
  1  9  1  0  0  0  0
  1 11  1  0  0  0  0
  2  1  1  6  0  0  0
  2  6  1  0  0  0  0
  3  4  1  0  0  0  0
  3  2  1  0  0  0  0
  4 14  1  6  0  0  0
  4  7  1  0  0  0  0
  4  5  1  0  0  0  0
  5 16  1  0  0  0  0
  5  6  1  0  0  0  0
  5 15  1  0  0  0  0
  7  8  1  0  0  0  0
  7 18  1  0  0  0  0
  8  2  1  0  0  0  0
 10  1  1  0  0  0  0
 12  3  1  0  0  0  0
 13  3  1  0  0  0  0
 17  7  1  0  0  0  0
M  END
