20
title
C -0.059538078 2.361233 -0.081819914
C -0.010430215 0.8437648 -0.0690093
C 0.7173348 0.19032459 -1.2767226
C 0.9471606 -1.2811272 -0.8063355
C 0.3306634 -1.2569878 0.6057674
C 0.700093 0.14137898 1.114023
O -1.0972863 -1.1847489 0.46857232
C -1.3873338 0.1561722 0.040524755
H 0.9484252 2.7880292 -0.11932641
H -0.6069094 2.733939 -0.9554463
H -0.55724806 2.7518017 0.8125857
H 0.12118665 0.2562317 -2.192024
H 1.665747 0.7028073 -1.4686999
H 0.43694445 -2.0167127 -1.432029
H 2.01017 -1.5408657 -0.7769609
H 0.56592286 -2.1128378 1.2396235
H 1.777214 0.33047011 1.1435639
H 0.25913373 0.36930344 2.0885572
H -2.0325694 0.64590883 0.7838452
H -1.9228685 0.13656531 -0.91794693
