16
title
O 0.01755938 2.224249 0.00067799416
C 0.052193653 0.8263703 -0.000117058706
C 0.68820184 0.14953303 1.2372069
O 0.19803013 -1.2014841 1.1634408
C -0.6250154 -1.2351943 0.0047056186
C -1.3190496 0.12772113 0.0109937675
O 0.17867428 -1.2005996 -1.1674963
C 0.66758955 0.15047503 -1.2483428
H 0.9226891 2.5546637 -0.0059907464
H 1.7855238 0.14888799 1.2084497
H 0.35392013 0.629168 2.1657977
H -1.2038956 -2.1562095 0.009167807
H -1.8982546 0.31975323 0.91549563
H -1.9131912 0.32044065 -0.8836199
H 0.3179634 0.6308324 -2.1708856
H 1.765235 0.14979357 -1.2377917
