title
 OpenBabel02282109593D

 18 19  0  0  1  0  0  0  0  0999 V2000
    0.0042    2.3096   -0.0199 C   0  0  0  0  0  0  0  0  0  0  0  0
    0.1167    0.8051   -0.0355 C   0  0  1  0  0  0  0  0  0  0  0  0
    0.7495    0.1512   -1.2922 C   0  0  0  0  0  0  0  0  0  0  0  0
    0.1446   -1.2823   -1.2256 C   0  0  0  0  0  0  0  0  0  0  0  0
   -0.7001   -1.1502    0.0552 C   0  0  1  0  0  0  0  0  0  0  0  0
    0.1739   -1.1728    1.1845 O   0  0  0  0  0  0  0  0  0  0  0  0
    0.7460    0.1425    1.2122 C   0  0  0  0  0  0  0  0  0  0  0  0
   -1.1844    0.1739   -0.0015 O   0  0  0  0  0  0  0  0  0  0  0  0
    0.9993    2.7658   -0.0232 H   0  0  0  0  0  0  0  0  0  0  0  0
   -0.5365    2.6637   -0.9021 H   0  0  0  0  0  0  0  0  0  0  0  0
   -0.5282    2.6496    0.8729 H   0  0  0  0  0  0  0  0  0  0  0  0
    0.4311    0.6827   -2.1923 H   0  0  0  0  0  0  0  0  0  0  0  0
    1.8418    0.1617   -1.2595 H   0  0  0  0  0  0  0  0  0  0  0  0
   -0.4860   -1.5014   -2.0910 H   0  0  0  0  0  0  0  0  0  0  0  0
    0.8919   -2.0718   -1.1279 H   0  0  0  0  0  0  0  0  0  0  0  0
   -1.5096   -1.8638    0.2065 H   0  0  0  0  0  0  0  0  0  0  0  0
    1.8394    0.0862    1.1623 H   0  0  0  0  0  0  0  0  0  0  0  0
    0.4531    0.6543    2.1372 H   0  0  0  0  0  0  0  0  0  0  0  0
  1 11  1  0  0  0  0
  2  1  1  1  0  0  0
  2  8  1  0  0  0  0
  2  7  1  0  0  0  0
  3 13  1  0  0  0  0
  3  4  1  0  0  0  0
  3  2  1  0  0  0  0
  4 15  1  0  0  0  0
  4  5  1  0  0  0  0
  5 16  1  1  0  0  0
  5  6  1  0  0  0  0
  6  7  1  0  0  0  0
  7 18  1  0  0  0  0
  8  5  1  0  0  0  0
  9  1  1  0  0  0  0
 10  1  1  0  0  0  0
 12  3  1  0  0  0  0
 14  4  1  0  0  0  0
 17  7  1  0  0  0  0
M  END
