20
title
C -0.2618123 1.9856296 -0.6319714
C -0.13610803 0.4899979 -0.64180607
C 0.3577732 -0.353482 -1.8224168
C 1.0343348 -1.3439902 -0.8198328
C 0.53224576 -0.4932462 0.35315156
C 1.2773415 -0.2673033 1.6366082
C -0.9663797 -0.40608245 0.25479686
O -1.5772293 0.18859422 1.3661889
H 0.68490815 2.4702559 -0.8963687
H -1.0137357 2.32513 -1.3569586
H -0.5591543 2.3486063 0.35605192
H -0.41977498 -0.7673984 -2.4754415
H 1.0870767 0.17073022 -2.4457982
H 0.6879541 -2.383639 -0.84205216
H 2.1240125 -1.3409344 -0.9061962
H 2.27742 0.1408142 1.4505602
H 0.7359404 0.42218375 2.2880304
H 1.4031229 -1.21051 2.183212
H -1.5348248 -1.2371424 -0.1769458
H -2.3329284 0.6974945 1.0544232
