20
title
O 0.020383554 2.2068827 0.022562772
C 0.08534334 0.7998665 0.006827161
C 0.71410656 0.18452914 -1.2679617
C 0.14967915 -1.2699429 -1.2731174
C -0.7326628 -1.3068854 -0.0009410826
C 0.19292085 -1.2960154 1.2406181
C 0.75748026 0.15840591 1.2461293
C -1.3004508 0.12572576 0.023709612
H 0.92048323 2.548542 0.010546468
H 0.3833674 0.7527185 -2.1423552
H 1.8087505 0.21840502 -1.2447549
H -0.4519731 -1.4528862 -2.168407
H 0.93448883 -2.031909 -1.2505276
H -1.4628843 -2.1182458 0.0032037366
H -0.37772027 -1.4975516 2.152077
H 0.9761433 -2.0571506 1.1753645
H 1.8506848 0.19304396 1.185799
H 0.4574248 0.70825315 2.143023
H -1.8699199 0.36137855 0.92761815
H -1.900637 0.3798924 -0.85495627
