title
 OpenBabel02282109593D

 20 21  0  0  1  0  0  0  0  0999 V2000
    0.0840    2.3047    0.0845 C   0  0  0  0  0  0  0  0  0  0  0  0
    0.0332    0.7978   -0.0307 C   0  0  1  0  0  0  0  0  0  0  0  0
    0.6987    0.1776   -1.2838 C   0  0  0  0  0  0  0  0  0  0  0  0
    0.1644   -1.2902   -1.2603 C   0  0  0  0  0  0  0  0  0  0  0  0
   -0.6974   -1.3131    0.0247 C   0  0  1  0  0  0  0  0  0  0  0  0
    0.2453   -1.1364    1.2251 C   0  0  0  0  0  0  0  0  0  0  0  0
    0.6923    0.2257    1.1224 O   0  0  0  0  0  0  0  0  0  0  0  0
   -1.3346    0.0905   -0.0071 C   0  0  0  0  0  0  0  0  0  0  0  0
    1.1209    2.6549    0.0937 H   0  0  0  0  0  0  0  0  0  0  0  0
   -0.4283    2.7735   -0.7611 H   0  0  0  0  0  0  0  0  0  0  0  0
   -0.3931    2.6355    1.0113 H   0  0  0  0  0  0  0  0  0  0  0  0
    0.4046    0.7059   -2.1965 H   0  0  0  0  0  0  0  0  0  0  0  0
    1.7861    0.2369   -1.1960 H   0  0  0  0  0  0  0  0  0  0  0  0
   -0.4493   -1.5051   -2.1403 H   0  0  0  0  0  0  0  0  0  0  0  0
    0.9660   -2.0338   -1.2318 H   0  0  0  0  0  0  0  0  0  0  0  0
   -1.3716   -2.1665    0.1111 H   0  0  0  0  0  0  0  0  0  0  0  0
   -0.2687   -1.2812    2.1855 H   0  0  0  0  0  0  0  0  0  0  0  0
    1.1064   -1.8166    1.1917 H   0  0  0  0  0  0  0  0  0  0  0  0
   -1.9173    0.3364    0.8851 H   0  0  0  0  0  0  0  0  0  0  0  0
   -1.9360    0.2746   -0.9019 H   0  0  0  0  0  0  0  0  0  0  0  0
  1  9  1  0  0  0  0
  1 11  1  0  0  0  0
  2  8  1  0  0  0  0
  2  1  1  6  0  0  0
  2  7  1  0  0  0  0
  3  4  1  0  0  0  0
  3 13  1  0  0  0  0
  3  2  1  0  0  0  0
  4 15  1  0  0  0  0
  4  5  1  0  0  0  0
  5 16  1  1  0  0  0
  5  6  1  0  0  0  0
  6 17  1  0  0  0  0
  7  6  1  0  0  0  0
  8  5  1  0  0  0  0
  8 19  1  0  0  0  0
 10  1  1  0  0  0  0
 12  3  1  0  0  0  0
 14  4  1  0  0  0  0
 18  6  1  0  0  0  0
 20  8  1  0  0  0  0
M  END
