title
 OpenBabel02282109593D

 22 23  0  0  1  0  0  0  0  0999 V2000
   -0.5975    1.9873   -0.4723 C   0  0  0  0  0  0  0  0  0  0  0  0
   -0.3475    0.4958   -0.5250 C   0  0  1  0  0  0  0  0  0  0  0  0
    0.7440   -0.0067   -1.5166 C   0  0  0  0  0  0  0  0  0  0  0  0
    1.4813   -0.7443   -0.3603 C   0  0  0  0  0  0  0  0  0  0  0  0
    0.3597   -0.3380    0.6313 C   0  0  1  0  0  0  0  0  0  0  0  0
    0.7702    0.2361    1.9699 C   0  0  0  0  0  0  0  0  0  0  0  0
   -0.8473   -1.3230    0.6210 C   0  0  0  0  0  0  0  0  0  0  0  0
   -1.5741   -0.4503   -0.4444 C   0  0  0  0  0  0  0  0  0  0  0  0
    0.3370    2.5513   -0.3706 H   0  0  0  0  0  0  0  0  0  0  0  0
   -1.0896    2.3323   -1.3908 H   0  0  0  0  0  0  0  0  0  0  0  0
   -1.2453    2.2593    0.3690 H   0  0  0  0  0  0  0  0  0  0  0  0
    0.3707   -0.6458   -2.3226 H   0  0  0  0  0  0  0  0  0  0  0  0
    1.3293    0.7978   -1.9705 H   0  0  0  0  0  0  0  0  0  0  0  0
    1.6400   -1.8198   -0.4868 H   0  0  0  0  0  0  0  0  0  0  0  0
    2.4454   -0.2880   -0.1161 H   0  0  0  0  0  0  0  0  0  0  0  0
    1.5019    1.0442    1.8562 H   0  0  0  0  0  0  0  0  0  0  0  0
   -0.0893    0.6381    2.5189 H   0  0  0  0  0  0  0  0  0  0  0  0
    1.2291   -0.5363    2.6006 H   0  0  0  0  0  0  0  0  0  0  0  0
   -0.6029   -2.3430    0.3094 H   0  0  0  0  0  0  0  0  0  0  0  0
   -1.3747   -1.3818    1.5772 H   0  0  0  0  0  0  0  0  0  0  0  0
   -2.4641    0.0465   -0.0466 H   0  0  0  0  0  0  0  0  0  0  0  0
   -1.8550   -0.9483   -1.3776 H   0  0  0  0  0  0  0  0  0  0  0  0
  1  9  1  0  0  0  0
  1 11  1  0  0  0  0
  2  1  1  0  0  0  0
  2  8  1  0  0  0  0
  2  5  1  1  0  0  0
  3  2  1  0  0  0  0
  3  4  1  0  0  0  0
  4 15  1  0  0  0  0
  4  5  1  0  0  0  0
  5  6  1  1  0  0  0
  6 17  1  0  0  0  0
  6 18  1  0  0  0  0
  7  5  1  0  0  0  0
  7 20  1  0  0  0  0
  8 21  1  0  0  0  0
  8  7  1  0  0  0  0
 10  1  1  0  0  0  0
 12  3  1  0  0  0  0
 13  3  1  0  0  0  0
 14  4  1  0  0  0  0
 16  6  1  0  0  0  0
 19  7  1  0  0  0  0
 22  8  1  0  0  0  0
M  END
