16
title
C -0.092930004 1.9821522 -0.6885216
C -0.07397807 0.49582714 -0.598126
O 0.4374821 -0.26830462 -1.7068816
C 1.0796821 -1.2163647 -0.81235987
C 0.44236925 -0.5372898 0.3858698
O 0.99551314 -0.3533754 1.6443233
C -1.0533619 -0.36708173 0.17021768
O -1.7116315 0.24731606 1.2371625
H 0.9159649 2.399032 -0.7611568
H -0.65677065 2.2903852 -1.5760998
H -0.5916594 2.3945584 0.19170193
H 0.79983497 -2.2536435 -1.0325295
H 2.170868 -1.106135 -0.8403946
H 0.9363815 -1.1876396 2.127617
H -1.6543525 -1.1140321 -0.34819192
H -1.0936731 0.26259702 1.9806371
