22
title
C -0.5974793 1.9872673 -0.47227076
C -0.34745368 0.49575356 -0.52499884
C 0.7440044 -0.0067381198 -1.5166103
C 1.4812846 -0.74431056 -0.3602521
C 0.3597058 -0.33799747 0.6312598
C 0.77015585 0.23608121 1.9698676
C -0.8472759 -1.3229649 0.6209527
C -1.5740659 -0.45032033 -0.44442397
H 0.33701986 2.5512936 -0.37063158
H -1.0896307 2.3323004 -1.3907809
H -1.2453482 2.259289 0.36898494
H 0.3707342 -0.64577955 -2.3225574
H 1.329334 0.7978306 -1.9704942
H 1.6400335 -1.8197571 -0.48684835
H 2.4453633 -0.28795657 -0.116082564
H 1.501913 1.0441927 1.8561646
H -0.08931745 0.6380718 2.5189157
H 1.229121 -0.5362577 2.6005538
H -0.6028569 -2.3429868 0.30939245
H -1.3746866 -1.3817801 1.5771593
H -2.4641156 0.04650534 -0.0465533
H -1.8550146 -0.94829243 -1.3776466
