22
title
C -1.0092335 2.0247436 -0.43781692
C -0.8923333 0.51433855 -0.40008998
C 0.35249162 -0.2924603 -0.69180197
C 0.40649593 -1.3546656 -1.7541124
C 1.5920746 0.42021853 -0.12963544
C 0.94639087 0.40641853 1.2910949
C -0.2867033 -0.30669537 0.71549714
C -1.042839 -1.3870214 1.4372056
H -0.12666593 2.5254776 -0.031747896
H -1.1431158 2.3806686 -1.4657296
H -1.8741587 2.3642697 0.14341612
H -1.7757436 0.020901017 -0.80620253
H 0.6280683 -0.92380416 -2.7389798
H 1.1838121 -2.0981715 -1.5401813
H -0.54806584 -1.8851961 -1.8387544
H 2.4870417 -0.20601562 -0.17940204
H 1.8374977 1.3969467 -0.56067246
H 1.5022273 -0.22690323 1.9879063
H 0.77564883 1.3742335 1.7750815
H -1.6421169 -0.9744377 2.258994
H -1.7304325 -1.9118584 0.7652098
H -0.36452848 -2.13253 1.8695287
