18
title
C -0.1427223 2.0129588 -0.62621266
C -0.08209266 0.51554096 -0.6560547
C 0.4794088 -0.33875102 -1.8048239
C 1.091106 -1.3469118 -0.7722886
C 0.45593655 -0.5233107 0.33803228
O 0.996631 -0.2846284 1.6003367
C -1.0307622 -0.35832673 0.15030083
O -1.6855136 0.2495075 1.2235887
H 0.85184 2.463551 -0.7159285
H -0.7549789 2.3878546 -1.4554209
H -0.59952796 2.3585145 0.30444887
H -0.26852804 -0.7515066 -2.4902682
H 1.2449728 0.17624976 -2.3895128
H 0.7833476 -2.395842 -0.84768385
H 2.1825426 -1.295007 -0.75276685
H 0.99305844 -1.1171023 2.0900283
H -1.6471103 -1.117076 -0.33540004
H -1.0371451 0.31013688 1.9393862
