18
title
C -1.015081 2.028624 -0.42651457
C -0.9246998 0.5189364 -0.4432766
C 0.3347565 -0.288148 -0.7145525
O 0.42339945 -1.2932335 -1.659171
C 1.5352094 0.35565242 -0.029230075
O 0.8133372 0.41022786 1.2310307
C -0.2957651 -0.30904216 0.6603062
C -0.9614055 -1.3429765 1.5058361
H -0.21525031 2.4546723 0.18408222
H -0.94680065 2.452668 -1.4345511
H -1.9671233 2.3538105 0.006118609
H -1.7864596 0.0034915195 -0.86648256
H 0.24479294 -0.9141791 -2.5266342
H 2.3894887 -0.32709098 0.041762367
H 1.8706343 1.344243 -0.36468327
H -1.4897202 -0.8789561 2.3463933
H -1.6905138 -1.9035163 0.9140545
H -0.22663373 -2.0454032 1.9111633
