title
 OpenBabel02282109593D

 16 17  0  0  1  0  0  0  0  0999 V2000
   -0.0929    1.9822   -0.6885 C   0  0  0  0  0  0  0  0  0  0  0  0
   -0.0740    0.4958   -0.5981 C   0  0  1  0  0  0  0  0  0  0  0  0
    0.4375   -0.2683   -1.7069 O   0  0  0  0  0  0  0  0  0  0  0  0
    1.0797   -1.2164   -0.8124 C   0  0  0  0  0  0  0  0  0  0  0  0
    0.4424   -0.5373    0.3859 C   0  0  1  0  0  0  0  0  0  0  0  0
    0.9955   -0.3534    1.6443 O   0  0  0  0  0  0  0  0  0  0  0  0
   -1.0534   -0.3671    0.1702 C   0  0  1  0  0  0  0  0  0  0  0  0
   -1.7116    0.2473    1.2372 O   0  0  0  0  0  0  0  0  0  0  0  0
    0.9160    2.3990   -0.7612 H   0  0  0  0  0  0  0  0  0  0  0  0
   -0.6568    2.2904   -1.5761 H   0  0  0  0  0  0  0  0  0  0  0  0
   -0.5917    2.3946    0.1917 H   0  0  0  0  0  0  0  0  0  0  0  0
    0.7998   -2.2536   -1.0325 H   0  0  0  0  0  0  0  0  0  0  0  0
    2.1709   -1.1061   -0.8404 H   0  0  0  0  0  0  0  0  0  0  0  0
    0.9364   -1.1876    2.1276 H   0  0  0  0  0  0  0  0  0  0  0  0
   -1.6544   -1.1140   -0.3482 H   0  0  0  0  0  0  0  0  0  0  0  0
   -1.0937    0.2626    1.9806 H   0  0  0  0  0  0  0  0  0  0  0  0
  1  2  1  0  0  0  0
  1 11  1  0  0  0  0
  2  7  1  6  0  0  0
  3  4  1  0  0  0  0
  3  2  1  0  0  0  0
  4  5  1  0  0  0  0
  5  2  1  6  0  0  0
  5  6  1  0  0  0  0
  6 14  1  0  0  0  0
  7  5  1  1  0  0  0
  7  8  1  0  0  0  0
  8 16  1  0  0  0  0
  9  1  1  0  0  0  0
 10  1  1  0  0  0  0
 12  4  1  0  0  0  0
 13  4  1  0  0  0  0
 15  7  1  0  0  0  0
M  END
