title
 OpenBabel02282109593D

 13 13  0  0  1  0  0  0  0  0999 V2000
   -1.2891   -2.8154   -1.4419 C   0  0  0  0  0  0  0  0  0  0  0  0
   -0.9646   -1.6986   -1.1395 C   0  0  0  0  0  0  0  0  0  0  0  0
   -0.5922   -0.3478   -0.7685 C   0  0  1  0  0  0  0  0  0  0  0  0
   -0.9889    0.1400    0.6520 C   0  0  0  0  0  0  0  0  0  0  0  0
    0.5356    0.3195    0.8615 C   0  0  1  0  0  0  0  0  0  0  0  0
    0.8251   -0.2056   -0.4474 O   0  0  0  0  0  0  0  0  0  0  0  0
    0.9996    1.7001    1.0315 C   0  0  0  0  0  0  0  0  0  0  0  0
    1.3519    2.7911    1.1768 N   0  0  0  0  0  0  0  0  0  0  0  0
   -1.5710   -3.8024   -1.7159 H   0  0  0  0  0  0  0  0  0  0  0  0
   -0.8676    0.3534   -1.5650 H   0  0  0  0  0  0  0  0  0  0  0  0
   -1.5829    1.0517    0.6852 H   0  0  0  0  0  0  0  0  0  0  0  0
   -1.4345   -0.6266    1.2833 H   0  0  0  0  0  0  0  0  0  0  0  0
    0.9766   -0.3001    1.6501 H   0  0  0  0  0  0  0  0  0  0  0  0
  1  2  3  0  0  0  0
  2  3  1  0  0  0  0
  3 10  1  6  0  0  0
  3  6  1  0  0  0  0
  3  4  1  0  0  0  0
  4 11  1  0  0  0  0
  4  5  1  0  0  0  0
  4 12  1  0  0  0  0
  5  7  1  0  0  0  0
  5 13  1  1  0  0  0
  6  5  1  0  0  0  0
  7  8  3  0  0  0  0
  9  1  1  0  0  0  0
M  END
