title
 OpenBabel02282109593D

 18 19  0  0  1  0  0  0  0  0999 V2000
    0.5767    1.8651   -0.1996 O   0  0  0  0  0  0  0  0  0  0  0  0
    0.6255    0.4795   -0.0395 C   0  0  1  0  0  0  0  0  0  0  0  0
    0.9733   -0.0601    1.3842 C   0  0  0  0  0  0  0  0  0  0  0  0
   -0.4312   -0.7356    1.4837 C   0  0  0  0  0  0  0  0  0  0  0  0
   -0.7030   -0.3583    0.0092 C   0  0  1  0  0  0  0  0  0  0  0  0
   -1.9208    0.2356   -0.3256 O   0  0  0  0  0  0  0  0  0  0  0  0
   -0.0787   -1.3381   -1.0345 C   0  0  0  0  0  0  0  0  0  0  0  0
    1.1535   -0.3931   -1.2015 C   0  0  0  0  0  0  0  0  0  0  0  0
    1.4761    2.2062   -0.1371 H   0  0  0  0  0  0  0  0  0  0  0  0
    1.8265   -0.7429    1.4239 H   0  0  0  0  0  0  0  0  0  0  0  0
    1.1263    0.7432    2.1077 H   0  0  0  0  0  0  0  0  0  0  0  0
   -0.4566   -1.7989    1.7394 H   0  0  0  0  0  0  0  0  0  0  0  0
   -1.1000   -0.1886    2.1528 H   0  0  0  0  0  0  0  0  0  0  0  0
   -2.6028   -0.4453   -0.3034 H   0  0  0  0  0  0  0  0  0  0  0  0
    0.1450   -2.3382   -0.6534 H   0  0  0  0  0  0  0  0  0  0  0  0
   -0.6877   -1.4287   -1.9363 H   0  0  0  0  0  0  0  0  0  0  0  0
    1.1201    0.1572   -2.1449 H   0  0  0  0  0  0  0  0  0  0  0  0
    2.1447   -0.8394   -1.0797 H   0  0  0  0  0  0  0  0  0  0  0  0
  1  9  1  0  0  0  0
  1  2  1  0  0  0  0
  2  5  1  6  0  0  0
  2  3  1  0  0  0  0
  3 10  1  0  0  0  0
  3  4  1  0  0  0  0
  3 11  1  0  0  0  0
  4 12  1  0  0  0  0
  4 13  1  0  0  0  0
  5  6  1  6  0  0  0
  5  4  1  0  0  0  0
  6 14  1  0  0  0  0
  7 15  1  0  0  0  0
  7  5  1  0  0  0  0
  8 18  1  0  0  0  0
  8  7  1  0  0  0  0
  8  2  1  0  0  0  0
 16  7  1  0  0  0  0
 17  8  1  0  0  0  0
M  END
