13
title
C -1.2890962 -2.8153505 -1.4419001
C -0.9646304 -1.6985521 -1.1394603
C -0.59222174 -0.34780797 -0.7684868
C -0.9888703 0.14001372 0.6519583
C 0.5355523 0.319549 0.8615177
O 0.82509106 -0.20561072 -0.44735402
C 0.99962527 1.7001158 1.031511
N 1.3518773 2.7910566 1.1768394
H -1.5710497 -3.8024423 -1.7159232
H -0.8676076 0.35336342 -1.5650008
H -1.5829043 1.0517274 0.68516546
H -1.4345459 -0.62661976 1.2833326
H 0.97655314 -0.30009016 1.6501255
