title
 OpenBabel02282109593D

 20 21  0  0  1  0  0  0  0  0999 V2000
   -0.5849    2.0130   -0.5633 C   0  0  0  0  0  0  0  0  0  0  0  0
   -0.3189    0.5254   -0.5598 C   0  0  1  0  0  0  0  0  0  0  0  0
    0.7430   -0.0463   -1.5439 C   0  0  0  0  0  0  0  0  0  0  0  0
    1.4219   -0.8330   -0.3803 C   0  0  0  0  0  0  0  0  0  0  0  0
    0.3548   -0.2896    0.6038 C   0  0  1  0  0  0  0  0  0  0  0  0
    0.7647    0.2271    1.9578 C   0  0  0  0  0  0  0  0  0  0  0  0
   -0.7887   -1.1798    0.6737 O   0  0  0  0  0  0  0  0  0  0  0  0
   -1.5010   -0.4365   -0.3392 C   0  0  0  0  0  0  0  0  0  0  0  0
    0.3472    2.5866   -0.5135 H   0  0  0  0  0  0  0  0  0  0  0  0
   -1.1047    2.3146   -1.4813 H   0  0  0  0  0  0  0  0  0  0  0  0
   -1.2109    2.3134    0.2842 H   0  0  0  0  0  0  0  0  0  0  0  0
    0.3431   -0.6484   -2.3645 H   0  0  0  0  0  0  0  0  0  0  0  0
    1.3846    0.7283   -1.9723 H   0  0  0  0  0  0  0  0  0  0  0  0
    1.4164   -1.9219   -0.4624 H   0  0  0  0  0  0  0  0  0  0  0  0
    2.4401   -0.4986   -0.1621 H   0  0  0  0  0  0  0  0  0  0  0  0
    1.5833    0.9490    1.8723 H   0  0  0  0  0  0  0  0  0  0  0  0
   -0.0761    0.7082    2.4666 H   0  0  0  0  0  0  0  0  0  0  0  0
    1.1089   -0.6024    2.5865 H   0  0  0  0  0  0  0  0  0  0  0  0
   -2.4025    0.0372    0.0743 H   0  0  0  0  0  0  0  0  0  0  0  0
   -1.7918   -1.0632   -1.1928 H   0  0  0  0  0  0  0  0  0  0  0  0
  1  2  1  0  0  0  0
  1  9  1  0  0  0  0
  1 11  1  0  0  0  0
  2  8  1  0  0  0  0
  2  5  1  1  0  0  0
  3  2  1  0  0  0  0
  3  4  1  0  0  0  0
  4 15  1  0  0  0  0
  4  5  1  0  0  0  0
  5  7  1  0  0  0  0
  5  6  1  1  0  0  0
  6 17  1  0  0  0  0
  6 18  1  0  0  0  0
  8 19  1  0  0  0  0
  8  7  1  0  0  0  0
 10  1  1  0  0  0  0
 12  3  1  0  0  0  0
 13  3  1  0  0  0  0
 14  4  1  0  0  0  0
 16  6  1  0  0  0  0
 20  8  1  0  0  0  0
M  END
