14
title
C -1.0394356 -2.8969445 -1.2036095
C -0.956205 -1.702637 -1.0871952
C -0.8139324 -0.25991684 -0.95009506
C -1.0543721 0.27872044 0.49565288
C 0.4953001 0.30996388 0.62580603
N 0.59391016 0.2306518 -0.84999603
C 1.1106048 1.4933026 1.2263517
N 1.5881273 2.4237862 1.7178981
H -1.1238672 -3.950239 -1.3129433
H -1.377691 0.24818105 -1.7388242
H -1.4932126 1.2758803 0.4962407
H -1.5865213 -0.37425262 1.1840398
H 0.86787826 -0.57841784 1.1521566
H 1.2982613 -0.4108594 -1.1991365
