title
 OpenBabel02282109593D

 14 14  0  0  1  0  0  0  0  0999 V2000
   -1.2886   -2.7863   -1.4499 C   0  0  0  0  0  0  0  0  0  0  0  0
   -0.9752   -1.6635   -1.1568 C   0  0  0  0  0  0  0  0  0  0  0  0
   -0.6116   -0.3039   -0.7970 C   0  0  1  0  0  0  0  0  0  0  0  0
   -0.9961    0.1770    0.6272 C   0  0  0  0  0  0  0  0  0  0  0  0
    0.5334    0.3178    0.8468 C   0  0  1  0  0  0  0  0  0  0  0  0
    0.8028   -0.1430   -0.5049 O   0  0  0  0  0  0  0  0  0  0  0  0
    1.0433    1.6515    1.1137 C   0  0  0  0  0  0  0  0  0  0  0  0
    1.4555    2.7570    1.3439 C   0  0  0  0  0  0  0  0  0  0  0  0
   -1.5605   -3.7784   -1.7146 H   0  0  0  0  0  0  0  0  0  0  0  0
   -0.9155    0.3855   -1.5944 H   0  0  0  0  0  0  0  0  0  0  0  0
   -1.5526    1.1125    0.6594 H   0  0  0  0  0  0  0  0  0  0  0  0
   -1.4804   -0.5736    1.2500 H   0  0  0  0  0  0  0  0  0  0  0  0
    0.9429   -0.3900    1.5779 H   0  0  0  0  0  0  0  0  0  0  0  0
    1.8269    3.7316    1.5449 H   0  0  0  0  0  0  0  0  0  0  0  0
  1  2  3  0  0  0  0
  2  3  1  0  0  0  0
  3 10  1  6  0  0  0
  3  6  1  0  0  0  0
  3  4  1  0  0  0  0
  4 11  1  0  0  0  0
  4  5  1  0  0  0  0
  4 12  1  0  0  0  0
  5  7  1  0  0  0  0
  5 13  1  1  0  0  0
  6  5  1  0  0  0  0
  7  8  3  0  0  0  0
  8 14  1  0  0  0  0
  9  1  1  0  0  0  0
M  END
