14
title
C -1.2886126 -2.786316 -1.4499336
C -0.9751815 -1.6635164 -1.1567622
C -0.61163217 -0.30388916 -0.7970201
C -0.9961397 0.17701603 0.62716776
C 0.5333683 0.31777942 0.84675735
O 0.80278796 -0.14300917 -0.50487554
C 1.0432712 1.6515366 1.1137476
C 1.4554685 2.756966 1.3439336
H -1.5604986 -3.778424 -1.7146034
H -0.91547704 0.38546526 -1.5943896
H -1.5526212 1.1124831 0.65939933
H -1.4803824 -0.5736046 1.2499764
H 0.9429423 -0.38998377 1.577949
H 1.8268739 3.7316055 1.5448959
