20
title
C -0.64618176 1.9746234 -0.39248976
C -0.35572004 0.4975093 -0.52845794
C 0.73652303 0.049344134 -1.539575
C 1.4165845 -0.8252873 -0.44068843
C 0.3542399 -0.35171667 0.5907711
O 0.8194628 0.29127237 1.7459652
C -0.89320105 -1.2613673 0.71579444
C -1.5624094 -0.48857763 -0.46294847
H 0.2752547 2.5495014 -0.25260574
H -1.1483186 2.3571284 -1.2899927
H -1.2959902 2.1762874 0.46576956
H 0.37118438 -0.48483154 -2.4211175
H 1.3696189 0.873791 -1.8786792
H 1.4512548 -1.9021659 -0.6306541
H 2.4195442 -0.48154768 -0.17644724
H 1.2459365 -0.36533728 2.3083181
H -0.73651755 -2.3359046 0.5807133
H -1.4049673 -1.095138 1.6671698
H -2.5076637 -0.010294636 -0.19403243
H -1.7240126 -1.0730968 -1.3728231
