title
 OpenBabel02282109593D

 12 12  0  0  1  0  0  0  0  0999 V2000
   -1.3060   -2.7213   -1.4331 N   0  0  0  0  0  0  0  0  0  0  0  0
   -0.9971   -1.6439   -1.1531 C   0  0  0  0  0  0  0  0  0  0  0  0
   -0.6299   -0.2757   -0.7856 C   0  0  1  0  0  0  0  0  0  0  0  0
   -0.9794    0.1634    0.6601 C   0  0  0  0  0  0  0  0  0  0  0  0
    0.5565    0.2879    0.8351 C   0  0  1  0  0  0  0  0  0  0  0  0
    0.7862   -0.1312   -0.5299 O   0  0  0  0  0  0  0  0  0  0  0  0
    1.0700    1.6318    1.1037 C   0  0  0  0  0  0  0  0  0  0  0  0
    1.4601    2.6956    1.3294 N   0  0  0  0  0  0  0  0  0  0  0  0
   -0.9638    0.4095   -1.5719 H   0  0  0  0  0  0  0  0  0  0  0  0
   -1.5334    1.0976    0.7289 H   0  0  0  0  0  0  0  0  0  0  0  0
   -1.4457   -0.6008    1.2791 H   0  0  0  0  0  0  0  0  0  0  0  0
    1.0008   -0.4155    1.5471 H   0  0  0  0  0  0  0  0  0  0  0  0
  1  2  3  0  0  0  0
  2  3  1  0  0  0  0
  3  9  1  6  0  0  0
  3  6  1  0  0  0  0
  3  4  1  0  0  0  0
  4 10  1  0  0  0  0
  4  5  1  0  0  0  0
  4 11  1  0  0  0  0
  5  7  1  0  0  0  0
  5 12  1  1  0  0  0
  6  5  1  0  0  0  0
  7  8  3  0  0  0  0
M  END
