15
title
O -0.8397042 -3.16221 -0.42287076
C -0.8802166 -1.9758937 -0.22820766
C 0.32014164 -1.0659504 -0.20367287
C 0.13468203 0.20853133 -1.0906421
C -0.2134715 1.0337756 0.18770185
C 0.35190818 -0.13583378 1.0530155
C 0.39205202 2.3457067 0.33708075
N 0.8955088 3.3802578 0.45223102
H -1.8549582 -1.4600835 -0.046576872
H 1.214791 -1.6602932 -0.38981655
H 1.0774827 0.5236897 -1.5392228
H -0.6334255 0.1751122 -1.8660089
H -1.2954807 1.1293457 0.31270888
H -0.2503917 -0.43215972 1.9142511
H 1.3736577 0.054137424 1.3837092
