title
 OpenBabel02282109593D

 16 16  0  0  1  0  0  0  0  0999 V2000
   -0.9676   -3.1097   -0.4029 O   0  0  0  0  0  0  0  0  0  0  0  0
   -0.9474   -1.9210   -0.2123 C   0  0  0  0  0  0  0  0  0  0  0  0
    0.2922   -1.0690   -0.2006 C   0  0  1  0  0  0  0  0  0  0  0  0
    0.1564    0.2101   -1.0899 C   0  0  0  0  0  0  0  0  0  0  0  0
   -0.1605    1.0547    0.1858 C   0  0  1  0  0  0  0  0  0  0  0  0
    0.3727   -0.1331    1.0495 C   0  0  0  0  0  0  0  0  0  0  0  0
    0.4658    2.3515    0.3304 C   0  0  0  0  0  0  0  0  0  0  0  0
    1.0097    3.4180    0.4465 C   0  0  0  0  0  0  0  0  0  0  0  0
   -1.8953   -1.3592   -0.0247 H   0  0  0  0  0  0  0  0  0  0  0  0
    1.1564   -1.7065   -0.3904 H   0  0  0  0  0  0  0  0  0  0  0  0
    1.1146    0.4879   -1.5314 H   0  0  0  0  0  0  0  0  0  0  0  0
   -0.6056    0.2006   -1.8728 H   0  0  0  0  0  0  0  0  0  0  0  0
   -1.2440    1.1529    0.3111 H   0  0  0  0  0  0  0  0  0  0  0  0
   -0.2218   -0.4085    1.9238 H   0  0  0  0  0  0  0  0  0  0  0  0
    1.4068    0.0241    1.3594 H   0  0  0  0  0  0  0  0  0  0  0  0
    1.4827    4.3630    0.5503 H   0  0  0  0  0  0  0  0  0  0  0  0
  1  2  2  0  0  0  0
  2  3  1  0  0  0  0
  2  9  1  0  0  0  0
  3 10  1  6  0  0  0
  3  6  1  0  0  0  0
  4  3  1  0  0  0  0
  4  5  1  0  0  0  0
  5 13  1  1  0  0  0
  5  7  1  0  0  0  0
  5  6  1  0  0  0  0
  6 15  1  0  0  0  0
  6 14  1  0  0  0  0
  7  8  3  0  0  0  0
  8 16  1  0  0  0  0
 11  4  1  0  0  0  0
 12  4  1  0  0  0  0
M  END
