15
title
O -1.9140357 -2.2187774 0.66740996
C -1.9299256 -1.0299958 0.42272055
N -0.8935735 -0.34849587 -0.11378002
C 0.47063383 -0.7942312 -0.3843805
C 0.8219696 0.6840446 -0.77849364
C -0.63179004 1.0744448 -0.33078218
C 1.9186264 1.3165324 -0.079175025
C 2.82426 1.8387501 0.5141455
H -2.808064 -0.3756086 0.6028165
H 0.99418986 -1.1631978 0.50240064
H 0.55388963 -1.5311486 -1.1877397
H 0.94673574 0.7908797 -1.8587115
H -1.2471689 1.5426779 -1.1053123
H -0.6635045 1.6814921 0.57966244
H 3.6281245 2.3000247 1.0327617
