14
title
O -1.9582317 -1.4854639 -1.183557
C -1.7792864 -0.30971798 -1.3805474
C -0.45860466 0.38506046 -1.132141
C -0.44393143 1.2022339 0.19692904
C 0.3748398 0.0085796565 0.77373964
N 0.6063722 -0.48464546 -0.60712713
C 1.5858381 0.3308772 1.5285811
N 2.5294285 0.6006147 2.1385505
H -2.5928328 0.34753707 -1.7609134
H -0.1876889 0.95040435 -2.0336561
H 0.1341943 2.1222947 0.1233924
H -1.4023582 1.4038862 0.6759407
H -0.24933846 -0.65357983 1.3859837
H 0.39748362 -1.4727592 -0.7255746
