13
title
N -0.96904546 -2.877064 -1.1373624
C -0.9175888 -1.7256656 -1.0440774
C -0.8075668 -0.26796207 -0.93125063
C -1.0460968 0.2644507 0.51534146
C 0.5054281 0.33580545 0.626592
N 0.58176327 0.24541871 -0.8506732
C 1.0956304 1.5425549 1.2034389
N 1.5526582 2.4927082 1.6757694
H -1.400303 0.19603841 -1.7247056
H -1.5120058 1.2487149 0.5120092
H -1.5550545 -0.39799735 1.2119046
H 0.90895855 -0.5376548 1.1547905
H 1.3081845 -0.35607526 -1.2241286
