14
title
O -2.5315197 -0.11450715 -1.6155486
C -1.5901442 -0.8098685 -1.3356303
C -0.21823281 -0.27909002 -0.96441126
C -0.17545182 1.0441085 -0.18566264
C 0.35278803 0.17041032 0.9867502
O 0.32235342 -1.0256164 0.15002243
C 1.6759738 0.47580782 1.4978802
C 2.7680247 0.7439677 1.921973
H -1.6561714 -1.9204799 -1.3142078
H 0.4339214 -0.34265336 -1.8481919
H 0.5386656 1.778783 -0.5532711
H -1.1489457 1.5086702 -0.030395456
H -0.3552577 0.06607942 1.8179781
H 3.7334397 0.9750866 2.3001437
