title
 OpenBabel02282109593D

 14 14  0  0  1  0  0  0  0  0999 V2000
   -0.9654   -2.9035   -1.1071 N   0  0  0  0  0  0  0  0  0  0  0  0
   -0.9061   -1.7499   -1.0557 C   0  0  0  0  0  0  0  0  0  0  0  0
   -0.8180   -0.2994   -0.9749 C   0  0  1  0  0  0  0  0  0  0  0  0
   -1.0251    0.2620    0.4712 C   0  0  0  0  0  0  0  0  0  0  0  0
    0.5249    0.3617    0.6227 C   0  0  1  0  0  0  0  0  0  0  0  0
    0.6510    0.2382   -0.9278 C   0  0  0  0  0  0  0  0  0  0  0  0
    1.0730    1.5461    1.2592 C   0  0  0  0  0  0  0  0  0  0  0  0
    1.4963    2.5036    1.7498 N   0  0  0  0  0  0  0  0  0  0  0  0
   -1.4547    0.1394   -1.7452 H   0  0  0  0  0  0  0  0  0  0  0  0
   -1.4936    1.2467    0.4419 H   0  0  0  0  0  0  0  0  0  0  0  0
   -1.5493   -0.3732    1.1842 H   0  0  0  0  0  0  0  0  0  0  0  0
    0.9230   -0.5295    1.1149 H   0  0  0  0  0  0  0  0  0  0  0  0
    1.4355   -0.4157   -1.3071 H   0  0  0  0  0  0  0  0  0  0  0  0
    0.7224    1.2151   -1.4077 H   0  0  0  0  0  0  0  0  0  0  0  0
  1  2  3  0  0  0  0
  2  3  1  0  0  0  0
  3  9  1  6  0  0  0
  3  6  1  0  0  0  0
  3  4  1  0  0  0  0
  4  5  1  0  0  0  0
  4 11  1  0  0  0  0
  5 12  1  1  0  0  0
  5  7  1  0  0  0  0
  6  5  1  0  0  0  0
  7  8  3  0  0  0  0
 10  4  1  0  0  0  0
 13  6  1  0  0  0  0
 14  6  1  0  0  0  0
M  END
