title
 OpenBabel02282109593D

 15 15  0  0  0  0  0  0  0  0999 V2000
   -1.9140   -2.2188    0.6674 O   0  0  0  0  0  0  0  0  0  0  0  0
   -1.9299   -1.0300    0.4227 C   0  0  0  0  0  0  0  0  0  0  0  0
   -0.8936   -0.3485   -0.1138 N   0  0  0  0  0  0  0  0  0  0  0  0
    0.4706   -0.7942   -0.3844 C   0  0  0  0  0  0  0  0  0  0  0  0
    0.8220    0.6840   -0.7785 C   0  0  0  0  0  0  0  0  0  0  0  0
   -0.6318    1.0744   -0.3308 C   0  0  0  0  0  0  0  0  0  0  0  0
    1.9186    1.3165   -0.0792 C   0  0  0  0  0  0  0  0  0  0  0  0
    2.8243    1.8388    0.5141 C   0  0  0  0  0  0  0  0  0  0  0  0
   -2.8081   -0.3756    0.6028 H   0  0  0  0  0  0  0  0  0  0  0  0
    0.9942   -1.1632    0.5024 H   0  0  0  0  0  0  0  0  0  0  0  0
    0.5539   -1.5311   -1.1877 H   0  0  0  0  0  0  0  0  0  0  0  0
    0.9467    0.7909   -1.8587 H   0  0  0  0  0  0  0  0  0  0  0  0
   -1.2472    1.5427   -1.1053 H   0  0  0  0  0  0  0  0  0  0  0  0
   -0.6635    1.6815    0.5797 H   0  0  0  0  0  0  0  0  0  0  0  0
    3.6281    2.3000    1.0328 H   0  0  0  0  0  0  0  0  0  0  0  0
  2  9  1  0  0  0  0
  2  1  2  0  0  0  0
  3  2  1  0  0  0  0
  4  3  1  0  0  0  0
  4 10  1  0  0  0  0
  5  4  1  0  0  0  0
  5  6  1  0  0  0  0
  5  7  1  0  0  0  0
  6  3  1  0  0  0  0
  6 14  1  0  0  0  0
  7  8  3  0  0  0  0
  8 15  1  0  0  0  0
 11  4  1  0  0  0  0
 12  5  1  0  0  0  0
 13  6  1  0  0  0  0
M  END
