title
 OpenBabel02282109593D

 13 13  0  0  1  0  0  0  0  0999 V2000
   -2.1439   -1.3521   -1.2020 O   0  0  0  0  0  0  0  0  0  0  0  0
   -1.7365   -0.2554   -1.4708 C   0  0  0  0  0  0  0  0  0  0  0  0
   -0.3990    0.2988   -1.0221 C   0  0  1  0  0  0  0  0  0  0  0  0
   -0.4764    1.1529    0.2753 C   0  0  0  0  0  0  0  0  0  0  0  0
    0.3651   -0.0012    0.8831 C   0  0  1  0  0  0  0  0  0  0  0  0
    0.4451   -0.6735   -0.3873 O   0  0  0  0  0  0  0  0  0  0  0  0
    1.6780    0.3695    1.4152 C   0  0  0  0  0  0  0  0  0  0  0  0
    2.7042    0.6812    1.8449 N   0  0  0  0  0  0  0  0  0  0  0  0
   -2.3387    0.4737   -2.0624 H   0  0  0  0  0  0  0  0  0  0  0  0
    0.0975    0.7878   -1.8705 H   0  0  0  0  0  0  0  0  0  0  0  0
    0.0354    2.1123    0.2248 H   0  0  0  0  0  0  0  0  0  0  0  0
   -1.4672    1.2786    0.7118 H   0  0  0  0  0  0  0  0  0  0  0  0
   -0.1628   -0.6104    1.6254 H   0  0  0  0  0  0  0  0  0  0  0  0
  2  1  2  0  0  0  0
  2  3  1  0  0  0  0
  3 10  1  6  0  0  0
  3  6  1  0  0  0  0
  3  4  1  0  0  0  0
  4 12  1  0  0  0  0
  4  5  1  0  0  0  0
  5  7  1  0  0  0  0
  5 13  1  1  0  0  0
  6  5  1  0  0  0  0
  7  8  3  0  0  0  0
  9  2  1  0  0  0  0
 11  4  1  0  0  0  0
M  END
