title
 OpenBabel02282109593D

 15 15  0  0  1  0  0  0  0  0999 V2000
   -1.3190    2.3422   -1.3438 C   0  0  0  0  0  0  0  0  0  0  0  0
   -1.4262    0.8896   -1.3445 N   0  0  0  0  0  0  0  0  0  0  0  0
   -0.5541    0.2083   -0.7689 C   0  0  0  0  0  0  0  0  0  0  0  0
   -0.3199   -1.2701   -0.5599 C   0  0  0  0  0  0  0  0  0  0  0  0
    0.9639   -0.7977    0.1777 C   0  0  1  0  0  0  0  0  0  0  0  0
    0.5912    0.6001   -0.0800 O   0  0  0  0  0  0  0  0  0  0  0  0
    1.0852   -1.1036    1.5878 C   0  0  0  0  0  0  0  0  0  0  0  0
    1.1865   -1.3779    2.7531 C   0  0  0  0  0  0  0  0  0  0  0  0
   -0.4394    2.7274   -0.8153 H   0  0  0  0  0  0  0  0  0  0  0  0
   -1.2922    2.6983   -2.3794 H   0  0  0  0  0  0  0  0  0  0  0  0
   -2.2187    2.7654   -0.8841 H   0  0  0  0  0  0  0  0  0  0  0  0
   -1.0559   -1.7670    0.0725 H   0  0  0  0  0  0  0  0  0  0  0  0
   -0.1543   -1.8514   -1.4678 H   0  0  0  0  0  0  0  0  0  0  0  0
    1.8930   -1.0274   -0.3526 H   0  0  0  0  0  0  0  0  0  0  0  0
    1.2781   -1.6141    3.7848 H   0  0  0  0  0  0  0  0  0  0  0  0
  1 11  1  0  0  0  0
  1  9  1  0  0  0  0
  2  1  1  0  0  0  0
  2  3  2  0  0  0  0
  3  4  1  0  0  0  0
  3  6  1  0  0  0  0
  4 12  1  0  0  0  0
  4  5  1  0  0  0  0
  5 14  1  6  0  0  0
  5  7  1  0  0  0  0
  6  5  1  0  0  0  0
  7  8  3  0  0  0  0
  8 15  1  0  0  0  0
 10  1  1  0  0  0  0
 13  4  1  0  0  0  0
M  END
