title
 OpenBabel02282109593D

 14 14  0  0  1  0  0  0  0  0999 V2000
   -2.2850   -1.2698   -1.1395 O   0  0  0  0  0  0  0  0  0  0  0  0
   -1.8144   -0.1907   -1.3745 C   0  0  0  0  0  0  0  0  0  0  0  0
   -0.4594    0.2873   -0.8979 C   0  0  1  0  0  0  0  0  0  0  0  0
   -0.5192    1.1926    0.3669 C   0  0  0  0  0  0  0  0  0  0  0  0
    0.3163    0.0413    0.9991 C   0  0  1  0  0  0  0  0  0  0  0  0
    0.3082   -0.7080   -0.2178 O   0  0  0  0  0  0  0  0  0  0  0  0
    1.6949    0.4653    1.4590 C   0  0  0  0  0  0  0  0  0  0  0  0
    2.7092    0.2956    0.8396 O   0  0  0  0  0  0  0  0  0  0  0  0
   -2.3671    0.5823   -1.9606 H   0  0  0  0  0  0  0  0  0  0  0  0
    0.0850    0.7271   -1.7457 H   0  0  0  0  0  0  0  0  0  0  0  0
   -0.0095    2.1524    0.2771 H   0  0  0  0  0  0  0  0  0  0  0  0
   -1.5104    1.3390    0.7971 H   0  0  0  0  0  0  0  0  0  0  0  0
   -0.1887   -0.4887    1.8191 H   0  0  0  0  0  0  0  0  0  0  0  0
    1.6826    0.9900    2.4444 H   0  0  0  0  0  0  0  0  0  0  0  0
  2  1  2  0  0  0  0
  2  3  1  0  0  0  0
  3 10  1  6  0  0  0
  3  6  1  0  0  0  0
  3  4  1  0  0  0  0
  4 12  1  0  0  0  0
  4  5  1  0  0  0  0
  5  7  1  0  0  0  0
  5 13  1  1  0  0  0
  6  5  1  0  0  0  0
  7 14  1  0  0  0  0
  8  7  2  0  0  0  0
  9  2  1  0  0  0  0
 11  4  1  0  0  0  0
M  END
