19
title
C 0.5294664 2.6182933 1.5541563
C 0.8817356 1.1332424 1.6781205
C 1.0630679 0.45946723 0.33260366
C 1.1041592 -1.0840564 0.2831858
C -0.16877039 -0.9383539 -0.52005166
O -0.18155207 0.44857973 -0.4516274
N -0.95827883 -1.7317975 -1.0760866
C -2.1105134 -1.2007177 -1.7912213
H 1.3265076 3.1739368 1.048086
H -0.38912868 2.7463834 0.974731
H 0.37887728 3.070648 2.5384047
H 1.8123224 1.0066034 2.246987
H 0.097295925 0.6035936 2.2328079
H 1.8476974 0.9504369 -0.25378016
H 1.940725 -1.5304585 -0.25675002
H 0.9834803 -1.5851955 1.2461863
H -2.1784105 -0.106500976 -1.7848946
H -2.075771 -1.5441675 -2.8311076
H -3.0261047 -1.6115742 -1.3512369
