15
title
C -0.71723455 2.215639 1.8006442
N -0.6103884 0.7653608 1.8855541
C -0.4949795 0.09509153 0.8418278
C -0.36329165 -1.3817297 0.53204143
C -0.31874946 -0.877751 -0.9397857
O -0.45455495 0.48975798 -0.4946611
C 0.97389907 -1.154111 -1.6719415
O 1.872548 -0.36866307 -1.7988381
H 0.09140642 2.665371 2.3862977
H -0.6734391 2.6086748 0.77878284
H -1.6595957 2.5307755 2.2614603
H 0.55053145 -1.8494939 0.90346
H -1.2261841 -1.9923626 0.7993994
H -1.1710234 -1.1874948 -1.5562227
H 1.0304061 -2.191484 -2.078024
