title
 OpenBabel02282109593D

 17 17  0  0  1  0  0  0  0  0999 V2000
    1.7188    2.1745   -1.1964 C   0  0  0  0  0  0  0  0  0  0  0  0
    1.7223    0.7203   -1.2692 N   0  0  0  0  0  0  0  0  0  0  0  0
    0.7663    0.0790   -0.7871 C   0  0  0  0  0  0  0  0  0  0  0  0
    0.4068   -1.3866   -0.6744 C   0  0  0  0  0  0  0  0  0  0  0  0
   -0.8566   -0.8612    0.0372 C   0  0  1  0  0  0  0  0  0  0  0  0
   -1.0203   -1.1531    1.5150 C   0  0  0  0  0  0  0  0  0  0  0  0
   -1.9826   -0.3020    2.1013 O   0  0  0  0  0  0  0  0  0  0  0  0
   -0.3914    0.5222   -0.1489 O   0  0  0  0  0  0  0  0  0  0  0  0
    2.6126    2.5075   -0.6574 H   0  0  0  0  0  0  0  0  0  0  0  0
    1.7880    2.5825   -2.2106 H   0  0  0  0  0  0  0  0  0  0  0  0
    0.8340    2.5981   -0.7070 H   0  0  0  0  0  0  0  0  0  0  0  0
    0.2460   -1.8937   -1.6267 H   0  0  0  0  0  0  0  0  0  0  0  0
    1.0854   -1.9791   -0.0563 H   0  0  0  0  0  0  0  0  0  0  0  0
   -1.8003   -1.0016   -0.4972 H   0  0  0  0  0  0  0  0  0  0  0  0
   -1.3745   -2.1810    1.6519 H   0  0  0  0  0  0  0  0  0  0  0  0
   -0.0399   -1.0657    2.0116 H   0  0  0  0  0  0  0  0  0  0  0  0
   -1.6991    0.6011    1.9158 H   0  0  0  0  0  0  0  0  0  0  0  0
  1 11  1  0  0  0  0
  1  9  1  0  0  0  0
  2  1  1  0  0  0  0
  2  3  2  0  0  0  0
  3  4  1  0  0  0  0
  3  8  1  0  0  0  0
  4 13  1  0  0  0  0
  4  5  1  0  0  0  0
  5 14  1  6  0  0  0
  5  6  1  0  0  0  0
  6 15  1  0  0  0  0
  6 16  1  0  0  0  0
  6  7  1  0  0  0  0
  8  5  1  0  0  0  0
 10  1  1  0  0  0  0
 12  4  1  0  0  0  0
 17  7  1  0  0  0  0
M  END
