15
title
C -1.3189561 2.342195 -1.3437794
N -1.4261614 0.8895598 -1.3445497
C -0.5541031 0.20832893 -0.76888585
C -0.31987968 -1.2701447 -0.5599278
C 0.9638879 -0.79769766 0.17766808
O 0.5912331 0.6000664 -0.08001591
C 1.085177 -1.1035503 1.5877801
C 1.1864562 -1.3778865 2.7530823
H -0.4393752 2.7273805 -0.8153482
H -1.292191 2.6982534 -2.3794045
H -2.218668 2.7654006 -0.88410854
H -1.0559405 -1.7669945 0.072494015
H -0.15433066 -1.8514416 -1.4678135
H 1.8930209 -1.0274423 -0.352551
H 1.2780523 -1.6140819 3.78479
