16
title
O -0.7029139 -3.2658844 -0.40228182
C -0.7529927 -2.0766995 -0.22327901
C 0.4384442 -1.1563284 -0.21547233
C 0.23146217 0.10798817 -1.1104864
C -0.12912036 0.94946414 0.15238823
C 0.4582054 -0.20363659 1.0232276
C 0.5419157 2.2898338 0.27683893
O -0.018096577 3.3333795 0.4887587
H -1.7304844 -1.5663046 -0.044855803
H 1.3371723 -1.7472242 -0.39727703
H 1.1740253 0.42654973 -1.5645282
H -0.5291777 0.054442458 -1.8925027
H -1.2050233 1.0769856 0.2853453
H -0.1264527 -0.49904126 1.8972417
H 1.4831798 0.0016630223 1.3446933
H 1.6521244 2.2466471 0.15255351
