title
 OpenBabel02282109593D

 20 20  0  0  1  0  0  0  0  0999 V2000
    2.5030    2.1479   -0.2450 C   0  0  0  0  0  0  0  0  0  0  0  0
    2.0968    0.7101    0.0908 C   0  0  0  0  0  0  0  0  0  0  0  0
    0.6904    0.6010    0.6827 C   0  0  1  0  0  0  0  0  0  0  0  0
   -0.4696    0.7801   -0.3425 C   0  0  0  0  0  0  0  0  0  0  0  0
   -0.6401   -0.7739   -0.3905 C   0  0  1  0  0  0  0  0  0  0  0  0
    0.2058   -0.8577    0.9226 C   0  0  0  0  0  0  0  0  0  0  0  0
   -1.9788   -1.3249   -0.3917 C   0  0  0  0  0  0  0  0  0  0  0  0
   -3.0974   -1.7679   -0.3718 C   0  0  0  0  0  0  0  0  0  0  0  0
    3.5095    2.1877   -0.6728 H   0  0  0  0  0  0  0  0  0  0  0  0
    1.8168    2.5992   -0.9696 H   0  0  0  0  0  0  0  0  0  0  0  0
    2.4963    2.7778    0.6516 H   0  0  0  0  0  0  0  0  0  0  0  0
    2.1665    0.0874   -0.8119 H   0  0  0  0  0  0  0  0  0  0  0  0
    2.8131    0.2850    0.8062 H   0  0  0  0  0  0  0  0  0  0  0  0
    0.6213    1.2515    1.5604 H   0  0  0  0  0  0  0  0  0  0  0  0
   -1.3467    1.2609    0.0957 H   0  0  0  0  0  0  0  0  0  0  0  0
   -0.2361    1.2719   -1.2905 H   0  0  0  0  0  0  0  0  0  0  0  0
   -0.0728   -1.1890   -1.2298 H   0  0  0  0  0  0  0  0  0  0  0  0
    0.9700   -1.6387    0.9603 H   0  0  0  0  0  0  0  0  0  0  0  0
   -0.4362   -0.9485    1.8013 H   0  0  0  0  0  0  0  0  0  0  0  0
   -4.0827   -2.1627   -0.3604 H   0  0  0  0  0  0  0  0  0  0  0  0
  1  2  1  0  0  0  0
  1 11  1  0  0  0  0
  2  3  1  0  0  0  0
  2 13  1  0  0  0  0
  3  6  1  0  0  0  0
  3 14  1  1  0  0  0
  4 15  1  0  0  0  0
  4  3  1  0  0  0  0
  5 17  1  6  0  0  0
  5  4  1  0  0  0  0
  5  6  1  0  0  0  0
  6 18  1  0  0  0  0
  6 19  1  0  0  0  0
  7  5  1  0  0  0  0
  7  8  3  0  0  0  0
  8 20  1  0  0  0  0
  9  1  1  0  0  0  0
 10  1  1  0  0  0  0
 12  2  1  0  0  0  0
 16  4  1  0  0  0  0
M  END
