18
title
C 2.3573878 2.2528453 0.07105189
C 2.0885575 0.76450896 -0.17265743
C 0.69448614 0.48914796 -0.73561376
C 0.29880774 -1.0111232 -0.79156464
C -0.57283115 -0.7248932 0.46712518
N -0.44899178 0.7220396 0.1916555
C -1.9440334 -1.2389921 0.47922552
N -3.0189252 -1.6636423 0.48917943
H 3.3648815 2.4128048 0.46568984
H 2.2648473 2.826675 -0.8572229
H 1.6525007 2.6798947 0.7933437
H 2.827456 0.36955747 -0.88224924
H 2.2254238 0.20039068 0.7602561
H 0.57054985 1.0364165 -1.6779015
H -0.29852748 -1.2759506 -1.6636636
H 1.1010083 -1.7377161 -0.6582895
H -0.080146305 -1.0631925 1.3884624
H -0.26045847 1.3023663 1.0024588
