title
 OpenBabel02282109593D

 18 18  0  0  0  0  0  0  0  0999 V2000
    1.6123    2.6196   -1.0304 C   0  0  0  0  0  0  0  0  0  0  0  0
    1.6385    1.0953   -0.9516 C   0  0  0  0  0  0  0  0  0  0  0  0
    0.2992    0.5381   -0.8909 N   0  0  0  0  0  0  0  0  0  0  0  0
   -0.4890    0.7203    0.3428 C   0  0  0  0  0  0  0  0  0  0  0  0
   -1.0702   -0.7081    0.1281 C   0  0  0  0  0  0  0  0  0  0  0  0
    0.1585   -0.9253   -0.8031 C   0  0  0  0  0  0  0  0  0  0  0  0
   -1.2273   -1.5722    1.2815 C   0  0  0  0  0  0  0  0  0  0  0  0
   -1.3435   -2.2596    2.2040 N   0  0  0  0  0  0  0  0  0  0  0  0
    2.6287    3.0181   -1.0981 H   0  0  0  0  0  0  0  0  0  0  0  0
    1.0471    2.9506   -1.9062 H   0  0  0  0  0  0  0  0  0  0  0  0
    1.1449    3.0545   -0.1405 H   0  0  0  0  0  0  0  0  0  0  0  0
    2.1258    0.6846   -1.8444 H   0  0  0  0  0  0  0  0  0  0  0  0
    2.2458    0.7747   -0.0818 H   0  0  0  0  0  0  0  0  0  0  0  0
    0.1260    0.7692    1.2557 H   0  0  0  0  0  0  0  0  0  0  0  0
   -1.1970    1.5532    0.3367 H   0  0  0  0  0  0  0  0  0  0  0  0
   -2.0006   -0.6767   -0.4422 H   0  0  0  0  0  0  0  0  0  0  0  0
   -0.0150   -1.4399   -1.7526 H   0  0  0  0  0  0  0  0  0  0  0  0
    0.9844   -1.4175   -0.2658 H   0  0  0  0  0  0  0  0  0  0  0  0
  1  2  1  0  0  0  0
  1 11  1  0  0  0  0
  2  3  1  0  0  0  0
  2 13  1  0  0  0  0
  3  6  1  0  0  0  0
  3  4  1  0  0  0  0
  4 14  1  0  0  0  0
  5  4  1  0  0  0  0
  5  7  1  0  0  0  0
  6 18  1  0  0  0  0
  6  5  1  0  0  0  0
  7  8  3  0  0  0  0
  9  1  1  0  0  0  0
 10  1  1  0  0  0  0
 12  2  1  0  0  0  0
 15  4  1  0  0  0  0
 16  5  1  0  0  0  0
 17  6  1  0  0  0  0
M  END
