19
title
C -1.3238654 2.2476256 -2.0587583
C -0.82493687 0.80736935 -1.9128724
C 0.30423617 0.659549 -0.8916821
C -0.14176315 0.7516341 0.59950036
C -0.078618884 -0.8069149 0.68857974
C 0.7512367 -0.80924153 -0.6352914
C 0.5199275 -1.3990371 1.8718865
N 1.0152576 -1.8570786 2.8114483
H -0.51776975 2.9112365 -2.3904023
H -2.13354 2.314114 -2.7915683
H -1.704048 2.6393719 -1.1092765
H -1.6627024 0.15283717 -1.6344618
H -0.46735978 0.44262853 -2.8845544
H 1.1204392 1.3379353 -1.157301
H 0.6092795 1.2209831 1.2376149
H -1.1140832 1.2028579 0.8098883
H -1.0655209 -1.2513337 0.5358409
H 0.46473598 -1.5564895 -1.3790045
H 1.8211887 -0.897946 -0.43774635
