18
title
C 0.40243742 3.0103076 0.23750673
O 0.83122855 1.7946415 0.80996776
C 0.09113351 0.6869852 0.3792563
C 0.37093863 0.09873629 -1.0341145
C 0.3384104 -1.332086 -0.39122984
C 0.5366224 -0.64601314 1.0051272
C -0.9272993 -2.024844 -0.5439089
C -1.9826535 -2.5889506 -0.66742927
H 1.0233296 3.8051176 0.65754
H 0.5167155 3.0140696 -0.85697657
H -0.65267354 3.2199621 0.47366053
H -0.9861694 0.8625494 0.5215966
H -0.33979198 0.29723632 -1.8371992
H 1.3835703 0.35298872 -1.3586597
H 1.1568862 -1.988578 -0.6974378
H 1.5964257 -0.5992917 1.2669624
H -0.036182962 -1.038808 1.8455497
H -2.9091566 -3.0952215 -0.77892905
