18
title
O 2.3472884 1.9349388 -0.3783638
C 2.0840745 0.60887545 0.054191973
C 0.6970388 0.5856625 0.6736743
C -0.45473662 0.77530783 -0.35156137
C -0.68746847 -0.77278745 -0.34586978
C 0.17097136 -0.84804034 0.9615917
C -2.0464938 -1.2700778 -0.30987626
C -3.1810253 -1.6675433 -0.25953782
H 3.2126806 1.9510863 -0.7971409
H 2.1326885 -0.10049137 -0.78956944
H 2.8234775 0.27515325 0.8008615
H 0.6832693 1.2753448 1.5212429
H -1.3087281 1.3053054 0.07437503
H -0.19207016 1.2328947 -1.3071423
H -0.1494483 -1.240053 -1.1770854
H 0.90754086 -1.6547226 1.0151727
H -0.46099368 -0.8894925 1.8505915
H -4.1811595 -2.0214663 -0.22162229
