title
 OpenBabel02282109593D

 18 18  0  0  1  0  0  0  0  0999 V2000
    0.5023    3.1550    0.3246 C   0  0  0  0  0  0  0  0  0  0  0  0
    0.8620    1.9075    0.8781 O   0  0  0  0  0  0  0  0  0  0  0  0
    0.0436    0.8543    0.4546 C   0  0  1  0  0  0  0  0  0  0  0  0
    0.2658    0.2636   -0.9681 C   0  0  0  0  0  0  0  0  0  0  0  0
    0.2441   -1.1734   -0.3434 C   0  0  1  0  0  0  0  0  0  0  0  0
    0.4250   -0.5075    1.0624 C   0  0  0  0  0  0  0  0  0  0  0  0
   -1.0860   -1.8560   -0.5024 C   0  0  0  0  0  0  0  0  0  0  0  0
   -1.2455   -2.9705   -0.9297 O   0  0  0  0  0  0  0  0  0  0  0  0
    1.1847    3.9018    0.7365 H   0  0  0  0  0  0  0  0  0  0  0  0
    0.5922    3.1611   -0.7720 H   0  0  0  0  0  0  0  0  0  0  0  0
   -0.5306    3.4320    0.5875 H   0  0  0  0  0  0  0  0  0  0  0  0
   -1.0167    1.1030    0.6217 H   0  0  0  0  0  0  0  0  0  0  0  0
   -0.4719    0.4860   -1.7431 H   0  0  0  0  0  0  0  0  0  0  0  0
    1.2641    0.5078   -1.3389 H   0  0  0  0  0  0  0  0  0  0  0  0
    1.0292   -1.8580   -0.6658 H   0  0  0  0  0  0  0  0  0  0  0  0
    1.4754   -0.5086    1.3609 H   0  0  0  0  0  0  0  0  0  0  0  0
   -0.1825   -0.8851    1.8882 H   0  0  0  0  0  0  0  0  0  0  0  0
   -1.9614   -1.2372   -0.1857 H   0  0  0  0  0  0  0  0  0  0  0  0
  1 11  1  0  0  0  0
  1  9  1  0  0  0  0
  1  2  1  0  0  0  0
  3 12  1  1  0  0  0
  3  2  1  0  0  0  0
  3  6  1  0  0  0  0
  4  5  1  0  0  0  0
  4  3  1  0  0  0  0
  5 15  1  6  0  0  0
  5  6  1  0  0  0  0
  6 16  1  0  0  0  0
  6 17  1  0  0  0  0
  7  5  1  0  0  0  0
  7 18  1  0  0  0  0
  8  7  2  0  0  0  0
 10  1  1  0  0  0  0
 13  4  1  0  0  0  0
 14  4  1  0  0  0  0
M  END
