17
title
C 1.7538455 2.7109418 -0.1750837
O 1.527689 1.4375781 0.39299664
C 0.18323211 1.0636954 0.39965153
C -0.40210542 0.5069099 -0.9456485
N -0.6440523 -0.75433165 -0.24419093
C -0.030218683 -0.34111243 1.0166508
C -1.2282473 -1.9208001 -0.58930516
O -1.3416668 -2.8783915 0.14897254
H 2.8248544 2.91068 -0.10245203
H 1.4582802 2.7478325 -1.2342498
H 1.2046326 3.4968812 0.36544225
H -0.44264182 1.8496673 0.8435779
H -1.303162 0.9993125 -1.3263229
H 0.34783736 0.44012243 -1.7426567
H 0.91072255 -0.85370594 1.2401787
H -0.69583374 -0.4032194 1.8819444
H -1.6023523 -1.9021889 -1.6343226
