title
 OpenBabel02282109593D

 19 19  0  0  0  0  0  0  0  0999 V2000
    1.9914    2.7399    0.2734 C   0  0  0  0  0  0  0  0  0  0  0  0
    1.8229    1.2420    0.5457 C   0  0  0  0  0  0  0  0  0  0  0  0
    0.3704    0.8294    0.7490 C   0  0  0  0  0  0  0  0  0  0  0  0
   -0.5411    0.8234   -0.5220 C   0  0  0  0  0  0  0  0  0  0  0  0
   -0.7594   -0.6068   -0.3011 N   0  0  0  0  0  0  0  0  0  0  0  0
    0.0916   -0.7002    0.8828 C   0  0  0  0  0  0  0  0  0  0  0  0
   -1.4699   -1.5560   -0.9437 C   0  0  0  0  0  0  0  0  0  0  0  0
   -1.5223   -2.7230   -0.6092 O   0  0  0  0  0  0  0  0  0  0  0  0
    3.0438    2.9997    0.1264 H   0  0  0  0  0  0  0  0  0  0  0  0
    1.4467    3.0467   -0.6264 H   0  0  0  0  0  0  0  0  0  0  0  0
    1.6130    3.3387    1.1092 H   0  0  0  0  0  0  0  0  0  0  0  0
    2.2476    0.6624   -0.2850 H   0  0  0  0  0  0  0  0  0  0  0  0
    2.3978    0.9621    1.4377 H   0  0  0  0  0  0  0  0  0  0  0  0
   -0.0731    1.4046    1.5663 H   0  0  0  0  0  0  0  0  0  0  0  0
   -1.4490    1.4336   -0.4615 H   0  0  0  0  0  0  0  0  0  0  0  0
   -0.0189    1.0570   -1.4583 H   0  0  0  0  0  0  0  0  0  0  0  0
    0.9660   -1.3466    0.7437 H   0  0  0  0  0  0  0  0  0  0  0  0
   -0.4407   -1.0200    1.7842 H   0  0  0  0  0  0  0  0  0  0  0  0
   -2.0098   -1.1441   -1.8223 H   0  0  0  0  0  0  0  0  0  0  0  0
  1  2  1  0  0  0  0
  1 11  1  0  0  0  0
  2  3  1  0  0  0  0
  2 13  1  0  0  0  0
  3  6  1  0  0  0  0
  3 14  1  0  0  0  0
  4 15  1  0  0  0  0
  4  5  1  0  0  0  0
  4  3  1  0  0  0  0
  5  6  1  0  0  0  0
  6 18  1  0  0  0  0
  7  8  2  0  0  0  0
  7  5  1  0  0  0  0
  9  1  1  0  0  0  0
 10  1  1  0  0  0  0
 12  2  1  0  0  0  0
 16  4  1  0  0  0  0
 17  6  1  0  0  0  0
 19  7  1  0  0  0  0
M  END
