title
 OpenBabel02282109593D

 17 17  0  0  0  0  0  0  0  0999 V2000
    1.7538    2.7109   -0.1751 C   0  0  0  0  0  0  0  0  0  0  0  0
    1.5277    1.4376    0.3930 O   0  0  0  0  0  0  0  0  0  0  0  0
    0.1832    1.0637    0.3997 C   0  0  0  0  0  0  0  0  0  0  0  0
   -0.4021    0.5069   -0.9456 C   0  0  0  0  0  0  0  0  0  0  0  0
   -0.6441   -0.7543   -0.2442 N   0  0  0  0  0  0  0  0  0  0  0  0
   -0.0302   -0.3411    1.0167 C   0  0  0  0  0  0  0  0  0  0  0  0
   -1.2282   -1.9208   -0.5893 C   0  0  0  0  0  0  0  0  0  0  0  0
   -1.3417   -2.8784    0.1490 O   0  0  0  0  0  0  0  0  0  0  0  0
    2.8249    2.9107   -0.1025 H   0  0  0  0  0  0  0  0  0  0  0  0
    1.4583    2.7478   -1.2342 H   0  0  0  0  0  0  0  0  0  0  0  0
    1.2046    3.4969    0.3654 H   0  0  0  0  0  0  0  0  0  0  0  0
   -0.4426    1.8497    0.8436 H   0  0  0  0  0  0  0  0  0  0  0  0
   -1.3032    0.9993   -1.3263 H   0  0  0  0  0  0  0  0  0  0  0  0
    0.3478    0.4401   -1.7427 H   0  0  0  0  0  0  0  0  0  0  0  0
    0.9107   -0.8537    1.2402 H   0  0  0  0  0  0  0  0  0  0  0  0
   -0.6958   -0.4032    1.8819 H   0  0  0  0  0  0  0  0  0  0  0  0
   -1.6024   -1.9022   -1.6343 H   0  0  0  0  0  0  0  0  0  0  0  0
  1  9  1  0  0  0  0
  1 11  1  0  0  0  0
  1  2  1  0  0  0  0
  2  3  1  0  0  0  0
  3 12  1  0  0  0  0
  3  6  1  0  0  0  0
  4  5  1  0  0  0  0
  4  3  1  0  0  0  0
  5  6  1  0  0  0  0
  6 15  1  0  0  0  0
  6 16  1  0  0  0  0
  7  5  1  0  0  0  0
  7  8  2  0  0  0  0
 10  1  1  0  0  0  0
 13  4  1  0  0  0  0
 14  4  1  0  0  0  0
 17  7  1  0  0  0  0
M  END
