title
 OpenBabel02282109593D

 15 15  0  0  1  0  0  0  0  0999 V2000
    2.2062    2.0278    0.0822 O   0  0  0  0  0  0  0  0  0  0  0  0
    2.1297    0.6387   -0.1518 C   0  0  0  0  0  0  0  0  0  0  0  0
    0.7397    0.2471   -0.6179 C   0  0  1  0  0  0  0  0  0  0  0  0
    0.3428   -1.2414   -0.5379 C   0  0  0  0  0  0  0  0  0  0  0  0
   -0.6645   -0.7695    0.5434 C   0  0  1  0  0  0  0  0  0  0  0  0
   -0.2435    0.6008    0.4045 O   0  0  0  0  0  0  0  0  0  0  0  0
   -2.0842   -0.9576    0.2304 C   0  0  0  0  0  0  0  0  0  0  0  0
   -3.1997   -1.1246   -0.0205 N   0  0  0  0  0  0  0  0  0  0  0  0
    1.5015    2.2402    0.7063 H   0  0  0  0  0  0  0  0  0  0  0  0
    2.8657    0.3995   -0.9280 H   0  0  0  0  0  0  0  0  0  0  0  0
    2.3893    0.0571    0.7489 H   0  0  0  0  0  0  0  0  0  0  0  0
    0.4988    0.7509   -1.5601 H   0  0  0  0  0  0  0  0  0  0  0  0
   -0.1088   -1.6613   -1.4352 H   0  0  0  0  0  0  0  0  0  0  0  0
    1.1179   -1.9125   -0.1648 H   0  0  0  0  0  0  0  0  0  0  0  0
   -0.4766   -1.1512    1.5536 H   0  0  0  0  0  0  0  0  0  0  0  0
  1  9  1  0  0  0  0
  2  1  1  0  0  0  0
  2 11  1  0  0  0  0
  3 12  1  6  0  0  0
  3  4  1  0  0  0  0
  3  2  1  0  0  0  0
  3  6  1  0  0  0  0
  4 14  1  0  0  0  0
  4  5  1  0  0  0  0
  5 15  1  1  0  0  0
  6  5  1  0  0  0  0
  7  5  1  0  0  0  0
  8  7  3  0  0  0  0
 10  2  1  0  0  0  0
 13  4  1  0  0  0  0
M  END
