title
 OpenBabel02282109593D

 18 18  0  0  1  0  0  0  0  0999 V2000
    2.3023    2.1328   -0.1043 O   0  0  0  0  0  0  0  0  0  0  0  0
    2.0775    0.7897    0.2940 C   0  0  0  0  0  0  0  0  0  0  0  0
    0.6547    0.6925    0.8167 C   0  0  1  0  0  0  0  0  0  0  0  0
   -0.4300    0.8432   -0.2842 C   0  0  0  0  0  0  0  0  0  0  0  0
   -0.6094   -0.7101   -0.3101 C   0  0  1  0  0  0  0  0  0  0  0  0
    0.1758   -0.7684    1.0406 C   0  0  0  0  0  0  0  0  0  0  0  0
   -2.0228   -1.2153   -0.2787 C   0  0  0  0  0  0  0  0  0  0  0  0
   -2.5026   -2.0095   -1.0463 O   0  0  0  0  0  0  0  0  0  0  0  0
    3.1873    2.1964   -0.4747 H   0  0  0  0  0  0  0  0  0  0  0  0
    2.2141    0.0951   -0.5520 H   0  0  0  0  0  0  0  0  0  0  0  0
    2.7796    0.4805    1.0858 H   0  0  0  0  0  0  0  0  0  0  0  0
    0.5504    1.3661    1.6713 H   0  0  0  0  0  0  0  0  0  0  0  0
   -1.3279    1.3498    0.0828 H   0  0  0  0  0  0  0  0  0  0  0  0
   -0.1211    1.3162   -1.2178 H   0  0  0  0  0  0  0  0  0  0  0  0
   -0.0794   -1.1903   -1.1346 H   0  0  0  0  0  0  0  0  0  0  0  0
    0.9418   -1.5445    1.1195 H   0  0  0  0  0  0  0  0  0  0  0  0
   -0.4953   -0.8584    1.9003 H   0  0  0  0  0  0  0  0  0  0  0  0
   -2.6333   -0.7787    0.5505 H   0  0  0  0  0  0  0  0  0  0  0  0
  1  2  1  0  0  0  0
  2  3  1  0  0  0  0
  2 11  1  0  0  0  0
  3  6  1  0  0  0  0
  3 12  1  1  0  0  0
  4 13  1  0  0  0  0
  4  3  1  0  0  0  0
  5 15  1  6  0  0  0
  5  4  1  0  0  0  0
  5  7  1  0  0  0  0
  5  6  1  0  0  0  0
  6 16  1  0  0  0  0
  6 17  1  0  0  0  0
  7 18  1  0  0  0  0
  8  7  2  0  0  0  0
  9  1  1  0  0  0  0
 10  2  1  0  0  0  0
 14  4  1  0  0  0  0
M  END
