20
title
C 2.2987945 2.4754765 0.21946046
C 2.194129 0.9560833 0.385117
C 0.75661856 0.45630604 0.4535494
C -0.11818759 0.5256873 -0.8312702
C -0.6455013 -0.92009974 -0.545509
C 0.50878197 -1.0765427 0.500159
C -2.0072367 -0.9259113 0.08963017
O -2.941787 -1.592439 -0.27605325
H 3.342536 2.7983832 0.16024853
H 1.7953209 2.8115582 -0.69356275
H 1.8353901 2.9981925 1.0635997
H 2.7045822 0.45726907 -0.45020658
H 2.7250762 0.646553 1.2952389
H 0.24087866 0.94908786 1.286453
H -0.8662767 1.3204768 -0.8953998
H 0.48545223 0.54697347 -1.7432789
H -0.6494176 -1.618177 -1.3840348
H 1.3426466 -1.6452001 0.078972384
H 0.24588569 -1.5162936 1.4663342
H -2.1068265 -0.23985553 0.9663817
