17
title
O 1.8724413 2.530838 0.14277445
C 1.8046154 1.1627719 0.51056254
C 0.34689367 0.8305935 0.75655127
C -0.55259466 0.82250243 -0.5168891
N -0.7598305 -0.6126309 -0.29970384
C 0.027831428 -0.68487793 0.9291369
C -1.4880521 -1.5628024 -0.9209024
O -1.573405 -2.716929 -0.55033016
H 2.787291 2.7484353 -0.05833732
H 2.1998403 0.5114342 -0.2866782
H 2.3891485 0.957696 1.4220238
H -0.04286111 1.4623969 1.5562762
H -1.465987 1.4225776 -0.44702137
H -0.03130365 1.0744151 -1.4466376
H 0.886893 -1.3627275 0.86499655
H -0.5609181 -0.9512468 1.8125913
H -2.0025601 -1.1666554 -1.8213993
