title
 OpenBabel02282109593D

 16 16  0  0  1  0  0  0  0  0999 V2000
    2.3984    1.9006   -0.2622 O   0  0  0  0  0  0  0  0  0  0  0  0
    2.1984    0.5078   -0.1459 C   0  0  0  0  0  0  0  0  0  0  0  0
    0.7978    0.1269   -0.5892 C   0  0  1  0  0  0  0  0  0  0  0  0
    0.2510   -1.2442   -0.1398 C   0  0  0  0  0  0  0  0  0  0  0  0
   -0.7469   -0.4165    0.6888 C   0  0  1  0  0  0  0  0  0  0  0  0
   -0.1844    0.8348    0.2313 O   0  0  0  0  0  0  0  0  0  0  0  0
   -2.2095   -0.5124    0.2981 C   0  0  0  0  0  0  0  0  0  0  0  0
   -2.7435   -1.5232   -0.0767 O   0  0  0  0  0  0  0  0  0  0  0  0
    1.6752    2.3157    0.2237 H   0  0  0  0  0  0  0  0  0  0  0  0
    2.9418    0.0177   -0.7850 H   0  0  0  0  0  0  0  0  0  0  0  0
    2.3597    0.1583    0.8878 H   0  0  0  0  0  0  0  0  0  0  0  0
    0.6541    0.3771   -1.6466 H   0  0  0  0  0  0  0  0  0  0  0  0
   -0.2143   -1.8589   -0.9101 H   0  0  0  0  0  0  0  0  0  0  0  0
    0.9493   -1.8496    0.4403 H   0  0  0  0  0  0  0  0  0  0  0  0
   -0.6727   -0.5228    1.7816 H   0  0  0  0  0  0  0  0  0  0  0  0
   -2.7540    0.4547    0.3812 H   0  0  0  0  0  0  0  0  0  0  0  0
  1  2  1  0  0  0  0
  1  9  1  0  0  0  0
  2 11  1  0  0  0  0
  3 12  1  6  0  0  0
  3  2  1  0  0  0  0
  3  4  1  0  0  0  0
  3  6  1  0  0  0  0
  4 14  1  0  0  0  0
  4  5  1  0  0  0  0
  5 15  1  1  0  0  0
  6  5  1  0  0  0  0
  7 16  1  0  0  0  0
  7  5  1  0  0  0  0
  8  7  2  0  0  0  0
 10  2  1  0  0  0  0
 13  4  1  0  0  0  0
M  END
