16
title
O 2.2242494 1.9542893 0.19830507
C 2.1355472 0.5710883 -0.070766464
C 0.7662931 0.22463477 -0.6304718
C 0.31332117 -1.2454814 -0.5542098
C -0.7094111 -0.7367042 0.4991598
O -0.2645778 0.6355882 0.31223696
C -2.1192086 -0.9294886 0.20895568
C -3.283334 -1.1046921 -0.03335538
H 1.450962 2.1678967 0.73565966
H 2.9168255 0.3294674 -0.80075693
H 2.323434 -0.031350162 0.83446467
H 0.61709684 0.722387 -1.5955117
H -0.14144653 -1.6409156 -1.4612784
H 1.0544213 -1.9508665 -0.17381027
H -0.4943356 -1.0732311 1.5212445
H -4.313682 -1.253852 -0.24405698
