title
 OpenBabel02282109593D

 22 22  0  0  1  0  0  0  0  0999 V2000
   -1.4350    2.9083    1.3320 C   0  0  0  0  0  0  0  0  0  0  0  0
   -1.6085    1.4008    1.1191 C   0  0  0  0  0  0  0  0  0  0  0  0
   -0.8287    0.8680   -0.0756 C   0  0  1  0  0  0  0  0  0  0  0  0
    0.7276    0.8340   -0.0126 C   0  0  0  0  0  0  0  0  0  0  0  0
    0.6904   -0.5385   -0.7377 C   0  0  1  0  0  0  0  0  0  0  0  0
    1.6561   -1.6136   -0.2881 C   0  0  0  0  0  0  0  0  0  0  0  0
    1.3521   -2.8050   -1.0009 O   0  0  0  0  0  0  0  0  0  0  0  0
   -0.8056   -0.6634   -0.3418 C   0  0  0  0  0  0  0  0  0  0  0  0
   -0.3827    3.1675    1.4925 H   0  0  0  0  0  0  0  0  0  0  0  0
   -1.7841    3.4732    0.4603 H   0  0  0  0  0  0  0  0  0  0  0  0
   -1.9993    3.2575    2.2023 H   0  0  0  0  0  0  0  0  0  0  0  0
   -1.2903    0.8624    2.0226 H   0  0  0  0  0  0  0  0  0  0  0  0
   -2.6738    1.1681    0.9864 H   0  0  0  0  0  0  0  0  0  0  0  0
   -1.1451    1.3968   -0.9835 H   0  0  0  0  0  0  0  0  0  0  0  0
    1.2851    1.6467   -0.4847 H   0  0  0  0  0  0  0  0  0  0  0  0
    1.0770    0.7291    1.0221 H   0  0  0  0  0  0  0  0  0  0  0  0
    0.7884   -0.4080   -1.8207 H   0  0  0  0  0  0  0  0  0  0  0  0
    2.6927   -1.2870   -0.4783 H   0  0  0  0  0  0  0  0  0  0  0  0
    1.5561   -1.7646    0.8002 H   0  0  0  0  0  0  0  0  0  0  0  0
    1.9453   -3.4980   -0.6969 H   0  0  0  0  0  0  0  0  0  0  0  0
   -0.9217   -1.2310    0.5889 H   0  0  0  0  0  0  0  0  0  0  0  0
   -1.4988   -1.0682   -1.0821 H   0  0  0  0  0  0  0  0  0  0  0  0
  1  9  1  0  0  0  0
  1 11  1  0  0  0  0
  2  1  1  0  0  0  0
  2 12  1  0  0  0  0
  3 14  1  6  0  0  0
  3  4  1  0  0  0  0
  3  2  1  0  0  0  0
  4 16  1  0  0  0  0
  5 17  1  6  0  0  0
  5  8  1  0  0  0  0
  5  6  1  0  0  0  0
  5  4  1  0  0  0  0
  6 19  1  0  0  0  0
  7 20  1  0  0  0  0
  7  6  1  0  0  0  0
  8  3  1  0  0  0  0
  8 21  1  0  0  0  0
 10  1  1  0  0  0  0
 13  2  1  0  0  0  0
 15  4  1  0  0  0  0
 18  6  1  0  0  0  0
 22  8  1  0  0  0  0
M  END
