title
 OpenBabel02282109593D

 22 22  0  0  1  0  0  0  0  0999 V2000
   -1.2260    2.1750    2.3216 C   0  0  0  0  0  0  0  0  0  0  0  0
   -1.2677    0.7714    1.7104 C   0  0  0  0  0  0  0  0  0  0  0  0
   -0.9623    0.7558    0.2114 C   0  0  1  0  0  0  0  0  0  0  0  0
    0.5396    0.9613   -0.1599 C   0  0  0  0  0  0  0  0  0  0  0  0
    0.6721   -0.5595   -0.3655 C   0  0  1  0  0  0  0  0  0  0  0  0
   -0.8805   -0.6691   -0.4158 C   0  0  0  0  0  0  0  0  0  0  0  0
    1.4103   -0.9159   -1.5045 O   0  0  0  0  0  0  0  0  0  0  0  0
    1.5091   -2.3091   -1.6896 C   0  0  0  0  0  0  0  0  0  0  0  0
   -0.2419    2.6383    2.1930 H   0  0  0  0  0  0  0  0  0  0  0  0
   -1.9635    2.8321    1.8472 H   0  0  0  0  0  0  0  0  0  0  0  0
   -1.4429    2.1498    3.3940 H   0  0  0  0  0  0  0  0  0  0  0  0
   -0.5592    0.1189    2.2386 H   0  0  0  0  0  0  0  0  0  0  0  0
   -2.2609    0.3318    1.8723 H   0  0  0  0  0  0  0  0  0  0  0  0
   -1.6507    1.4367   -0.2990 H   0  0  0  0  0  0  0  0  0  0  0  0
    0.6638    1.4770   -1.1155 H   0  0  0  0  0  0  0  0  0  0  0  0
    1.1915    1.4285    0.5829 H   0  0  0  0  0  0  0  0  0  0  0  0
    1.0812   -1.0681    0.5218 H   0  0  0  0  0  0  0  0  0  0  0  0
   -1.3579   -1.4844    0.1352 H   0  0  0  0  0  0  0  0  0  0  0  0
   -1.2272   -0.6836   -1.4531 H   0  0  0  0  0  0  0  0  0  0  0  0
    1.9981   -2.7998   -0.8326 H   0  0  0  0  0  0  0  0  0  0  0  0
    0.5241   -2.7779   -1.8356 H   0  0  0  0  0  0  0  0  0  0  0  0
    2.1136   -2.4782   -2.5841 H   0  0  0  0  0  0  0  0  0  0  0  0
  1 11  1  0  0  0  0
  2 13  1  0  0  0  0
  2 12  1  0  0  0  0
  2  1  1  0  0  0  0
  3 14  1  6  0  0  0
  3  2  1  0  0  0  0
  4  3  1  0  0  0  0
  4 16  1  0  0  0  0
  5  4  1  0  0  0  0
  5 17  1  1  0  0  0
  6  5  1  0  0  0  0
  6 18  1  0  0  0  0
  6  3  1  0  0  0  0
  7  5  1  0  0  0  0
  8  7  1  0  0  0  0
  8 20  1  0  0  0  0
  9  1  1  0  0  0  0
 10  1  1  0  0  0  0
 15  4  1  0  0  0  0
 19  6  1  0  0  0  0
 21  8  1  0  0  0  0
 22  8  1  0  0  0  0
M  END
