13
title
N -0.38448158 2.5863996 0.45444784
C -0.37976137 1.322619 0.42227048
O 0.7514868 0.5370044 0.36272702
C 0.37817404 -0.8531325 0.34789726
C -1.1349939 -0.831342 0.40617085
C -1.5480617 0.4321872 0.44842485
C 0.90604544 -1.530066 -0.83411354
C 1.3273666 -2.1114125 -1.7965449
H 0.56794465 2.9526007 0.42010003
H 0.80177736 -1.3198242 1.2493685
H -1.7250694 -1.7368014 0.4009573
H -2.5584056 0.8101347 0.4942552
H 1.7055486 -2.6170094 -2.6509073
