title
 OpenBabel02282109593D

 20 20  0  0  1  0  0  0  0  0999 V2000
    0.0859    3.1729    0.4526 C   0  0  0  0  0  0  0  0  0  0  0  0
    0.6510    1.9570    0.8875 O   0  0  0  0  0  0  0  0  0  0  0  0
   -0.0285    0.8288    0.4077 C   0  0  1  0  0  0  0  0  0  0  0  0
    0.1931    0.3931   -1.0729 C   0  0  0  0  0  0  0  0  0  0  0  0
    0.3506   -1.0608   -0.5734 C   0  0  1  0  0  0  0  0  0  0  0  0
    0.5831   -0.5100    0.8664 C   0  0  0  0  0  0  0  0  0  0  0  0
   -0.8778   -1.7385   -0.7350 O   0  0  0  0  0  0  0  0  0  0  0  0
   -0.8490   -3.0659   -0.2639 C   0  0  0  0  0  0  0  0  0  0  0  0
    0.6712    3.9822    0.8958 H   0  0  0  0  0  0  0  0  0  0  0  0
    0.1163    3.2741   -0.6429 H   0  0  0  0  0  0  0  0  0  0  0  0
   -0.9622    3.2728    0.7768 H   0  0  0  0  0  0  0  0  0  0  0  0
   -1.1009    0.8952    0.6432 H   0  0  0  0  0  0  0  0  0  0  0  0
   -0.6073    0.5571   -1.7966 H   0  0  0  0  0  0  0  0  0  0  0  0
    1.1358    0.7940   -1.4549 H   0  0  0  0  0  0  0  0  0  0  0  0
    1.1678   -1.6548   -1.0060 H   0  0  0  0  0  0  0  0  0  0  0  0
    1.6470   -0.3811    1.0834 H   0  0  0  0  0  0  0  0  0  0  0  0
    0.1039   -1.0364    1.6945 H   0  0  0  0  0  0  0  0  0  0  0  0
   -1.8340   -3.4995   -0.4539 H   0  0  0  0  0  0  0  0  0  0  0  0
   -0.0888   -3.6652   -0.7897 H   0  0  0  0  0  0  0  0  0  0  0  0
   -0.6416   -3.1229    0.8152 H   0  0  0  0  0  0  0  0  0  0  0  0
  1 11  1  0  0  0  0
  1  2  1  0  0  0  0
  1  9  1  0  0  0  0
  3 12  1  1  0  0  0
  3  6  1  0  0  0  0
  3  2  1  0  0  0  0
  4  5  1  0  0  0  0
  4  3  1  0  0  0  0
  5 15  1  6  0  0  0
  5  6  1  0  0  0  0
  6 16  1  0  0  0  0
  6 17  1  0  0  0  0
  7  5  1  0  0  0  0
  7  8  1  0  0  0  0
  8 20  1  0  0  0  0
 10  1  1  0  0  0  0
 13  4  1  0  0  0  0
 14  4  1  0  0  0  0
 18  8  1  0  0  0  0
 19  8  1  0  0  0  0
M  END
