title
 OpenBabel02282109593D

 24 24  0  0  1  0  0  0  0  0999 V2000
    1.8002    2.9208    0.5815 C   0  0  0  0  0  0  0  0  0  0  0  0
    1.7392    1.4084    0.8201 C   0  0  0  0  0  0  0  0  0  0  0  0
    0.3264    0.8442    0.7455 C   0  0  1  0  0  0  0  0  0  0  0  0
   -0.4067    0.8057   -0.6269 C   0  0  0  0  0  0  0  0  0  0  0  0
   -0.9883   -0.5829   -0.2416 C   0  0  1  0  0  0  0  0  0  0  0  0
   -1.0950   -1.6627   -1.3106 C   0  0  0  0  0  0  0  0  0  0  0  0
   -1.5643   -3.0139   -0.7610 C   0  0  0  0  0  0  0  0  0  0  0  0
    0.1215   -0.6931    0.8440 C   0  0  0  0  0  0  0  0  0  0  0  0
    2.8282    3.2931    0.6316 H   0  0  0  0  0  0  0  0  0  0  0  0
    1.3993    3.1828   -0.4038 H   0  0  0  0  0  0  0  0  0  0  0  0
    1.2128    3.4632    1.3310 H   0  0  0  0  0  0  0  0  0  0  0  0
    2.3686    0.8939    0.0809 H   0  0  0  0  0  0  0  0  0  0  0  0
    2.1705    1.1735    1.8027 H   0  0  0  0  0  0  0  0  0  0  0  0
   -0.3079    1.3488    1.4853 H   0  0  0  0  0  0  0  0  0  0  0  0
   -1.1099    1.6086   -0.8634 H   0  0  0  0  0  0  0  0  0  0  0  0
    0.3093    0.7173   -1.4533 H   0  0  0  0  0  0  0  0  0  0  0  0
   -1.9637   -0.4522    0.2440 H   0  0  0  0  0  0  0  0  0  0  0  0
   -1.7845   -1.3258   -2.0966 H   0  0  0  0  0  0  0  0  0  0  0  0
   -0.1164   -1.7828   -1.7955 H   0  0  0  0  0  0  0  0  0  0  0  0
   -1.6208   -3.7696   -1.5507 H   0  0  0  0  0  0  0  0  0  0  0  0
   -0.8802   -3.3877    0.0086 H   0  0  0  0  0  0  0  0  0  0  0  0
   -2.5582   -2.9321   -0.3067 H   0  0  0  0  0  0  0  0  0  0  0  0
    0.9960   -1.2324    0.4596 H   0  0  0  0  0  0  0  0  0  0  0  0
   -0.1435   -1.1139    1.8175 H   0  0  0  0  0  0  0  0  0  0  0  0
  1  9  1  0  0  0  0
  1  2  1  0  0  0  0
  1 11  1  0  0  0  0
  2 13  1  0  0  0  0
  3  2  1  0  0  0  0
  3  8  1  0  0  0  0
  3 14  1  1  0  0  0
  4  5  1  0  0  0  0
  4  3  1  0  0  0  0
  5 17  1  1  0  0  0
  5  8  1  0  0  0  0
  6  7  1  0  0  0  0
  6  5  1  0  0  0  0
  7 22  1  0  0  0  0
  7 21  1  0  0  0  0
  8 24  1  0  0  0  0
 10  1  1  0  0  0  0
 12  2  1  0  0  0  0
 15  4  1  0  0  0  0
 16  4  1  0  0  0  0
 18  6  1  0  0  0  0
 19  6  1  0  0  0  0
 20  7  1  0  0  0  0
 23  8  1  0  0  0  0
M  END
