22
title
C -1.4350184 2.908256 1.3319575
C -1.6085302 1.4007736 1.1191131
C -0.8286801 0.86797136 -0.075611465
C 0.7276324 0.83396536 -0.012604111
C 0.6904026 -0.5384963 -0.737744
C 1.656104 -1.6135656 -0.2881341
O 1.3520719 -2.8050365 -1.0009401
C -0.80557644 -0.66336805 -0.341833
H -0.3827457 3.1675212 1.4924779
H -1.7840648 3.4732099 0.46027195
H -1.9993187 3.2574997 2.2023478
H -1.2903423 0.8624441 2.0225713
H -2.6737905 1.1680667 0.98641515
H -1.1451411 1.396801 -0.98347306
H 1.2850589 1.6467307 -0.48470485
H 1.077005 0.7291356 1.0221117
H 0.78838336 -0.408024 -1.8206892
H 2.6926885 -1.2869858 -0.47829556
H 1.5561053 -1.7645746 0.8001696
H 1.9453045 -3.4980035 -0.69693124
H -0.921656 -1.230951 0.5889412
H -1.4988397 -1.0682329 -1.0820808
