22
title
C 1.692198 2.5188024 -0.3429787
C 1.7511281 1.0342159 -0.7142851
C 0.3905739 0.47791287 -1.0947458
C 0.21865131 -1.0511353 -1.2152421
C -0.8904588 -0.87286067 -0.15686624
C -0.79025984 -1.6455078 1.1463227
C -1.7817597 -1.1442337 2.2003617
O -0.5593004 0.5309408 0.00074179977
H 2.6728985 2.890385 -0.031444114
H 1.3574396 3.12658 -1.1909946
H 0.98886245 2.6755357 0.47972044
H 2.4364688 0.87622243 -1.5581087
H 2.143856 0.45235345 0.12879176
H -0.0066096634 1.025717 -1.963145
H -0.08984147 -1.4345644 -2.188831
H 1.0809956 -1.6214056 -0.8587193
H -1.9041562 -0.9751346 -0.57390434
H -0.96337676 -2.7086911 0.9309998
H 0.2354653 -1.5599065 1.5259767
H -1.62373 -0.079235464 2.3924167
H -2.8166733 -1.2747426 1.8649395
H -1.6654878 -1.6841185 3.1447692
