20
title
C 1.6742003 2.4848547 -0.3313239
C 1.7020864 1.0087491 -0.73778695
C 0.331332 0.4890169 -1.1327387
C 0.13874678 -1.0350728 -1.2975411
C -0.9147896 -0.8896754 -0.18262073
C -0.68105286 -1.605448 1.1364095
O -1.4674671 -1.0270154 2.1581726
O -0.6222741 0.52515477 -0.03336195
H 2.6631103 2.8278081 -0.013675727
H 1.3507028 3.119201 -1.1639346
H 0.97669303 2.6388059 0.4969993
H 2.382149 0.8576195 -1.5870149
H 2.0859962 0.3983093 0.08896246
H -0.05953272 1.0719693 -1.9790388
H -0.2308671 -1.370465 -2.2668746
H 1.0121132 -1.6307995 -1.0181606
H -1.9546456 -1.0311329 -0.5042024
H -0.97209686 -2.659361 1.0569566
H 0.39322641 -1.5692651 1.383806
H -1.2949264 -0.07808994 2.1136956
