20
title
C 0.08585802 3.1728716 0.45263332
O 0.65097123 1.9569715 0.8875288
C -0.02845815 0.82877696 0.4077068
C 0.19305351 0.3931096 -1.0728649
C 0.35056022 -1.0607977 -0.573387
C 0.5831091 -0.5100438 0.86638767
O -0.8777771 -1.7385161 -0.73501676
C -0.8490397 -3.0658526 -0.26390114
H 0.67115414 3.9822476 0.8957938
H 0.116307884 3.274058 -0.6428885
H -0.9622036 3.2727942 0.7768477
H -1.1008699 0.89523935 0.6431659
H -0.6073191 0.5570776 -1.7966194
H 1.1358256 0.7939875 -1.4548633
H 1.167827 -1.6547799 -1.0060071
H 1.6469775 -0.38112518 1.0834318
H 0.1038529 -1.0363543 1.6944598
H -1.8339567 -3.4995055 -0.4538524
H -0.08882019 -3.6652036 -0.7897499
H -0.6416496 -3.1229315 0.81524384
