title
 OpenBabel02282109593D

 20 20  0  0  1  0  0  0  0  0999 V2000
   -0.7439    2.9317    1.3607 C   0  0  0  0  0  0  0  0  0  0  0  0
   -1.1901    1.6719    0.9141 O   0  0  0  0  0  0  0  0  0  0  0  0
   -0.3827    1.1220   -0.0913 C   0  0  1  0  0  0  0  0  0  0  0  0
    0.9925    0.5013    0.2981 C   0  0  0  0  0  0  0  0  0  0  0  0
    0.6547   -0.6871   -0.6452 C   0  0  1  0  0  0  0  0  0  0  0  0
    1.0244   -2.0828   -0.1910 C   0  0  0  0  0  0  0  0  0  0  0  0
    0.5087   -3.0036   -1.1422 O   0  0  0  0  0  0  0  0  0  0  0  0
   -0.8390   -0.2615   -0.5894 C   0  0  0  0  0  0  0  0  0  0  0  0
    0.2598    2.8798    1.8095 H   0  0  0  0  0  0  0  0  0  0  0  0
   -0.7146    3.6672    0.5407 H   0  0  0  0  0  0  0  0  0  0  0  0
   -1.4494    3.2784    2.1197 H   0  0  0  0  0  0  0  0  0  0  0  0
   -0.2657    1.8378   -0.9209 H   0  0  0  0  0  0  0  0  0  0  0  0
    1.9031    1.0724    0.1033 H   0  0  0  0  0  0  0  0  0  0  0  0
    0.9759    0.1926    1.3490 H   0  0  0  0  0  0  0  0  0  0  0  0
    1.0660   -0.5222   -1.6462 H   0  0  0  0  0  0  0  0  0  0  0  0
    2.1209   -2.1681   -0.1046 H   0  0  0  0  0  0  0  0  0  0  0  0
    0.6019   -2.2655    0.8111 H   0  0  0  0  0  0  0  0  0  0  0  0
    0.7073   -3.8942   -0.8389 H   0  0  0  0  0  0  0  0  0  0  0  0
   -1.3698   -0.7856    0.2114 H   0  0  0  0  0  0  0  0  0  0  0  0
   -1.4311   -0.3112   -1.5044 H   0  0  0  0  0  0  0  0  0  0  0  0
  1  9  1  0  0  0  0
  1 11  1  0  0  0  0
  2  1  1  0  0  0  0
  3 12  1  6  0  0  0
  3  4  1  0  0  0  0
  3  2  1  0  0  0  0
  4 14  1  0  0  0  0
  5 15  1  6  0  0  0
  5  8  1  0  0  0  0
  5  6  1  0  0  0  0
  5  4  1  0  0  0  0
  6 16  1  0  0  0  0
  6 17  1  0  0  0  0
  7 18  1  0  0  0  0
  7  6  1  0  0  0  0
  8  3  1  0  0  0  0
  8 19  1  0  0  0  0
 10  1  1  0  0  0  0
 13  4  1  0  0  0  0
 20  8  1  0  0  0  0
M  END
