title
 OpenBabel02282109593D

 12 12  0  0  0  0  0  0  0  0999 V2000
    2.1945   -1.5973    0.1123 N   0  0  0  0  0  0  0  0  0  0  0  0
    2.3278   -2.5365   -0.2307 H   0  0  0  0  0  0  0  0  0  0  0  0
    2.9006   -0.9545   -0.2175 H   0  0  0  0  0  0  0  0  0  0  0  0
    0.9087   -1.1263    0.0152 C   0  0  0  0  0  0  0  0  0  0  0  0
    0.7778    0.2129    0.0179 O   0  0  0  0  0  0  0  0  0  0  0  0
   -0.5818    0.4837   -0.0132 C   0  0  0  0  0  0  0  0  0  0  0  0
   -1.2744   -0.6940   -0.0358 C   0  0  0  0  0  0  0  0  0  0  0  0
   -0.3180   -1.7441   -0.0184 C   0  0  0  0  0  0  0  0  0  0  0  0
   -0.9806    1.8295   -0.0216 C   0  0  0  0  0  0  0  0  0  0  0  0
   -1.3279    2.9368   -0.0307 N   0  0  0  0  0  0  0  0  0  0  0  0
   -2.3486   -0.7878   -0.0639 H   0  0  0  0  0  0  0  0  0  0  0  0
   -0.5044   -2.8053   -0.0257 H   0  0  0  0  0  0  0  0  0  0  0  0
  2  1  1  0  0  0  0
  3  1  1  0  0  0  0
  4  5  1  0  0  0  0
  4  1  1  0  0  0  0
  6  5  1  0  0  0  0
  7  8  1  0  0  0  0
  7  6  2  0  0  0  0
  8  4  2  0  0  0  0
  9  6  1  0  0  0  0
 10  9  3  0  0  0  0
 11  7  1  0  0  0  0
 12  8  1  0  0  0  0
M  END
