title
 OpenBabel02282109593D

 13 13  0  0  1  0  0  0  0  0999 V2000
    0.3197   -2.5644    0.3813 O   0  0  0  0  0  0  0  0  0  0  0  0
    0.3529   -1.3550    0.4101 C   0  0  0  0  0  0  0  0  0  0  0  0
   -0.7386   -0.5053    0.4433 N   0  0  0  0  0  0  0  0  0  0  0  0
   -0.3738    0.8979    0.3677 C   0  0  1  0  0  0  0  0  0  0  0  0
    1.1462    0.8200    0.3824 C   0  0  0  0  0  0  0  0  0  0  0  0
    1.5438   -0.4490    0.4227 C   0  0  0  0  0  0  0  0  0  0  0  0
   -0.9011    1.5852   -0.8134 C   0  0  0  0  0  0  0  0  0  0  0  0
   -1.3476    2.1583   -1.7699 C   0  0  0  0  0  0  0  0  0  0  0  0
   -1.6693   -0.8374    0.2524 H   0  0  0  0  0  0  0  0  0  0  0  0
   -0.7177    1.4377    1.2647 H   0  0  0  0  0  0  0  0  0  0  0  0
    1.7514    1.7160    0.3655 H   0  0  0  0  0  0  0  0  0  0  0  0
    2.5534   -0.8329    0.4473 H   0  0  0  0  0  0  0  0  0  0  0  0
   -1.7381    2.6591   -2.6216 H   0  0  0  0  0  0  0  0  0  0  0  0
  1  2  2  0  0  0  0
  2  6  1  0  0  0  0
  2  3  1  0  0  0  0
  4  5  1  0  0  0  0
  4  3  1  0  0  0  0
  4 10  1  1  0  0  0
  5  6  2  0  0  0  0
  6 12  1  0  0  0  0
  7  4  1  0  0  0  0
  8  7  3  0  0  0  0
  9  3  1  0  0  0  0
 11  5  1  0  0  0  0
 13  8  1  0  0  0  0
M  END
