12
title
N 2.1944659 -1.5973349 0.1122501
H 2.3278089 -2.536536 -0.23065506
H 2.9006467 -0.9544549 -0.21750648
C 0.90873766 -1.126269 0.015210973
O 0.7778399 0.21292244 0.0179059
C -0.58180773 0.4837254 -0.013215
C -1.2744497 -0.6939839 -0.03575297
C -0.3179816 -1.7441396 -0.01844689
C -0.9805926 1.8294662 -0.021605046
N -1.3278509 2.936836 -0.030707901
H -2.348585 -0.787765 -0.063931175
H -0.50437486 -2.8053372 -0.0257238
