13
title
O 0.39084622 -2.7502 -0.020490034
C 0.36506167 -1.5442106 -0.013536714
C -0.8456209 -0.5997163 0.008214718
C -0.22797783 0.7868086 0.007511936
C 1.1130327 0.63667023 -0.011984776
N 1.4754102 -0.7068664 -0.024269445
C -0.95464754 1.9902996 0.02422651
C -1.6205578 2.9959023 0.038995106
H -1.4798088 -0.78914464 -0.86405885
H -1.4558012 -0.79891944 0.89530265
H 1.8730607 1.4038919 -0.018289583
H 2.4181619 -1.05939 -0.03903429
H -2.1957138 3.887956 0.05192647
