12
title
N -0.5412987 2.7561295 0.017121647
C -0.47871304 1.4919989 0.010350219
C -1.6585929 0.5215046 0.012150421
N -1.0982612 -0.835695 0.0020002404
C 0.17139494 -0.67720485 -0.004418288
N 0.63022184 0.633781 -0.0003219427
C 1.1211423 -1.7543943 -0.015361243
N 1.921655 -2.5874307 -0.024204083
H 0.38020664 3.1949916 0.014102085
H -2.2891297 0.66218185 0.89636886
H -2.2992282 0.6711799 -0.86328644
H 1.5967394 0.9150896 -0.004513346
