13
title
O 0.31973654 -2.5644405 0.3813421
C 0.35291275 -1.3549864 0.41007397
N -0.73861265 -0.5052624 0.44330537
C -0.37378436 0.89793766 0.36767045
C 1.1462438 0.8200487 0.38239926
C 1.5437762 -0.44903842 0.4227154
C -0.90113556 1.5851713 -0.81340367
C -1.347638 2.1583476 -1.7699071
H -1.6692836 -0.83735776 0.25240722
H -0.71766067 1.4376758 1.2646902
H 1.7513605 1.7160441 0.36546674
H 2.5534315 -0.832935 0.44729975
H -1.7381237 2.6591253 -2.6215746
