14
title
O -0.35712165 -2.7493126 -0.0073344605
C -0.3928317 -1.5485253 -0.0014406955
C -1.6646993 -0.6831024 0.020080084
C -1.1346364 0.71955794 0.018868582
C 0.20943297 0.77189416 0.00056701904
C 0.82476115 -0.61230403 -0.014051395
C 1.0037016 1.9428945 -0.005325707
C 1.7212306 2.9109602 -0.010948651
H -2.293897 -0.91787475 -0.8487419
H -2.269461 -0.92556566 0.9040166
H -1.7726598 1.5945563 0.031493343
H 1.4653546 -0.80772597 0.8541525
H 1.4412479 -0.7999756 -0.90120727
H 2.3419607 3.7724972 -0.015637957
