title
 OpenBabel02282109593D

 13 13  0  0  0  0  0  0  0  0999 V2000
   -0.5082    2.7496    0.0155 N   0  0  0  0  0  0  0  0  0  0  0  0
   -0.4579    1.4816    0.0094 C   0  0  0  0  0  0  0  0  0  0  0  0
   -1.6475    0.5238    0.0115 C   0  0  0  0  0  0  0  0  0  0  0  0
   -1.1031   -0.8378    0.0021 N   0  0  0  0  0  0  0  0  0  0  0  0
    0.1731   -0.7037   -0.0042 C   0  0  0  0  0  0  0  0  0  0  0  0
    0.6353    0.6143   -0.0004 N   0  0  0  0  0  0  0  0  0  0  0  0
    1.1163   -1.7717   -0.0144 C   0  0  0  0  0  0  0  0  0  0  0  0
    1.9439   -2.6432   -0.0231 C   0  0  0  0  0  0  0  0  0  0  0  0
    0.4214    3.1725    0.0125 H   0  0  0  0  0  0  0  0  0  0  0  0
   -2.2769    0.6776    0.8949 H   0  0  0  0  0  0  0  0  0  0  0  0
   -2.2865    0.6859   -0.8636 H   0  0  0  0  0  0  0  0  0  0  0  0
    1.6040    0.8863   -0.0048 H   0  0  0  0  0  0  0  0  0  0  0  0
    2.6600   -3.4284   -0.0307 H   0  0  0  0  0  0  0  0  0  0  0  0
  2  3  1  0  0  0  0
  2  1  2  0  0  0  0
  3 10  1  0  0  0  0
  4  3  1  0  0  0  0
  5  6  1  0  0  0  0
  5  4  2  0  0  0  0
  6  2  1  0  0  0  0
  7  5  1  0  0  0  0
  8  7  3  0  0  0  0
  9  1  1  0  0  0  0
 11  3  1  0  0  0  0
 12  6  1  0  0  0  0
 13  8  1  0  0  0  0
M  END
