title
 OpenBabel02282109593D

 11 11  0  0  0  0  0  0  0  0999 V2000
   -0.3448   -2.6192   -0.0087 O   0  0  0  0  0  0  0  0  0  0  0  0
   -0.4498   -1.4358   -0.0009 C   0  0  0  0  0  0  0  0  0  0  0  0
   -1.6625   -0.5133    0.0208 C   0  0  0  0  0  0  0  0  0  0  0  0
   -1.1265    0.8406    0.0203 N   0  0  0  0  0  0  0  0  0  0  0  0
    0.1409    0.7035    0.0013 C   0  0  0  0  0  0  0  0  0  0  0  0
    0.6540   -0.5820   -0.0123 O   0  0  0  0  0  0  0  0  0  0  0  0
    1.1047    1.7443   -0.0066 C   0  0  0  0  0  0  0  0  0  0  0  0
    1.9298    2.6171   -0.0134 C   0  0  0  0  0  0  0  0  0  0  0  0
   -2.3002   -0.6910   -0.8523 H   0  0  0  0  0  0  0  0  0  0  0  0
   -2.2755   -0.7001    0.9095 H   0  0  0  0  0  0  0  0  0  0  0  0
    2.6552    3.3940   -0.0194 H   0  0  0  0  0  0  0  0  0  0  0  0
  1  2  2  0  0  0  0
  2  3  1  0  0  0  0
  3 10  1  0  0  0  0
  4  3  1  0  0  0  0
  5  4  2  0  0  0  0
  6  2  1  0  0  0  0
  6  5  1  0  0  0  0
  7  5  1  0  0  0  0
  8  7  3  0  0  0  0
  9  3  1  0  0  0  0
 11  8  1  0  0  0  0
M  END
