title
 OpenBabel02282109593D

 12 12  0  0  0  0  0  0  0  0999 V2000
   -0.4107   -2.6834   -0.0083 O   0  0  0  0  0  0  0  0  0  0  0  0
   -0.4701   -1.4802   -0.0013 C   0  0  0  0  0  0  0  0  0  0  0  0
   -1.7154   -0.5736    0.0208 C   0  0  0  0  0  0  0  0  0  0  0  0
   -1.1529    0.8181    0.0203 C   0  0  0  0  0  0  0  0  0  0  0  0
    0.1886    0.7299    0.0012 C   0  0  0  0  0  0  0  0  0  0  0  0
    0.6123   -0.6100   -0.0117 N   0  0  0  0  0  0  0  0  0  0  0  0
    1.1388    1.7858   -0.0065 C   0  0  0  0  0  0  0  0  0  0  0  0
    1.9277    2.6329   -0.0130 N   0  0  0  0  0  0  0  0  0  0  0  0
   -2.3449   -0.7899   -0.8501 H   0  0  0  0  0  0  0  0  0  0  0  0
   -2.3205   -0.7991    0.9066 H   0  0  0  0  0  0  0  0  0  0  0  0
   -1.7192    1.7356    0.0329 H   0  0  0  0  0  0  0  0  0  0  0  0
    1.5712   -0.9170   -0.0266 H   0  0  0  0  0  0  0  0  0  0  0  0
  1  2  2  0  0  0  0
  2  3  1  0  0  0  0
  3 10  1  0  0  0  0
  4  3  1  0  0  0  0
  4 11  1  0  0  0  0
  5  4  2  0  0  0  0
  6  2  1  0  0  0  0
  6  5  1  0  0  0  0
  7  5  1  0  0  0  0
  8  7  3  0  0  0  0
  9  3  1  0  0  0  0
 12  6  1  0  0  0  0
M  END
