11
title
O -0.34483057 -2.6192226 -0.008727633
C -0.44981027 -1.4358206 -0.0009407976
C -1.662548 -0.51331884 0.020760654
N -1.1264514 0.84058446 0.020260932
C 0.14093925 0.7034504 0.0013023627
O 0.6539617 -0.58196956 -0.012283341
C 1.1047062 1.7442789 -0.0065514664
C 1.9297545 2.6171255 -0.013384942
H -2.3001738 -0.69096714 -0.85229
H -2.2754707 -0.7000796 0.9094603
H 2.6552322 3.3939743 -0.019355902
