13
title
O -0.38522094 -2.6723235 -0.007515974
C -0.454824 -1.4669077 -0.0016282616
C -1.7087152 -0.5734448 0.021091633
C -1.1568003 0.822892 0.020166859
C 0.18794589 0.75771767 0.0009871706
N 0.6140875 -0.5880725 -0.011639321
C 1.1377239 1.8043213 -0.00684106
C 1.9689739 2.6750293 -0.01392715
H -2.3354375 -0.80089825 -0.8494638
H -2.3102152 -0.8097562 0.90695035
H -1.734471 1.7333546 0.032992803
H 1.5755391 -0.8853906 -0.025946736
H 2.6917446 3.4532962 -0.02001729
