12
title
N -0.16410719 2.5533667 -0.38157237
C -0.16525991 1.3001627 -0.41683885
C -1.3699131 0.3924651 -0.5370405
O -0.803583 -0.8799689 -0.8535291
C 0.49504793 -0.8647852 -0.33942613
O 0.9449907 0.48249602 -0.36198533
C 0.5434491 -1.382525 1.0563897
N 0.57564884 -1.8043787 2.1306467
H 0.77829146 2.9295774 -0.27418905
H -1.929277 0.36048228 0.40700296
H -2.0369802 0.6922714 -1.3452728
H 1.1430547 -1.472029 -0.9767005
