13
title
N 0.15617251 2.5053241 0.26175871
C 0.32059106 1.3042281 -0.07978176
N -0.5934034 0.5522502 -0.81545556
C -0.28213072 -0.85869956 -0.6955105
C 1.2431937 -0.75550365 -0.44167438
O 1.4113169 0.51637906 0.18084478
C -1.0012527 -1.5368121 0.40199003
N -1.5835967 -2.0646133 1.2490557
H 0.9757772 2.8600562 0.7482821
H -1.5527731 0.8615916 -0.773448
H -0.4906798 -1.4002252 -1.6231041
H 1.62543 -1.5318265 0.2213907
H 1.7817049 -0.77787876 -1.3950866
