title
 OpenBabel02282109593D

 14 14  0  0  1  0  0  0  0  0999 V2000
    0.1394    2.5044    0.4795 N   0  0  0  0  0  0  0  0  0  0  0  0
    0.2630    1.3455    0.0045 C   0  0  0  0  0  0  0  0  0  0  0  0
   -0.7848    0.6093   -0.8054 C   0  0  0  0  0  0  0  0  0  0  0  0
   -0.3066   -0.8600   -0.7613 C   0  0  1  0  0  0  0  0  0  0  0  0
    1.2210   -0.6704   -0.5778 C   0  0  0  0  0  0  0  0  0  0  0  0
    1.3744    0.5532    0.1400 O   0  0  0  0  0  0  0  0  0  0  0  0
   -0.9006   -1.6053    0.3490 C   0  0  0  0  0  0  0  0  0  0  0  0
   -1.3680   -2.2014    1.2216 N   0  0  0  0  0  0  0  0  0  0  0  0
    0.9884    2.7915    0.9688 H   0  0  0  0  0  0  0  0  0  0  0  0
   -1.7837    0.7684   -0.4025 H   0  0  0  0  0  0  0  0  0  0  0  0
   -0.7707    0.9754   -1.8369 H   0  0  0  0  0  0  0  0  0  0  0  0
   -0.5258   -1.3969   -1.6875 H   0  0  0  0  0  0  0  0  0  0  0  0
    1.6927   -1.4694   -0.0043 H   0  0  0  0  0  0  0  0  0  0  0  0
    1.7100   -0.5896   -1.5562 H   0  0  0  0  0  0  0  0  0  0  0  0
  1  9  1  0  0  0  0
  2  6  1  0  0  0  0
  2  1  2  0  0  0  0
  3  4  1  0  0  0  0
  3 10  1  0  0  0  0
  3  2  1  0  0  0  0
  4 12  1  6  0  0  0
  4  5  1  0  0  0  0
  4  7  1  0  0  0  0
  5 13  1  0  0  0  0
  5  6  1  0  0  0  0
  7  8  3  0  0  0  0
 11  3  1  0  0  0  0
 14  5  1  0  0  0  0
M  END
