title
 OpenBabel02282109593D

 12 12  0  0  1  0  0  0  0  0999 V2000
   -0.1641    2.5534   -0.3816 N   0  0  0  0  0  0  0  0  0  0  0  0
   -0.1653    1.3002   -0.4168 C   0  0  0  0  0  0  0  0  0  0  0  0
   -1.3699    0.3925   -0.5370 C   0  0  0  0  0  0  0  0  0  0  0  0
   -0.8036   -0.8800   -0.8535 O   0  0  0  0  0  0  0  0  0  0  0  0
    0.4950   -0.8648   -0.3394 C   0  0  1  0  0  0  0  0  0  0  0  0
    0.9450    0.4825   -0.3620 O   0  0  0  0  0  0  0  0  0  0  0  0
    0.5434   -1.3825    1.0564 C   0  0  0  0  0  0  0  0  0  0  0  0
    0.5756   -1.8044    2.1306 N   0  0  0  0  0  0  0  0  0  0  0  0
    0.7783    2.9296   -0.2742 H   0  0  0  0  0  0  0  0  0  0  0  0
   -1.9293    0.3605    0.4070 H   0  0  0  0  0  0  0  0  0  0  0  0
   -2.0370    0.6923   -1.3453 H   0  0  0  0  0  0  0  0  0  0  0  0
    1.1431   -1.4720   -0.9767 H   0  0  0  0  0  0  0  0  0  0  0  0
  1  9  1  0  0  0  0
  2  1  2  0  0  0  0
  2  6  1  0  0  0  0
  3  2  1  0  0  0  0
  3 10  1  0  0  0  0
  4  3  1  0  0  0  0
  4  5  1  0  0  0  0
  5 12  1  6  0  0  0
  5  7  1  0  0  0  0
  6  5  1  0  0  0  0
  7  8  3  0  0  0  0
 11  3  1  0  0  0  0
M  END
