14
title
N 0.09559654 2.47668 0.37784225
C 0.29127887 1.2955184 -0.023134721
N -0.5863214 0.56350446 -0.8147396
C -0.25764087 -0.85682297 -0.72933793
C 1.2609649 -0.729197 -0.4457898
O 1.3963796 0.5253642 0.22363144
C -0.99158686 -1.5776079 0.31409264
C -1.6106948 -2.1595705 1.1639838
H 0.9019184 2.8134112 0.8987864
H -1.553987 0.8422156 -0.7512396
H -0.42297152 -1.3490736 -1.6935964
H 1.643393 -1.519798 0.19998175
H 1.8243603 -0.70676947 -1.3853132
H -2.155179 -2.6719537 1.9187766
