title
 OpenBabel02282109593D

 14 14  0  0  1  0  0  0  0  0999 V2000
   -0.2036    2.5483   -0.4911 N   0  0  0  0  0  0  0  0  0  0  0  0
   -0.2234    1.2921   -0.4473 C   0  0  0  0  0  0  0  0  0  0  0  0
   -1.4446    0.4023   -0.5050 C   0  0  0  0  0  0  0  0  0  0  0  0
   -0.8665   -0.9590   -0.9092 C   0  0  0  0  0  0  0  0  0  0  0  0
    0.5568   -0.8824   -0.3104 C   0  0  1  0  0  0  0  0  0  0  0  0
    0.9089    0.5042   -0.3454 O   0  0  0  0  0  0  0  0  0  0  0  0
    0.6120   -1.3850    1.0747 C   0  0  0  0  0  0  0  0  0  0  0  0
    0.6426   -1.7947    2.1544 N   0  0  0  0  0  0  0  0  0  0  0  0
    0.7504    2.9046   -0.4148 H   0  0  0  0  0  0  0  0  0  0  0  0
   -1.9003    0.3594    0.4903 H   0  0  0  0  0  0  0  0  0  0  0  0
   -2.1867    0.8009   -1.1960 H   0  0  0  0  0  0  0  0  0  0  0  0
   -1.4292   -1.8151   -0.5365 H   0  0  0  0  0  0  0  0  0  0  0  0
   -0.7830   -1.0421   -1.9960 H   0  0  0  0  0  0  0  0  0  0  0  0
    1.2959   -1.4277   -0.9030 H   0  0  0  0  0  0  0  0  0  0  0  0
  1  2  2  0  0  0  0
  1  9  1  0  0  0  0
  2  6  1  0  0  0  0
  3  2  1  0  0  0  0
  3 10  1  0  0  0  0
  4 12  1  0  0  0  0
  4  3  1  0  0  0  0
  4  5  1  0  0  0  0
  5 14  1  6  0  0  0
  5  7  1  0  0  0  0
  6  5  1  0  0  0  0
  7  8  3  0  0  0  0
 11  3  1  0  0  0  0
 13  4  1  0  0  0  0
M  END
