title
 OpenBabel02282109593D

 16 16  0  0  1  0  0  0  0  0999 V2000
   -0.0839   -2.5299    0.1420 O   0  0  0  0  0  0  0  0  0  0  0  0
   -0.1100   -1.3420    0.3272 C   0  0  0  0  0  0  0  0  0  0  0  0
   -1.3656   -0.4828    0.5106 C   0  0  0  0  0  0  0  0  0  0  0  0
   -0.8499    0.8634    1.0349 C   0  0  0  0  0  0  0  0  0  0  0  0
    0.5625    1.0133    0.3870 C   0  0  1  0  0  0  0  0  0  0  0  0
    1.1199   -0.4301    0.4345 C   0  0  0  0  0  0  0  0  0  0  0  0
    0.4728    1.5138   -0.9818 C   0  0  0  0  0  0  0  0  0  0  0  0
    0.3836    1.9098   -2.1137 C   0  0  0  0  0  0  0  0  0  0  0  0
   -1.8275   -0.3671   -0.4778 H   0  0  0  0  0  0  0  0  0  0  0  0
   -2.0927   -0.9834    1.1533 H   0  0  0  0  0  0  0  0  0  0  0  0
   -1.5004    1.7057    0.7953 H   0  0  0  0  0  0  0  0  0  0  0  0
   -0.7321    0.8280    2.1237 H   0  0  0  0  0  0  0  0  0  0  0  0
    1.1833    1.6982    0.9730 H   0  0  0  0  0  0  0  0  0  0  0  0
    1.5886   -0.6228    1.4079 H   0  0  0  0  0  0  0  0  0  0  0  0
    1.8555   -0.6597   -0.3375 H   0  0  0  0  0  0  0  0  0  0  0  0
    0.3149    2.2673   -3.1113 H   0  0  0  0  0  0  0  0  0  0  0  0
  1  2  2  0  0  0  0
  2  6  1  0  0  0  0
  2  3  1  0  0  0  0
  3  4  1  0  0  0  0
  3 10  1  0  0  0  0
  4 12  1  0  0  0  0
  5  6  1  0  0  0  0
  5 13  1  1  0  0  0
  5  4  1  0  0  0  0
  6 14  1  0  0  0  0
  7  5  1  0  0  0  0
  8  7  3  0  0  0  0
  9  3  1  0  0  0  0
 11  4  1  0  0  0  0
 15  6  1  0  0  0  0
 16  8  1  0  0  0  0
M  END
