15
title
O -0.06818247 -2.5170588 0.08633887
C -0.076689556 -1.3392338 0.32104886
C -1.3177472 -0.47171658 0.5479743
N -0.77105546 0.7900186 1.0465506
C 0.5407685 0.99394614 0.38935873
C 1.1451 -0.4238376 0.4390094
C 0.43431246 1.500945 -0.98580015
C 0.29974598 1.9196819 -2.105483
H -1.8481898 -0.39636654 -0.41633725
H -1.9947475 -0.93935305 1.2688875
H -1.389424 1.5738128 0.8744352
H 1.1279951 1.7012609 0.9838356
H 1.6071049 -0.6002688 1.416706
H 1.8814454 -0.6321443 -0.33693475
H 0.19306125 2.2923043 -3.0944967
