14
title
O -0.118632734 -2.4678526 0.43269908
C -0.2108026 -1.2775133 0.41884437
C -1.4672068 -0.41366687 0.4011883
C -0.9597213 0.96475184 0.82535094
C 0.5113434 0.9266027 0.33847132
O 0.89068264 -0.4651734 0.4202819
C 0.6777134 1.4216207 -1.025987
C 0.79609436 1.84121 -2.145309
H -1.857589 -0.40852728 -0.6222806
H -2.2307794 -0.8444623 1.0490499
H -1.5093825 1.8006064 0.39293438
H -0.973401 1.0638183 1.9142988
H 1.1797329 1.4694928 1.0121348
H 0.91334873 2.2080932 -3.1355119
