title
 OpenBabel02282109593D

 15 15  0  0  1  0  0  0  0  0999 V2000
   -0.1251   -2.5197    0.3638 O   0  0  0  0  0  0  0  0  0  0  0  0
   -0.1977   -1.3148    0.4265 C   0  0  0  0  0  0  0  0  0  0  0  0
   -1.4634   -0.4534    0.4692 C   0  0  0  0  0  0  0  0  0  0  0  0
   -0.9629    0.9519    0.8278 C   0  0  0  0  0  0  0  0  0  0  0  0
    0.5180    0.9608    0.3393 C   0  0  1  0  0  0  0  0  0  0  0  0
    0.8730   -0.4487    0.4641 N   0  0  0  0  0  0  0  0  0  0  0  0
    0.6746    1.4698   -1.0276 C   0  0  0  0  0  0  0  0  0  0  0  0
    0.8107    1.8851   -2.1473 C   0  0  0  0  0  0  0  0  0  0  0  0
   -1.9184   -0.4866   -0.5267 H   0  0  0  0  0  0  0  0  0  0  0  0
   -2.1858   -0.8656    1.1751 H   0  0  0  0  0  0  0  0  0  0  0  0
   -1.5372    1.7596    0.3740 H   0  0  0  0  0  0  0  0  0  0  0  0
   -0.9680    1.0927    1.9120 H   0  0  0  0  0  0  0  0  0  0  0  0
    1.1362    1.5676    1.0107 H   0  0  0  0  0  0  0  0  0  0  0  0
    1.7916   -0.7880    0.2215 H   0  0  0  0  0  0  0  0  0  0  0  0
    0.9313    2.2491   -3.1380 H   0  0  0  0  0  0  0  0  0  0  0  0
  1  2  2  0  0  0  0
  2  6  1  0  0  0  0
  2  3  1  0  0  0  0
  3  4  1  0  0  0  0
  3 10  1  0  0  0  0
  4 12  1  0  0  0  0
  5  6  1  0  0  0  0
  5  4  1  0  0  0  0
  5 13  1  1  0  0  0
  7  5  1  0  0  0  0
  8  7  3  0  0  0  0
  9  3  1  0  0  0  0
 11  4  1  0  0  0  0
 14  6  1  0  0  0  0
 15  8  1  0  0  0  0
M  END
