title
 OpenBabel02282109593D

 14 14  0  0  1  0  0  0  0  0999 V2000
    0.4826   -2.6699    0.3018 O   0  0  0  0  0  0  0  0  0  0  0  0
    0.3989   -1.4844    0.1846 C   0  0  0  0  0  0  0  0  0  0  0  0
   -0.8551   -0.6304    0.0243 C   0  0  0  0  0  0  0  0  0  0  0  0
   -0.3649    0.7892    0.3666 C   0  0  1  0  0  0  0  0  0  0  0  0
    1.1251    0.6930   -0.0493 C   0  0  0  0  0  0  0  0  0  0  0  0
    1.4957   -0.6717    0.1731 O   0  0  0  0  0  0  0  0  0  0  0  0
   -1.0794    1.8793   -0.2743 C   0  0  0  0  0  0  0  0  0  0  0  0
   -1.6588    2.7792   -0.8207 C   0  0  0  0  0  0  0  0  0  0  0  0
   -1.1888   -0.6934   -1.0170 H   0  0  0  0  0  0  0  0  0  0  0  0
   -1.6597   -1.0004    0.6593 H   0  0  0  0  0  0  0  0  0  0  0  0
   -0.4064    0.9183    1.4550 H   0  0  0  0  0  0  0  0  0  0  0  0
    1.2536    0.9391   -1.1091 H   0  0  0  0  0  0  0  0  0  0  0  0
    1.7803    1.3279    0.5489 H   0  0  0  0  0  0  0  0  0  0  0  0
   -2.1760    3.5755   -1.2966 H   0  0  0  0  0  0  0  0  0  0  0  0
  2  1  2  0  0  0  0
  3  2  1  0  0  0  0
  3  4  1  0  0  0  0
  3 10  1  0  0  0  0
  4 11  1  1  0  0  0
  5  6  1  0  0  0  0
  5  4  1  0  0  0  0
  5 13  1  0  0  0  0
  6  2  1  0  0  0  0
  7  4  1  0  0  0  0
  8  7  3  0  0  0  0
  9  3  1  0  0  0  0
 12  5  1  0  0  0  0
 14  8  1  0  0  0  0
M  END
