title
 OpenBabel02282109593D

 11 11  0  0  1  0  0  0  0  0999 V2000
   -0.0771   -2.4939    0.3252 O   0  0  0  0  0  0  0  0  0  0  0  0
   -0.1626   -1.3107    0.3854 C   0  0  0  0  0  0  0  0  0  0  0  0
   -1.3920   -0.4178    0.4887 C   0  0  0  0  0  0  0  0  0  0  0  0
   -0.8682    0.8644    0.8072 O   0  0  0  0  0  0  0  0  0  0  0  0
    0.4645    0.8709    0.3677 C   0  0  1  0  0  0  0  0  0  0  0  0
    0.9278   -0.4699    0.3774 O   0  0  0  0  0  0  0  0  0  0  0  0
    0.5841    1.4296   -1.0055 C   0  0  0  0  0  0  0  0  0  0  0  0
    0.6647    1.8859   -2.0628 N   0  0  0  0  0  0  0  0  0  0  0  0
   -1.9380   -0.4189   -0.4642 H   0  0  0  0  0  0  0  0  0  0  0  0
   -2.0567   -0.7464    1.2890 H   0  0  0  0  0  0  0  0  0  0  0  0
    1.0662    1.4648    1.0602 H   0  0  0  0  0  0  0  0  0  0  0  0
  1  2  2  0  0  0  0
  2  3  1  0  0  0  0
  3  4  1  0  0  0  0
  3 10  1  0  0  0  0
  5  6  1  0  0  0  0
  5  4  1  0  0  0  0
  5 11  1  1  0  0  0
  6  2  1  0  0  0  0
  7  5  1  0  0  0  0
  8  7  3  0  0  0  0
  9  3  1  0  0  0  0
M  END
