title
 OpenBabel02282109593D

 12 12  0  0  1  0  0  0  0  0999 V2000
   -0.3448   -2.5661    0.3211 O   0  0  0  0  0  0  0  0  0  0  0  0
   -0.3714   -1.3733    0.3612 C   0  0  0  0  0  0  0  0  0  0  0  0
   -1.4193   -0.5417    0.6937 N   0  0  0  0  0  0  0  0  0  0  0  0
   -1.1545    0.8321    0.3237 C   0  0  0  0  0  0  0  0  0  0  0  0
    0.3978    0.7886    0.3048 C   0  0  1  0  0  0  0  0  0  0  0  0
    0.7275   -0.5840    0.0842 O   0  0  0  0  0  0  0  0  0  0  0  0
    0.9882    1.6304   -0.7369 C   0  0  0  0  0  0  0  0  0  0  0  0
    1.4349    2.3277   -1.5412 N   0  0  0  0  0  0  0  0  0  0  0  0
   -2.3465   -0.9336    0.6544 H   0  0  0  0  0  0  0  0  0  0  0  0
   -1.5564    1.0976   -0.6619 H   0  0  0  0  0  0  0  0  0  0  0  0
   -1.5233    1.5474    1.0623 H   0  0  0  0  0  0  0  0  0  0  0  0
    0.8033    1.0946    1.2766 H   0  0  0  0  0  0  0  0  0  0  0  0
  1  2  2  0  0  0  0
  2  3  1  0  0  0  0
  4  3  1  0  0  0  0
  4 11  1  0  0  0  0
  5  4  1  0  0  0  0
  5 12  1  1  0  0  0
  6  5  1  0  0  0  0
  6  2  1  0  0  0  0
  7  5  1  0  0  0  0
  8  7  3  0  0  0  0
  9  3  1  0  0  0  0
 10  4  1  0  0  0  0
M  END
