12
title
O -0.083005264 -2.4840515 0.31275022
C -0.15771298 -1.2967759 0.37815335
C -1.388023 -0.4036003 0.4802281
O -0.86869216 0.87321776 0.8071219
C 0.46936786 0.89053196 0.35121027
O 0.9275047 -0.46686158 0.37854385
C 0.5964304 1.4424714 -1.0017368
C 0.6918884 1.9128867 -2.1020896
H -1.9292314 -0.4053615 -0.47623795
H -2.0579093 -0.74027294 1.2735271
H 1.064929 1.4632405 1.067337
H 0.7806631 2.3281124 -3.0764356
