title
 OpenBabel02282109593D

 14 14  0  0  1  0  0  0  0  0999 V2000
   -0.0361   -2.5360    0.1930 O   0  0  0  0  0  0  0  0  0  0  0  0
   -0.0618   -1.3499    0.3688 C   0  0  0  0  0  0  0  0  0  0  0  0
   -1.3116   -0.4896    0.5754 C   0  0  0  0  0  0  0  0  0  0  0  0
   -0.7719    0.7944    1.0232 N   0  0  0  0  0  0  0  0  0  0  0  0
    0.5271    0.9933    0.3631 C   0  0  1  0  0  0  0  0  0  0  0  0
    1.1525   -0.4134    0.4210 C   0  0  0  0  0  0  0  0  0  0  0  0
    0.4007    1.4748   -1.0315 C   0  0  0  0  0  0  0  0  0  0  0  0
    0.2500    1.8655   -2.1094 N   0  0  0  0  0  0  0  0  0  0  0  0
   -1.8550   -0.4521   -0.3838 H   0  0  0  0  0  0  0  0  0  0  0  0
   -1.9742   -0.9355    1.3221 H   0  0  0  0  0  0  0  0  0  0  0  0
   -1.4034    1.5707    0.8679 H   0  0  0  0  0  0  0  0  0  0  0  0
    1.1155    1.7310    0.9163 H   0  0  0  0  0  0  0  0  0  0  0  0
    1.6549   -0.5557    1.3832 H   0  0  0  0  0  0  0  0  0  0  0  0
    1.8627   -0.6314   -0.3768 H   0  0  0  0  0  0  0  0  0  0  0  0
  1  2  2  0  0  0  0
  2  6  1  0  0  0  0
  2  3  1  0  0  0  0
  3  4  1  0  0  0  0
  3 10  1  0  0  0  0
  5  6  1  0  0  0  0
  5 12  1  1  0  0  0
  5  4  1  0  0  0  0
  6 13  1  0  0  0  0
  7  5  1  0  0  0  0
  8  7  3  0  0  0  0
  9  3  1  0  0  0  0
 11  4  1  0  0  0  0
 14  6  1  0  0  0  0
M  END
