13
title
O -0.037096854 -2.5519896 0.15318674
C -0.051507525 -1.3683959 0.34135517
C -1.2860636 -0.49468344 0.57882655
O -0.7940339 0.78361017 0.95690286
C 0.49616554 0.9645446 0.3750358
C 1.1575426 -0.42454237 0.39160353
C 0.3853611 1.50694 -0.99687916
N 0.29307637 1.9223024 -2.0710132
H -1.8825209 -0.4485435 -0.34486908
H -1.9136857 -0.88645154 1.3828003
H 1.0223233 1.6978651 0.9905546
H 1.6848747 -0.5804066 1.3380538
H 1.8493723 -0.61754626 -0.4285751
