title
 OpenBabel02282109593D

 13 13  0  0  1  0  0  0  0  0999 V2000
    0.3003   -2.4450    0.1222 O   0  0  0  0  0  0  0  0  0  0  0  0
    0.3147   -1.2627    0.3044 C   0  0  0  0  0  0  0  0  0  0  0  0
   -0.7321   -0.4513    0.7148 N   0  0  0  0  0  0  0  0  0  0  0  0
   -0.4232    0.9559    0.4906 C   0  0  1  0  0  0  0  0  0  0  0  0
    1.1294    0.8642    0.5202 C   0  0  0  0  0  0  0  0  0  0  0  0
    1.4275   -0.4817    0.1539 O   0  0  0  0  0  0  0  0  0  0  0  0
   -0.9606    1.4827   -0.7651 C   0  0  0  0  0  0  0  0  0  0  0  0
   -1.4123    1.9100   -1.7933 C   0  0  0  0  0  0  0  0  0  0  0  0
   -1.6621   -0.8000    0.5403 H   0  0  0  0  0  0  0  0  0  0  0  0
   -0.7792    1.5714    1.3234 H   0  0  0  0  0  0  0  0  0  0  0  0
    1.6052    1.5412   -0.1890 H   0  0  0  0  0  0  0  0  0  0  0  0
    1.5050    1.0569    1.5307 H   0  0  0  0  0  0  0  0  0  0  0  0
   -1.8083    2.2858   -2.7049 H   0  0  0  0  0  0  0  0  0  0  0  0
  1  2  2  0  0  0  0
  2  3  1  0  0  0  0
  4  5  1  0  0  0  0
  4  3  1  0  0  0  0
  4 10  1  1  0  0  0
  5 12  1  0  0  0  0
  6  2  1  0  0  0  0
  6  5  1  0  0  0  0
  7  4  1  0  0  0  0
  8  7  3  0  0  0  0
  9  3  1  0  0  0  0
 11  5  1  0  0  0  0
 13  8  1  0  0  0  0
M  END
