title
 OpenBabel02282109593D

 13 13  0  0  1  0  0  0  0  0999 V2000
   -0.2510   -2.4824    0.3074 O   0  0  0  0  0  0  0  0  0  0  0  0
   -0.2938   -1.2798    0.3767 C   0  0  0  0  0  0  0  0  0  0  0  0
   -1.3917   -0.4598    0.1644 N   0  0  0  0  0  0  0  0  0  0  0  0
   -1.1260    0.9045    0.5770 C   0  0  0  0  0  0  0  0  0  0  0  0
    0.4237    0.9580    0.4469 C   0  0  1  0  0  0  0  0  0  0  0  0
    0.7726   -0.4294    0.7032 N   0  0  0  0  0  0  0  0  0  0  0  0
    0.8568    1.4294   -0.8843 C   0  0  0  0  0  0  0  0  0  0  0  0
    1.2246    1.8029   -1.9140 N   0  0  0  0  0  0  0  0  0  0  0  0
   -2.3052   -0.8712    0.2673 H   0  0  0  0  0  0  0  0  0  0  0  0
   -1.6146    1.6391   -0.0659 H   0  0  0  0  0  0  0  0  0  0  0  0
   -1.4071    1.0985    1.6210 H   0  0  0  0  0  0  0  0  0  0  0  0
    0.8546    1.6291    1.1956 H   0  0  0  0  0  0  0  0  0  0  0  0
    1.6994   -0.7656    0.4891 H   0  0  0  0  0  0  0  0  0  0  0  0
  1  2  2  0  0  0  0
  2  6  1  0  0  0  0
  3  9  1  0  0  0  0
  3  2  1  0  0  0  0
  3  4  1  0  0  0  0
  4 11  1  0  0  0  0
  5  4  1  0  0  0  0
  5  6  1  0  0  0  0
  5 12  1  1  0  0  0
  7  5  1  0  0  0  0
  8  7  3  0  0  0  0
 10  4  1  0  0  0  0
 13  6  1  0  0  0  0
M  END
