13
title
O -0.25096107 -2.4824421 0.30739567
C -0.2937572 -1.2798023 0.37673447
N -1.3917011 -0.45976427 0.16444172
C -1.1259776 0.90446943 0.57704747
C 0.42374182 0.9579665 0.44693547
N 0.77260923 -0.4293895 0.70315266
C 0.85680187 1.4294052 -0.8842592
N 1.2246484 1.8028538 -1.9139526
H -2.3052197 -0.87117666 0.26725528
H -1.6146178 1.6390836 -0.065894864
H -1.4070663 1.0985119 1.6209807
H 0.8545871 1.6291344 1.1956019
H 1.6994221 -0.76558656 0.48913586
