title
 OpenBabel02282109593D

 13 13  0  0  0  0  0  0  0  0999 V2000
   -2.1093   -2.0922    0.0074 O   0  0  0  0  0  0  0  0  0  0  0  0
   -2.0310   -0.8801    0.0165 C   0  0  0  0  0  0  0  0  0  0  0  0
   -0.7897   -0.1375    0.0082 C   0  0  0  0  0  0  0  0  0  0  0  0
   -0.6820    1.2111    0.0176 C   0  0  0  0  0  0  0  0  0  0  0  0
    0.6366    1.6130    0.0055 N   0  0  0  0  0  0  0  0  0  0  0  0
    1.5112    0.5140   -0.0127 C   0  0  0  0  0  0  0  0  0  0  0  0
    2.7118    0.5895   -0.0269 O   0  0  0  0  0  0  0  0  0  0  0  0
    0.6005   -0.7202   -0.0127 C   0  0  0  0  0  0  0  0  0  0  0  0
   -2.9451   -0.2430    0.0319 H   0  0  0  0  0  0  0  0  0  0  0  0
   -1.4758    1.9463    0.0325 H   0  0  0  0  0  0  0  0  0  0  0  0
    0.9657    2.5652    0.0089 H   0  0  0  0  0  0  0  0  0  0  0  0
    0.8207   -1.3484    0.8566 H   0  0  0  0  0  0  0  0  0  0  0  0
    0.8005   -1.3338   -0.8971 H   0  0  0  0  0  0  0  0  0  0  0  0
  1  2  2  0  0  0  0
  2  9  1  0  0  0  0
  3  2  1  0  0  0  0
  3  4  2  0  0  0  0
  4 10  1  0  0  0  0
  5 11  1  0  0  0  0
  5  4  1  0  0  0  0
  6  8  1  0  0  0  0
  6  5  1  0  0  0  0
  7  6  2  0  0  0  0
  8  3  1  0  0  0  0
  8 12  1  0  0  0  0
 13  8  1  0  0  0  0
M  END
