title
 OpenBabel02282109593D

 11 11  0  0  0  0  0  0  0  0999 V2000
   -1.8403   -2.3537    0.0020 O   0  0  0  0  0  0  0  0  0  0  0  0
   -1.7232   -1.1598    0.0093 C   0  0  0  0  0  0  0  0  0  0  0  0
   -0.3907   -0.4697    0.0004 C   0  0  0  0  0  0  0  0  0  0  0  0
    0.7544   -1.0193   -0.0163 N   0  0  0  0  0  0  0  0  0  0  0  0
    1.7085    0.0822   -0.0178 C   0  0  0  0  0  0  0  0  0  0  0  0
    0.8686    1.3557    0.0007 C   0  0  0  0  0  0  0  0  0  0  0  0
    1.1563    2.5069    0.0074 O   0  0  0  0  0  0  0  0  0  0  0  0
   -0.4587    0.9067    0.0120 O   0  0  0  0  0  0  0  0  0  0  0  0
   -2.5839   -0.4625    0.0238 H   0  0  0  0  0  0  0  0  0  0  0  0
    2.3680    0.0368    0.8557 H   0  0  0  0  0  0  0  0  0  0  0  0
    2.3497    0.0503   -0.9053 H   0  0  0  0  0  0  0  0  0  0  0  0
  1  2  2  0  0  0  0
  2  9  1  0  0  0  0
  3  2  1  0  0  0  0
  3  8  1  0  0  0  0
  4  3  2  0  0  0  0
  5  4  1  0  0  0  0
  5  6  1  0  0  0  0
  5 10  1  0  0  0  0
  6  7  2  0  0  0  0
  6  8  1  0  0  0  0
 11  5  1  0  0  0  0
M  END
