title
 OpenBabel02282109593D

 12 12  0  0  0  0  0  0  0  0999 V2000
   -1.8325   -2.3959    0.0010 O   0  0  0  0  0  0  0  0  0  0  0  0
   -1.7415   -1.1998    0.0085 C   0  0  0  0  0  0  0  0  0  0  0  0
   -0.4382   -0.4600    0.0006 C   0  0  0  0  0  0  0  0  0  0  0  0
    0.7170   -1.0130   -0.0167 N   0  0  0  0  0  0  0  0  0  0  0  0
    1.6849    0.0826   -0.0177 C   0  0  0  0  0  0  0  0  0  0  0  0
    0.8821    1.3916    0.0013 C   0  0  0  0  0  0  0  0  0  0  0  0
    1.2469    2.5378    0.0082 O   0  0  0  0  0  0  0  0  0  0  0  0
   -0.4374    0.9344    0.0125 N   0  0  0  0  0  0  0  0  0  0  0  0
   -2.6382   -0.5402    0.0222 H   0  0  0  0  0  0  0  0  0  0  0  0
    2.3453    0.0173    0.8543 H   0  0  0  0  0  0  0  0  0  0  0  0
    2.3270    0.0318   -0.9042 H   0  0  0  0  0  0  0  0  0  0  0  0
   -1.2408    1.5424    0.0273 H   0  0  0  0  0  0  0  0  0  0  0  0
  1  2  2  0  0  0  0
  2  9  1  0  0  0  0
  3  2  1  0  0  0  0
  3  8  1  0  0  0  0
  4  3  2  0  0  0  0
  5  4  1  0  0  0  0
  5  6  1  0  0  0  0
  5 10  1  0  0  0  0
  6  7  2  0  0  0  0
  6  8  1  0  0  0  0
  8 12  1  0  0  0  0
 11  5  1  0  0  0  0
M  END
