14
title
O -1.856598 -2.373196 0.0013283388
C -1.8290248 -1.1643286 0.010218628
C -0.57749707 -0.38316908 0.003131295
C -0.5146001 0.9589926 0.01344078
C 0.9025143 1.4113771 0.002157085
O 1.2940533 2.5532835 0.0068167686
C 1.7717736 0.14343151 -0.018844286
C 0.7843004 -1.0398402 -0.017125824
H -2.761519 -0.5610682 0.026177282
H -1.350778 1.6477827 0.028149983
H 2.4146743 0.16443953 -0.9036485
H 2.435709 0.14969453 0.8504929
H 0.90286833 -1.6982625 0.84965277
H 0.8834904 -1.6847059 -0.89642805
