title
 OpenBabel02282109593D

 13 13  0  0  0  0  0  0  0  0999 V2000
    0.2971    2.8616    0.0153 N   0  0  0  0  0  0  0  0  0  0  0  0
    0.3122    1.5956    0.0077 C   0  0  0  0  0  0  0  0  0  0  0  0
    1.4341    0.8052   -0.0032 O   0  0  0  0  0  0  0  0  0  0  0  0
    1.0595   -0.5783   -0.0093 C   0  0  0  0  0  0  0  0  0  0  0  0
   -0.4455   -0.5610   -0.0009 C   0  0  0  0  0  0  0  0  0  0  0  0
   -1.2646   -1.7767   -0.0035 C   0  0  0  0  0  0  0  0  0  0  0  0
   -0.7913   -2.8909   -0.0127 O   0  0  0  0  0  0  0  0  0  0  0  0
   -0.8613    0.7131    0.0090 C   0  0  0  0  0  0  0  0  0  0  0  0
    1.2474    3.2356    0.0122 H   0  0  0  0  0  0  0  0  0  0  0  0
    1.4710   -1.0652   -0.9008 H   0  0  0  0  0  0  0  0  0  0  0  0
    1.4808   -1.0756    0.8718 H   0  0  0  0  0  0  0  0  0  0  0  0
   -2.3617   -1.6076    0.0035 H   0  0  0  0  0  0  0  0  0  0  0  0
   -1.8744    1.0891    0.0168 H   0  0  0  0  0  0  0  0  0  0  0  0
  2  8  1  0  0  0  0
  2  1  2  0  0  0  0
  3  2  1  0  0  0  0
  4  3  1  0  0  0  0
  4  5  1  0  0  0  0
  4 11  1  0  0  0  0
  5  8  2  0  0  0  0
  6  5  1  0  0  0  0
  6 12  1  0  0  0  0
  7  6  2  0  0  0  0
  8 13  1  0  0  0  0
  9  1  1  0  0  0  0
 10  4  1  0  0  0  0
M  END
