13
title
N -0.4255216 2.881732 0.014831023
C -0.37377715 1.61502 0.009431172
C -1.5628024 0.65494424 0.011643727
N -1.0138401 -0.7051312 0.002277388
C 0.25840294 -0.5681921 -0.0037298843
N 0.7226027 0.7459399 0.00032433617
C 1.2460991 -1.6931542 -0.01414063
O 0.9454721 -2.8545961 -0.019015899
H 0.5023253 3.3080342 0.011864133
H -2.1938665 0.80368525 0.8947747
H -2.2038546 0.8118611 -0.8628211
H 1.6872954 1.0328267 -0.0052962867
H 2.3100028 -1.3620142 -0.017125513
