13
title
O -2.0101898 -1.9814606 0.007108424
C -2.0196056 -0.77009124 0.016803099
C -0.8003302 0.03772918 0.009281137
C -0.6874432 1.3796574 0.018797383
C 0.77257484 1.7294606 0.0051367087
C 1.4796445 0.35546127 -0.014340761
O 2.6628468 0.12340156 -0.028971238
N 0.4546835 -0.5757255 -0.009932888
H -2.9608736 -0.1842955 0.032297563
H -1.5103122 2.0790374 0.033873376
H 1.0739124 2.3150012 -0.8713267
H 1.0938499 2.300555 0.8840478
H 0.5822994 -1.5751671 -0.018981533
