title
 OpenBabel02282109593D

 14 14  0  0  0  0  0  0  0  0999 V2000
   -2.1299   -2.0219    0.0075 O   0  0  0  0  0  0  0  0  0  0  0  0
   -2.0517   -0.8139    0.0166 C   0  0  0  0  0  0  0  0  0  0  0  0
   -0.7865   -0.0733    0.0085 C   0  0  0  0  0  0  0  0  0  0  0  0
   -0.7023    1.2678    0.0184 C   0  0  0  0  0  0  0  0  0  0  0  0
    0.7135    1.7575    0.0064 C   0  0  0  0  0  0  0  0  0  0  0  0
    1.5417    0.4543   -0.0130 C   0  0  0  0  0  0  0  0  0  0  0  0
    2.7403    0.3900   -0.0288 O   0  0  0  0  0  0  0  0  0  0  0  0
    0.5664   -0.7337   -0.0121 C   0  0  0  0  0  0  0  0  0  0  0  0
   -2.9619   -0.1737    0.0317 H   0  0  0  0  0  0  0  0  0  0  0  0
   -1.5611    1.9310    0.0333 H   0  0  0  0  0  0  0  0  0  0  0  0
    0.9548    2.3762   -0.8677 H   0  0  0  0  0  0  0  0  0  0  0  0
    0.9745    2.3622    0.8846 H   0  0  0  0  0  0  0  0  0  0  0  0
    0.7455   -1.3792    0.8556 H   0  0  0  0  0  0  0  0  0  0  0  0
    0.7259   -1.3648   -0.8940 H   0  0  0  0  0  0  0  0  0  0  0  0
  1  2  2  0  0  0  0
  2  9  1  0  0  0  0
  3  2  1  0  0  0  0
  3  4  2  0  0  0  0
  4 10  1  0  0  0  0
  5  4  1  0  0  0  0
  5 12  1  0  0  0  0
  6  8  1  0  0  0  0
  6  5  1  0  0  0  0
  7  6  2  0  0  0  0
  8  3  1  0  0  0  0
  8 13  1  0  0  0  0
 11  5  1  0  0  0  0
 14  8  1  0  0  0  0
M  END
