15
title
O -1.3532294 -2.031467 -0.4732564
C -1.6591543 -0.8673461 -0.4307985
C -0.73617876 0.26667863 -0.86682814
C -0.4817352 1.2645799 0.27626276
C 0.85387933 0.8007789 0.87225056
O 1.3483242 1.1978513 1.8920125
C 1.4285825 -0.2612415 -0.062363863
N 0.5981499 -0.18170874 -1.2673714
H -2.6685853 -0.5443978 -0.08472347
H -1.2479683 0.75881916 -1.7075378
H -0.3531756 2.2824068 -0.10541588
H -1.2626319 1.2953569 1.0405757
H 2.483565 -0.06003707 -0.27342093
H 1.3699178 -1.2286439 0.46276784
H 0.53007495 -1.0872562 -1.7197022
