16
title
O -1.237685 -2.8858354 -0.23989438
C -1.2657734 -1.6857499 -0.17046443
C -0.059598614 -0.77830243 -0.15951034
C -0.042324353 0.1777668 -1.3880059
C 0.87035745 1.3341758 -0.9603059
C 0.7175812 1.4244325 0.5625004
O 1.1298103 2.3063724 1.2666632
C -0.052368928 0.18503594 1.0418661
H -2.2361925 -1.1332506 -0.112662934
H 0.836446 -1.4061776 -0.15889125
H 0.29043072 -0.33223772 -2.294081
H -1.0582883 0.54818916 -1.5752405
H 1.9235787 1.1059148 -1.1686343
H 0.6517808 2.2947013 -1.4323139
H -1.074743 0.5114529 1.2839264
H 0.37885338 -0.22421503 1.9574816
