13
title
N 2.064362 -1.6918051 0.09777375
H 2.1870995 -2.632565 -0.24285293
H 2.787429 -1.0547101 -0.203986
C 0.7910799 -1.1954005 0.011269365
O 0.68198097 0.14008859 0.012873282
C -0.6704103 0.4397805 -0.011972985
C -1.0915188 1.8159585 -0.021919876
O -0.36682856 2.791112 -0.011887888
C -1.3803662 -0.73460054 -0.029586444
C -0.44828308 -1.7998036 -0.016045831
H -2.2010753 1.9085317 -0.04167837
H -2.4571207 -0.8126898 -0.052129366
H -0.6465527 -2.859123 -0.020327669
