13
title
N -0.7321841 2.5758677 0.510219
C -0.5878969 1.3847053 0.13897803
C -1.6509176 0.3095932 0.13596933
O -1.0402981 -0.79877925 -0.51525486
C 0.34579006 -0.56339693 -0.59548205
O 0.5636495 0.8186976 -0.34553322
C 1.0759157 -1.3799925 0.4773251
O 1.9131571 -2.2018986 0.22815907
H 0.13705929 3.1036131 0.42614317
H -1.9574996 0.0589311 1.1588812
H -2.5339658 0.621641 -0.42754382
H 0.71984214 -0.826905 -1.5897874
H 0.74497837 -1.1505787 1.5152292
