14
title
O -1.5781778 -2.130739 0.78735775
C -0.83966506 -1.9179349 -0.13813683
C 0.34053418 -0.9611584 -0.10192324
C 0.27950343 0.13115478 -1.1978232
C 0.46926817 1.4615993 -0.44064254
O 0.550388 2.5515451 -0.9524196
C 0.5277114 1.133997 1.0031478
C 0.45018896 -0.18689203 1.1903791
H -0.9773417 -2.429578 -1.117895
H 1.2313675 -1.5919815 -0.24934785
H 1.0472962 0.025456902 -1.967412
H -0.6875196 0.15645504 -1.712028
H 0.62084544 1.8965487 1.7654626
H 0.45147857 -0.69374776 2.1476326
