title
 OpenBabel02282109593D

 16 16  0  0  1  0  0  0  0  0999 V2000
   -1.2377   -2.8858   -0.2399 O   0  0  0  0  0  0  0  0  0  0  0  0
   -1.2658   -1.6857   -0.1705 C   0  0  0  0  0  0  0  0  0  0  0  0
   -0.0596   -0.7783   -0.1595 C   0  0  1  0  0  0  0  0  0  0  0  0
   -0.0423    0.1778   -1.3880 C   0  0  0  0  0  0  0  0  0  0  0  0
    0.8704    1.3342   -0.9603 C   0  0  0  0  0  0  0  0  0  0  0  0
    0.7176    1.4244    0.5625 C   0  0  0  0  0  0  0  0  0  0  0  0
    1.1298    2.3064    1.2667 O   0  0  0  0  0  0  0  0  0  0  0  0
   -0.0524    0.1850    1.0419 C   0  0  0  0  0  0  0  0  0  0  0  0
   -2.2362   -1.1333   -0.1127 H   0  0  0  0  0  0  0  0  0  0  0  0
    0.8364   -1.4062   -0.1589 H   0  0  0  0  0  0  0  0  0  0  0  0
    0.2904   -0.3322   -2.2941 H   0  0  0  0  0  0  0  0  0  0  0  0
   -1.0583    0.5482   -1.5752 H   0  0  0  0  0  0  0  0  0  0  0  0
    1.9236    1.1059   -1.1686 H   0  0  0  0  0  0  0  0  0  0  0  0
    0.6518    2.2947   -1.4323 H   0  0  0  0  0  0  0  0  0  0  0  0
   -1.0747    0.5115    1.2839 H   0  0  0  0  0  0  0  0  0  0  0  0
    0.3789   -0.2242    1.9575 H   0  0  0  0  0  0  0  0  0  0  0  0
  1  2  2  0  0  0  0
  2  3  1  0  0  0  0
  2  9  1  0  0  0  0
  3 10  1  1  0  0  0
  3  8  1  0  0  0  0
  4  5  1  0  0  0  0
  4  3  1  0  0  0  0
  5  6  1  0  0  0  0
  6  8  1  0  0  0  0
  6  7  2  0  0  0  0
  8 15  1  0  0  0  0
  8 16  1  0  0  0  0
 11  4  1  0  0  0  0
 12  4  1  0  0  0  0
 13  5  1  0  0  0  0
 14  5  1  0  0  0  0
M  END
