title
 OpenBabel02282109593D

 15 15  0  0  1  0  0  0  0  0999 V2000
   -2.0991   -1.4811   -0.7325 O   0  0  0  0  0  0  0  0  0  0  0  0
   -2.0070   -0.2850   -0.6390 C   0  0  0  0  0  0  0  0  0  0  0  0
   -0.6932    0.4650   -0.5897 C   0  0  1  0  0  0  0  0  0  0  0  0
   -0.5270    1.3346    0.6923 C   0  0  0  0  0  0  0  0  0  0  0  0
    0.9854    1.2802    0.9617 C   0  0  0  0  0  0  0  0  0  0  0  0
    1.4361   -0.0465    0.3342 C   0  0  0  0  0  0  0  0  0  0  0  0
    2.4568   -0.6551    0.5534 O   0  0  0  0  0  0  0  0  0  0  0  0
    0.4518   -0.4068   -0.5518 N   0  0  0  0  0  0  0  0  0  0  0  0
   -2.9058    0.3709   -0.6011 H   0  0  0  0  0  0  0  0  0  0  0  0
   -0.6856    1.1212   -1.4795 H   0  0  0  0  0  0  0  0  0  0  0  0
   -0.9195    2.3436    0.5564 H   0  0  0  0  0  0  0  0  0  0  0  0
   -1.0715    0.8699    1.5209 H   0  0  0  0  0  0  0  0  0  0  0  0
    1.5192    2.0973    0.4630 H   0  0  0  0  0  0  0  0  0  0  0  0
    1.2514    1.3081    2.0190 H   0  0  0  0  0  0  0  0  0  0  0  0
    0.4560   -1.3011   -1.0166 H   0  0  0  0  0  0  0  0  0  0  0  0
  1  2  2  0  0  0  0
  2  9  1  0  0  0  0
  2  3  1  0  0  0  0
  3 10  1  6  0  0  0
  3  8  1  0  0  0  0
  3  4  1  0  0  0  0
  4  5  1  0  0  0  0
  4 12  1  0  0  0  0
  5 14  1  0  0  0  0
  6  7  2  0  0  0  0
  6  5  1  0  0  0  0
  8  6  1  0  0  0  0
 11  4  1  0  0  0  0
 13  5  1  0  0  0  0
 15  8  1  0  0  0  0
M  END
