title
 OpenBabel02282109593D

 15 15  0  0  1  0  0  0  0  0999 V2000
   -1.7352   -2.4392   -0.1321 O   0  0  0  0  0  0  0  0  0  0  0  0
   -1.2902   -1.3221   -0.1447 C   0  0  0  0  0  0  0  0  0  0  0  0
    0.1837   -0.9819   -0.2391 C   0  0  1  0  0  0  0  0  0  0  0  0
    0.4320   -0.0175   -1.4378 C   0  0  0  0  0  0  0  0  0  0  0  0
    0.4426    1.2902   -0.8167 N   0  0  0  0  0  0  0  0  0  0  0  0
    0.6333    1.2998    0.5409 C   0  0  0  0  0  0  0  0  0  0  0  0
    0.7801    2.2798    1.2336 O   0  0  0  0  0  0  0  0  0  0  0  0
    0.6329   -0.1642    0.9949 C   0  0  0  0  0  0  0  0  0  0  0  0
   -1.9600   -0.4319   -0.0837 H   0  0  0  0  0  0  0  0  0  0  0  0
    0.7324   -1.9173   -0.3552 H   0  0  0  0  0  0  0  0  0  0  0  0
    1.3851   -0.2537   -1.9295 H   0  0  0  0  0  0  0  0  0  0  0  0
   -0.3568   -0.0937   -2.1959 H   0  0  0  0  0  0  0  0  0  0  0  0
    0.5229    2.1475   -1.3407 H   0  0  0  0  0  0  0  0  0  0  0  0
   -0.0128   -0.2860    1.8682 H   0  0  0  0  0  0  0  0  0  0  0  0
    1.6471   -0.4315    1.3065 H   0  0  0  0  0  0  0  0  0  0  0  0
  2  1  2  0  0  0  0
  2  9  1  0  0  0  0
  3 10  1  6  0  0  0
  3  2  1  0  0  0  0
  3  8  1  0  0  0  0
  4  5  1  0  0  0  0
  4  3  1  0  0  0  0
  5  6  1  0  0  0  0
  6  8  1  0  0  0  0
  6  7  2  0  0  0  0
  8 15  1  0  0  0  0
  8 14  1  0  0  0  0
 11  4  1  0  0  0  0
 12  4  1  0  0  0  0
 13  5  1  0  0  0  0
M  END
