14
title
O -1.7965449 -1.4853619 -0.69126153
C -1.8491977 -0.2917052 -0.56524986
C -0.6465154 0.6324617 -0.74017733
C -0.40472475 1.5392748 0.49559337
N 0.5661271 0.7498148 1.2270069
C 1.252221 -0.12432963 0.39260632
O 2.2163634 -0.7901583 0.6794148
N 0.60762125 -0.07948214 -0.851738
H -2.8059797 0.23422307 -0.34095576
H -0.8584898 1.2509552 -1.6240554
H -0.013822242 2.516433 0.18184645
H -1.3231264 1.7067 1.0689592
H 1.0684737 1.1304477 2.0126445
H 0.59897953 -0.9568483 -1.3535349
