15
title
O -2.0990517 -1.4811352 -0.7325402
C -2.0070148 -0.2849599 -0.6390138
C -0.6932237 0.46501863 -0.5896795
C -0.526963 1.334574 0.6922766
C 0.9853965 1.2802446 0.9616562
C 1.4360636 -0.04650642 0.33421797
O 2.4568162 -0.6550884 0.5533819
N 0.45180145 -0.40676248 -0.5518148
H -2.9057543 0.37093675 -0.60107595
H -0.6855892 1.1211581 -1.4795294
H -0.9194634 2.343577 0.55636024
H -1.0715312 0.8698673 1.5209252
H 1.5192403 2.0972705 0.4630134
H 1.2514256 1.308104 2.0189726
H 0.4560205 -1.3011075 -1.016584
