title
 OpenBabel02282109593D

 13 13  0  0  1  0  0  0  0  0999 V2000
   -1.8008   -1.4665   -0.7490 O   0  0  0  0  0  0  0  0  0  0  0  0
   -1.8549   -0.2715   -0.6369 C   0  0  0  0  0  0  0  0  0  0  0  0
   -0.6377    0.6421   -0.7508 C   0  0  1  0  0  0  0  0  0  0  0  0
   -0.3827    1.4882    0.5231 C   0  0  0  0  0  0  0  0  0  0  0  0
    0.6343    0.7814    1.2268 O   0  0  0  0  0  0  0  0  0  0  0  0
    1.2299   -0.1373    0.3997 C   0  0  0  0  0  0  0  0  0  0  0  0
    2.1396   -0.8348    0.7353 O   0  0  0  0  0  0  0  0  0  0  0  0
    0.6080   -0.0779   -0.8420 N   0  0  0  0  0  0  0  0  0  0  0  0
   -2.8172    0.2616   -0.4623 H   0  0  0  0  0  0  0  0  0  0  0  0
   -0.8125    1.3010   -1.6128 H   0  0  0  0  0  0  0  0  0  0  0  0
   -0.0215    2.4892    0.2672 H   0  0  0  0  0  0  0  0  0  0  0  0
   -1.2638    1.5802    1.1643 H   0  0  0  0  0  0  0  0  0  0  0  0
    0.6267   -0.9393   -1.3692 H   0  0  0  0  0  0  0  0  0  0  0  0
  1  2  2  0  0  0  0
  2  9  1  0  0  0  0
  3 10  1  6  0  0  0
  3  2  1  0  0  0  0
  3  4  1  0  0  0  0
  4 12  1  0  0  0  0
  4  5  1  0  0  0  0
  6  7  2  0  0  0  0
  6  5  1  0  0  0  0
  8  3  1  0  0  0  0
  8  6  1  0  0  0  0
 11  4  1  0  0  0  0
 13  8  1  0  0  0  0
M  END
