title
 OpenBabel02282109593D

 15 15  0  0  0  0  0  0  0  0999 V2000
   -1.9239   -2.0295    0.2245 O   0  0  0  0  0  0  0  0  0  0  0  0
   -1.8917   -0.8177    0.1850 C   0  0  0  0  0  0  0  0  0  0  0  0
   -0.7996   -0.0852   -0.1570 N   0  0  0  0  0  0  0  0  0  0  0  0
   -0.7228    1.3766   -0.1106 C   0  0  0  0  0  0  0  0  0  0  0  0
    0.6972    1.6479    0.4042 C   0  0  0  0  0  0  0  0  0  0  0  0
    1.4966    0.4197   -0.0474 C   0  0  0  0  0  0  0  0  0  0  0  0
    2.6903    0.3343   -0.1347 O   0  0  0  0  0  0  0  0  0  0  0  0
    0.4985   -0.6939   -0.3860 C   0  0  0  0  0  0  0  0  0  0  0  0
   -2.7611   -0.1753    0.4304 H   0  0  0  0  0  0  0  0  0  0  0  0
   -0.8592    1.8092   -1.1111 H   0  0  0  0  0  0  0  0  0  0  0  0
   -1.5082    1.7744    0.5362 H   0  0  0  0  0  0  0  0  0  0  0  0
    1.1495    2.5700    0.0365 H   0  0  0  0  0  0  0  0  0  0  0  0
    0.7201    1.6730    1.5005 H   0  0  0  0  0  0  0  0  0  0  0  0
    0.6340   -1.5739    0.2499 H   0  0  0  0  0  0  0  0  0  0  0  0
    0.6455   -1.0161   -1.4257 H   0  0  0  0  0  0  0  0  0  0  0  0
  2  1  2  0  0  0  0
  2  9  1  0  0  0  0
  3  4  1  0  0  0  0
  3  2  1  0  0  0  0
  4  5  1  0  0  0  0
  4 11  1  0  0  0  0
  5 13  1  0  0  0  0
  6  5  1  0  0  0  0
  7  6  2  0  0  0  0
  8  3  1  0  0  0  0
  8  6  1  0  0  0  0
  8 14  1  0  0  0  0
 10  4  1  0  0  0  0
 12  5  1  0  0  0  0
 15  8  1  0  0  0  0
M  END
