title
 OpenBabel02282109593D

 12 12  0  0  1  0  0  0  0  0999 V2000
   -2.6757   -0.6125   -0.2455 O   0  0  0  0  0  0  0  0  0  0  0  0
   -1.6258   -0.6185   -0.8290 C   0  0  0  0  0  0  0  0  0  0  0  0
   -0.5880    0.4956   -0.6803 C   0  0  1  0  0  0  0  0  0  0  0  0
   -0.4899    1.0657    0.7430 C   0  0  0  0  0  0  0  0  0  0  0  0
    0.6928    0.4461    1.2550 O   0  0  0  0  0  0  0  0  0  0  0  0
    1.4090   -0.1114    0.2491 C   0  0  0  0  0  0  0  0  0  0  0  0
    2.4818   -0.6050    0.3603 O   0  0  0  0  0  0  0  0  0  0  0  0
    0.7153   -0.0276   -0.9278 O   0  0  0  0  0  0  0  0  0  0  0  0
   -1.3281   -1.4247   -1.5315 H   0  0  0  0  0  0  0  0  0  0  0  0
   -0.8061    1.2642   -1.4303 H   0  0  0  0  0  0  0  0  0  0  0  0
   -0.3613    2.1514    0.7567 H   0  0  0  0  0  0  0  0  0  0  0  0
   -1.3491    0.7833    1.3534 H   0  0  0  0  0  0  0  0  0  0  0  0
  2  3  1  0  0  0  0
  2  1  2  0  0  0  0
  3 10  1  6  0  0  0
  3  4  1  0  0  0  0
  4 11  1  0  0  0  0
  4  5  1  0  0  0  0
  4 12  1  0  0  0  0
  6  7  2  0  0  0  0
  6  5  1  0  0  0  0
  8  3  1  0  0  0  0
  8  6  1  0  0  0  0
  9  2  1  0  0  0  0
M  END
