12
title
O -2.398189 -1.2466593 1.3171556
C -1.5866097 -1.0010079 0.47094384
C -0.32713282 -0.16713525 0.72729856
O 0.7969152 -0.98196995 0.46338427
C 1.7143553 -0.22841932 -0.30706725
C 0.90713465 0.94601023 -0.83972025
O 1.2033919 1.7728969 -1.6424196
O -0.30207467 0.90947807 -0.19877164
H -1.6600096 -1.3642762 -0.57638705
H -0.32554507 0.22516213 1.7529202
H 2.553361 0.14273034 0.29773417
H 2.108635 -0.8368492 -1.1247263
