title
 OpenBabel02282109593D

 12 12  0  0  1  0  0  0  0  0999 V2000
   -2.3982   -1.2467    1.3172 O   0  0  0  0  0  0  0  0  0  0  0  0
   -1.5866   -1.0010    0.4709 C   0  0  0  0  0  0  0  0  0  0  0  0
   -0.3271   -0.1671    0.7273 C   0  0  1  0  0  0  0  0  0  0  0  0
    0.7969   -0.9820    0.4634 O   0  0  0  0  0  0  0  0  0  0  0  0
    1.7144   -0.2284   -0.3071 C   0  0  0  0  0  0  0  0  0  0  0  0
    0.9071    0.9460   -0.8397 C   0  0  0  0  0  0  0  0  0  0  0  0
    1.2034    1.7729   -1.6424 O   0  0  0  0  0  0  0  0  0  0  0  0
   -0.3021    0.9095   -0.1988 O   0  0  0  0  0  0  0  0  0  0  0  0
   -1.6600   -1.3643   -0.5764 H   0  0  0  0  0  0  0  0  0  0  0  0
   -0.3255    0.2252    1.7529 H   0  0  0  0  0  0  0  0  0  0  0  0
    2.5534    0.1427    0.2977 H   0  0  0  0  0  0  0  0  0  0  0  0
    2.1086   -0.8368   -1.1247 H   0  0  0  0  0  0  0  0  0  0  0  0
  2  3  1  0  0  0  0
  2  1  2  0  0  0  0
  3 10  1  1  0  0  0
  4  3  1  0  0  0  0
  5 11  1  0  0  0  0
  5  4  1  0  0  0  0
  6  5  1  0  0  0  0
  6  8  1  0  0  0  0
  7  6  2  0  0  0  0
  8  3  1  0  0  0  0
  9  2  1  0  0  0  0
 12  5  1  0  0  0  0
M  END
