18
title
C 0.41286138 2.8857205 0.28383422
C 0.40820536 1.3900766 0.25186694
C 0.029597979 0.60572445 -0.75755054
C 0.22335348 -0.8721583 -0.45441675
C 0.44542843 -0.86532974 1.0909609
C 0.91480076 0.5687347 1.4212412
C -0.87398994 -1.7300708 -0.88927394
C -1.7822578 -2.4340236 -1.2436105
H 1.4266217 3.274413 0.44587404
H 0.030442428 3.312632 -0.64705414
H -0.19972716 3.2642794 1.1119348
H -0.34050673 0.9462978 -1.7178193
H 1.1388409 -1.2228467 -0.9570107
H -0.5129498 -1.0631418 1.5781838
H 1.1453723 -1.640234 1.4115324
H 2.0106168 0.6378333 1.486659
H 0.5299301 0.9239744 2.384601
H -2.583356 -3.055356 -1.5585612
