14
title
N 0.3823684 2.6346352 -0.24644543
C 0.28957912 1.2683365 -0.35773212
N -0.80124134 0.6030159 -0.23005806
C -0.4299432 -0.81213653 -0.34493265
C 1.1387825 -0.85544145 -0.36180776
N 1.4607375 0.5544334 -0.6183599
C -0.9926639 -1.6242477 0.7427138
N -1.4108489 -2.2837112 1.5942907
H 1.0524768 3.0737326 -0.8609198
H -0.5189535 3.090208 -0.24756321
H -0.82800823 -1.2177876 -1.2849892
H 1.5362691 -1.1952637 0.600562
H 1.5241803 -1.5076236 -1.1487215
H 2.292811 0.90786535 -0.16435337
