14
title
N 0.1841781 2.5917692 -0.55255544
C 0.121868335 1.2333976 -0.42689353
N -0.88626724 0.55110323 -0.04450257
C -0.49853048 -0.86172956 -0.19622214
C 1.0139347 -0.8040274 -0.599991
O 1.2601384 0.5965662 -0.8175789
C -0.7247839 -1.650527 1.0127989
C -0.88463396 -2.323156 1.9955771
H 1.1057459 2.9932845 -0.47795504
H -0.5418647 3.0857687 -0.058218315
H -1.0889168 -1.3088162 -1.0081979
H 1.6688455 -1.1587338 0.19991918
H 1.2357782 -1.3438096 -1.5228461
H -1.040656 -2.9082673 2.867862
