title
 OpenBabel02282109593D

 13 13  0  0  1  0  0  0  0  0999 V2000
    0.1862    2.5672   -0.4696 N   0  0  0  0  0  0  0  0  0  0  0  0
    0.1219    1.2111   -0.4167 C   0  0  0  0  0  0  0  0  0  0  0  0
   -0.9331    0.5069   -0.2455 N   0  0  0  0  0  0  0  0  0  0  0  0
   -0.4929   -0.8892   -0.2994 C   0  0  1  0  0  0  0  0  0  0  0  0
    1.0261   -0.8138   -0.6710 C   0  0  0  0  0  0  0  0  0  0  0  0
    1.3160    0.5927   -0.6173 O   0  0  0  0  0  0  0  0  0  0  0  0
   -0.7173   -1.5748    0.9852 C   0  0  0  0  0  0  0  0  0  0  0  0
   -0.8706   -2.1287    1.9875 N   0  0  0  0  0  0  0  0  0  0  0  0
    1.0908    2.9794   -0.3089 H   0  0  0  0  0  0  0  0  0  0  0  0
   -0.6014    3.0510   -0.0697 H   0  0  0  0  0  0  0  0  0  0  0  0
   -1.0539   -1.4411   -1.0622 H   0  0  0  0  0  0  0  0  0  0  0  0
    1.6769   -1.3351    0.0324 H   0  0  0  0  0  0  0  0  0  0  0  0
    1.2164   -1.1732   -1.6858 H   0  0  0  0  0  0  0  0  0  0  0  0
  1  2  1  0  0  0  0
  1  9  1  0  0  0  0
  1 10  1  0  0  0  0
  2  3  2  0  0  0  0
  4 11  1  6  0  0  0
  4  3  1  0  0  0  0
  4  7  1  0  0  0  0
  5  6  1  0  0  0  0
  5  4  1  0  0  0  0
  5 12  1  0  0  0  0
  6  2  1  0  0  0  0
  7  8  3  0  0  0  0
 13  5  1  0  0  0  0
M  END
