16
title
C 0.4368746 2.835603 0.15729341
C 0.4313299 1.342317 0.12415083
C 0.25632998 0.5273693 -0.91099197
C 0.30197367 -0.9147691 -0.4570647
O 0.62309426 -0.8449039 0.9377786
C 0.62322956 0.5121666 1.3680581
C -0.9642583 -1.6236563 -0.6852383
C -1.9975971 -2.2019095 -0.89062804
H 1.3903729 3.219881 0.540244
H 0.27210006 3.260334 -0.83579695
H -0.34536278 3.216718 0.82557017
H 0.07324766 0.8046856 -1.940736
H 1.1042025 -1.4761591 -0.96128315
H 1.5759622 0.7292941 1.8745607
H -0.18121816 0.6860147 2.101932
H -2.910575 -2.715654 -1.0650384
