title
 OpenBabel02282109593D

 17 17  0  0  1  0  0  0  0  0999 V2000
    0.2966    2.9040    0.3219 C   0  0  0  0  0  0  0  0  0  0  0  0
    0.3492    1.4100    0.2824 C   0  0  0  0  0  0  0  0  0  0  0  0
    0.0575    0.6227   -0.7534 C   0  0  0  0  0  0  0  0  0  0  0  0
    0.2923   -0.8464   -0.4437 C   0  0  1  0  0  0  0  0  0  0  0  0
    0.4402   -0.8523    1.1101 C   0  0  0  0  0  0  0  0  0  0  0  0
    0.8177    0.6011    1.4748 C   0  0  0  0  0  0  0  0  0  0  0  0
   -0.7703   -1.7313   -0.9248 C   0  0  0  0  0  0  0  0  0  0  0  0
   -1.6113   -2.4276   -1.3047 N   0  0  0  0  0  0  0  0  0  0  0  0
    1.2837    3.3263    0.5492 H   0  0  0  0  0  0  0  0  0  0  0  0
   -0.0434    3.3238   -0.6280 H   0  0  0  0  0  0  0  0  0  0  0  0
   -0.3794    3.2512    1.1131 H   0  0  0  0  0  0  0  0  0  0  0  0
   -0.2675    0.9552   -1.7320 H   0  0  0  0  0  0  0  0  0  0  0  0
    1.2238   -1.1857   -0.9203 H   0  0  0  0  0  0  0  0  0  0  0  0
   -0.5244   -1.1089    1.5549 H   0  0  0  0  0  0  0  0  0  0  0  0
    1.1674   -1.5924    1.4496 H   0  0  0  0  0  0  0  0  0  0  0  0
    1.9018    0.7218    1.6113 H   0  0  0  0  0  0  0  0  0  0  0  0
    0.3539    0.9273    2.4127 H   0  0  0  0  0  0  0  0  0  0  0  0
  1  9  1  0  0  0  0
  1 11  1  0  0  0  0
  2  1  1  0  0  0  0
  2  6  1  0  0  0  0
  3  4  1  0  0  0  0
  3  2  2  0  0  0  0
  4 13  1  6  0  0  0
  4  5  1  0  0  0  0
  5 15  1  0  0  0  0
  5  6  1  0  0  0  0
  5 14  1  0  0  0  0
  6 16  1  0  0  0  0
  6 17  1  0  0  0  0
  7  4  1  0  0  0  0
  8  7  3  0  0  0  0
 10  1  1  0  0  0  0
 12  3  1  0  0  0  0
M  END
