18
title
C 0.22431815 2.976878 0.42439258
C 0.28550902 1.482903 0.38275188
C 0.043661945 0.69555974 -0.66805774
C 0.251635 -0.77674013 -0.36933872
C 0.39962557 -0.7869633 1.1807902
C 0.71448165 0.6724215 1.5868889
C -0.92667973 -1.6149203 -0.82640356
O -0.8862033 -2.4838471 -1.6576171
H 1.1987395 3.4038267 0.69420755
H -0.07747405 3.398224 -0.53794444
H -0.48578885 3.3202593 1.1872298
H -0.23369136 1.0471824 -1.6562936
H 1.1400177 -1.167952 -0.88049096
H -0.55245817 -1.0927078 1.6305276
H 1.1542054 -1.50241 1.5140376
H 1.7854298 0.8245905 1.7827753
H 0.19356386 0.9729137 2.503851
H -1.8836247 -1.3465146 -0.31616256
