title
 OpenBabel02282109593D

 16 16  0  0  1  0  0  0  0  0999 V2000
    0.4369    2.8356    0.1573 C   0  0  0  0  0  0  0  0  0  0  0  0
    0.4313    1.3423    0.1242 C   0  0  0  0  0  0  0  0  0  0  0  0
    0.2563    0.5274   -0.9110 C   0  0  0  0  0  0  0  0  0  0  0  0
    0.3020   -0.9148   -0.4571 C   0  0  1  0  0  0  0  0  0  0  0  0
    0.6231   -0.8449    0.9378 O   0  0  0  0  0  0  0  0  0  0  0  0
    0.6232    0.5122    1.3681 C   0  0  0  0  0  0  0  0  0  0  0  0
   -0.9643   -1.6237   -0.6852 C   0  0  0  0  0  0  0  0  0  0  0  0
   -1.9976   -2.2019   -0.8906 C   0  0  0  0  0  0  0  0  0  0  0  0
    1.3904    3.2199    0.5402 H   0  0  0  0  0  0  0  0  0  0  0  0
    0.2721    3.2603   -0.8358 H   0  0  0  0  0  0  0  0  0  0  0  0
   -0.3454    3.2167    0.8256 H   0  0  0  0  0  0  0  0  0  0  0  0
    0.0732    0.8047   -1.9407 H   0  0  0  0  0  0  0  0  0  0  0  0
    1.1042   -1.4762   -0.9613 H   0  0  0  0  0  0  0  0  0  0  0  0
    1.5760    0.7293    1.8746 H   0  0  0  0  0  0  0  0  0  0  0  0
   -0.1812    0.6860    2.1019 H   0  0  0  0  0  0  0  0  0  0  0  0
   -2.9106   -2.7157   -1.0650 H   0  0  0  0  0  0  0  0  0  0  0  0
  1  9  1  0  0  0  0
  1 11  1  0  0  0  0
  2  1  1  0  0  0  0
  2  6  1  0  0  0  0
  3  4  1  0  0  0  0
  3  2  2  0  0  0  0
  4 13  1  6  0  0  0
  4  5  1  0  0  0  0
  5  6  1  0  0  0  0
  6 14  1  0  0  0  0
  6 15  1  0  0  0  0
  7  4  1  0  0  0  0
  8  7  3  0  0  0  0
 10  1  1  0  0  0  0
 12  3  1  0  0  0  0
 16  8  1  0  0  0  0
M  END
