title
 OpenBabel02282109593D

 16 16  0  0  1  0  0  0  0  0999 V2000
    0.4200    2.8199    0.1814 C   0  0  0  0  0  0  0  0  0  0  0  0
    0.4316    1.3271    0.1365 C   0  0  0  0  0  0  0  0  0  0  0  0
    0.2881    0.5356   -0.9241 C   0  0  0  0  0  0  0  0  0  0  0  0
    0.3359   -0.9242   -0.5233 C   0  0  1  0  0  0  0  0  0  0  0  0
    0.8151   -0.8646    0.8661 N   0  0  0  0  0  0  0  0  0  0  0  0
    0.5999    0.4941    1.3851 C   0  0  0  0  0  0  0  0  0  0  0  0
   -0.9949   -1.5626   -0.6598 C   0  0  0  0  0  0  0  0  0  0  0  0
   -2.0285   -2.0760   -0.7342 N   0  0  0  0  0  0  0  0  0  0  0  0
    1.3606    3.2088    0.5898 H   0  0  0  0  0  0  0  0  0  0  0  0
    0.2720    3.2518   -0.8111 H   0  0  0  0  0  0  0  0  0  0  0  0
   -0.3809    3.1851    0.8362 H   0  0  0  0  0  0  0  0  0  0  0  0
    0.1260    0.8445   -1.9484 H   0  0  0  0  0  0  0  0  0  0  0  0
    1.0308   -1.5049   -1.1466 H   0  0  0  0  0  0  0  0  0  0  0  0
    0.4047   -1.5832    1.4474 H   0  0  0  0  0  0  0  0  0  0  0  0
    1.4618    0.8178    1.9852 H   0  0  0  0  0  0  0  0  0  0  0  0
   -0.2900    0.5903    2.0311 H   0  0  0  0  0  0  0  0  0  0  0  0
  1  9  1  0  0  0  0
  1 11  1  0  0  0  0
  2  1  1  0  0  0  0
  2  6  1  0  0  0  0
  3  4  1  0  0  0  0
  3  2  2  0  0  0  0
  4 13  1  6  0  0  0
  4  5  1  0  0  0  0
  5  6  1  0  0  0  0
  5 14  1  0  0  0  0
  6 15  1  0  0  0  0
  6 16  1  0  0  0  0
  7  4  1  0  0  0  0
  8  7  3  0  0  0  0
 10  1  1  0  0  0  0
 12  3  1  0  0  0  0
M  END
