16
title
C 0.4199876 2.8198595 0.18143585
C 0.43161035 1.3271149 0.13649197
C 0.28813264 0.5356275 -0.92411876
C 0.3359219 -0.9242428 -0.5232799
N 0.8150762 -0.8646119 0.86614776
C 0.59989697 0.49413252 1.3850701
C -0.99485844 -1.5625567 -0.6598196
N -2.0285375 -2.076021 -0.7342421
H 1.3605914 3.2088468 0.58984953
H 0.27197492 3.251819 -0.8111391
H -0.38088873 3.1850939 0.8361516
H 0.12597558 0.8444515 -1.9483896
H 1.0307628 -1.5049262 -1.1465935
H 0.4046786 -1.5832157 1.4474322
H 1.461826 0.81780475 1.9851934
H -0.29002628 0.590284 2.0311148
