15
title
C 0.21645416 2.7237682 -0.41023728
C 0.121641 1.2368788 -0.40438628
N -0.89738804 0.55140483 -0.07615729
C -0.5183978 -0.8710748 -0.23428087
C 0.97215164 -0.81777155 -0.705055
O 1.2539864 0.59053135 -0.7991963
C -0.70479196 -1.6350762 0.9955085
C -0.8303274 -2.2837205 1.998942
H 1.0207921 3.0517905 0.25539744
H 0.4580131 3.0833397 -1.4152268
H -0.7296466 3.1529155 -0.08322601
H -1.1536533 -1.3101858 -1.0136
H 1.6572175 -1.2675451 0.016838567
H 1.1257678 -1.2709414 -1.687313
H -0.95527035 -2.8494558 2.8889732
