title
 OpenBabel02282109593D

 14 14  0  0  1  0  0  0  0  0999 V2000
    0.1842    2.5918   -0.5526 N   0  0  0  0  0  0  0  0  0  0  0  0
    0.1219    1.2334   -0.4269 C   0  0  0  0  0  0  0  0  0  0  0  0
   -0.8863    0.5511   -0.0445 N   0  0  0  0  0  0  0  0  0  0  0  0
   -0.4985   -0.8617   -0.1962 C   0  0  1  0  0  0  0  0  0  0  0  0
    1.0139   -0.8040   -0.6000 C   0  0  0  0  0  0  0  0  0  0  0  0
    1.2601    0.5966   -0.8176 O   0  0  0  0  0  0  0  0  0  0  0  0
   -0.7248   -1.6505    1.0128 C   0  0  0  0  0  0  0  0  0  0  0  0
   -0.8846   -2.3232    1.9956 C   0  0  0  0  0  0  0  0  0  0  0  0
    1.1057    2.9933   -0.4780 H   0  0  0  0  0  0  0  0  0  0  0  0
   -0.5419    3.0858   -0.0582 H   0  0  0  0  0  0  0  0  0  0  0  0
   -1.0889   -1.3088   -1.0082 H   0  0  0  0  0  0  0  0  0  0  0  0
    1.6688   -1.1587    0.1999 H   0  0  0  0  0  0  0  0  0  0  0  0
    1.2358   -1.3438   -1.5228 H   0  0  0  0  0  0  0  0  0  0  0  0
   -1.0407   -2.9083    2.8679 H   0  0  0  0  0  0  0  0  0  0  0  0
  1  9  1  0  0  0  0
  1  2  1  0  0  0  0
  1 10  1  0  0  0  0
  2  3  2  0  0  0  0
  4 11  1  6  0  0  0
  4  3  1  0  0  0  0
  4  7  1  0  0  0  0
  5  4  1  0  0  0  0
  5 12  1  0  0  0  0
  6  5  1  0  0  0  0
  6  2  1  0  0  0  0
  7  8  3  0  0  0  0
  8 14  1  0  0  0  0
 13  5  1  0  0  0  0
M  END
