17
title
C 0.2966278 2.9039752 0.3219137
C 0.34918472 1.4099934 0.28242728
C 0.057547953 0.6227457 -0.7533648
C 0.29231128 -0.84640336 -0.4436517
C 0.44024915 -0.852319 1.1101288
C 0.81765944 0.6010615 1.4747747
C -0.77032095 -1.7312753 -0.92477345
N -1.6112717 -2.427642 -1.3046966
H 1.2836901 3.3262591 0.5491884
H -0.04340494 3.3237655 -0.62804604
H -0.37939855 3.251186 1.1130996
H -0.2674674 0.9552304 -1.7319639
H 1.2238079 -1.1856868 -0.92032444
H -0.5243589 -1.108907 1.5548764
H 1.1674206 -1.5924327 1.4495802
H 1.9017558 0.7217548 1.6113458
H 0.35388133 0.9273409 2.4126506
