title
 OpenBabel02282109593D

 15 15  0  0  1  0  0  0  0  0999 V2000
    0.4007    2.8449    0.1792 C   0  0  0  0  0  0  0  0  0  0  0  0
    0.4168    1.3524    0.1378 C   0  0  0  0  0  0  0  0  0  0  0  0
    0.2821    0.5430   -0.9086 C   0  0  0  0  0  0  0  0  0  0  0  0
    0.3429   -0.8967   -0.4525 C   0  0  1  0  0  0  0  0  0  0  0  0
    0.6389   -0.8381    0.9360 O   0  0  0  0  0  0  0  0  0  0  0  0
    0.5859    0.5180    1.3817 C   0  0  0  0  0  0  0  0  0  0  0  0
   -0.9367   -1.6082   -0.6887 C   0  0  0  0  0  0  0  0  0  0  0  0
   -1.9328   -2.1576   -0.8912 N   0  0  0  0  0  0  0  0  0  0  0  0
    1.3371    3.2379    0.5932 H   0  0  0  0  0  0  0  0  0  0  0  0
    0.2590    3.2729   -0.8156 H   0  0  0  0  0  0  0  0  0  0  0  0
   -0.4065    3.2086    0.8265 H   0  0  0  0  0  0  0  0  0  0  0  0
    0.1234    0.8206   -1.9418 H   0  0  0  0  0  0  0  0  0  0  0  0
    1.1309   -1.4721   -0.9600 H   0  0  0  0  0  0  0  0  0  0  0  0
    1.5145    0.7479    1.9229 H   0  0  0  0  0  0  0  0  0  0  0  0
   -0.2496    0.6590    2.0854 H   0  0  0  0  0  0  0  0  0  0  0  0
  1  9  1  0  0  0  0
  1 11  1  0  0  0  0
  2  1  1  0  0  0  0
  2  6  1  0  0  0  0
  3  4  1  0  0  0  0
  3  2  2  0  0  0  0
  4 13  1  6  0  0  0
  4  5  1  0  0  0  0
  5  6  1  0  0  0  0
  6 14  1  0  0  0  0
  6 15  1  0  0  0  0
  7  4  1  0  0  0  0
  8  7  3  0  0  0  0
 10  1  1  0  0  0  0
 12  3  1  0  0  0  0
M  END
