17
title
C -0.01573523 2.8448498 0.6788442
C 0.0053319717 1.3554925 0.59641707
C -0.008648946 0.5975206 -0.5024964
N 0.012484064 -0.7755769 -0.21183595
C 0.115163475 -0.9734042 1.2454362
C 0.019594911 0.4644017 1.8257465
C -0.027884478 -1.7681926 -1.1418327
O -0.09321824 -1.5957495 -2.3425841
H 0.866498 3.2307463 1.2065624
H -0.03958246 3.3005311 -0.3146161
H -0.89180005 3.2029374 1.2359512
H -0.037723888 0.8867636 -1.5423974
H -0.6874805 -1.6243795 1.6026493
H 1.0699283 -1.4470209 1.4964747
H 0.8637298 0.6890206 2.4882128
H -0.88830376 0.6022926 2.4272325
H 0.0043654423 -2.7712862 -0.6724041
