title
 OpenBabel02282109593D

 15 15  0  0  1  0  0  0  0  0999 V2000
    0.1106    2.7134   -0.7105 C   0  0  0  0  0  0  0  0  0  0  0  0
    0.1142    1.2315   -0.5561 C   0  0  0  0  0  0  0  0  0  0  0  0
   -0.9052    0.4679   -0.6078 N   0  0  0  0  0  0  0  0  0  0  0  0
   -0.4051   -0.8950   -0.3636 C   0  0  1  0  0  0  0  0  0  0  0  0
    1.1268   -0.7482   -0.2442 C   0  0  0  0  0  0  0  0  0  0  0  0
    1.3360    0.6791   -0.3442 O   0  0  0  0  0  0  0  0  0  0  0  0
   -1.0751   -1.4499    0.8907 C   0  0  0  0  0  0  0  0  0  0  0  0
   -0.4882   -1.9841    1.7953 O   0  0  0  0  0  0  0  0  0  0  0  0
    0.7420    3.0066   -1.5548 H   0  0  0  0  0  0  0  0  0  0  0  0
   -0.9076    3.0644   -0.8728 H   0  0  0  0  0  0  0  0  0  0  0  0
    0.5260    3.1849    0.1855 H   0  0  0  0  0  0  0  0  0  0  0  0
   -0.7065   -1.5505   -1.1933 H   0  0  0  0  0  0  0  0  0  0  0  0
    1.4980   -1.1005    0.7209 H   0  0  0  0  0  0  0  0  0  0  0  0
    1.6782   -1.2342   -1.0523 H   0  0  0  0  0  0  0  0  0  0  0  0
   -2.1762   -1.3103    0.9040 H   0  0  0  0  0  0  0  0  0  0  0  0
  1  2  1  0  0  0  0
  1 11  1  0  0  0  0
  2  6  1  0  0  0  0
  3  2  2  0  0  0  0
  3  4  1  0  0  0  0
  4 12  1  6  0  0  0
  4  5  1  0  0  0  0
  4  7  1  0  0  0  0
  5 13  1  0  0  0  0
  6  5  1  0  0  0  0
  7 15  1  0  0  0  0
  7  8  2  0  0  0  0
  9  1  1  0  0  0  0
 10  1  1  0  0  0  0
 14  5  1  0  0  0  0
M  END
