title
 OpenBabel02282109593D

 14 14  0  0  1  0  0  0  0  0999 V2000
   -0.3142    2.5465   -0.2076 N   0  0  0  0  0  0  0  0  0  0  0  0
   -0.4256    1.1858   -0.3768 C   0  0  2  0  0  0  0  0  0  0  0  0
   -1.5125    0.5174   -0.3125 N   0  0  0  0  0  0  0  0  0  0  0  0
   -1.1615   -0.8882   -0.4702 C   0  0  0  0  0  0  0  0  0  0  0  0
    0.4142   -0.9458   -0.4430 C   0  0  1  0  0  0  0  0  0  0  0  0
    0.7600    0.4716   -0.6334 N   0  0  0  0  0  0  0  0  0  0  0  0
    0.9444   -1.4781    0.8194 C   0  0  0  0  0  0  0  0  0  0  0  0
    1.3753   -1.8896    1.8102 N   0  0  0  0  0  0  0  0  0  0  0  0
    0.3793    2.9959   -0.7883 H   0  0  0  0  0  0  0  0  0  0  0  0
   -1.2090    3.0146   -0.2270 H   0  0  0  0  0  0  0  0  0  0  0  0
   -1.5995   -1.5065    0.3184 H   0  0  0  0  0  0  0  0  0  0  0  0
   -1.5270   -1.2707   -1.4308 H   0  0  0  0  0  0  0  0  0  0  0  0
    0.8103   -1.5582   -1.2581 H   0  0  0  0  0  0  0  0  0  0  0  0
    1.5800    0.7911   -0.1328 H   0  0  0  0  0  0  0  0  0  0  0  0
  2  3  1  0  0  0  0
  2  1  1  1  0  0  0
  4  5  1  0  0  0  0
  4  3  1  0  0  0  0
  4 11  1  0  0  0  0
  5 13  1  6  0  0  0
  5  7  1  0  0  0  0
  6  5  1  0  0  0  0
  6  2  1  0  0  0  0
  6 14  1  0  0  0  0
  7  8  3  0  0  0  0
  9  1  1  0  0  0  0
 10  1  1  0  0  0  0
 12  4  1  0  0  0  0
M  RAD  2   2   2   3   2
M  END
