15
title
C 0.11062633 2.7133617 -0.7105059
C 0.11420769 1.2315435 -0.55611855
N -0.9052349 0.4679204 -0.6077663
C -0.40510938 -0.8950357 -0.36364686
C 1.1267838 -0.7481659 -0.24421346
O 1.3360482 0.6791346 -0.34423625
C -1.0750844 -1.4498854 0.8906673
O -0.4881964 -1.9840982 1.7952843
H 0.7420469 3.0065756 -1.5548173
H -0.90756327 3.064377 -0.8727502
H 0.52599335 3.1849139 0.18546379
H -0.7065414 -1.5505071 -1.1932658
H 1.4980134 -1.1005251 0.72087884
H 1.6782343 -1.234235 -1.052301
H -2.1762457 -1.3103204 0.9039916
