title
 OpenBabel02282109593D

 16 16  0  0  1  0  0  0  0  0999 V2000
    0.3011    2.8641    0.0457 C   0  0  0  0  0  0  0  0  0  0  0  0
    0.3911    1.3743    0.0056 C   0  0  0  0  0  0  0  0  0  0  0  0
    0.2867    0.5540   -1.0378 C   0  0  0  0  0  0  0  0  0  0  0  0
    0.4020   -0.8790   -0.5670 C   0  0  1  0  0  0  0  0  0  0  0  0
    0.7475   -0.7961    0.7989 O   0  0  0  0  0  0  0  0  0  0  0  0
    0.6185    0.5492    1.2485 C   0  0  0  0  0  0  0  0  0  0  0  0
   -0.9275   -1.6066   -0.7841 C   0  0  0  0  0  0  0  0  0  0  0  0
   -1.6966   -1.9037    0.0877 O   0  0  0  0  0  0  0  0  0  0  0  0
    1.2247    3.3060    0.4394 H   0  0  0  0  0  0  0  0  0  0  0  0
    0.1167    3.2840   -0.9459 H   0  0  0  0  0  0  0  0  0  0  0  0
   -0.5092    3.1890    0.7102 H   0  0  0  0  0  0  0  0  0  0  0  0
    0.1080    0.8314   -2.0686 H   0  0  0  0  0  0  0  0  0  0  0  0
    1.1771   -1.4440   -1.1133 H   0  0  0  0  0  0  0  0  0  0  0  0
    1.5340    0.8379    1.7857 H   0  0  0  0  0  0  0  0  0  0  0  0
   -0.2208    0.6423    1.9562 H   0  0  0  0  0  0  0  0  0  0  0  0
   -1.1387   -1.8268   -1.8587 H   0  0  0  0  0  0  0  0  0  0  0  0
  1  9  1  0  0  0  0
  1 11  1  0  0  0  0
  2  1  1  0  0  0  0
  2  6  1  0  0  0  0
  3  4  1  0  0  0  0
  3  2  2  0  0  0  0
  4 13  1  6  0  0  0
  4  5  1  0  0  0  0
  5  6  1  0  0  0  0
  6 14  1  0  0  0  0
  6 15  1  0  0  0  0
  7  4  1  0  0  0  0
  7  8  2  0  0  0  0
 10  1  1  0  0  0  0
 12  3  1  0  0  0  0
 16  7  1  0  0  0  0
M  END
