14
title
N 0.10982955 2.5525482 -0.7820937
C 0.076516576 1.2057538 -0.5742252
N -0.97037756 0.4709857 -0.5204308
C -0.47674894 -0.8940196 -0.30803213
C 1.0646006 -0.78793573 -0.37252298
O 1.3026587 0.6346985 -0.46849424
C -0.99577546 -1.3973482 1.0367508
O -0.3174631 -1.9276888 1.8786417
H 0.9466827 3.0241966 -0.47869942
H -0.75585485 3.0319672 -0.59432423
H -0.87789905 -1.5719414 -1.0761822
H 1.5414999 -1.1710348 0.5320575
H 1.4959822 -1.2681859 -1.254049
H -2.0804842 -1.2125411 1.1869346
