17
title
C -0.069652766 2.9725893 -0.39898577
C 0.014965089 1.4811907 -0.46843535
C -0.035177894 0.71179104 -1.5574825
C 0.019971997 -0.7620338 -1.2451644
C 0.4897304 -0.76749 0.2429696
C 0.117681935 0.64242685 0.7896106
C -0.049573928 -1.8706261 1.0308135
N -0.48464432 -2.7419543 1.6538984
H 0.8188009 3.3989074 0.083672136
H -0.16473965 3.4170046 -1.393048
H -0.931569 3.291547 0.20091733
H -0.1501555 1.0820978 -2.570476
H -0.9658684 -1.2329499 -1.3524452
H 0.70724475 -1.3254637 -1.8842139
H 1.5811237 -0.8578757 0.25226977
H 0.8656014 1.0122056 1.4991881
H -0.84009326 0.62513465 1.3264487
