title
 OpenBabel02282109593D

 17 17  0  0  1  0  0  0  0  0999 V2000
   -0.0697    2.9726   -0.3990 C   0  0  0  0  0  0  0  0  0  0  0  0
    0.0150    1.4812   -0.4684 C   0  0  0  0  0  0  0  0  0  0  0  0
   -0.0352    0.7118   -1.5575 C   0  0  0  0  0  0  0  0  0  0  0  0
    0.0200   -0.7620   -1.2452 C   0  0  0  0  0  0  0  0  0  0  0  0
    0.4897   -0.7675    0.2430 C   0  0  1  0  0  0  0  0  0  0  0  0
    0.1177    0.6424    0.7896 C   0  0  0  0  0  0  0  0  0  0  0  0
   -0.0496   -1.8706    1.0308 C   0  0  0  0  0  0  0  0  0  0  0  0
   -0.4846   -2.7420    1.6539 N   0  0  0  0  0  0  0  0  0  0  0  0
    0.8188    3.3989    0.0837 H   0  0  0  0  0  0  0  0  0  0  0  0
   -0.1647    3.4170   -1.3930 H   0  0  0  0  0  0  0  0  0  0  0  0
   -0.9316    3.2915    0.2009 H   0  0  0  0  0  0  0  0  0  0  0  0
   -0.1502    1.0821   -2.5705 H   0  0  0  0  0  0  0  0  0  0  0  0
   -0.9659   -1.2329   -1.3524 H   0  0  0  0  0  0  0  0  0  0  0  0
    0.7072   -1.3255   -1.8842 H   0  0  0  0  0  0  0  0  0  0  0  0
    1.5811   -0.8579    0.2523 H   0  0  0  0  0  0  0  0  0  0  0  0
    0.8656    1.0122    1.4992 H   0  0  0  0  0  0  0  0  0  0  0  0
   -0.8401    0.6251    1.3264 H   0  0  0  0  0  0  0  0  0  0  0  0
  1  9  1  0  0  0  0
  1 11  1  0  0  0  0
  2  1  1  0  0  0  0
  2  6  1  0  0  0  0
  3  4  1  0  0  0  0
  3  2  2  0  0  0  0
  4  5  1  0  0  0  0
  5 15  1  1  0  0  0
  5  6  1  0  0  0  0
  5  7  1  0  0  0  0
  6 17  1  0  0  0  0
  6 16  1  0  0  0  0
  7  8  3  0  0  0  0
 10  1  1  0  0  0  0
 12  3  1  0  0  0  0
 13  4  1  0  0  0  0
 14  4  1  0  0  0  0
M  END
