13
title
N -0.3598582 2.5578904 0.018720433
C -0.51347107 1.2090188 -0.08885657
N -1.5569683 0.52260256 0.15169337
C -1.2517275 -0.8506114 -0.22557566
C 0.27271155 -0.8216719 -0.6037514
O 0.6052052 0.5757603 -0.5761474
C 1.1263946 -1.5523934 0.3405578
N 1.7789938 -2.1528206 1.0810279
H 0.5816641 2.8833141 0.17229736
H -1.0722067 3.017813 0.56320405
H -1.4481426 -1.5440187 0.59692955
H -1.8547308 -1.1704433 -1.0830836
H 0.46512184 -1.198 -1.6117458
