title
 OpenBabel02282109593D

 15 15  0  0  1  0  0  0  0  0999 V2000
    0.8822    2.2438    1.1084 O   0  0  0  0  0  0  0  0  0  0  0  0
    0.9389    0.8246    1.2085 C   0  0  1  0  0  0  0  0  0  0  0  0
   -0.4595    0.1393    1.1459 C   0  0  0  0  0  0  0  0  0  0  0  0
   -0.4900   -0.4979   -0.1786 N   0  0  0  0  0  0  0  0  0  0  0  0
   -1.5807   -1.0660   -0.7751 C   0  0  0  0  0  0  0  0  0  0  0  0
   -1.5679   -1.6195   -1.8534 O   0  0  0  0  0  0  0  0  0  0  0  0
    0.7975   -0.4833   -0.7225 C   0  0  0  0  0  0  0  0  0  0  0  0
    1.6630    0.1881    0.0445 C   0  0  0  0  0  0  0  0  0  0  0  0
    0.7335    2.4607    0.1808 H   0  0  0  0  0  0  0  0  0  0  0  0
    1.4105    0.6373    2.1769 H   0  0  0  0  0  0  0  0  0  0  0  0
   -0.5588   -0.6199    1.9289 H   0  0  0  0  0  0  0  0  0  0  0  0
   -1.2565    0.8774    1.2615 H   0  0  0  0  0  0  0  0  0  0  0  0
   -2.4897   -0.9600   -0.1527 H   0  0  0  0  0  0  0  0  0  0  0  0
    0.9470   -0.9970   -1.6609 H   0  0  0  0  0  0  0  0  0  0  0  0
    2.7101    0.3456   -0.1679 H   0  0  0  0  0  0  0  0  0  0  0  0
  1  2  1  0  0  0  0
  2 10  1  1  0  0  0
  3  2  1  0  0  0  0
  3 12  1  0  0  0  0
  3 11  1  0  0  0  0
  4  3  1  0  0  0  0
  5  4  1  0  0  0  0
  5 13  1  0  0  0  0
  6  5  2  0  0  0  0
  7  4  1  0  0  0  0
  7  8  2  0  0  0  0
  8  2  1  0  0  0  0
  9  1  1  0  0  0  0
 14  7  1  0  0  0  0
 15  8  1  0  0  0  0
M  END
