17
title
C -0.13873261 3.0671365 -0.30720675
C -0.082777515 1.5754192 -0.37181273
C -0.10962415 0.7902133 -1.4484597
C -0.032949954 -0.6683109 -1.0976565
N 0.044211276 -0.6233337 0.36446607
C 0.018051341 0.7422638 0.8857642
C 0.12991278 -1.7456152 1.114602
O 0.15096374 -2.8751864 0.66652733
H 0.7517523 3.4775848 0.18533158
H -0.20790662 3.5068142 -1.3051436
H -1.0034384 3.4077632 0.2761656
H -0.17840232 1.133237 -2.473674
H -0.9096194 -1.2423351 -1.4279585
H 0.845595 -1.1729052 -1.5227003
H 0.9253168 0.9816597 1.4614807
H -0.83832234 0.91160846 1.5564759
H 0.17978902 -1.5227795 2.2002816
