17
title
C -1.5064694 2.367891 0.24456917
C -1.5346662 0.830942 0.24256252
C -0.7547364 0.20347378 -0.9557373
N 0.39511698 -0.47501346 -0.33266434
C 1.4242266 -1.0694457 -0.99974364
O 2.350697 -1.6502682 -0.47280183
C 0.25137883 -0.45540866 1.0616771
C -0.826455 0.22992751 1.4416667
H -0.47579163 2.737253 0.2601341
H -2.0036638 2.7724857 -0.6437836
H -2.0184767 2.7663043 1.1262591
H -2.582434 0.5097801 0.20440006
H -1.3695505 -0.5215727 -1.4993144
H -0.4159537 0.96323174 -1.6666846
H 1.3195409 -0.9597323 -2.09694
H 0.9964873 -0.9737021 1.6462469
H -1.1387817 0.38890332 2.4639928
