16
title
C -0.8357129 2.1076593 0.12851374
C -1.2390604 0.674533 0.47922555
O -0.9132805 -0.21899265 -0.5994438
C 0.075803615 -1.1388016 -0.20269363
C 1.4187999 -0.89582366 -0.89999914
O 1.7082891 0.10036815 -1.5034171
C 0.23077463 -0.941374 1.2909333
C -0.5107313 0.09485663 1.6633959
H 0.23617898 2.1559103 -0.07774584
H -1.3743509 2.4384115 -0.763564
H -1.0782082 2.78912 0.9510087
H -2.3292308 0.632886 0.62552416
H -0.24084552 -2.1652136 -0.45767754
H 2.1379564 -1.7412099 -0.7797117
H 0.87693954 -1.548992 1.9104799
H -0.59784526 0.50095916 2.6632226
