title
 OpenBabel02282109593D

 18 18  0  0  1  0  0  0  0  0999 V2000
   -1.3035    2.5930    0.3320 C   0  0  0  0  0  0  0  0  0  0  0  0
   -1.3193    1.0619    0.4121 C   0  0  1  0  0  0  0  0  0  0  0  0
   -0.6413    0.3634   -0.7986 C   0  0  0  0  0  0  0  0  0  0  0  0
    0.1089   -0.8762   -0.2345 C   0  0  1  0  0  0  0  0  0  0  0  0
    1.4745   -1.0528   -0.8701 C   0  0  0  0  0  0  0  0  0  0  0  0
    1.8839   -2.0662   -1.3728 O   0  0  0  0  0  0  0  0  0  0  0  0
    0.2087   -0.5482    1.2459 C   0  0  0  0  0  0  0  0  0  0  0  0
   -0.5570    0.4867    1.5836 C   0  0  0  0  0  0  0  0  0  0  0  0
   -0.2763    2.9699    0.2786 H   0  0  0  0  0  0  0  0  0  0  0  0
   -1.8395    2.9450   -0.5556 H   0  0  0  0  0  0  0  0  0  0  0  0
   -1.7814    3.0417    1.2091 H   0  0  0  0  0  0  0  0  0  0  0  0
   -2.3696    0.7410    0.4862 H   0  0  0  0  0  0  0  0  0  0  0  0
   -1.3450    0.0940   -1.5893 H   0  0  0  0  0  0  0  0  0  0  0  0
    0.0883    1.0551   -1.2400 H   0  0  0  0  0  0  0  0  0  0  0  0
   -0.4415   -1.8115   -0.3943 H   0  0  0  0  0  0  0  0  0  0  0  0
    2.1049   -0.1317   -0.8292 H   0  0  0  0  0  0  0  0  0  0  0  0
    0.8100   -1.1404    1.9268 H   0  0  0  0  0  0  0  0  0  0  0  0
   -0.6742    0.8686    2.5929 H   0  0  0  0  0  0  0  0  0  0  0  0
  1  2  1  0  0  0  0
  1 11  1  0  0  0  0
  2 12  1  1  0  0  0
  2  8  1  0  0  0  0
  3  4  1  0  0  0  0
  3  2  1  0  0  0  0
  4 15  1  6  0  0  0
  4  7  1  0  0  0  0
  5 16  1  0  0  0  0
  5  4  1  0  0  0  0
  6  5  2  0  0  0  0
  7  8  2  0  0  0  0
  7 17  1  0  0  0  0
  8 18  1  0  0  0  0
  9  1  1  0  0  0  0
 10  1  1  0  0  0  0
 13  3  1  0  0  0  0
 14  3  1  0  0  0  0
M  END
