title
 OpenBabel02282109593D

 16 16  0  0  1  0  0  0  0  0999 V2000
    0.0671    2.6665   -0.1081 O   0  0  0  0  0  0  0  0  0  0  0  0
    0.5648    1.4481    0.4476 C   0  0  1  0  0  0  0  0  0  0  0  0
   -0.5372    0.4305    0.8359 C   0  0  0  0  0  0  0  0  0  0  0  0
   -0.5688   -0.6272   -0.3110 C   0  0  1  0  0  0  0  0  0  0  0  0
    0.7801   -0.4146   -0.9873 C   0  0  0  0  0  0  0  0  0  0  0  0
    1.3993    0.6800   -0.5520 C   0  0  0  0  0  0  0  0  0  0  0  0
   -0.7837   -1.9935    0.1522 C   0  0  0  0  0  0  0  0  0  0  0  0
   -0.9541   -3.1202    0.5351 C   0  0  0  0  0  0  0  0  0  0  0  0
   -0.2697    2.4658   -0.9884 H   0  0  0  0  0  0  0  0  0  0  0  0
    1.1334    1.7698    1.3255 H   0  0  0  0  0  0  0  0  0  0  0  0
   -0.2657   -0.0714    1.7678 H   0  0  0  0  0  0  0  0  0  0  0  0
   -1.4977    0.9273    0.9864 H   0  0  0  0  0  0  0  0  0  0  0  0
   -1.3684   -0.3916   -1.0294 H   0  0  0  0  0  0  0  0  0  0  0  0
    1.1449   -1.0998   -1.7439 H   0  0  0  0  0  0  0  0  0  0  0  0
    2.3518    1.0519   -0.9121 H   0  0  0  0  0  0  0  0  0  0  0  0
   -1.1070   -4.1149    0.8738 H   0  0  0  0  0  0  0  0  0  0  0  0
  1  2  1  0  0  0  0
  2  3  1  0  0  0  0
  2 10  1  1  0  0  0
  3 12  1  0  0  0  0
  3 11  1  0  0  0  0
  4 13  1  6  0  0  0
  4  7  1  0  0  0  0
  4  3  1  0  0  0  0
  5  6  2  0  0  0  0
  5  4  1  0  0  0  0
  6  2  1  0  0  0  0
  7  8  3  0  0  0  0
  8 16  1  0  0  0  0
  9  1  1  0  0  0  0
 14  5  1  0  0  0  0
 15  6  1  0  0  0  0
M  END
