title
 OpenBabel02282109593D

 15 15  0  0  1  0  0  0  0  0999 V2000
   -0.4136    2.7331    0.1836 C   0  0  0  0  0  0  0  0  0  0  0  0
   -0.6351    1.2341    0.3614 C   0  0  1  0  0  0  0  0  0  0  0  0
   -0.1466    0.5421   -0.8046 O   0  0  0  0  0  0  0  0  0  0  0  0
    0.6794   -0.5455   -0.4244 C   0  0  1  0  0  0  0  0  0  0  0  0
    0.8747   -0.3934    1.0700 C   0  0  0  0  0  0  0  0  0  0  0  0
    0.1198    0.6067    1.5026 C   0  0  0  0  0  0  0  0  0  0  0  0
    0.0455   -1.8417   -0.7661 C   0  0  0  0  0  0  0  0  0  0  0  0
   -0.4342   -2.8602   -1.0257 N   0  0  0  0  0  0  0  0  0  0  0  0
    0.6541    2.9582    0.1100 H   0  0  0  0  0  0  0  0  0  0  0  0
   -0.9081    3.0786   -0.7281 H   0  0  0  0  0  0  0  0  0  0  0  0
   -0.8330    3.2834    1.0319 H   0  0  0  0  0  0  0  0  0  0  0  0
   -1.7151    1.0395    0.4614 H   0  0  0  0  0  0  0  0  0  0  0  0
    1.6251   -0.4911   -0.9826 H   0  0  0  0  0  0  0  0  0  0  0  0
    1.5187   -1.0453    1.6439 H   0  0  0  0  0  0  0  0  0  0  0  0
    0.0274    0.9504    2.5249 H   0  0  0  0  0  0  0  0  0  0  0  0
  1  2  1  0  0  0  0
  1 11  1  0  0  0  0
  2 12  1  1  0  0  0
  2  6  1  0  0  0  0
  3  4  1  0  0  0  0
  3  2  1  0  0  0  0
  4 13  1  6  0  0  0
  4  5  1  0  0  0  0
  5  6  2  0  0  0  0
  5 14  1  0  0  0  0
  6 15  1  0  0  0  0
  7  4  1  0  0  0  0
  8  7  3  0  0  0  0
  9  1  1  0  0  0  0
 10  1  1  0  0  0  0
M  END
