18
title
C -2.3249695 1.6719801 -0.62062985
C -1.4726856 0.41237217 -0.47861746
C -0.5425095 0.123693906 -1.6883818
C 0.6519664 -0.5447613 -1.0632133
C 0.6746178 -0.3949822 0.27059966
C -0.5244208 0.41192806 0.7481146
C 1.6756603 -0.8578839 1.157545
C 2.4988093 -1.2340579 1.9539111
H -1.694227 2.5617237 -0.73139584
H -2.9764867 1.6141813 -1.4991889
H -2.963222 1.8231792 0.25640094
H -2.140348 -0.45151684 -0.37215388
H -1.0284235 -0.49132273 -2.4546802
H -0.24077193 1.0556287 -2.1918786
H 1.4211179 -1.0504371 -1.6352491
H -0.2074899 1.4300872 1.0155052
H -0.98838353 -0.01475475 1.642956
H 3.2342882 -1.5709535 2.6413033
