17
title
C -2.2822142 1.7582848 -0.6155006
C -1.4674283 0.4721639 -0.49562478
C -0.5181027 0.19699334 -1.6943938
C 0.64804476 -0.51710725 -1.0687875
C 0.63628024 -0.4064256 0.26698372
C -0.54869574 0.40983233 0.7541937
C 1.6213456 -0.9305614 1.1472672
N 2.4047651 -1.3466468 1.8928318
H -1.6263357 2.6336167 -0.68615085
H -2.9165778 1.7435333 -1.5078528
H -2.9339957 1.8986155 0.2529107
H -2.1585472 -0.376787 -0.43068984
H -0.9972613 -0.38394654 -2.4899492
H -0.17747468 1.133667 -2.1616673
H 1.4189917 -1.0236197 -1.6373901
H -0.21421713 1.4098642 1.0629548
H -1.0426834 -0.0374195 1.621856
