title
 OpenBabel02282109593D

 15 15  0  0  1  0  0  0  0  0999 V2000
   -1.8121    1.8420   -0.5723 C   0  0  0  0  0  0  0  0  0  0  0  0
   -1.4686    0.3646   -0.4727 C   0  0  1  0  0  0  0  0  0  0  0  0
   -0.6230   -0.1946   -1.6510 C   0  0  0  0  0  0  0  0  0  0  0  0
    0.6516   -0.6130   -1.0556 N   0  0  0  0  0  0  0  0  0  0  0  0
    0.5454   -0.3871    0.1937 C   0  0  0  0  0  0  0  0  0  0  0  0
   -0.6095    0.1451    0.6808 O   0  0  0  0  0  0  0  0  0  0  0  0
    1.5547   -0.6477    1.1656 C   0  0  0  0  0  0  0  0  0  0  0  0
    2.3980   -0.8642    1.9931 C   0  0  0  0  0  0  0  0  0  0  0  0
   -0.9079    2.4369   -0.7351 H   0  0  0  0  0  0  0  0  0  0  0  0
   -2.4918    2.0109   -1.4142 H   0  0  0  0  0  0  0  0  0  0  0  0
   -2.3001    2.1932    0.3407 H   0  0  0  0  0  0  0  0  0  0  0  0
   -2.3741   -0.2263   -0.3019 H   0  0  0  0  0  0  0  0  0  0  0  0
   -1.0979   -1.0500   -2.1434 H   0  0  0  0  0  0  0  0  0  0  0  0
   -0.4412    0.5633   -2.4224 H   0  0  0  0  0  0  0  0  0  0  0  0
    3.1489   -1.0583    2.7189 H   0  0  0  0  0  0  0  0  0  0  0  0
  1  2  1  0  0  0  0
  1 11  1  0  0  0  0
  2 12  1  1  0  0  0
  2  6  1  0  0  0  0
  3  4  1  0  0  0  0
  3  2  1  0  0  0  0
  4  5  2  0  0  0  0
  5  6  1  0  0  0  0
  5  7  1  0  0  0  0
  7  8  3  0  0  0  0
  8 15  1  0  0  0  0
  9  1  1  0  0  0  0
 10  1  1  0  0  0  0
 13  3  1  0  0  0  0
 14  3  1  0  0  0  0
M  END
