17
title
C -1.2736555 2.2442975 0.5272941
C -1.4521573 0.7262023 0.4556456
C -0.711002 0.08024368 -0.7536695
C 0.5175251 -0.5399526 -0.11694614
C 1.6335956 -1.1080841 -0.8225453
O 1.7519392 -1.136637 -2.035585
C 0.36607483 -0.5008665 1.2295734
N -0.8215827 0.052481864 1.6170421
H -0.21113536 2.508756 0.51633674
H -1.7542814 2.7231593 -0.33160707
H -1.7243097 2.658427 1.4363197
H -2.5198128 0.48669383 0.44192836
H -1.3286619 -0.6839948 -1.2390785
H -0.46099827 0.8181401 -1.521639
H 2.4250226 -1.5346279 -0.16188209
H 1.0525061 -0.8797129 1.9779943
H -0.91068864 0.46857357 2.5319018
