title
 OpenBabel02282109593D

 16 16  0  0  1  0  0  0  0  0999 V2000
   -0.9570    2.3198   -0.4067 C   0  0  0  0  0  0  0  0  0  0  0  0
   -1.3600    0.8448   -0.3438 C   0  0  1  0  0  0  0  0  0  0  0  0
   -0.9487    0.0337   -1.6135 C   0  0  0  0  0  0  0  0  0  0  0  0
    0.2799   -0.6987   -1.2595 N   0  0  0  0  0  0  0  0  0  0  0  0
    0.3800   -0.5920    0.0166 C   0  0  1  0  0  0  0  0  0  0  0  0
   -0.6113    0.0956    0.6804 N   0  0  0  0  0  0  0  0  0  0  0  0
    1.5171   -1.1831    0.7665 C   0  0  0  0  0  0  0  0  0  0  0  0
    1.6747   -1.0183    1.9527 O   0  0  0  0  0  0  0  0  0  0  0  0
    0.1096    2.4223   -0.6330 H   0  0  0  0  0  0  0  0  0  0  0  0
   -1.5237    2.8362   -1.1885 H   0  0  0  0  0  0  0  0  0  0  0  0
   -1.1580    2.8281    0.5424 H   0  0  0  0  0  0  0  0  0  0  0  0
   -2.4346    0.7651   -0.1536 H   0  0  0  0  0  0  0  0  0  0  0  0
   -1.7214   -0.6942   -1.8922 H   0  0  0  0  0  0  0  0  0  0  0  0
   -0.7773    0.6739   -2.4849 H   0  0  0  0  0  0  0  0  0  0  0  0
   -0.3775    0.5220    1.5659 H   0  0  0  0  0  0  0  0  0  0  0  0
    2.2132   -1.7677    0.1357 H   0  0  0  0  0  0  0  0  0  0  0  0
  1  2  1  0  0  0  0
  1 11  1  0  0  0  0
  2 12  1  1  0  0  0
  2  6  1  0  0  0  0
  3  4  1  0  0  0  0
  3  2  1  0  0  0  0
  4  5  1  0  0  0  0
  5  6  1  0  0  0  0
  5  7  1  1  0  0  0
  6 15  1  0  0  0  0
  7  8  2  0  0  0  0
  9  1  1  0  0  0  0
 10  1  1  0  0  0  0
 13  3  1  0  0  0  0
 14  3  1  0  0  0  0
 16  7  1  0  0  0  0
M  RAD  2   4   2   5   2
M  END
