15
title
C -1.8120741 1.841955 -0.57232815
C -1.4686375 0.3646177 -0.47265035
C -0.6229833 -0.19458936 -1.6510142
N 0.6516196 -0.61301714 -1.0556496
C 0.54542035 -0.387088 0.19370903
O -0.6094676 0.14506663 0.68077844
C 1.554699 -0.6477356 1.1655647
C 2.3979888 -0.8641862 1.9930989
H -0.9078787 2.436917 -0.7351213
H -2.4918313 2.0108924 -1.4141582
H -2.300085 2.1932216 0.34070596
H -2.374057 -0.22633092 -0.301908
H -1.0979434 -1.0499976 -2.1434302
H -0.44121832 0.56331015 -2.4223661
H 3.148866 -1.0582842 2.7188692
