title
 OpenBabel02282109593D

 16 16  0  0  0  0  0  0  0  0999 V2000
    0.0799    2.6270   -1.0753 C   0  0  0  0  0  0  0  0  0  0  0  0
   -0.0152    1.1875   -0.9732 N   0  0  0  0  0  0  0  0  0  0  0  0
   -1.3698    0.6419   -0.8877 C   0  0  0  0  0  0  0  0  0  0  0  0
   -1.1703   -0.6579   -0.1667 C   0  0  0  0  0  0  0  0  0  0  0  0
    0.0550   -0.7062    0.3675 C   0  0  0  0  0  0  0  0  0  0  0  0
    0.8121    0.5702    0.0621 C   0  0  0  0  0  0  0  0  0  0  0  0
    0.5973   -1.7561    1.1529 C   0  0  0  0  0  0  0  0  0  0  0  0
    1.0669   -2.5960    1.7979 N   0  0  0  0  0  0  0  0  0  0  0  0
    1.1222    2.9211   -1.2341 H   0  0  0  0  0  0  0  0  0  0  0  0
   -0.4983    2.9768   -1.9364 H   0  0  0  0  0  0  0  0  0  0  0  0
   -0.2909    3.1569   -0.1768 H   0  0  0  0  0  0  0  0  0  0  0  0
   -2.0676    1.2859   -0.3128 H   0  0  0  0  0  0  0  0  0  0  0  0
   -1.8142    0.5163   -1.8850 H   0  0  0  0  0  0  0  0  0  0  0  0
   -1.9316   -1.4214   -0.0776 H   0  0  0  0  0  0  0  0  0  0  0  0
    1.8330    0.3859   -0.2961 H   0  0  0  0  0  0  0  0  0  0  0  0
    0.8989    1.1842    0.9801 H   0  0  0  0  0  0  0  0  0  0  0  0
  1  2  1  0  0  0  0
  1 11  1  0  0  0  0
  2  3  1  0  0  0  0
  2  6  1  0  0  0  0
  3 12  1  0  0  0  0
  3  4  1  0  0  0  0
  4 14  1  0  0  0  0
  4  5  2  0  0  0  0
  5  7  1  0  0  0  0
  6  5  1  0  0  0  0
  6 16  1  0  0  0  0
  7  8  3  0  0  0  0
  9  1  1  0  0  0  0
 10  1  1  0  0  0  0
 13  3  1  0  0  0  0
 15  6  1  0  0  0  0
M  END
