title
 OpenBabel02282109593D

 17 17  0  0  1  0  0  0  0  0999 V2000
   -1.2737    2.2443    0.5273 C   0  0  0  0  0  0  0  0  0  0  0  0
   -1.4522    0.7262    0.4556 C   0  0  1  0  0  0  0  0  0  0  0  0
   -0.7110    0.0802   -0.7537 C   0  0  0  0  0  0  0  0  0  0  0  0
    0.5175   -0.5400   -0.1169 C   0  0  0  0  0  0  0  0  0  0  0  0
    1.6336   -1.1081   -0.8225 C   0  0  0  0  0  0  0  0  0  0  0  0
    1.7519   -1.1366   -2.0356 O   0  0  0  0  0  0  0  0  0  0  0  0
    0.3661   -0.5009    1.2296 C   0  0  0  0  0  0  0  0  0  0  0  0
   -0.8216    0.0525    1.6170 N   0  0  0  0  0  0  0  0  0  0  0  0
   -0.2111    2.5088    0.5163 H   0  0  0  0  0  0  0  0  0  0  0  0
   -1.7543    2.7232   -0.3316 H   0  0  0  0  0  0  0  0  0  0  0  0
   -1.7243    2.6584    1.4363 H   0  0  0  0  0  0  0  0  0  0  0  0
   -2.5198    0.4867    0.4419 H   0  0  0  0  0  0  0  0  0  0  0  0
   -1.3287   -0.6840   -1.2391 H   0  0  0  0  0  0  0  0  0  0  0  0
   -0.4610    0.8181   -1.5216 H   0  0  0  0  0  0  0  0  0  0  0  0
    2.4250   -1.5346   -0.1619 H   0  0  0  0  0  0  0  0  0  0  0  0
    1.0525   -0.8797    1.9780 H   0  0  0  0  0  0  0  0  0  0  0  0
   -0.9107    0.4686    2.5319 H   0  0  0  0  0  0  0  0  0  0  0  0
  1 11  1  0  0  0  0
  2 12  1  6  0  0  0
  2  1  1  0  0  0  0
  2  8  1  0  0  0  0
  3  4  1  0  0  0  0
  3  2  1  0  0  0  0
  4  7  2  0  0  0  0
  5 15  1  0  0  0  0
  5  4  1  0  0  0  0
  6  5  2  0  0  0  0
  7  8  1  0  0  0  0
  7 16  1  0  0  0  0
  8 17  1  0  0  0  0
  9  1  1  0  0  0  0
 10  1  1  0  0  0  0
 13  3  1  0  0  0  0
 14  3  1  0  0  0  0
M  END
