title
 OpenBabel02282109593D

 18 18  0  0  1  0  0  0  0  0999 V2000
   -1.1146    2.6364   -0.6031 C   0  0  0  0  0  0  0  0  0  0  0  0
   -0.9950    1.1139   -0.6119 C   0  0  1  0  0  0  0  0  0  0  0  0
   -0.1565    0.5396   -1.7895 C   0  0  0  0  0  0  0  0  0  0  0  0
    0.4742   -0.6921   -1.2005 C   0  0  0  0  0  0  0  0  0  0  0  0
    0.3746   -0.7141    0.1375 C   0  0  0  0  0  0  0  0  0  0  0  0
   -0.3432    0.5087    0.6616 C   0  0  0  0  0  0  0  0  0  0  0  0
    0.9281   -1.7683    0.9880 C   0  0  0  0  0  0  0  0  0  0  0  0
    0.8675   -1.7725    2.1986 O   0  0  0  0  0  0  0  0  0  0  0  0
   -0.1280    3.1067   -0.5189 H   0  0  0  0  0  0  0  0  0  0  0  0
   -1.5835    3.0061   -1.5213 H   0  0  0  0  0  0  0  0  0  0  0  0
   -1.7203    2.9815    0.2412 H   0  0  0  0  0  0  0  0  0  0  0  0
   -2.0014    0.6855   -0.6970 H   0  0  0  0  0  0  0  0  0  0  0  0
   -0.7572    0.3319   -2.6821 H   0  0  0  0  0  0  0  0  0  0  0  0
    0.6271    1.2448   -2.1080 H   0  0  0  0  0  0  0  0  0  0  0  0
    0.9789   -1.4491   -1.7932 H   0  0  0  0  0  0  0  0  0  0  0  0
    0.3776    1.2034    1.1151 H   0  0  0  0  0  0  0  0  0  0  0  0
   -1.0687    0.2676    1.4437 H   0  0  0  0  0  0  0  0  0  0  0  0
    1.4238   -2.5976    0.4340 H   0  0  0  0  0  0  0  0  0  0  0  0
  1  9  1  0  0  0  0
  1 11  1  0  0  0  0
  2 12  1  6  0  0  0
  2  1  1  0  0  0  0
  2  6  1  0  0  0  0
  3  4  1  0  0  0  0
  3  2  1  0  0  0  0
  4  5  2  0  0  0  0
  5  6  1  0  0  0  0
  5  7  1  0  0  0  0
  6 16  1  0  0  0  0
  6 17  1  0  0  0  0
  7  8  2  0  0  0  0
 10  1  1  0  0  0  0
 13  3  1  0  0  0  0
 14  3  1  0  0  0  0
 15  4  1  0  0  0  0
 18  7  1  0  0  0  0
M  END
