title
 OpenBabel02282109593D

 15 15  0  0  1  0  0  0  0  0999 V2000
   -1.5241    2.2928   -0.4953 C   0  0  0  0  0  0  0  0  0  0  0  0
   -1.2899    0.7872   -0.4571 C   0  0  1  0  0  0  0  0  0  0  0  0
   -0.5000    0.2246   -1.6758 C   0  0  0  0  0  0  0  0  0  0  0  0
    0.3365   -0.7988   -1.0318 N   0  0  0  0  0  0  0  0  0  0  0  0
    0.3526   -0.4631    0.3156 C   0  0  1  0  0  0  0  0  0  0  0  0
   -0.5100    0.3826    0.7342 N   0  0  0  0  0  0  0  0  0  0  0  0
    1.3013   -1.1130    1.1809 C   0  0  0  0  0  0  0  0  0  0  0  0
    2.0887   -1.6432    1.8397 N   0  0  0  0  0  0  0  0  0  0  0  0
   -0.5721    2.8306   -0.5466 H   0  0  0  0  0  0  0  0  0  0  0  0
   -2.1244    2.5688   -1.3685 H   0  0  0  0  0  0  0  0  0  0  0  0
   -2.0515    2.6188    0.4045 H   0  0  0  0  0  0  0  0  0  0  0  0
   -2.2607    0.2773   -0.3839 H   0  0  0  0  0  0  0  0  0  0  0  0
   -1.1461   -0.2145   -2.4390 H   0  0  0  0  0  0  0  0  0  0  0  0
    0.1149    1.0061   -2.1450 H   0  0  0  0  0  0  0  0  0  0  0  0
    1.2083   -1.0669   -1.4658 H   0  0  0  0  0  0  0  0  0  0  0  0
  1  2  1  0  0  0  0
  1 11  1  0  0  0  0
  2 12  1  1  0  0  0
  2  6  1  0  0  0  0
  3  4  1  0  0  0  0
  3  2  1  0  0  0  0
  4  5  1  0  0  0  0
  5  6  1  0  0  0  0
  5  7  1  1  0  0  0
  7  8  3  0  0  0  0
  9  1  1  0  0  0  0
 10  1  1  0  0  0  0
 13  3  1  0  0  0  0
 14  3  1  0  0  0  0
 15  4  1  0  0  0  0
M  RAD  2   5   2   6   2
M  END
