15
title
C -1.0833057 2.4890382 -0.54328686
C -1.2184855 0.9709152 -0.42425314
O -0.6030202 0.33515638 -1.5504974
C 0.3025831 -0.67574227 -1.1381178
C 0.3454318 -0.55611074 0.3722247
C -0.5274594 0.37250197 0.76870674
C 1.190463 -1.3503488 1.1883391
N 1.894255 -2.0157094 1.823756
H -0.030401813 2.7837284 -0.52821416
H -1.5266837 2.8248317 -1.4842509
H -1.6032083 2.9879756 0.28078604
H -2.2914135 0.7120517 -0.4062851
H -0.049380407 -1.670575 -1.4513934
H 1.2863985 -0.51159227 -1.5981488
H -0.7306903 0.66632015 1.7899365
