title
 OpenBabel02282109593D

 15 15  0  0  1  0  0  0  0  0999 V2000
   -1.2020    2.4120   -0.4299 C   0  0  0  0  0  0  0  0  0  0  0  0
   -1.2455    0.8849   -0.4583 C   0  0  1  0  0  0  0  0  0  0  0  0
   -0.4624    0.2507   -1.6425 C   0  0  0  0  0  0  0  0  0  0  0  0
    0.4809   -0.6442   -1.0137 O   0  0  0  0  0  0  0  0  0  0  0  0
    0.2936   -0.4852    0.3278 C   0  0  0  0  0  0  0  0  0  0  0  0
   -0.6104    0.3101    0.7412 N   0  0  0  0  0  0  0  0  0  0  0  0
    1.1582   -1.2556    1.1580 C   0  0  0  0  0  0  0  0  0  0  0  0
    1.8914   -1.9081    1.8504 C   0  0  0  0  0  0  0  0  0  0  0  0
   -0.1665    2.7672   -0.4097 H   0  0  0  0  0  0  0  0  0  0  0  0
   -1.6934    2.8291   -1.3153 H   0  0  0  0  0  0  0  0  0  0  0  0
   -1.7103    2.7908    0.4602 H   0  0  0  0  0  0  0  0  0  0  0  0
   -2.2943    0.5631   -0.4692 H   0  0  0  0  0  0  0  0  0  0  0  0
   -1.0866   -0.3345   -2.3224 H   0  0  0  0  0  0  0  0  0  0  0  0
    0.1018    0.9895   -2.2216 H   0  0  0  0  0  0  0  0  0  0  0  0
    2.5354   -2.4820    2.4706 H   0  0  0  0  0  0  0  0  0  0  0  0
  1  9  1  0  0  0  0
  1 11  1  0  0  0  0
  2 12  1  6  0  0  0
  2  1  1  0  0  0  0
  2  6  1  0  0  0  0
  3  4  1  0  0  0  0
  3  2  1  0  0  0  0
  4  5  1  0  0  0  0
  5  6  2  0  0  0  0
  5  7  1  0  0  0  0
  7  8  3  0  0  0  0
  8 15  1  0  0  0  0
 10  1  1  0  0  0  0
 13  3  1  0  0  0  0
 14  3  1  0  0  0  0
M  END
