16
title
O 0.54783875 2.3470504 -0.09792903
C 1.0704734 1.1330525 -0.62215984
C 1.8449123 0.33108547 0.46387288
C 0.81573117 -0.62836516 0.9930827
C -0.2688041 -0.67999923 0.20609787
C -0.14445485 0.2481943 -0.9789585
C -1.421343 -1.5505611 0.4434305
O -2.3829124 -1.6242303 -0.29010803
H 1.2885033 2.914509 0.1386542
H 1.7007202 1.3361498 -1.4981077
H 2.696628 -0.21587655 0.0346404
H 2.2565517 0.99254775 1.2358576
H 0.9551006 -1.2195333 1.892652
H -1.0338708 0.86370385 -1.1354219
H 0.020653466 -0.31905422 -1.9023845
H -1.3562101 -2.1626341 1.371269
