title
 OpenBabel02282109593D

 15 15  0  0  1  0  0  0  0  0999 V2000
   -1.0833    2.4890   -0.5433 C   0  0  0  0  0  0  0  0  0  0  0  0
   -1.2185    0.9709   -0.4243 C   0  0  1  0  0  0  0  0  0  0  0  0
   -0.6030    0.3352   -1.5505 O   0  0  0  0  0  0  0  0  0  0  0  0
    0.3026   -0.6757   -1.1381 C   0  0  0  0  0  0  0  0  0  0  0  0
    0.3454   -0.5561    0.3722 C   0  0  0  0  0  0  0  0  0  0  0  0
   -0.5275    0.3725    0.7687 C   0  0  0  0  0  0  0  0  0  0  0  0
    1.1905   -1.3503    1.1883 C   0  0  0  0  0  0  0  0  0  0  0  0
    1.8943   -2.0157    1.8238 N   0  0  0  0  0  0  0  0  0  0  0  0
   -0.0304    2.7837   -0.5282 H   0  0  0  0  0  0  0  0  0  0  0  0
   -1.5267    2.8248   -1.4843 H   0  0  0  0  0  0  0  0  0  0  0  0
   -1.6032    2.9880    0.2808 H   0  0  0  0  0  0  0  0  0  0  0  0
   -2.2914    0.7121   -0.4063 H   0  0  0  0  0  0  0  0  0  0  0  0
   -0.0494   -1.6706   -1.4514 H   0  0  0  0  0  0  0  0  0  0  0  0
    1.2864   -0.5116   -1.5981 H   0  0  0  0  0  0  0  0  0  0  0  0
   -0.7307    0.6663    1.7899 H   0  0  0  0  0  0  0  0  0  0  0  0
  1  9  1  0  0  0  0
  1  2  1  0  0  0  0
  1 11  1  0  0  0  0
  2 12  1  1  0  0  0
  2  6  1  0  0  0  0
  3  4  1  0  0  0  0
  3  2  1  0  0  0  0
  4  5  1  0  0  0  0
  5  6  2  0  0  0  0
  5  7  1  0  0  0  0
  6 15  1  0  0  0  0
  7  8  3  0  0  0  0
 10  1  1  0  0  0  0
 13  4  1  0  0  0  0
 14  4  1  0  0  0  0
M  END
