title
 OpenBabel02282109593D

 16 16  0  0  1  0  0  0  0  0999 V2000
   -1.0855    2.4735   -0.5566 C   0  0  0  0  0  0  0  0  0  0  0  0
   -1.2196    0.9561   -0.4207 C   0  0  1  0  0  0  0  0  0  0  0  0
   -0.6022    0.3111   -1.5412 O   0  0  0  0  0  0  0  0  0  0  0  0
    0.3148   -0.6825   -1.1110 C   0  0  0  0  0  0  0  0  0  0  0  0
    0.3550   -0.5595    0.4003 C   0  0  0  0  0  0  0  0  0  0  0  0
   -0.5294    0.3691    0.7783 C   0  0  0  0  0  0  0  0  0  0  0  0
    1.2070   -1.3492    1.2033 C   0  0  0  0  0  0  0  0  0  0  0  0
    1.9542   -2.0476    1.8403 C   0  0  0  0  0  0  0  0  0  0  0  0
   -0.0324    2.7680   -0.5424 H   0  0  0  0  0  0  0  0  0  0  0  0
   -1.5278    2.8024   -1.5010 H   0  0  0  0  0  0  0  0  0  0  0  0
   -1.6053    2.9811    0.2626 H   0  0  0  0  0  0  0  0  0  0  0  0
   -2.2937    0.6999   -0.4092 H   0  0  0  0  0  0  0  0  0  0  0  0
   -0.0209   -1.6844   -1.4213 H   0  0  0  0  0  0  0  0  0  0  0  0
    1.2998   -0.5096   -1.5669 H   0  0  0  0  0  0  0  0  0  0  0  0
   -0.7416    0.6715    1.7952 H   0  0  0  0  0  0  0  0  0  0  0  0
    2.6061   -2.6562    2.4168 H   0  0  0  0  0  0  0  0  0  0  0  0
  1  9  1  0  0  0  0
  1  2  1  0  0  0  0
  1 11  1  0  0  0  0
  2 12  1  1  0  0  0
  2  6  1  0  0  0  0
  3  4  1  0  0  0  0
  3  2  1  0  0  0  0
  4  5  1  0  0  0  0
  5  6  2  0  0  0  0
  5  7  1  0  0  0  0
  6 15  1  0  0  0  0
  7  8  3  0  0  0  0
  8 16  1  0  0  0  0
 10  1  1  0  0  0  0
 13  4  1  0  0  0  0
 14  4  1  0  0  0  0
M  END
