19
title
C -0.9663312 2.7419775 -0.46634302
C -0.77198267 1.2270857 -0.46049336
C 0.054604754 0.6729446 -1.6342041
C 0.40584204 -0.7495574 -1.1845477
C 0.7531556 -0.5787759 0.32439673
C -0.034180716 0.69472635 0.7924201
C 0.4586868 -1.7698691 1.1144966
N 0.21406339 -2.713524 1.7365524
H -0.0010811841 3.2610574 -0.43595415
H -1.4942691 3.0705574 -1.3675754
H -1.5495535 3.0734522 0.39911264
H -1.7601991 0.7493514 -0.5007988
H -0.4852256 0.6953822 -2.585218
H 0.9683262 1.2693827 -1.761827
H -0.4666835 -1.4022839 -1.2885455
H 1.226267 -1.2064507 -1.7425537
H 1.827228 -0.389068 0.42086035
H 0.67490613 1.4412979 1.1636982
H -0.72028977 0.47038364 1.6115628
