18
title
C -0.045957297 2.8725197 0.14049533
C -0.3933997 1.4141164 0.38085303
C -0.3662795 0.5084581 -0.87992996
C 0.42949107 -0.7531615 -0.42266172
C 0.4997708 -0.5465775 1.1132084
O 0.56542635 0.8520042 1.2783283
C -0.14735696 -2.0253382 -0.822977
C -0.63502777 -3.0790944 -1.1356099
H 0.94051504 2.9573588 -0.32616162
H -0.7850483 3.3376558 -0.51897174
H -0.030001553 3.4245875 1.0842957
H -1.390747 1.3454741 0.8461127
H -1.3738954 0.24418856 -1.2058153
H 0.1373255 1.0012983 -1.7154912
H 1.4501562 -0.6855474 -0.81448466
H -0.39924642 -0.9696627 1.589265
H 1.3848839 -0.9939919 1.5703989
H -1.0588415 -4.01115 -1.4165069
