title
 OpenBabel02282109593D

 17 17  0  0  1  0  0  0  0  0999 V2000
   -0.2886    2.8622    0.2575 C   0  0  0  0  0  0  0  0  0  0  0  0
   -0.4762    1.3621    0.3864 C   0  0  1  0  0  0  0  0  0  0  0  0
   -0.2370    0.5511   -0.9126 C   0  0  0  0  0  0  0  0  0  0  0  0
    0.5310   -0.7154   -0.4214 C   0  0  1  0  0  0  0  0  0  0  0  0
    0.5142   -0.5426    1.1263 C   0  0  0  0  0  0  0  0  0  0  0  0
    0.4722    0.8500    1.3226 O   0  0  0  0  0  0  0  0  0  0  0  0
   -0.0452   -1.9782   -0.8644 C   0  0  0  0  0  0  0  0  0  0  0  0
   -0.5083   -2.9828   -1.2005 N   0  0  0  0  0  0  0  0  0  0  0  0
    0.7190    3.0910   -0.1031 H   0  0  0  0  0  0  0  0  0  0  0  0
   -1.0150    3.2776   -0.4474 H   0  0  0  0  0  0  0  0  0  0  0  0
   -0.4291    3.3510    1.2252 H   0  0  0  0  0  0  0  0  0  0  0  0
   -1.4910    1.1447    0.7587 H   0  0  0  0  0  0  0  0  0  0  0  0
   -1.1729    0.2947   -1.4117 H   0  0  0  0  0  0  0  0  0  0  0  0
    0.3785    1.1132   -1.6189 H   0  0  0  0  0  0  0  0  0  0  0  0
    1.5663   -0.6756   -0.7711 H   0  0  0  0  0  0  0  0  0  0  0  0
   -0.3730   -1.0390    1.5489 H   0  0  0  0  0  0  0  0  0  0  0  0
    1.4073   -0.9401    1.6118 H   0  0  0  0  0  0  0  0  0  0  0  0
  1  2  1  0  0  0  0
  1 11  1  0  0  0  0
  2 12  1  1  0  0  0
  2  6  1  0  0  0  0
  3  4  1  0  0  0  0
  3  2  1  0  0  0  0
  4 15  1  6  0  0  0
  4  5  1  0  0  0  0
  5  6  1  0  0  0  0
  5 16  1  0  0  0  0
  5 17  1  0  0  0  0
  7  4  1  0  0  0  0
  8  7  3  0  0  0  0
  9  1  1  0  0  0  0
 10  1  1  0  0  0  0
 13  3  1  0  0  0  0
 14  3  1  0  0  0  0
M  END
