title
 OpenBabel02282109593D

 17 17  0  0  1  0  0  0  0  0999 V2000
   -1.0483    2.5597   -0.4585 C   0  0  0  0  0  0  0  0  0  0  0  0
   -0.6655    1.0912   -0.2937 C   0  0  1  0  0  0  0  0  0  0  0  0
    0.1091    0.5046   -1.4844 C   0  0  0  0  0  0  0  0  0  0  0  0
    0.9442   -0.5454   -0.9723 O   0  0  0  0  0  0  0  0  0  0  0  0
    0.8852   -0.5652    0.4464 C   0  0  1  0  0  0  0  0  0  0  0  0
    0.2985    0.7939    0.8671 C   0  0  0  0  0  0  0  0  0  0  0  0
    0.0457   -1.6923    0.9129 C   0  0  0  0  0  0  0  0  0  0  0  0
   -0.6132   -2.5664    1.2834 N   0  0  0  0  0  0  0  0  0  0  0  0
   -0.1585    3.1857   -0.5903 H   0  0  0  0  0  0  0  0  0  0  0  0
   -1.6921    2.7043   -1.3321 H   0  0  0  0  0  0  0  0  0  0  0  0
   -1.5923    2.9271    0.4169 H   0  0  0  0  0  0  0  0  0  0  0  0
   -1.5745    0.4962   -0.1427 H   0  0  0  0  0  0  0  0  0  0  0  0
   -0.5464    0.0883   -2.2559 H   0  0  0  0  0  0  0  0  0  0  0  0
    0.7516    1.2646   -1.9510 H   0  0  0  0  0  0  0  0  0  0  0  0
    1.8980   -0.7236    0.8321 H   0  0  0  0  0  0  0  0  0  0  0  0
    1.1057    1.5337    0.8965 H   0  0  0  0  0  0  0  0  0  0  0  0
   -0.1841    0.7664    1.8457 H   0  0  0  0  0  0  0  0  0  0  0  0
  1  2  1  0  0  0  0
  1 11  1  0  0  0  0
  2 12  1  1  0  0  0
  2  6  1  0  0  0  0
  3  4  1  0  0  0  0
  3  2  1  0  0  0  0
  4  5  1  0  0  0  0
  5 15  1  1  0  0  0
  5  6  1  0  0  0  0
  5  7  1  0  0  0  0
  6 16  1  0  0  0  0
  6 17  1  0  0  0  0
  7  8  3  0  0  0  0
  9  1  1  0  0  0  0
 10  1  1  0  0  0  0
 13  3  1  0  0  0  0
 14  3  1  0  0  0  0
M  END
