20
title
C -0.7617836 2.807309 -0.4519102
C -0.7317155 1.2800097 -0.48376793
C 0.11151604 0.675866 -1.6231378
C 0.34617525 -0.76779544 -1.1689606
C 0.67244226 -0.616722 0.34244603
C -0.15588517 0.6319329 0.8050202
C 0.42995948 -1.8202718 1.1237038
C 0.21404903 -2.8161666 1.7627964
H 0.24814646 3.215546 -0.32629454
H -1.1744874 3.217344 -1.380051
H -1.3749487 3.1785157 0.3762495
H -1.7604915 0.91853094 -0.61311126
H -0.37979466 0.74710447 -2.5982668
H 1.0700741 1.2074622 -1.7013553
H -0.5705027 -1.3558971 -1.2872789
H 1.1416669 -1.2846462 -1.711854
H 1.7376741 -0.36767343 0.42689466
H 0.49423176 1.333316 1.3377916
H -0.94765717 0.34232935 1.4993495
H 0.029516147 -3.6946437 2.3294692
