title
 OpenBabel02282109593D

 17 17  0  0  1  0  0  0  0  0999 V2000
   -0.8938    2.5496   -0.4110 C   0  0  0  0  0  0  0  0  0  0  0  0
   -0.6520    1.0524   -0.4166 C   0  0  1  0  0  0  0  0  0  0  0  0
   -0.0285    0.4717   -1.6911 C   0  0  0  0  0  0  0  0  0  0  0  0
    0.6465   -0.8194   -1.1898 C   0  0  0  0  0  0  0  0  0  0  0  0
    0.8411   -0.5446    0.3366 C   0  0  1  0  0  0  0  0  0  0  0  0
    0.3144    0.7434    0.5999 O   0  0  0  0  0  0  0  0  0  0  0  0
    0.1688   -1.5671    1.1657 C   0  0  0  0  0  0  0  0  0  0  0  0
   -0.3574   -2.3699    1.8094 N   0  0  0  0  0  0  0  0  0  0  0  0
    0.0360    3.0880   -0.6180 H   0  0  0  0  0  0  0  0  0  0  0  0
   -1.6310    2.8165   -1.1741 H   0  0  0  0  0  0  0  0  0  0  0  0
   -1.2729    2.8750    0.5613 H   0  0  0  0  0  0  0  0  0  0  0  0
   -1.5913    0.5217   -0.1903 H   0  0  0  0  0  0  0  0  0  0  0  0
   -0.7656    0.2827   -2.4749 H   0  0  0  0  0  0  0  0  0  0  0  0
    0.7150    1.1732   -2.0830 H   0  0  0  0  0  0  0  0  0  0  0  0
    0.0085   -1.6918   -1.3429 H   0  0  0  0  0  0  0  0  0  0  0  0
    1.6023   -1.0166   -1.6778 H   0  0  0  0  0  0  0  0  0  0  0  0
    1.8981   -0.5308    0.6208 H   0  0  0  0  0  0  0  0  0  0  0  0
  1 11  1  0  0  0  0
  2  1  1  0  0  0  0
  2 12  1  1  0  0  0
  2  6  1  0  0  0  0
  3  4  1  0  0  0  0
  3  2  1  0  0  0  0
  4  5  1  0  0  0  0
  5  6  1  0  0  0  0
  5 17  1  1  0  0  0
  5  7  1  0  0  0  0
  7  8  3  0  0  0  0
  9  1  1  0  0  0  0
 10  1  1  0  0  0  0
 13  3  1  0  0  0  0
 14  3  1  0  0  0  0
 15  4  1  0  0  0  0
 16  4  1  0  0  0  0
M  END
