18
title
C -1.1589168 2.4990597 -0.44981658
C -0.7087634 1.0501189 -0.28335127
C 0.091455564 0.49783596 -1.4748232
O 0.98102164 -0.5003274 -0.96651345
C 0.9040959 -0.54604656 0.46255904
C 0.26810572 0.7950575 0.87514615
C 0.12151806 -1.7030655 0.9151598
C -0.5219197 -2.6460066 1.292153
H -0.29858097 3.1653185 -0.58130926
H -1.8079774 2.6153483 -1.3243045
H -1.7196583 2.8434908 0.42483866
H -1.5884047 0.4132944 -0.13100873
H -0.54987967 0.050265398 -2.2425883
H 0.68597615 1.2927213 -1.9496281
H 1.9285218 -0.6439739 0.84015167
H 1.0428512 1.570016 0.8980651
H -0.21185662 0.7524304 1.854441
H -1.0833902 -3.485619 1.6202894
