title
 OpenBabel02282109593D

 18 18  0  0  1  0  0  0  0  0999 V2000
   -0.0460    2.8725    0.1405 C   0  0  0  0  0  0  0  0  0  0  0  0
   -0.3934    1.4141    0.3809 C   0  0  1  0  0  0  0  0  0  0  0  0
   -0.3663    0.5085   -0.8799 C   0  0  0  0  0  0  0  0  0  0  0  0
    0.4295   -0.7532   -0.4227 C   0  0  1  0  0  0  0  0  0  0  0  0
    0.4998   -0.5466    1.1132 C   0  0  0  0  0  0  0  0  0  0  0  0
    0.5654    0.8520    1.2783 O   0  0  0  0  0  0  0  0  0  0  0  0
   -0.1474   -2.0253   -0.8230 C   0  0  0  0  0  0  0  0  0  0  0  0
   -0.6350   -3.0791   -1.1356 C   0  0  0  0  0  0  0  0  0  0  0  0
    0.9405    2.9574   -0.3262 H   0  0  0  0  0  0  0  0  0  0  0  0
   -0.7850    3.3377   -0.5190 H   0  0  0  0  0  0  0  0  0  0  0  0
   -0.0300    3.4246    1.0843 H   0  0  0  0  0  0  0  0  0  0  0  0
   -1.3907    1.3455    0.8461 H   0  0  0  0  0  0  0  0  0  0  0  0
   -1.3739    0.2442   -1.2058 H   0  0  0  0  0  0  0  0  0  0  0  0
    0.1373    1.0013   -1.7155 H   0  0  0  0  0  0  0  0  0  0  0  0
    1.4502   -0.6855   -0.8145 H   0  0  0  0  0  0  0  0  0  0  0  0
   -0.3992   -0.9697    1.5893 H   0  0  0  0  0  0  0  0  0  0  0  0
    1.3849   -0.9940    1.5704 H   0  0  0  0  0  0  0  0  0  0  0  0
   -1.0588   -4.0111   -1.4165 H   0  0  0  0  0  0  0  0  0  0  0  0
  1  2  1  0  0  0  0
  1 11  1  0  0  0  0
  2 12  1  1  0  0  0
  2  6  1  0  0  0  0
  3  4  1  0  0  0  0
  3  2  1  0  0  0  0
  4 15  1  6  0  0  0
  4  5  1  0  0  0  0
  5  6  1  0  0  0  0
  5 17  1  0  0  0  0
  5 16  1  0  0  0  0
  7  4  1  0  0  0  0
  8  7  3  0  0  0  0
  9  1  1  0  0  0  0
 10  1  1  0  0  0  0
 13  3  1  0  0  0  0
 14  3  1  0  0  0  0
 18  8  1  0  0  0  0
M  END
