17
title
C -0.89383876 2.5496035 -0.41096047
C -0.65204304 1.0524352 -0.4165658
C -0.028538458 0.4716657 -1.6910946
C 0.6465445 -0.81938285 -1.1897542
C 0.8411154 -0.5446331 0.3366153
O 0.31438488 0.74343723 0.5998933
C 0.16877526 -1.5671301 1.1657195
N -0.35738584 -2.3699265 1.8094472
H 0.035985358 3.0880165 -0.6180086
H -1.6310282 2.8165028 -1.174132
H -1.2729102 2.8750167 0.5612703
H -1.5912911 0.52172637 -0.19026437
H -0.76563805 0.28266743 -2.474862
H 0.7150087 1.1732007 -2.083002
H 0.008482105 -1.6918125 -1.3429011
H 1.602274 -1.0165739 -1.677776
H 1.8981051 -0.5308474 0.620838
