16
title
C -0.9892938 2.473092 -0.37786138
C -0.7037819 0.98830914 -0.26689994
C -0.08840175 0.33135027 -1.5212544
O 0.921065 -0.5449309 -1.0193775
C 0.881189 -0.47244292 0.3962466
O 0.30988666 0.76905817 0.7203246
C 0.11821334 -1.6012167 0.9656401
C -0.49135506 -2.5215735 1.4401624
H -0.07989968 3.0179353 -0.6479122
H -1.7491832 2.6565266 -1.1440165
H -1.3612036 2.8652298 0.57227576
H -1.6130857 0.44465643 0.027428972
H -0.8289678 -0.2319631 -2.099344
H 0.38651976 1.0719312 -2.1759932
H 1.9086795 -0.48237973 0.7748323
H -1.0267724 -3.3371825 1.8605342
