title
 OpenBabel02282109593D

 15 15  0  0  1  0  0  0  0  0999 V2000
   -0.7201    2.5970   -0.4666 C   0  0  0  0  0  0  0  0  0  0  0  0
   -0.6169    1.0924   -0.4432 C   0  0  1  0  0  0  0  0  0  0  0  0
    0.1557    0.6212   -1.5230 O   0  0  0  0  0  0  0  0  0  0  0  0
    0.5706   -0.6734   -1.1458 C   0  0  0  0  0  0  0  0  0  0  0  0
    0.7328   -0.5521    0.4057 C   0  0  1  0  0  0  0  0  0  0  0  0
    0.0799    0.6636    0.7283 O   0  0  0  0  0  0  0  0  0  0  0  0
    0.1429   -1.6965    1.1191 C   0  0  0  0  0  0  0  0  0  0  0  0
   -0.3089   -2.6077    1.6672 N   0  0  0  0  0  0  0  0  0  0  0  0
    0.2803    3.0354   -0.4585 H   0  0  0  0  0  0  0  0  0  0  0  0
   -1.2487    2.9175   -1.3676 H   0  0  0  0  0  0  0  0  0  0  0  0
   -1.2736    2.9437    0.4090 H   0  0  0  0  0  0  0  0  0  0  0  0
   -1.6124    0.6134   -0.4601 H   0  0  0  0  0  0  0  0  0  0  0  0
   -0.1838   -1.4310   -1.3964 H   0  0  0  0  0  0  0  0  0  0  0  0
    1.5069   -0.9106   -1.6528 H   0  0  0  0  0  0  0  0  0  0  0  0
    1.7845   -0.4688    0.6992 H   0  0  0  0  0  0  0  0  0  0  0  0
  1  9  1  0  0  0  0
  1  2  1  0  0  0  0
  1 11  1  0  0  0  0
  2 12  1  6  0  0  0
  2  6  1  0  0  0  0
  3  4  1  0  0  0  0
  3  2  1  0  0  0  0
  4  5  1  0  0  0  0
  5 15  1  1  0  0  0
  5  6  1  0  0  0  0
  5  7  1  0  0  0  0
  7  8  3  0  0  0  0
 10  1  1  0  0  0  0
 13  4  1  0  0  0  0
 14  4  1  0  0  0  0
M  END
