title
 OpenBabel02282109593D

 16 16  0  0  1  0  0  0  0  0999 V2000
   -0.1229    2.4056   -0.3137 O   0  0  0  0  0  0  0  0  0  0  0  0
    0.5985    1.2992   -0.8391 C   0  0  1  0  0  0  0  0  0  0  0  0
    1.5253    0.6521    0.1957 C   0  0  0  0  0  0  0  0  0  0  0  0
    0.7162   -0.2021    0.9941 O   0  0  0  0  0  0  0  0  0  0  0  0
   -0.5526   -0.4176    0.3506 C   0  0  1  0  0  0  0  0  0  0  0  0
   -0.4125    0.1782   -1.0684 C   0  0  0  0  0  0  0  0  0  0  0  0
   -0.8987   -1.8346    0.3618 C   0  0  0  0  0  0  0  0  0  0  0  0
   -1.2030   -2.9969    0.3568 C   0  0  0  0  0  0  0  0  0  0  0  0
    0.5094    3.0497    0.0200 H   0  0  0  0  0  0  0  0  0  0  0  0
    1.1382    1.5770   -1.7552 H   0  0  0  0  0  0  0  0  0  0  0  0
    2.3185    0.0754   -0.3046 H   0  0  0  0  0  0  0  0  0  0  0  0
    2.0046    1.3950    0.8458 H   0  0  0  0  0  0  0  0  0  0  0  0
   -1.3150    0.1439    0.9075 H   0  0  0  0  0  0  0  0  0  0  0  0
   -1.3587    0.5514   -1.4621 H   0  0  0  0  0  0  0  0  0  0  0  0
   -0.0073   -0.5695   -1.7546 H   0  0  0  0  0  0  0  0  0  0  0  0
   -1.4688   -4.0250    0.3626 H   0  0  0  0  0  0  0  0  0  0  0  0
  1  9  1  0  0  0  0
  2 10  1  6  0  0  0
  2  1  1  0  0  0  0
  2  3  1  0  0  0  0
  3 12  1  0  0  0  0
  3  4  1  0  0  0  0
  5  7  1  0  0  0  0
  5 13  1  1  0  0  0
  5  4  1  0  0  0  0
  6  2  1  0  0  0  0
  6  5  1  0  0  0  0
  8  7  3  0  0  0  0
  8 16  1  0  0  0  0
 11  3  1  0  0  0  0
 14  6  1  0  0  0  0
 15  6  1  0  0  0  0
M  END
