17
title
O 0.09955547 2.3487701 0.34634092
C 0.8337562 1.4089694 -0.43416458
C 1.7205697 0.4998728 0.44090363
C 0.80114305 -0.65220535 0.93210816
C -0.5590923 -0.43550062 0.19664522
C -0.19815364 0.44742107 -1.0230517
C -1.2367775 -1.6781218 -0.15180008
N -1.7638295 -2.668076 -0.43309534
H 0.7278379 2.902058 0.8207413
H 1.4110441 1.9243356 -1.2138938
H 2.5466936 0.10368276 -0.1579787
H 2.168159 1.062621 1.2659527
H 1.2217004 -1.6255486 0.66989183
H 0.6577195 -0.6462883 2.0141106
H -1.2245085 0.14475346 0.84225905
H -1.0610024 0.9693021 -1.4405307
H 0.25954798 -0.1592722 -1.8104687
