title
 OpenBabel02282109593D

 16 16  0  0  1  0  0  0  0  0999 V2000
   -0.9893    2.4731   -0.3779 C   0  0  0  0  0  0  0  0  0  0  0  0
   -0.7038    0.9883   -0.2669 C   0  0  1  0  0  0  0  0  0  0  0  0
   -0.0884    0.3314   -1.5213 C   0  0  0  0  0  0  0  0  0  0  0  0
    0.9211   -0.5449   -1.0194 O   0  0  0  0  0  0  0  0  0  0  0  0
    0.8812   -0.4724    0.3962 C   0  0  1  0  0  0  0  0  0  0  0  0
    0.3099    0.7691    0.7203 O   0  0  0  0  0  0  0  0  0  0  0  0
    0.1182   -1.6012    0.9656 C   0  0  0  0  0  0  0  0  0  0  0  0
   -0.4914   -2.5216    1.4402 C   0  0  0  0  0  0  0  0  0  0  0  0
   -0.0799    3.0179   -0.6479 H   0  0  0  0  0  0  0  0  0  0  0  0
   -1.7492    2.6565   -1.1440 H   0  0  0  0  0  0  0  0  0  0  0  0
   -1.3612    2.8652    0.5723 H   0  0  0  0  0  0  0  0  0  0  0  0
   -1.6131    0.4447    0.0274 H   0  0  0  0  0  0  0  0  0  0  0  0
   -0.8290   -0.2320   -2.0993 H   0  0  0  0  0  0  0  0  0  0  0  0
    0.3865    1.0719   -2.1760 H   0  0  0  0  0  0  0  0  0  0  0  0
    1.9087   -0.4824    0.7748 H   0  0  0  0  0  0  0  0  0  0  0  0
   -1.0268   -3.3372    1.8605 H   0  0  0  0  0  0  0  0  0  0  0  0
  1  2  1  0  0  0  0
  1 11  1  0  0  0  0
  2 12  1  1  0  0  0
  2  6  1  0  0  0  0
  3  4  1  0  0  0  0
  3  2  1  0  0  0  0
  4  5  1  0  0  0  0
  5  6  1  0  0  0  0
  5 15  1  1  0  0  0
  5  7  1  0  0  0  0
  7  8  3  0  0  0  0
  8 16  1  0  0  0  0
  9  1  1  0  0  0  0
 10  1  1  0  0  0  0
 13  3  1  0  0  0  0
 14  3  1  0  0  0  0
M  END
