15
title
C -0.88642466 2.5162268 -0.40233013
C -0.6609765 1.0227348 -0.28492388
C -0.07434853 0.33175042 -1.5329418
O 0.8897616 -0.5959141 -1.0175537
C 0.87026936 -0.48438254 0.38440228
O 0.35138062 0.768052 0.7049577
C 0.039299704 -1.5808076 0.97583103
N -0.59640807 -2.4262278 1.4399413
H 0.042375483 3.0232666 -0.6791663
H -1.6417121 2.7239258 -1.1663947
H -1.2396964 2.9264753 0.54692364
H -1.5871739 0.51633036 0.021298572
H -0.834524 -0.20176543 -2.1113796
H 0.4453924 1.0412742 -2.1863477
H 1.8895997 -0.56124103 0.7744484
