title
 OpenBabel02282109593D

 18 18  0  0  1  0  0  0  0  0999 V2000
    0.0892    1.8769   -1.0115 C   0  0  0  0  0  0  0  0  0  0  0  0
    0.6147    0.5525   -1.3441 N   0  0  0  0  0  0  0  0  0  0  0  0
   -0.4205   -0.3945   -1.7628 C   0  0  0  0  0  0  0  0  0  0  0  0
   -1.0331   -0.9785   -0.4637 C   0  0  0  0  0  0  0  0  0  0  0  0
    0.1581   -0.9406    0.5437 C   0  0  1  0  0  0  0  0  0  0  0  0
    1.2679   -0.1154   -0.2264 C   0  0  0  0  0  0  0  0  0  0  0  0
   -0.2025   -0.3461    1.8253 C   0  0  0  0  0  0  0  0  0  0  0  0
   -0.4811    0.1386    2.8382 N   0  0  0  0  0  0  0  0  0  0  0  0
    0.9151    2.5254   -0.7062 H   0  0  0  0  0  0  0  0  0  0  0  0
   -0.3669    2.3151   -1.9041 H   0  0  0  0  0  0  0  0  0  0  0  0
   -0.6625    1.8859   -0.2039 H   0  0  0  0  0  0  0  0  0  0  0  0
   -1.1593    0.0919   -2.4037 H   0  0  0  0  0  0  0  0  0  0  0  0
    0.0504   -1.1966   -2.3452 H   0  0  0  0  0  0  0  0  0  0  0  0
   -1.8522   -0.3527   -0.1035 H   0  0  0  0  0  0  0  0  0  0  0  0
   -1.4238   -1.9897   -0.5941 H   0  0  0  0  0  0  0  0  0  0  0  0
    0.5287   -1.9498    0.7447 H   0  0  0  0  0  0  0  0  0  0  0  0
    2.0057   -0.8280   -0.6114 H   0  0  0  0  0  0  0  0  0  0  0  0
    1.7869    0.5965    0.4169 H   0  0  0  0  0  0  0  0  0  0  0  0
  1  9  1  0  0  0  0
  1 11  1  0  0  0  0
  2  1  1  0  0  0  0
  2  6  1  0  0  0  0
  3  2  1  0  0  0  0
  3  4  1  0  0  0  0
  4 14  1  0  0  0  0
  4  5  1  0  0  0  0
  5 16  1  1  0  0  0
  5  7  1  0  0  0  0
  6 18  1  0  0  0  0
  6  5  1  0  0  0  0
  7  8  3  0  0  0  0
 10  1  1  0  0  0  0
 12  3  1  0  0  0  0
 13  3  1  0  0  0  0
 15  4  1  0  0  0  0
 17  6  1  0  0  0  0
M  END
