18
title
C 0.08921072 1.8768775 -1.0115072
N 0.6146804 0.5525106 -1.3440714
C -0.4204744 -0.39447165 -1.762831
C -1.0331143 -0.9784543 -0.46366462
C 0.15813133 -0.94058126 0.5437093
C 1.2678823 -0.11537474 -0.22636405
C -0.20252621 -0.3461154 1.8252716
N -0.48106903 0.13861597 2.8382287
H 0.91506636 2.525429 -0.70619607
H -0.36689252 2.3150787 -1.9040829
H -0.6624723 1.8858801 -0.20385996
H -1.159268 0.091870405 -2.4037027
H 0.050418764 -1.1966227 -2.3451538
H -1.8522469 -0.35268545 -0.10349812
H -1.4238205 -1.9896538 -0.594083
H 0.5287416 -1.9498208 0.7447381
H 2.0057275 -0.8280352 -0.6114038
H 1.7869111 0.5964846 0.41694757
