title
 OpenBabel02282109593D

 16 16  0  0  1  0  0  0  0  0999 V2000
   -0.7114    2.6036   -0.4340 C   0  0  0  0  0  0  0  0  0  0  0  0
   -0.6237    1.0961   -0.4355 C   0  0  1  0  0  0  0  0  0  0  0  0
    0.1704    0.6414   -1.5087 O   0  0  0  0  0  0  0  0  0  0  0  0
    0.5607   -0.6651   -1.1393 C   0  0  0  0  0  0  0  0  0  0  0  0
    0.7147   -0.5723    0.4111 C   0  0  1  0  0  0  0  0  0  0  0  0
    0.0265    0.6372    0.7426 O   0  0  0  0  0  0  0  0  0  0  0  0
    0.1751   -1.7341    1.1107 C   0  0  0  0  0  0  0  0  0  0  0  0
   -0.2586   -2.7033    1.6734 C   0  0  0  0  0  0  0  0  0  0  0  0
    0.2931    3.0303   -0.3856 H   0  0  0  0  0  0  0  0  0  0  0  0
   -1.2078    2.9489   -1.3444 H   0  0  0  0  0  0  0  0  0  0  0  0
   -1.2873    2.9404    0.4312 H   0  0  0  0  0  0  0  0  0  0  0  0
   -1.6264    0.6333   -0.4978 H   0  0  0  0  0  0  0  0  0  0  0  0
   -0.2080   -1.4050   -1.4011 H   0  0  0  0  0  0  0  0  0  0  0  0
    1.4937   -0.9144   -1.6474 H   0  0  0  0  0  0  0  0  0  0  0  0
    1.7665   -0.4369    0.6898 H   0  0  0  0  0  0  0  0  0  0  0  0
   -0.6410   -3.5555    2.1790 H   0  0  0  0  0  0  0  0  0  0  0  0
  1  9  1  0  0  0  0
  1 11  1  0  0  0  0
  2 12  1  6  0  0  0
  2  1  1  0  0  0  0
  2  6  1  0  0  0  0
  3  4  1  0  0  0  0
  3  2  1  0  0  0  0
  4  5  1  0  0  0  0
  5 15  1  1  0  0  0
  5  6  1  0  0  0  0
  5  7  1  0  0  0  0
  7  8  3  0  0  0  0
  8 16  1  0  0  0  0
 10  1  1  0  0  0  0
 13  4  1  0  0  0  0
 14  4  1  0  0  0  0
M  END
