title
 OpenBabel02282109593D

 19 19  0  0  1  0  0  0  0  0999 V2000
   -1.3507    2.7037   -0.3472 C   0  0  0  0  0  0  0  0  0  0  0  0
   -1.0665    1.2052   -0.3109 C   0  0  1  0  0  0  0  0  0  0  0  0
   -0.3095    0.6566   -1.5370 C   0  0  0  0  0  0  0  0  0  0  0  0
    0.2440   -0.6954   -1.0615 C   0  0  0  0  0  0  0  0  0  0  0  0
    0.3797   -0.5165    0.3883 N   0  0  0  0  0  0  0  0  0  0  0  0
   -0.1596    0.7602    0.8501 C   0  0  0  0  0  0  0  0  0  0  0  0
    0.8886   -1.4868    1.1821 C   0  0  0  0  0  0  0  0  0  0  0  0
    1.3073   -2.5563    0.7831 O   0  0  0  0  0  0  0  0  0  0  0  0
   -0.4211    3.2771   -0.4379 H   0  0  0  0  0  0  0  0  0  0  0  0
   -1.9869    2.9621   -1.1994 H   0  0  0  0  0  0  0  0  0  0  0  0
   -1.8627    3.0370    0.5616 H   0  0  0  0  0  0  0  0  0  0  0  0
   -2.0154    0.6599   -0.2221 H   0  0  0  0  0  0  0  0  0  0  0  0
   -0.9433    0.5609   -2.4219 H   0  0  0  0  0  0  0  0  0  0  0  0
    0.5137    1.3349   -1.7919 H   0  0  0  0  0  0  0  0  0  0  0  0
   -0.4440   -1.5232   -1.2716 H   0  0  0  0  0  0  0  0  0  0  0  0
    1.2065   -0.9561   -1.5105 H   0  0  0  0  0  0  0  0  0  0  0  0
    0.6398    1.4999    1.0105 H   0  0  0  0  0  0  0  0  0  0  0  0
   -0.6996    0.6427    1.7946 H   0  0  0  0  0  0  0  0  0  0  0  0
    0.8825   -1.2002    2.2537 H   0  0  0  0  0  0  0  0  0  0  0  0
  1  2  1  0  0  0  0
  1 11  1  0  0  0  0
  2 12  1  1  0  0  0
  2  6  1  0  0  0  0
  3  4  1  0  0  0  0
  3  2  1  0  0  0  0
  4  5  1  0  0  0  0
  5  6  1  0  0  0  0
  5  7  1  0  0  0  0
  6 17  1  0  0  0  0
  6 18  1  0  0  0  0
  7 19  1  0  0  0  0
  8  7  2  0  0  0  0
  9  1  1  0  0  0  0
 10  1  1  0  0  0  0
 13  3  1  0  0  0  0
 14  3  1  0  0  0  0
 15  4  1  0  0  0  0
 16  4  1  0  0  0  0
M  END
