18
title
C -0.6765961 2.6604655 0.7221587
C -0.91884595 1.23093 0.24203715
C 0.038694985 0.79204047 -0.89928406
C 0.80058634 -0.43758953 -0.33238187
C 0.56907606 -0.26882803 1.1838039
O -0.7238783 0.2897007 1.3054936
C 0.18944538 -1.7316597 -0.8208836
O 0.7637136 -2.5544887 -1.4868758
H 0.3606944 2.795462 1.0471164
H -0.87407255 3.3750978 -0.084062256
H -1.3341937 2.89743 1.5627667
H -1.9665082 1.126372 -0.06051991
H -0.50587726 0.5518906 -1.8166413
H 0.7476922 1.5871583 -1.1449237
H 1.8582253 -0.4379673 -0.6041352
H 0.57987475 -1.210844 1.7412406
H 1.344598 0.38691944 1.6100909
H -0.8708279 -1.879715 -0.5093825
