17
title
O 0.26831847 2.5407507 1.3217866
C 0.2668203 1.1513304 1.0746864
C -1.1730167 0.6262579 1.0316311
C -1.0717542 -0.6897261 0.24540424
N 0.14010942 -0.5163703 -0.56849974
C 0.8046494 0.75409395 -0.31597668
C 0.60620505 -1.5075719 -1.3650215
O 0.05434482 -2.5785167 -1.523402
H 1.1735883 2.82359 1.4833055
H 0.8348396 0.6111419 1.8474058
H -1.6066614 0.49581143 2.0245883
H -1.7803627 1.360828 0.49242502
H -0.9537226 -1.5629597 0.8967339
H -1.9424784 -0.87955904 -0.38869864
H 0.51160175 1.5321729 -1.0355325
H 1.8931382 0.6448511 -0.34975475
H 1.5591319 -1.2354743 -1.8627746
