19
title
C -1.3506755 2.7036557 -0.34718582
C -1.0664545 1.2051675 -0.31091774
C -0.3095347 0.6565816 -1.5369867
C 0.24400677 -0.6954114 -1.0615152
N 0.3797126 -0.5164582 0.38830027
C -0.15957461 0.7601554 0.85008407
C 0.8886372 -1.4867651 1.1820761
O 1.3072964 -2.5563242 0.78309786
H -0.4210936 3.2771482 -0.4379486
H -1.9869196 2.962146 -1.199428
H -1.8627468 3.0369534 0.5615555
H -2.0153918 0.65991455 -0.22207479
H -0.94325686 0.5608603 -2.4218905
H 0.51370716 1.3349446 -1.7918662
H -0.44400737 -1.5231936 -1.2715828
H 1.2064873 -0.9561077 -1.5105124
H 0.6397741 1.4999319 1.010476
H -0.6996174 0.6427024 1.7945638
H 0.8824738 -1.2001798 2.2536955
