title
 OpenBabel02282109593D

 16 16  0  0  1  0  0  0  0  0999 V2000
   -0.2906    2.6758   -0.1761 C   0  0  0  0  0  0  0  0  0  0  0  0
   -0.9502    1.3033   -0.2617 C   0  0  1  0  0  0  0  0  0  0  0  0
   -0.5561    0.4963   -1.5024 C   0  0  0  0  0  0  0  0  0  0  0  0
    0.6300   -0.1783   -1.0841 O   0  0  0  0  0  0  0  0  0  0  0  0
    0.5439   -0.3645    0.3146 C   0  0  1  0  0  0  0  0  0  0  0  0
   -0.5058    0.4436    0.8002 O   0  0  0  0  0  0  0  0  0  0  0  0
    0.1952   -1.8248    0.6179 C   0  0  0  0  0  0  0  0  0  0  0  0
    0.8785   -2.5537    1.2834 O   0  0  0  0  0  0  0  0  0  0  0  0
    0.7870    2.6003   -0.3517 H   0  0  0  0  0  0  0  0  0  0  0  0
   -0.7157    3.3525   -0.9248 H   0  0  0  0  0  0  0  0  0  0  0  0
   -0.4521    3.1111    0.8133 H   0  0  0  0  0  0  0  0  0  0  0  0
   -2.0361    1.3911   -0.1605 H   0  0  0  0  0  0  0  0  0  0  0  0
   -1.3398   -0.2188   -1.7853 H   0  0  0  0  0  0  0  0  0  0  0  0
   -0.3044    1.1133   -2.3683 H   0  0  0  0  0  0  0  0  0  0  0  0
    1.5107   -0.1124    0.7702 H   0  0  0  0  0  0  0  0  0  0  0  0
   -0.7591   -2.1559    0.1500 H   0  0  0  0  0  0  0  0  0  0  0  0
  1 11  1  0  0  0  0
  2  1  1  0  0  0  0
  2 12  1  1  0  0  0
  2  6  1  0  0  0  0
  3  4  1  0  0  0  0
  3  2  1  0  0  0  0
  4  5  1  0  0  0  0
  5  7  1  0  0  0  0
  5 15  1  1  0  0  0
  5  6  1  0  0  0  0
  7  8  2  0  0  0  0
  9  1  1  0  0  0  0
 10  1  1  0  0  0  0
 13  3  1  0  0  0  0
 14  3  1  0  0  0  0
 16  7  1  0  0  0  0
M  END
