18
title
O 0.81226456 2.6858256 -0.5105496
C 0.8954514 1.2716602 -0.47396544
C 1.4521512 0.6859752 0.8348184
C 0.888073 -0.7385394 0.8467395
C -0.5755221 -0.5621771 0.34952134
C -0.52841073 0.683461 -0.5841955
C -1.0653266 -1.7985725 -0.36388463
O -1.9545354 -2.5188186 0.0075259167
H 1.7071028 3.039746 -0.5033923
H 1.5075809 0.90687513 -1.3145562
H 2.5448277 0.71930856 0.8928979
H 1.0493999 1.2678298 1.672521
H 1.4489167 -1.3677626 0.14220119
H 0.9350673 -1.2274492 1.8224019
H -1.2395324 -0.38822538 1.1997035
H -1.244876 1.4402354 -0.25573814
H -0.77840215 0.43424058 -1.620422
H -0.507003 -2.0158584 -1.3086603
