16
title
C -0.6895676 2.4892972 -0.5027703
C -0.54055554 0.9920566 -0.38918296
O -0.00090842927 0.45394084 -1.5834738
C 0.62584984 -0.76348335 -1.2342873
C 0.8913405 -0.6165493 0.3063716
O 0.39739835 0.6606268 0.62211853
C 0.19897372 -1.7319604 1.0771692
O -0.79229665 -1.593465 1.7411705
H 0.28113276 2.940003 -0.7221826
H -1.3904176 2.7329514 -1.3048329
H -1.0732961 2.8952858 0.43613854
H -1.5025594 0.50150234 -0.1626265
H -0.023204619 -1.6248342 -1.4507499
H 1.5464817 -0.8656531 -1.8138444
H 1.9634145 -0.65147096 0.5364432
H 0.6891968 -2.7278986 0.95417255
