20
title
C -1.128377 2.7678654 -0.51762265
C -0.94342166 1.2514518 -0.50463
C -0.13588427 0.686219 -1.6856152
C 0.25812328 -0.7178117 -1.210454
C 0.6422601 -0.517408 0.28095213
C -0.1931117 0.7186945 0.7449176
C 0.33976603 -1.7460008 1.1021844
O 1.1475084 -2.4201665 1.6865087
H -0.15884094 3.2793946 -0.4974186
H -1.6608653 3.0964544 -1.4163951
H -1.7020656 3.108615 0.3508151
H -1.9364024 0.7820826 -0.5309066
H -0.6992958 0.6790691 -2.6237528
H 0.7639018 1.2948084 -1.8478433
H -0.6095708 -1.3872817 -1.2852391
H 1.0680456 -1.173635 -1.7851826
H 1.7129853 -0.318189 0.37148282
H 0.4785236 1.4823151 1.1496791
H -0.89114195 0.46267793 1.5499232
H -0.74868274 -2.003484 1.1287804
