title
 OpenBabel02282109593D

 16 16  0  0  1  0  0  0  0  0999 V2000
   -1.1082    2.5827   -0.4290 C   0  0  0  0  0  0  0  0  0  0  0  0
   -1.2686    1.0655   -0.3133 C   0  0  1  0  0  0  0  0  0  0  0  0
   -0.6903    0.4226   -1.4528 O   0  0  0  0  0  0  0  0  0  0  0  0
    0.2243   -0.5970   -1.0527 C   0  0  0  0  0  0  0  0  0  0  0  0
    0.2903   -0.4892    0.4488 C   0  0  0  0  0  0  0  0  0  0  0  0
    1.1567   -1.3119    1.2933 C   0  0  0  0  0  0  0  0  0  0  0  0
    1.9066   -2.1603    0.8628 O   0  0  0  0  0  0  0  0  0  0  0  0
   -0.5654    0.4497    0.8631 C   0  0  0  0  0  0  0  0  0  0  0  0
   -0.0498    2.8580   -0.4335 H   0  0  0  0  0  0  0  0  0  0  0  0
   -1.5619    2.9294   -1.3611 H   0  0  0  0  0  0  0  0  0  0  0  0
   -1.6033    3.0895    0.4058 H   0  0  0  0  0  0  0  0  0  0  0  0
   -2.3469    0.8298   -0.2725 H   0  0  0  0  0  0  0  0  0  0  0  0
   -0.1332   -1.5863   -1.3740 H   0  0  0  0  0  0  0  0  0  0  0  0
    1.2005   -0.4341   -1.5280 H   0  0  0  0  0  0  0  0  0  0  0  0
    1.0817   -1.1037    2.3833 H   0  0  0  0  0  0  0  0  0  0  0  0
   -0.7497    0.7437    1.8899 H   0  0  0  0  0  0  0  0  0  0  0  0
  1  2  1  0  0  0  0
  1 11  1  0  0  0  0
  2 12  1  1  0  0  0
  2  8  1  0  0  0  0
  3  4  1  0  0  0  0
  3  2  1  0  0  0  0
  4  5  1  0  0  0  0
  5  8  2  0  0  0  0
  5  6  1  0  0  0  0
  6 15  1  0  0  0  0
  7  6  2  0  0  0  0
  8 16  1  0  0  0  0
  9  1  1  0  0  0  0
 10  1  1  0  0  0  0
 13  4  1  0  0  0  0
 14  4  1  0  0  0  0
M  END
