title
 OpenBabel02282109593D

 14 14  0  0  0  0  0  0  0  0999 V2000
    1.9356    2.1112   -0.0066 C   0  0  0  0  0  0  0  0  0  0  0  0
    1.9415    0.6569   -0.0114 N   0  0  0  0  0  0  0  0  0  0  0  0
    0.8216    0.0546   -0.0056 C   0  0  0  0  0  0  0  0  0  0  0  0
   -0.4750    0.5712    0.0051 N   0  0  0  0  0  0  0  0  0  0  0  0
   -1.4349   -0.4462    0.0090 C   0  0  0  0  0  0  0  0  0  0  0  0
   -2.6318   -0.2862    0.0174 O   0  0  0  0  0  0  0  0  0  0  0  0
   -0.6459   -1.7165   -0.0013 C   0  0  0  0  0  0  0  0  0  0  0  0
    0.6578   -1.4154   -0.0092 C   0  0  0  0  0  0  0  0  0  0  0  0
    2.9643    2.4775   -0.0151 H   0  0  0  0  0  0  0  0  0  0  0  0
    1.4237    2.5239   -0.8885 H   0  0  0  0  0  0  0  0  0  0  0  0
    1.4405    2.5178    0.8876 H   0  0  0  0  0  0  0  0  0  0  0  0
   -0.7235    1.5455    0.0103 H   0  0  0  0  0  0  0  0  0  0  0  0
   -1.1216   -2.6858   -0.0015 H   0  0  0  0  0  0  0  0  0  0  0  0
    1.5125   -2.0760   -0.0175 H   0  0  0  0  0  0  0  0  0  0  0  0
  1 11  1  0  0  0  0
  2  1  1  0  0  0  0
  2  3  2  0  0  0  0
  3  4  1  0  0  0  0
  4  5  1  0  0  0  0
  4 12  1  0  0  0  0
  5  6  2  0  0  0  0
  7  5  1  0  0  0  0
  8  3  1  0  0  0  0
  8  7  2  0  0  0  0
  9  1  1  0  0  0  0
 10  1  1  0  0  0  0
 13  7  1  0  0  0  0
 14  8  1  0  0  0  0
M  END
