16
title
O 0.21079299 2.4658117 1.3237394
C 0.3040258 1.0476539 1.287245
C -1.1173105 0.44414565 1.254354
C -1.033075 -0.78755105 0.32149434
C 0.20899193 -0.50594556 -0.49534607
C 0.57725227 -1.2581017 -1.6993032
O -0.067161076 -2.1806312 -2.147131
C 0.9329262 0.49285153 0.027340783
H 1.0789933 2.8247387 1.5319949
H 0.86667365 0.6873773 2.165464
H -1.4988998 0.2108992 2.2502437
H -1.7695042 1.206298 0.81702095
H -0.91149294 -1.7207932 0.8851962
H -1.9180659 -0.923169 -0.30611575
H 1.5138378 -0.91524494 -2.1937037
H 1.874275 0.8590572 -0.3719566
