title
 OpenBabel02282109593D

 18 18  0  0  1  0  0  0  0  0999 V2000
   -1.3703    2.6139   -0.4043 C   0  0  0  0  0  0  0  0  0  0  0  0
   -1.2710    1.0842   -0.3915 C   0  0  1  0  0  0  0  0  0  0  0  0
   -0.5200    0.4792   -1.6114 C   0  0  0  0  0  0  0  0  0  0  0  0
    0.2271   -0.7667   -1.0748 C   0  0  0  0  0  0  0  0  0  0  0  0
    0.3139   -0.4885    0.4100 C   0  0  0  0  0  0  0  0  0  0  0  0
    1.1540   -1.2490    1.3365 C   0  0  0  0  0  0  0  0  0  0  0  0
    1.8631   -2.1765    1.0111 O   0  0  0  0  0  0  0  0  0  0  0  0
   -0.5021    0.5116    0.7740 C   0  0  0  0  0  0  0  0  0  0  0  0
   -0.3744    3.0696   -0.4199 H   0  0  0  0  0  0  0  0  0  0  0  0
   -1.9122    2.9594   -1.2905 H   0  0  0  0  0  0  0  0  0  0  0  0
   -1.8998    2.9887    0.4778 H   0  0  0  0  0  0  0  0  0  0  0  0
   -2.2961    0.6818   -0.3487 H   0  0  0  0  0  0  0  0  0  0  0  0
   -1.1889    0.2522   -2.4453 H   0  0  0  0  0  0  0  0  0  0  0  0
    0.2087    1.2142   -1.9721 H   0  0  0  0  0  0  0  0  0  0  0  0
   -0.3349   -1.6929   -1.2512 H   0  0  0  0  0  0  0  0  0  0  0  0
    1.2103   -0.9149   -1.5299 H   0  0  0  0  0  0  0  0  0  0  0  0
    1.1019   -0.9088    2.3956 H   0  0  0  0  0  0  0  0  0  0  0  0
   -0.6301    0.8630    1.7942 H   0  0  0  0  0  0  0  0  0  0  0  0
  1  2  1  0  0  0  0
  1 11  1  0  0  0  0
  2 12  1  1  0  0  0
  2  8  1  0  0  0  0
  3  4  1  0  0  0  0
  3  2  1  0  0  0  0
  4  5  1  0  0  0  0
  5  8  2  0  0  0  0
  5  6  1  0  0  0  0
  6 17  1  0  0  0  0
  7  6  2  0  0  0  0
  8 18  1  0  0  0  0
  9  1  1  0  0  0  0
 10  1  1  0  0  0  0
 13  3  1  0  0  0  0
 14  3  1  0  0  0  0
 15  4  1  0  0  0  0
 16  4  1  0  0  0  0
M  END
