title
 OpenBabel02282109593D

 16 16  0  0  1  0  0  0  0  0999 V2000
   -1.7319    2.2284   -0.5591 C   0  0  0  0  0  0  0  0  0  0  0  0
   -1.3137    0.7642   -0.6339 C   0  0  1  0  0  0  0  0  0  0  0  0
   -0.1568    0.4689   -1.6383 C   0  0  0  0  0  0  0  0  0  0  0  0
    0.5938   -0.5573   -0.9075 N   0  0  0  0  0  0  0  0  0  0  0  0
    0.2165   -0.4350    0.4117 C   0  0  2  0  0  0  0  0  0  0  0  0
    1.0104   -1.0928    1.4807 C   0  0  0  0  0  0  0  0  0  0  0  0
    2.0459   -1.6748    1.2613 O   0  0  0  0  0  0  0  0  0  0  0  0
   -0.8324    0.2577    0.6710 N   0  0  0  0  0  0  0  0  0  0  0  0
   -0.8834    2.8573   -0.2710 H   0  0  0  0  0  0  0  0  0  0  0  0
   -2.1052    2.5763   -1.5281 H   0  0  0  0  0  0  0  0  0  0  0  0
   -2.5220    2.3622    0.1841 H   0  0  0  0  0  0  0  0  0  0  0  0
   -2.1919    0.1588   -0.9026 H   0  0  0  0  0  0  0  0  0  0  0  0
   -0.5131    0.0997   -2.6031 H   0  0  0  0  0  0  0  0  0  0  0  0
    0.4530    1.3678   -1.8152 H   0  0  0  0  0  0  0  0  0  0  0  0
    1.5678   -0.7357   -1.1032 H   0  0  0  0  0  0  0  0  0  0  0  0
    0.5781   -0.9813    2.4930 H   0  0  0  0  0  0  0  0  0  0  0  0
  1  9  1  0  0  0  0
  1 11  1  0  0  0  0
  2 12  1  6  0  0  0
  2  1  1  0  0  0  0
  2  8  1  0  0  0  0
  3  4  1  0  0  0  0
  3  2  1  0  0  0  0
  4  5  1  0  0  0  0
  5  8  1  0  0  0  0
  5  6  1  6  0  0  0
  6 16  1  0  0  0  0
  7  6  2  0  0  0  0
 10  1  1  0  0  0  0
 13  3  1  0  0  0  0
 14  3  1  0  0  0  0
 15  4  1  0  0  0  0
M  RAD  2   5   2   8   2
M  END
