17
title
C -0.9930169 2.0933785 1.7201085
N -0.98752165 0.63939834 1.7298005
C -0.42987147 0.049645733 0.7570778
C -0.29742357 -1.4544634 0.5441571
N 0.42249635 -1.6344992 -0.72254425
C 0.6685766 -0.4626155 -1.171242
C 1.3879505 -0.15958796 -2.444053
N 0.20543315 0.5823917 -0.36704046
H 0.024310127 2.5169153 1.7265117
H -1.5172428 2.5057304 0.842802
H -1.506453 2.4633322 2.6109755
H 0.24960186 -1.9239298 1.3692167
H -1.2806165 -1.9359382 0.50142366
H 1.6721638 -1.0947907 -2.925956
H 0.75181854 0.4166215 -3.1253245
H 2.2886808 0.43439174 -2.2527053
H 0.30834022 1.5619113 -0.5659414
