title
 OpenBabel02282109593D

 15 15  0  0  1  0  0  0  0  0999 V2000
   -1.1468    2.3973   -0.5914 C   0  0  0  0  0  0  0  0  0  0  0  0
   -1.2029    0.8703   -0.6040 C   0  0  1  0  0  0  0  0  0  0  0  0
   -0.4164    0.2127   -1.7756 C   0  0  0  0  0  0  0  0  0  0  0  0
    0.5155   -0.6804   -1.1220 O   0  0  0  0  0  0  0  0  0  0  0  0
    0.3148   -0.5003    0.2112 C   0  0  0  0  0  0  0  0  0  0  0  0
    1.2259   -1.3211    1.0750 C   0  0  0  0  0  0  0  0  0  0  0  0
    1.2041   -1.3039    2.2754 O   0  0  0  0  0  0  0  0  0  0  0  0
   -0.5822    0.3040    0.6091 N   0  0  0  0  0  0  0  0  0  0  0  0
   -0.1090    2.7451   -0.5663 H   0  0  0  0  0  0  0  0  0  0  0  0
   -1.6275    2.8075   -1.4856 H   0  0  0  0  0  0  0  0  0  0  0  0
   -1.6598    2.7890    0.2902 H   0  0  0  0  0  0  0  0  0  0  0  0
   -2.2538    0.5567   -0.6152 H   0  0  0  0  0  0  0  0  0  0  0  0
   -1.0392   -0.3782   -2.4513 H   0  0  0  0  0  0  0  0  0  0  0  0
    0.1594    0.9368   -2.3612 H   0  0  0  0  0  0  0  0  0  0  0  0
    1.9291   -1.9520    0.4939 H   0  0  0  0  0  0  0  0  0  0  0  0
  1  9  1  0  0  0  0
  1 11  1  0  0  0  0
  2 12  1  6  0  0  0
  2  1  1  0  0  0  0
  2  8  1  0  0  0  0
  3  4  1  0  0  0  0
  3  2  1  0  0  0  0
  4  5  1  0  0  0  0
  5  8  2  0  0  0  0
  5  6  1  0  0  0  0
  6  7  2  0  0  0  0
 10  1  1  0  0  0  0
 13  3  1  0  0  0  0
 14  3  1  0  0  0  0
 15  6  1  0  0  0  0
M  END
