title
 OpenBabel02282109593D

 14 14  0  0  0  0  0  0  0  0999 V2000
    1.6870    2.5023    0.0517 C   0  0  0  0  0  0  0  0  0  0  0  0
    1.6782    1.0519    0.1392 N   0  0  0  0  0  0  0  0  0  0  0  0
    0.5941    0.4290    0.0458 C   0  0  0  0  0  0  0  0  0  0  0  0
    0.4746   -0.9586    0.1160 N   0  0  0  0  0  0  0  0  0  0  0  0
   -0.8187   -1.4009   -0.0137 C   0  0  0  0  0  0  0  0  0  0  0  0
   -1.2253   -2.5343    0.0062 O   0  0  0  0  0  0  0  0  0  0  0  0
   -1.6219   -0.1121   -0.1897 C   0  0  0  0  0  0  0  0  0  0  0  0
   -0.6618    0.9454   -0.1379 O   0  0  0  0  0  0  0  0  0  0  0  0
    2.3360    2.8085   -0.7763 H   0  0  0  0  0  0  0  0  0  0  0  0
    0.6984    2.9513   -0.0953 H   0  0  0  0  0  0  0  0  0  0  0  0
    2.1250    2.9149    0.9675 H   0  0  0  0  0  0  0  0  0  0  0  0
    1.2758   -1.5544    0.2495 H   0  0  0  0  0  0  0  0  0  0  0  0
   -2.1419   -0.1024   -1.1528 H   0  0  0  0  0  0  0  0  0  0  0  0
   -2.3559    0.0054    0.6135 H   0  0  0  0  0  0  0  0  0  0  0  0
  1  2  1  0  0  0  0
  1 11  1  0  0  0  0
  3  4  1  0  0  0  0
  3  2  2  0  0  0  0
  4 12  1  0  0  0  0
  5  6  2  0  0  0  0
  5  4  1  0  0  0  0
  7  8  1  0  0  0  0
  7  5  1  0  0  0  0
  7 14  1  0  0  0  0
  8  3  1  0  0  0  0
  9  1  1  0  0  0  0
 10  1  1  0  0  0  0
 13  7  1  0  0  0  0
M  END
