title
 OpenBabel02282109593D

 15 15  0  0  0  0  0  0  0  0999 V2000
    1.6851    2.4885    0.0687 C   0  0  0  0  0  0  0  0  0  0  0  0
    1.6785    1.0377    0.1430 N   0  0  0  0  0  0  0  0  0  0  0  0
    0.5918    0.4161    0.0478 C   0  0  0  0  0  0  0  0  0  0  0  0
    0.4734   -0.9702    0.1057 N   0  0  0  0  0  0  0  0  0  0  0  0
   -0.8263   -1.4100   -0.0239 C   0  0  0  0  0  0  0  0  0  0  0  0
   -1.3392   -2.5697   -0.0240 N   0  0  0  0  0  0  0  0  0  0  0  0
   -1.6247   -0.1274   -0.1838 C   0  0  0  0  0  0  0  0  0  0  0  0
   -0.6624    0.9324   -0.1259 O   0  0  0  0  0  0  0  0  0  0  0  0
    2.3291    2.8056   -0.7596 H   0  0  0  0  0  0  0  0  0  0  0  0
    0.6948    2.9370   -0.0700 H   0  0  0  0  0  0  0  0  0  0  0  0
    2.1255    2.8959    0.9860 H   0  0  0  0  0  0  0  0  0  0  0  0
    1.2853   -1.5511    0.2309 H   0  0  0  0  0  0  0  0  0  0  0  0
   -0.6373   -3.3007    0.0961 H   0  0  0  0  0  0  0  0  0  0  0  0
   -2.1474   -0.0986   -1.1443 H   0  0  0  0  0  0  0  0  0  0  0  0
   -2.3543   -0.0072    0.6223 H   0  0  0  0  0  0  0  0  0  0  0  0
  1  2  1  0  0  0  0
  1 11  1  0  0  0  0
  3  4  1  0  0  0  0
  3  2  2  0  0  0  0
  4 12  1  0  0  0  0
  5  4  1  0  0  0  0
  6  5  2  0  0  0  0
  6 13  1  0  0  0  0
  7  8  1  0  0  0  0
  7  5  1  0  0  0  0
  7 15  1  0  0  0  0
  8  3  1  0  0  0  0
  9  1  1  0  0  0  0
 10  1  1  0  0  0  0
 14  7  1  0  0  0  0
M  END
