title
 OpenBabel02282109593D

 13 13  0  0  0  0  0  0  0  0999 V2000
   -1.1082    2.1253    1.6384 C   0  0  0  0  0  0  0  0  0  0  0  0
   -1.1408    0.6736    1.5573 N   0  0  0  0  0  0  0  0  0  0  0  0
   -0.5069    0.0652    0.6720 C   0  0  0  0  0  0  0  0  0  0  0  0
   -0.4447   -1.4284    0.4628 C   0  0  0  0  0  0  0  0  0  0  0  0
    0.4101   -1.5768   -0.6737 O   0  0  0  0  0  0  0  0  0  0  0  0
    0.8209   -0.3671   -1.1106 C   0  0  0  0  0  0  0  0  0  0  0  0
    1.5361   -0.1701   -2.0341 O   0  0  0  0  0  0  0  0  0  0  0  0
    0.2850    0.6264   -0.3212 O   0  0  0  0  0  0  0  0  0  0  0  0
   -0.4933    2.6053    0.8702 H   0  0  0  0  0  0  0  0  0  0  0  0
   -2.1333    2.5024    1.5640 H   0  0  0  0  0  0  0  0  0  0  0  0
   -0.7345    2.4115    2.6269 H   0  0  0  0  0  0  0  0  0  0  0  0
   -0.0097   -1.9475    1.3209 H   0  0  0  0  0  0  0  0  0  0  0  0
   -1.4268   -1.8555    0.2431 H   0  0  0  0  0  0  0  0  0  0  0  0
  1 11  1  0  0  0  0
  2  1  1  0  0  0  0
  3  2  2  0  0  0  0
  4  3  1  0  0  0  0
  4 12  1  0  0  0  0
  5  4  1  0  0  0  0
  6  5  1  0  0  0  0
  6  8  1  0  0  0  0
  7  6  2  0  0  0  0
  8  3  1  0  0  0  0
  9  1  1  0  0  0  0
 10  1  1  0  0  0  0
 13  4  1  0  0  0  0
M  END
