15
title
C -1.052149 2.100006 -1.6957927
N -1.0172882 0.6453519 -1.6978064
C -0.42582658 0.07207447 -0.73787886
C -0.2949265 -1.4410213 -0.5939088
N 0.34306774 -1.5757564 0.7032554
C 0.7334907 -0.37166446 1.2377045
O 1.3685063 -0.16673094 2.2433183
N 0.22389385 0.6046123 0.36613345
H -0.044402264 2.5403018 -1.7442443
H -1.607523 2.4512217 -2.5682886
H -1.5492082 2.50449 -0.80048496
H -1.2799222 -1.9170135 -0.6327727
H 0.31267187 -1.8473276 -1.4119496
H 0.7680894 -2.4234064 1.0361001
H 0.32228336 1.5828173 0.5756018
