14
title
C -0.88466364 2.11227 1.744571
N -0.7796445 0.66199744 1.7606097
C -0.32302696 0.047371533 0.7715817
C -0.16286558 -1.4591056 0.6648641
N 0.39572197 -1.574921 -0.6616749
C 0.5622372 -0.37724033 -1.2881932
O 0.9935991 -0.13664714 -2.3762217
O 0.1227476 0.6139497 -0.41093323
H -0.3098697 2.5155098 2.5851612
H -0.53633714 2.5795844 0.81772023
H -1.9304647 2.3907704 1.9130487
H 0.50536066 -1.8353719 1.4477216
H -1.1312411 -1.9613713 0.7695844
H 0.65045863 -2.4313302 -1.1203313
