15
title
C -0.35426185 2.4274538 1.7793264
N -0.33731154 0.9732082 1.7580299
C -0.11578672 0.3596623 0.6854051
C -0.074006155 -1.1415192 0.5304163
C 0.17187406 -1.3630627 -0.9524501
O 0.2554263 -2.4038253 -1.544885
C 0.29872012 0.02624787 -1.5815448
O 0.12861915 0.9693252 -0.5314427
H 0.5241602 2.788672 2.3272629
H -0.361979 2.8951018 0.78900313
H -1.2347004 2.76066 2.3383577
H 0.72980386 -1.5877825 1.1243014
H -1.00637 -1.6144718 0.850975
H 1.2836013 0.15164526 -2.046394
H -0.46753824 0.17171146 -2.3522217
