15
title
C -0.9743414 2.0742433 1.7036507
N -1.0191494 0.6227579 1.6393911
C -0.489829 0.0028906427 0.69020647
C -0.47977725 -1.4988704 0.49280554
C 0.54322016 -1.7131357 -0.6272988
C 0.7734939 -0.32275754 -1.2010462
O 1.3673141 -0.0013049877 -2.1825378
O 0.18117881 0.6088628 -0.3743524
H -0.39620888 2.5452046 0.90198433
H -1.9996138 2.45936 1.6746383
H -0.5533325 2.3691788 2.6705923
H -0.23796612 -2.003948 1.4284389
H -1.4808743 -1.8259983 0.19550413
H 1.5047157 -2.0837464 -0.25780135
H 0.22140527 -2.3883235 -1.4216099
