14
title
C 1.9845719 2.1442616 -0.008261638
N 1.9726824 0.68797207 -0.012599487
C 0.85286146 0.10599588 -0.0061374367
C 0.6493303 -1.3980536 -0.009015295
O -0.77249295 -1.5865793 0.0009958999
C -1.410917 -0.38620114 0.008829855
O -2.5972414 -0.24553575 0.018950552
N -0.44005972 0.61110806 0.0050697844
H 3.0178497 2.4976234 -0.015423502
H 1.482008 2.5652328 -0.8919257
H 1.4962168 2.5597298 0.8859044
H 1.0717404 -1.8625114 -0.9042792
H 1.0849881 -1.8676589 0.8771713
H -0.7004791 1.5824208 0.010377848
