title
 OpenBabel02282109593D

 15 15  0  0  0  0  0  0  0  0999 V2000
    1.9457    2.1573   -0.0080 C   0  0  0  0  0  0  0  0  0  0  0  0
    1.9544    0.7022   -0.0124 N   0  0  0  0  0  0  0  0  0  0  0  0
    0.8384    0.1090   -0.0059 C   0  0  0  0  0  0  0  0  0  0  0  0
    0.6534   -1.3973   -0.0091 C   0  0  0  0  0  0  0  0  0  0  0  0
   -0.7672   -1.6003    0.0008 O   0  0  0  0  0  0  0  0  0  0  0  0
   -1.4137   -0.3991    0.0093 C   0  0  0  0  0  0  0  0  0  0  0  0
   -2.6586   -0.1990    0.0193 N   0  0  0  0  0  0  0  0  0  0  0  0
   -0.4540    0.6024    0.0052 N   0  0  0  0  0  0  0  0  0  0  0  0
    2.9733    2.5270   -0.0159 H   0  0  0  0  0  0  0  0  0  0  0  0
    1.4358    2.5730   -0.8907 H   0  0  0  0  0  0  0  0  0  0  0  0
    1.4515    2.5675    0.8861 H   0  0  0  0  0  0  0  0  0  0  0  0
    1.0827   -1.8563   -0.9044 H   0  0  0  0  0  0  0  0  0  0  0  0
    1.0960   -1.8617    0.8769 H   0  0  0  0  0  0  0  0  0  0  0  0
   -3.1626   -1.0830    0.0204 H   0  0  0  0  0  0  0  0  0  0  0  0
   -0.7197    1.5718    0.0104 H   0  0  0  0  0  0  0  0  0  0  0  0
  1 11  1  0  0  0  0
  2  1  1  0  0  0  0
  2  3  2  0  0  0  0
  3  8  1  0  0  0  0
  4  3  1  0  0  0  0
  4  5  1  0  0  0  0
  4 13  1  0  0  0  0
  5  6  1  0  0  0  0
  6  7  2  0  0  0  0
  7 14  1  0  0  0  0
  8  6  1  0  0  0  0
  8 15  1  0  0  0  0
  9  1  1  0  0  0  0
 10  1  1  0  0  0  0
 12  4  1  0  0  0  0
M  END
