title
 OpenBabel02282109593D

 14 14  0  0  0  0  0  0  0  0999 V2000
    1.9846    2.1443   -0.0083 C   0  0  0  0  0  0  0  0  0  0  0  0
    1.9727    0.6880   -0.0126 N   0  0  0  0  0  0  0  0  0  0  0  0
    0.8529    0.1060   -0.0061 C   0  0  0  0  0  0  0  0  0  0  0  0
    0.6493   -1.3981   -0.0090 C   0  0  0  0  0  0  0  0  0  0  0  0
   -0.7725   -1.5866    0.0010 O   0  0  0  0  0  0  0  0  0  0  0  0
   -1.4109   -0.3862    0.0088 C   0  0  0  0  0  0  0  0  0  0  0  0
   -2.5972   -0.2455    0.0190 O   0  0  0  0  0  0  0  0  0  0  0  0
   -0.4401    0.6111    0.0051 N   0  0  0  0  0  0  0  0  0  0  0  0
    3.0178    2.4976   -0.0154 H   0  0  0  0  0  0  0  0  0  0  0  0
    1.4820    2.5652   -0.8919 H   0  0  0  0  0  0  0  0  0  0  0  0
    1.4962    2.5597    0.8859 H   0  0  0  0  0  0  0  0  0  0  0  0
    1.0717   -1.8625   -0.9043 H   0  0  0  0  0  0  0  0  0  0  0  0
    1.0850   -1.8677    0.8772 H   0  0  0  0  0  0  0  0  0  0  0  0
   -0.7005    1.5824    0.0104 H   0  0  0  0  0  0  0  0  0  0  0  0
  1 11  1  0  0  0  0
  2  1  1  0  0  0  0
  2  3  2  0  0  0  0
  3  8  1  0  0  0  0
  4  3  1  0  0  0  0
  4  5  1  0  0  0  0
  4 13  1  0  0  0  0
  5  6  1  0  0  0  0
  6  7  2  0  0  0  0
  8  6  1  0  0  0  0
  8 14  1  0  0  0  0
  9  1  1  0  0  0  0
 10  1  1  0  0  0  0
 12  4  1  0  0  0  0
M  END
