13
title
C -1.1081938 2.1252832 1.6384465
N -1.1407683 0.67364526 1.5573026
C -0.50687736 0.06518826 0.67198104
C -0.44474852 -1.4283824 0.46281022
O 0.4100563 -1.5768394 -0.6737321
C 0.8209041 -0.3670502 -1.1106231
O 1.5360676 -0.17005792 -2.0340803
O 0.28497237 0.62641764 -0.3211854
H -0.49327594 2.6053011 0.87023443
H -2.133326 2.5023649 1.5639738
H -0.7344808 2.4115384 2.626903
H -0.009665085 -1.9474719 1.3209497
H -1.4268228 -1.8554666 0.24307483
