title
 OpenBabel02282109593D

 17 17  0  0  0  0  0  0  0  0999 V2000
    2.2097    2.1358    0.3556 C   0  0  0  0  0  0  0  0  0  0  0  0
    2.1303    0.6320    0.0314 C   0  0  0  0  0  0  0  0  0  0  0  0
    0.7327    0.0981    0.0187 C   0  0  0  0  0  0  0  0  0  0  0  0
    0.0261   -0.4057   -0.9980 C   0  0  0  0  0  0  0  0  0  0  0  0
   -1.3020   -0.8075   -0.5272 C   0  0  0  0  0  0  0  0  0  0  0  0
   -2.2363   -1.3227   -1.2093 N   0  0  0  0  0  0  0  0  0  0  0  0
   -1.3726   -0.5266    0.8206 O   0  0  0  0  0  0  0  0  0  0  0  0
   -0.1379    0.0459    1.2504 C   0  0  0  0  0  0  0  0  0  0  0  0
    3.2489    2.4758    0.3352 H   0  0  0  0  0  0  0  0  0  0  0  0
    1.6442    2.7229   -0.3740 H   0  0  0  0  0  0  0  0  0  0  0  0
    1.8076    2.3566    1.3492 H   0  0  0  0  0  0  0  0  0  0  0  0
    2.5944    0.4407   -0.9414 H   0  0  0  0  0  0  0  0  0  0  0  0
    2.7203    0.0776    0.7743 H   0  0  0  0  0  0  0  0  0  0  0  0
    0.3350   -0.5293   -2.0258 H   0  0  0  0  0  0  0  0  0  0  0  0
   -3.0507   -1.5024   -0.6202 H   0  0  0  0  0  0  0  0  0  0  0  0
    0.2970   -0.5801    2.0425 H   0  0  0  0  0  0  0  0  0  0  0  0
   -0.3330    1.0374    1.6802 H   0  0  0  0  0  0  0  0  0  0  0  0
  1 11  1  0  0  0  0
  2  1  1  0  0  0  0
  2 13  1  0  0  0  0
  3  2  1  0  0  0  0
  3  8  1  0  0  0  0
  4  5  1  0  0  0  0
  4  3  2  0  0  0  0
  5  7  1  0  0  0  0
  6 15  1  0  0  0  0
  6  5  2  0  0  0  0
  7  8  1  0  0  0  0
  8 17  1  0  0  0  0
  8 16  1  0  0  0  0
  9  1  1  0  0  0  0
 10  1  1  0  0  0  0
 12  2  1  0  0  0  0
 14  4  1  0  0  0  0
M  END
