title
 OpenBabel02282109593D

 18 18  0  0  0  0  0  0  0  0999 V2000
    2.1747    2.1646    0.3821 C   0  0  0  0  0  0  0  0  0  0  0  0
    2.1083    0.6572    0.0706 C   0  0  0  0  0  0  0  0  0  0  0  0
    0.7133    0.1097    0.0775 C   0  0  0  0  0  0  0  0  0  0  0  0
    0.0395   -0.3860   -0.9731 C   0  0  0  0  0  0  0  0  0  0  0  0
   -1.3106   -0.8377   -0.5849 C   0  0  0  0  0  0  0  0  0  0  0  0
   -2.1591   -1.3216   -1.2991 O   0  0  0  0  0  0  0  0  0  0  0  0
   -1.4476   -0.5802    0.9265 C   0  0  0  0  0  0  0  0  0  0  0  0
   -0.1128    0.0590    1.3499 C   0  0  0  0  0  0  0  0  0  0  0  0
    3.2107    2.5138    0.3515 H   0  0  0  0  0  0  0  0  0  0  0  0
    1.6001    2.7403   -0.3497 H   0  0  0  0  0  0  0  0  0  0  0  0
    1.7767    2.3892    1.3760 H   0  0  0  0  0  0  0  0  0  0  0  0
    2.5715    0.4640   -0.9023 H   0  0  0  0  0  0  0  0  0  0  0  0
    2.7040    0.1166    0.8192 H   0  0  0  0  0  0  0  0  0  0  0  0
    0.4060   -0.4660   -1.9894 H   0  0  0  0  0  0  0  0  0  0  0  0
   -2.3125    0.0639    1.1088 H   0  0  0  0  0  0  0  0  0  0  0  0
   -1.6479   -1.5276    1.4354 H   0  0  0  0  0  0  0  0  0  0  0  0
    0.4101   -0.5206    2.1212 H   0  0  0  0  0  0  0  0  0  0  0  0
   -0.2458    1.0632    1.7694 H   0  0  0  0  0  0  0  0  0  0  0  0
  1 11  1  0  0  0  0
  2  3  1  0  0  0  0
  2  1  1  0  0  0  0
  2 13  1  0  0  0  0
  3  8  1  0  0  0  0
  4  5  1  0  0  0  0
  4  3  2  0  0  0  0
  5  7  1  0  0  0  0
  6  5  2  0  0  0  0
  7 15  1  0  0  0  0
  7  8  1  0  0  0  0
  7 16  1  0  0  0  0
  8 18  1  0  0  0  0
  8 17  1  0  0  0  0
  9  1  1  0  0  0  0
 10  1  1  0  0  0  0
 12  2  1  0  0  0  0
 14  4  1  0  0  0  0
M  END
