17
title
C -1.0894692 2.1442318 -1.7911978
N -0.9948342 0.70493877 -1.6670362
C -0.3775416 0.08902454 -0.6372392
C 0.24444841 0.65812254 0.43116286
C 0.782738 -0.3629821 1.3168459
O 1.3936428 -0.21230836 2.3556216
C 0.4399655 -1.7390395 0.7008326
C -0.32909298 -1.4257168 -0.5941677
H -0.095168844 2.6048415 -1.841716
H -1.6324692 2.391845 -2.7049327
H -1.6241459 2.5820942 -0.9393003
H -1.4088384 0.13524316 -2.384126
H 0.34612572 1.7154906 0.63061523
H 1.363417 -2.2969007 0.5226152
H -0.1496342 -2.3197315 1.4156103
H -1.3448061 -1.8396062 -0.59601176
H 0.16932414 -1.8165716 -1.489601
