title
 OpenBabel02282109593D

 16 16  0  0  0  0  0  0  0  0999 V2000
    2.1838    1.8061   -0.0112 O   0  0  0  0  0  0  0  0  0  0  0  0
    2.1415    0.3953   -0.0159 C   0  0  0  0  0  0  0  0  0  0  0  0
    0.7268   -0.0765   -0.0062 C   0  0  0  0  0  0  0  0  0  0  0  0
   -0.3748    0.6873    0.0047 C   0  0  0  0  0  0  0  0  0  0  0  0
   -1.5914   -0.1497    0.0112 C   0  0  0  0  0  0  0  0  0  0  0  0
   -2.7416    0.2241    0.0225 O   0  0  0  0  0  0  0  0  0  0  0  0
   -1.1277   -1.6188    0.0046 C   0  0  0  0  0  0  0  0  0  0  0  0
    0.4110   -1.5585   -0.0079 C   0  0  0  0  0  0  0  0  0  0  0  0
    3.1044    2.0826   -0.0193 H   0  0  0  0  0  0  0  0  0  0  0  0
    2.6457   -0.0281   -0.9035 H   0  0  0  0  0  0  0  0  0  0  0  0
    2.6600   -0.0345    0.8603 H   0  0  0  0  0  0  0  0  0  0  0  0
   -0.3989    1.7677    0.0082 H   0  0  0  0  0  0  0  0  0  0  0  0
   -1.5290   -2.1287    0.8849 H   0  0  0  0  0  0  0  0  0  0  0  0
   -1.5434   -2.1253   -0.8710 H   0  0  0  0  0  0  0  0  0  0  0  0
    0.8454   -2.0476   -0.8888 H   0  0  0  0  0  0  0  0  0  0  0  0
    0.8597   -2.0526    0.8631 H   0  0  0  0  0  0  0  0  0  0  0  0
  2  1  1  0  0  0  0
  2  3  1  0  0  0  0
  2 11  1  0  0  0  0
  3  4  2  0  0  0  0
  4 12  1  0  0  0  0
  4  5  1  0  0  0  0
  5  6  2  0  0  0  0
  7  5  1  0  0  0  0
  7 13  1  0  0  0  0
  8  3  1  0  0  0  0
  8  7  1  0  0  0  0
  8 16  1  0  0  0  0
  9  1  1  0  0  0  0
 10  2  1  0  0  0  0
 14  7  1  0  0  0  0
 15  8  1  0  0  0  0
M  END
