15
title
O 2.1722782 1.852054 -0.0103233
C 2.1426542 0.44040796 -0.01586507
C 0.7263773 -0.02193356 -0.0059731007
C -0.39342624 0.7039984 0.00483636
C -1.5499284 -0.19663137 0.0113660265
N -2.7747138 0.123208255 0.021861374
O -1.0773222 -1.4940388 0.003974624
C 0.34842092 -1.4803786 -0.0070570717
H 3.0908444 2.1355875 -0.017944641
H 2.65031 0.024258133 -0.9045816
H 2.6651337 0.016971793 0.8607323
H -0.48227054 1.7785755 0.008633228
H -3.3615038 -0.71263355 0.024098393
H 0.7098749 -2.0124106 -0.8983383
H 0.72367066 -2.0171733 0.8756288
