title
 OpenBabel02282109593D

 17 17  0  0  1  0  0  0  0  0999 V2000
   -1.1045    2.3996   -0.5788 C   0  0  0  0  0  0  0  0  0  0  0  0
   -1.1882    0.8747   -0.6060 C   0  0  1  0  0  0  0  0  0  0  0  0
   -0.4595    0.2226   -1.8174 C   0  0  0  0  0  0  0  0  0  0  0  0
    0.4885   -0.6943   -1.2182 O   0  0  0  0  0  0  0  0  0  0  0  0
    0.3500   -0.5369    0.1176 C   0  0  0  0  0  0  0  0  0  0  0  0
    1.2515   -1.3522    0.9948 C   0  0  0  0  0  0  0  0  0  0  0  0
    1.0077   -1.1018    2.3532 O   0  0  0  0  0  0  0  0  0  0  0  0
   -0.5191    0.2740    0.5632 N   0  0  0  0  0  0  0  0  0  0  0  0
   -0.0604    2.7291   -0.5885 H   0  0  0  0  0  0  0  0  0  0  0  0
   -1.6114    2.8319   -1.4481 H   0  0  0  0  0  0  0  0  0  0  0  0
   -1.5769    2.7909    0.3258 H   0  0  0  0  0  0  0  0  0  0  0  0
   -2.2440    0.5786   -0.5861 H   0  0  0  0  0  0  0  0  0  0  0  0
   -1.1185   -0.3502   -2.4741 H   0  0  0  0  0  0  0  0  0  0  0  0
    0.1011    0.9471   -2.4168 H   0  0  0  0  0  0  0  0  0  0  0  0
    1.1000   -2.4162    0.7550 H   0  0  0  0  0  0  0  0  0  0  0  0
    2.2952   -1.1205    0.7311 H   0  0  0  0  0  0  0  0  0  0  0  0
    0.2942   -0.4475    2.3788 H   0  0  0  0  0  0  0  0  0  0  0  0
  1 11  1  0  0  0  0
  2 12  1  6  0  0  0
  2  1  1  0  0  0  0
  2  8  1  0  0  0  0
  3  4  1  0  0  0  0
  3  2  1  0  0  0  0
  4  5  1  0  0  0  0
  5  8  2  0  0  0  0
  5  6  1  0  0  0  0
  6  7  1  0  0  0  0
  7 17  1  0  0  0  0
  9  1  1  0  0  0  0
 10  1  1  0  0  0  0
 13  3  1  0  0  0  0
 14  3  1  0  0  0  0
 15  6  1  0  0  0  0
 16  6  1  0  0  0  0
M  END
