15
title
O 2.1760604 1.8430818 -0.011308542
C 2.152752 0.43140593 -0.016076822
C 0.7367357 -0.038178895 -0.006057679
C -0.38149557 0.6917553 0.004990934
C -1.5735556 -0.20622379 0.011920966
O -2.7506819 0.08521986 0.019975927
N -1.0509292 -1.48552 0.006405896
C 0.3902394 -1.5122969 -0.0073932293
H 3.093254 2.130792 -0.018427644
H 2.6630337 0.0180608 -0.90459377
H 2.6776314 0.011808095 0.8609247
H -0.45894226 1.767853 0.008543553
H -1.6390408 -2.3004062 0.0031350986
H 0.79345846 -2.0184574 -0.8976979
H 0.81013906 -2.0241263 0.871858
