16
title
C -1.0251825 2.159473 1.8324875
N -1.0585432 0.7223037 1.6491321
C -0.39166448 0.12737867 0.6242613
C 0.22332992 0.67300445 -0.44855383
C 0.759024 -0.4024714 -1.3011625
O 1.2961433 -0.3318548 -2.3869915
N 0.5399318 -1.5943278 -0.5989354
C -0.29972026 -1.3854402 0.55817527
H -0.005535526 2.5394814 1.9886086
H -1.4415513 2.658657 0.95114297
H -1.6377319 2.4267135 2.6956398
H -1.2267569 0.16342536 2.469488
H 0.3309293 1.7165105 -0.69847804
H 0.5229131 -2.4591863 -1.1142416
H 0.14211322 -1.7990452 1.4770327
H -1.301611 -1.8263556 0.44802806
