19
title
C -0.91310066 1.2796048 2.4535596
C -1.6050986 0.6660766 1.2257345
C -0.6377739 0.06628114 0.2562751
N -0.4609578 0.4156209 -0.9521249
C 0.5897905 -0.45658407 -1.5066434
C 1.7341698 0.35813403 -2.1072752
C 1.0115429 -1.3462179 -0.30348024
O 0.11541573 -0.95741934 0.75718063
H -0.32833442 0.5267995 2.987912
H -0.23822173 2.0885303 2.1575847
H -1.6551571 1.6925161 3.1424525
H -2.2956195 -0.12095705 1.5526215
H -2.1861205 1.416571 0.6860787
H 0.14176956 -1.0676168 -2.300627
H 2.2038095 0.9845781 -1.3415774
H 2.5003464 -0.29908225 -2.5327327
H 1.3606302 1.0121043 -2.8994014
H 0.8917524 -2.4181843 -0.48086604
H 2.0394325 -1.154175 0.024623433
