18
title
C -1.0682518 1.949364 1.6799299
O -1.1861283 0.5363649 1.4950806
C -0.51925695 0.04565085 0.4479624
N 0.19775814 0.70690286 -0.37639487
C 0.70519 -0.28246248 -1.3454628
C 2.1795447 -0.0670505 -1.6679444
C 0.39499682 -1.6718447 -0.7069478
N -0.66831845 -1.3199787 0.24105798
H -0.022254527 2.2328358 1.824895
H -1.4571671 2.4842374 0.8095311
H -1.6562164 2.182375 2.5683796
H 0.12555379 -0.17874025 -2.2748337
H 2.7865813 -0.14273648 -0.759712
H 2.537231 -0.81275314 -2.3867378
H 2.3350546 0.92661774 -2.0966752
H 0.056108534 -2.4130547 -1.4354665
H 1.2817948 -2.0720782 -0.19260861
H -0.78557634 -1.8868048 1.0691618
