title
 OpenBabel02282109593D

 20 20  0  0  1  0  0  0  0  0999 V2000
    2.0884    2.3035    0.5330 C   0  0  0  0  0  0  0  0  0  0  0  0
    2.0017    0.8832   -0.0545 C   0  0  0  0  0  0  0  0  0  0  0  0
    0.6223    0.2927    0.0026 C   0  0  0  0  0  0  0  0  0  0  0  0
   -0.1611   -0.0107   -1.0374 C   0  0  0  0  0  0  0  0  0  0  0  0
   -1.4509   -0.6771   -0.6299 C   0  0  1  0  0  0  0  0  0  0  0  0
   -1.4863   -2.0533   -1.0217 O   0  0  0  0  0  0  0  0  0  0  0  0
   -1.4877   -0.4542    0.9065 C   0  0  0  0  0  0  0  0  0  0  0  0
   -0.0482   -0.0620    1.3174 C   0  0  0  0  0  0  0  0  0  0  0  0
    3.1102    2.6886    0.4630 H   0  0  0  0  0  0  0  0  0  0  0  0
    1.4290    2.9896   -0.0075 H   0  0  0  0  0  0  0  0  0  0  0  0
    1.7981    2.3215    1.5879 H   0  0  0  0  0  0  0  0  0  0  0  0
    2.3474    0.8987   -1.0940 H   0  0  0  0  0  0  0  0  0  0  0  0
    2.6957    0.2324    0.4965 H   0  0  0  0  0  0  0  0  0  0  0  0
    0.1107    0.1193   -2.0801 H   0  0  0  0  0  0  0  0  0  0  0  0
   -2.3319   -0.2458   -1.1165 H   0  0  0  0  0  0  0  0  0  0  0  0
   -0.6307   -2.4330   -0.7928 H   0  0  0  0  0  0  0  0  0  0  0  0
   -2.1765    0.3629    1.1415 H   0  0  0  0  0  0  0  0  0  0  0  0
   -1.8597   -1.3491    1.4112 H   0  0  0  0  0  0  0  0  0  0  0  0
    0.4940   -0.8799    1.8130 H   0  0  0  0  0  0  0  0  0  0  0  0
   -0.0386    0.7720    2.0280 H   0  0  0  0  0  0  0  0  0  0  0  0
  1 11  1  0  0  0  0
  2  3  1  0  0  0  0
  2 13  1  0  0  0  0
  2  1  1  0  0  0  0
  3  8  1  0  0  0  0
  4  5  1  0  0  0  0
  4  3  2  0  0  0  0
  5 15  1  6  0  0  0
  5  7  1  0  0  0  0
  6 16  1  0  0  0  0
  6  5  1  0  0  0  0
  7 17  1  0  0  0  0
  7  8  1  0  0  0  0
  7 18  1  0  0  0  0
  8 19  1  0  0  0  0
  8 20  1  0  0  0  0
  9  1  1  0  0  0  0
 10  1  1  0  0  0  0
 12  2  1  0  0  0  0
 14  4  1  0  0  0  0
M  END
