18
title
O 2.1643639 1.7923601 0.3740324
C 2.1297917 0.39697474 0.14118002
C 0.7165576 -0.08726268 0.13503815
C -0.37972245 0.6357031 0.37329215
C -1.6447531 -0.16567685 0.19303112
O -2.3874097 0.26130417 -0.9531584
C -1.1288947 -1.6284609 0.10184903
C 0.39149347 -1.5325193 -0.17915845
H 3.084599 2.0658102 0.42158163
H 2.602342 0.13589892 -0.8233508
H 2.6941235 -0.15552683 0.913794
H -0.38545188 1.6954516 0.5938775
H -2.350532 -0.04464667 1.0215175
H -1.752416 0.40059668 -1.6645012
H -1.2980524 -2.1380882 1.0551182
H -1.6801664 -2.1777437 -0.66484976
H 0.6500633 -1.773798 -1.219727
H 0.96913373 -2.2296581 0.440186
