17
title
C 2.2330828 2.1301012 0.028725103
C 2.1578496 0.62734306 -0.29592338
C 0.76993614 0.06953133 -0.25917047
C 0.0773018 -0.460226 -1.2752978
N -1.1996057 -0.8865506 -0.8712282
C -1.4098 -0.65541774 0.47567555
O -2.4105084 -0.92237216 1.0993974
C -0.10898155 0.002352304 0.97141534
H 3.267414 2.4853055 -0.011348202
H 1.6432507 2.713657 -0.685027
H 1.8485266 2.3414643 1.0316353
H 2.587269 0.44744256 -1.2887324
H 2.7952871 0.083160885 0.4158984
H 0.37958544 -0.58976394 -2.3054414
H -1.8891842 -1.3219215 -1.4603025
H 0.320154 -0.6014095 1.7802824
H -0.34216827 0.9816326 1.4048257
