title
 OpenBabel02282109593D

 18 18  0  0  1  0  0  0  0  0999 V2000
   -1.0586    2.4194   -0.7886 C   0  0  0  0  0  0  0  0  0  0  0  0
   -1.1965    0.9065   -0.6183 C   0  0  1  0  0  0  0  0  0  0  0  0
   -0.6012    0.2367   -1.7398 O   0  0  0  0  0  0  0  0  0  0  0  0
    0.3311   -0.7389   -1.2970 C   0  0  0  0  0  0  0  0  0  0  0  0
    0.3876   -0.5888    0.2025 C   0  0  0  0  0  0  0  0  0  0  0  0
    1.3018   -1.4055    1.0518 C   0  0  0  0  0  0  0  0  0  0  0  0
    1.1145   -1.0658    2.4130 O   0  0  0  0  0  0  0  0  0  0  0  0
   -0.4864    0.3377    0.5800 C   0  0  0  0  0  0  0  0  0  0  0  0
   -0.0039    2.7095   -0.7959 H   0  0  0  0  0  0  0  0  0  0  0  0
   -1.5144    2.7347   -1.7316 H   0  0  0  0  0  0  0  0  0  0  0  0
   -1.5617    2.9454    0.0297 H   0  0  0  0  0  0  0  0  0  0  0  0
   -2.2714    0.6556   -0.5905 H   0  0  0  0  0  0  0  0  0  0  0  0
    0.0015   -1.7488   -1.5971 H   0  0  0  0  0  0  0  0  0  0  0  0
    1.3075   -0.5673   -1.7784 H   0  0  0  0  0  0  0  0  0  0  0  0
    1.1028   -2.4775    0.8723 H   0  0  0  0  0  0  0  0  0  0  0  0
    2.3452   -1.2316    0.7326 H   0  0  0  0  0  0  0  0  0  0  0  0
    1.7177   -1.5977    2.9396 H   0  0  0  0  0  0  0  0  0  0  0  0
   -0.6795    0.6518    1.5964 H   0  0  0  0  0  0  0  0  0  0  0  0
  1  2  1  0  0  0  0
  1 11  1  0  0  0  0
  2 12  1  1  0  0  0
  2  8  1  0  0  0  0
  3  4  1  0  0  0  0
  3  2  1  0  0  0  0
  4  5  1  0  0  0  0
  5  8  2  0  0  0  0
  5  6  1  0  0  0  0
  6  7  1  0  0  0  0
  7 17  1  0  0  0  0
  8 18  1  0  0  0  0
  9  1  1  0  0  0  0
 10  1  1  0  0  0  0
 13  4  1  0  0  0  0
 14  4  1  0  0  0  0
 15  6  1  0  0  0  0
 16  6  1  0  0  0  0
M  END
