18
title
C -1.0586039 2.4193869 -0.78862804
C -1.1965437 0.90647614 -0.61829156
O -0.60117114 0.23669703 -1.7398337
C 0.33111414 -0.73890704 -1.2969544
C 0.3875651 -0.5888372 0.20245135
C 1.3017843 -1.4054935 1.0517759
O 1.114527 -1.0657967 2.4130425
C -0.4863688 0.3376906 0.5800001
H -0.0038605183 2.7094598 -0.7958833
H -1.5143887 2.7347205 -1.7315787
H -1.5616689 2.9454079 0.029705822
H -2.2714093 0.6555728 -0.59046394
H 0.0015375167 -1.74877 -1.5970608
H 1.3075154 -0.5672584 -1.7783918
H 1.1027806 -2.477463 0.8723057
H 2.3451822 -1.2316096 0.732578
H 1.7176604 -1.5977149 2.9396405
H -0.67951334 0.6518069 1.5963889
