title
 OpenBabel02282109593D

 18 18  0  0  1  0  0  0  0  0999 V2000
   -1.0683    1.9494    1.6799 C   0  0  0  0  0  0  0  0  0  0  0  0
   -1.1861    0.5364    1.4951 O   0  0  0  0  0  0  0  0  0  0  0  0
   -0.5193    0.0457    0.4480 C   0  0  0  0  0  0  0  0  0  0  0  0
    0.1978    0.7069   -0.3764 N   0  0  0  0  0  0  0  0  0  0  0  0
    0.7052   -0.2825   -1.3455 C   0  0  1  0  0  0  0  0  0  0  0  0
    2.1795   -0.0671   -1.6679 C   0  0  0  0  0  0  0  0  0  0  0  0
    0.3950   -1.6718   -0.7069 C   0  0  0  0  0  0  0  0  0  0  0  0
   -0.6683   -1.3200    0.2411 N   0  0  0  0  0  0  0  0  0  0  0  0
   -0.0223    2.2328    1.8249 H   0  0  0  0  0  0  0  0  0  0  0  0
   -1.4572    2.4842    0.8095 H   0  0  0  0  0  0  0  0  0  0  0  0
   -1.6562    2.1824    2.5684 H   0  0  0  0  0  0  0  0  0  0  0  0
    0.1256   -0.1787   -2.2748 H   0  0  0  0  0  0  0  0  0  0  0  0
    2.7866   -0.1427   -0.7597 H   0  0  0  0  0  0  0  0  0  0  0  0
    2.5372   -0.8128   -2.3867 H   0  0  0  0  0  0  0  0  0  0  0  0
    2.3351    0.9266   -2.0967 H   0  0  0  0  0  0  0  0  0  0  0  0
    0.0561   -2.4131   -1.4355 H   0  0  0  0  0  0  0  0  0  0  0  0
    1.2818   -2.0721   -0.1926 H   0  0  0  0  0  0  0  0  0  0  0  0
   -0.7856   -1.8868    1.0692 H   0  0  0  0  0  0  0  0  0  0  0  0
  1  9  1  0  0  0  0
  1 11  1  0  0  0  0
  2  1  1  0  0  0  0
  3  2  1  0  0  0  0
  4  3  2  0  0  0  0
  5 12  1  6  0  0  0
  5  7  1  0  0  0  0
  5  4  1  0  0  0  0
  6  5  1  0  0  0  0
  6 13  1  0  0  0  0
  7 17  1  0  0  0  0
  7  8  1  0  0  0  0
  8  3  1  0  0  0  0
  8 18  1  0  0  0  0
 10  1  1  0  0  0  0
 14  6  1  0  0  0  0
 15  6  1  0  0  0  0
 16  7  1  0  0  0  0
M  END
