title
 OpenBabel02282109593D

 14 14  0  0  0  0  0  0  0  0999 V2000
    1.7357    2.3792   -0.0065 C   0  0  0  0  0  0  0  0  0  0  0  0
    1.6943    0.9442   -0.0104 O   0  0  0  0  0  0  0  0  0  0  0  0
    0.4749    0.4177   -0.0024 C   0  0  0  0  0  0  0  0  0  0  0  0
   -0.6428    1.0351    0.0081 N   0  0  0  0  0  0  0  0  0  0  0  0
   -1.6627   -0.0161    0.0129 C   0  0  0  0  0  0  0  0  0  0  0  0
   -0.9171   -1.3611    0.0032 C   0  0  0  0  0  0  0  0  0  0  0  0
   -1.3389   -2.4885    0.0030 O   0  0  0  0  0  0  0  0  0  0  0  0
    0.4198   -0.9705   -0.0061 N   0  0  0  0  0  0  0  0  0  0  0  0
    2.7937    2.6393   -0.0149 H   0  0  0  0  0  0  0  0  0  0  0  0
    1.2308    2.7764   -0.8902 H   0  0  0  0  0  0  0  0  0  0  0  0
    1.2462    2.7712    0.8882 H   0  0  0  0  0  0  0  0  0  0  0  0
   -2.3048    0.0499    0.8986 H   0  0  0  0  0  0  0  0  0  0  0  0
   -2.3185    0.0551   -0.8623 H   0  0  0  0  0  0  0  0  0  0  0  0
    1.2108   -1.5935   -0.0141 H   0  0  0  0  0  0  0  0  0  0  0  0
  1 11  1  0  0  0  0
  2  1  1  0  0  0  0
  2  3  1  0  0  0  0
  3  4  2  0  0  0  0
  4  5  1  0  0  0  0
  5 12  1  0  0  0  0
  6  5  1  0  0  0  0
  7  6  2  0  0  0  0
  8  3  1  0  0  0  0
  8  6  1  0  0  0  0
  9  1  1  0  0  0  0
 10  1  1  0  0  0  0
 13  5  1  0  0  0  0
 14  8  1  0  0  0  0
M  END
