15
title
O 2.117717 1.8144087 0.090679824
C 2.0905848 0.45200053 -0.32090268
C 0.7000911 -0.09459019 -0.3703279
C 0.07815922 -0.81711745 -1.3116397
C -1.3137363 -1.138617 -0.83534604
C -1.4027556 -0.4282382 0.52945596
O -2.3455708 -0.35068667 1.2807075
N -0.14895807 0.12535211 0.72839385
H 1.6384666 2.3286457 -0.56825316
H 2.5772252 0.29799995 -1.2934906
H 2.6810408 -0.082794785 0.43265983
H 0.51366687 -1.1406024 -2.2452447
H -2.10999 -0.770267 -1.4921454
H -1.4956793 -2.2114756 -0.6982402
H 0.06639684 0.75224984 1.4868191
