16
title
C 2.069008 2.3530245 -0.008599063
C 1.9533602 0.82899994 -0.013509973
C 0.537968 0.33644152 -0.0033596759
N -0.5107569 1.0702587 0.007527759
C -1.6560708 0.15995342 0.013784928
C -1.0875772 -1.2655339 0.0051669716
O -1.6450728 -2.3344665 0.0056872047
N 0.28446493 -1.0399034 -0.0057977927
H 3.1203568 2.6528804 -0.01658671
H 1.5753723 2.783553 -0.8826899
H 1.5907122 2.7767355 0.8772776
H 2.4567575 0.40559253 -0.89385694
H 2.4717057 0.3987845 0.8547719
H -2.282167 0.3167136 0.8993035
H -2.29598 0.3219797 -0.86085117
H 0.9713264 -1.7765033 -0.014022888
