title
 OpenBabel02282109593D

 15 15  0  0  0  0  0  0  0  0999 V2000
    2.1177    1.8144    0.0907 O   0  0  0  0  0  0  0  0  0  0  0  0
    2.0906    0.4520   -0.3209 C   0  0  0  0  0  0  0  0  0  0  0  0
    0.7001   -0.0946   -0.3703 C   0  0  0  0  0  0  0  0  0  0  0  0
    0.0782   -0.8171   -1.3116 C   0  0  0  0  0  0  0  0  0  0  0  0
   -1.3137   -1.1386   -0.8353 C   0  0  0  0  0  0  0  0  0  0  0  0
   -1.4028   -0.4282    0.5295 C   0  0  0  0  0  0  0  0  0  0  0  0
   -2.3456   -0.3507    1.2807 O   0  0  0  0  0  0  0  0  0  0  0  0
   -0.1490    0.1254    0.7284 N   0  0  0  0  0  0  0  0  0  0  0  0
    1.6385    2.3286   -0.5683 H   0  0  0  0  0  0  0  0  0  0  0  0
    2.5772    0.2980   -1.2935 H   0  0  0  0  0  0  0  0  0  0  0  0
    2.6810   -0.0828    0.4327 H   0  0  0  0  0  0  0  0  0  0  0  0
    0.5137   -1.1406   -2.2452 H   0  0  0  0  0  0  0  0  0  0  0  0
   -2.1100   -0.7703   -1.4921 H   0  0  0  0  0  0  0  0  0  0  0  0
   -1.4957   -2.2115   -0.6982 H   0  0  0  0  0  0  0  0  0  0  0  0
    0.0664    0.7522    1.4868 H   0  0  0  0  0  0  0  0  0  0  0  0
  2  1  1  0  0  0  0
  2 11  1  0  0  0  0
  3  2  1  0  0  0  0
  3  8  1  0  0  0  0
  4  5  1  0  0  0  0
  4  3  2  0  0  0  0
  5 14  1  0  0  0  0
  5  6  1  0  0  0  0
  6  8  1  0  0  0  0
  6  7  2  0  0  0  0
  8 15  1  0  0  0  0
  9  1  1  0  0  0  0
 10  2  1  0  0  0  0
 12  4  1  0  0  0  0
 13  5  1  0  0  0  0
M  END
