15
title
C 1.738611 2.3621907 -0.0063898875
O 1.6942923 0.92891216 -0.0102233
C 0.47097564 0.4059361 -0.0024185053
N -0.644668 1.023774 0.007911998
C -1.66806 -0.029398596 0.012618457
C -0.9257523 -1.3688136 0.0030820246
N -1.4553298 -2.5213354 0.0038029372
N 0.41448224 -0.98171455 -0.0060528666
H 2.7967975 2.6230636 -0.014401817
H 1.2343726 2.7614841 -0.8898231
H 1.2491705 2.756272 0.8876532
H -2.3089156 0.04723557 0.8978325
H -2.322288 0.05236002 -0.86229587
H -0.7563244 -3.2657392 -0.0036924568
H 1.2152897 -1.5902458 -0.013811184
