15
title
O 2.4372277 0.9452092 0.8498338
C 1.7204841 1.2021867 -0.35071424
C 0.36119786 0.5602111 -0.34009093
N -0.7010482 1.0507995 -0.85431135
C -1.7551037 0.05140707 -0.62750113
C -1.1155206 -1.0874993 0.16677628
N -1.7038335 -2.1206079 0.61105883
N 0.2196391 -0.6899618 0.25422052
H 2.0274322 1.4578587 1.5546453
H 1.6029972 2.2701738 -0.5650259
H 2.3226604 0.7628904 -1.1541561
H -2.5980754 0.4904523 -0.084153384
H -2.1494646 -0.3145018 -1.5821618
H -1.0616578 -2.7422576 1.105158
H 0.93891925 -1.1279471 0.80596024
