title
 OpenBabel02282109593D

 16 16  0  0  0  0  0  0  0  0999 V2000
    2.0301    2.1943   -0.0098 O   0  0  0  0  0  0  0  0  0  0  0  0
    2.0228    0.7800   -0.0145 C   0  0  0  0  0  0  0  0  0  0  0  0
    0.6150    0.2805   -0.0044 C   0  0  0  0  0  0  0  0  0  0  0  0
   -0.4942    1.0251    0.0066 C   0  0  0  0  0  0  0  0  0  0  0  0
   -1.7510    0.2006    0.0146 C   0  0  0  0  0  0  0  0  0  0  0  0
   -1.2282   -1.2450    0.0064 C   0  0  0  0  0  0  0  0  0  0  0  0
   -1.8984   -2.2429    0.0096 O   0  0  0  0  0  0  0  0  0  0  0  0
    0.3103   -1.1959   -0.0061 C   0  0  0  0  0  0  0  0  0  0  0  0
    2.9444    2.4903   -0.0170 H   0  0  0  0  0  0  0  0  0  0  0  0
    2.5419    0.3756   -0.9024 H   0  0  0  0  0  0  0  0  0  0  0  0
    2.5566    0.3696    0.8619 H   0  0  0  0  0  0  0  0  0  0  0  0
   -0.4911    2.1071    0.0097 H   0  0  0  0  0  0  0  0  0  0  0  0
   -2.3849    0.3626    0.8965 H   0  0  0  0  0  0  0  0  0  0  0  0
   -2.3989    0.3673   -0.8563 H   0  0  0  0  0  0  0  0  0  0  0  0
    0.6934   -1.7271   -0.8879 H   0  0  0  0  0  0  0  0  0  0  0  0
    0.7078   -1.7320    0.8664 H   0  0  0  0  0  0  0  0  0  0  0  0
  2  1  1  0  0  0  0
  2  3  1  0  0  0  0
  2 11  1  0  0  0  0
  3  4  2  0  0  0  0
  4 12  1  0  0  0  0
  4  5  1  0  0  0  0
  5 13  1  0  0  0  0
  6  7  2  0  0  0  0
  6  5  1  0  0  0  0
  8  3  1  0  0  0  0
  8  6  1  0  0  0  0
  8 16  1  0  0  0  0
  9  1  1  0  0  0  0
 10  2  1  0  0  0  0
 14  5  1  0  0  0  0
 15  8  1  0  0  0  0
M  END
