15
title
C 2.0847223 2.3138075 -0.009109566
C 1.9167032 0.7948575 -0.013778514
C 0.49112803 0.35683712 -0.0031656832
N -0.5510208 1.0829961 0.007881219
C -1.6807197 0.1626934 0.014572106
C -1.0655795 -1.232447 0.0043537593
O -1.5502409 -2.3190753 0.005805086
O 0.3087402 -1.0185233 -0.00594258
H 3.1461494 2.5748029 -0.017566504
H 1.6087834 2.7629795 -0.88397026
H 1.6246126 2.755832 0.87778383
H 2.396542 0.34372532 -0.8920257
H 2.411778 0.33658624 0.8522144
H -2.3091562 0.29921433 0.90150005
H -2.3244817 0.30521116 -0.8603359
