title
 OpenBabel02282109593D

 17 17  0  0  0  0  0  0  0  0999 V2000
   -1.0994    2.3023   -1.7982 C   0  0  0  0  0  0  0  0  0  0  0  0
   -1.0064    0.7809   -1.6855 C   0  0  0  0  0  0  0  0  0  0  0  0
   -0.2772    0.3157   -0.4610 C   0  0  0  0  0  0  0  0  0  0  0  0
    0.2382    1.0663    0.4364 N   0  0  0  0  0  0  0  0  0  0  0  0
    0.8404    0.1728    1.4325 C   0  0  0  0  0  0  0  0  0  0  0  0
    0.5837   -1.2538    0.9535 C   0  0  0  0  0  0  0  0  0  0  0  0
    0.9457   -2.3231    1.5353 N   0  0  0  0  0  0  0  0  0  0  0  0
   -0.1195   -1.0553   -0.2335 N   0  0  0  0  0  0  0  0  0  0  0  0
   -0.1041    2.7511   -1.8295 H   0  0  0  0  0  0  0  0  0  0  0  0
   -1.6398    2.5833   -2.7063 H   0  0  0  0  0  0  0  0  0  0  0  0
   -1.6195    2.7247   -0.9357 H   0  0  0  0  0  0  0  0  0  0  0  0
   -2.0098    0.3326   -1.6790 H   0  0  0  0  0  0  0  0  0  0  0  0
   -0.5028    0.3590   -2.5665 H   0  0  0  0  0  0  0  0  0  0  0  0
    1.9142    0.3666    1.5288 H   0  0  0  0  0  0  0  0  0  0  0  0
    0.3986    0.3397    2.4209 H   0  0  0  0  0  0  0  0  0  0  0  0
    0.6562   -3.1556    1.0190 H   0  0  0  0  0  0  0  0  0  0  0  0
   -0.4578   -1.7901   -0.8320 H   0  0  0  0  0  0  0  0  0  0  0  0
  1  2  1  0  0  0  0
  1 11  1  0  0  0  0
  2 12  1  0  0  0  0
  2  3  1  0  0  0  0
  3  8  1  0  0  0  0
  3  4  2  0  0  0  0
  4  5  1  0  0  0  0
  5 14  1  0  0  0  0
  5 15  1  0  0  0  0
  6  5  1  0  0  0  0
  6  7  2  0  0  0  0
  8  6  1  0  0  0  0
  9  1  1  0  0  0  0
 10  1  1  0  0  0  0
 13  2  1  0  0  0  0
 16  7  1  0  0  0  0
 17  8  1  0  0  0  0
M  END
