title
 OpenBabel02282109593D

 15 15  0  0  0  0  0  0  0  0999 V2000
    2.0545    2.1599   -0.0108 O   0  0  0  0  0  0  0  0  0  0  0  0
    2.0732    0.7424   -0.0155 C   0  0  0  0  0  0  0  0  0  0  0  0
    0.6700    0.2412   -0.0050 C   0  0  0  0  0  0  0  0  0  0  0  0
   -0.4473    0.9759    0.0063 C   0  0  0  0  0  0  0  0  0  0  0  0
   -1.5925    0.1610    0.0137 N   0  0  0  0  0  0  0  0  0  0  0  0
   -1.2657   -1.1814    0.0073 C   0  0  0  0  0  0  0  0  0  0  0  0
   -2.0407   -2.1092    0.0113 O   0  0  0  0  0  0  0  0  0  0  0  0
    0.2760   -1.2155   -0.0057 C   0  0  0  0  0  0  0  0  0  0  0  0
    2.9633    2.4722   -0.0175 H   0  0  0  0  0  0  0  0  0  0  0  0
    2.6027    0.3528   -0.9039 H   0  0  0  0  0  0  0  0  0  0  0  0
    2.6179    0.3472    0.8612 H   0  0  0  0  0  0  0  0  0  0  0  0
   -0.5438    2.0504    0.0101 H   0  0  0  0  0  0  0  0  0  0  0  0
   -2.5444    0.4864    0.0227 H   0  0  0  0  0  0  0  0  0  0  0  0
    0.6189   -1.7674   -0.8891 H   0  0  0  0  0  0  0  0  0  0  0  0
    0.6336   -1.7721    0.8689 H   0  0  0  0  0  0  0  0  0  0  0  0
  2  1  1  0  0  0  0
  2  3  1  0  0  0  0
  2 11  1  0  0  0  0
  3  4  2  0  0  0  0
  4 12  1  0  0  0  0
  4  5  1  0  0  0  0
  5 13  1  0  0  0  0
  6  7  2  0  0  0  0
  6  5  1  0  0  0  0
  8  3  1  0  0  0  0
  8  6  1  0  0  0  0
  8 15  1  0  0  0  0
  9  1  1  0  0  0  0
 10  2  1  0  0  0  0
 14  8  1  0  0  0  0
M  END
