17
title
C -2.0149903 1.8961877 -0.46977925
C -1.6188811 0.43024197 -0.42860729
C -0.68393016 -0.034562036 -1.58238
N 0.55702484 -0.4538886 -0.9189915
C 0.36844862 -0.2962702 0.32733995
C 1.4027718 -0.6125769 1.3654137
O 2.584055 -1.0935402 0.7818136
O -0.81700414 0.17869282 0.7655333
H -1.1277645 2.5332525 -0.5416033
H -2.647066 2.0873084 -1.3431967
H -2.5735831 2.1770363 0.42709917
H -2.5075238 -0.20257653 -0.3422354
H -1.1056014 -0.867971 -2.153612
H -0.47779858 0.77579254 -2.2913725
H 1.5949796 0.29831776 1.9534949
H 0.97820795 -1.3494807 2.0650425
H 2.423386 -1.103663 -0.17328618
