22
title
C -1.1774633 2.0897563 -1.9339892
C -1.3973694 0.587237 -1.6822615
C -0.6623366 0.06432849 -0.48249707
C -1.2011464 -0.4305665 0.6348149
C -0.16476512 -0.9159823 1.6172818
C 1.1558421 -0.31192672 1.0669826
C 2.398025 -1.1679598 1.3076974
C 0.85213876 -0.0184505 -0.42542645
H -0.12081433 2.3185213 -2.1045978
H -1.7353615 2.4223418 -2.814895
H -1.5124035 2.6809688 -1.0759299
H -2.4693427 0.39251995 -1.5631236
H -1.0778457 0.031538244 -2.5756907
H -2.268214 -0.5239158 0.8125436
H -0.36438388 -0.6067514 2.6502316
H -0.12479723 -2.0164745 1.6313709
H 1.2995086 0.6559429 1.5636655
H 2.2978716 -2.1477008 0.82588476
H 3.2976959 -0.69004756 0.90476173
H 2.5642872 -1.3390887 2.3769119
H 1.2085495 -0.8338379 -1.0749313
H 1.353529 0.8900181 -0.77877986
