title
 OpenBabel02282109593D

 18 18  0  0  1  0  0  0  0  0999 V2000
    1.7636    2.2426   -0.0390 C   0  0  0  0  0  0  0  0  0  0  0  0
    1.6879    0.8291    0.1625 O   0  0  0  0  0  0  0  0  0  0  0  0
    0.4504    0.3322    0.2274 C   0  0  0  0  0  0  0  0  0  0  0  0
   -0.6397    0.9899    0.1221 N   0  0  0  0  0  0  0  0  0  0  0  0
   -1.7060   -0.0090    0.2752 C   0  0  0  0  0  0  0  0  0  0  0  0
   -1.0175   -1.4063    0.1511 C   0  0  1  0  0  0  0  0  0  0  0  0
   -1.1610   -2.0249   -1.2411 C   0  0  0  0  0  0  0  0  0  0  0  0
    0.3728   -1.0338    0.4668 N   0  0  0  0  0  0  0  0  0  0  0  0
    2.8273    2.4817   -0.0666 H   0  0  0  0  0  0  0  0  0  0  0  0
    1.2813    2.5243   -0.9790 H   0  0  0  0  0  0  0  0  0  0  0  0
    1.2703    2.7740    0.7789 H   0  0  0  0  0  0  0  0  0  0  0  0
   -2.1862    0.1064    1.2557 H   0  0  0  0  0  0  0  0  0  0  0  0
   -2.4835    0.1279   -0.4846 H   0  0  0  0  0  0  0  0  0  0  0  0
   -1.3951   -2.1053    0.9041 H   0  0  0  0  0  0  0  0  0  0  0  0
   -0.8334   -1.3194   -2.0122 H   0  0  0  0  0  0  0  0  0  0  0  0
   -0.5667   -2.9408   -1.3355 H   0  0  0  0  0  0  0  0  0  0  0  0
   -2.2062   -2.2850   -1.4386 H   0  0  0  0  0  0  0  0  0  0  0  0
    1.1156   -1.5994    0.0783 H   0  0  0  0  0  0  0  0  0  0  0  0
  1  2  1  0  0  0  0
  1 11  1  0  0  0  0
  2  3  1  0  0  0  0
  3  8  1  0  0  0  0
  4  3  2  0  0  0  0
  4  5  1  0  0  0  0
  5 12  1  0  0  0  0
  6  5  1  0  0  0  0
  6  8  1  0  0  0  0
  6 14  1  1  0  0  0
  7  6  1  0  0  0  0
  9  1  1  0  0  0  0
 10  1  1  0  0  0  0
 13  5  1  0  0  0  0
 15  7  1  0  0  0  0
 16  7  1  0  0  0  0
 17  7  1  0  0  0  0
 18  8  1  0  0  0  0
M  END
