title
 OpenBabel02282109593D

 20 20  0  0  1  0  0  0  0  0999 V2000
   -1.2377    2.8231   -0.3126 C   0  0  0  0  0  0  0  0  0  0  0  0
   -1.1243    1.3002   -0.3436 C   0  0  1  0  0  0  0  0  0  0  0  0
   -0.3286    0.7311   -1.5499 C   0  0  0  0  0  0  0  0  0  0  0  0
    0.3181   -0.5112   -0.9880 C   0  0  0  0  0  0  0  0  0  0  0  0
    0.2617   -0.5453    0.3437 C   0  0  0  0  0  0  0  0  0  0  0  0
    0.8315   -1.5897    1.2459 C   0  0  0  0  0  0  0  0  0  0  0  0
    1.4855   -2.5879    0.4829 O   0  0  0  0  0  0  0  0  0  0  0  0
   -0.4351    0.6782    0.9004 C   0  0  0  0  0  0  0  0  0  0  0  0
   -0.2471    3.2893   -0.2544 H   0  0  0  0  0  0  0  0  0  0  0  0
   -1.7315    3.2040   -1.2132 H   0  0  0  0  0  0  0  0  0  0  0  0
   -1.8169    3.1648    0.5523 H   0  0  0  0  0  0  0  0  0  0  0  0
   -2.1354    0.8774   -0.3964 H   0  0  0  0  0  0  0  0  0  0  0  0
   -0.9727    0.5320   -2.4147 H   0  0  0  0  0  0  0  0  0  0  0  0
    0.4347    1.4448   -1.8973 H   0  0  0  0  0  0  0  0  0  0  0  0
    0.8057   -1.2613   -1.5978 H   0  0  0  0  0  0  0  0  0  0  0  0
    1.5260   -1.1105    1.9604 H   0  0  0  0  0  0  0  0  0  0  0  0
    0.0188   -2.0213    1.8582 H   0  0  0  0  0  0  0  0  0  0  0  0
    1.8184   -3.2558    1.0886 H   0  0  0  0  0  0  0  0  0  0  0  0
    0.2984    1.3723    1.3404 H   0  0  0  0  0  0  0  0  0  0  0  0
   -1.1495    0.4444    1.7000 H   0  0  0  0  0  0  0  0  0  0  0  0
  1  9  1  0  0  0  0
  1 11  1  0  0  0  0
  2 12  1  6  0  0  0
  2  1  1  0  0  0  0
  2  8  1  0  0  0  0
  3  4  1  0  0  0  0
  3  2  1  0  0  0  0
  4  5  2  0  0  0  0
  5  8  1  0  0  0  0
  5  6  1  0  0  0  0
  6 17  1  0  0  0  0
  6 16  1  0  0  0  0
  7 18  1  0  0  0  0
  7  6  1  0  0  0  0
  8 19  1  0  0  0  0
  8 20  1  0  0  0  0
 10  1  1  0  0  0  0
 13  3  1  0  0  0  0
 14  3  1  0  0  0  0
 15  4  1  0  0  0  0
M  END
