18
title
C -0.10142867 2.6636124 1.7606442
C -0.09385116 1.133491 1.7018759
C 0.5476873 0.5503451 0.42568222
C 0.6256944 -0.9924212 0.4143298
C -0.056292295 -1.4439256 -0.88746226
O -0.16050756 -2.582879 -1.2791322
C -0.5526495 -0.21673504 -1.5531548
C -0.22026104 0.8657018 -0.8409525
H 0.91368306 3.0678327 1.6773258
H -0.70055413 3.1021998 0.9562124
H -0.5211242 3.015007 2.707915
H 0.45728883 0.7421373 2.5655553
H -1.1183689 0.7498393 1.7909372
H 1.5544558 0.9845501 0.3392084
H 1.6488738 -1.3768919 0.44713858
H 0.0943513 -1.4377112 1.2622688
H -1.0959432 -0.24299827 -2.4892564
H -0.45931584 1.886611 -1.120344
