title
 OpenBabel02282109593D

 13 13  0  0  0  0  0  0  0  0999 V2000
    1.9786    2.1588   -0.0082 O   0  0  0  0  0  0  0  0  0  0  0  0
    1.8893    0.7590   -0.0143 C   0  0  0  0  0  0  0  0  0  0  0  0
    0.4500    0.3514   -0.0033 C   0  0  0  0  0  0  0  0  0  0  0  0
   -0.5848    1.0807    0.0068 N   0  0  0  0  0  0  0  0  0  0  0  0
   -1.7126    0.1558    0.0141 C   0  0  0  0  0  0  0  0  0  0  0  0
   -1.0980   -1.2393    0.0058 C   0  0  0  0  0  0  0  0  0  0  0  0
   -1.5776   -2.3273    0.0072 O   0  0  0  0  0  0  0  0  0  0  0  0
    0.2797   -1.0234   -0.0050 O   0  0  0  0  0  0  0  0  0  0  0  0
    2.9103    2.3957   -0.0234 H   0  0  0  0  0  0  0  0  0  0  0  0
    2.3539    0.3011   -0.9037 H   0  0  0  0  0  0  0  0  0  0  0  0
    2.3698    0.2924    0.8620 H   0  0  0  0  0  0  0  0  0  0  0  0
   -2.3407    0.2941    0.9007 H   0  0  0  0  0  0  0  0  0  0  0  0
   -2.3554    0.2981   -0.8613 H   0  0  0  0  0  0  0  0  0  0  0  0
  2  1  1  0  0  0  0
  2  3  1  0  0  0  0
  2 11  1  0  0  0  0
  3  4  2  0  0  0  0
  4  5  1  0  0  0  0
  5 12  1  0  0  0  0
  6  7  2  0  0  0  0
  6  5  1  0  0  0  0
  8  3  1  0  0  0  0
  8  6  1  0  0  0  0
  9  1  1  0  0  0  0
 10  2  1  0  0  0  0
 13  5  1  0  0  0  0
M  END
