title
 OpenBabel02282109593D

 17 17  0  0  1  0  0  0  0  0999 V2000
    1.6240    2.3654    0.8882 C   0  0  0  0  0  0  0  0  0  0  0  0
    1.5940    0.8362    0.9507 C   0  0  0  0  0  0  0  0  0  0  0  0
    0.1714    0.2508    0.8811 C   0  0  1  0  0  0  0  0  0  0  0  0
   -0.5054    0.5023   -0.3764 N   0  0  0  0  0  0  0  0  0  0  0  0
   -0.9670   -0.6442   -0.9948 C   0  0  0  0  0  0  0  0  0  0  0  0
   -1.6228   -0.6992   -2.0132 O   0  0  0  0  0  0  0  0  0  0  0  0
   -0.4793   -1.7621   -0.1298 C   0  0  0  0  0  0  0  0  0  0  0  0
    0.1474   -1.2592    0.9337 C   0  0  0  0  0  0  0  0  0  0  0  0
    2.6479    2.7403    0.9742 H   0  0  0  0  0  0  0  0  0  0  0  0
    1.2199    2.7336   -0.0605 H   0  0  0  0  0  0  0  0  0  0  0  0
    1.0375    2.8094    1.7006 H   0  0  0  0  0  0  0  0  0  0  0  0
    2.1825    0.4112    0.1300 H   0  0  0  0  0  0  0  0  0  0  0  0
    2.0546    0.4962    1.8866 H   0  0  0  0  0  0  0  0  0  0  0  0
   -0.4101    0.6593    1.7249 H   0  0  0  0  0  0  0  0  0  0  0  0
   -0.8237    1.4097   -0.6712 H   0  0  0  0  0  0  0  0  0  0  0  0
   -0.6529   -2.7986   -0.3812 H   0  0  0  0  0  0  0  0  0  0  0  0
    0.6141   -1.8051    1.7441 H   0  0  0  0  0  0  0  0  0  0  0  0
  1  2  1  0  0  0  0
  1  9  1  0  0  0  0
  1 11  1  0  0  0  0
  2 13  1  0  0  0  0
  3  8  1  0  0  0  0
  3  2  1  0  0  0  0
  3 14  1  1  0  0  0
  4  3  1  0  0  0  0
  5  4  1  0  0  0  0
  5  7  1  0  0  0  0
  6  5  2  0  0  0  0
  7  8  2  0  0  0  0
  8 17  1  0  0  0  0
 10  1  1  0  0  0  0
 12  2  1  0  0  0  0
 15  4  1  0  0  0  0
 16  7  1  0  0  0  0
M  END
