20
title
C -1.4819162 2.6070528 0.24213448
C -1.422175 1.0757407 0.27103937
C -0.6616765 0.45123807 -0.930967
C 0.099560626 -0.77806526 -0.3722058
C 1.4746884 -0.97502154 -1.0043914
O 2.0483391 -2.1512492 -0.45119685
C 0.13797785 -0.49647364 1.1137441
C -0.6775553 0.4979864 1.4564533
H -0.47365582 3.0360918 0.24153051
H -2.001483 2.9649012 -0.65330625
H -2.0137446 3.0012343 1.1148406
H -2.4580412 0.7020406 0.28666392
H -1.3215104 0.19926491 -1.7655565
H 0.06538654 1.1837423 -1.3063335
H -0.46463305 -1.7047069 -0.55520743
H 1.369938 -1.0596261 -2.0986426
H 2.099436 -0.090533815 -0.798509
H 2.9365993 -2.249843 -0.80556536
H 0.74972594 -1.0831108 1.7888799
H -0.8395815 0.85663486 2.4683473
