15
title
O 1.542343 2.1456723 0.7503646
C 1.5458366 0.7432522 0.89228845
C 0.120671645 0.18116954 0.9171462
O -0.5202583 0.53014433 -0.3258285
C -0.93449295 -0.61256003 -0.97716826
N -1.5205945 -0.64313734 -2.0978944
C -0.5747906 -1.7597986 -0.13303404
C 0.025394814 -1.3157781 0.9711695
H 1.0513803 2.3401942 -0.05642073
H 2.1062539 0.2454707 0.08576389
H 2.0445375 0.51893324 1.841324
H -0.4343278 0.6707585 1.729172
H -1.6484662 0.3002967 -2.4663153
H -0.79621255 -2.7767687 -0.42047888
H 0.40817752 -1.9010514 1.796735
