title
 OpenBabel02282109593D

 16 16  0  0  1  0  0  0  0  0999 V2000
   -0.3839    2.7682    1.1985 C   0  0  0  0  0  0  0  0  0  0  0  0
   -0.1932    1.3759    1.3188 O   0  0  0  0  0  0  0  0  0  0  0  0
    0.3368    0.7577    0.1579 C   0  0  1  0  0  0  0  0  0  0  0  0
    0.8510   -0.6477    0.5011 C   0  0  0  0  0  0  0  0  0  0  0  0
    0.2444   -1.5774   -0.5587 C   0  0  0  0  0  0  0  0  0  0  0  0
    0.5213   -2.7400   -0.7328 O   0  0  0  0  0  0  0  0  0  0  0  0
   -0.7414   -0.7680   -1.3201 C   0  0  0  0  0  0  0  0  0  0  0  0
   -0.7050    0.5065   -0.9204 C   0  0  0  0  0  0  0  0  0  0  0  0
    0.5547    3.2841    0.9427 H   0  0  0  0  0  0  0  0  0  0  0  0
   -1.1373    3.0295    0.4408 H   0  0  0  0  0  0  0  0  0  0  0  0
   -0.7320    3.1284    2.1692 H   0  0  0  0  0  0  0  0  0  0  0  0
    1.1439    1.3897   -0.2497 H   0  0  0  0  0  0  0  0  0  0  0  0
    1.9388   -0.7377    0.5246 H   0  0  0  0  0  0  0  0  0  0  0  0
    0.4707   -0.9326    1.4869 H   0  0  0  0  0  0  0  0  0  0  0  0
   -1.3756   -1.1985   -2.0851 H   0  0  0  0  0  0  0  0  0  0  0  0
   -1.3272    1.3055   -1.3086 H   0  0  0  0  0  0  0  0  0  0  0  0
  1  2  1  0  0  0  0
  1 11  1  0  0  0  0
  3 12  1  6  0  0  0
  3  4  1  0  0  0  0
  3  2  1  0  0  0  0
  4 13  1  0  0  0  0
  4 14  1  0  0  0  0
  5  4  1  0  0  0  0
  6  5  2  0  0  0  0
  7  8  2  0  0  0  0
  7  5  1  0  0  0  0
  8  3  1  0  0  0  0
  9  1  1  0  0  0  0
 10  1  1  0  0  0  0
 15  7  1  0  0  0  0
 16  8  1  0  0  0  0
M  END
