title
 OpenBabel02282109593D

 15 15  0  0  1  0  0  0  0  0999 V2000
    1.5423    2.1457    0.7504 O   0  0  0  0  0  0  0  0  0  0  0  0
    1.5458    0.7433    0.8923 C   0  0  0  0  0  0  0  0  0  0  0  0
    0.1207    0.1812    0.9171 C   0  0  1  0  0  0  0  0  0  0  0  0
   -0.5203    0.5301   -0.3258 O   0  0  0  0  0  0  0  0  0  0  0  0
   -0.9345   -0.6126   -0.9772 C   0  0  0  0  0  0  0  0  0  0  0  0
   -1.5206   -0.6431   -2.0979 N   0  0  0  0  0  0  0  0  0  0  0  0
   -0.5748   -1.7598   -0.1330 C   0  0  0  0  0  0  0  0  0  0  0  0
    0.0254   -1.3158    0.9712 C   0  0  0  0  0  0  0  0  0  0  0  0
    1.0514    2.3402   -0.0564 H   0  0  0  0  0  0  0  0  0  0  0  0
    2.1063    0.2455    0.0858 H   0  0  0  0  0  0  0  0  0  0  0  0
    2.0445    0.5189    1.8413 H   0  0  0  0  0  0  0  0  0  0  0  0
   -0.4343    0.6708    1.7292 H   0  0  0  0  0  0  0  0  0  0  0  0
   -1.6485    0.3003   -2.4663 H   0  0  0  0  0  0  0  0  0  0  0  0
   -0.7962   -2.7768   -0.4205 H   0  0  0  0  0  0  0  0  0  0  0  0
    0.4082   -1.9011    1.7967 H   0  0  0  0  0  0  0  0  0  0  0  0
  1  2  1  0  0  0  0
  2  3  1  0  0  0  0
  2 11  1  0  0  0  0
  3  8  1  0  0  0  0
  3 12  1  1  0  0  0
  4  3  1  0  0  0  0
  5  4  1  0  0  0  0
  5  7  1  0  0  0  0
  6  5  2  0  0  0  0
  7  8  2  0  0  0  0
  8 15  1  0  0  0  0
  9  1  1  0  0  0  0
 10  2  1  0  0  0  0
 13  6  1  0  0  0  0
 14  7  1  0  0  0  0
M  END
