14
title
C 1.3240013 2.343042 0.7216926
O 1.342739 0.9251785 0.8386755
C 0.08673296 0.3464927 0.83860093
O -0.5641159 0.47289363 -0.4347878
C -0.8221352 -0.7728438 -0.9568332
O -1.3608818 -0.9342659 -2.0122802
C -0.32715133 -1.7782438 0.022580337
C 0.20376834 -1.1404796 1.0593938
H 2.3593705 2.6769183 0.8056579
H 0.9142137 2.6559784 -0.24442153
H 0.73033595 2.797279 1.5281192
H -0.5714581 0.83952785 1.5733585
H -0.4096203 -2.8396876 -0.15860717
H 0.67542076 -1.5516675 1.9412526
