16
title
O 1.3571668 2.5246835 -0.70062613
C 1.4799683 1.1139541 -0.78182244
C 0.07167277 0.51973337 -0.69955134
C 0.043139547 -1.0202483 -0.7523726
C -0.73107773 -1.4652294 0.502454
O -1.0067048 -2.6046026 0.7966606
C -1.0560648 -0.23474318 1.2607095
C -0.617534 0.846659 0.60683674
H 2.2380652 2.909671 -0.7144481
H 1.9495245 0.80452245 -1.7286155
H 2.0935566 0.7139289 0.041522637
H -0.5020682 0.95970595 -1.5258223
H -0.44156924 -1.4172736 -1.6479975
H 1.0469998 -1.4583966 -0.71694297
H -1.5807631 -0.259484 2.207319
H -0.71583086 1.8740661 0.93716806
