title
 OpenBabel02282109593D

 20 20  0  0  1  0  0  0  0  0999 V2000
   -1.4819    2.6071    0.2421 C   0  0  0  0  0  0  0  0  0  0  0  0
   -1.4222    1.0757    0.2710 C   0  0  1  0  0  0  0  0  0  0  0  0
   -0.6617    0.4512   -0.9310 C   0  0  0  0  0  0  0  0  0  0  0  0
    0.0996   -0.7781   -0.3722 C   0  0  1  0  0  0  0  0  0  0  0  0
    1.4747   -0.9750   -1.0044 C   0  0  0  0  0  0  0  0  0  0  0  0
    2.0483   -2.1512   -0.4512 O   0  0  0  0  0  0  0  0  0  0  0  0
    0.1380   -0.4965    1.1137 C   0  0  0  0  0  0  0  0  0  0  0  0
   -0.6776    0.4980    1.4565 C   0  0  0  0  0  0  0  0  0  0  0  0
   -0.4737    3.0361    0.2415 H   0  0  0  0  0  0  0  0  0  0  0  0
   -2.0015    2.9649   -0.6533 H   0  0  0  0  0  0  0  0  0  0  0  0
   -2.0137    3.0012    1.1148 H   0  0  0  0  0  0  0  0  0  0  0  0
   -2.4580    0.7020    0.2867 H   0  0  0  0  0  0  0  0  0  0  0  0
   -1.3215    0.1993   -1.7656 H   0  0  0  0  0  0  0  0  0  0  0  0
    0.0654    1.1837   -1.3063 H   0  0  0  0  0  0  0  0  0  0  0  0
   -0.4646   -1.7047   -0.5552 H   0  0  0  0  0  0  0  0  0  0  0  0
    1.3699   -1.0596   -2.0986 H   0  0  0  0  0  0  0  0  0  0  0  0
    2.0994   -0.0905   -0.7985 H   0  0  0  0  0  0  0  0  0  0  0  0
    2.9366   -2.2498   -0.8056 H   0  0  0  0  0  0  0  0  0  0  0  0
    0.7497   -1.0831    1.7889 H   0  0  0  0  0  0  0  0  0  0  0  0
   -0.8396    0.8566    2.4683 H   0  0  0  0  0  0  0  0  0  0  0  0
  1  2  1  0  0  0  0
  1 11  1  0  0  0  0
  2 12  1  1  0  0  0
  2  8  1  0  0  0  0
  3  4  1  0  0  0  0
  3  2  1  0  0  0  0
  4 15  1  6  0  0  0
  4  7  1  0  0  0  0
  5 17  1  0  0  0  0
  5  6  1  0  0  0  0
  5  4  1  0  0  0  0
  7  8  2  0  0  0  0
  7 19  1  0  0  0  0
  8 20  1  0  0  0  0
  9  1  1  0  0  0  0
 10  1  1  0  0  0  0
 13  3  1  0  0  0  0
 14  3  1  0  0  0  0
 16  5  1  0  0  0  0
 18  6  1  0  0  0  0
M  END
