title
 OpenBabel02282109593D

 16 16  0  0  1  0  0  0  0  0999 V2000
    1.5433    2.3493    0.8025 C   0  0  0  0  0  0  0  0  0  0  0  0
    1.5626    0.8224    0.9030 C   0  0  0  0  0  0  0  0  0  0  0  0
    0.1581    0.2092    0.9009 C   0  0  1  0  0  0  0  0  0  0  0  0
   -0.5215    0.5252   -0.3213 O   0  0  0  0  0  0  0  0  0  0  0  0
   -0.9161   -0.6266   -0.9613 C   0  0  0  0  0  0  0  0  0  0  0  0
   -1.4996   -0.6162   -2.0073 O   0  0  0  0  0  0  0  0  0  0  0  0
   -0.4827   -1.7691   -0.1191 C   0  0  0  0  0  0  0  0  0  0  0  0
    0.1322   -1.2928    0.9608 C   0  0  0  0  0  0  0  0  0  0  0  0
    2.5606    2.7506    0.7894 H   0  0  0  0  0  0  0  0  0  0  0  0
    1.0362    2.6691   -0.1111 H   0  0  0  0  0  0  0  0  0  0  0  0
    1.0179    2.7955    1.6541 H   0  0  0  0  0  0  0  0  0  0  0  0
    2.1261    0.3898    0.0684 H   0  0  0  0  0  0  0  0  0  0  0  0
    2.0656    0.5069    1.8258 H   0  0  0  0  0  0  0  0  0  0  0  0
   -0.4276    0.6429    1.7252 H   0  0  0  0  0  0  0  0  0  0  0  0
   -0.6708   -2.7940   -0.4027 H   0  0  0  0  0  0  0  0  0  0  0  0
    0.5709   -1.8512    1.7780 H   0  0  0  0  0  0  0  0  0  0  0  0
  1  2  1  0  0  0  0
  1 11  1  0  0  0  0
  2 13  1  0  0  0  0
  3  2  1  0  0  0  0
  3  8  1  0  0  0  0
  3 14  1  1  0  0  0
  4  3  1  0  0  0  0
  5  4  1  0  0  0  0
  5  7  1  0  0  0  0
  6  5  2  0  0  0  0
  7  8  2  0  0  0  0
  8 16  1  0  0  0  0
  9  1  1  0  0  0  0
 10  1  1  0  0  0  0
 12  2  1  0  0  0  0
 15  7  1  0  0  0  0
M  END
