title
 OpenBabel02282109593D

 18 18  0  0  1  0  0  0  0  0999 V2000
   -0.9328    2.3100    0.2514 C   0  0  0  0  0  0  0  0  0  0  0  0
   -1.2353    0.8348    0.5147 C   0  0  1  0  0  0  0  0  0  0  0  0
   -0.6996    0.0192   -0.5388 O   0  0  0  0  0  0  0  0  0  0  0  0
    0.1697   -0.9948   -0.0123 C   0  0  1  0  0  0  0  0  0  0  0  0
    1.5337   -0.8497   -0.6963 C   0  0  0  0  0  0  0  0  0  0  0  0
    1.3987   -0.9001   -2.1007 O   0  0  0  0  0  0  0  0  0  0  0  0
    0.1721   -0.7561    1.4708 C   0  0  0  0  0  0  0  0  0  0  0  0
   -0.6112    0.2743    1.7662 C   0  0  0  0  0  0  0  0  0  0  0  0
    0.1461    2.4904    0.2579 H   0  0  0  0  0  0  0  0  0  0  0  0
   -1.3318    2.6074   -0.7225 H   0  0  0  0  0  0  0  0  0  0  0  0
   -1.3977    2.9394    1.0176 H   0  0  0  0  0  0  0  0  0  0  0  0
   -2.3299    0.7004    0.5315 H   0  0  0  0  0  0  0  0  0  0  0  0
   -0.2431   -1.9815   -0.2776 H   0  0  0  0  0  0  0  0  0  0  0  0
    1.9973    0.0934   -0.3636 H   0  0  0  0  0  0  0  0  0  0  0  0
    2.1939   -1.6741   -0.4040 H   0  0  0  0  0  0  0  0  0  0  0  0
    0.6968   -0.2726   -2.3139 H   0  0  0  0  0  0  0  0  0  0  0  0
    0.7470   -1.3572    2.1640 H   0  0  0  0  0  0  0  0  0  0  0  0
   -0.8059    0.6832    2.7499 H   0  0  0  0  0  0  0  0  0  0  0  0
  1  9  1  0  0  0  0
  1  2  1  0  0  0  0
  1 11  1  0  0  0  0
  2 12  1  1  0  0  0
  2  8  1  0  0  0  0
  3  4  1  0  0  0  0
  3  2  1  0  0  0  0
  4 13  1  6  0  0  0
  4  7  1  0  0  0  0
  5 15  1  0  0  0  0
  5 14  1  0  0  0  0
  5  4  1  0  0  0  0
  6  5  1  0  0  0  0
  7  8  2  0  0  0  0
  7 17  1  0  0  0  0
  8 18  1  0  0  0  0
 10  1  1  0  0  0  0
 16  6  1  0  0  0  0
M  END
