18
title
C -0.93276745 2.309991 0.2513723
C -1.2352818 0.834771 0.51468956
O -0.69961935 0.019213911 -0.5388262
C 0.16969733 -0.99481875 -0.012290479
C 1.5336932 -0.8496662 -0.6962812
O 1.3987075 -0.90006465 -2.1007173
C 0.17205672 -0.7561484 1.4707927
C -0.6111542 0.2742871 1.7661635
H 0.14611928 2.4903846 0.2579096
H -1.3317615 2.6074402 -0.72253597
H -1.397668 2.9393673 1.0176479
H -2.32987 0.70041406 0.53150076
H -0.24306233 -1.9814614 -0.27757215
H 1.9973115 0.093411796 -0.3635977
H 2.193949 -1.6740879 -0.40400022
H 0.69678384 -0.2726125 -2.313892
H 0.7469923 -1.3571502 2.1640165
H -0.80587256 0.6832028 2.74987
