20
title
C -0.39717054 2.3013773 -1.7025827
C -0.26371965 0.77781796 -1.7582314
C 0.67231274 0.22634348 -0.6760414
O 0.18341923 0.57132334 0.6251647
C 0.0907844 -0.5853313 1.4640875
C -1.3036895 -0.67091906 2.0846257
C 0.45363784 -1.7321855 0.55646724
C 0.78301424 -1.2751082 -0.6448831
H 0.5714859 2.7886736 -1.8617904
H -1.0856532 2.6668837 -2.470416
H -0.77264166 2.6149483 -0.72509915
H -1.245677 0.3053131 -1.6366104
H 0.12246245 0.4668219 -2.737865
H 1.6672891 0.688038 -0.8140077
H 0.8290837 -0.4910384 2.279902
H -2.0626473 -0.8003638 1.3076055
H -1.3648783 -1.5147651 2.7802238
H -1.5245141 0.24614891 2.6381354
H 0.44154006 -2.7651057 0.881797
H 1.0938452 -1.8583323 -1.5028572
