18
title
C -0.9243202 2.098288 1.4131478
O -0.21713655 0.88992393 1.2431074
C 0.61244863 0.8517719 0.07453819
C 1.3541888 -0.4934879 0.086954795
C 0.4172498 -1.4528983 -0.6805375
O -0.5002076 -2.1409645 0.16548893
C -0.31177625 -0.5023355 -1.6145139
C -0.21104811 0.7607595 -1.201488
H -0.24441762 2.9644454 1.42415
H -1.6761837 2.2587574 0.62707895
H -1.434822 2.0408618 2.37768
H 1.288222 1.7196337 0.09238454
H 2.3031468 -0.38925272 -0.44767419
H 1.5577492 -0.84005386 1.1018105
H 0.9649503 -2.2396233 -1.2071614
H -0.94204503 -1.460002 0.6893307
H -0.9000079 -0.85416967 -2.4547439
H -0.6928099 1.6172044 -1.6594121
