19
title
C 1.7802138 2.3444867 -0.87948483
C 1.7335572 0.8137793 -0.9057491
C 0.32319152 0.22989117 -0.8029654
C 0.2805071 -1.3163431 -0.8745443
C -0.9265709 -1.7114394 -0.011235763
C -1.0987246 -0.53908145 0.9605378
O -1.7982752 -0.49534717 1.9480493
N -0.31384587 0.480525 0.48411286
H 2.804142 2.7081103 -1.0058445
H 1.1725825 2.7748742 -1.6832583
H 1.4109403 2.7457337 0.070748694
H 2.1778202 0.45171198 -1.841699
H 2.3400698 0.40498787 -0.088261895
H -0.28749728 0.6551201 -1.6174208
H 0.22095478 -1.6713836 -1.9056097
H 1.2019793 -1.7165458 -0.43795317
H -1.8477702 -1.7912517 -0.60023093
H -0.8080635 -2.6497722 0.5332284
H -0.4114046 1.4026911 0.8790157
