title
 OpenBabel02282109593D

 22 22  0  0  1  0  0  0  0  0999 V2000
    0.7876    2.9410    1.1388 C   0  0  0  0  0  0  0  0  0  0  0  0
    1.1569    1.4568    1.0525 C   0  0  0  0  0  0  0  0  0  0  0  0
    0.0071    0.5587    0.5880 C   0  0  1  0  0  0  0  0  0  0  0  0
   -0.5011    0.8330   -0.8564 C   0  0  0  0  0  0  0  0  0  0  0  0
   -0.8960   -0.5356   -1.3519 C   0  0  0  0  0  0  0  0  0  0  0  0
   -0.4449   -1.5181   -0.5691 C   0  0  0  0  0  0  0  0  0  0  0  0
   -0.6027   -2.9914   -0.7754 C   0  0  0  0  0  0  0  0  0  0  0  0
    0.3386   -0.9568    0.5999 C   0  0  0  0  0  0  0  0  0  0  0  0
    1.6335    3.5413    1.4885 H   0  0  0  0  0  0  0  0  0  0  0  0
    0.4822    3.3360    0.1641 H   0  0  0  0  0  0  0  0  0  0  0  0
   -0.0438    3.1009    1.8348 H   0  0  0  0  0  0  0  0  0  0  0  0
    2.0077    1.3283    0.3690 H   0  0  0  0  0  0  0  0  0  0  0  0
    1.5040    1.1132    2.0360 H   0  0  0  0  0  0  0  0  0  0  0  0
   -0.8427    0.7128    1.2662 H   0  0  0  0  0  0  0  0  0  0  0  0
   -1.3260    1.5544   -0.8805 H   0  0  0  0  0  0  0  0  0  0  0  0
    0.2958    1.2616   -1.4846 H   0  0  0  0  0  0  0  0  0  0  0  0
   -1.4525   -0.6879   -2.2715 H   0  0  0  0  0  0  0  0  0  0  0  0
   -1.1782   -3.2151   -1.6781 H   0  0  0  0  0  0  0  0  0  0  0  0
    0.3734   -3.4865   -0.8637 H   0  0  0  0  0  0  0  0  0  0  0  0
   -1.1098   -3.4610    0.0775 H   0  0  0  0  0  0  0  0  0  0  0  0
    1.4162   -1.1343    0.4557 H   0  0  0  0  0  0  0  0  0  0  0  0
    0.0804   -1.4330    1.5542 H   0  0  0  0  0  0  0  0  0  0  0  0
  1  9  1  0  0  0  0
  1 11  1  0  0  0  0
  2  1  1  0  0  0  0
  2 13  1  0  0  0  0
  3  8  1  0  0  0  0
  3  2  1  0  0  0  0
  3 14  1  1  0  0  0
  4  3  1  0  0  0  0
  5  4  1  0  0  0  0
  5  6  2  0  0  0  0
  6  8  1  0  0  0  0
  7  6  1  0  0  0  0
  7 20  1  0  0  0  0
  8 22  1  0  0  0  0
 10  1  1  0  0  0  0
 12  2  1  0  0  0  0
 15  4  1  0  0  0  0
 16  4  1  0  0  0  0
 17  5  1  0  0  0  0
 18  7  1  0  0  0  0
 19  7  1  0  0  0  0
 21  8  1  0  0  0  0
M  END
