17
title
C -1.6272589 2.1802614 -0.41208225
O -1.558521 0.7637351 -0.43612748
C -0.78194094 0.2151643 0.57437915
C -0.8077128 -1.3215727 0.46538314
N 0.5182596 -1.6941053 -0.037098277
C 1.2083968 -0.628569 -0.043903846
C 2.6319358 -0.4891802 -0.45857534
O 0.6149815 0.53106624 0.3853816
H -0.64438987 2.632412 -0.58709073
H -2.311146 2.4783683 -1.2090911
H -2.0176222 2.5426865 0.5506144
H -1.064353 0.6298213 1.5512632
H -0.99082166 -1.8017641 1.4325829
H -1.5953636 -1.6333171 -0.22594664
H 3.0240715 -1.4612125 -0.7556512
H 2.716263 0.21330637 -1.293729
H 3.229121 -0.08735931 0.36614642
