19
title
C -0.37534603 2.210591 1.9004453
C -0.33566055 0.68212295 1.8401855
C 0.6021228 0.13656923 0.7691733
C 0.59851193 -1.4101456 0.625006
N 0.102876626 -1.6730467 -0.7319729
C -0.09770147 -0.53865284 -1.2677467
C -0.6026951 -0.28839263 -2.6478562
O 0.16524152 0.5854793 -0.5426149
H 0.61388695 2.6228435 2.128693
H -0.6975793 2.6265233 0.9421111
H -1.0676003 2.5564182 2.6737626
H -0.010880301 0.27286586 2.8058147
H -1.3407422 0.28202027 1.6547341
H 1.6119497 0.53657466 0.91672
H 1.5953692 -1.846408 0.7505756
H -0.057625525 -1.8853258 1.3643154
H -0.77689904 -1.2378732 -3.152659
H -1.5334616 0.2865316 -2.6128173
H 0.12275725 0.30315703 -3.215156
