title
 OpenBabel02282109593D

 16 16  0  0  1  0  0  0  0  0999 V2000
    0.3796    2.2062    1.6122 C   0  0  0  0  0  0  0  0  0  0  0  0
    0.3394    0.7895    1.5705 O   0  0  0  0  0  0  0  0  0  0  0  0
    0.8701    0.2389    0.4135 C   0  0  1  0  0  0  0  0  0  0  0  0
    0.8165   -1.3016    0.4998 C   0  0  0  0  0  0  0  0  0  0  0  0
   -0.2650   -1.7007   -0.4001 N   0  0  0  0  0  0  0  0  0  0  0  0
   -0.6013   -0.6417   -1.0218 C   0  0  0  0  0  0  0  0  0  0  0  0
   -1.5144   -0.5346   -2.0359 N   0  0  0  0  0  0  0  0  0  0  0  0
    0.0371    0.5331   -0.7315 O   0  0  0  0  0  0  0  0  0  0  0  0
    1.4085    2.5785    1.4971 H   0  0  0  0  0  0  0  0  0  0  0  0
   -0.2449    2.6494    0.8277 H   0  0  0  0  0  0  0  0  0  0  0  0
   -0.0008    2.5065    2.5905 H   0  0  0  0  0  0  0  0  0  0  0  0
    1.8550    0.6714    0.1931 H   0  0  0  0  0  0  0  0  0  0  0  0
    1.7670   -1.7551    0.1939 H   0  0  0  0  0  0  0  0  0  0  0  0
    0.6138   -1.6025    1.5319 H   0  0  0  0  0  0  0  0  0  0  0  0
   -2.1381   -1.3240   -2.1032 H   0  0  0  0  0  0  0  0  0  0  0  0
   -1.9632    0.3649   -2.1154 H   0  0  0  0  0  0  0  0  0  0  0  0
  1 11  1  0  0  0  0
  2  1  1  0  0  0  0
  3 12  1  6  0  0  0
  3  4  1  0  0  0  0
  3  2  1  0  0  0  0
  4 14  1  0  0  0  0
  5  4  1  0  0  0  0
  6  8  1  0  0  0  0
  6  5  2  0  0  0  0
  7  6  1  0  0  0  0
  8  3  1  0  0  0  0
  9  1  1  0  0  0  0
 10  1  1  0  0  0  0
 13  4  1  0  0  0  0
 15  7  1  0  0  0  0
 16  7  1  0  0  0  0
M  END
