18
title
C -0.5567296 2.0961864 1.8478062
C -0.29946283 0.58834606 1.7950329
C 0.712732 0.18511844 0.72310734
C 0.9101268 -1.3405551 0.5769135
C -0.048993923 -1.7037929 -0.55954504
C -0.21181208 -0.39859718 -1.3321719
O -0.67402536 -0.23223269 -2.4228296
O 0.25921392 0.6305464 -0.57609916
H 0.3643211 2.6448047 2.074088
H -0.933968 2.4586558 0.8883201
H -1.290514 2.341923 2.6207252
H 0.08287313 0.23512521 2.7611887
H -1.2405927 0.05144745 1.6171038
H 1.6608181 0.70190877 0.9030845
H 1.9422216 -1.560531 0.29032496
H 0.70347714 -1.8675145 1.5107965
H 0.3051541 -2.4910655 -1.2261174
H -1.0375602 -2.0056105 -0.19687699
