17
title
C 1.5441698 2.3965688 -0.9550392
C 1.5888835 0.86788464 -1.0171087
C 0.22457498 0.22114693 -0.83862674
C 0.21525759 -1.3210943 -0.89734286
N -0.8058588 -1.6091952 0.09037062
C -0.93787235 -0.56819195 0.9879933
O -1.5103045 -0.56864303 2.0412972
O -0.30094367 0.52484804 0.46919712
H 2.5446627 2.821262 -1.0759351
H 0.90830433 2.8063006 -1.747356
H 1.1433055 2.7320454 0.004864059
H 1.992223 0.53821623 -1.9836783
H 2.260174 0.476097 -0.24336205
H -0.48419732 0.6247868 -1.5746177
H -0.052282996 -1.689136 -1.8917513
H 1.1969289 -1.7361217 -0.6246977
H -0.96083015 -2.5383868 0.44624838
