title
 OpenBabel02282109593D

 16 16  0  0  1  0  0  0  0  0999 V2000
    1.6182    2.3838   -0.9211 C   0  0  0  0  0  0  0  0  0  0  0  0
    1.6183    0.8545   -0.9840 C   0  0  0  0  0  0  0  0  0  0  0  0
    0.2310    0.2477   -0.8464 C   0  0  1  0  0  0  0  0  0  0  0  0
    0.1843   -1.2897   -0.8789 C   0  0  0  0  0  0  0  0  0  0  0  0
   -0.7407   -1.6269    0.1558 O   0  0  0  0  0  0  0  0  0  0  0  0
   -0.9446   -0.5491    0.9584 C   0  0  0  0  0  0  0  0  0  0  0  0
   -1.5780   -0.5649    1.9640 O   0  0  0  0  0  0  0  0  0  0  0  0
   -0.3235    0.5441    0.4483 O   0  0  0  0  0  0  0  0  0  0  0  0
    2.6341    2.7767   -1.0163 H   0  0  0  0  0  0  0  0  0  0  0  0
    1.0158    2.8133   -1.7288 H   0  0  0  0  0  0  0  0  0  0  0  0
    1.2047    2.7321    0.0289 H   0  0  0  0  0  0  0  0  0  0  0  0
    2.0374    0.5135   -1.9399 H   0  0  0  0  0  0  0  0  0  0  0  0
    2.2552    0.4399   -0.1932 H   0  0  0  0  0  0  0  0  0  0  0  0
   -0.4466    0.6758   -1.5966 H   0  0  0  0  0  0  0  0  0  0  0  0
   -0.1805   -1.6921   -1.8258 H   0  0  0  0  0  0  0  0  0  0  0  0
    1.1591   -1.7353   -0.6482 H   0  0  0  0  0  0  0  0  0  0  0  0
  1 11  1  0  0  0  0
  2  1  1  0  0  0  0
  2  3  1  0  0  0  0
  2 13  1  0  0  0  0
  3 14  1  6  0  0  0
  3  8  1  0  0  0  0
  4  3  1  0  0  0  0
  4 16  1  0  0  0  0
  4  5  1  0  0  0  0
  5  6  1  0  0  0  0
  6  7  2  0  0  0  0
  8  6  1  0  0  0  0
  9  1  1  0  0  0  0
 10  1  1  0  0  0  0
 12  2  1  0  0  0  0
 15  4  1  0  0  0  0
M  END
