17
title
C -1.3855437 2.2164726 -1.1672137
C -1.4017745 0.68867403 -1.0866187
C -0.9797445 0.15686117 0.28158024
C -0.8400682 -1.3723608 0.35051575
O 0.56098825 -1.583578 0.15993012
C 1.2261307 -0.41860735 0.4158583
N 2.4712129 -0.25610095 0.4725205
O 0.35026315 0.59448195 0.6103128
H -0.38747105 2.6036735 -0.9479903
H -1.6748388 2.557679 -2.1650383
H -2.0835454 2.6577368 -0.4470645
H -2.4095016 0.30653116 -1.295686
H -0.7379972 0.25940508 -1.8479284
H -1.6425347 0.5431033 1.0618327
H -1.140591 -1.778081 1.3230178
H -1.3838118 -1.8910962 -0.44235697
H 2.9442244 -1.1465557 0.3386853
