17
title
C -0.6419488 2.0259736 1.9354557
C -0.28160486 0.5468516 1.7769371
C 0.6705824 0.29279646 0.6143372
O 1.0309659 -1.0671803 0.4919076
C 0.2363748 -1.640038 -0.5331547
C -0.2534755 -0.45469502 -1.3354359
N -0.843985 -0.50158185 -2.446762
O 0.06412271 0.6679413 -0.6310055
H 0.2524407 2.635138 2.1074674
H -1.1377997 2.405512 1.037987
H -1.3133185 2.1747868 2.7853928
H 0.20773178 0.16784994 2.681199
H -1.1843033 -0.056934398 1.6239345
H 1.5899144 0.88158983 0.7219442
H 0.8480165 -2.313511 -1.1379864
H -0.613017 -2.2082639 -0.12883759
H -1.0849725 0.4348054 -2.773929
