title
 OpenBabel02282109593D

 18 18  0  0  1  0  0  0  0  0999 V2000
   -0.4045    2.6919   -1.7583 C   0  0  0  0  0  0  0  0  0  0  0  0
   -0.3443    1.1616   -1.8146 C   0  0  0  0  0  0  0  0  0  0  0  0
    0.2754    0.5244   -0.5691 C   0  0  1  0  0  0  0  0  0  0  0  0
   -0.5195    0.7583    0.7309 C   0  0  0  0  0  0  0  0  0  0  0  0
   -0.1991   -0.3396    1.5987 O   0  0  0  0  0  0  0  0  0  0  0  0
    0.2915   -1.3949    0.8878 C   0  0  0  0  0  0  0  0  0  0  0  0
    0.5894   -2.4304    1.4059 O   0  0  0  0  0  0  0  0  0  0  0  0
    0.3649   -1.0061   -0.5847 C   0  0  0  0  0  0  0  0  0  0  0  0
    0.5949    3.1227   -1.6323 H   0  0  0  0  0  0  0  0  0  0  0  0
   -0.8294    3.1018   -2.6791 H   0  0  0  0  0  0  0  0  0  0  0  0
   -1.0243    3.0432   -0.9264 H   0  0  0  0  0  0  0  0  0  0  0  0
   -1.3549    0.7552   -1.9567 H   0  0  0  0  0  0  0  0  0  0  0  0
    0.2344    0.8522   -2.6934 H   0  0  0  0  0  0  0  0  0  0  0  0
    1.2852    0.9304   -0.4260 H   0  0  0  0  0  0  0  0  0  0  0  0
   -0.2577    1.6809    1.2524 H   0  0  0  0  0  0  0  0  0  0  0  0
   -1.6020    0.7563    0.5439 H   0  0  0  0  0  0  0  0  0  0  0  0
   -0.4981   -1.4533   -1.0952 H   0  0  0  0  0  0  0  0  0  0  0  0
    1.2663   -1.4146   -1.0430 H   0  0  0  0  0  0  0  0  0  0  0  0
  1  9  1  0  0  0  0
  1 11  1  0  0  0  0
  2  1  1  0  0  0  0
  2  3  1  0  0  0  0
  3 14  1  1  0  0  0
  3  4  1  0  0  0  0
  4 15  1  0  0  0  0
  4  5  1  0  0  0  0
  6  7  2  0  0  0  0
  6  5  1  0  0  0  0
  8  3  1  0  0  0  0
  8  6  1  0  0  0  0
 10  1  1  0  0  0  0
 12  2  1  0  0  0  0
 13  2  1  0  0  0  0
 16  4  1  0  0  0  0
 17  8  1  0  0  0  0
 18  8  1  0  0  0  0
M  END
