title
 OpenBabel02282109593D

 17 17  0  0  1  0  0  0  0  0999 V2000
   -1.3855    2.2165   -1.1672 C   0  0  0  0  0  0  0  0  0  0  0  0
   -1.4018    0.6887   -1.0866 C   0  0  0  0  0  0  0  0  0  0  0  0
   -0.9797    0.1569    0.2816 C   0  0  1  0  0  0  0  0  0  0  0  0
   -0.8401   -1.3724    0.3505 C   0  0  0  0  0  0  0  0  0  0  0  0
    0.5610   -1.5836    0.1599 O   0  0  0  0  0  0  0  0  0  0  0  0
    1.2261   -0.4186    0.4159 C   0  0  0  0  0  0  0  0  0  0  0  0
    2.4712   -0.2561    0.4725 N   0  0  0  0  0  0  0  0  0  0  0  0
    0.3503    0.5945    0.6103 O   0  0  0  0  0  0  0  0  0  0  0  0
   -0.3875    2.6037   -0.9480 H   0  0  0  0  0  0  0  0  0  0  0  0
   -1.6748    2.5577   -2.1650 H   0  0  0  0  0  0  0  0  0  0  0  0
   -2.0835    2.6577   -0.4471 H   0  0  0  0  0  0  0  0  0  0  0  0
   -2.4095    0.3065   -1.2957 H   0  0  0  0  0  0  0  0  0  0  0  0
   -0.7380    0.2594   -1.8479 H   0  0  0  0  0  0  0  0  0  0  0  0
   -1.6425    0.5431    1.0618 H   0  0  0  0  0  0  0  0  0  0  0  0
   -1.1406   -1.7781    1.3230 H   0  0  0  0  0  0  0  0  0  0  0  0
   -1.3838   -1.8911   -0.4424 H   0  0  0  0  0  0  0  0  0  0  0  0
    2.9442   -1.1466    0.3387 H   0  0  0  0  0  0  0  0  0  0  0  0
  1  2  1  0  0  0  0
  1  9  1  0  0  0  0
  1 11  1  0  0  0  0
  2  3  1  0  0  0  0
  3  4  1  0  0  0  0
  3  8  1  0  0  0  0
  3 14  1  1  0  0  0
  4 15  1  0  0  0  0
  5  4  1  0  0  0  0
  5  6  1  0  0  0  0
  6  7  2  0  0  0  0
  6  8  1  0  0  0  0
 10  1  1  0  0  0  0
 12  2  1  0  0  0  0
 13  2  1  0  0  0  0
 16  4  1  0  0  0  0
 17  7  1  0  0  0  0
M  END
