18
title
C 1.6003168 2.2860475 -0.8154582
C 1.5189013 0.7585879 -0.8784702
C 0.08596069 0.22277367 -1.032492
C 0.020454597 -1.3269461 -1.0040418
N -0.22483103 -1.5861322 0.4061599
C -0.854577 -0.50143415 1.0069188
O -1.3540403 -0.4705065 2.1089897
N -0.7944972 0.5386565 0.08801547
H 2.6395159 2.6209562 -0.7510544
H 1.1570184 2.745772 -1.7062305
H 1.0796226 2.6846771 0.061895993
H 2.1056428 0.39843366 -1.7332884
H 1.9656295 0.31795168 0.020979611
H -0.33939928 0.6054705 -1.9677043
H -0.7942032 -1.6932491 -1.6446048
H 0.9574301 -1.7776643 -1.3450072
H -0.49709338 -2.5013144 0.7271614
H -0.87112445 1.4754051 0.449796
