15
title
C -0.13437904 2.2474716 1.5259
O -0.13077828 0.82499987 1.5357801
C 0.74375504 0.256466 0.624812
C 0.6435893 -1.2673744 0.72537476
O -0.21046989 -1.6201953 -0.36295322
C -0.3248923 -0.5607236 -1.2125361
N -0.9404255 -0.5241876 -2.305833
O 0.35574365 0.51063585 -0.7251079
H 0.87071675 2.6447668 1.7289644
H -0.48550454 2.6373627 0.56494045
H -0.8125347 2.5642078 2.3196626
H 1.7573495 0.6620293 0.7387514
H 1.6161253 -1.7552005 0.60500383
H 0.18013471 -1.5714551 1.6646432
H -1.3469791 -1.4342362 -2.509024
