title
 OpenBabel02282109593D

 16 16  0  0  1  0  0  0  0  0999 V2000
   -0.6628    2.2918    1.3967 C   0  0  0  0  0  0  0  0  0  0  0  0
   -0.5017    0.8866    1.2904 O   0  0  0  0  0  0  0  0  0  0  0  0
    0.6533    0.5035    0.5995 C   0  0  1  0  0  0  0  0  0  0  0  0
    0.6970   -1.0205    0.5901 C   0  0  0  0  0  0  0  0  0  0  0  0
   -0.0601   -1.3643   -0.6924 C   0  0  0  0  0  0  0  0  0  0  0  0
   -0.5078   -2.4294   -1.0188 O   0  0  0  0  0  0  0  0  0  0  0  0
   -0.1424   -0.0628   -1.4963 C   0  0  0  0  0  0  0  0  0  0  0  0
    0.6168    0.8932   -0.7714 O   0  0  0  0  0  0  0  0  0  0  0  0
    0.1805    2.7473    1.9369 H   0  0  0  0  0  0  0  0  0  0  0  0
   -0.7427    2.7630    0.4105 H   0  0  0  0  0  0  0  0  0  0  0  0
   -1.5817    2.4648    1.9600 H   0  0  0  0  0  0  0  0  0  0  0  0
    1.5393    0.9960    1.0208 H   0  0  0  0  0  0  0  0  0  0  0  0
    1.7277   -1.3793    0.4984 H   0  0  0  0  0  0  0  0  0  0  0  0
    0.2389   -1.4750    1.4683 H   0  0  0  0  0  0  0  0  0  0  0  0
    0.2866   -0.1836   -2.4955 H   0  0  0  0  0  0  0  0  0  0  0  0
   -1.1949    0.2342   -1.6029 H   0  0  0  0  0  0  0  0  0  0  0  0
  1  9  1  0  0  0  0
  1 11  1  0  0  0  0
  2  1  1  0  0  0  0
  3 12  1  1  0  0  0
  3  2  1  0  0  0  0
  4  3  1  0  0  0  0
  4 14  1  0  0  0  0
  5  4  1  0  0  0  0
  6  5  2  0  0  0  0
  7  8  1  0  0  0  0
  7  5  1  0  0  0  0
  8  3  1  0  0  0  0
 10  1  1  0  0  0  0
 13  4  1  0  0  0  0
 15  7  1  0  0  0  0
 16  7  1  0  0  0  0
M  END
