16
title
C -0.6628466 2.2918425 1.3966669
O -0.50167036 0.88659257 1.2904058
C 0.6532904 0.5034509 0.5994875
C 0.6970164 -1.020456 0.5900684
C -0.06013624 -1.364308 -0.6924364
O -0.50780994 -2.4294415 -1.0188223
C -0.14238696 -0.06279888 -1.496286
O 0.61684024 0.8932315 -0.77140087
H 0.18050964 2.7472641 1.9369115
H -0.7427175 2.7629857 0.41052848
H -1.5817009 2.4647634 1.9600463
H 1.539286 0.9959654 1.0208266
H 1.727656 -1.3793157 0.498439
H 0.23892565 -1.4749936 1.4682823
H 0.2865872 -0.18358733 -2.495457
H -1.194907 0.23421721 -1.6029435
