title
 OpenBabel02282109593D

 17 17  0  0  1  0  0  0  0  0999 V2000
   -0.8846    2.3602   -1.3714 C   0  0  0  0  0  0  0  0  0  0  0  0
   -0.3171    1.0761   -1.2417 O   0  0  0  0  0  0  0  0  0  0  0  0
    0.4829    0.9079   -0.0883 C   0  0  1  0  0  0  0  0  0  0  0  0
   -0.3556    0.6382    1.1763 C   0  0  0  0  0  0  0  0  0  0  0  0
   -0.5954   -0.7741    1.1932 O   0  0  0  0  0  0  0  0  0  0  0  0
    0.3095   -1.4269    0.3986 C   0  0  0  0  0  0  0  0  0  0  0  0
    0.3543   -2.6769    0.2387 N   0  0  0  0  0  0  0  0  0  0  0  0
    1.2380   -0.4136   -0.2338 C   0  0  0  0  0  0  0  0  0  0  0  0
   -0.1098    3.1424   -1.3973 H   0  0  0  0  0  0  0  0  0  0  0  0
   -1.4337    2.3737   -2.3154 H   0  0  0  0  0  0  0  0  0  0  0  0
   -1.5861    2.5985   -0.5580 H   0  0  0  0  0  0  0  0  0  0  0  0
    1.1448    1.7750    0.0452 H   0  0  0  0  0  0  0  0  0  0  0  0
    0.1879    0.9280    2.0849 H   0  0  0  0  0  0  0  0  0  0  0  0
   -1.3223    1.1469    1.1662 H   0  0  0  0  0  0  0  0  0  0  0  0
   -0.3739   -3.1342    0.7902 H   0  0  0  0  0  0  0  0  0  0  0  0
    1.4576   -0.6556   -1.2729 H   0  0  0  0  0  0  0  0  0  0  0  0
    2.1799   -0.3871    0.3240 H   0  0  0  0  0  0  0  0  0  0  0  0
  1  2  1  0  0  0  0
  1 11  1  0  0  0  0
  2  3  1  0  0  0  0
  3 12  1  1  0  0  0
  3  4  1  0  0  0  0
  4  5  1  0  0  0  0
  4 13  1  0  0  0  0
  6  5  1  0  0  0  0
  7  6  2  0  0  0  0
  7 15  1  0  0  0  0
  8  3  1  0  0  0  0
  8 17  1  0  0  0  0
  8  6  1  0  0  0  0
  9  1  1  0  0  0  0
 10  1  1  0  0  0  0
 14  4  1  0  0  0  0
 16  8  1  0  0  0  0
M  END
