title
 OpenBabel02282109593D

 19 19  0  0  0  0  0  0  0  0999 V2000
    2.0412    2.0987   -0.4187 C   0  0  0  0  0  0  0  0  0  0  0  0
    1.6472    0.6230   -0.4641 C   0  0  0  0  0  0  0  0  0  0  0  0
    0.2476    0.4376   -0.8651 N   0  0  0  0  0  0  0  0  0  0  0  0
   -0.0737   -0.9431   -1.2826 C   0  0  0  0  0  0  0  0  0  0  0  0
   -0.4792   -1.7089   -0.0099 C   0  0  0  0  0  0  0  0  0  0  0  0
   -1.0743   -0.6058    0.8696 C   0  0  0  0  0  0  0  0  0  0  0  0
   -1.7159   -0.7442    1.8772 O   0  0  0  0  0  0  0  0  0  0  0  0
   -0.7091    0.7352    0.2033 C   0  0  0  0  0  0  0  0  0  0  0  0
    3.1035    2.2010   -0.1755 H   0  0  0  0  0  0  0  0  0  0  0  0
    1.8534    2.5710   -1.3870 H   0  0  0  0  0  0  0  0  0  0  0  0
    1.4765    2.6503    0.3396 H   0  0  0  0  0  0  0  0  0  0  0  0
    2.2665    0.1164   -1.2121 H   0  0  0  0  0  0  0  0  0  0  0  0
    1.8817    0.1499    0.5090 H   0  0  0  0  0  0  0  0  0  0  0  0
   -0.9185   -0.9099   -1.9827 H   0  0  0  0  0  0  0  0  0  0  0  0
    0.7727   -1.3854   -1.8114 H   0  0  0  0  0  0  0  0  0  0  0  0
   -1.1936   -2.5217   -0.1583 H   0  0  0  0  0  0  0  0  0  0  0  0
    0.3932   -2.1268    0.5070 H   0  0  0  0  0  0  0  0  0  0  0  0
   -0.3199    1.4429    0.9382 H   0  0  0  0  0  0  0  0  0  0  0  0
   -1.6336    1.1704   -0.2037 H   0  0  0  0  0  0  0  0  0  0  0  0
  1  9  1  0  0  0  0
  1 11  1  0  0  0  0
  2  1  1  0  0  0  0
  2 13  1  0  0  0  0
  3  2  1  0  0  0  0
  3  8  1  0  0  0  0
  4  3  1  0  0  0  0
  4  5  1  0  0  0  0
  5 17  1  0  0  0  0
  5  6  1  0  0  0  0
  6  7  2  0  0  0  0
  8  6  1  0  0  0  0
  8 18  1  0  0  0  0
 10  1  1  0  0  0  0
 12  2  1  0  0  0  0
 14  4  1  0  0  0  0
 15  4  1  0  0  0  0
 16  5  1  0  0  0  0
 19  8  1  0  0  0  0
M  END
