title
 OpenBabel02282109593D

 18 18  0  0  1  0  0  0  0  0999 V2000
    1.4815    2.5496   -0.4579 C   0  0  0  0  0  0  0  0  0  0  0  0
    1.4859    1.1735   -0.7659 O   0  0  0  0  0  0  0  0  0  0  0  0
    0.2426    0.5369   -0.5815 C   0  0  1  0  0  0  0  0  0  0  0  0
    0.3097   -0.8781   -1.1828 C   0  0  0  0  0  0  0  0  0  0  0  0
   -0.8419   -1.6388   -0.5134 C   0  0  0  0  0  0  0  0  0  0  0  0
   -1.0089   -0.9777    0.8611 C   0  0  0  0  0  0  0  0  0  0  0  0
   -1.6929   -1.3884    1.7613 O   0  0  0  0  0  0  0  0  0  0  0  0
   -0.1625    0.2999    0.8865 C   0  0  0  0  0  0  0  0  0  0  0  0
    2.4744    2.9370   -0.6981 H   0  0  0  0  0  0  0  0  0  0  0  0
    0.7337    3.0962   -1.0539 H   0  0  0  0  0  0  0  0  0  0  0  0
    1.2785    2.7388    0.6064 H   0  0  0  0  0  0  0  0  0  0  0  0
   -0.5483    1.1179   -1.0873 H   0  0  0  0  0  0  0  0  0  0  0  0
    0.2584   -0.8649   -2.2733 H   0  0  0  0  0  0  0  0  0  0  0  0
    1.2757   -1.3124   -0.9021 H   0  0  0  0  0  0  0  0  0  0  0  0
   -1.7873   -1.5024   -1.0551 H   0  0  0  0  0  0  0  0  0  0  0  0
   -0.6890   -2.7159   -0.4136 H   0  0  0  0  0  0  0  0  0  0  0  0
    0.7425    0.0921    1.4741 H   0  0  0  0  0  0  0  0  0  0  0  0
   -0.6974    1.1157    1.3767 H   0  0  0  0  0  0  0  0  0  0  0  0
  1 11  1  0  0  0  0
  2  3  1  0  0  0  0
  2  1  1  0  0  0  0
  3 12  1  6  0  0  0
  3  8  1  0  0  0  0
  4 14  1  0  0  0  0
  4  3  1  0  0  0  0
  4  5  1  0  0  0  0
  5 16  1  0  0  0  0
  5  6  1  0  0  0  0
  6  8  1  0  0  0  0
  6  7  2  0  0  0  0
  8 18  1  0  0  0  0
  8 17  1  0  0  0  0
  9  1  1  0  0  0  0
 10  1  1  0  0  0  0
 13  4  1  0  0  0  0
 15  5  1  0  0  0  0
M  END
