title
 OpenBabel02282109593D

 17 17  0  0  1  0  0  0  0  0999 V2000
    1.6281    2.4190   -0.0736 C   0  0  0  0  0  0  0  0  0  0  0  0
    1.2642    1.1125    0.3088 O   0  0  0  0  0  0  0  0  0  0  0  0
   -0.1302    0.9091    0.4382 C   0  0  1  0  0  0  0  0  0  0  0  0
   -0.8150    0.6772   -0.9385 C   0  0  0  0  0  0  0  0  0  0  0  0
   -0.7659   -0.7623   -1.0854 N   0  0  0  0  0  0  0  0  0  0  0  0
   -0.5308   -1.4633    0.0675 C   0  0  0  0  0  0  0  0  0  0  0  0
   -0.5090   -2.6684    0.1780 O   0  0  0  0  0  0  0  0  0  0  0  0
   -0.3338   -0.4199    1.1717 C   0  0  0  0  0  0  0  0  0  0  0  0
    2.7197    2.4552   -0.0928 H   0  0  0  0  0  0  0  0  0  0  0  0
    1.2545    2.6895   -1.0728 H   0  0  0  0  0  0  0  0  0  0  0  0
    1.2586    3.1676    0.6447 H   0  0  0  0  0  0  0  0  0  0  0  0
   -0.5836    1.7625    0.9609 H   0  0  0  0  0  0  0  0  0  0  0  0
   -1.8463    1.0589   -0.9340 H   0  0  0  0  0  0  0  0  0  0  0  0
   -0.2717    1.1859   -1.7410 H   0  0  0  0  0  0  0  0  0  0  0  0
   -0.9977   -1.2467   -1.9375 H   0  0  0  0  0  0  0  0  0  0  0  0
    0.5196   -0.6675    1.8033 H   0  0  0  0  0  0  0  0  0  0  0  0
   -1.2322   -0.4047    1.7973 H   0  0  0  0  0  0  0  0  0  0  0  0
  1  2  1  0  0  0  0
  1 11  1  0  0  0  0
  2  3  1  0  0  0  0
  3 12  1  1  0  0  0
  3  8  1  0  0  0  0
  4 13  1  0  0  0  0
  4  3  1  0  0  0  0
  5  4  1  0  0  0  0
  5  6  1  0  0  0  0
  6  7  2  0  0  0  0
  6  8  1  0  0  0  0
  8 17  1  0  0  0  0
  8 16  1  0  0  0  0
  9  1  1  0  0  0  0
 10  1  1  0  0  0  0
 14  4  1  0  0  0  0
 15  5  1  0  0  0  0
M  END
