15
title
C -1.3976825 2.191576 -0.8190112
O -1.3956468 0.7711815 -0.7678365
C -0.8779404 0.2510555 0.40865383
C -0.9491068 -1.2865045 0.33516535
N 0.416611 -1.595396 -0.019212274
C 1.2733278 -0.55158377 0.21460131
O 2.4696164 -0.53601325 0.15825126
O 0.5135937 0.54835576 0.55086005
H -0.37933752 2.5931122 -0.79395485
H -1.8779993 2.4706426 -1.7582283
H -1.9701988 2.6155565 0.019051703
H -1.3806763 0.68308026 1.2838087
H -1.2486696 -1.720511 1.2975764
H -1.6650766 -1.584327 -0.4344648
H 0.7872274 -2.5278502 -0.07588622
