17
title
C -0.8846031 2.3602118 -1.3714011
O -0.3170759 1.0761466 -1.2416996
C 0.4828551 0.90786666 -0.08827749
C -0.35560372 0.63819385 1.1763018
O -0.59543324 -0.77407604 1.1931738
C 0.30954817 -1.426869 0.39861605
N 0.35425344 -2.6768947 0.23865387
C 1.2380445 -0.41359252 -0.23382774
H -0.10981156 3.1423714 -1.3972828
H -1.43374 2.3737433 -2.3153884
H -1.5861231 2.5984728 -0.55799675
H 1.14484 1.7750472 0.045242995
H 0.18792279 0.92804724 2.0849175
H -1.322301 1.1468577 1.1662327
H -0.3739126 -3.1341882 0.7901598
H 1.4576454 -0.65555054 -1.272905
H 2.1799462 -0.38712126 0.32399103
