17
title
O 1.7079015 2.284505 0.16626929
C 1.5498152 0.89734745 0.4232091
C 0.08802698 0.6470291 0.7900306
C -0.8537847 0.98681 -0.39486906
N -1.0185584 -0.29829696 -1.0519801
C -0.72663534 -1.3897285 -0.27916905
O -0.8845197 -2.5498066 -0.59012043
C -0.17746128 -0.84741 1.0467527
H 2.60413 2.4350805 -0.14731906
H 1.8174026 0.29324916 -0.4586515
H 2.191686 0.57055664 1.2560917
H -0.15115072 1.2697895 1.6554427
H -1.8132159 1.3870779 -0.03875313
H -0.40218654 1.7306467 -1.0563447
H -1.4989876 -0.41646042 -1.9296954
H 0.70716214 -1.4134445 1.3495431
H -0.9395064 -1.0043173 1.8174878
