17
title
O 1.9220968 1.8407128 -0.26309845
C 1.7174656 0.48129264 -0.57670367
C 0.26812413 0.20601346 -0.9706515
C -0.07220872 -1.2828245 -1.1536003
C -0.5952359 -1.689268 0.23260401
C -1.1022803 -0.3891537 0.81772166
N -1.8775924 -0.27263954 1.8055198
O -0.58757 0.66431236 0.105271265
H 1.242191 2.076609 0.379195
H 2.3740811 0.24368055 -1.4209406
H 2.0016747 -0.17835401 0.2611877
H 0.014286086 0.81528574 -1.8426474
H -0.8527494 -1.3993942 -1.9100058
H 0.79494494 -1.8638114 -1.4771127
H -1.3855177 -2.4399219 0.21382557
H 0.20594196 -2.0755796 0.87166864
H -2.0579581 0.7120189 2.0090296
