17
title
O 1.5864587 2.1885962 -0.7719535
C 1.6927232 0.77939874 -0.9141231
C 0.28454638 0.21288434 -0.82606125
C 0.21834292 -1.3299032 -0.917502
C -0.9589778 -1.7120405 -0.005524044
C -1.0797621 -0.5424111 0.980579
O -1.7295834 -0.50647056 2.0017998
N -0.31658137 0.47304404 0.46949172
H 2.4717321 2.5618253 -0.73666424
H 2.1374962 0.5014392 -1.8829308
H 2.307715 0.3397347 -0.11402715
H -0.3092419 0.6757004 -1.6294469
H 0.10579706 -1.6725754 -1.9479184
H 1.1491892 -1.754954 -0.52566755
H -1.902799 -1.7807254 -0.5585329
H -0.8274137 -2.6536407 0.52989507
H -0.33087838 1.3974023 0.87084913
