title
 OpenBabel02282109593D

 15 15  0  0  1  0  0  0  0  0999 V2000
    1.5829    2.0771   -0.6979 O   0  0  0  0  0  0  0  0  0  0  0  0
    1.5459    0.6781   -0.8522 C   0  0  0  0  0  0  0  0  0  0  0  0
    0.1147    0.1697   -1.0099 C   0  0  1  0  0  0  0  0  0  0  0  0
   -0.0021   -1.3708   -1.0052 C   0  0  0  0  0  0  0  0  0  0  0  0
   -0.3784   -1.5974    0.3748 N   0  0  0  0  0  0  0  0  0  0  0  0
   -0.8927   -0.4689    0.9692 C   0  0  0  0  0  0  0  0  0  0  0  0
   -1.4537   -0.3708    2.0230 O   0  0  0  0  0  0  0  0  0  0  0  0
   -0.6434    0.5979    0.1406 O   0  0  0  0  0  0  0  0  0  0  0  0
    1.0000    2.2887    0.0413 H   0  0  0  0  0  0  0  0  0  0  0  0
    2.1184    0.4383   -1.7553 H   0  0  0  0  0  0  0  0  0  0  0  0
    2.0189    0.1541   -0.0047 H   0  0  0  0  0  0  0  0  0  0  0  0
   -0.3466    0.6277   -1.8879 H   0  0  0  0  0  0  0  0  0  0  0  0
   -0.7607   -1.7262   -1.7144 H   0  0  0  0  0  0  0  0  0  0  0  0
    0.9524   -1.8472   -1.2541 H   0  0  0  0  0  0  0  0  0  0  0  0
   -0.6864   -2.4917    0.7182 H   0  0  0  0  0  0  0  0  0  0  0  0
  1  9  1  0  0  0  0
  2  1  1  0  0  0  0
  2 11  1  0  0  0  0
  3 12  1  6  0  0  0
  3  4  1  0  0  0  0
  3  2  1  0  0  0  0
  3  8  1  0  0  0  0
  4  5  1  0  0  0  0
  5 15  1  0  0  0  0
  5  6  1  0  0  0  0
  6  7  2  0  0  0  0
  8  6  1  0  0  0  0
 10  2  1  0  0  0  0
 13  4  1  0  0  0  0
 14  4  1  0  0  0  0
M  END
