title
 OpenBabel02282109593D

 18 18  0  0  1  0  0  0  0  0999 V2000
    1.6871    2.2300   -0.8066 O   0  0  0  0  0  0  0  0  0  0  0  0
    1.7985    0.8156   -0.8542 C   0  0  0  0  0  0  0  0  0  0  0  0
    0.4074    0.2280   -0.6872 C   0  0  1  0  0  0  0  0  0  0  0  0
    0.3765   -1.3176   -0.7558 C   0  0  0  0  0  0  0  0  0  0  0  0
   -0.9701   -1.6992   -0.1250 C   0  0  0  0  0  0  0  0  0  0  0  0
   -1.2566   -0.5909    0.8977 C   0  0  0  0  0  0  0  0  0  0  0  0
   -2.1150   -0.6179    1.7408 O   0  0  0  0  0  0  0  0  0  0  0  0
   -0.2620    0.5494    0.6592 C   0  0  0  0  0  0  0  0  0  0  0  0
    2.5670    2.6073   -0.8958 H   0  0  0  0  0  0  0  0  0  0  0  0
    2.2316    0.4806   -1.8110 H   0  0  0  0  0  0  0  0  0  0  0  0
    2.4517    0.4388   -0.0486 H   0  0  0  0  0  0  0  0  0  0  0  0
   -0.2204    0.6278   -1.4945 H   0  0  0  0  0  0  0  0  0  0  0  0
    0.4995   -1.6941   -1.7746 H   0  0  0  0  0  0  0  0  0  0  0  0
    1.1998   -1.7279   -0.1565 H   0  0  0  0  0  0  0  0  0  0  0  0
   -1.7780   -1.6704   -0.8682 H   0  0  0  0  0  0  0  0  0  0  0  0
   -1.0044   -2.6851    0.3442 H   0  0  0  0  0  0  0  0  0  0  0  0
    0.4753    0.5163    1.4746 H   0  0  0  0  0  0  0  0  0  0  0  0
   -0.7484    1.5246    0.7135 H   0  0  0  0  0  0  0  0  0  0  0  0
  2  1  1  0  0  0  0
  2  3  1  0  0  0  0
  2 11  1  0  0  0  0
  3 12  1  6  0  0  0
  3  8  1  0  0  0  0
  4  3  1  0  0  0  0
  4 14  1  0  0  0  0
  4  5  1  0  0  0  0
  5 16  1  0  0  0  0
  5  6  1  0  0  0  0
  6  7  2  0  0  0  0
  8 18  1  0  0  0  0
  8  6  1  0  0  0  0
  8 17  1  0  0  0  0
  9  1  1  0  0  0  0
 10  2  1  0  0  0  0
 13  4  1  0  0  0  0
 15  5  1  0  0  0  0
M  END
