14
title
C -0.037914556 2.219758 1.6325511
O 0.0034320906 0.7976499 1.5860975
C 0.7799022 0.28631228 0.56393194
C 0.7525461 -1.245184 0.6349919
O -0.15321088 -1.6221709 -0.4011501
C -0.4235194 -0.5570909 -1.1946627
O -1.1008416 -0.5865108 -2.1692739
O 0.2122471 0.5541689 -0.72203815
H 0.9739437 2.639143 1.7261835
H -0.5158423 2.6327753 0.7382398
H -0.6208596 2.4863632 2.5151625
H 1.7839768 0.72944635 0.5623827
H 1.7322096 -1.6908698 0.44069707
H 0.3658006 -1.5829096 1.5970722
