title
 OpenBabel02282109593D

 14 14  0  0  1  0  0  0  0  0999 V2000
    1.6415    1.2655    0.2782 O   0  0  0  0  0  0  0  0  0  0  0  0
    1.9497   -0.1132    0.2374 C   0  0  0  0  0  0  0  0  0  0  0  0
    0.6853   -0.9666    0.1324 C   0  0  1  0  0  0  0  0  0  0  0  0
   -0.1450   -0.8361    1.2677 O   0  0  0  0  0  0  0  0  0  0  0  0
   -1.1734    0.0824    0.9565 C   0  0  0  0  0  0  0  0  0  0  0  0
   -1.1618    0.1779   -0.5613 C   0  0  0  0  0  0  0  0  0  0  0  0
   -1.9139    0.7440   -1.2940 O   0  0  0  0  0  0  0  0  0  0  0  0
   -0.0784   -0.5309   -0.9943 O   0  0  0  0  0  0  0  0  0  0  0  0
    1.4140    1.5414   -0.6160 H   0  0  0  0  0  0  0  0  0  0  0  0
    2.6265   -0.3662   -0.5914 H   0  0  0  0  0  0  0  0  0  0  0  0
    2.4513   -0.3623    1.1775 H   0  0  0  0  0  0  0  0  0  0  0  0
    0.9308   -2.0263   -0.0023 H   0  0  0  0  0  0  0  0  0  0  0  0
   -2.1360   -0.2950    1.3136 H   0  0  0  0  0  0  0  0  0  0  0  0
   -0.9893    1.0740    1.3871 H   0  0  0  0  0  0  0  0  0  0  0  0
  2  1  1  0  0  0  0
  2 11  1  0  0  0  0
  3 12  1  6  0  0  0
  3  2  1  0  0  0  0
  3  4  1  0  0  0  0
  5  4  1  0  0  0  0
  5 13  1  0  0  0  0
  5 14  1  0  0  0  0
  6  5  1  0  0  0  0
  7  6  2  0  0  0  0
  8  6  1  0  0  0  0
  8  3  1  0  0  0  0
  9  1  1  0  0  0  0
 10  2  1  0  0  0  0
M  END
