title
 OpenBabel02282109593D

 17 17  0  0  1  0  0  0  0  0999 V2000
    0.4695    2.7119    0.3301 C   0  0  0  0  0  0  0  0  0  0  0  0
    0.4633    1.2231    0.2686 C   0  0  0  0  0  0  0  0  0  0  0  0
   -0.5266    0.4584    0.4980 N   0  0  0  0  0  0  0  0  0  0  0  0
   -0.0552   -0.9253    0.3048 C   0  0  1  0  0  0  0  0  0  0  0  0
   -0.9392   -1.6107   -0.7418 C   0  0  0  0  0  0  0  0  0  0  0  0
   -2.2927   -1.5960   -0.3527 O   0  0  0  0  0  0  0  0  0  0  0  0
    1.4279   -0.7673   -0.1108 C   0  0  0  0  0  0  0  0  0  0  0  0
    1.6563    0.6595   -0.0638 O   0  0  0  0  0  0  0  0  0  0  0  0
    1.1992    3.0551    1.0701 H   0  0  0  0  0  0  0  0  0  0  0  0
    0.7668    3.1292   -0.6368 H   0  0  0  0  0  0  0  0  0  0  0  0
   -0.5221    3.0741    0.5984 H   0  0  0  0  0  0  0  0  0  0  0  0
   -0.1624   -1.4689    1.2506 H   0  0  0  0  0  0  0  0  0  0  0  0
   -0.7856   -1.1090   -1.7136 H   0  0  0  0  0  0  0  0  0  0  0  0
   -0.6461   -2.6604   -0.8607 H   0  0  0  0  0  0  0  0  0  0  0  0
   -2.4690   -0.6917   -0.0618 H   0  0  0  0  0  0  0  0  0  0  0  0
    2.1319   -1.2511    0.5702 H   0  0  0  0  0  0  0  0  0  0  0  0
    1.6265   -1.1122   -1.1319 H   0  0  0  0  0  0  0  0  0  0  0  0
  1 11  1  0  0  0  0
  1  9  1  0  0  0  0
  2  1  1  0  0  0  0
  2  3  2  0  0  0  0
  4  3  1  0  0  0  0
  4 12  1  1  0  0  0
  5  6  1  0  0  0  0
  5  4  1  0  0  0  0
  6 15  1  0  0  0  0
  7  8  1  0  0  0  0
  7  4  1  0  0  0  0
  7 16  1  0  0  0  0
  8  2  1  0  0  0  0
 10  1  1  0  0  0  0
 13  5  1  0  0  0  0
 14  5  1  0  0  0  0
 17  7  1  0  0  0  0
M  END
