title
 OpenBabel02282109593D

 15 15  0  0  1  0  0  0  0  0999 V2000
    1.7005    2.0376   -0.4841 O   0  0  0  0  0  0  0  0  0  0  0  0
    1.6418    0.6391   -0.6301 C   0  0  0  0  0  0  0  0  0  0  0  0
    0.2339    0.1717   -0.9928 C   0  0  1  0  0  0  0  0  0  0  0  0
    0.0470   -1.3507   -0.9706 C   0  0  0  0  0  0  0  0  0  0  0  0
   -0.5143   -1.5954    0.3223 O   0  0  0  0  0  0  0  0  0  0  0  0
   -0.9969   -0.4281    0.8370 C   0  0  0  0  0  0  0  0  0  0  0  0
   -1.6478   -0.2773    1.9001 N   0  0  0  0  0  0  0  0  0  0  0  0
   -0.6764    0.6149    0.0294 O   0  0  0  0  0  0  0  0  0  0  0  0
    1.0329    2.2781    0.1697 H   0  0  0  0  0  0  0  0  0  0  0  0
    2.3322    0.3700   -1.4375 H   0  0  0  0  0  0  0  0  0  0  0  0
    1.9702    0.1116    0.2815 H   0  0  0  0  0  0  0  0  0  0  0  0
   -0.0844    0.6328   -1.9307 H   0  0  0  0  0  0  0  0  0  0  0  0
   -0.6460   -1.7016   -1.7423 H   0  0  0  0  0  0  0  0  0  0  0  0
    0.9881   -1.9010   -1.0530 H   0  0  0  0  0  0  0  0  0  0  0  0
   -1.8170   -1.1788    2.3395 H   0  0  0  0  0  0  0  0  0  0  0  0
  1  9  1  0  0  0  0
  2  1  1  0  0  0  0
  2 11  1  0  0  0  0
  3 12  1  6  0  0  0
  3  4  1  0  0  0  0
  3  2  1  0  0  0  0
  3  8  1  0  0  0  0
  4  5  1  0  0  0  0
  5  6  1  0  0  0  0
  6  7  2  0  0  0  0
  7 15  1  0  0  0  0
  8  6  1  0  0  0  0
 10  2  1  0  0  0  0
 13  4  1  0  0  0  0
 14  4  1  0  0  0  0
M  END
