title
 OpenBabel02282109593D

 15 15  0  0  1  0  0  0  0  0999 V2000
    1.5923    1.3437    0.3436 O   0  0  0  0  0  0  0  0  0  0  0  0
    1.9495   -0.0207    0.2588 C   0  0  0  0  0  0  0  0  0  0  0  0
    0.7248   -0.9242    0.1118 C   0  0  1  0  0  0  0  0  0  0  0  0
   -0.1291   -0.8719    1.2284 O   0  0  0  0  0  0  0  0  0  0  0  0
   -1.1841    0.0322    0.9349 C   0  0  0  0  0  0  0  0  0  0  0  0
   -1.1826    0.1249   -0.5739 C   0  0  0  0  0  0  0  0  0  0  0  0
   -2.0600    0.6707   -1.2927 N   0  0  0  0  0  0  0  0  0  0  0  0
   -0.0456   -0.4933   -1.0180 O   0  0  0  0  0  0  0  0  0  0  0  0
    1.2892    1.6190   -0.5281 H   0  0  0  0  0  0  0  0  0  0  0  0
    2.6434   -0.2194   -0.5719 H   0  0  0  0  0  0  0  0  0  0  0  0
    2.4545   -0.2801    1.1942 H   0  0  0  0  0  0  0  0  0  0  0  0
    1.0267   -1.9661   -0.0512 H   0  0  0  0  0  0  0  0  0  0  0  0
   -2.1262   -0.3718    1.3131 H   0  0  0  0  0  0  0  0  0  0  0  0
   -1.0065    1.0191    1.3779 H   0  0  0  0  0  0  0  0  0  0  0  0
   -1.8195    0.6070   -2.2826 H   0  0  0  0  0  0  0  0  0  0  0  0
  2  1  1  0  0  0  0
  2 11  1  0  0  0  0
  3 12  1  6  0  0  0
  3  2  1  0  0  0  0
  3  4  1  0  0  0  0
  5  4  1  0  0  0  0
  5 13  1  0  0  0  0
  5 14  1  0  0  0  0
  6  5  1  0  0  0  0
  7  6  2  0  0  0  0
  8  6  1  0  0  0  0
  8  3  1  0  0  0  0
  9  1  1  0  0  0  0
 10  2  1  0  0  0  0
 15  7  1  0  0  0  0
M  END
