15
title
O 1.7004501 2.037571 -0.48405215
C 1.6418383 0.6390729 -0.63012826
C 0.23385878 0.17174372 -0.99275964
C 0.047008593 -1.3507469 -0.9705705
O -0.514327 -1.5953991 0.32233614
C -0.9969253 -0.4281163 0.83696526
N -1.6478087 -0.27732858 1.9000866
O -0.67639536 0.6148733 0.02936649
H 1.032883 2.2781498 0.16968101
H 2.3321884 0.3699864 -1.4375454
H 1.970204 0.111646086 0.2815389
H -0.08442847 0.6328039 -1.9306885
H -0.64598745 -1.7015767 -1.7422714
H 0.98806965 -1.90098 -1.0530114
H -1.8169643 -1.1788329 2.3394628
