title
 OpenBabel02282109593D

 16 16  0  0  1  0  0  0  0  0999 V2000
    1.5596    2.3430    0.3380 O   0  0  0  0  0  0  0  0  0  0  0  0
    1.4711    0.9437    0.5501 C   0  0  0  0  0  0  0  0  0  0  0  0
    0.0091    0.6124    0.8455 C   0  0  1  0  0  0  0  0  0  0  0  0
   -0.8938    0.9112   -0.3672 C   0  0  0  0  0  0  0  0  0  0  0  0
   -0.9503   -0.3074   -1.1305 O   0  0  0  0  0  0  0  0  0  0  0  0
   -0.6090   -1.3800   -0.3659 C   0  0  0  0  0  0  0  0  0  0  0  0
   -0.6393   -2.5014   -0.7807 O   0  0  0  0  0  0  0  0  0  0  0  0
   -0.2116   -0.8931    1.0264 C   0  0  0  0  0  0  0  0  0  0  0  0
    2.4514    2.5528    0.0467 H   0  0  0  0  0  0  0  0  0  0  0  0
    1.8068    0.3808   -0.3359 H   0  0  0  0  0  0  0  0  0  0  0  0
    2.0951    0.6257    1.3999 H   0  0  0  0  0  0  0  0  0  0  0  0
   -0.3049    1.1969    1.7136 H   0  0  0  0  0  0  0  0  0  0  0  0
   -1.9118    1.1817   -0.0653 H   0  0  0  0  0  0  0  0  0  0  0  0
   -0.4902    1.6977   -1.0061 H   0  0  0  0  0  0  0  0  0  0  0  0
    0.6590   -1.4477    1.3832 H   0  0  0  0  0  0  0  0  0  0  0  0
   -1.0390   -1.1089    1.7107 H   0  0  0  0  0  0  0  0  0  0  0  0
  1  2  1  0  0  0  0
  2  3  1  0  0  0  0
  2 11  1  0  0  0  0
  3  8  1  0  0  0  0
  3 12  1  1  0  0  0
  4 13  1  0  0  0  0
  4  3  1  0  0  0  0
  5  4  1  0  0  0  0
  5  6  1  0  0  0  0
  6  8  1  0  0  0  0
  7  6  2  0  0  0  0
  8 15  1  0  0  0  0
  8 16  1  0  0  0  0
  9  1  1  0  0  0  0
 10  2  1  0  0  0  0
 14  4  1  0  0  0  0
M  END
