20
title
C -0.3252768 2.8848379 0.6401604
C -0.25835654 1.3910645 0.5977252
C -0.32251534 0.6051267 -0.4793443
C -0.26470926 -0.86924845 -0.14994515
C 0.7143237 -1.6768856 -1.0129503
O 0.33409965 -1.7499683 -2.3781796
C 0.13177195 -0.86458737 1.3523554
C -0.16045633 0.5662495 1.8650403
H 0.57107806 3.308464 1.1111839
H -0.42066652 3.316537 -0.35993183
H -1.1789703 3.2255552 1.2404433
H -0.45365262 0.9763513 -1.492144
H -1.2568095 -1.3219037 -0.29558313
H 1.7287763 -1.2604103 -0.9007879
H 0.7464778 -2.713537 -0.6591329
H 0.41924483 -0.8685189 -2.753728
H -0.38789344 -1.6368728 1.9247646
H 1.2052298 -1.0711854 1.4394679
H 0.61278343 0.93614084 2.5496323
H -1.1067277 0.61796373 2.4230502
