title
 OpenBabel02282109593D

 17 17  0  0  1  0  0  0  0  0999 V2000
    1.6895    2.2369    0.1726 O   0  0  0  0  0  0  0  0  0  0  0  0
    1.5291    0.8506    0.4300 C   0  0  0  0  0  0  0  0  0  0  0  0
    0.0743    0.6181    0.8332 C   0  0  1  0  0  0  0  0  0  0  0  0
   -0.8922    0.9431   -0.3183 C   0  0  0  0  0  0  0  0  0  0  0  0
   -1.0315   -0.2797   -1.0649 O   0  0  0  0  0  0  0  0  0  0  0  0
   -0.6908   -1.3545   -0.2930 C   0  0  0  0  0  0  0  0  0  0  0  0
   -0.7521   -2.5587   -0.6676 N   0  0  0  0  0  0  0  0  0  0  0  0
   -0.2271   -0.8704    1.0662 C   0  0  0  0  0  0  0  0  0  0  0  0
    2.5733    2.3821   -0.1770 H   0  0  0  0  0  0  0  0  0  0  0  0
    1.7683    0.2466   -0.4597 H   0  0  0  0  0  0  0  0  0  0  0  0
    2.1898    0.5151    1.2445 H   0  0  0  0  0  0  0  0  0  0  0  0
   -0.1419    1.2358    1.7085 H   0  0  0  0  0  0  0  0  0  0  0  0
   -1.8788    1.2483    0.0509 H   0  0  0  0  0  0  0  0  0  0  0  0
   -0.5077    1.7133   -0.9886 H   0  0  0  0  0  0  0  0  0  0  0  0
   -1.1138   -2.6162   -1.6214 H   0  0  0  0  0  0  0  0  0  0  0  0
    0.6222   -1.4576    1.4207 H   0  0  0  0  0  0  0  0  0  0  0  0
   -1.0400   -1.0018    1.7883 H   0  0  0  0  0  0  0  0  0  0  0  0
  1  2  1  0  0  0  0
  2  3  1  0  0  0  0
  2 11  1  0  0  0  0
  3  8  1  0  0  0  0
  3 12  1  1  0  0  0
  4 13  1  0  0  0  0
  4  3  1  0  0  0  0
  5  4  1  0  0  0  0
  5  6  1  0  0  0  0
  6  8  1  0  0  0  0
  7  6  2  0  0  0  0
  8 16  1  0  0  0  0
  8 17  1  0  0  0  0
  9  1  1  0  0  0  0
 10  2  1  0  0  0  0
 14  4  1  0  0  0  0
 15  7  1  0  0  0  0
M  END
