title
 OpenBabel02282109593D

 15 15  0  0  1  0  0  0  0  0999 V2000
    1.3917    2.1525   -0.7617 O   0  0  0  0  0  0  0  0  0  0  0  0
    1.4990    0.7435   -0.8786 C   0  0  0  0  0  0  0  0  0  0  0  0
    0.0763    0.2078   -1.0375 C   0  0  1  0  0  0  0  0  0  0  0  0
   -0.0123   -1.3302   -0.9685 C   0  0  0  0  0  0  0  0  0  0  0  0
   -0.3601   -1.6232    0.3879 O   0  0  0  0  0  0  0  0  0  0  0  0
   -0.8363   -0.4901    0.9988 C   0  0  0  0  0  0  0  0  0  0  0  0
   -1.2408   -0.4701    2.1262 O   0  0  0  0  0  0  0  0  0  0  0  0
   -0.7699    0.5484    0.0912 N   0  0  0  0  0  0  0  0  0  0  0  0
    2.2518    2.5105   -0.5245 H   0  0  0  0  0  0  0  0  0  0  0  0
    2.1000    0.4515   -1.7546 H   0  0  0  0  0  0  0  0  0  0  0  0
    1.9587    0.2952    0.0159 H   0  0  0  0  0  0  0  0  0  0  0  0
   -0.3427    0.5945   -1.9719 H   0  0  0  0  0  0  0  0  0  0  0  0
   -0.7928   -1.7181   -1.6314 H   0  0  0  0  0  0  0  0  0  0  0  0
    0.9331   -1.8267   -1.2031 H   0  0  0  0  0  0  0  0  0  0  0  0
   -0.7476    1.4869    0.4591 H   0  0  0  0  0  0  0  0  0  0  0  0
  1  9  1  0  0  0  0
  2  1  1  0  0  0  0
  2 11  1  0  0  0  0
  3 12  1  6  0  0  0
  3  4  1  0  0  0  0
  3  2  1  0  0  0  0
  3  8  1  0  0  0  0
  4  5  1  0  0  0  0
  5  6  1  0  0  0  0
  6  7  2  0  0  0  0
  8 15  1  0  0  0  0
  8  6  1  0  0  0  0
 10  2  1  0  0  0  0
 13  4  1  0  0  0  0
 14  4  1  0  0  0  0
M  END
