20
title
C -0.27481088 2.5019603 1.5658029
O -0.0213247 1.1198777 1.6285542
C 0.5428963 0.5791355 0.43833286
C 1.0686766 -0.8403532 0.74345183
C 0.6954864 -1.7025106 -0.4836207
C -0.3693202 -0.88594407 -1.1878512
C -1.1634095 -1.4549344 -2.3208027
C -0.44321096 0.3476934 -0.6844769
H 0.63805026 3.0746202 1.3338817
H -1.0373875 2.7593763 0.81489265
H -0.6414785 2.8098407 2.5486372
H 1.35433 1.25327 0.109014936
H 2.136238 -0.8542262 0.97399664
H 0.53361887 -1.1885345 1.6314559
H 1.5564438 -1.8593149 -1.1487858
H 0.3401642 -2.703738 -0.21019356
H -1.7223719 -2.3436797 -2.000706
H -1.8758909 -0.7299735 -2.7233846
H -0.50851005 -1.7805128 -3.1393402
H -1.1056862 1.1248949 -1.0506282
