20
title
C -0.94117135 2.721746 0.30647615
C -1.0941515 1.2160178 0.4249169
C -0.90180576 0.41839325 -0.88568133
C -0.18949373 -0.88409454 -0.43713388
C 1.1703161 -1.0429828 -1.1086031
O 1.7406286 -2.2654793 -0.6646212
C -0.051276755 -0.68943936 1.0904754
O -0.095094986 0.7122915 1.3053223
H 0.044623423 2.9729006 -0.097773395
H -1.7061962 3.1338515 -0.35893193
H -1.0433797 3.198483 1.2853072
H -2.08957 0.98010486 0.84223527
H -1.8515686 0.22798361 -1.3912779
H -0.27012426 0.98534864 -1.5797783
H -0.78300905 -1.7749114 -0.6620226
H 1.0479552 -1.0350878 -2.203706
H 1.8040649 -0.18250267 -0.83874243
H 2.637388 -2.3232856 -1.00624
H -0.8790411 -1.1864789 1.6216714
H 0.8926124 -1.073159 1.4832323
