22
title
C -1.298139 2.7716146 -0.36601797
C -1.1487199 1.2537196 -0.4366685
C -0.15110964 0.7444429 -1.491102
C 0.063739836 -0.73183924 -1.113634
C -0.07613844 -0.7897269 0.43813768
C 1.2353833 -1.1192102 1.1405813
O 1.6187379 -2.4385908 0.77954274
C -0.6202446 0.60197496 0.85597426
H -0.33523577 3.2487066 -0.14711867
H -1.6645873 3.1817615 -1.3132715
H -2.0021887 3.0698931 0.4184914
H -2.1313334 0.8147168 -0.664178
H -0.5036515 0.8793462 -2.518533
H 0.78843397 1.3065302 -1.3975054
H -0.70844424 -1.3514173 -1.5813086
H 1.0256906 -1.1302271 -1.4463754
H -0.7879996 -1.5745466 0.71408564
H 2.0046282 -0.38652584 0.84135455
H 1.105371 -1.0281332 2.2316325
H 2.470482 -2.6265984 1.1839824
H 0.19872695 1.2190796 1.2535926
H -1.3780413 0.54136604 1.6429557
