title
 OpenBabel02282109593D

 22 22  0  0  1  0  0  0  0  0999 V2000
   -1.2981    2.7716   -0.3660 C   0  0  0  0  0  0  0  0  0  0  0  0
   -1.1487    1.2537   -0.4367 C   0  0  1  0  0  0  0  0  0  0  0  0
   -0.1511    0.7444   -1.4911 C   0  0  0  0  0  0  0  0  0  0  0  0
    0.0637   -0.7318   -1.1136 C   0  0  0  0  0  0  0  0  0  0  0  0
   -0.0761   -0.7897    0.4381 C   0  0  1  0  0  0  0  0  0  0  0  0
    1.2354   -1.1192    1.1406 C   0  0  0  0  0  0  0  0  0  0  0  0
    1.6187   -2.4386    0.7795 O   0  0  0  0  0  0  0  0  0  0  0  0
   -0.6202    0.6020    0.8560 C   0  0  0  0  0  0  0  0  0  0  0  0
   -0.3352    3.2487   -0.1471 H   0  0  0  0  0  0  0  0  0  0  0  0
   -1.6646    3.1818   -1.3133 H   0  0  0  0  0  0  0  0  0  0  0  0
   -2.0022    3.0699    0.4185 H   0  0  0  0  0  0  0  0  0  0  0  0
   -2.1313    0.8147   -0.6642 H   0  0  0  0  0  0  0  0  0  0  0  0
   -0.5037    0.8793   -2.5185 H   0  0  0  0  0  0  0  0  0  0  0  0
    0.7884    1.3065   -1.3975 H   0  0  0  0  0  0  0  0  0  0  0  0
   -0.7084   -1.3514   -1.5813 H   0  0  0  0  0  0  0  0  0  0  0  0
    1.0257   -1.1302   -1.4464 H   0  0  0  0  0  0  0  0  0  0  0  0
   -0.7880   -1.5745    0.7141 H   0  0  0  0  0  0  0  0  0  0  0  0
    2.0046   -0.3865    0.8414 H   0  0  0  0  0  0  0  0  0  0  0  0
    1.1054   -1.0281    2.2316 H   0  0  0  0  0  0  0  0  0  0  0  0
    2.4705   -2.6266    1.1840 H   0  0  0  0  0  0  0  0  0  0  0  0
    0.1987    1.2191    1.2536 H   0  0  0  0  0  0  0  0  0  0  0  0
   -1.3780    0.5414    1.6430 H   0  0  0  0  0  0  0  0  0  0  0  0
  1  9  1  0  0  0  0
  1 11  1  0  0  0  0
  2 12  1  6  0  0  0
  2  1  1  0  0  0  0
  2  8  1  0  0  0  0
  3 14  1  0  0  0  0
  3  4  1  0  0  0  0
  3  2  1  0  0  0  0
  4  5  1  0  0  0  0
  5 17  1  1  0  0  0
  5  8  1  0  0  0  0
  5  6  1  0  0  0  0
  6 19  1  0  0  0  0
  7  6  1  0  0  0  0
  7 20  1  0  0  0  0
  8 21  1  0  0  0  0
  8 22  1  0  0  0  0
 10  1  1  0  0  0  0
 13  3  1  0  0  0  0
 15  4  1  0  0  0  0
 16  4  1  0  0  0  0
 18  6  1  0  0  0  0
M  END
