20
title
C -1.5586331 2.1143093 -0.3318376
C -1.691351 0.5884849 -0.37832823
C -0.83261967 -0.025435105 -1.5009756
O 0.44271475 -0.23606898 -0.91571426
C 0.206237 -0.7649805 0.39250553
C 1.4490252 -0.47563335 1.2200612
O 2.6060383 -1.0451913 0.6435978
C -1.0984255 -0.09674169 0.88684964
H -0.50481135 2.404574 -0.26052552
H -1.9759972 2.5778904 -1.2320875
H -2.082229 2.5321558 0.5340716
H -2.7439625 0.3196242 -0.5098107
H -1.2598585 -0.9809138 -1.8474592
H -0.70325917 0.6306575 -2.3662763
H 0.07587735 -1.8562988 0.31424284
H 1.5473914 0.61720026 1.3341303
H 1.3408725 -0.90884906 2.2203362
H 2.600971 -0.77374464 -0.28184986
H -0.8919824 0.64315104 1.6674452
H -1.7810019 -0.8363016 1.311831
