20
title
C -0.55918735 2.6101868 -1.6102499
C -0.35996714 1.0933882 -1.6506038
C 0.49465033 0.57628083 -0.48630127
O -0.12977798 0.8963526 0.76628584
C -0.3124001 -0.27963904 1.5421959
C 0.19747995 -1.4179957 0.6940145
C 0.1500725 -2.8371234 1.1580368
C 0.66188043 -0.9178057 -0.4478396
H 0.39897606 3.136821 -1.6866345
H -1.1930939 2.9488654 -2.435358
H -1.0298401 2.9074314 -0.6694997
H -1.3290308 0.58091766 -1.6193861
H 0.12581508 0.7998545 -2.590556
H 1.4740735 1.0864627 -0.52534777
H 0.24125026 -0.19741489 2.4930923
H -1.3766408 -0.39875653 1.8037802
H 0.7135797 -2.9685895 2.0905063
H -0.87998676 -3.150654 1.3699974
H 0.5656717 -3.5186875 0.4116334
H 1.1017035 -1.479572 -1.2632906
