title
 OpenBabel02282109593D

 20 20  0  0  1  0  0  0  0  0999 V2000
   -1.0075    2.4122   -0.2012 C   0  0  0  0  0  0  0  0  0  0  0  0
   -1.0353    0.9515   -0.6189 C   0  0  1  0  0  0  0  0  0  0  0  0
   -0.0524    0.5529   -1.7241 C   0  0  0  0  0  0  0  0  0  0  0  0
    0.1399   -0.9500   -1.4628 C   0  0  0  0  0  0  0  0  0  0  0  0
   -0.0000   -1.0572    0.0685 C   0  0  1  0  0  0  0  0  0  0  0  0
    1.3356   -1.1172    0.8097 C   0  0  0  0  0  0  0  0  0  0  0  0
    1.1584   -0.9531    2.1996 O   0  0  0  0  0  0  0  0  0  0  0  0
   -0.6701    0.1391    0.5026 O   0  0  0  0  0  0  0  0  0  0  0  0
    0.0023    2.7041    0.1041 H   0  0  0  0  0  0  0  0  0  0  0  0
   -1.3213    3.0537   -1.0307 H   0  0  0  0  0  0  0  0  0  0  0  0
   -1.6850    2.5858    0.6396 H   0  0  0  0  0  0  0  0  0  0  0  0
   -2.0591    0.6827   -0.9300 H   0  0  0  0  0  0  0  0  0  0  0  0
   -0.4304    0.7716   -2.7259 H   0  0  0  0  0  0  0  0  0  0  0  0
    0.8907    1.0953   -1.5923 H   0  0  0  0  0  0  0  0  0  0  0  0
   -0.6414   -1.5307   -1.9621 H   0  0  0  0  0  0  0  0  0  0  0  0
    1.1050   -1.3251   -1.8150 H   0  0  0  0  0  0  0  0  0  0  0  0
   -0.6114   -1.9182    0.3679 H   0  0  0  0  0  0  0  0  0  0  0  0
    1.8073   -2.0940    0.6530 H   0  0  0  0  0  0  0  0  0  0  0  0
    2.0112   -0.3487    0.3944 H   0  0  0  0  0  0  0  0  0  0  0  0
    0.5655   -0.1964    2.2910 H   0  0  0  0  0  0  0  0  0  0  0  0
  1  9  1  0  0  0  0
  1 11  1  0  0  0  0
  2 12  1  6  0  0  0
  2  1  1  0  0  0  0
  2  8  1  0  0  0  0
  3 14  1  0  0  0  0
  3  4  1  0  0  0  0
  3  2  1  0  0  0  0
  4  5  1  0  0  0  0
  5 17  1  1  0  0  0
  5  8  1  0  0  0  0
  5  6  1  0  0  0  0
  6  7  1  0  0  0  0
  7 20  1  0  0  0  0
 10  1  1  0  0  0  0
 13  3  1  0  0  0  0
 15  4  1  0  0  0  0
 16  4  1  0  0  0  0
 18  6  1  0  0  0  0
 19  6  1  0  0  0  0
M  END
