20
title
C -1.007495 2.412159 -0.2011674
C -1.0353307 0.9515213 -0.61894846
C -0.052394554 0.55294365 -1.7241105
C 0.13985868 -0.9499883 -1.4627563
C -2.4841927e-05 -1.0571964 0.06846058
C 1.3356384 -1.117167 0.8096863
O 1.1584166 -0.9531155 2.1995785
O -0.6700645 0.13906497 0.50255084
H 0.0023345484 2.7040887 0.10407001
H -1.3212626 3.0536902 -1.0307269
H -1.6850022 2.585777 0.63959014
H -2.0591226 0.6827474 -0.9300155
H -0.43039882 0.7715889 -2.7259152
H 0.8907216 1.0953082 -1.5922567
H -0.6413723 -1.5306525 -1.9620585
H 1.1050421 -1.3251312 -1.8150368
H -0.61139524 -1.9181814 0.36786592
H 1.8073298 -2.0939655 0.6530287
H 2.0112464 -0.34871536 0.39436913
H 0.56546324 -0.19638425 2.2910101
