title
 OpenBabel02282109593D

 20 20  0  0  1  0  0  0  0  0999 V2000
   -0.8747    2.1106    1.7655 C   0  0  0  0  0  0  0  0  0  0  0  0
   -0.3238    0.6916    1.6109 C   0  0  0  0  0  0  0  0  0  0  0  0
    0.6650    0.5575    0.4522 C   0  0  1  0  0  0  0  0  0  0  0  0
    1.1719   -0.8849    0.2173 C   0  0  0  0  0  0  0  0  0  0  0  0
    0.3373   -1.3722   -0.9697 C   0  0  1  0  0  0  0  0  0  0  0  0
   -0.8821   -1.8907   -0.4511 O   0  0  0  0  0  0  0  0  0  0  0  0
    0.1450   -0.0658   -1.7436 C   0  0  0  0  0  0  0  0  0  0  0  0
    0.0154    0.9536   -0.7710 O   0  0  0  0  0  0  0  0  0  0  0  0
   -0.0715    2.8284    1.9698 H   0  0  0  0  0  0  0  0  0  0  0  0
   -1.3799    2.4274    0.8494 H   0  0  0  0  0  0  0  0  0  0  0  0
   -1.5910    2.1688    2.5908 H   0  0  0  0  0  0  0  0  0  0  0  0
    0.1879    0.3852    2.5328 H   0  0  0  0  0  0  0  0  0  0  0  0
   -1.1375   -0.0220    1.4425 H   0  0  0  0  0  0  0  0  0  0  0  0
    1.5113    1.2402    0.6190 H   0  0  0  0  0  0  0  0  0  0  0  0
    2.2324   -0.8900   -0.0498 H   0  0  0  0  0  0  0  0  0  0  0  0
    1.0330   -1.5308    1.0865 H   0  0  0  0  0  0  0  0  0  0  0  0
    0.8590   -2.1306   -1.5703 H   0  0  0  0  0  0  0  0  0  0  0  0
   -1.4979   -2.0027   -1.1821 H   0  0  0  0  0  0  0  0  0  0  0  0
    1.0135    0.1132   -2.4005 H   0  0  0  0  0  0  0  0  0  0  0  0
   -0.7554   -0.0682   -2.3705 H   0  0  0  0  0  0  0  0  0  0  0  0
  1  9  1  0  0  0  0
  1 11  1  0  0  0  0
  2  1  1  0  0  0  0
  2 12  1  0  0  0  0
  3 14  1  1  0  0  0
  3  2  1  0  0  0  0
  4  3  1  0  0  0  0
  4 16  1  0  0  0  0
  5 17  1  6  0  0  0
  5  6  1  0  0  0  0
  5  4  1  0  0  0  0
  7  5  1  0  0  0  0
  7  8  1  0  0  0  0
  8  3  1  0  0  0  0
 10  1  1  0  0  0  0
 13  2  1  0  0  0  0
 15  4  1  0  0  0  0
 18  6  1  0  0  0  0
 19  7  1  0  0  0  0
 20  7  1  0  0  0  0
M  END
