title
 OpenBabel02282109593D

 22 22  0  0  1  0  0  0  0  0999 V2000
    1.6517    2.7415    0.6269 C   0  0  0  0  0  0  0  0  0  0  0  0
    1.6581    1.2124    0.7308 C   0  0  0  0  0  0  0  0  0  0  0  0
    0.2751    0.5780    0.5682 C   0  0  1  0  0  0  0  0  0  0  0  0
   -0.3653    0.7737   -0.8199 C   0  0  0  0  0  0  0  0  0  0  0  0
   -1.2130   -0.3470   -1.0570 O   0  0  0  0  0  0  0  0  0  0  0  0
   -1.0722   -1.3130   -0.0077 C   0  0  1  0  0  0  0  0  0  0  0  0
   -1.1401   -2.7094   -0.6061 C   0  0  0  0  0  0  0  0  0  0  0  0
    0.2400   -0.9528    0.6953 C   0  0  0  0  0  0  0  0  0  0  0  0
    2.6552    3.1520    0.7758 H   0  0  0  0  0  0  0  0  0  0  0  0
    1.3006    3.0773   -0.3546 H   0  0  0  0  0  0  0  0  0  0  0  0
    0.9949    3.1862    1.3829 H   0  0  0  0  0  0  0  0  0  0  0  0
    2.3324    0.7937   -0.0286 H   0  0  0  0  0  0  0  0  0  0  0  0
    2.0729    0.9174    1.7029 H   0  0  0  0  0  0  0  0  0  0  0  0
   -0.3979    1.0037    1.3255 H   0  0  0  0  0  0  0  0  0  0  0  0
   -0.9564    1.6946   -0.8897 H   0  0  0  0  0  0  0  0  0  0  0  0
    0.4099    0.8146   -1.6018 H   0  0  0  0  0  0  0  0  0  0  0  0
   -1.9084   -1.1865    0.7015 H   0  0  0  0  0  0  0  0  0  0  0  0
   -0.3122   -2.8678   -1.3044 H   0  0  0  0  0  0  0  0  0  0  0  0
   -1.0854   -3.4687    0.1810 H   0  0  0  0  0  0  0  0  0  0  0  0
   -2.0784   -2.8476   -1.1507 H   0  0  0  0  0  0  0  0  0  0  0  0
    1.0875   -1.3970    0.1568 H   0  0  0  0  0  0  0  0  0  0  0  0
    0.2767   -1.3025    1.7306 H   0  0  0  0  0  0  0  0  0  0  0  0
  1  2  1  0  0  0  0
  1  9  1  0  0  0  0
  1 11  1  0  0  0  0
  2 13  1  0  0  0  0
  3  8  1  0  0  0  0
  3  2  1  0  0  0  0
  3 14  1  1  0  0  0
  4  3  1  0  0  0  0
  5  4  1  0  0  0  0
  5  6  1  0  0  0  0
  6  8  1  0  0  0  0
  6 17  1  1  0  0  0
  7  6  1  0  0  0  0
  7 19  1  0  0  0  0
  8 22  1  0  0  0  0
 10  1  1  0  0  0  0
 12  2  1  0  0  0  0
 15  4  1  0  0  0  0
 16  4  1  0  0  0  0
 18  7  1  0  0  0  0
 20  7  1  0  0  0  0
 21  8  1  0  0  0  0
M  END
