22
title
C -1.3949876 2.5611873 1.2005717
C -1.4089303 1.0380477 1.038291
C -0.6789174 0.53563863 -0.21191074
C 0.83701605 0.8367478 -0.24656428
C 1.3914044 -0.23032178 -1.2001914
C 0.6431872 -1.5028516 -0.7687975
O 1.2036364 -2.0541766 0.42485392
C -0.7725449 -1.007681 -0.40743577
H -0.37516302 2.9454799 1.3057984
H -1.846345 3.0554411 0.33243912
H -1.9573373 2.8700368 2.0874388
H -0.9580406 0.567418 1.9225012
H -2.4493182 0.68869853 1.0061139
H -1.1348209 1.0213275 -1.0861593
H 1.0660703 1.8583618 -0.5608624
H 1.2671039 0.68746275 0.7508848
H 1.1313794 0.013343324 -2.2385976
H 2.479887 -0.34918272 -1.1558326
H 0.62657064 -2.2653768 -1.5603513
H 2.1181343 -2.2899761 0.23763572
H -1.0920335 -1.5141975 0.50770223
H -1.4916513 -1.2659973 -1.1898206
