title
 OpenBabel02282109593D

 22 22  0  0  1  0  0  0  0  0999 V2000
   -1.5435    2.3194   -1.1122 C   0  0  0  0  0  0  0  0  0  0  0  0
   -1.6218    0.7907   -1.0898 C   0  0  0  0  0  0  0  0  0  0  0  0
   -0.8747    0.1683    0.0814 C   0  0  1  0  0  0  0  0  0  0  0  0
   -0.9219   -1.3749    0.1576 C   0  0  0  0  0  0  0  0  0  0  0  0
    0.4781   -1.7603    0.6960 C   0  0  0  0  0  0  0  0  0  0  0  0
    1.2007   -0.4001    0.8529 C   0  0  1  0  0  0  0  0  0  0  0  0
    2.6769   -0.3983    0.4977 C   0  0  0  0  0  0  0  0  0  0  0  0
    0.5093    0.4851   -0.0200 O   0  0  0  0  0  0  0  0  0  0  0  0
   -0.5022    2.6488   -1.1560 H   0  0  0  0  0  0  0  0  0  0  0  0
   -2.0719    2.7304   -1.9778 H   0  0  0  0  0  0  0  0  0  0  0  0
   -1.9933    2.7510   -0.2108 H   0  0  0  0  0  0  0  0  0  0  0  0
   -2.6685    0.4654   -1.0400 H   0  0  0  0  0  0  0  0  0  0  0  0
   -1.2052    0.3783   -2.0173 H   0  0  0  0  0  0  0  0  0  0  0  0
   -1.2678    0.5878    1.0262 H   0  0  0  0  0  0  0  0  0  0  0  0
   -1.7364   -1.7226    0.7983 H   0  0  0  0  0  0  0  0  0  0  0  0
   -1.0868   -1.7951   -0.8392 H   0  0  0  0  0  0  0  0  0  0  0  0
    0.4351   -2.3040    1.6433 H   0  0  0  0  0  0  0  0  0  0  0  0
    1.0137   -2.3918   -0.0192 H   0  0  0  0  0  0  0  0  0  0  0  0
    1.0741   -0.0464    1.8918 H   0  0  0  0  0  0  0  0  0  0  0  0
    2.8198   -0.7380   -0.5330 H   0  0  0  0  0  0  0  0  0  0  0  0
    3.0965    0.6074    0.5902 H   0  0  0  0  0  0  0  0  0  0  0  0
    3.2320   -1.0654    1.1646 H   0  0  0  0  0  0  0  0  0  0  0  0
  1  2  1  0  0  0  0
  1 11  1  0  0  0  0
  2 12  1  0  0  0  0
  2  3  1  0  0  0  0
  3  4  1  0  0  0  0
  3 14  1  1  0  0  0
  4  5  1  0  0  0  0
  4 15  1  0  0  0  0
  5  6  1  0  0  0  0
  5 17  1  0  0  0  0
  6 19  1  1  0  0  0
  7 21  1  0  0  0  0
  7  6  1  0  0  0  0
  7 22  1  0  0  0  0
  8  3  1  0  0  0  0
  8  6  1  0  0  0  0
  9  1  1  0  0  0  0
 10  1  1  0  0  0  0
 13  2  1  0  0  0  0
 16  4  1  0  0  0  0
 18  5  1  0  0  0  0
 20  7  1  0  0  0  0
M  END
