20
title
C 1.6962751 2.3843405 -0.8005444
C 1.7351054 0.85428447 -0.8193308
C 0.3521585 0.22171688 -0.80570376
C 0.3270355 -1.3233739 -0.7964791
O -0.70273286 -1.663525 0.12407279
C -1.2984252 -0.45280313 0.5700252
C -1.7107582 -0.56704724 2.0199764
O -0.32260567 0.54730666 0.4065627
H 2.706904 2.8030121 -0.7919308
H 1.1785676 2.777838 -1.6823218
H 1.1681368 2.7441032 0.086322725
H 2.2636905 0.5003312 -1.7136476
H 2.2904592 0.478419 0.048461374
H -0.23796003 0.59593034 -1.6598549
H 0.112177916 -1.7372457 -1.7894638
H 1.2770956 -1.7423128 -0.44110996
H -2.1705976 -0.22517014 -0.073622644
H -0.8324967 -0.7740364 2.6360657
H -2.1746216 0.36504385 2.353018
H -2.430976 -1.3804761 2.137205
