20
title
C -0.8236567 2.6071215 1.1780592
O -1.115456 1.2696005 0.85079193
C -0.36615923 0.7678534 -0.23760904
C 1.1309794 0.52136606 0.054707393
C 1.4898924 -0.5951207 -0.93387306
C 0.28455737 -1.5508931 -0.8373617
O 0.3659517 -2.3734243 0.32631758
C -0.92683285 -0.6169099 -0.64358413
H 0.2070737 2.7361915 1.5404617
H -0.9699028 3.2784934 0.31607476
H -1.5115663 2.9034433 1.9740934
H -0.4531134 1.4721806 -1.0831114
H 1.7522451 1.4140977 -0.05243112
H 1.2243685 0.15226564 1.0814997
H 1.5618445 -0.19603625 -1.9541203
H 2.4390707 -1.0952773 -0.71358085
H 0.1830187 -2.178422 -1.7337948
H 1.156819 -2.9169183 0.24774818
H -1.5578375 -1.0032673 0.15931992
H -1.5347211 -0.55226415 -1.5490464
