20
title
C -1.0193623 2.37194 -1.2613006
O -1.0087084 0.96973795 -1.0664486
C -0.74324214 0.5911403 0.26096106
C -0.8252571 -0.9461833 0.3371954
C 0.5953431 -1.3910424 0.754768
C 1.0746061 -2.6924057 0.115637764
C 1.4209675 -0.15210262 0.38047576
O 0.5649364 0.9503576 0.6678667
H -0.049584877 2.8203502 -1.0164459
H -1.245808 2.54748 -2.3153758
H -1.7936094 2.8551075 -0.6451915
H -1.4266845 1.1229105 0.9387772
H -1.5927765 -1.2776982 1.0397786
H -1.0863594 -1.3255106 -0.65433973
H 0.6262069 -1.4927694 1.846124
H 1.0648116 -2.6185923 -0.97770894
H 2.0958471 -2.9378476 0.4266895
H 0.43285084 -3.5328145 0.39855134
H 2.3337815 -0.029459381 0.96909606
H 1.6906456 -0.17019954 -0.68694043
