20
title
C 1.4015747 2.200827 -0.2756623
O 1.4071004 0.78798395 -0.19254512
C 0.34642732 0.18127328 -0.8925066
C 0.51871026 -1.3458774 -0.7811768
C -0.7736821 -1.8251467 -0.09028721
C -1.3255062 -0.54175234 0.55675924
C -0.8233037 -0.29124415 1.979363
O -0.91733 0.49830407 -0.34560668
H 2.2705517 2.5586557 0.28114188
H 1.4832455 2.5397887 -1.320113
H 0.48915243 2.625818 0.15833193
H 0.33432364 0.5619898 -1.92478
H 0.66193795 -1.8052101 -1.7611173
H 1.4096298 -1.5482562 -0.18345308
H -1.48701 -2.2028654 -0.8283387
H -0.5951686 -2.6193826 0.63868225
H -2.42027 -0.5264704 0.552408
H 0.2689973 -0.31056452 2.020972
H -1.1588974 0.6891701 2.3295424
H -1.2160838 -1.052393 2.6622794
