title
 OpenBabel02282109593D

 20 20  0  0  1  0  0  0  0  0999 V2000
    1.6646    2.2094    0.1978 O   0  0  0  0  0  0  0  0  0  0  0  0
    1.5139    0.8233    0.4793 C   0  0  0  0  0  0  0  0  0  0  0  0
    0.0430    0.5585    0.7847 C   0  0  1  0  0  0  0  0  0  0  0  0
   -0.8784    0.9048   -0.4238 C   0  0  0  0  0  0  0  0  0  0  0  0
   -1.7725   -0.3339   -0.6332 C   0  0  0  0  0  0  0  0  0  0  0  0
   -0.9010   -1.5042   -0.1594 C   0  0  1  0  0  0  0  0  0  0  0  0
    0.1361   -1.8060   -1.0953 O   0  0  0  0  0  0  0  0  0  0  0  0
   -0.2202   -0.9421    1.0920 C   0  0  0  0  0  0  0  0  0  0  0  0
    2.5668    2.3579   -0.0990 H   0  0  0  0  0  0  0  0  0  0  0  0
    1.8174    0.2015   -0.3762 H   0  0  0  0  0  0  0  0  0  0  0  0
    2.1309    0.5284    1.3441 H   0  0  0  0  0  0  0  0  0  0  0  0
   -0.2244    1.1734    1.6501 H   0  0  0  0  0  0  0  0  0  0  0  0
   -1.4610    1.8129   -0.2543 H   0  0  0  0  0  0  0  0  0  0  0  0
   -0.2647    1.0876   -1.3099 H   0  0  0  0  0  0  0  0  0  0  0  0
   -2.6690   -0.2812   -0.0030 H   0  0  0  0  0  0  0  0  0  0  0  0
   -2.1162   -0.4553   -1.6670 H   0  0  0  0  0  0  0  0  0  0  0  0
   -1.4882   -2.4084    0.0570 H   0  0  0  0  0  0  0  0  0  0  0  0
   -0.2764   -1.9882   -1.9457 H   0  0  0  0  0  0  0  0  0  0  0  0
    0.6924   -1.4998    1.3222 H   0  0  0  0  0  0  0  0  0  0  0  0
   -0.8947   -1.0497    1.9471 H   0  0  0  0  0  0  0  0  0  0  0  0
  1  2  1  0  0  0  0
  2  3  1  0  0  0  0
  2 11  1  0  0  0  0
  3  8  1  0  0  0  0
  3 12  1  1  0  0  0
  4 13  1  0  0  0  0
  4  3  1  0  0  0  0
  5  4  1  0  0  0  0
  5  6  1  0  0  0  0
  5 15  1  0  0  0  0
  6 17  1  1  0  0  0
  6  8  1  0  0  0  0
  7  6  1  0  0  0  0
  8 19  1  0  0  0  0
  8 20  1  0  0  0  0
  9  1  1  0  0  0  0
 10  2  1  0  0  0  0
 14  4  1  0  0  0  0
 16  5  1  0  0  0  0
 18  7  1  0  0  0  0
M  END
