22
title
C -0.7454492 2.3551097 1.6444685
O -0.86748075 1.0593797 1.1107414
C -0.3535482 0.92060345 -0.21142799
C 1.1861806 0.7763538 -0.22692281
C 1.4136686 -0.73190653 -0.06872148
C 0.34153715 -1.3430251 -0.98929876
C 0.060223073 -2.8263226 -0.7563122
C -0.885959 -0.42263398 -0.7697076
H 0.3018408 2.672448 1.7609822
H -1.2585889 3.102214 1.0174532
H -1.213808 2.343789 2.6322343
H -0.6852161 1.7824637 -0.8093707
H 1.572334 1.112881 -1.1974092
H 1.6697876 1.3838748 0.54281735
H 2.4292665 -1.0507146 -0.32206076
H 1.2212851 -1.0271493 0.9705657
H 0.6862921 -1.2159559 -2.025363
H -0.27483627 -3.002479 0.2725013
H -0.7222055 -3.1959133 -1.4281199
H 0.9558049 -3.4341145 -0.9253368
H -1.5577886 -0.8443545 -0.015386647
H -1.469599 -0.28687927 -1.6843472
