20
title
C -0.79993653 2.2979043 1.2288208
O -0.9346694 1.0309677 0.62848824
C -0.19796398 0.87265754 -0.5737476
C 1.2939745 0.6063256 -0.3340934
O 1.3995141 -0.76686966 -0.004908327
C 0.28391668 -1.4988583 -0.541539
C -0.38481152 -2.2703817 0.5909801
C -0.6276026 -0.4484788 -1.2178805
H 0.22843572 2.5036578 1.5605478
H -1.1067666 3.1038275 0.54313326
H -1.454201 2.3109388 2.1038291
H -0.3615805 1.7416077 -1.2285991
H 1.8654038 0.8457907 -1.2470274
H 1.7130047 1.1931832 0.48931527
H 0.6702965 -2.2061691 -1.2884221
H -0.8203393 -1.5722922 1.3105124
H -1.1765199 -2.919822 0.20201826
H 0.3501986 -2.8950899 1.1065716
H -1.6903621 -0.6375135 -1.0562491
H -0.44297767 -0.40708682 -2.2950535
