title
 OpenBabel02282109593D

 20 20  0  0  1  0  0  0  0  0999 V2000
   -0.7999    2.2979    1.2288 C   0  0  0  0  0  0  0  0  0  0  0  0
   -0.9347    1.0310    0.6285 O   0  0  0  0  0  0  0  0  0  0  0  0
   -0.1980    0.8727   -0.5737 C   0  0  1  0  0  0  0  0  0  0  0  0
    1.2940    0.6063   -0.3341 C   0  0  0  0  0  0  0  0  0  0  0  0
    1.3995   -0.7669   -0.0049 O   0  0  0  0  0  0  0  0  0  0  0  0
    0.2839   -1.4989   -0.5415 C   0  0  1  0  0  0  0  0  0  0  0  0
   -0.3848   -2.2704    0.5910 C   0  0  0  0  0  0  0  0  0  0  0  0
   -0.6276   -0.4485   -1.2179 C   0  0  0  0  0  0  0  0  0  0  0  0
    0.2284    2.5037    1.5605 H   0  0  0  0  0  0  0  0  0  0  0  0
   -1.1068    3.1038    0.5431 H   0  0  0  0  0  0  0  0  0  0  0  0
   -1.4542    2.3109    2.1038 H   0  0  0  0  0  0  0  0  0  0  0  0
   -0.3616    1.7416   -1.2286 H   0  0  0  0  0  0  0  0  0  0  0  0
    1.8654    0.8458   -1.2470 H   0  0  0  0  0  0  0  0  0  0  0  0
    1.7130    1.1932    0.4893 H   0  0  0  0  0  0  0  0  0  0  0  0
    0.6703   -2.2062   -1.2884 H   0  0  0  0  0  0  0  0  0  0  0  0
   -0.8203   -1.5723    1.3105 H   0  0  0  0  0  0  0  0  0  0  0  0
   -1.1765   -2.9198    0.2020 H   0  0  0  0  0  0  0  0  0  0  0  0
    0.3502   -2.8951    1.1066 H   0  0  0  0  0  0  0  0  0  0  0  0
   -1.6904   -0.6375   -1.0562 H   0  0  0  0  0  0  0  0  0  0  0  0
   -0.4430   -0.4071   -2.2951 H   0  0  0  0  0  0  0  0  0  0  0  0
  1  9  1  0  0  0  0
  1 11  1  0  0  0  0
  2  1  1  0  0  0  0
  3 12  1  6  0  0  0
  3  4  1  0  0  0  0
  3  2  1  0  0  0  0
  4  5  1  0  0  0  0
  4 14  1  0  0  0  0
  6 15  1  6  0  0  0
  6  5  1  0  0  0  0
  6  7  1  0  0  0  0
  7 18  1  0  0  0  0
  7 16  1  0  0  0  0
  8 19  1  0  0  0  0
  8  3  1  0  0  0  0
  8  6  1  0  0  0  0
 10  1  1  0  0  0  0
 13  4  1  0  0  0  0
 17  7  1  0  0  0  0
 20  8  1  0  0  0  0
M  END
