title
 OpenBabel02282109593D

 20 20  0  0  1  0  0  0  0  0999 V2000
   -0.8237    2.6071    1.1781 C   0  0  0  0  0  0  0  0  0  0  0  0
   -1.1155    1.2696    0.8508 O   0  0  0  0  0  0  0  0  0  0  0  0
   -0.3662    0.7679   -0.2376 C   0  0  1  0  0  0  0  0  0  0  0  0
    1.1310    0.5214    0.0547 C   0  0  0  0  0  0  0  0  0  0  0  0
    1.4899   -0.5951   -0.9339 C   0  0  0  0  0  0  0  0  0  0  0  0
    0.2846   -1.5509   -0.8374 C   0  0  1  0  0  0  0  0  0  0  0  0
    0.3660   -2.3734    0.3263 O   0  0  0  0  0  0  0  0  0  0  0  0
   -0.9268   -0.6169   -0.6436 C   0  0  0  0  0  0  0  0  0  0  0  0
    0.2071    2.7362    1.5405 H   0  0  0  0  0  0  0  0  0  0  0  0
   -0.9699    3.2785    0.3161 H   0  0  0  0  0  0  0  0  0  0  0  0
   -1.5116    2.9034    1.9741 H   0  0  0  0  0  0  0  0  0  0  0  0
   -0.4531    1.4722   -1.0831 H   0  0  0  0  0  0  0  0  0  0  0  0
    1.7522    1.4141   -0.0524 H   0  0  0  0  0  0  0  0  0  0  0  0
    1.2244    0.1523    1.0815 H   0  0  0  0  0  0  0  0  0  0  0  0
    1.5618   -0.1960   -1.9541 H   0  0  0  0  0  0  0  0  0  0  0  0
    2.4391   -1.0953   -0.7136 H   0  0  0  0  0  0  0  0  0  0  0  0
    0.1830   -2.1784   -1.7338 H   0  0  0  0  0  0  0  0  0  0  0  0
    1.1568   -2.9169    0.2477 H   0  0  0  0  0  0  0  0  0  0  0  0
   -1.5578   -1.0033    0.1593 H   0  0  0  0  0  0  0  0  0  0  0  0
   -1.5347   -0.5523   -1.5490 H   0  0  0  0  0  0  0  0  0  0  0  0
  1  9  1  0  0  0  0
  1 11  1  0  0  0  0
  2  1  1  0  0  0  0
  3 12  1  6  0  0  0
  3  4  1  0  0  0  0
  3  2  1  0  0  0  0
  4 14  1  0  0  0  0
  5  6  1  0  0  0  0
  5 16  1  0  0  0  0
  5  4  1  0  0  0  0
  6 17  1  6  0  0  0
  6  8  1  0  0  0  0
  6  7  1  0  0  0  0
  8  3  1  0  0  0  0
  8 19  1  0  0  0  0
 10  1  1  0  0  0  0
 13  4  1  0  0  0  0
 15  5  1  0  0  0  0
 18  7  1  0  0  0  0
 20  8  1  0  0  0  0
M  END
