16
title
O -1.4921948 -1.280198 1.3083608
C -0.9754953 -0.3542445 0.7216534
C 0.44727886 0.108071655 0.9989205
C 1.4067677 -0.38568237 -0.07261776
C 1.6191019 0.39540264 -1.3455917
C 2.7120595 0.3320919 -0.30923492
C -1.6918052 0.36872432 -0.31995317
C -2.2963943 0.9814491 -1.1618493
H 0.47361505 1.203316 1.0383397
H 0.7284628 -0.28737226 1.9798716
H 1.4344352 -1.4678141 -0.16533095
H 1.7486359 -0.15620854 -2.2698097
H 1.0809869 1.3298018 -1.460495
H 2.9114459 1.2248564 0.2745416
H 3.5923073 -0.2653058 -0.51873964
H -2.8408928 1.5102262 -1.9061717
