18
title
C -0.6374772 2.3628101 1.5467638
O -0.43469518 0.96660763 1.4226077
C 0.5797776 0.62715346 0.5163145
C 0.74315614 -0.90256417 0.5332849
C 0.39420298 -1.3438658 -0.89781785
O -0.3338974 -2.5572429 -0.8666825
C -0.4025863 -0.13101625 -1.4109282
O 0.24726054 0.9863756 -0.81954885
H 0.27356985 2.8682024 1.9027729
H -0.9364738 2.8127956 0.5931215
H -1.4322937 2.5061672 2.2819
H 1.4942334 1.1887316 0.7555097
H 1.7450196 -1.2071675 0.83929
H 0.018829554 -1.334539 1.227111
H 1.3108 -1.454266 -1.4949896
H -0.44153044 -2.8679168 -1.7708831
H -0.3776846 0.0015741545 -2.4961035
H -1.4476573 -0.2213211 -1.080637
