title
 OpenBabel02282109593D

 18 18  0  0  1  0  0  0  0  0999 V2000
    1.9502    1.8619   -0.0067 O   0  0  0  0  0  0  0  0  0  0  0  0
    1.5678    0.5851   -0.4786 C   0  0  0  0  0  0  0  0  0  0  0  0
    0.0802    0.5525   -0.8243 C   0  0  1  0  0  0  0  0  0  0  0  0
   -0.4641   -0.8481   -1.1624 C   0  0  0  0  0  0  0  0  0  0  0  0
   -1.0882   -1.3194    0.1558 C   0  0  1  0  0  0  0  0  0  0  0  0
   -0.0544   -1.9199    0.9260 O   0  0  0  0  0  0  0  0  0  0  0  0
   -1.5769    0.0062    0.7464 C   0  0  0  0  0  0  0  0  0  0  0  0
   -0.6393    0.9942    0.3469 O   0  0  0  0  0  0  0  0  0  0  0  0
    1.3131    2.0808    0.6842 H   0  0  0  0  0  0  0  0  0  0  0  0
    2.1635    0.3820   -1.3759 H   0  0  0  0  0  0  0  0  0  0  0  0
    1.7734   -0.2046    0.2589 H   0  0  0  0  0  0  0  0  0  0  0  0
   -0.1155    1.2744   -1.6271 H   0  0  0  0  0  0  0  0  0  0  0  0
   -1.2309   -0.7935   -1.9397 H   0  0  0  0  0  0  0  0  0  0  0  0
    0.3136   -1.5397   -1.4941 H   0  0  0  0  0  0  0  0  0  0  0  0
   -1.9166   -2.0241   -0.0010 H   0  0  0  0  0  0  0  0  0  0  0  0
   -0.3868   -2.0707    1.8166 H   0  0  0  0  0  0  0  0  0  0  0  0
   -2.5824    0.2446    0.3633 H   0  0  0  0  0  0  0  0  0  0  0  0
   -1.6272   -0.0096    1.8417 H   0  0  0  0  0  0  0  0  0  0  0  0
  1  9  1  0  0  0  0
  2  1  1  0  0  0  0
  2 11  1  0  0  0  0
  3 12  1  6  0  0  0
  3  2  1  0  0  0  0
  3  8  1  0  0  0  0
  4  3  1  0  0  0  0
  4  5  1  0  0  0  0
  5 15  1  6  0  0  0
  5  7  1  0  0  0  0
  5  6  1  0  0  0  0
  6 16  1  0  0  0  0
  7 18  1  0  0  0  0
  8  7  1  0  0  0  0
 10  2  1  0  0  0  0
 13  4  1  0  0  0  0
 14  4  1  0  0  0  0
 17  7  1  0  0  0  0
M  END
