15
title
O -1.6326454 -1.1512983 1.3462037
C -0.99678963 -0.3373326 0.7266387
C 0.4158678 0.09771897 1.0507668
C 1.4039787 -0.38448173 -0.00037467456
C 1.6544286 0.41260684 -1.2585474
C 2.7130957 0.3413645 -0.18979114
C -1.5972137 0.30551648 -0.46808186
N -2.0771112 0.82575274 -1.3826932
H 0.44240117 1.1934245 1.1031029
H 0.656584 -0.30580986 2.0386088
H 1.4384159 -1.4654727 -0.102045536
H 1.8113686 -0.13226329 -2.1821163
H 1.1197239 1.3473463 -1.3850026
H 2.8909347 1.2276142 0.41035572
H 3.5997567 -0.2539246 -0.37528357
