title
 OpenBabel02282109593D

 15 15  0  0  0  0  0  0  0  0999 V2000
   -1.3844    0.1426   -1.8725 O   0  0  0  0  0  0  0  0  0  0  0  0
   -0.9292    0.2555   -0.7553 C   0  0  0  0  0  0  0  0  0  0  0  0
    0.4989    0.7430   -0.5182 C   0  0  0  0  0  0  0  0  0  0  0  0
    1.1188    0.1038    0.6284 N   0  0  0  0  0  0  0  0  0  0  0  0
    1.8588   -1.1272    0.3604 C   0  0  0  0  0  0  0  0  0  0  0  0
    2.5764    0.1391    0.6751 C   0  0  0  0  0  0  0  0  0  0  0  0
   -1.7279   -0.0271    0.4231 C   0  0  0  0  0  0  0  0  0  0  0  0
   -2.4273   -0.2537    1.3760 C   0  0  0  0  0  0  0  0  0  0  0  0
    1.0446    0.6081   -1.4662 H   0  0  0  0  0  0  0  0  0  0  0  0
    0.4403    1.8230   -0.3212 H   0  0  0  0  0  0  0  0  0  0  0  0
    1.7592   -1.9070    1.1092 H   0  0  0  0  0  0  0  0  0  0  0  0
    1.9034   -1.4821   -0.6679 H   0  0  0  0  0  0  0  0  0  0  0  0
    3.1029    0.6282   -0.1428 H   0  0  0  0  0  0  0  0  0  0  0  0
    3.0107    0.2997    1.6575 H   0  0  0  0  0  0  0  0  0  0  0  0
   -3.0425   -0.4545    2.2192 H   0  0  0  0  0  0  0  0  0  0  0  0
  1  2  2  0  0  0  0
  2  3  1  0  0  0  0
  2  7  1  0  0  0  0
  3 10  1  0  0  0  0
  3  4  1  0  0  0  0
  4  6  1  0  0  0  0
  5  4  1  0  0  0  0
  5  6  1  0  0  0  0
  5 11  1  0  0  0  0
  6 14  1  0  0  0  0
  7  8  3  0  0  0  0
  8 15  1  0  0  0  0
  9  3  1  0  0  0  0
 12  5  1  0  0  0  0
 13  6  1  0  0  0  0
M  END
