title
 OpenBabel02282109593D

 14 14  0  0  0  0  0  0  0  0999 V2000
   -1.5609    0.0214   -1.7673 O   0  0  0  0  0  0  0  0  0  0  0  0
   -0.9738    0.1788   -0.7282 C   0  0  0  0  0  0  0  0  0  0  0  0
    0.4323    0.7468   -0.6213 C   0  0  0  0  0  0  0  0  0  0  0  0
    1.1341    0.2004    0.5212 N   0  0  0  0  0  0  0  0  0  0  0  0
    1.9750   -0.9717    0.2789 C   0  0  0  0  0  0  0  0  0  0  0  0
    2.5840    0.3624    0.5369 C   0  0  0  0  0  0  0  0  0  0  0  0
   -1.6330   -0.1564    0.5533 C   0  0  0  0  0  0  0  0  0  0  0  0
   -2.2091   -0.4193    1.5208 N   0  0  0  0  0  0  0  0  0  0  0  0
    0.9242    0.5882   -1.5946 H   0  0  0  0  0  0  0  0  0  0  0  0
    0.3230    1.8322   -0.4808 H   0  0  0  0  0  0  0  0  0  0  0  0
    1.9542   -1.7287    1.0563 H   0  0  0  0  0  0  0  0  0  0  0  0
    2.0315   -1.3571   -0.7378 H   0  0  0  0  0  0  0  0  0  0  0  0
    3.0500    0.8680   -0.3069 H   0  0  0  0  0  0  0  0  0  0  0  0
    3.0167    0.5944    1.5051 H   0  0  0  0  0  0  0  0  0  0  0  0
  1  2  2  0  0  0  0
  2  3  1  0  0  0  0
  2  7  1  0  0  0  0
  3 10  1  0  0  0  0
  3  4  1  0  0  0  0
  4  6  1  0  0  0  0
  5  4  1  0  0  0  0
  5  6  1  0  0  0  0
  5 11  1  0  0  0  0
  6 14  1  0  0  0  0
  7  8  3  0  0  0  0
  9  3  1  0  0  0  0
 12  5  1  0  0  0  0
 13  6  1  0  0  0  0
M  END
