14
title
O -1.620974 -1.2669795 -1.2132266
C -1.0021884 -0.3766003 -0.6913851
C 0.39814922 0.05773266 -1.0763994
C 1.4259919 -0.41362134 -0.057009846
C 2.6352093 0.4045963 0.21002364
N 1.5934116 0.26116177 1.2375249
C -1.5972204 0.3862314 0.43213576
N -2.0473056 1.0170661 1.2907733
H 0.61087614 -0.37278238 -2.05939
H 0.42541727 1.1516868 -1.15129
H 1.5078543 -1.4964846 0.010296866
H 3.5784588 -0.08161453 0.44053733
H 2.7300344 1.3517057 -0.31579155
H 1.0202731 1.0998329 1.2910826
