title
 OpenBabel02282109593D

 13 13  0  0  0  0  0  0  0  0999 V2000
   -0.9183   -1.5175   -0.3928 O   0  0  0  0  0  0  0  0  0  0  0  0
   -0.8818   -0.3703   -0.0441 C   0  0  0  0  0  0  0  0  0  0  0  0
    0.1939    0.3360    0.3101 O   0  0  0  0  0  0  0  0  0  0  0  0
    1.4440   -0.3489    0.2453 C   0  0  0  0  0  0  0  0  0  0  0  0
    2.3830    0.0448   -0.8534 C   0  0  0  0  0  0  0  0  0  0  0  0
    2.6320    0.4891    0.5745 C   0  0  0  0  0  0  0  0  0  0  0  0
   -2.0809    0.4707    0.0651 C   0  0  0  0  0  0  0  0  0  0  0  0
   -3.0556    1.0867    0.1287 N   0  0  0  0  0  0  0  0  0  0  0  0
    1.3737   -1.3812    0.5621 H   0  0  0  0  0  0  0  0  0  0  0  0
    3.0056   -0.7289   -1.2873 H   0  0  0  0  0  0  0  0  0  0  0  0
    2.0358    0.7984   -1.5506 H   0  0  0  0  0  0  0  0  0  0  0  0
    2.4460    1.5311    0.8071 H   0  0  0  0  0  0  0  0  0  0  0  0
    3.4341    0.0307    1.1409 H   0  0  0  0  0  0  0  0  0  0  0  0
  1  2  2  0  0  0  0
  2  7  1  0  0  0  0
  2  3  1  0  0  0  0
  4  3  1  0  0  0  0
  4  9  1  0  0  0  0
  4  6  1  0  0  0  0
  5  4  1  0  0  0  0
  5  6  1  0  0  0  0
  6 12  1  0  0  0  0
  6 13  1  0  0  0  0
  7  8  3  0  0  0  0
 10  5  1  0  0  0  0
 11  5  1  0  0  0  0
M  END
