title
 OpenBabel02282109593D

 14 14  0  0  1  0  0  0  0  0999 V2000
   -1.6210   -1.2670   -1.2132 O   0  0  0  0  0  0  0  0  0  0  0  0
   -1.0022   -0.3766   -0.6914 C   0  0  0  0  0  0  0  0  0  0  0  0
    0.3981    0.0577   -1.0764 C   0  0  0  0  0  0  0  0  0  0  0  0
    1.4260   -0.4136   -0.0570 C   0  0  1  0  0  0  0  0  0  0  0  0
    2.6352    0.4046    0.2100 C   0  0  0  0  0  0  0  0  0  0  0  0
    1.5934    0.2612    1.2375 N   0  0  0  0  0  0  0  0  0  0  0  0
   -1.5972    0.3862    0.4321 C   0  0  0  0  0  0  0  0  0  0  0  0
   -2.0473    1.0171    1.2908 N   0  0  0  0  0  0  0  0  0  0  0  0
    0.6109   -0.3728   -2.0594 H   0  0  0  0  0  0  0  0  0  0  0  0
    0.4254    1.1517   -1.1513 H   0  0  0  0  0  0  0  0  0  0  0  0
    1.5079   -1.4965    0.0103 H   0  0  0  0  0  0  0  0  0  0  0  0
    3.5785   -0.0816    0.4405 H   0  0  0  0  0  0  0  0  0  0  0  0
    2.7300    1.3517   -0.3158 H   0  0  0  0  0  0  0  0  0  0  0  0
    1.0203    1.0998    1.2911 H   0  0  0  0  0  0  0  0  0  0  0  0
  1  2  2  0  0  0  0
  2  7  1  0  0  0  0
  3  2  1  0  0  0  0
  3  4  1  0  0  0  0
  4 11  1  1  0  0  0
  4  5  1  0  0  0  0
  4  6  1  0  0  0  0
  5 12  1  0  0  0  0
  5  6  1  0  0  0  0
  6 14  1  0  0  0  0
  7  8  3  0  0  0  0
  9  3  1  0  0  0  0
 10  3  1  0  0  0  0
 13  5  1  0  0  0  0
M  END
