title
 OpenBabel02282109593D

 15 15  0  0  1  0  0  0  0  0999 V2000
   -1.5317   -1.3511   -1.2237 O   0  0  0  0  0  0  0  0  0  0  0  0
   -0.9790   -0.4053   -0.7081 C   0  0  0  0  0  0  0  0  0  0  0  0
    0.4520    0.0003   -1.0385 C   0  0  0  0  0  0  0  0  0  0  0  0
    1.4201   -0.4116    0.0590 C   0  0  1  0  0  0  0  0  0  0  0  0
    2.6206    0.4136    0.3421 C   0  0  0  0  0  0  0  0  0  0  0  0
    1.5173    0.3477    1.3143 N   0  0  0  0  0  0  0  0  0  0  0  0
   -1.6496    0.4138    0.2914 C   0  0  0  0  0  0  0  0  0  0  0  0
   -2.2014    1.1095    1.1048 C   0  0  0  0  0  0  0  0  0  0  0  0
    0.7183   -0.4912   -1.9793 H   0  0  0  0  0  0  0  0  0  0  0  0
    0.4972    1.0871   -1.1792 H   0  0  0  0  0  0  0  0  0  0  0  0
    1.4882   -1.4879    0.2034 H   0  0  0  0  0  0  0  0  0  0  0  0
    3.5441   -0.0595    0.6633 H   0  0  0  0  0  0  0  0  0  0  0  0
    2.7568    1.3225   -0.2393 H   0  0  0  0  0  0  0  0  0  0  0  0
    0.9445    1.1865    1.2604 H   0  0  0  0  0  0  0  0  0  0  0  0
   -2.7044    1.7067    1.8265 H   0  0  0  0  0  0  0  0  0  0  0  0
  1  2  2  0  0  0  0
  2  7  1  0  0  0  0
  3  2  1  0  0  0  0
  3  4  1  0  0  0  0
  4 11  1  1  0  0  0
  4  5  1  0  0  0  0
  4  6  1  0  0  0  0
  5 12  1  0  0  0  0
  5  6  1  0  0  0  0
  7  8  3  0  0  0  0
  8 15  1  0  0  0  0
  9  3  1  0  0  0  0
 10  3  1  0  0  0  0
 13  5  1  0  0  0  0
 14  6  1  0  0  0  0
M  END
