16
title
O -1.9987243 -0.690302 -0.7024277
C -1.1101216 -1.4758078 -0.499464
C 0.09247432 -1.1998978 0.4182876
O 0.8908757 -2.0953355 0.5722949
C 0.20536467 0.17674674 1.0340085
C 0.9932164 1.0975176 0.10941739
C 0.31097087 1.7966686 -1.0420209
C 0.76614106 2.5871317 0.15815133
H -1.0792949 -2.4932 -0.9436226
H -0.7968816 0.5860468 1.1914456
H 0.7135247 0.07902875 1.9980958
H 2.014399 0.76898944 -0.061270867
H 0.85992324 1.9082228 -1.9704112
H -0.75305426 1.6305076 -1.1673484
H 0.0069443933 2.9599788 0.8376855
H 1.6277772 3.2373073 0.055378076
