15
title
O -1.2621304 -1.7728653 1.3712169
C -0.7820539 -1.8961447 0.27629977
C -0.52406454 -0.7194971 -0.674683
O -0.26824093 -0.9610852 -1.8300177
C -0.58435154 0.6796533 -0.08334109
N 0.71680534 0.9206246 0.53475034
C 1.730627 1.535761 -0.3192149
C 1.0735699 2.3168726 0.766264
H -0.5246359 -2.8773065 -0.17584886
H -0.8337933 1.3930336 -0.88432217
H -1.3498513 0.71413815 0.69751143
H 2.741176 1.1596171 -0.19244565
H 1.4558729 1.7732321 -1.3448926
H 0.35847247 3.0810766 0.46711463
H 1.594567 2.5185661 1.6973555
