title
 OpenBabel02282109593D

 14 14  0  0  0  0  0  0  0  0999 V2000
   -2.3867   -1.2759    0.3020 O   0  0  0  0  0  0  0  0  0  0  0  0
   -1.3763   -1.7533   -0.1303 C   0  0  0  0  0  0  0  0  0  0  0  0
   -0.0356   -1.0177   -0.2336 C   0  0  0  0  0  0  0  0  0  0  0  0
    0.9352   -1.5579   -0.7025 O   0  0  0  0  0  0  0  0  0  0  0  0
   -0.1065    0.2219    0.2515 O   0  0  0  0  0  0  0  0  0  0  0  0
    1.0790    1.0046    0.1941 C   0  0  0  0  0  0  0  0  0  0  0  0
    1.0057    2.2812   -0.5878 C   0  0  0  0  0  0  0  0  0  0  0  0
    1.0146    2.3024    0.9280 C   0  0  0  0  0  0  0  0  0  0  0  0
   -1.2942   -2.7897   -0.5145 H   0  0  0  0  0  0  0  0  0  0  0  0
    1.9802    0.4062    0.1822 H   0  0  0  0  0  0  0  0  0  0  0  0
    1.8902    2.5968   -1.1293 H   0  0  0  0  0  0  0  0  0  0  0  0
    0.0643    2.5013   -1.0775 H   0  0  0  0  0  0  0  0  0  0  0  0
    0.0794    2.5358    1.4236 H   0  0  0  0  0  0  0  0  0  0  0  0
    1.9045    2.6373    1.4484 H   0  0  0  0  0  0  0  0  0  0  0  0
  2  1  2  0  0  0  0
  3  2  1  0  0  0  0
  3  5  1  0  0  0  0
  4  3  2  0  0  0  0
  6  5  1  0  0  0  0
  6  8  1  0  0  0  0
  7  6  1  0  0  0  0
  7  8  1  0  0  0  0
  8 13  1  0  0  0  0
  8 14  1  0  0  0  0
  9  2  1  0  0  0  0
 10  6  1  0  0  0  0
 11  7  1  0  0  0  0
 12  7  1  0  0  0  0
M  END
