title
 OpenBabel02282109593D

 15 15  0  0  0  0  0  0  0  0999 V2000
   -1.0592    1.5635    0.5821 N   0  0  0  0  0  0  0  0  0  0  0  0
   -0.8620    0.2517    0.1666 C   0  0  0  0  0  0  0  0  0  0  0  0
    0.2314   -0.3586   -0.0737 N   0  0  0  0  0  0  0  0  0  0  0  0
    1.4755    0.3080    0.0455 C   0  0  0  0  0  0  0  0  0  0  0  0
    2.6839   -0.5737    0.2911 C   0  0  0  0  0  0  0  0  0  0  0  0
    2.4909    0.0543   -1.0559 C   0  0  0  0  0  0  0  0  0  0  0  0
   -2.0902   -0.5111    0.0510 C   0  0  0  0  0  0  0  0  0  0  0  0
   -3.0912   -1.0829   -0.0372 N   0  0  0  0  0  0  0  0  0  0  0  0
   -0.3513    2.2283    0.3104 H   0  0  0  0  0  0  0  0  0  0  0  0
   -1.9987    1.9178    0.4887 H   0  0  0  0  0  0  0  0  0  0  0  0
    1.5079    1.2902    0.5164 H   0  0  0  0  0  0  0  0  0  0  0  0
    3.4596   -0.1873    0.9421 H   0  0  0  0  0  0  0  0  0  0  0  0
    2.4829   -1.6335    0.3876 H   0  0  0  0  0  0  0  0  0  0  0  0
    2.1623   -0.5818   -1.8686 H   0  0  0  0  0  0  0  0  0  0  0  0
    3.1286    0.8816   -1.3465 H   0  0  0  0  0  0  0  0  0  0  0  0
  2  1  1  0  0  0  0
  3  4  1  0  0  0  0
  3  2  2  0  0  0  0
  4  5  1  0  0  0  0
  4 11  1  0  0  0  0
  5 13  1  0  0  0  0
  5 12  1  0  0  0  0
  6  4  1  0  0  0  0
  6  5  1  0  0  0  0
  7  2  1  0  0  0  0
  8  7  3  0  0  0  0
  9  1  1  0  0  0  0
 10  1  1  0  0  0  0
 14  6  1  0  0  0  0
 15  6  1  0  0  0  0
M  END
