title
 OpenBabel02282109593D

 14 14  0  0  1  0  0  0  0  0999 V2000
   -2.4834   -1.3941   -0.1890 O   0  0  0  0  0  0  0  0  0  0  0  0
   -1.4168   -1.8471    0.1319 C   0  0  0  0  0  0  0  0  0  0  0  0
   -0.0958   -1.0740    0.0052 C   0  0  0  0  0  0  0  0  0  0  0  0
    0.9218   -1.6245    0.3535 O   0  0  0  0  0  0  0  0  0  0  0  0
   -0.1724    0.3215   -0.5801 C   0  0  0  0  0  0  0  0  0  0  0  0
    1.0808    1.1277   -0.3490 C   0  0  1  0  0  0  0  0  0  0  0  0
    1.0524    2.5942   -0.3425 C   0  0  0  0  0  0  0  0  0  0  0  0
    1.1390    1.8570    0.8779 O   0  0  0  0  0  0  0  0  0  0  0  0
   -1.2795   -2.8667    0.5491 H   0  0  0  0  0  0  0  0  0  0  0  0
   -0.3646    0.2037   -1.6573 H   0  0  0  0  0  0  0  0  0  0  0  0
   -1.0524    0.8335   -0.1785 H   0  0  0  0  0  0  0  0  0  0  0  0
    2.0104    0.6254   -0.6118 H   0  0  0  0  0  0  0  0  0  0  0  0
    1.9452    3.1530   -0.6185 H   0  0  0  0  0  0  0  0  0  0  0  0
    0.1098    3.1151   -0.5083 H   0  0  0  0  0  0  0  0  0  0  0  0
  1  2  2  0  0  0  0
  2  9  1  0  0  0  0
  3  2  1  0  0  0  0
  3  4  2  0  0  0  0
  5  6  1  0  0  0  0
  5 11  1  0  0  0  0
  5  3  1  0  0  0  0
  6 12  1  6  0  0  0
  6  7  1  0  0  0  0
  6  8  1  0  0  0  0
  7  8  1  0  0  0  0
 10  5  1  0  0  0  0
 13  7  1  0  0  0  0
 14  7  1  0  0  0  0
M  END
