16
title
N 1.1032882 1.4664432 -0.13999818
C 0.7806156 0.12980734 -0.10481439
C 1.9559438 -0.7867629 -0.20697583
O 3.0994987 -0.39454576 -0.2322285
N -0.36449578 -0.44227073 -0.029278865
C -1.5493083 0.3260243 0.057907585
C -2.8242774 -0.3477303 -0.41290483
C -2.5978076 -0.14424148 1.0538777
H 2.0932064 1.6407895 -0.030506095
H 0.49529585 2.122647 0.32106522
H 1.6743536 -1.855202 -0.24971977
H -1.4943504 1.4012816 -0.111582614
H -3.5581114 0.26873112 -0.91947955
H -2.7094967 -1.3499378 -0.8075445
H -2.3317637 -1.0086464 1.6498747
H -3.1696813 0.6162924 1.5736326
