title
 OpenBabel02282109593D

 15 15  0  0  1  0  0  0  0  0999 V2000
   -1.4651   -0.8843    1.2476 O   0  0  0  0  0  0  0  0  0  0  0  0
   -0.9689   -1.5478    0.3734 C   0  0  0  0  0  0  0  0  0  0  0  0
   -0.2575   -0.9542   -0.8532 C   0  0  0  0  0  0  0  0  0  0  0  0
    0.2084   -1.7254   -1.6585 O   0  0  0  0  0  0  0  0  0  0  0  0
   -0.1775    0.5553   -0.9481 C   0  0  0  0  0  0  0  0  0  0  0  0
    0.9933    1.0884   -0.1302 C   0  0  1  0  0  0  0  0  0  0  0  0
    0.8881    2.4050    0.5464 C   0  0  0  0  0  0  0  0  0  0  0  0
    0.9171    1.1637    1.3345 N   0  0  0  0  0  0  0  0  0  0  0  0
   -0.9869   -2.6569    0.3649 H   0  0  0  0  0  0  0  0  0  0  0  0
   -0.0486    0.8190   -2.0019 H   0  0  0  0  0  0  0  0  0  0  0  0
   -1.1100    0.9908   -0.5751 H   0  0  0  0  0  0  0  0  0  0  0  0
    1.9658    0.7684   -0.4993 H   0  0  0  0  0  0  0  0  0  0  0  0
    1.7656    3.0372    0.6480 H   0  0  0  0  0  0  0  0  0  0  0  0
   -0.0508    2.9457    0.4525 H   0  0  0  0  0  0  0  0  0  0  0  0
   -0.0208    0.9157    1.6430 H   0  0  0  0  0  0  0  0  0  0  0  0
  2  1  2  0  0  0  0
  3  2  1  0  0  0  0
  4  3  2  0  0  0  0
  5  3  1  0  0  0  0
  5 11  1  0  0  0  0
  5  6  1  0  0  0  0
  6 12  1  6  0  0  0
  6  7  1  0  0  0  0
  6  8  1  0  0  0  0
  7 13  1  0  0  0  0
  7  8  1  0  0  0  0
  8 15  1  0  0  0  0
  9  2  1  0  0  0  0
 10  5  1  0  0  0  0
 14  7  1  0  0  0  0
M  END
