15
title
N -1.0591877 1.5634757 0.5821098
C -0.86201453 0.25165802 0.16657428
N 0.23137516 -0.3585597 -0.0736833
C 1.4755255 0.30798036 0.045534562
C 2.683926 -0.573678 0.29105464
C 2.4909165 0.05425869 -1.0559279
C -2.0901816 -0.5110564 0.050990906
N -3.0911694 -1.0829215 -0.03715441
H -0.3512993 2.228259 0.31044665
H -1.9987497 1.917797 0.48871696
H 1.5079302 1.2901605 0.5164306
H 3.4596205 -0.18726708 0.9421235
H 2.4829488 -1.6335495 0.38759547
H 2.162287 -0.58182937 -1.8685851
H 3.1285691 0.8815606 -1.3464786
