title
 OpenBabel02282109593D

 16 16  0  0  0  0  0  0  0  0999 V2000
   -1.9987   -0.6903   -0.7024 O   0  0  0  0  0  0  0  0  0  0  0  0
   -1.1101   -1.4758   -0.4995 C   0  0  0  0  0  0  0  0  0  0  0  0
    0.0925   -1.1999    0.4183 C   0  0  0  0  0  0  0  0  0  0  0  0
    0.8909   -2.0953    0.5723 O   0  0  0  0  0  0  0  0  0  0  0  0
    0.2054    0.1767    1.0340 C   0  0  0  0  0  0  0  0  0  0  0  0
    0.9932    1.0975    0.1094 C   0  0  0  0  0  0  0  0  0  0  0  0
    0.3110    1.7967   -1.0420 C   0  0  0  0  0  0  0  0  0  0  0  0
    0.7661    2.5871    0.1582 C   0  0  0  0  0  0  0  0  0  0  0  0
   -1.0793   -2.4932   -0.9436 H   0  0  0  0  0  0  0  0  0  0  0  0
   -0.7969    0.5860    1.1914 H   0  0  0  0  0  0  0  0  0  0  0  0
    0.7135    0.0790    1.9981 H   0  0  0  0  0  0  0  0  0  0  0  0
    2.0144    0.7690   -0.0613 H   0  0  0  0  0  0  0  0  0  0  0  0
    0.8599    1.9082   -1.9704 H   0  0  0  0  0  0  0  0  0  0  0  0
   -0.7531    1.6305   -1.1673 H   0  0  0  0  0  0  0  0  0  0  0  0
    0.0069    2.9600    0.8377 H   0  0  0  0  0  0  0  0  0  0  0  0
    1.6278    3.2373    0.0554 H   0  0  0  0  0  0  0  0  0  0  0  0
  1  2  2  0  0  0  0
  2  3  1  0  0  0  0
  3  4  2  0  0  0  0
  3  5  1  0  0  0  0
  5 10  1  0  0  0  0
  5 11  1  0  0  0  0
  6  8  1  0  0  0  0
  6  5  1  0  0  0  0
  7  6  1  0  0  0  0
  7  8  1  0  0  0  0
  8 15  1  0  0  0  0
  9  2  1  0  0  0  0
 12  6  1  0  0  0  0
 13  7  1  0  0  0  0
 14  7  1  0  0  0  0
 16  8  1  0  0  0  0
M  END
