18
title
C -0.7311719 1.7036809 -1.0548284
C -0.70253277 0.21112148 -0.6716374
C -0.021606907 -0.061713077 0.6962135
C 1.4503942 0.28134975 0.7078419
C 2.4015684 -0.5182124 1.5168245
N 2.427649 -0.6015621 0.044283714
C -2.063212 -0.33661172 -0.661045
N -3.1362967 -0.76568043 -0.6372228
H 0.28645116 2.0884764 -1.1528381
H -1.2438145 1.8493634 -2.0084922
H -1.254711 2.2890122 -0.2932334
H -0.14602391 -0.33474723 -1.4445485
H -0.5465827 0.5105992 1.4709566
H -0.14832835 -1.1208842 0.9488931
H 1.6810243 1.3357743 0.57129276
H 3.270135 -0.04390023 1.9641039
H 2.0067172 -1.3606596 2.0792146
H 1.9692378 -1.4615362 -0.25141832
