title
 OpenBabel02282109593D

 18 18  0  0  1  0  0  0  0  0999 V2000
   -0.7312    1.7037   -1.0548 C   0  0  0  0  0  0  0  0  0  0  0  0
   -0.7025    0.2111   -0.6716 C   0  0  1  0  0  0  0  0  0  0  0  0
   -0.0216   -0.0617    0.6962 C   0  0  0  0  0  0  0  0  0  0  0  0
    1.4504    0.2813    0.7078 C   0  0  1  0  0  0  0  0  0  0  0  0
    2.4016   -0.5182    1.5168 C   0  0  0  0  0  0  0  0  0  0  0  0
    2.4276   -0.6016    0.0443 N   0  0  0  0  0  0  0  0  0  0  0  0
   -2.0632   -0.3366   -0.6610 C   0  0  0  0  0  0  0  0  0  0  0  0
   -3.1363   -0.7657   -0.6372 N   0  0  0  0  0  0  0  0  0  0  0  0
    0.2865    2.0885   -1.1528 H   0  0  0  0  0  0  0  0  0  0  0  0
   -1.2438    1.8494   -2.0085 H   0  0  0  0  0  0  0  0  0  0  0  0
   -1.2547    2.2890   -0.2932 H   0  0  0  0  0  0  0  0  0  0  0  0
   -0.1460   -0.3347   -1.4445 H   0  0  0  0  0  0  0  0  0  0  0  0
   -0.5466    0.5106    1.4710 H   0  0  0  0  0  0  0  0  0  0  0  0
   -0.1483   -1.1209    0.9489 H   0  0  0  0  0  0  0  0  0  0  0  0
    1.6810    1.3358    0.5713 H   0  0  0  0  0  0  0  0  0  0  0  0
    3.2701   -0.0439    1.9641 H   0  0  0  0  0  0  0  0  0  0  0  0
    2.0067   -1.3607    2.0792 H   0  0  0  0  0  0  0  0  0  0  0  0
    1.9692   -1.4615   -0.2514 H   0  0  0  0  0  0  0  0  0  0  0  0
  1  2  1  0  0  0  0
  1 11  1  0  0  0  0
  2 12  1  6  0  0  0
  2  7  1  0  0  0  0
  2  3  1  0  0  0  0
  3  4  1  0  0  0  0
  3 14  1  0  0  0  0
  3 13  1  0  0  0  0
  4 15  1  6  0  0  0
  4  5  1  0  0  0  0
  5 16  1  0  0  0  0
  5 17  1  0  0  0  0
  6  4  1  0  0  0  0
  6  5  1  0  0  0  0
  7  8  3  0  0  0  0
  9  1  1  0  0  0  0
 10  1  1  0  0  0  0
 18  6  1  0  0  0  0
M  END
