18
title
C 0.5001851 1.849808 -0.31675747
C 0.9178202 0.3762166 -0.19303851
O -0.20156594 -0.5054335 -0.08739877
C -0.7845785 -0.54958814 1.1796674
C -1.998914 0.29215354 1.4913224
C -2.1250246 -1.201339 1.261087
C 1.7059278 -0.04901509 -1.350215
C 2.3684685 -0.36074254 -2.3022115
H 1.3855363 2.4820223 -0.4273418
H -0.13706513 1.9838387 -1.1944747
H -0.046740603 2.166077 0.5741896
H 1.5426581 0.2630073 0.7085619
H -0.074384876 -0.7339928 1.9871411
H -2.121001 0.68190587 2.4963856
H -2.3633971 0.9390024 0.70197153
H -2.5604274 -1.5190531 0.3206388
H -2.3353493 -1.8503371 2.1034453
H 2.9520473 -0.6499928 -3.1409798
