title
 OpenBabel02282109593D

 18 18  0  0  1  0  0  0  0  0999 V2000
   -0.4140    1.6187    0.9233 C   0  0  0  0  0  0  0  0  0  0  0  0
   -0.4239    0.0793    0.9682 C   0  0  1  0  0  0  0  0  0  0  0  0
    0.2252   -0.5801   -0.2704 C   0  0  0  0  0  0  0  0  0  0  0  0
   -0.5256   -0.2521   -1.4737 N   0  0  0  0  0  0  0  0  0  0  0  0
    0.0234    0.7860   -2.3458 C   0  0  0  0  0  0  0  0  0  0  0  0
    0.0918   -0.6468   -2.7363 C   0  0  0  0  0  0  0  0  0  0  0  0
    0.2415   -0.4066    2.1812 C   0  0  0  0  0  0  0  0  0  0  0  0
    0.7799   -0.7885    3.1301 N   0  0  0  0  0  0  0  0  0  0  0  0
    0.6091    2.0012    0.8586 H   0  0  0  0  0  0  0  0  0  0  0  0
   -0.9753    1.9641    0.0532 H   0  0  0  0  0  0  0  0  0  0  0  0
   -0.8756    2.0347    1.8219 H   0  0  0  0  0  0  0  0  0  0  0  0
   -1.4651   -0.2629    1.0045 H   0  0  0  0  0  0  0  0  0  0  0  0
    1.2867   -0.2819   -0.3323 H   0  0  0  0  0  0  0  0  0  0  0  0
    0.2009   -1.6670   -0.1395 H   0  0  0  0  0  0  0  0  0  0  0  0
   -0.7032    1.4499   -2.8049 H   0  0  0  0  0  0  0  0  0  0  0  0
    0.9540    1.2646   -2.0454 H   0  0  0  0  0  0  0  0  0  0  0  0
    1.0688   -1.1258   -2.6980 H   0  0  0  0  0  0  0  0  0  0  0  0
   -0.5844   -1.0507   -3.4840 H   0  0  0  0  0  0  0  0  0  0  0  0
  1  2  1  0  0  0  0
  1 11  1  0  0  0  0
  2 12  1  1  0  0  0
  2  7  1  0  0  0  0
  3 14  1  0  0  0  0
  3  2  1  0  0  0  0
  4  3  1  0  0  0  0
  5 16  1  0  0  0  0
  5  4  1  0  0  0  0
  6 17  1  0  0  0  0
  6  5  1  0  0  0  0
  6  4  1  0  0  0  0
  7  8  3  0  0  0  0
  9  1  1  0  0  0  0
 10  1  1  0  0  0  0
 13  3  1  0  0  0  0
 15  5  1  0  0  0  0
 18  6  1  0  0  0  0
M  END
