18
title
N 0.8001101 1.5606316 -0.37567544
C 1.0178038 0.120478526 -0.2299151
C -0.3099655 -0.63365966 0.0044755796
C -0.98274016 -0.2748519 1.3107102
C -1.9668679 0.8601297 1.4009738
C -2.452207 -0.5634095 1.5029552
C 1.7372217 -0.47059682 -1.3820348
N 2.293172 -0.891406 -2.304827
H 1.6896325 2.038875 -0.4836565
H 0.2721513 1.7425002 -1.225104
H 1.6534779 -0.026566187 0.6522778
H -0.9835665 -0.42949694 -0.8377666
H -0.09702527 -1.7087568 -0.026399551
H -0.3546914 -0.42832223 2.18545
H -1.9631262 1.4731128 2.2950559
H -2.1866953 1.409662 0.4925316
H -3.0008135 -0.97525495 0.6617729
H -2.7813406 -0.9333983 2.467529
