title
 OpenBabel02282109593D

 15 15  0  0  1  0  0  0  0  0999 V2000
   -0.5674    1.5210    1.0626 O   0  0  0  0  0  0  0  0  0  0  0  0
   -0.2160    0.1577    0.9084 C   0  0  1  0  0  0  0  0  0  0  0  0
    0.6654   -0.0967   -0.3313 C   0  0  0  0  0  0  0  0  0  0  0  0
   -0.0573    0.3065   -1.5938 C   0  0  1  0  0  0  0  0  0  0  0  0
    0.0784   -0.4581   -2.8383 C   0  0  0  0  0  0  0  0  0  0  0  0
   -1.0879   -0.5883   -2.0228 O   0  0  0  0  0  0  0  0  0  0  0  0
    0.4347   -0.3656    2.1260 C   0  0  0  0  0  0  0  0  0  0  0  0
    0.9767   -0.7472    3.0726 N   0  0  0  0  0  0  0  0  0  0  0  0
    0.2266    2.0148    1.2989 H   0  0  0  0  0  0  0  0  0  0  0  0
   -1.1637   -0.3742    0.7718 H   0  0  0  0  0  0  0  0  0  0  0  0
    1.6011    0.4677   -0.2298 H   0  0  0  0  0  0  0  0  0  0  0  0
    0.9242   -1.1595   -0.3755 H   0  0  0  0  0  0  0  0  0  0  0  0
   -0.3301    1.3590   -1.6587 H   0  0  0  0  0  0  0  0  0  0  0  0
   -0.0733    0.0367   -3.7962 H   0  0  0  0  0  0  0  0  0  0  0  0
    0.7305   -1.3303   -2.8641 H   0  0  0  0  0  0  0  0  0  0  0  0
  1  9  1  0  0  0  0
  2 10  1  6  0  0  0
  2  1  1  0  0  0  0
  2  7  1  0  0  0  0
  3 11  1  0  0  0  0
  3  2  1  0  0  0  0
  4 13  1  6  0  0  0
  4  3  1  0  0  0  0
  5  6  1  0  0  0  0
  5  4  1  0  0  0  0
  6  4  1  0  0  0  0
  7  8  3  0  0  0  0
 12  3  1  0  0  0  0
 14  5  1  0  0  0  0
 15  5  1  0  0  0  0
M  END
