17
title
N -0.39329332 1.5328664 0.976471
C -0.46670175 0.07225898 0.9425264
C 0.17265473 -0.6199613 -0.28599477
N -0.47457236 -0.14601591 -1.5004272
C 0.23834054 0.85720164 -2.2926939
C 0.14184777 -0.55030173 -2.7603395
C 0.12875311 -0.47813237 2.1703875
N 0.626325 -0.931893 3.1090097
H 0.57532203 1.8383459 0.9405637
H -0.8564072 1.8968666 0.14987719
H -1.5304513 -0.19452623 0.9433246
H 1.2632803 -0.4450793 -0.28210032
H 0.012848303 -1.7010309 -0.2047193
H -0.37729773 1.630907 -2.7424145
H 1.2085259 1.1963054 -1.9333293
H 1.047283 -1.1527579 -2.713526
H -0.5473054 -0.82445216 -3.5535004
