title
 OpenBabel02282109593D

 17 17  0  0  1  0  0  0  0  0999 V2000
   -0.6152    1.5211    1.0623 O   0  0  0  0  0  0  0  0  0  0  0  0
   -0.2492    0.1477    0.9556 C   0  0  1  0  0  0  0  0  0  0  0  0
    0.5968   -0.1164   -0.3101 C   0  0  0  0  0  0  0  0  0  0  0  0
   -0.1372    0.2588   -1.5761 C   0  0  1  0  0  0  0  0  0  0  0  0
    0.1911   -0.4017   -2.8614 C   0  0  0  0  0  0  0  0  0  0  0  0
   -1.0938   -0.6803   -2.1920 N   0  0  0  0  0  0  0  0  0  0  0  0
    0.4396   -0.3239    2.1599 C   0  0  0  0  0  0  0  0  0  0  0  0
    1.0459   -0.6785    3.1356 C   0  0  0  0  0  0  0  0  0  0  0  0
    0.1636    2.0056    1.3587 H   0  0  0  0  0  0  0  0  0  0  0  0
   -1.2030   -0.3847    0.8547 H   0  0  0  0  0  0  0  0  0  0  0  0
    1.5287    0.4583   -0.2240 H   0  0  0  0  0  0  0  0  0  0  0  0
    0.8816   -1.1757   -0.3371 H   0  0  0  0  0  0  0  0  0  0  0  0
   -0.4831    1.2888   -1.5995 H   0  0  0  0  0  0  0  0  0  0  0  0
    0.1114    0.1469   -3.7955 H   0  0  0  0  0  0  0  0  0  0  0  0
    0.9590   -1.1720   -2.8558 H   0  0  0  0  0  0  0  0  0  0  0  0
   -1.0394   -1.5828   -1.7236 H   0  0  0  0  0  0  0  0  0  0  0  0
    1.5606   -1.0002    4.0074 H   0  0  0  0  0  0  0  0  0  0  0  0
  1  9  1  0  0  0  0
  2 10  1  6  0  0  0
  2  1  1  0  0  0  0
  2  7  1  0  0  0  0
  3 11  1  0  0  0  0
  3  2  1  0  0  0  0
  4 13  1  6  0  0  0
  4  3  1  0  0  0  0
  5 15  1  0  0  0  0
  5  6  1  0  0  0  0
  5  4  1  0  0  0  0
  6 16  1  0  0  0  0
  6  4  1  0  0  0  0
  7  8  3  0  0  0  0
  8 17  1  0  0  0  0
 12  3  1  0  0  0  0
 14  5  1  0  0  0  0
M  END
