16
title
N -0.68821734 1.5399115 1.0969492
C -0.21573873 0.1688904 0.904898
C 0.7038777 -0.088380925 -0.32031
C 0.01413321 0.26731232 -1.6149421
C 0.037932333 -0.61858124 -2.7849288
O -1.1222688 -0.53551084 -1.9548934
C 0.47372758 -0.2784664 2.1266944
N 1.0520202 -0.63431114 3.061322
H 0.09066676 2.19168 1.1076667
H -1.3036705 1.8027818 0.33500087
H -1.1034793 -0.46304232 0.78320885
H 1.6234798 0.50002295 -0.21530914
H 0.98988056 -1.1453176 -0.3314414
H -0.13333035 1.3328881 -1.7973478
H -0.07173186 -0.19975486 -3.7839305
H 0.583833 -1.5592939 -2.731704
