16
title
O -0.6185516 1.5248156 1.0723454
C -0.24898422 0.1661474 0.9309363
C 0.6000444 -0.094675176 -0.33121365
C -0.14881754 0.26267052 -1.5940341
C 0.1763203 -0.40852514 -2.8745313
N -1.100771 -0.6902255 -2.1928577
C 0.4516624 -0.32416126 2.136237
N 1.0303606 -0.68559486 3.0689178
H 0.18004207 2.0413318 1.2331955
H -1.1953614 -0.37959132 0.8459558
H 1.5247457 0.49273098 -0.25230867
H 0.89923024 -1.1498072 -0.3517
H -0.50278664 1.2898502 -1.6258119
H 0.08621843 0.13237359 -3.8119571
H 0.95048285 -1.1721971 -2.8668883
H -1.0391892 -1.589512 -1.7191902
