15
title
O -0.5674334 1.5210428 1.0625521
C -0.21602027 0.15765841 0.9084151
C 0.66535926 -0.09668049 -0.33126673
C -0.057255022 0.30650368 -1.59384
C 0.07843151 -0.45810986 -2.838312
O -1.0879246 -0.58830225 -2.0228326
C 0.43474767 -0.36556482 2.1260362
N 0.97668016 -0.7471867 3.072643
H 0.22664322 2.0147505 1.2988945
H -1.1637374 -0.3741852 0.7718439
H 1.6010915 0.4677077 -0.22977969
H 0.92421794 -1.1594723 -0.37553737
H -0.33009666 1.359029 -1.6587223
H -0.07330216 0.036666825 -3.7961535
H 0.73046017 -1.3303457 -2.8640695
