17
title
O -0.29581764 1.4785142 0.84554213
C -0.42299813 0.060989268 0.9270061
C 0.2191929 -0.6492154 -0.2795846
N -0.4891663 -0.3121582 -1.5014969
C -0.025841903 0.86261094 -2.230195
C 0.2413883 -0.5050409 -2.751326
C 0.12151008 -0.45772672 2.1842608
C 0.6195907 -0.8623761 3.2009938
H 0.5993182 1.7035547 1.1226388
H -1.5013782 -0.12935895 0.88278526
H 1.2937858 -0.38761905 -0.31417996
H 0.15143614 -1.7320454 -0.1255613
H -0.8032138 1.4817264 -2.667381
H 0.8159229 1.4154294 -1.8196849
H 1.2661978 -0.8692377 -2.6920097
H -0.33701357 -0.9104175 -3.5764897
H 1.0369222 -1.2230077 4.1087513
