title
 OpenBabel02282109593D

 16 16  0  0  1  0  0  0  0  0999 V2000
   -0.5500    1.5283    1.0546 O   0  0  0  0  0  0  0  0  0  0  0  0
   -0.2143    0.1461    0.9424 C   0  0  1  0  0  0  0  0  0  0  0  0
    0.6455   -0.1265   -0.3109 C   0  0  0  0  0  0  0  0  0  0  0  0
   -0.0735    0.2888   -1.5703 C   0  0  1  0  0  0  0  0  0  0  0  0
    0.0848   -0.4429   -2.8319 C   0  0  0  0  0  0  0  0  0  0  0  0
   -1.0877   -0.6113   -2.0338 O   0  0  0  0  0  0  0  0  0  0  0  0
    0.4397   -0.3515    2.1542 C   0  0  0  0  0  0  0  0  0  0  0  0
    1.0176   -0.7259    3.1398 C   0  0  0  0  0  0  0  0  0  0  0  0
    0.2225    1.9857    1.4052 H   0  0  0  0  0  0  0  0  0  0  0  0
   -1.1740   -0.3674    0.8107 H   0  0  0  0  0  0  0  0  0  0  0  0
    1.5912    0.4228   -0.2175 H   0  0  0  0  0  0  0  0  0  0  0  0
    0.8857   -1.1936   -0.3581 H   0  0  0  0  0  0  0  0  0  0  0  0
   -0.3634    1.3378   -1.6136 H   0  0  0  0  0  0  0  0  0  0  0  0
   -0.0636    0.0718   -3.7802 H   0  0  0  0  0  0  0  0  0  0  0  0
    0.7506   -1.3045   -2.8725 H   0  0  0  0  0  0  0  0  0  0  0  0
    1.5059   -1.0669    4.0193 H   0  0  0  0  0  0  0  0  0  0  0  0
  1  9  1  0  0  0  0
  2 10  1  6  0  0  0
  2  1  1  0  0  0  0
  2  7  1  0  0  0  0
  3 11  1  0  0  0  0
  3  2  1  0  0  0  0
  4 13  1  6  0  0  0
  4  3  1  0  0  0  0
  5  6  1  0  0  0  0
  5  4  1  0  0  0  0
  6  4  1  0  0  0  0
  7  8  3  0  0  0  0
  8 16  1  0  0  0  0
 12  3  1  0  0  0  0
 14  5  1  0  0  0  0
 15  5  1  0  0  0  0
M  END
