title
 OpenBabel02282109593D

 16 16  0  0  1  0  0  0  0  0999 V2000
   -0.6186    1.5248    1.0723 O   0  0  0  0  0  0  0  0  0  0  0  0
   -0.2490    0.1661    0.9309 C   0  0  1  0  0  0  0  0  0  0  0  0
    0.6000   -0.0947   -0.3312 C   0  0  0  0  0  0  0  0  0  0  0  0
   -0.1488    0.2627   -1.5940 C   0  0  1  0  0  0  0  0  0  0  0  0
    0.1763   -0.4085   -2.8745 C   0  0  0  0  0  0  0  0  0  0  0  0
   -1.1008   -0.6902   -2.1929 N   0  0  0  0  0  0  0  0  0  0  0  0
    0.4517   -0.3242    2.1362 C   0  0  0  0  0  0  0  0  0  0  0  0
    1.0304   -0.6856    3.0689 N   0  0  0  0  0  0  0  0  0  0  0  0
    0.1800    2.0413    1.2332 H   0  0  0  0  0  0  0  0  0  0  0  0
   -1.1954   -0.3796    0.8460 H   0  0  0  0  0  0  0  0  0  0  0  0
    1.5247    0.4927   -0.2523 H   0  0  0  0  0  0  0  0  0  0  0  0
    0.8992   -1.1498   -0.3517 H   0  0  0  0  0  0  0  0  0  0  0  0
   -0.5028    1.2899   -1.6258 H   0  0  0  0  0  0  0  0  0  0  0  0
    0.0862    0.1324   -3.8120 H   0  0  0  0  0  0  0  0  0  0  0  0
    0.9505   -1.1722   -2.8669 H   0  0  0  0  0  0  0  0  0  0  0  0
   -1.0392   -1.5895   -1.7192 H   0  0  0  0  0  0  0  0  0  0  0  0
  1  9  1  0  0  0  0
  2 10  1  6  0  0  0
  2  1  1  0  0  0  0
  2  7  1  0  0  0  0
  3 11  1  0  0  0  0
  3  2  1  0  0  0  0
  4 13  1  6  0  0  0
  4  3  1  0  0  0  0
  5 15  1  0  0  0  0
  5  6  1  0  0  0  0
  5  4  1  0  0  0  0
  6 16  1  0  0  0  0
  6  4  1  0  0  0  0
  7  8  3  0  0  0  0
 12  3  1  0  0  0  0
 14  5  1  0  0  0  0
M  END
