16
title
O -0.5500165 1.5282838 1.054582
C -0.21431638 0.14610983 0.94235003
C 0.64553523 -0.1264893 -0.3109246
C -0.073466964 0.28884277 -1.5703444
C 0.0848142 -0.44285858 -2.8318741
O -1.0876502 -0.6113495 -2.0338273
C 0.4397464 -0.35148728 2.1541631
C 1.0175557 -0.72591674 3.1397717
H 0.22245169 1.9857218 1.4052287
H -1.1739969 -0.367383 0.8106958
H 1.5911779 0.4227969 -0.21745855
H 0.8857146 -1.1936034 -0.35813433
H -0.3633842 1.3378373 -1.6136184
H -0.06356501 0.07182347 -3.7801905
H 0.7505974 -1.304518 -2.8724806
H 1.5058775 -1.0668736 4.019299
