17
title
O -0.16008136 1.478238 0.9033373
C -0.38725188 0.08380263 0.9654806
C 0.10808727 -0.68800354 -0.27506694
C -0.5629325 -0.23398374 -1.5518085
C -0.012560632 0.9188516 -2.3499591
C 0.09700379 -0.48608947 -2.8850493
C 0.20078465 -0.49273744 2.194916
N 0.6949847 -0.93446654 3.141603
H 0.79164565 1.6281022 0.8671313
H -1.4758615 -0.02293931 1.0386498
H 1.196765 -0.5679943 -0.3528876
H -0.07273576 -1.7565312 -0.10349081
H -1.6466677 -0.32439527 -1.5365347
H -0.71258867 1.6010227 -2.8184557
H 0.893069 1.3965636 -1.9921511
H 1.0754958 -0.9556367 -2.8850794
H -0.53022456 -0.7734474 -3.7213085
