17
title
O -0.5059769 1.4376936 0.92700994
C -0.2414136 0.064479 0.84758127
C 0.60459393 -0.26578787 -0.40021625
C -0.1132216 0.09909032 -1.6799351
C 0.183598 -0.6201485 -2.940709
N -1.1133188 -0.813053 -2.2624838
C 0.45625117 -0.41296673 2.1037412
O 0.73165876 0.3410488 3.0054026
H -0.16573589 1.7212133 1.7903695
H -1.1874121 -0.50497794 0.7790058
H 1.5472744 0.29112002 -0.3285897
H 0.8522932 -1.3365422 -0.4069139
H -0.40500546 1.1444045 -1.7368034
H 0.12973152 -0.10158604 -3.893552
H 0.9139616 -1.4253598 -2.9067893
H -1.1033171 -1.7005032 -1.7632004
H 0.7040134 -1.4936932 2.1501687
