title
 OpenBabel02282109593D

 17 17  0  0  1  0  0  0  0  0999 V2000
    0.3328    1.6612   -0.4397 C   0  0  0  0  0  0  0  0  0  0  0  0
    0.5418    0.2411   -0.6844 N   0  0  0  0  0  0  0  0  0  0  0  0
    0.5241   -0.6688    0.4438 C   0  0  0  0  0  0  0  0  0  0  0  0
   -0.8417   -0.8018    1.0836 C   0  0  1  0  0  0  0  0  0  0  0  0
   -0.9903   -1.1053    2.5116 C   0  0  0  0  0  0  0  0  0  0  0  0
   -1.2130    0.2157    2.0172 O   0  0  0  0  0  0  0  0  0  0  0  0
    0.8014   -0.2026   -1.9492 C   0  0  0  0  0  0  0  0  0  0  0  0
    0.8508    0.4862   -2.9454 O   0  0  0  0  0  0  0  0  0  0  0  0
    1.0933    2.0465    0.2501 H   0  0  0  0  0  0  0  0  0  0  0  0
    0.4134    2.1744   -1.3977 H   0  0  0  0  0  0  0  0  0  0  0  0
   -0.6512    1.8451    0.0005 H   0  0  0  0  0  0  0  0  0  0  0  0
    0.8514   -1.6538    0.0912 H   0  0  0  0  0  0  0  0  0  0  0  0
    1.2374   -0.3335    1.2095 H   0  0  0  0  0  0  0  0  0  0  0  0
   -1.6426   -1.0964    0.4036 H   0  0  0  0  0  0  0  0  0  0  0  0
   -1.8762   -1.6325    2.8608 H   0  0  0  0  0  0  0  0  0  0  0  0
   -0.1023   -1.2279    3.1308 H   0  0  0  0  0  0  0  0  0  0  0  0
    0.9672   -1.2986   -1.9693 H   0  0  0  0  0  0  0  0  0  0  0  0
  1 11  1  0  0  0  0
  1  9  1  0  0  0  0
  2  1  1  0  0  0  0
  2  3  1  0  0  0  0
  3  4  1  0  0  0  0
  3 13  1  0  0  0  0
  4 14  1  6  0  0  0
  4  6  1  0  0  0  0
  4  5  1  0  0  0  0
  5 15  1  0  0  0  0
  5 16  1  0  0  0  0
  6  5  1  0  0  0  0
  7  2  1  0  0  0  0
  8  7  2  0  0  0  0
 10  1  1  0  0  0  0
 12  3  1  0  0  0  0
 17  7  1  0  0  0  0
M  END
