title
 OpenBabel02282109593D

 18 18  0  0  1  0  0  0  0  0999 V2000
    0.2948    1.6561   -0.4913 C   0  0  0  0  0  0  0  0  0  0  0  0
    0.5259    0.2345   -0.6911 N   0  0  0  0  0  0  0  0  0  0  0  0
    0.4878   -0.6512    0.4574 C   0  0  0  0  0  0  0  0  0  0  0  0
   -0.8744   -0.7404    1.1155 C   0  0  1  0  0  0  0  0  0  0  0  0
   -0.9780   -1.1303    2.5423 C   0  0  0  0  0  0  0  0  0  0  0  0
   -1.2973    0.2449    2.1246 N   0  0  0  0  0  0  0  0  0  0  0  0
    0.8162   -0.2349   -1.9402 C   0  0  0  0  0  0  0  0  0  0  0  0
    0.8873    0.4342   -2.9486 O   0  0  0  0  0  0  0  0  0  0  0  0
    1.0225    2.0681    0.2201 H   0  0  0  0  0  0  0  0  0  0  0  0
    0.4152    2.1485   -1.4562 H   0  0  0  0  0  0  0  0  0  0  0  0
   -0.7128    1.8434   -0.1069 H   0  0  0  0  0  0  0  0  0  0  0  0
    0.7952   -1.6469    0.1172 H   0  0  0  0  0  0  0  0  0  0  0  0
    1.2267   -0.3247    1.2069 H   0  0  0  0  0  0  0  0  0  0  0  0
   -1.6754   -1.0327    0.4391 H   0  0  0  0  0  0  0  0  0  0  0  0
   -1.8244   -1.7164    2.8871 H   0  0  0  0  0  0  0  0  0  0  0  0
   -0.0539   -1.3073    3.0882 H   0  0  0  0  0  0  0  0  0  0  0  0
   -0.5203    0.8603    2.3566 H   0  0  0  0  0  0  0  0  0  0  0  0
    0.9847   -1.3303   -1.9340 H   0  0  0  0  0  0  0  0  0  0  0  0
  1 11  1  0  0  0  0
  1  9  1  0  0  0  0
  2  1  1  0  0  0  0
  2  3  1  0  0  0  0
  3  4  1  0  0  0  0
  3 13  1  0  0  0  0
  4 14  1  6  0  0  0
  4  6  1  0  0  0  0
  4  5  1  0  0  0  0
  5 15  1  0  0  0  0
  5 16  1  0  0  0  0
  6 17  1  0  0  0  0
  6  5  1  0  0  0  0
  7 18  1  0  0  0  0
  7  2  1  0  0  0  0
  8  7  2  0  0  0  0
 10  1  1  0  0  0  0
 12  3  1  0  0  0  0
M  END
