title
 OpenBabel02282109593D

 16 16  0  0  1  0  0  0  0  0999 V2000
   -0.3277    1.4820    0.8538 O   0  0  0  0  0  0  0  0  0  0  0  0
   -0.4088    0.0704    0.9086 C   0  0  1  0  0  0  0  0  0  0  0  0
    0.2468   -0.6278   -0.2966 C   0  0  0  0  0  0  0  0  0  0  0  0
   -0.4942   -0.3203   -1.5043 N   0  0  0  0  0  0  0  0  0  0  0  0
   -0.0688    0.8502   -2.2647 C   0  0  0  0  0  0  0  0  0  0  0  0
    0.2095   -0.5214   -2.7689 C   0  0  0  0  0  0  0  0  0  0  0  0
    0.1622   -0.4473    2.1689 C   0  0  0  0  0  0  0  0  0  0  0  0
    0.6461   -0.8353    3.1439 N   0  0  0  0  0  0  0  0  0  0  0  0
    0.5942    1.7376    0.9758 H   0  0  0  0  0  0  0  0  0  0  0  0
   -1.4786   -0.1614    0.8888 H   0  0  0  0  0  0  0  0  0  0  0  0
    1.3117   -0.3307   -0.3462 H   0  0  0  0  0  0  0  0  0  0  0  0
    0.2187   -1.7111   -0.1328 H   0  0  0  0  0  0  0  0  0  0  0  0
   -0.8679    1.4483   -2.6912 H   0  0  0  0  0  0  0  0  0  0  0  0
    0.7752    1.4238   -1.8879 H   0  0  0  0  0  0  0  0  0  0  0  0
    1.2413   -0.8670   -2.7287 H   0  0  0  0  0  0  0  0  0  0  0  0
   -0.3832   -0.9509   -3.5708 H   0  0  0  0  0  0  0  0  0  0  0  0
  1  2  1  0  0  0  0
  1  9  1  0  0  0  0
  2 10  1  6  0  0  0
  2  7  1  0  0  0  0
  3 12  1  0  0  0  0
  3  2  1  0  0  0  0
  4  3  1  0  0  0  0
  5 14  1  0  0  0  0
  5  4  1  0  0  0  0
  6 15  1  0  0  0  0
  6  5  1  0  0  0  0
  6  4  1  0  0  0  0
  7  8  3  0  0  0  0
 11  3  1  0  0  0  0
 13  5  1  0  0  0  0
 16  6  1  0  0  0  0
M  END
