title
 OpenBabel02282109593D

 18 18  0  0  1  0  0  0  0  0999 V2000
   -0.5483    1.7009   -0.3518 C   0  0  0  0  0  0  0  0  0  0  0  0
   -0.5287    0.2068   -0.6690 C   0  0  1  0  0  0  0  0  0  0  0  0
    0.1240   -0.5988    0.2988 O   0  0  0  0  0  0  0  0  0  0  0  0
    1.5191   -0.5594    0.2593 C   0  0  0  0  0  0  0  0  0  0  0  0
    2.2757    0.3841    1.1603 C   0  0  0  0  0  0  0  0  0  0  0  0
    2.2274   -1.1024    1.4560 C   0  0  0  0  0  0  0  0  0  0  0  0
   -1.9357   -0.3709   -0.7974 C   0  0  0  0  0  0  0  0  0  0  0  0
   -2.8739    0.2280   -1.2524 O   0  0  0  0  0  0  0  0  0  0  0  0
    0.4521    2.1329   -0.4182 H   0  0  0  0  0  0  0  0  0  0  0  0
   -1.2059    2.2066   -1.0631 H   0  0  0  0  0  0  0  0  0  0  0  0
   -0.9381    1.8664    0.6567 H   0  0  0  0  0  0  0  0  0  0  0  0
   -0.0531    0.0511   -1.6559 H   0  0  0  0  0  0  0  0  0  0  0  0
    1.9355   -0.7673   -0.7274 H   0  0  0  0  0  0  0  0  0  0  0  0
    3.2019    0.8187    0.8000 H   0  0  0  0  0  0  0  0  0  0  0  0
    1.6858    1.0297    1.8002 H   0  0  0  0  0  0  0  0  0  0  0  0
    1.6004   -1.4203    2.2811 H   0  0  0  0  0  0  0  0  0  0  0  0
    3.1183   -1.7008    1.3037 H   0  0  0  0  0  0  0  0  0  0  0  0
   -2.0118   -1.4213   -0.4409 H   0  0  0  0  0  0  0  0  0  0  0  0
  1 11  1  0  0  0  0
  2 12  1  6  0  0  0
  2  1  1  0  0  0  0
  2  3  1  0  0  0  0
  4  3  1  0  0  0  0
  4  5  1  0  0  0  0
  4  6  1  0  0  0  0
  5  6  1  0  0  0  0
  5 15  1  0  0  0  0
  6 16  1  0  0  0  0
  7  2  1  0  0  0  0
  7 18  1  0  0  0  0
  8  7  2  0  0  0  0
  9  1  1  0  0  0  0
 10  1  1  0  0  0  0
 13  4  1  0  0  0  0
 14  5  1  0  0  0  0
 17  6  1  0  0  0  0
M  END
