title
 OpenBabel02282109593D

 17 17  0  0  1  0  0  0  0  0999 V2000
   -0.5060    1.4377    0.9270 O   0  0  0  0  0  0  0  0  0  0  0  0
   -0.2414    0.0645    0.8476 C   0  0  1  0  0  0  0  0  0  0  0  0
    0.6046   -0.2658   -0.4002 C   0  0  0  0  0  0  0  0  0  0  0  0
   -0.1132    0.0991   -1.6799 C   0  0  1  0  0  0  0  0  0  0  0  0
    0.1836   -0.6201   -2.9407 C   0  0  0  0  0  0  0  0  0  0  0  0
   -1.1133   -0.8131   -2.2625 N   0  0  0  0  0  0  0  0  0  0  0  0
    0.4563   -0.4130    2.1037 C   0  0  0  0  0  0  0  0  0  0  0  0
    0.7317    0.3410    3.0054 O   0  0  0  0  0  0  0  0  0  0  0  0
   -0.1657    1.7212    1.7904 H   0  0  0  0  0  0  0  0  0  0  0  0
   -1.1874   -0.5050    0.7790 H   0  0  0  0  0  0  0  0  0  0  0  0
    1.5473    0.2911   -0.3286 H   0  0  0  0  0  0  0  0  0  0  0  0
    0.8523   -1.3365   -0.4069 H   0  0  0  0  0  0  0  0  0  0  0  0
   -0.4050    1.1444   -1.7368 H   0  0  0  0  0  0  0  0  0  0  0  0
    0.1297   -0.1016   -3.8936 H   0  0  0  0  0  0  0  0  0  0  0  0
    0.9140   -1.4254   -2.9068 H   0  0  0  0  0  0  0  0  0  0  0  0
   -1.1033   -1.7005   -1.7632 H   0  0  0  0  0  0  0  0  0  0  0  0
    0.7040   -1.4937    2.1502 H   0  0  0  0  0  0  0  0  0  0  0  0
  1  9  1  0  0  0  0
  2 10  1  6  0  0  0
  2  1  1  0  0  0  0
  2  7  1  0  0  0  0
  3 11  1  0  0  0  0
  3  2  1  0  0  0  0
  4 13  1  6  0  0  0
  4  3  1  0  0  0  0
  5 15  1  0  0  0  0
  5  6  1  0  0  0  0
  5  4  1  0  0  0  0
  6 16  1  0  0  0  0
  6  4  1  0  0  0  0
  7 17  1  0  0  0  0
  7  8  2  0  0  0  0
 12  3  1  0  0  0  0
 14  5  1  0  0  0  0
M  END
