18
title
C -0.54827297 1.700936 -0.35181427
C -0.52870417 0.20678034 -0.6689845
O 0.12398397 -0.5987504 0.29876974
C 1.5191435 -0.55935514 0.25932154
C 2.2757103 0.38413432 1.1603215
C 2.227415 -1.1024381 1.4559637
C -1.9357218 -0.3709029 -0.7974038
O -2.873868 0.22804303 -1.2523973
H 0.45214897 2.1329486 -0.41819158
H -1.2058687 2.206612 -1.0630597
H -0.9380856 1.866437 0.6567292
H -0.053089384 0.051071674 -1.6558862
H 1.935469 -0.7672559 -0.7274209
H 3.2019274 0.8187181 0.8000448
H 1.6857985 1.0297137 1.8002347
H 1.6004096 -1.4203395 2.2810795
H 3.1182911 -1.7007601 1.3036507
H -2.0118325 -1.4212705 -0.4408638
