16
title
O -0.32768402 1.4820281 0.85379505
C -0.40884334 0.070357874 0.90863264
C 0.2467901 -0.6277561 -0.2966161
N -0.49418208 -0.32026675 -1.5043124
C -0.068839185 0.8501906 -2.264731
C 0.20953868 -0.52140206 -2.7688882
C 0.16218619 -0.44733897 2.1689053
N 0.6461352 -0.8352562 3.1439452
H 0.5941565 1.7375859 0.9757645
H -1.4786166 -0.16139533 0.888757
H 1.3117206 -0.33071333 -0.34617582
H 0.21865605 -1.7110515 -0.1328452
H -0.8678866 1.4482741 -2.6912303
H 0.77523124 1.4238133 -1.8879136
H 1.2413477 -0.86704886 -2.728662
H -0.3832278 -0.9509097 -3.5708122
