title
 OpenBabel02282109593D

 19 19  0  0  1  0  0  0  0  0999 V2000
   -1.4722    2.2827    1.3525 C   0  0  0  0  0  0  0  0  0  0  0  0
   -1.0611    0.8740    0.9318 C   0  0  0  0  0  0  0  0  0  0  0  0
    0.4347    0.7241    0.6886 C   0  0  0  0  0  0  0  0  0  0  0  0
    1.2035    1.6477    0.8252 O   0  0  0  0  0  0  0  0  0  0  0  0
    0.9338   -0.6549    0.2449 C   0  0  0  0  0  0  0  0  0  0  0  0
    0.4923   -1.0051   -1.1647 C   0  0  1  0  0  0  0  0  0  0  0  0
    0.3953   -2.4187   -1.6011 C   0  0  0  0  0  0  0  0  0  0  0  0
   -0.8263   -1.6086   -1.4287 N   0  0  0  0  0  0  0  0  0  0  0  0
   -0.9626    2.5802    2.2724 H   0  0  0  0  0  0  0  0  0  0  0  0
   -1.2038    3.0117    0.5838 H   0  0  0  0  0  0  0  0  0  0  0  0
   -2.5514    2.3369    1.5195 H   0  0  0  0  0  0  0  0  0  0  0  0
   -1.3505    0.1336    1.6916 H   0  0  0  0  0  0  0  0  0  0  0  0
   -1.5831    0.5627    0.0170 H   0  0  0  0  0  0  0  0  0  0  0  0
    2.0264   -0.6333    0.3020 H   0  0  0  0  0  0  0  0  0  0  0  0
    0.5674   -1.4238    0.9384 H   0  0  0  0  0  0  0  0  0  0  0  0
    0.7738   -0.2664   -1.9131 H   0  0  0  0  0  0  0  0  0  0  0  0
    0.6246   -2.6915   -2.6270 H   0  0  0  0  0  0  0  0  0  0  0  0
    0.6137   -3.1912   -0.8678 H   0  0  0  0  0  0  0  0  0  0  0  0
   -1.2721   -1.8596   -0.5488 H   0  0  0  0  0  0  0  0  0  0  0  0
  1 11  1  0  0  0  0
  1  9  1  0  0  0  0
  2  1  1  0  0  0  0
  2 12  1  0  0  0  0
  3  4  2  0  0  0  0
  3  2  1  0  0  0  0
  5 14  1  0  0  0  0
  5  3  1  0  0  0  0
  5 15  1  0  0  0  0
  6 16  1  6  0  0  0
  6  5  1  0  0  0  0
  7  8  1  0  0  0  0
  7  6  1  0  0  0  0
  7 18  1  0  0  0  0
  8  6  1  0  0  0  0
  8 19  1  0  0  0  0
 10  1  1  0  0  0  0
 13  2  1  0  0  0  0
 17  7  1  0  0  0  0
M  END
