19
title
C -1.4721565 2.2826784 1.3524599
C -1.0611137 0.8740137 0.93183535
C 0.4346879 0.72405964 0.6885779
O 1.2035186 1.6476849 0.8252405
C 0.9338328 -0.6548643 0.24492528
C 0.49225122 -1.0051018 -1.1646938
C 0.39531285 -2.418672 -1.6010528
N -0.8262802 -1.608642 -1.4286876
H -0.9625985 2.5801713 2.272414
H -1.2037905 3.0117311 0.58382833
H -2.551437 2.336938 1.5195396
H -1.3504529 0.13355619 1.6916405
H -1.5830871 0.56273127 0.017000929
H 2.0264287 -0.6333157 0.30200386
H 0.5674364 -1.4238254 0.9383683
H 0.7737662 -0.26643026 -1.9131076
H 0.6246131 -2.6914804 -2.626966
H 0.6136934 -3.191177 -0.8678191
H -1.2721444 -1.8596267 -0.5488384
