title
 OpenBabel02282109593D

 19 19  0  0  0  0  0  0  0  0999 V2000
   -0.5981    2.7763    0.3317 C   0  0  0  0  0  0  0  0  0  0  0  0
   -0.3683    1.3471    0.4479 N   0  0  0  0  0  0  0  0  0  0  0  0
    0.3552    0.7780   -0.4210 C   0  0  0  0  0  0  0  0  0  0  0  0
    1.0384    1.3966   -1.6142 C   0  0  0  0  0  0  0  0  0  0  0  0
    0.6203   -0.5525   -0.3535 O   0  0  0  0  0  0  0  0  0  0  0  0
    0.0359   -1.2633    0.7151 C   0  0  0  0  0  0  0  0  0  0  0  0
   -1.2329   -2.0168    0.4551 C   0  0  0  0  0  0  0  0  0  0  0  0
    0.0898   -2.7501    0.5874 C   0  0  0  0  0  0  0  0  0  0  0  0
    0.3277    3.3602    0.4403 H   0  0  0  0  0  0  0  0  0  0  0  0
   -1.0504    3.0588   -0.6303 H   0  0  0  0  0  0  0  0  0  0  0  0
   -1.2815    3.0947    1.1233 H   0  0  0  0  0  0  0  0  0  0  0  0
    1.7271    2.1851   -1.2933 H   0  0  0  0  0  0  0  0  0  0  0  0
    1.5933    0.6448   -2.1750 H   0  0  0  0  0  0  0  0  0  0  0  0
    0.3004    1.8641   -2.2744 H   0  0  0  0  0  0  0  0  0  0  0  0
    0.1754   -0.7864    1.6777 H   0  0  0  0  0  0  0  0  0  0  0  0
   -1.9611   -2.0882    1.2550 H   0  0  0  0  0  0  0  0  0  0  0  0
   -1.6546   -1.9384   -0.5404 H   0  0  0  0  0  0  0  0  0  0  0  0
    0.5281   -3.1477   -0.3210 H   0  0  0  0  0  0  0  0  0  0  0  0
    0.2819   -3.3361    1.4790 H   0  0  0  0  0  0  0  0  0  0  0  0
  1  9  1  0  0  0  0
  1  2  1  0  0  0  0
  1 11  1  0  0  0  0
  3  5  1  0  0  0  0
  3  2  2  0  0  0  0
  4 12  1  0  0  0  0
  4  3  1  0  0  0  0
  5  6  1  0  0  0  0
  6 15  1  0  0  0  0
  7  8  1  0  0  0  0
  7  6  1  0  0  0  0
  7 16  1  0  0  0  0
  8  6  1  0  0  0  0
  8 19  1  0  0  0  0
 10  1  1  0  0  0  0
 13  4  1  0  0  0  0
 14  4  1  0  0  0  0
 17  7  1  0  0  0  0
 18  8  1  0  0  0  0
M  END
