19
title
C 0.15844722 2.5253243 1.3309681
N 0.18497403 1.2314504 0.680309
C -0.8818225 0.7352158 -0.008899324
O -1.9296384 1.3419456 -0.14773546
C -0.6958884 -0.67191553 -0.58854353
C 0.72411555 -1.137917 -0.8306457
C 1.5254078 -1.8020883 0.27335286
C 1.034031 -2.6096652 -0.9011992
H 0.96116775 3.1736002 0.9619198
H -0.8048192 2.9830215 1.1025949
H 0.25938973 2.4316952 2.418688
H 1.0055782 0.65446407 0.760827
H -1.2013079 -1.3653338 0.09683753
H -1.276794 -0.69083333 -1.5157858
H 1.2933857 -0.50827706 -1.5098532
H 2.5880299 -1.595511 0.34475785
H 1.0375609 -1.9578657 1.2305351
H 0.21956028 -3.3056138 -0.7297081
H 1.7608671 -2.9479086 -1.6309453
