17
title
O 0.87699246 1.4679363 1.4360843
C -0.0009182578 0.64218986 0.7241561
C 0.7036208 0.046138514 -0.51025265
N -0.2567889 -0.6487649 -1.3551496
C -0.86899304 0.13910812 -2.4242048
C 0.1544456 -0.8962173 -2.7322943
C -0.5399496 -0.45533007 1.6211138
O -0.23717518 -0.51127064 2.7904105
H 0.8694564 1.1267955 2.345235
H -0.876489 1.2139773 0.36479065
H 1.2233484 0.87027854 -1.027452
H 1.4695356 -0.66642445 -0.18252783
H -1.921445 -0.052383684 -2.6107967
H -0.56791425 1.1808469 -2.5240242
H 1.1386912 -0.5458668 -3.0387144
H -0.13755359 -1.8565874 -3.1467545
H -1.2095265 -1.1945932 1.1458501
