20
title
C -1.0324156 2.6447537 1.8603816
C -0.98613685 1.133912 1.6473782
C -0.38007718 0.7215243 0.31124288
O 0.1531694 1.5199009 -0.42484266
C -0.506326 -0.7564449 -0.054796755
C 0.39966333 -1.1832861 -1.184768
C 1.7608345 -1.7596537 -0.8918424
C 0.66490686 -2.6449726 -1.435231
H -0.033309452 3.0780275 1.7735102
H -1.6607335 3.1270516 1.1065739
H -1.4338152 2.885665 2.8486977
H -0.39173746 0.6448539 2.4330337
H -1.9846154 0.6832636 1.7287681
H -0.33815396 -1.3683976 0.8410888
H -1.5633044 -0.91992253 -0.31878787
H 0.33694422 -0.5419336 -2.0569994
H 2.5840242 -1.4934806 -1.5450599
H 2.0461838 -1.8896292 0.1474896
H 0.21720982 -3.367989 -0.76055723
H 0.73810244 -2.986915 -2.46174
