18
title
C -0.89065146 2.5786717 1.8598555
C -1.0388099 1.1058409 1.4866701
C -0.22643028 0.72614014 0.26544124
O 0.45402968 1.474926 -0.38739902
O -0.3792045 -0.59202826 -0.011770552
C 0.3379742 -1.0826255 -1.1303934
C 1.54795 -1.9273759 -0.86885077
C 0.2511375 -2.5572195 -1.3427073
H 0.15158786 2.8240209 2.0790603
H -1.211258 3.2241278 1.0383977
H -1.4942362 2.8127403 2.7410789
H -0.7317433 0.44847545 2.3087573
H -2.0845282 0.8458363 1.2834347
H 0.33695316 -0.40033522 -1.9709352
H 2.38324 -1.8526801 -1.5557381
H 1.8214166 -2.0846379 0.16817182
H -0.3180942 -3.1233134 -0.6143313
H 0.18340684 -2.9263167 -2.359685
