title
 OpenBabel02282109593D

 16 16  0  0  1  0  0  0  0  0999 V2000
   -0.4301    1.4504    0.9228 O   0  0  0  0  0  0  0  0  0  0  0  0
   -0.2105    0.0687    0.8312 C   0  0  1  0  0  0  0  0  0  0  0  0
    0.6531   -0.2754   -0.3996 C   0  0  0  0  0  0  0  0  0  0  0  0
   -0.0438    0.1311   -1.6755 C   0  0  1  0  0  0  0  0  0  0  0  0
    0.0729   -0.6543   -2.9087 C   0  0  0  0  0  0  0  0  0  0  0  0
   -1.1053   -0.7290   -2.1029 O   0  0  0  0  0  0  0  0  0  0  0  0
    0.4368   -0.4488    2.0972 C   0  0  0  0  0  0  0  0  0  0  0  0
    0.7143    0.2849    3.0153 O   0  0  0  0  0  0  0  0  0  0  0  0
   -0.0986    1.7103    1.7970 H   0  0  0  0  0  0  0  0  0  0  0  0
   -1.1697   -0.4688    0.7206 H   0  0  0  0  0  0  0  0  0  0  0  0
    1.6110    0.2520   -0.3159 H   0  0  0  0  0  0  0  0  0  0  0  0
    0.8525   -1.3531   -0.4250 H   0  0  0  0  0  0  0  0  0  0  0  0
   -0.2725    1.1930   -1.7550 H   0  0  0  0  0  0  0  0  0  0  0  0
   -0.0510   -0.1692   -3.8757 H   0  0  0  0  0  0  0  0  0  0  0  0
    0.6908   -1.5519   -2.9173 H   0  0  0  0  0  0  0  0  0  0  0  0
    0.6456   -1.5376    2.1354 H   0  0  0  0  0  0  0  0  0  0  0  0
  1  9  1  0  0  0  0
  2 10  1  6  0  0  0
  2  1  1  0  0  0  0
  2  7  1  0  0  0  0
  3 11  1  0  0  0  0
  3  2  1  0  0  0  0
  4 13  1  6  0  0  0
  4  3  1  0  0  0  0
  5  6  1  0  0  0  0
  5  4  1  0  0  0  0
  6  4  1  0  0  0  0
  7 16  1  0  0  0  0
  7  8  2  0  0  0  0
 12  3  1  0  0  0  0
 14  5  1  0  0  0  0
 15  5  1  0  0  0  0
M  END
