17
title
C 0.1331766 2.4176528 -1.3797868
N 0.043629326 1.0718975 -0.8503053
C -0.90162206 0.7040024 0.05796069
O -1.7591921 1.452739 0.49163646
C -0.82341117 -0.77245635 0.47575182
C 0.5508771 -1.2145258 0.92307395
C 1.1138356 -2.5170732 0.5454857
O 1.5540345 -1.3190728 -0.10184413
H 0.025531983 2.4244235 -2.4703443
H -0.677605 2.998197 -0.9383146
H 1.0902387 2.8856614 -1.1225336
H 0.73188925 0.38444325 -1.1186346
H -1.5441712 -0.9084982 1.285353
H -1.1440136 -1.391116 -0.37072003
H 0.91855896 -0.7490954 1.8379195
H 1.8562622 -2.9952543 1.181745
H 0.5251813 -3.192991 -0.07289642
