17
title
C -0.7380583 2.7194076 -1.4137275
O -0.46244743 1.314748 -1.48722
C -0.15032044 0.727664 -0.3135903
O -0.0781441 1.3129177 0.73451626
C 0.04434481 -0.7675646 -0.51575345
N 0.84287256 -1.3393378 0.5471736
C 0.13981941 -1.6664596 1.7807945
C 0.59278625 -2.744536 0.8597337
H 0.13401803 3.2634265 -1.0425568
H -0.9768294 3.0291193 -2.4311512
H -1.5815393 2.9132588 -0.74606365
H -0.96796775 -1.2108603 -0.594163
H 0.534844 -0.9353922 -1.4792181
H 0.68020123 -1.4528744 2.6973498
H -0.92859966 -1.4647844 1.8275651
H -0.17241868 -3.2682347 0.2882868
H 1.4738988 -3.3369575 1.0874814
