18
title
C -0.71739906 2.8189287 1.4045347
N -1.0797533 1.5135213 0.88393474
C -0.15256651 0.7783135 0.1690451
O 0.9163579 1.2237102 -0.20434915
N -0.56433785 -0.52442163 -0.090705864
C 0.19478463 -1.3217943 -1.0101459
C 1.3800297 -2.0833707 -0.48777854
C 0.11334698 -2.8169641 -0.8535466
H 0.020403968 3.2522228 0.72898924
H -1.5988004 3.465877 1.4418108
H -0.27342093 2.7699132 2.408124
H -1.7674079 0.99370486 1.4062827
H -1.5627058 -0.6767449 -0.10969555
H 0.27866805 -0.92698973 -2.0204794
H 2.2437816 -2.1762733 -1.1353638
H 1.609175 -1.9698217 0.56466746
H -0.49522954 -3.199772 -0.04149579
H 0.0977454 -3.4219384 -1.7528844
