18
title
C -1.2885561 2.4269316 0.6172116
N -0.68818784 1.1710601 0.21147686
C 0.5169434 0.75335485 0.6933922
O 1.1791205 1.3901807 1.4934844
C 0.9994531 -0.61390114 0.18517715
C 0.33958283 -1.1261189 -1.0712659
C 0.10713503 -2.5692098 -1.3050413
N -1.0356829 -1.6793835 -1.0153968
H -0.6019955 2.905984 1.3159432
H -1.4466374 3.0879126 -0.24219245
H -2.2519271 2.2663968 1.1143407
H -1.1807407 0.58547795 -0.4445539
H 2.0817027 -0.52222943 0.049955904
H 0.85483617 -1.3298628 1.0052775
H 0.49604085 -0.50414693 -1.9509785
H 0.13300094 -2.9674292 -2.3149395
H 0.4205052 -3.2682233 -0.5341304
H -1.3030093 -1.8031564 -0.040141404
