title
 OpenBabel02282109593D

 17 17  0  0  0  0  0  0  0  0999 V2000
   -0.7381    2.7194   -1.4137 C   0  0  0  0  0  0  0  0  0  0  0  0
   -0.4624    1.3147   -1.4872 O   0  0  0  0  0  0  0  0  0  0  0  0
   -0.1503    0.7277   -0.3136 C   0  0  0  0  0  0  0  0  0  0  0  0
   -0.0781    1.3129    0.7345 O   0  0  0  0  0  0  0  0  0  0  0  0
    0.0443   -0.7676   -0.5158 C   0  0  0  0  0  0  0  0  0  0  0  0
    0.8429   -1.3393    0.5472 N   0  0  0  0  0  0  0  0  0  0  0  0
    0.1398   -1.6665    1.7808 C   0  0  0  0  0  0  0  0  0  0  0  0
    0.5928   -2.7445    0.8597 C   0  0  0  0  0  0  0  0  0  0  0  0
    0.1340    3.2634   -1.0426 H   0  0  0  0  0  0  0  0  0  0  0  0
   -0.9768    3.0291   -2.4312 H   0  0  0  0  0  0  0  0  0  0  0  0
   -1.5815    2.9133   -0.7461 H   0  0  0  0  0  0  0  0  0  0  0  0
   -0.9680   -1.2109   -0.5942 H   0  0  0  0  0  0  0  0  0  0  0  0
    0.5348   -0.9354   -1.4792 H   0  0  0  0  0  0  0  0  0  0  0  0
    0.6802   -1.4529    2.6973 H   0  0  0  0  0  0  0  0  0  0  0  0
   -0.9286   -1.4648    1.8276 H   0  0  0  0  0  0  0  0  0  0  0  0
   -0.1724   -3.2682    0.2883 H   0  0  0  0  0  0  0  0  0  0  0  0
    1.4739   -3.3370    1.0875 H   0  0  0  0  0  0  0  0  0  0  0  0
  1  9  1  0  0  0  0
  1 11  1  0  0  0  0
  2  1  1  0  0  0  0
  2  3  1  0  0  0  0
  3  4  2  0  0  0  0
  5  3  1  0  0  0  0
  5  6  1  0  0  0  0
  6  8  1  0  0  0  0
  6  7  1  0  0  0  0
  7 15  1  0  0  0  0
  7 14  1  0  0  0  0
  8 17  1  0  0  0  0
  8  7  1  0  0  0  0
 10  1  1  0  0  0  0
 12  5  1  0  0  0  0
 13  5  1  0  0  0  0
 16  8  1  0  0  0  0
M  END
