18
title
C -0.83088106 2.7549355 0.29987785
N -0.63482875 1.3386115 0.07875367
C 0.03544533 0.54471874 0.9510593
O 0.5444044 0.92653596 1.9908357
C 0.080227785 -0.93376905 0.54755676
N -0.2170763 -1.1517518 -0.8635649
C 0.9323448 -1.2911408 -1.7572647
C 0.09937995 -2.4715044 -1.3996705
H -0.31972396 3.0148432 1.2280623
H -0.4101758 3.3487766 -0.5194922
H -1.894197 3.0030236 0.39775214
H -1.0140353 0.8827692 -0.7380819
H 1.0617584 -1.3242755 0.8561893
H -0.67621046 -1.4555504 1.1464487
H 0.8341663 -0.8234919 -2.7323365
H 1.9250188 -1.2262738 -1.315998
H 0.5355127 -3.2014146 -0.72053736
H -0.6164927 -2.8776379 -2.1082451
