18
title
C -0.79749554 2.5904946 1.6250467
O -0.890883 1.1849376 1.3631818
C -0.36622804 0.78162867 0.18632257
O 0.16392827 1.5285506 -0.59662294
C -0.571144 -0.70918053 -0.010989308
C 0.34481668 -1.2909117 -1.0619131
C 1.6861721 -1.8551846 -0.6711656
C 0.57730305 -2.7780526 -1.1172365
H 0.2475307 2.9096153 1.6518018
H -1.3174229 3.1635416 0.852954
H -1.2681569 2.744073 2.5962913
H -0.44964796 -1.2136703 0.9530847
H -1.6252273 -0.84924597 -0.28992498
H 0.30919433 -0.7662942 -2.01059
H 2.525771 -1.693831 -1.3375782
H 1.9507223 -1.8558509 0.38156283
H 0.10056901 -3.3970263 -0.36378407
H 0.6574719 -3.250394 -2.0899713
