17
title
C -0.94252455 2.6566458 -1.3116648
O -0.33891895 1.3660356 -1.4108914
C -0.13088046 0.7478046 -0.21713154
O -0.41045576 1.2231135 0.85857433
N 0.41878837 -0.4845997 -0.43286008
C 0.91768044 -1.2837838 0.6426315
C -0.06765299 -1.9710511 1.5470047
C 0.726057 -2.7753098 0.5496461
H -0.31936288 3.3356295 -0.7236009
H -1.0357516 3.0194278 -2.3359919
H -1.9273921 2.5923507 -0.8413192
H 0.73472744 -0.6773509 -1.3702422
H 1.8373934 -0.92839825 1.1028554
H 0.18375613 -2.0453978 2.59829
H -1.117494 -1.8043638 1.3411858
H 0.20086999 -3.1549609 -0.31985027
H 1.5281681 -3.4111412 0.90626043
