title
 OpenBabel02282109593D

 16 16  0  0  1  0  0  0  0  0999 V2000
    1.7272    2.6018    0.2282 C   0  0  0  0  0  0  0  0  0  0  0  0
    1.5776    1.1902    0.0210 O   0  0  0  0  0  0  0  0  0  0  0  0
    0.3430    0.7899   -0.3345 C   0  0  0  0  0  0  0  0  0  0  0  0
   -0.5934    1.5362   -0.4707 O   0  0  0  0  0  0  0  0  0  0  0  0
    0.3015   -0.7096   -0.5705 C   0  0  0  0  0  0  0  0  0  0  0  0
   -1.0485   -1.2936   -0.2290 C   0  0  1  0  0  0  0  0  0  0  0  0
   -1.2037   -2.7095    0.1182 C   0  0  0  0  0  0  0  0  0  0  0  0
   -1.2349   -1.6996    1.1283 O   0  0  0  0  0  0  0  0  0  0  0  0
    2.7702    2.7512    0.5069 H   0  0  0  0  0  0  0  0  0  0  0  0
    1.4912    3.1526   -0.6858 H   0  0  0  0  0  0  0  0  0  0  0  0
    1.0637    2.9444    1.0258 H   0  0  0  0  0  0  0  0  0  0  0  0
    0.5132   -0.8699   -1.6364 H   0  0  0  0  0  0  0  0  0  0  0  0
    1.0929   -1.2024   -0.0017 H   0  0  0  0  0  0  0  0  0  0  0  0
   -1.8962   -0.7607   -0.6564 H   0  0  0  0  0  0  0  0  0  0  0  0
   -2.1502   -3.2130   -0.0732 H   0  0  0  0  0  0  0  0  0  0  0  0
   -0.3293   -3.3595    0.1343 H   0  0  0  0  0  0  0  0  0  0  0  0
  1  9  1  0  0  0  0
  1 11  1  0  0  0  0
  2  1  1  0  0  0  0
  3  2  1  0  0  0  0
  4  3  2  0  0  0  0
  5  3  1  0  0  0  0
  5  6  1  0  0  0  0
  5 13  1  0  0  0  0
  6 14  1  6  0  0  0
  6  7  1  0  0  0  0
  6  8  1  0  0  0  0
  7 16  1  0  0  0  0
  7  8  1  0  0  0  0
 10  1  1  0  0  0  0
 12  5  1  0  0  0  0
 15  7  1  0  0  0  0
M  END
