17
title
C 1.398328 2.2243652 0.79058653
O 1.1325817 0.88700897 0.3452195
C 0.2612669 0.7831915 -0.683823
O -0.24469024 1.7296299 -1.2289187
C -0.006147202 -0.675538 -1.0035647
C -1.0753852 -1.238977 -0.08071204
C -0.956968 -2.6228435 0.4403829
N -0.7762324 -1.46999 1.3388036
H 2.119718 2.1297975 1.6021066
H 1.8123622 2.82457 -0.023174213
H 0.48108953 2.6995232 1.1470141
H -0.33612472 -0.73605484 -2.0437372
H 0.9205132 -1.2462444 -0.8890682
H -2.068971 -0.83002967 -0.25161487
H -1.8479332 -3.2152581 0.62807626
H -0.08465093 -3.200705 0.14409813
H 0.2126748 -1.3016009 1.5088693
