title
 OpenBabel02282109593D

 17 17  0  0  0  0  0  0  0  0999 V2000
   -1.0500    2.4417   -1.8855 N   0  0  0  0  0  0  0  0  0  0  0  0
   -1.1993    1.1013   -1.3487 C   0  0  0  0  0  0  0  0  0  0  0  0
   -0.1865    0.7167   -0.2729 C   0  0  0  0  0  0  0  0  0  0  0  0
    0.6771    1.4406    0.1523 O   0  0  0  0  0  0  0  0  0  0  0  0
   -0.4019   -0.5487    0.1504 O   0  0  0  0  0  0  0  0  0  0  0  0
    0.4775   -1.0395    1.1490 C   0  0  0  0  0  0  0  0  0  0  0  0
    0.2672   -2.4654    1.5349 C   0  0  0  0  0  0  0  0  0  0  0  0
    1.4946   -2.0609    0.7396 C   0  0  0  0  0  0  0  0  0  0  0  0
   -1.0853    3.1089   -1.1194 H   0  0  0  0  0  0  0  0  0  0  0  0
   -0.1139    2.5416   -2.2688 H   0  0  0  0  0  0  0  0  0  0  0  0
   -2.2026    0.9777   -0.9239 H   0  0  0  0  0  0  0  0  0  0  0  0
   -1.1297    0.3639   -2.1568 H   0  0  0  0  0  0  0  0  0  0  0  0
    0.7362   -0.2947    1.8907 H   0  0  0  0  0  0  0  0  0  0  0  0
    0.3786   -2.7362    2.5785 H   0  0  0  0  0  0  0  0  0  0  0  0
   -0.5085   -3.0059    1.0047 H   0  0  0  0  0  0  0  0  0  0  0  0
    1.5163   -2.3395   -0.3077 H   0  0  0  0  0  0  0  0  0  0  0  0
    2.4619   -2.0449    1.2288 H   0  0  0  0  0  0  0  0  0  0  0  0
  1  2  1  0  0  0  0
  1  9  1  0  0  0  0
  2 11  1  0  0  0  0
  2  3  1  0  0  0  0
  3  5  1  0  0  0  0
  3  4  2  0  0  0  0
  5  6  1  0  0  0  0
  6  7  1  0  0  0  0
  6 13  1  0  0  0  0
  7 14  1  0  0  0  0
  8  6  1  0  0  0  0
  8 17  1  0  0  0  0
  8  7  1  0  0  0  0
 10  1  1  0  0  0  0
 12  2  1  0  0  0  0
 15  7  1  0  0  0  0
 16  8  1  0  0  0  0
M  END
