19
title
C -1.0757684 1.5546849 1.8595783
O -1.2293859 0.14382583 1.7321856
C -0.5807361 -0.44012025 0.6959852
C -0.8332791 -1.9295981 0.6862005
N 0.11775804 0.25487274 -0.10125408
C 0.8009621 -0.3493887 -1.1899756
C 0.92392385 0.46588716 -2.4590065
C 2.130577 0.25573742 -1.585117
H -0.02421092 1.8232332 1.9976442
H -1.444724 2.070862 0.9683077
H -1.6612552 1.837971 2.735762
H -1.3093336 -2.2365904 -0.24987517
H 0.106084354 -2.4833503 0.77596724
H -1.4832934 -2.2025492 1.5174133
H 0.7098352 -1.4266784 -1.3232518
H 0.8685616 -0.05639878 -3.4077194
H 0.45820296 1.4440361 -2.4454901
H 2.4703164 1.0936066 -0.98811305
H 2.91332 -0.41238663 -1.9269067
