title
 OpenBabel02282109593D

 17 17  0  0  0  0  0  0  0  0999 V2000
    1.8572    1.9076    1.1325 O   0  0  0  0  0  0  0  0  0  0  0  0
    1.7307    1.4007   -0.1814 C   0  0  0  0  0  0  0  0  0  0  0  0
    0.5445    0.4521   -0.4204 C   0  0  0  0  0  0  0  0  0  0  0  0
    0.2518    0.1514   -1.5562 O   0  0  0  0  0  0  0  0  0  0  0  0
   -0.1604   -0.0739    0.8272 C   0  0  0  0  0  0  0  0  0  0  0  0
   -1.2101   -1.0666    0.7346 N   0  0  0  0  0  0  0  0  0  0  0  0
   -2.2035   -1.0603   -0.3332 C   0  0  0  0  0  0  0  0  0  0  0  0
   -1.1794   -2.1438   -0.2471 C   0  0  0  0  0  0  0  0  0  0  0  0
    1.2335    2.6315    1.2425 H   0  0  0  0  0  0  0  0  0  0  0  0
    1.6896    2.1873   -0.9468 H   0  0  0  0  0  0  0  0  0  0  0  0
    2.6386    0.8171   -0.3801 H   0  0  0  0  0  0  0  0  0  0  0  0
    0.6233   -0.4526    1.4980 H   0  0  0  0  0  0  0  0  0  0  0  0
   -0.5621    0.8013    1.3582 H   0  0  0  0  0  0  0  0  0  0  0  0
   -3.2242   -1.2424   -0.0052 H   0  0  0  0  0  0  0  0  0  0  0  0
   -2.0925   -0.3584   -1.1526 H   0  0  0  0  0  0  0  0  0  0  0  0
   -0.4093   -2.1385   -1.0112 H   0  0  0  0  0  0  0  0  0  0  0  0
   -1.4463   -3.1232    0.1426 H   0  0  0  0  0  0  0  0  0  0  0  0
  1  9  1  0  0  0  0
  2  1  1  0  0  0  0
  3  2  1  0  0  0  0
  3  5  1  0  0  0  0
  4  3  2  0  0  0  0
  5 13  1  0  0  0  0
  5 12  1  0  0  0  0
  6  5  1  0  0  0  0
  7  8  1  0  0  0  0
  7 14  1  0  0  0  0
  7  6  1  0  0  0  0
  8 17  1  0  0  0  0
  8  6  1  0  0  0  0
 10  2  1  0  0  0  0
 11  2  1  0  0  0  0
 15  7  1  0  0  0  0
 16  8  1  0  0  0  0
M  END
