16
title
O 2.000211 2.4028296 -0.2287607
C 1.8161454 1.0618957 0.12379663
C 0.35014915 0.6788215 0.02952308
O -0.50620425 1.4613471 -0.3078563
O 0.140599 -0.5988527 0.3727628
C -1.2018954 -1.062524 0.30681556
C -1.5646607 -1.9764818 -0.82297647
C -1.3809327 -2.5172167 0.58261555
H 1.1171172 2.7384686 -0.44389087
H 2.389425 0.3904817 -0.53332835
H 2.1585793 0.86447275 1.150668
H -1.9184855 -0.33348912 0.66255933
H -2.5634522 -1.9031304 -1.2375542
H -0.7860321 -2.2009919 -1.5427656
H -0.4828664 -3.0921135 0.7770618
H -2.2515216 -2.8266835 1.1491873
