17
title
O 1.8572159 1.9076024 1.1324977
C 1.7306849 1.4007275 -0.18137287
C 0.5445168 0.45209107 -0.4204355
O 0.2518452 0.15140896 -1.5561681
C -0.16038372 -0.07386073 0.8272121
N -1.2101119 -1.0665877 0.7346227
C -2.203467 -1.0602729 -0.33319584
C -1.1794364 -2.143833 -0.2471176
H 1.2334844 2.631452 1.2424655
H 1.6896206 2.1872945 -0.94682616
H 2.6385655 0.8171274 -0.38012034
H 0.6232672 -0.45256302 1.4979749
H -0.56206846 0.8012974 1.3582345
H -3.2241898 -1.2424474 -0.0052254633
H -2.092505 -0.35839364 -1.1526145
H -0.40933874 -2.1385086 -1.011228
H -1.4462998 -3.1232107 0.14263856
