22
title
C -0.602371 1.6707107 0.8221677
C -0.6208501 0.1741159 0.48510736
C -2.0522923 -0.36500457 0.49146906
O -2.5991726 -0.1886256 1.7912608
C 0.053318623 -0.14256027 -0.86311156
C 1.5314351 0.18570456 -0.91885406
C 2.544169 -0.7800226 -0.35411236
C 2.4443815 -0.5745541 -1.8466526
H 0.41779602 2.043459 0.94885087
H -1.076882 2.2554243 0.023681136
H -1.1512537 1.8566148 1.7478213
H -0.07727945 -0.36453494 1.273334
H -2.6499627 0.17011121 -0.2661579
H -2.0461233 -1.4307908 0.210561
H -3.5218048 -0.4571993 1.7688636
H -0.07308936 -1.211467 -1.0838486
H -0.47149205 0.39804175 -1.6645192
H 1.7691745 1.2384444 -0.7956856
H 3.4100366 -0.38392666 0.164835
H 2.1764686 -1.7172958 0.051771194
H 2.0119557 -1.3742934 -2.4396808
H 3.2411923 -0.035191163 -2.3470893
