17
title
N -1.0500394 2.4416857 -1.8855236
C -1.1992897 1.1013421 -1.3486503
C -0.18647453 0.7166746 -0.27287805
O 0.67705184 1.4406117 0.15225005
O -0.40187296 -0.54870284 0.15036249
C 0.47750595 -1.039473 1.1489623
C 0.2671564 -2.465357 1.5348918
C 1.4946412 -2.0609014 0.73964906
H -1.0853385 3.1089149 -1.1194309
H -0.11385974 2.5415633 -2.2687519
H -2.2025776 0.9777485 -0.92393273
H -1.1297331 0.36386588 -2.1568456
H 0.73619634 -0.29468313 1.8906968
H 0.3786452 -2.7362483 2.5785406
H -0.50854754 -3.0058997 1.0047245
H 1.516327 -2.3395035 -0.3076508
H 2.4619162 -2.0448656 1.2287529
