title
 OpenBabel02282109593D

 19 19  0  0  0  0  0  0  0  0999 V2000
   -1.0758    1.5547    1.8596 C   0  0  0  0  0  0  0  0  0  0  0  0
   -1.2294    0.1438    1.7322 O   0  0  0  0  0  0  0  0  0  0  0  0
   -0.5807   -0.4401    0.6960 C   0  0  0  0  0  0  0  0  0  0  0  0
   -0.8333   -1.9296    0.6862 C   0  0  0  0  0  0  0  0  0  0  0  0
    0.1178    0.2549   -0.1013 N   0  0  0  0  0  0  0  0  0  0  0  0
    0.8010   -0.3494   -1.1900 C   0  0  0  0  0  0  0  0  0  0  0  0
    0.9239    0.4659   -2.4590 C   0  0  0  0  0  0  0  0  0  0  0  0
    2.1306    0.2557   -1.5851 C   0  0  0  0  0  0  0  0  0  0  0  0
   -0.0242    1.8232    1.9976 H   0  0  0  0  0  0  0  0  0  0  0  0
   -1.4447    2.0709    0.9683 H   0  0  0  0  0  0  0  0  0  0  0  0
   -1.6613    1.8380    2.7358 H   0  0  0  0  0  0  0  0  0  0  0  0
   -1.3093   -2.2366   -0.2499 H   0  0  0  0  0  0  0  0  0  0  0  0
    0.1061   -2.4834    0.7760 H   0  0  0  0  0  0  0  0  0  0  0  0
   -1.4833   -2.2025    1.5174 H   0  0  0  0  0  0  0  0  0  0  0  0
    0.7098   -1.4267   -1.3233 H   0  0  0  0  0  0  0  0  0  0  0  0
    0.8686   -0.0564   -3.4077 H   0  0  0  0  0  0  0  0  0  0  0  0
    0.4582    1.4440   -2.4455 H   0  0  0  0  0  0  0  0  0  0  0  0
    2.4703    1.0936   -0.9881 H   0  0  0  0  0  0  0  0  0  0  0  0
    2.9133   -0.4124   -1.9269 H   0  0  0  0  0  0  0  0  0  0  0  0
  1  9  1  0  0  0  0
  1 11  1  0  0  0  0
  2  1  1  0  0  0  0
  3  2  1  0  0  0  0
  4  3  1  0  0  0  0
  4 13  1  0  0  0  0
  4 14  1  0  0  0  0
  5  3  2  0  0  0  0
  6  5  1  0  0  0  0
  7 17  1  0  0  0  0
  7  8  1  0  0  0  0
  7  6  1  0  0  0  0
  8  6  1  0  0  0  0
  8 18  1  0  0  0  0
 10  1  1  0  0  0  0
 12  4  1  0  0  0  0
 15  6  1  0  0  0  0
 16  7  1  0  0  0  0
 19  8  1  0  0  0  0
M  END
