title
 OpenBabel02282109593D

 16 16  0  0  0  0  0  0  0  0999 V2000
    2.0002    2.4028   -0.2288 O   0  0  0  0  0  0  0  0  0  0  0  0
    1.8161    1.0619    0.1238 C   0  0  0  0  0  0  0  0  0  0  0  0
    0.3501    0.6788    0.0295 C   0  0  0  0  0  0  0  0  0  0  0  0
   -0.5062    1.4613   -0.3079 O   0  0  0  0  0  0  0  0  0  0  0  0
    0.1406   -0.5989    0.3728 O   0  0  0  0  0  0  0  0  0  0  0  0
   -1.2019   -1.0625    0.3068 C   0  0  0  0  0  0  0  0  0  0  0  0
   -1.5647   -1.9765   -0.8230 C   0  0  0  0  0  0  0  0  0  0  0  0
   -1.3809   -2.5172    0.5826 C   0  0  0  0  0  0  0  0  0  0  0  0
    1.1171    2.7385   -0.4439 H   0  0  0  0  0  0  0  0  0  0  0  0
    2.3894    0.3905   -0.5333 H   0  0  0  0  0  0  0  0  0  0  0  0
    2.1586    0.8645    1.1507 H   0  0  0  0  0  0  0  0  0  0  0  0
   -1.9185   -0.3335    0.6626 H   0  0  0  0  0  0  0  0  0  0  0  0
   -2.5635   -1.9031   -1.2376 H   0  0  0  0  0  0  0  0  0  0  0  0
   -0.7860   -2.2010   -1.5428 H   0  0  0  0  0  0  0  0  0  0  0  0
   -0.4829   -3.0921    0.7771 H   0  0  0  0  0  0  0  0  0  0  0  0
   -2.2515   -2.8267    1.1492 H   0  0  0  0  0  0  0  0  0  0  0  0
  1  2  1  0  0  0  0
  2 11  1  0  0  0  0
  3  2  1  0  0  0  0
  3  5  1  0  0  0  0
  4  3  2  0  0  0  0
  6  5  1  0  0  0  0
  6  8  1  0  0  0  0
  6 12  1  0  0  0  0
  7  6  1  0  0  0  0
  7  8  1  0  0  0  0
  8 15  1  0  0  0  0
  8 16  1  0  0  0  0
  9  1  1  0  0  0  0
 10  2  1  0  0  0  0
 13  7  1  0  0  0  0
 14  7  1  0  0  0  0
M  END
