title
 OpenBabel02282109593D

 17 17  0  0  0  0  0  0  0  0999 V2000
    1.9555    2.5292    0.1276 O   0  0  0  0  0  0  0  0  0  0  0  0
    1.8551    1.1416    0.0209 C   0  0  0  0  0  0  0  0  0  0  0  0
    0.3787    0.7261    0.0437 C   0  0  0  0  0  0  0  0  0  0  0  0
   -0.4883    1.5834    0.1453 O   0  0  0  0  0  0  0  0  0  0  0  0
    0.1271   -0.6004   -0.0530 N   0  0  0  0  0  0  0  0  0  0  0  0
   -1.1995   -1.1490   -0.0452 C   0  0  0  0  0  0  0  0  0  0  0  0
   -1.5333   -2.3466   -0.8908 C   0  0  0  0  0  0  0  0  0  0  0  0
   -1.4732   -2.4698    0.6189 C   0  0  0  0  0  0  0  0  0  0  0  0
    1.0323    2.8315    0.1872 H   0  0  0  0  0  0  0  0  0  0  0  0
    2.3133    0.7798   -0.9142 H   0  0  0  0  0  0  0  0  0  0  0  0
    2.3800    0.6392    0.8501 H   0  0  0  0  0  0  0  0  0  0  0  0
    0.9085   -1.2328   -0.1324 H   0  0  0  0  0  0  0  0  0  0  0  0
   -1.9303   -0.3569    0.0485 H   0  0  0  0  0  0  0  0  0  0  0  0
   -2.4988   -2.3755   -1.3831 H   0  0  0  0  0  0  0  0  0  0  0  0
   -0.7302   -2.8011   -1.4623 H   0  0  0  0  0  0  0  0  0  0  0  0
   -0.6305   -3.0058    1.0441 H   0  0  0  0  0  0  0  0  0  0  0  0
   -2.3970   -2.5844    1.1747 H   0  0  0  0  0  0  0  0  0  0  0  0
  1  9  1  0  0  0  0
  2  3  1  0  0  0  0
  2  1  1  0  0  0  0
  2 11  1  0  0  0  0
  3  4  2  0  0  0  0
  5  6  1  0  0  0  0
  5  3  1  0  0  0  0
  6 13  1  0  0  0  0
  6  8  1  0  0  0  0
  7  6  1  0  0  0  0
  7  8  1  0  0  0  0
  8 16  1  0  0  0  0
  8 17  1  0  0  0  0
 10  2  1  0  0  0  0
 12  5  1  0  0  0  0
 14  7  1  0  0  0  0
 15  7  1  0  0  0  0
M  END
