22
title
C 1.8438461 2.803753 0.18276581
C 1.749845 1.3004887 -0.09804851
C 0.31521055 0.74999326 -0.20578386
C -0.4466969 1.357322 -1.392885
C 0.34758827 -0.7913324 -0.27676788
C -1.0048579 -1.4438573 -0.11940801
C -1.1925961 -2.6777778 0.6538652
O -1.5725621 -1.4124368 1.1962789
H 2.885557 3.1088662 0.32358405
H 1.4370296 3.4032 -0.6371972
H 1.2944369 3.069355 1.093015
H 2.2943754 1.0647591 -1.0235381
H 2.269295 0.7599812 0.7036718
H -0.21678083 1.0157968 0.7185008
H 0.055853445 1.1220087 -2.3395386
H -1.4708697 0.9780714 -1.4558841
H -0.5133459 2.4458215 -1.3142134
H 0.78530186 -1.1077365 -1.2345227
H 1.0037715 -1.1729571 0.5144067
H -1.7315134 -1.2418281 -0.90771073
H -2.0145385 -3.3518238 0.4151983
H -0.33093515 -3.14886 1.1260711
