22
title
C 1.7689519 2.9149714 -0.020848831
C 1.7395779 1.4068749 0.23703583
C 0.32410142 0.8142607 0.19336635
O -0.31339875 1.0830997 -1.0540454
C 0.31365988 -0.68345904 0.5347595
C -1.0701693 -1.2955871 0.5733478
C -1.6962606 -1.8788605 -0.6648662
C -1.2532994 -2.7886457 0.4545909
H 2.7947705 3.2947736 -0.04638124
H 1.2878566 3.149718 -0.9737819
H 1.230681 3.4581614 0.76391727
H 2.357428 0.88731945 -0.5106861
H 2.1893787 1.1805745 1.212059
H -0.29922286 1.3432518 0.9278391
H 0.16662727 0.59954363 -1.7357318
H 0.9343434 -1.2222295 -0.19765633
H 0.8079827 -0.8191242 1.5064368
H -1.7555019 -0.79102945 1.2506781
H -2.7582388 -1.7327983 -0.82705194
H -1.1094428 -1.877667 -1.5775554
H -0.36818948 -3.396636 0.29534584
H -2.0122645 -3.2668667 1.0640227
