20
title
C -0.9643741 2.8061628 1.5755278
C -0.8253687 1.2823409 1.605418
C -0.084982775 0.7200009 0.38686866
O 1.2193218 1.2877669 0.25399572
C -0.012630842 -0.8147468 0.40223163
C 0.6033063 -1.3715144 -0.8577358
C 0.22239111 -2.6789134 -1.403153
O -0.26807323 -1.4732553 -1.9913292
H 0.015694 3.281011 1.481698
H -1.5698941 3.1273594 0.7210594
H -1.4445949 3.1787114 2.485185
H -0.28872326 0.97149366 2.514958
H -1.815415 0.81321067 1.6634761
H -0.6090175 1.0305085 -0.525706
H 1.7045313 1.0912619 1.0639393
H 0.57915545 -1.1361915 1.272558
H -1.0183824 -1.2332119 0.52261835
H 1.5911952 -0.98026747 -1.0986028
H 0.92945313 -3.243542 -2.0097566
H -0.5218593 -3.281008 -0.8821923
