23
title
C 1.7288843 2.9704068 0.13736938
C 1.6661713 1.4398398 0.1698734
C 0.24327058 0.85101897 0.12297648
C -0.4709471 1.1538221 -1.2009596
C 0.3031295 -0.65684754 0.41266707
N -1.022345 -1.2600186 0.53026855
C -1.5314153 -1.9854865 -0.6297568
C -1.0582179 -2.717456 0.57514197
H 2.7612638 3.320354 0.23688547
H 1.3351101 3.3785036 -0.7982755
H 1.1500696 3.406338 0.9594711
H 2.2512903 1.032571 -0.6667395
H 2.161582 1.0877889 1.0842527
H -0.34135133 1.3042606 0.93568957
H -1.489317 0.75776565 -1.1971053
H -0.53753906 2.2300277 -1.383669
H 0.06474215 0.70571166 -2.047499
H 0.91563123 -1.1608634 -0.36057273
H 0.8154654 -0.81108886 1.3704896
H -2.5936399 -1.8769982 -0.8308957
H -0.90241486 -2.0324013 -1.5174538
H -0.11412269 -3.2542632 0.4901615
H -1.7666603 -3.15328 1.2741948
