title
 OpenBabel02282109593D

 24 24  0  0  1  0  0  0  0  0999 V2000
    1.8259    2.9507    0.1450 C   0  0  0  0  0  0  0  0  0  0  0  0
    1.7295    1.4229    0.2114 C   0  0  0  0  0  0  0  0  0  0  0  0
    0.2999    0.8551    0.1223 C   0  0  1  0  0  0  0  0  0  0  0  0
   -0.3660    1.1739   -1.2237 C   0  0  0  0  0  0  0  0  0  0  0  0
    0.3156   -0.6592    0.4155 C   0  0  0  0  0  0  0  0  0  0  0  0
   -1.0502   -1.3021    0.5536 C   0  0  0  0  0  0  0  0  0  0  0  0
   -1.7356   -1.9642   -0.6175 C   0  0  0  0  0  0  0  0  0  0  0  0
   -1.1891   -2.8033    0.5105 C   0  0  0  0  0  0  0  0  0  0  0  0
    2.8586    3.2830    0.2913 H   0  0  0  0  0  0  0  0  0  0  0  0
    1.4911    3.3432   -0.8198 H   0  0  0  0  0  0  0  0  0  0  0  0
    1.2139    3.4193    0.9243 H   0  0  0  0  0  0  0  0  0  0  0  0
    2.3380    0.9827   -0.5913 H   0  0  0  0  0  0  0  0  0  0  0  0
    2.1808    1.0823    1.1523 H   0  0  0  0  0  0  0  0  0  0  0  0
   -0.2950    1.3354    0.9151 H   0  0  0  0  0  0  0  0  0  0  0  0
    0.2016    0.7317   -2.0522 H   0  0  0  0  0  0  0  0  0  0  0  0
   -1.3825    0.7752   -1.2682 H   0  0  0  0  0  0  0  0  0  0  0  0
   -0.4251    2.2517   -1.4004 H   0  0  0  0  0  0  0  0  0  0  0  0
    0.8798   -1.1764   -0.3743 H   0  0  0  0  0  0  0  0  0  0  0  0
    0.8783   -0.8247    1.3449 H   0  0  0  0  0  0  0  0  0  0  0  0
   -1.7091   -0.7942    1.2551 H   0  0  0  0  0  0  0  0  0  0  0  0
   -2.8118   -1.8680   -0.7145 H   0  0  0  0  0  0  0  0  0  0  0  0
   -1.2073   -1.9861   -1.5651 H   0  0  0  0  0  0  0  0  0  0  0  0
   -0.2938   -3.3865    0.3192 H   0  0  0  0  0  0  0  0  0  0  0  0
   -1.8906   -3.2796    1.1866 H   0  0  0  0  0  0  0  0  0  0  0  0
  1  2  1  0  0  0  0
  1  9  1  0  0  0  0
  1 11  1  0  0  0  0
  2 13  1  0  0  0  0
  3  2  1  0  0  0  0
  3  5  1  0  0  0  0
  3 14  1  1  0  0  0
  4  3  1  0  0  0  0
  5  6  1  0  0  0  0
  5 19  1  0  0  0  0
  6 20  1  0  0  0  0
  7  8  1  0  0  0  0
  7  6  1  0  0  0  0
  8  6  1  0  0  0  0
  8 24  1  0  0  0  0
 10  1  1  0  0  0  0
 12  2  1  0  0  0  0
 15  4  1  0  0  0  0
 16  4  1  0  0  0  0
 17  4  1  0  0  0  0
 18  5  1  0  0  0  0
 21  7  1  0  0  0  0
 22  7  1  0  0  0  0
 23  8  1  0  0  0  0
M  END
