title
 OpenBabel02282109593D

 21 21  0  0  1  0  0  0  0  0999 V2000
    1.5679    2.9797    0.0810 C   0  0  0  0  0  0  0  0  0  0  0  0
    1.6352    1.4667    0.3020 C   0  0  0  0  0  0  0  0  0  0  0  0
    0.2697    0.7794    0.1717 C   0  0  1  0  0  0  0  0  0  0  0  0
   -0.3293    1.0395   -1.0976 O   0  0  0  0  0  0  0  0  0  0  0  0
    0.3545   -0.7247    0.4529 C   0  0  0  0  0  0  0  0  0  0  0  0
   -0.9663   -1.3164    0.5956 N   0  0  0  0  0  0  0  0  0  0  0  0
   -1.6153   -1.7909   -0.6182 C   0  0  0  0  0  0  0  0  0  0  0  0
   -1.0707   -2.7553    0.3762 C   0  0  0  0  0  0  0  0  0  0  0  0
    2.5634    3.4316    0.1226 H   0  0  0  0  0  0  0  0  0  0  0  0
    1.1237    3.2081   -0.8912 H   0  0  0  0  0  0  0  0  0  0  0  0
    0.9489    3.4597    0.8468 H   0  0  0  0  0  0  0  0  0  0  0  0
    2.3296    1.0133   -0.4218 H   0  0  0  0  0  0  0  0  0  0  0  0
    2.0480    1.2487    1.2948 H   0  0  0  0  0  0  0  0  0  0  0  0
   -0.4287    1.2156    0.8958 H   0  0  0  0  0  0  0  0  0  0  0  0
    0.2812    0.7248   -1.7744 H   0  0  0  0  0  0  0  0  0  0  0  0
    0.9495   -1.2074   -0.3497 H   0  0  0  0  0  0  0  0  0  0  0  0
    0.8975   -0.8852    1.3925 H   0  0  0  0  0  0  0  0  0  0  0  0
   -2.6828   -1.6042   -0.6876 H   0  0  0  0  0  0  0  0  0  0  0  0
   -1.0780   -1.6864   -1.5583 H   0  0  0  0  0  0  0  0  0  0  0  0
   -0.1669   -3.2970    0.0992 H   0  0  0  0  0  0  0  0  0  0  0  0
   -1.7300   -3.2902    1.0540 H   0  0  0  0  0  0  0  0  0  0  0  0
  1  9  1  0  0  0  0
  1  2  1  0  0  0  0
  1 11  1  0  0  0  0
  2 13  1  0  0  0  0
  3  2  1  0  0  0  0
  3  5  1  0  0  0  0
  3 14  1  1  0  0  0
  4  3  1  0  0  0  0
  5  6  1  0  0  0  0
  5 17  1  0  0  0  0
  7  8  1  0  0  0  0
  7  6  1  0  0  0  0
  8  6  1  0  0  0  0
  8 21  1  0  0  0  0
 10  1  1  0  0  0  0
 12  2  1  0  0  0  0
 15  4  1  0  0  0  0
 16  5  1  0  0  0  0
 18  7  1  0  0  0  0
 19  7  1  0  0  0  0
 20  8  1  0  0  0  0
M  END
