title
 OpenBabel02282109593D

 22 22  0  0  1  0  0  0  0  0999 V2000
    2.2229    1.5638   -1.0599 C   0  0  0  0  0  0  0  0  0  0  0  0
    2.0871    0.0684   -0.7654 C   0  0  0  0  0  0  0  0  0  0  0  0
    0.6373   -0.4187   -0.7347 C   0  0  1  0  0  0  0  0  0  0  0  0
    0.5388   -1.9342   -0.5473 C   0  0  0  0  0  0  0  0  0  0  0  0
   -0.0083    0.2964    0.3211 O   0  0  0  0  0  0  0  0  0  0  0  0
   -1.3996    0.3040    0.2740 C   0  0  0  0  0  0  0  0  0  0  0  0
   -2.1971   -0.6664    1.1123 C   0  0  0  0  0  0  0  0  0  0  0  0
   -2.0992    0.7970    1.4985 C   0  0  0  0  0  0  0  0  0  0  0  0
    3.2723    1.8737   -1.0499 H   0  0  0  0  0  0  0  0  0  0  0  0
    1.8123    1.8114   -2.0456 H   0  0  0  0  0  0  0  0  0  0  0  0
    1.6829    2.1522   -0.3143 H   0  0  0  0  0  0  0  0  0  0  0  0
    2.6291   -0.5164   -1.5182 H   0  0  0  0  0  0  0  0  0  0  0  0
    2.5448   -0.1658    0.2041 H   0  0  0  0  0  0  0  0  0  0  0  0
    0.1516   -0.1454   -1.6878 H   0  0  0  0  0  0  0  0  0  0  0  0
    1.0452   -2.4527   -1.3679 H   0  0  0  0  0  0  0  0  0  0  0  0
    1.0123   -2.2330    0.3938 H   0  0  0  0  0  0  0  0  0  0  0  0
   -0.5021   -2.2658   -0.5290 H   0  0  0  0  0  0  0  0  0  0  0  0
   -1.8093    0.5861   -0.6972 H   0  0  0  0  0  0  0  0  0  0  0  0
   -3.1366   -1.0458    0.7243 H   0  0  0  0  0  0  0  0  0  0  0  0
   -1.6344   -1.3691    1.7157 H   0  0  0  0  0  0  0  0  0  0  0  0
   -1.4674    1.0414    2.3449 H   0  0  0  0  0  0  0  0  0  0  0  0
   -2.9687    1.4337    1.3805 H   0  0  0  0  0  0  0  0  0  0  0  0
  1  9  1  0  0  0  0
  1  2  1  0  0  0  0
  1 11  1  0  0  0  0
  2  3  1  0  0  0  0
  2 13  1  0  0  0  0
  3 14  1  6  0  0  0
  3  4  1  0  0  0  0
  3  5  1  0  0  0  0
  4 17  1  0  0  0  0
  4 16  1  0  0  0  0
  6  5  1  0  0  0  0
  6  7  1  0  0  0  0
  6  8  1  0  0  0  0
  7  8  1  0  0  0  0
  7 20  1  0  0  0  0
  8 21  1  0  0  0  0
 10  1  1  0  0  0  0
 12  2  1  0  0  0  0
 15  4  1  0  0  0  0
 18  6  1  0  0  0  0
 19  7  1  0  0  0  0
 22  8  1  0  0  0  0
M  END
