22
title
C 0.74691284 2.5166621 -0.937192
O 0.8816004 1.122095 -0.80844235
C -0.337174 0.3894228 -0.9012783
C -0.8005151 0.24750538 -2.3537238
C -0.07696609 -0.969325 -0.24506922
C 0.2743013 -0.8663725 1.2231532
C -0.81504434 -0.8273383 2.2672465
C 0.07427223 -2.0415785 2.143225
H 1.734529 2.9529793 -0.7653147
H 0.40452802 2.8222272 -1.9370508
H 0.045105647 2.928523 -0.19460638
H -1.1141264 0.91788167 -0.32251936
H -1.7417493 -0.30937782 -2.403976
H -0.96839136 1.2216175 -2.8219535
H -0.04846524 -0.2889997 -2.9412558
H -0.96823865 -1.5969769 -0.37018925
H 0.7369929 -1.4614369 -0.7937443
H 1.1419294 -0.24511342 1.4196223
H -0.6886191 -0.18017535 3.1282783
H -1.8439977 -0.9208272 1.9330701
H -0.36058837 -2.9449651 1.7269253
H 0.8100882 -2.2237797 2.918881
