title
 OpenBabel02282109593D

 22 22  0  0  1  0  0  0  0  0999 V2000
    0.7469    2.5167   -0.9372 C   0  0  0  0  0  0  0  0  0  0  0  0
    0.8816    1.1221   -0.8084 O   0  0  0  0  0  0  0  0  0  0  0  0
   -0.3372    0.3894   -0.9013 C   0  0  1  0  0  0  0  0  0  0  0  0
   -0.8005    0.2475   -2.3537 C   0  0  0  0  0  0  0  0  0  0  0  0
   -0.0770   -0.9693   -0.2451 C   0  0  0  0  0  0  0  0  0  0  0  0
    0.2743   -0.8664    1.2232 C   0  0  0  0  0  0  0  0  0  0  0  0
   -0.8150   -0.8273    2.2672 C   0  0  0  0  0  0  0  0  0  0  0  0
    0.0743   -2.0416    2.1432 C   0  0  0  0  0  0  0  0  0  0  0  0
    1.7345    2.9530   -0.7653 H   0  0  0  0  0  0  0  0  0  0  0  0
    0.4045    2.8222   -1.9371 H   0  0  0  0  0  0  0  0  0  0  0  0
    0.0451    2.9285   -0.1946 H   0  0  0  0  0  0  0  0  0  0  0  0
   -1.1141    0.9179   -0.3225 H   0  0  0  0  0  0  0  0  0  0  0  0
   -1.7417   -0.3094   -2.4040 H   0  0  0  0  0  0  0  0  0  0  0  0
   -0.9684    1.2216   -2.8220 H   0  0  0  0  0  0  0  0  0  0  0  0
   -0.0485   -0.2890   -2.9413 H   0  0  0  0  0  0  0  0  0  0  0  0
   -0.9682   -1.5970   -0.3702 H   0  0  0  0  0  0  0  0  0  0  0  0
    0.7370   -1.4614   -0.7937 H   0  0  0  0  0  0  0  0  0  0  0  0
    1.1419   -0.2451    1.4196 H   0  0  0  0  0  0  0  0  0  0  0  0
   -0.6886   -0.1802    3.1283 H   0  0  0  0  0  0  0  0  0  0  0  0
   -1.8440   -0.9208    1.9331 H   0  0  0  0  0  0  0  0  0  0  0  0
   -0.3606   -2.9450    1.7269 H   0  0  0  0  0  0  0  0  0  0  0  0
    0.8101   -2.2238    2.9189 H   0  0  0  0  0  0  0  0  0  0  0  0
  1  2  1  0  0  0  0
  1  9  1  0  0  0  0
  1 11  1  0  0  0  0
  3  2  1  0  0  0  0
  3 12  1  1  0  0  0
  3  5  1  0  0  0  0
  4  3  1  0  0  0  0
  5  6  1  0  0  0  0
  6 18  1  0  0  0  0
  6  8  1  0  0  0  0
  6  7  1  0  0  0  0
  7 19  1  0  0  0  0
  8  7  1  0  0  0  0
  8 22  1  0  0  0  0
 10  1  1  0  0  0  0
 13  4  1  0  0  0  0
 14  4  1  0  0  0  0
 15  4  1  0  0  0  0
 16  5  1  0  0  0  0
 17  5  1  0  0  0  0
 20  7  1  0  0  0  0
 21  8  1  0  0  0  0
M  END
