18
title
O 2.0649724 1.5706781 0.915589
C 1.4863483 1.6515785 -0.37610504
C 0.17227946 0.8679963 -0.49911436
O -0.40382588 1.0698069 -1.785665
C 0.34566712 -0.61785513 -0.16627613
C -0.9752606 -1.3392051 -0.07037208
C -1.1923717 -2.4524794 0.859972
O -1.7024425 -1.1500522 1.1504883
H 1.4827576 2.0301974 1.5295969
H 1.3052062 2.690688 -0.6864302
H 2.2311559 1.2287838 -1.063596
H -0.5562726 1.2966064 0.20207533
H 0.19736253 0.69407094 -2.4391716
H 0.96835756 -1.0873178 -0.9430276
H 0.8875892 -0.7059992 0.78038
H -1.5992082 -1.2869092 -0.9627264
H -1.9423357 -3.210485 0.6373872
H -0.37288177 -2.7856164 1.4963089
