16
title
C 1.5752957 2.644645 0.5262974
C 1.6435977 1.1924776 0.09287108
O 2.68297 0.65087247 -0.22542165
C 0.3809152 0.4877018 0.08266843
C -0.67294216 -0.106836036 0.072353266
C -1.9062629 -0.8237924 0.054190286
C -2.1395624 -1.8961852 -1.0066268
C -1.9212518 -2.3074486 0.41255072
H 2.575202 3.0803566 0.4993309
H 0.90433323 3.203931 -0.13455178
H 1.1615298 2.716971 1.5378593
H -2.780979 -0.25471732 0.35368153
H -3.1394017 -1.9575579 -1.4206368
H -1.3392606 -2.0623224 -1.7171853
H -0.9711282 -2.755726 0.6757755
H -2.768297 -2.656601 0.9917313
