title
 OpenBabel02282109593D

 15 15  0  0  1  0  0  0  0  0999 V2000
   -0.4390    2.6381    1.6468 C   0  0  0  0  0  0  0  0  0  0  0  0
   -0.1366    1.1537    1.6854 C   0  0  0  0  0  0  0  0  0  0  0  0
    0.0579    0.5449    2.7172 O   0  0  0  0  0  0  0  0  0  0  0  0
   -0.0935    0.4926    0.3969 C   0  0  0  0  0  0  0  0  0  0  0  0
   -0.0505   -0.0697   -0.6734 C   0  0  0  0  0  0  0  0  0  0  0  0
   -0.0192   -0.7592   -1.9255 C   0  0  1  0  0  0  0  0  0  0  0  0
    1.0280   -1.8092   -2.1515 C   0  0  0  0  0  0  0  0  0  0  0  0
   -0.3661   -2.2029   -1.9800 N   0  0  0  0  0  0  0  0  0  0  0  0
    0.3099    3.1601    1.0415 H   0  0  0  0  0  0  0  0  0  0  0  0
   -1.4111    2.8116    1.1726 H   0  0  0  0  0  0  0  0  0  0  0  0
   -0.4425    3.0356    2.6627 H   0  0  0  0  0  0  0  0  0  0  0  0
   -0.3754   -0.1991   -2.7856 H   0  0  0  0  0  0  0  0  0  0  0  0
    1.4229   -1.9329   -3.1556 H   0  0  0  0  0  0  0  0  0  0  0  0
    1.7346   -1.9891   -1.3471 H   0  0  0  0  0  0  0  0  0  0  0  0
   -0.5170   -2.5417   -1.0324 H   0  0  0  0  0  0  0  0  0  0  0  0
  1  2  1  0  0  0  0
  1 11  1  0  0  0  0
  2  3  2  0  0  0  0
  4  2  1  0  0  0  0
  5  4  3  0  0  0  0
  6 12  1  6  0  0  0
  6  5  1  0  0  0  0
  7  8  1  0  0  0  0
  7  6  1  0  0  0  0
  7 14  1  0  0  0  0
  8  6  1  0  0  0  0
  8 15  1  0  0  0  0
  9  1  1  0  0  0  0
 10  1  1  0  0  0  0
 13  7  1  0  0  0  0
M  END
