title
 OpenBabel02282109593D

 14 14  0  0  1  0  0  0  0  0999 V2000
   -1.3998    1.7382    1.9044 C   0  0  0  0  0  0  0  0  0  0  0  0
    0.0113    1.2278    1.7007 C   0  0  0  0  0  0  0  0  0  0  0  0
    0.9238    1.4730    2.4602 O   0  0  0  0  0  0  0  0  0  0  0  0
    0.2128    0.4112    0.5168 C   0  0  0  0  0  0  0  0  0  0  0  0
    0.3767   -0.2688   -0.4680 C   0  0  0  0  0  0  0  0  0  0  0  0
    0.6159   -1.0659   -1.6366 C   0  0  1  0  0  0  0  0  0  0  0  0
   -0.1063   -2.3382   -1.8563 C   0  0  0  0  0  0  0  0  0  0  0  0
   -0.4488   -1.1767   -2.5947 O   0  0  0  0  0  0  0  0  0  0  0  0
   -1.7102    2.3387    1.0426 H   0  0  0  0  0  0  0  0  0  0  0  0
   -2.0978    0.8970    1.9749 H   0  0  0  0  0  0  0  0  0  0  0  0
   -1.4423    2.3379    2.8147 H   0  0  0  0  0  0  0  0  0  0  0  0
    1.6045   -0.9608   -2.0809 H   0  0  0  0  0  0  0  0  0  0  0  0
    0.3913   -3.1296   -2.4148 H   0  0  0  0  0  0  0  0  0  0  0  0
   -0.8380   -2.6626   -1.1193 H   0  0  0  0  0  0  0  0  0  0  0  0
  1 10  1  0  0  0  0
  1 11  1  0  0  0  0
  2  1  1  0  0  0  0
  2  3  2  0  0  0  0
  4  2  1  0  0  0  0
  5  4  3  0  0  0  0
  6 12  1  6  0  0  0
  6  5  1  0  0  0  0
  7  6  1  0  0  0  0
  7 14  1  0  0  0  0
  8  7  1  0  0  0  0
  8  6  1  0  0  0  0
  9  1  1  0  0  0  0
 13  7  1  0  0  0  0
M  END
