title
 OpenBabel02282109593D

 19 19  0  0  1  0  0  0  0  0999 V2000
    1.7702    1.9749    1.2116 O   0  0  0  0  0  0  0  0  0  0  0  0
    1.4955    1.6679   -0.1453 C   0  0  0  0  0  0  0  0  0  0  0  0
    0.1850    0.8902   -0.3396 C   0  0  1  0  0  0  0  0  0  0  0  0
   -0.0916    0.7374   -1.7276 O   0  0  0  0  0  0  0  0  0  0  0  0
    0.1936   -0.4397    0.4139 C   0  0  0  0  0  0  0  0  0  0  0  0
   -1.1418   -1.0040    0.5192 N   0  0  0  0  0  0  0  0  0  0  0  0
   -1.5881   -1.8650   -0.5678 C   0  0  0  0  0  0  0  0  0  0  0  0
   -1.2330   -2.4398    0.7587 C   0  0  0  0  0  0  0  0  0  0  0  0
    1.0989    2.5947    1.5153 H   0  0  0  0  0  0  0  0  0  0  0  0
    1.4620    2.5670   -0.7770 H   0  0  0  0  0  0  0  0  0  0  0  0
    2.3417    1.0580   -0.4890 H   0  0  0  0  0  0  0  0  0  0  0  0
   -0.6472    1.4923    0.0468 H   0  0  0  0  0  0  0  0  0  0  0  0
    0.6056    0.1899   -2.1063 H   0  0  0  0  0  0  0  0  0  0  0  0
    0.9075   -1.1265   -0.0871 H   0  0  0  0  0  0  0  0  0  0  0  0
    0.5764   -0.2592    1.4240 H   0  0  0  0  0  0  0  0  0  0  0  0
   -2.6262   -1.7520   -0.8659 H   0  0  0  0  0  0  0  0  0  0  0  0
   -0.9003   -2.0474   -1.3910 H   0  0  0  0  0  0  0  0  0  0  0  0
   -0.3051   -3.0069    0.8225 H   0  0  0  0  0  0  0  0  0  0  0  0
   -2.0057   -2.7554    1.4541 H   0  0  0  0  0  0  0  0  0  0  0  0
  1  9  1  0  0  0  0
  2  1  1  0  0  0  0
  3  2  1  0  0  0  0
  3 12  1  1  0  0  0
  3  5  1  0  0  0  0
  4  3  1  0  0  0  0
  5  6  1  0  0  0  0
  5 15  1  0  0  0  0
  6  8  1  0  0  0  0
  7  6  1  0  0  0  0
  7  8  1  0  0  0  0
  8 18  1  0  0  0  0
  8 19  1  0  0  0  0
 10  2  1  0  0  0  0
 11  2  1  0  0  0  0
 13  4  1  0  0  0  0
 14  5  1  0  0  0  0
 16  7  1  0  0  0  0
 17  7  1  0  0  0  0
M  END
