title
 OpenBabel02282109593D

 16 16  0  0  0  0  0  0  0  0999 V2000
    1.5753    2.6446    0.5263 C   0  0  0  0  0  0  0  0  0  0  0  0
    1.6436    1.1925    0.0929 C   0  0  0  0  0  0  0  0  0  0  0  0
    2.6830    0.6509   -0.2254 O   0  0  0  0  0  0  0  0  0  0  0  0
    0.3809    0.4877    0.0827 C   0  0  0  0  0  0  0  0  0  0  0  0
   -0.6729   -0.1068    0.0724 C   0  0  0  0  0  0  0  0  0  0  0  0
   -1.9063   -0.8238    0.0542 C   0  0  0  0  0  0  0  0  0  0  0  0
   -2.1396   -1.8962   -1.0066 C   0  0  0  0  0  0  0  0  0  0  0  0
   -1.9213   -2.3074    0.4126 C   0  0  0  0  0  0  0  0  0  0  0  0
    2.5752    3.0804    0.4993 H   0  0  0  0  0  0  0  0  0  0  0  0
    0.9043    3.2039   -0.1346 H   0  0  0  0  0  0  0  0  0  0  0  0
    1.1615    2.7170    1.5379 H   0  0  0  0  0  0  0  0  0  0  0  0
   -2.7810   -0.2547    0.3537 H   0  0  0  0  0  0  0  0  0  0  0  0
   -3.1394   -1.9576   -1.4206 H   0  0  0  0  0  0  0  0  0  0  0  0
   -1.3393   -2.0623   -1.7172 H   0  0  0  0  0  0  0  0  0  0  0  0
   -0.9711   -2.7557    0.6758 H   0  0  0  0  0  0  0  0  0  0  0  0
   -2.7683   -2.6566    0.9917 H   0  0  0  0  0  0  0  0  0  0  0  0
  1 11  1  0  0  0  0
  2  1  1  0  0  0  0
  3  2  2  0  0  0  0
  4  2  1  0  0  0  0
  5  4  3  0  0  0  0
  6  5  1  0  0  0  0
  6 12  1  0  0  0  0
  6  8  1  0  0  0  0
  7  6  1  0  0  0  0
  7  8  1  0  0  0  0
  8 15  1  0  0  0  0
  8 16  1  0  0  0  0
  9  1  1  0  0  0  0
 10  1  1  0  0  0  0
 13  7  1  0  0  0  0
 14  7  1  0  0  0  0
M  END
