title
 OpenBabel02282109593D

 20 20  0  0  1  0  0  0  0  0999 V2000
    1.7100    2.7277   -0.0935 O   0  0  0  0  0  0  0  0  0  0  0  0
    1.7314    1.3557    0.2402 C   0  0  0  0  0  0  0  0  0  0  0  0
    0.3252    0.7631    0.2476 C   0  0  1  0  0  0  0  0  0  0  0  0
   -0.1882    1.0244   -1.0609 O   0  0  0  0  0  0  0  0  0  0  0  0
    0.3052   -0.7314    0.5824 C   0  0  0  0  0  0  0  0  0  0  0  0
   -1.0944   -1.3116    0.6213 C   0  0  0  0  0  0  0  0  0  0  0  0
   -1.7731   -1.7791   -0.6510 C   0  0  0  0  0  0  0  0  0  0  0  0
   -1.3250   -2.7800    0.3845 C   0  0  0  0  0  0  0  0  0  0  0  0
    1.1365    2.7927   -0.8671 H   0  0  0  0  0  0  0  0  0  0  0  0
    2.3542    0.7783   -0.4639 H   0  0  0  0  0  0  0  0  0  0  0  0
    2.1793    1.2689    1.2356 H   0  0  0  0  0  0  0  0  0  0  0  0
   -0.2708    1.3135    0.9946 H   0  0  0  0  0  0  0  0  0  0  0  0
   -1.1014    0.7235   -1.0877 H   0  0  0  0  0  0  0  0  0  0  0  0
    0.9063   -1.2681   -0.1628 H   0  0  0  0  0  0  0  0  0  0  0  0
    0.7925   -0.8808    1.5554 H   0  0  0  0  0  0  0  0  0  0  0  0
   -1.7468   -0.8484    1.3587 H   0  0  0  0  0  0  0  0  0  0  0  0
   -2.8378   -1.6069   -0.7692 H   0  0  0  0  0  0  0  0  0  0  0  0
   -1.2069   -1.7234   -1.5749 H   0  0  0  0  0  0  0  0  0  0  0  0
   -0.4623   -3.3955    0.1515 H   0  0  0  0  0  0  0  0  0  0  0  0
   -2.0836   -3.2844    0.9723 H   0  0  0  0  0  0  0  0  0  0  0  0
  1  2  1  0  0  0  0
  2  3  1  0  0  0  0
  2 11  1  0  0  0  0
  3  5  1  0  0  0  0
  3 12  1  1  0  0  0
  4  3  1  0  0  0  0
  5  6  1  0  0  0  0
  5 15  1  0  0  0  0
  6 16  1  0  0  0  0
  7  8  1  0  0  0  0
  7  6  1  0  0  0  0
  8  6  1  0  0  0  0
  8 20  1  0  0  0  0
  9  1  1  0  0  0  0
 10  2  1  0  0  0  0
 13  4  1  0  0  0  0
 14  5  1  0  0  0  0
 17  7  1  0  0  0  0
 18  7  1  0  0  0  0
 19  8  1  0  0  0  0
M  END
