title
 OpenBabel02282109593D

 21 21  0  0  1  0  0  0  0  0999 V2000
    0.1900    2.1692    2.0526 C   0  0  0  0  0  0  0  0  0  0  0  0
    1.0141    1.1855    1.4726 O   0  0  0  0  0  0  0  0  0  0  0  0
    0.6189    0.7629    0.1715 C   0  0  1  0  0  0  0  0  0  0  0  0
    1.8771    0.2765   -0.5367 C   0  0  0  0  0  0  0  0  0  0  0  0
   -0.4713   -0.3162    0.2809 C   0  0  0  0  0  0  0  0  0  0  0  0
   -1.0271   -0.6553   -1.0247 N   0  0  0  0  0  0  0  0  0  0  0  0
   -0.5212   -1.8627   -1.6720 C   0  0  0  0  0  0  0  0  0  0  0  0
   -1.8824   -1.8355   -1.0727 C   0  0  0  0  0  0  0  0  0  0  0  0
    0.1350    3.0737    1.4267 H   0  0  0  0  0  0  0  0  0  0  0  0
   -0.8369    1.8178    2.2338 H   0  0  0  0  0  0  0  0  0  0  0  0
    0.6353    2.4349    3.0150 H   0  0  0  0  0  0  0  0  0  0  0  0
    0.1963    1.6147   -0.3841 H   0  0  0  0  0  0  0  0  0  0  0  0
    2.3185   -0.5655    0.0070 H   0  0  0  0  0  0  0  0  0  0  0  0
    1.6497   -0.0433   -1.5565 H   0  0  0  0  0  0  0  0  0  0  0  0
    2.6179    1.0793   -0.5781 H   0  0  0  0  0  0  0  0  0  0  0  0
   -0.0553   -1.1933    0.8092 H   0  0  0  0  0  0  0  0  0  0  0  0
   -1.2914    0.0713    0.8959 H   0  0  0  0  0  0  0  0  0  0  0  0
   -0.3892   -1.8052   -2.7489 H   0  0  0  0  0  0  0  0  0  0  0  0
    0.2391   -2.4409   -1.1495 H   0  0  0  0  0  0  0  0  0  0  0  0
   -2.0288   -2.3968   -0.1509 H   0  0  0  0  0  0  0  0  0  0  0  0
   -2.7644   -1.7562   -1.7021 H   0  0  0  0  0  0  0  0  0  0  0  0
  1 10  1  0  0  0  0
  1 11  1  0  0  0  0
  2  1  1  0  0  0  0
  3 12  1  6  0  0  0
  3  5  1  0  0  0  0
  3  2  1  0  0  0  0
  4 13  1  0  0  0  0
  4  3  1  0  0  0  0
  5 16  1  0  0  0  0
  5 17  1  0  0  0  0
  6  5  1  0  0  0  0
  7 19  1  0  0  0  0
  7  8  1  0  0  0  0
  7  6  1  0  0  0  0
  8  6  1  0  0  0  0
  8 20  1  0  0  0  0
  9  1  1  0  0  0  0
 14  4  1  0  0  0  0
 15  4  1  0  0  0  0
 18  7  1  0  0  0  0
 21  8  1  0  0  0  0
M  END
