15
title
C -0.43904024 2.6381087 1.6467516
C -0.13657616 1.1536988 1.6854237
O 0.057945352 0.54492575 2.717204
C -0.09352449 0.4926162 0.3969031
C -0.050485257 -0.069733605 -0.67336506
C -0.019176891 -0.759184 -1.9255326
C 1.0280479 -1.8091635 -2.151476
N -0.3661261 -2.202882 -1.9800398
H 0.3098932 3.1600852 1.0414937
H -1.4110968 2.8115864 1.1726211
H -0.4424601 3.0356073 2.662691
H -0.37537795 -0.19907819 -2.7855527
H 1.4228721 -1.9328879 -3.1556342
H 1.734559 -1.9891359 -1.3470747
H -0.51702005 -2.541652 -1.0323555
