15
title
N 1.576654 2.4932861 0.50471234
C 1.6271557 1.188292 0.09748066
O 2.6555111 0.64101946 -0.25440937
C 0.3386269 0.51873636 0.10431914
C -0.7001363 -0.09737166 0.08886363
C -1.9225849 -0.83699757 0.06567911
C -2.1522496 -1.8823842 -1.0200938
C -1.910216 -2.3273833 0.3869371
H 2.4483163 2.986386 0.6097954
H 0.7392741 2.8838549 0.90001506
H -2.802136 -0.28923222 0.39003465
H -3.1555796 -1.9519955 -1.4243495
H -1.3576251 -2.0184329 -1.7433684
H -0.9500526 -2.7679126 0.62591594
H -2.7445655 -2.7077665 0.96497726
