18
title
C -0.48066023 1.4628476 1.624872
C 0.6198662 1.3619472 0.5871733
O 1.7804985 1.5880187 0.8363269
C 0.18009534 1.037589 -0.8488786
O -0.8015793 0.019761276 -0.9428998
C -0.26411763 -1.270543 -1.0071124
C 0.08339623 -2.0282478 0.2498247
C -1.147606 -2.3869781 -0.5619805
H -1.0256593 2.4022536 1.4655792
H -1.2083925 0.65685946 1.513151
H -0.050300494 1.4725807 2.6268895
H -0.27537814 1.9454083 -1.267469
H 1.0770905 0.8026212 -1.4343845
H 0.37022004 -1.4315115 -1.8790652
H 0.93974406 -2.6930988 0.22684354
H -0.079399556 -1.5381097 1.2022746
H -2.1086063 -2.1030307 -0.14850402
H -1.1535213 -3.3058298 -1.136866
