17
title
C 0.9440105 2.8904476 0.063157424
C 1.235645 1.4285731 -0.11803781
N 2.4191203 0.98539466 -0.22215453
O 0.06627739 0.72549576 -0.14538336
C 0.13610113 -0.6855273 -0.31195328
C -1.2708309 -1.2131991 -0.33488935
C -1.5652564 -2.5928075 0.06821498
O -1.8736293 -1.495322 0.92635953
H 1.878199 3.449495 0.08281581
H 0.31092274 3.25384 -0.75222874
H 0.3948025 3.0516403 0.9958483
H 2.4587126 -0.026254902 -0.33535075
H 0.6450255 -0.9288504 -1.2561772
H 0.69111294 -1.1459892 0.51555973
H -1.9304235 -0.7238486 -1.0516199
H -2.4192557 -3.107917 -0.3681512
H -0.7583653 -3.2406857 0.4093299
