19
title
C 0.1280812 2.8846657 0.9222303
C -0.059382927 1.4127345 1.1931658
N -0.14427209 0.81733197 2.3128328
O -0.13252261 0.7351133 0.03130834
C -0.3281322 -0.68666255 0.12432074
C -0.38603628 -1.2391747 -1.2698222
C 0.8884365 -1.5561768 -2.0091732
C 0.013721805 -2.6749697 -1.5036548
H 0.19898593 3.4489214 1.8534452
H 1.0364498 3.046609 0.33404046
H -0.71015054 3.2688332 0.332941
H -0.06747722 1.4846652 3.0768695
H 0.49573 -1.1276766 0.69705814
H -1.2492607 -0.8813435 0.6843889
H -1.2112852 -0.8623439 -1.8671054
H 0.92200905 -1.3688208 -3.0764265
H 1.8267194 -1.3735625 -1.4959334
H 0.3646461 -3.2493415 -0.6525149
H -0.5567963 -3.252994 -2.2216623
