title
 OpenBabel02282109593D

 19 19  0  0  0  0  0  0  0  0999 V2000
    0.1281    2.8847    0.9222 C   0  0  0  0  0  0  0  0  0  0  0  0
   -0.0594    1.4127    1.1932 C   0  0  0  0  0  0  0  0  0  0  0  0
   -0.1443    0.8173    2.3128 N   0  0  0  0  0  0  0  0  0  0  0  0
   -0.1325    0.7351    0.0313 O   0  0  0  0  0  0  0  0  0  0  0  0
   -0.3281   -0.6867    0.1243 C   0  0  0  0  0  0  0  0  0  0  0  0
   -0.3860   -1.2392   -1.2698 C   0  0  0  0  0  0  0  0  0  0  0  0
    0.8884   -1.5562   -2.0092 C   0  0  0  0  0  0  0  0  0  0  0  0
    0.0137   -2.6750   -1.5037 C   0  0  0  0  0  0  0  0  0  0  0  0
    0.1990    3.4489    1.8534 H   0  0  0  0  0  0  0  0  0  0  0  0
    1.0364    3.0466    0.3340 H   0  0  0  0  0  0  0  0  0  0  0  0
   -0.7102    3.2688    0.3329 H   0  0  0  0  0  0  0  0  0  0  0  0
   -0.0675    1.4847    3.0769 H   0  0  0  0  0  0  0  0  0  0  0  0
    0.4957   -1.1277    0.6971 H   0  0  0  0  0  0  0  0  0  0  0  0
   -1.2493   -0.8813    0.6844 H   0  0  0  0  0  0  0  0  0  0  0  0
   -1.2113   -0.8623   -1.8671 H   0  0  0  0  0  0  0  0  0  0  0  0
    0.9220   -1.3688   -3.0764 H   0  0  0  0  0  0  0  0  0  0  0  0
    1.8267   -1.3736   -1.4959 H   0  0  0  0  0  0  0  0  0  0  0  0
    0.3646   -3.2493   -0.6525 H   0  0  0  0  0  0  0  0  0  0  0  0
   -0.5568   -3.2530   -2.2217 H   0  0  0  0  0  0  0  0  0  0  0  0
  1  2  1  0  0  0  0
  1  9  1  0  0  0  0
  2  3  2  0  0  0  0
  3 12  1  0  0  0  0
  4  5  1  0  0  0  0
  4  2  1  0  0  0  0
  5 14  1  0  0  0  0
  5 13  1  0  0  0  0
  6  5  1  0  0  0  0
  7  8  1  0  0  0  0
  7 17  1  0  0  0  0
  7  6  1  0  0  0  0
  8  6  1  0  0  0  0
  8 18  1  0  0  0  0
 10  1  1  0  0  0  0
 11  1  1  0  0  0  0
 15  6  1  0  0  0  0
 16  7  1  0  0  0  0
 19  8  1  0  0  0  0
M  END
