19
title
C 0.098751485 3.135959 0.8591134
C -0.14854643 1.6471176 1.0314904
O -0.4208812 1.1657062 2.108388
C -0.038485117 0.79610336 -0.2247119
C -0.3028398 -0.68657476 0.020937378
N -0.25179544 -1.4231948 -1.2375771
C 1.0540459 -1.9536022 -1.6210948
C -0.021325512 -2.858398 -1.1296211
H 1.097343 3.3131444 0.4442551
H -0.61886793 3.5608258 0.14815336
H 0.0047418014 3.6411846 1.821035
H -0.73808384 1.1821746 -0.97774446
H 0.95955884 0.9455503 -0.65983295
H 0.41429624 -1.0730921 0.76518375
H -1.2998983 -0.8133922 0.45434338
H 1.296626 -1.9043936 -2.678754
H 1.8944302 -1.7757744 -0.95086896
H 0.10398328 -3.2810373 -0.13381815
H -0.580088 -3.4812884 -1.8222448
