20
title
C 0.05816835 3.13585 0.9603595
C -0.1424724 1.6357179 1.1005917
O -0.33844 1.117406 2.1762862
C -0.08139653 0.8251847 -0.18778917
C -0.37686652 -0.6642632 0.0007356647
C -0.255851 -1.4524634 -1.2856389
C 1.0889684 -1.9635961 -1.7435626
C 0.03773947 -2.9295118 -1.2516705
H 0.99424505 3.3548064 0.4349924
H -0.75035053 3.5687242 0.35991976
H 0.06800924 3.602901 1.9458634
H -0.7742798 1.277655 -0.91165733
H 0.91591513 0.96884966 -0.628297
H 0.30880597 -1.0709817 0.75240505
H -1.3813488 -0.7806677 0.424395
H -0.92623186 -1.1258333 -2.07804
H 1.3209149 -1.9486034 -2.8028402
H 1.9444902 -1.7811556 -1.1005522
H 0.19029997 -3.3912475 -0.2815487
H -0.45053574 -3.572117 -1.9759825
