title
 OpenBabel02282109593D

 17 17  0  0  1  0  0  0  0  0999 V2000
    0.9440    2.8904    0.0632 C   0  0  0  0  0  0  0  0  0  0  0  0
    1.2356    1.4286   -0.1180 C   0  0  0  0  0  0  0  0  0  0  0  0
    2.4191    0.9854   -0.2222 N   0  0  0  0  0  0  0  0  0  0  0  0
    0.0663    0.7255   -0.1454 O   0  0  0  0  0  0  0  0  0  0  0  0
    0.1361   -0.6855   -0.3120 C   0  0  0  0  0  0  0  0  0  0  0  0
   -1.2708   -1.2132   -0.3349 C   0  0  1  0  0  0  0  0  0  0  0  0
   -1.5653   -2.5928    0.0682 C   0  0  0  0  0  0  0  0  0  0  0  0
   -1.8736   -1.4953    0.9264 O   0  0  0  0  0  0  0  0  0  0  0  0
    1.8782    3.4495    0.0828 H   0  0  0  0  0  0  0  0  0  0  0  0
    0.3109    3.2538   -0.7522 H   0  0  0  0  0  0  0  0  0  0  0  0
    0.3948    3.0516    0.9958 H   0  0  0  0  0  0  0  0  0  0  0  0
    2.4587   -0.0263   -0.3354 H   0  0  0  0  0  0  0  0  0  0  0  0
    0.6450   -0.9289   -1.2562 H   0  0  0  0  0  0  0  0  0  0  0  0
    0.6911   -1.1460    0.5156 H   0  0  0  0  0  0  0  0  0  0  0  0
   -1.9304   -0.7238   -1.0516 H   0  0  0  0  0  0  0  0  0  0  0  0
   -2.4193   -3.1079   -0.3682 H   0  0  0  0  0  0  0  0  0  0  0  0
   -0.7584   -3.2407    0.4093 H   0  0  0  0  0  0  0  0  0  0  0  0
  1  9  1  0  0  0  0
  1 11  1  0  0  0  0
  2  1  1  0  0  0  0
  3  2  2  0  0  0  0
  4  2  1  0  0  0  0
  5  4  1  0  0  0  0
  5 14  1  0  0  0  0
  6 15  1  6  0  0  0
  6  5  1  0  0  0  0
  6  7  1  0  0  0  0
  6  8  1  0  0  0  0
  7 17  1  0  0  0  0
  7  8  1  0  0  0  0
 10  1  1  0  0  0  0
 12  3  1  0  0  0  0
 13  5  1  0  0  0  0
 16  7  1  0  0  0  0
M  END
