18
title
C -0.22736995 3.1011097 0.9507092
C 0.1030189 1.6298699 1.132521
O 0.32443097 1.1534936 2.2224376
C 0.13885257 0.7874963 -0.13630438
C 0.3640644 -0.7033495 0.12396765
C 0.41441393 -1.495921 -1.1579243
C -0.18520625 -2.8288412 -1.2859071
O -0.8317539 -1.6813139 -1.8407029
H 0.44187352 3.5624197 0.21626085
H -1.2465743 3.2101698 0.5622375
H -0.14564377 3.621066 1.9058462
H -0.79608196 0.94126797 -0.6908245
H 0.92674243 1.1973302 -0.785514
H 1.2969747 -0.8435658 0.68110067
H -0.43903643 -1.0877224 0.7602361
H 1.2425901 -1.2527338 -1.8279463
H 0.21251735 -3.5382514 -2.0104878
H -0.68315256 -3.2754273 -0.426005
