19
title
C 0.14081289 2.9081206 1.0597957
C -0.2686066 1.445162 1.1551752
O -1.1318357 1.0681665 1.927724
N 0.4023395 0.599886 0.3171191
C 0.114536084 -0.8228183 0.2305763
C -0.20270881 -1.2575021 -1.182305
C 0.91607296 -1.5746262 -2.1484778
C 0.047622226 -2.680986 -1.6027349
H 0.9362814 3.0999784 0.33475378
H -0.7374613 3.5006354 0.7899283
H 0.4697402 3.2451231 2.0462449
H 1.0815423 0.98115134 -0.3205718
H 0.96588594 -1.4060829 0.61030155
H -0.7292132 -0.9987476 0.9023565
H -1.0786756 -0.7747872 -1.6068317
H 0.79868144 -1.2908797 -3.1883106
H 1.9374449 -1.5138383 -1.7845672
H 0.48654413 -3.3545551 -0.8738221
H -0.6667815 -3.153267 -2.2671528
