title
 OpenBabel02282109593D

 18 18  0  0  1  0  0  0  0  0999 V2000
   -0.2274    3.1011    0.9507 C   0  0  0  0  0  0  0  0  0  0  0  0
    0.1030    1.6299    1.1325 C   0  0  0  0  0  0  0  0  0  0  0  0
    0.3244    1.1535    2.2224 O   0  0  0  0  0  0  0  0  0  0  0  0
    0.1389    0.7875   -0.1363 C   0  0  0  0  0  0  0  0  0  0  0  0
    0.3641   -0.7033    0.1240 C   0  0  0  0  0  0  0  0  0  0  0  0
    0.4144   -1.4959   -1.1579 C   0  0  1  0  0  0  0  0  0  0  0  0
   -0.1852   -2.8288   -1.2859 C   0  0  0  0  0  0  0  0  0  0  0  0
   -0.8318   -1.6813   -1.8407 O   0  0  0  0  0  0  0  0  0  0  0  0
    0.4419    3.5624    0.2163 H   0  0  0  0  0  0  0  0  0  0  0  0
   -1.2466    3.2102    0.5622 H   0  0  0  0  0  0  0  0  0  0  0  0
   -0.1456    3.6211    1.9058 H   0  0  0  0  0  0  0  0  0  0  0  0
   -0.7961    0.9413   -0.6908 H   0  0  0  0  0  0  0  0  0  0  0  0
    0.9267    1.1973   -0.7855 H   0  0  0  0  0  0  0  0  0  0  0  0
    1.2970   -0.8436    0.6811 H   0  0  0  0  0  0  0  0  0  0  0  0
   -0.4390   -1.0877    0.7602 H   0  0  0  0  0  0  0  0  0  0  0  0
    1.2426   -1.2527   -1.8279 H   0  0  0  0  0  0  0  0  0  0  0  0
    0.2125   -3.5383   -2.0105 H   0  0  0  0  0  0  0  0  0  0  0  0
   -0.6832   -3.2754   -0.4260 H   0  0  0  0  0  0  0  0  0  0  0  0
  1  2  1  0  0  0  0
  1 11  1  0  0  0  0
  2  3  2  0  0  0  0
  4  5  1  0  0  0  0
  4  2  1  0  0  0  0
  5 14  1  0  0  0  0
  5 15  1  0  0  0  0
  6 16  1  6  0  0  0
  6  5  1  0  0  0  0
  7  6  1  0  0  0  0
  7 18  1  0  0  0  0
  8  7  1  0  0  0  0
  8  6  1  0  0  0  0
  9  1  1  0  0  0  0
 10  1  1  0  0  0  0
 12  4  1  0  0  0  0
 13  4  1  0  0  0  0
 17  7  1  0  0  0  0
M  END
