17
title
N 1.5751199 1.0016817 0.4362725
C 0.7639525 1.3851885 -0.5859306
O 1.12487 2.0328403 -1.547827
C -0.69867337 0.9507605 -0.43157864
O -0.9303837 0.074062176 0.66290694
C -1.1927204 -1.2519263 0.29586166
C -0.058179487 -2.1711764 -0.07611757
C -0.7664648 -2.3106205 1.2582265
H 2.516104 1.357684 0.46423116
H 1.1678724 0.57987964 1.2537911
H -1.2885175 1.8609462 -0.27090243
H -1.0181057 0.5129536 -1.382601
H -2.1428056 -1.3786553 -0.22221634
H -0.23119532 -2.920786 -0.84022593
H 0.94037235 -1.750533 -0.06779941
H -0.23349462 -1.9780229 2.1418397
H -1.4243042 -3.1567016 1.4202777
