title
 OpenBabel02282109593D

 18 18  0  0  0  0  0  0  0  0999 V2000
    0.8065    2.9867    0.1593 N   0  0  0  0  0  0  0  0  0  0  0  0
    0.9989    1.6435    0.0087 C   0  0  0  0  0  0  0  0  0  0  0  0
    2.1065    1.1584   -0.1262 O   0  0  0  0  0  0  0  0  0  0  0  0
   -0.2801    0.8114    0.0008 C   0  0  0  0  0  0  0  0  0  0  0  0
   -0.0217   -0.6385    0.4077 C   0  0  0  0  0  0  0  0  0  0  0  0
   -1.2554   -1.4140    0.3249 N   0  0  0  0  0  0  0  0  0  0  0  0
   -1.5223   -2.0546   -0.9610 C   0  0  0  0  0  0  0  0  0  0  0  0
   -1.0921   -2.8585    0.2157 C   0  0  0  0  0  0  0  0  0  0  0  0
    1.6106    3.5917    0.1306 H   0  0  0  0  0  0  0  0  0  0  0  0
   -0.1048    3.3923    0.2763 H   0  0  0  0  0  0  0  0  0  0  0  0
   -1.0418    1.2557    0.6507 H   0  0  0  0  0  0  0  0  0  0  0  0
   -0.6895    0.8376   -1.0181 H   0  0  0  0  0  0  0  0  0  0  0  0
    0.7857   -1.0484   -0.2193 H   0  0  0  0  0  0  0  0  0  0  0  0
    0.3324   -0.6744    1.4440 H   0  0  0  0  0  0  0  0  0  0  0  0
   -2.5591   -2.0583   -1.2850 H   0  0  0  0  0  0  0  0  0  0  0  0
   -0.7940   -1.9190   -1.7597 H   0  0  0  0  0  0  0  0  0  0  0  0
   -0.0790   -3.2575    0.1986 H   0  0  0  0  0  0  0  0  0  0  0  0
   -1.8093   -3.4592    0.7679 H   0  0  0  0  0  0  0  0  0  0  0  0
  1 10  1  0  0  0  0
  2  1  1  0  0  0  0
  3  2  2  0  0  0  0
  4  2  1  0  0  0  0
  4  5  1  0  0  0  0
  4 11  1  0  0  0  0
  5 14  1  0  0  0  0
  6  5  1  0  0  0  0
  7  8  1  0  0  0  0
  7  6  1  0  0  0  0
  8  6  1  0  0  0  0
  8 18  1  0  0  0  0
  9  1  1  0  0  0  0
 12  4  1  0  0  0  0
 13  5  1  0  0  0  0
 15  7  1  0  0  0  0
 16  7  1  0  0  0  0
 17  8  1  0  0  0  0
M  END
