18
title
C 0.124151856 2.8770385 0.9523693
C -0.09048726 1.3988823 1.1781387
O -0.21111628 0.86325425 2.251471
O -0.13077827 0.73821145 0.0032337753
C -0.34538 -0.6870552 0.093676314
C -0.34865063 -1.2481871 -1.2971282
C 0.9538297 -1.5782413 -1.9799716
C 0.051776726 -2.6881495 -1.5048473
H 0.1751086 3.387182 1.9134347
H 1.0478911 3.0418487 0.39073792
H -0.6956005 3.2873511 0.3556572
H 0.4500911 -1.1303024 0.7025237
H -1.2927418 -0.866659 0.61272573
H -1.1459669 -0.87025267 -1.9303393
H 1.0326983 -1.3968706 -3.0457504
H 1.8712634 -1.3984661 -1.4293995
H 0.362992 -3.259725 -0.6365936
H -0.49294978 -3.2664485 -2.2422538
