title
 OpenBabel02282109593D

 16 16  0  0  1  0  0  0  0  0999 V2000
    0.9503    2.8988    0.0913 C   0  0  0  0  0  0  0  0  0  0  0  0
    1.1910    1.4267   -0.1362 C   0  0  0  0  0  0  0  0  0  0  0  0
    2.2621    0.9042   -0.3125 O   0  0  0  0  0  0  0  0  0  0  0  0
    0.0246    0.7437   -0.1135 O   0  0  0  0  0  0  0  0  0  0  0  0
    0.1352   -0.6771   -0.3026 C   0  0  0  0  0  0  0  0  0  0  0  0
   -1.2548   -1.2407   -0.3255 C   0  0  1  0  0  0  0  0  0  0  0  0
   -1.5126   -2.6228    0.0954 C   0  0  0  0  0  0  0  0  0  0  0  0
   -1.8586   -1.5234    0.9365 O   0  0  0  0  0  0  0  0  0  0  0  0
    1.8960    3.4354    0.0263 H   0  0  0  0  0  0  0  0  0  0  0  0
    0.2461    3.2858   -0.6503 H   0  0  0  0  0  0  0  0  0  0  0  0
    0.5015    3.0539    1.0767 H   0  0  0  0  0  0  0  0  0  0  0  0
    0.6585   -0.8781   -1.2438 H   0  0  0  0  0  0  0  0  0  0  0  0
    0.7186   -1.1148    0.5130 H   0  0  0  0  0  0  0  0  0  0  0  0
   -1.9269   -0.7839   -1.0525 H   0  0  0  0  0  0  0  0  0  0  0  0
   -2.3486   -3.1683   -0.3391 H   0  0  0  0  0  0  0  0  0  0  0  0
   -0.6891   -3.2417    0.4499 H   0  0  0  0  0  0  0  0  0  0  0  0
  1 11  1  0  0  0  0
  2  4  1  0  0  0  0
  2  1  1  0  0  0  0
  3  2  2  0  0  0  0
  5  4  1  0  0  0  0
  5 13  1  0  0  0  0
  6 14  1  6  0  0  0
  6  5  1  0  0  0  0
  6  7  1  0  0  0  0
  6  8  1  0  0  0  0
  7 16  1  0  0  0  0
  7  8  1  0  0  0  0
  9  1  1  0  0  0  0
 10  1  1  0  0  0  0
 12  5  1  0  0  0  0
 15  7  1  0  0  0  0
M  END
