title
 OpenBabel02282109593D

 17 17  0  0  0  0  0  0  0  0999 V2000
    1.5751    1.0017    0.4363 N   0  0  0  0  0  0  0  0  0  0  0  0
    0.7640    1.3852   -0.5859 C   0  0  0  0  0  0  0  0  0  0  0  0
    1.1249    2.0328   -1.5478 O   0  0  0  0  0  0  0  0  0  0  0  0
   -0.6987    0.9508   -0.4316 C   0  0  0  0  0  0  0  0  0  0  0  0
   -0.9304    0.0741    0.6629 O   0  0  0  0  0  0  0  0  0  0  0  0
   -1.1927   -1.2519    0.2959 C   0  0  0  0  0  0  0  0  0  0  0  0
   -0.0582   -2.1712   -0.0761 C   0  0  0  0  0  0  0  0  0  0  0  0
   -0.7665   -2.3106    1.2582 C   0  0  0  0  0  0  0  0  0  0  0  0
    2.5161    1.3577    0.4642 H   0  0  0  0  0  0  0  0  0  0  0  0
    1.1679    0.5799    1.2538 H   0  0  0  0  0  0  0  0  0  0  0  0
   -1.2885    1.8609   -0.2709 H   0  0  0  0  0  0  0  0  0  0  0  0
   -1.0181    0.5130   -1.3826 H   0  0  0  0  0  0  0  0  0  0  0  0
   -2.1428   -1.3787   -0.2222 H   0  0  0  0  0  0  0  0  0  0  0  0
   -0.2312   -2.9208   -0.8402 H   0  0  0  0  0  0  0  0  0  0  0  0
    0.9404   -1.7505   -0.0678 H   0  0  0  0  0  0  0  0  0  0  0  0
   -0.2335   -1.9780    2.1418 H   0  0  0  0  0  0  0  0  0  0  0  0
   -1.4243   -3.1567    1.4203 H   0  0  0  0  0  0  0  0  0  0  0  0
  1  9  1  0  0  0  0
  1 10  1  0  0  0  0
  2  4  1  0  0  0  0
  2  1  1  0  0  0  0
  3  2  2  0  0  0  0
  4 11  1  0  0  0  0
  4  5  1  0  0  0  0
  6  5  1  0  0  0  0
  6  8  1  0  0  0  0
  7 15  1  0  0  0  0
  7  6  1  0  0  0  0
  7  8  1  0  0  0  0
  8 17  1  0  0  0  0
  8 16  1  0  0  0  0
 12  4  1  0  0  0  0
 13  6  1  0  0  0  0
 14  7  1  0  0  0  0
M  END
