16
title
C 0.9502767 2.8987606 0.09125042
C 1.1909906 1.4266646 -0.13617265
O 2.2620585 0.9042008 -0.312539
O 0.02461106 0.74369013 -0.11345065
C 0.13519824 -0.6771048 -0.30256483
C -1.2547936 -1.2407038 -0.32552865
C -1.5126326 -2.6228411 0.09536722
O -1.8586121 -1.5233734 0.9365055
H 1.8959676 3.435363 0.026285255
H 0.24612606 3.2858179 -0.65032995
H 0.5015297 3.0538518 1.0767083
H 0.65845615 -0.87810713 -1.2438248
H 0.7185763 -1.1148136 0.51298916
H -1.9269176 -0.7839189 -1.052544
H -2.3486218 -3.1683228 -0.33905426
H -0.6891213 -3.241668 0.4499224
