18
title
N 0.8064927 2.9867048 0.15925375
C 0.9988679 1.6435012 0.008656582
O 2.106467 1.1583902 -0.12619956
C -0.28009844 0.81136364 0.000795653
C -0.021727985 -0.63852483 0.4076637
N -1.2554338 -1.4140086 0.32486978
C -1.5223098 -2.0545936 -0.9609918
C -1.0920928 -2.8585331 0.21571933
H 1.610572 3.5916734 0.130553
H -0.104766615 3.3922524 0.2762824
H -1.0417848 1.2556559 0.6506912
H -0.6895257 0.8375916 -1.0181036
H 0.78565425 -1.0483701 -0.21934147
H 0.33244908 -0.67436224 1.4440228
H -2.55912 -2.0583124 -1.2850051
H -0.79398775 -1.9190204 -1.7596581
H -0.078996785 -3.257521 0.19864024
H -1.8093259 -3.4591973 0.7678683
