18
title
N 1.0955116 2.7696986 -0.290348
C 1.1630079 1.4717102 0.21447927
O 2.0764103 1.0920775 0.923724
N 0.11791267 0.6686885 -0.18096243
C 0.12520672 -0.75910187 0.099257566
C -1.279113 -1.2953277 0.24212432
C -2.0667112 -1.6926379 -0.9861033
C -1.5578811 -2.7479513 -0.035566427
H 1.7294217 3.3911424 0.18974312
H 0.17587776 3.162913 -0.42836535
H -0.43543562 0.9683178 -0.9686378
H 0.65299016 -1.318908 -0.68903434
H 0.7011824 -0.8915272 1.0180907
H -1.8479469 -0.83797073 1.0469184
H -3.1311426 -1.4873791 -1.0083654
H -1.5781183 -1.6118424 -1.9524764
H -0.7311493 -3.3686454 -0.36529413
H -2.2730415 -3.2627227 0.59572583
