title
 OpenBabel02282109593D

 17 17  0  0  1  0  0  0  0  0999 V2000
    0.9751    2.7530    0.0900 C   0  0  0  0  0  0  0  0  0  0  0  0
    0.8686    1.2492    0.0401 C   0  0  0  0  0  0  0  0  0  0  0  0
    1.4521    0.4856    0.7718 O   0  0  0  0  0  0  0  0  0  0  0  0
    0.0297    0.8646   -0.9437 O   0  0  0  0  0  0  0  0  0  0  0  0
   -0.1498   -0.5598   -1.1245 C   0  0  0  0  0  0  0  0  0  0  0  0
   -1.2498   -1.1052   -0.2553 C   0  0  1  0  0  0  0  0  0  0  0  0
   -1.1406   -2.5012    0.2446 C   0  0  0  0  0  0  0  0  0  0  0  0
   -1.0099   -1.3706    1.1699 N   0  0  0  0  0  0  0  0  0  0  0  0
    1.6876    3.0417    0.8615 H   0  0  0  0  0  0  0  0  0  0  0  0
    1.2911    3.1417   -0.8817 H   0  0  0  0  0  0  0  0  0  0  0  0
   -0.0059    3.1842    0.3097 H   0  0  0  0  0  0  0  0  0  0  0  0
   -0.3989   -0.6694   -2.1835 H   0  0  0  0  0  0  0  0  0  0  0  0
    0.7971   -1.0651   -0.9171 H   0  0  0  0  0  0  0  0  0  0  0  0
   -2.2379   -0.7017   -0.4682 H   0  0  0  0  0  0  0  0  0  0  0  0
   -2.0376   -3.1015    0.3674 H   0  0  0  0  0  0  0  0  0  0  0  0
   -0.2518   -3.0688   -0.0219 H   0  0  0  0  0  0  0  0  0  0  0  0
   -0.0304   -1.1909    1.3804 H   0  0  0  0  0  0  0  0  0  0  0  0
  1 11  1  0  0  0  0
  1  9  1  0  0  0  0
  2  1  1  0  0  0  0
  2  3  2  0  0  0  0
  4  2  1  0  0  0  0
  5  4  1  0  0  0  0
  5 13  1  0  0  0  0
  5  6  1  0  0  0  0
  6 14  1  6  0  0  0
  6  7  1  0  0  0  0
  6  8  1  0  0  0  0
  7 15  1  0  0  0  0
  7  8  1  0  0  0  0
  8 17  1  0  0  0  0
 10  1  1  0  0  0  0
 12  5  1  0  0  0  0
 16  7  1  0  0  0  0
M  END
