18
title
C -0.041585475 2.9125752 1.0837709
C 0.31438845 1.4368156 1.1779934
O 1.1386548 1.0199668 1.9713644
N -0.35845968 0.6200301 0.3105888
C -0.10658119 -0.80863994 0.22758324
C 0.17893623 -1.2519469 -1.1871148
C -0.15093398 -2.6285195 -1.6211251
N -0.9298847 -1.4859989 -2.1352446
H 0.8629591 3.4756105 0.8387768
H -0.8119134 3.1361256 0.34112552
H -0.3819852 3.254325 2.0645938
H -1.0040203 1.0285162 -0.34509125
H 0.74695385 -1.0008414 0.88355315
H -0.96172446 -1.377707 0.62324923
H 1.0324323 -0.7577087 -1.6467439
H 0.46997234 -3.130176 -2.3571396
H -0.6181273 -3.291893 -0.89725775
H -1.8189954 -1.443896 -1.6396762
