20
title
C -0.8578883 2.4176266 -1.6929729
C -0.96454984 0.8815332 -1.6118346
C -0.3870128 0.21442577 -2.876124
C -0.31776842 0.3748993 -0.40043718
C 0.23358239 -0.035266608 0.5910812
C 0.88687813 -0.5203277 1.773322
C 0.1690283 -1.4773208 2.7122734
C 1.3100457 -1.9773878 1.8762292
H 0.18986799 2.7272155 -1.75881
H -1.382053 2.7890677 -2.579557
H -1.2948768 2.8892527 -0.8089349
H -2.032455 0.6254242 -1.5580126
H 0.6763482 0.45043287 -2.9833078
H -0.48814696 -0.8730562 -2.8278666
H -0.9104067 0.5716369 -3.7692163
H 1.5514677 0.19268897 2.253362
H 0.32545522 -1.3411564 3.7765028
H -0.8349605 -1.7761871 2.4358423
H 1.0815475 -2.615921 1.0313565
H 2.256528 -2.1878548 2.3615267
