17
title
N 0.886091 2.7551591 -0.11051612
C 1.119109 1.4282525 0.13115348
O 2.1964083 0.94570196 0.39307636
O -0.043916084 0.73732626 0.06692582
C 0.06490006 -0.66581285 0.37443545
C -1.3047988 -1.2698575 0.27748898
C -1.8488896 -1.6952261 -1.0623314
C -1.4345868 -2.735942 -0.05392896
H 1.6974558 3.3154457 -0.3070927
H 0.016208434 3.0201225 -0.5405676
H 0.7583653 -1.1372236 -0.3306637
H 0.49123338 -0.7762059 1.3768443
H -2.0223935 -0.8675343 0.98655486
H -2.9064813 -1.553651 -1.2536867
H -1.2163181 -1.5508415 -1.9319197
H -0.5253755 -3.296111 -0.24616246
H -2.2059484 -3.3057141 0.45133668
