title
 OpenBabel02282109593D

 16 16  0  0  1  0  0  0  0  0999 V2000
    1.0908    2.7649    0.2137 N   0  0  0  0  0  0  0  0  0  0  0  0
    1.2029    1.4400   -0.1926 C   0  0  0  0  0  0  0  0  0  0  0  0
    2.1397    1.0330   -0.8548 O   0  0  0  0  0  0  0  0  0  0  0  0
    0.1726    0.6363    0.2432 N   0  0  0  0  0  0  0  0  0  0  0  0
    0.2209   -0.8026    0.0659 C   0  0  0  0  0  0  0  0  0  0  0  0
   -1.1260   -1.3351   -0.3511 C   0  0  1  0  0  0  0  0  0  0  0  0
   -1.6370   -2.6174    0.1430 C   0  0  0  0  0  0  0  0  0  0  0  0
   -2.1191   -1.3856    0.6835 O   0  0  0  0  0  0  0  0  0  0  0  0
    1.7136    3.3738   -0.2951 H   0  0  0  0  0  0  0  0  0  0  0  0
    0.1623    3.1409    0.3363 H   0  0  0  0  0  0  0  0  0  0  0  0
   -0.4333    0.9790    0.9720 H   0  0  0  0  0  0  0  0  0  0  0  0
    0.9741   -0.9972   -0.7019 H   0  0  0  0  0  0  0  0  0  0  0  0
    0.5392   -1.3095    0.9875 H   0  0  0  0  0  0  0  0  0  0  0  0
   -1.5013   -0.9571   -1.3028 H   0  0  0  0  0  0  0  0  0  0  0  0
   -2.3525   -3.1794   -0.4549 H   0  0  0  0  0  0  0  0  0  0  0  0
   -1.0254   -3.2158    0.8172 H   0  0  0  0  0  0  0  0  0  0  0  0
  1 10  1  0  0  0  0
  2  1  1  0  0  0  0
  2  4  1  0  0  0  0
  3  2  2  0  0  0  0
  4 11  1  0  0  0  0
  5  4  1  0  0  0  0
  5 13  1  0  0  0  0
  6 14  1  6  0  0  0
  6  5  1  0  0  0  0
  6  7  1  0  0  0  0
  6  8  1  0  0  0  0
  7  8  1  0  0  0  0
  7 16  1  0  0  0  0
  9  1  1  0  0  0  0
 12  5  1  0  0  0  0
 15  7  1  0  0  0  0
M  END
