16
title
N 0.89728475 2.743604 0.14162897
C 1.1329243 1.4247009 -0.123205364
O 2.208829 0.943714 -0.39234856
O -0.031329125 0.729331 -0.07063514
C 0.08292356 -0.66573364 -0.39946985
C -1.2889345 -1.2678224 -0.3191935
C -1.4309313 -2.6840818 0.10118906
N -1.8824084 -1.5981313 0.98499924
H 1.7041821 3.312037 0.3314027
H 0.019440321 3.0089076 0.5543336
H 0.50881475 -0.76530844 -1.4035068
H 0.7720588 -1.1509844 0.30159044
H -2.0051126 -0.86033136 -1.029256
H -2.2237487 -3.295677 -0.3188767
H -0.52795875 -3.231673 0.36043385
H -1.1984994 -1.4428838 1.7226273
