title
 OpenBabel02282109593D

 21 21  0  0  1  0  0  0  0  0999 V2000
    1.1768    2.7230    0.5375 C   0  0  0  0  0  0  0  0  0  0  0  0
    1.4061    1.2707    0.1343 C   0  0  0  0  0  0  0  0  0  0  0  0
    2.3451    0.5457    1.1040 C   0  0  0  0  0  0  0  0  0  0  0  0
    0.1197    0.6626    0.0807 O   0  0  0  0  0  0  0  0  0  0  0  0
    0.0583   -0.5707   -0.6032 C   0  0  0  0  0  0  0  0  0  0  0  0
   -1.3874   -0.9266   -0.8221 C   0  0  1  0  0  0  0  0  0  0  0  0
   -1.7905   -2.3544   -0.8548 C   0  0  0  0  0  0  0  0  0  0  0  0
   -2.1866   -1.4953    0.2722 N   0  0  0  0  0  0  0  0  0  0  0  0
    2.1220    3.2735    0.5564 H   0  0  0  0  0  0  0  0  0  0  0  0
    0.4996    3.2117   -0.1677 H   0  0  0  0  0  0  0  0  0  0  0  0
    0.7266    2.7732    1.5340 H   0  0  0  0  0  0  0  0  0  0  0  0
    1.8506    1.2435   -0.8761 H   0  0  0  0  0  0  0  0  0  0  0  0
    2.5293   -0.4883    0.7982 H   0  0  0  0  0  0  0  0  0  0  0  0
    3.3137    1.0537    1.1483 H   0  0  0  0  0  0  0  0  0  0  0  0
    1.9140    0.5359    2.1105 H   0  0  0  0  0  0  0  0  0  0  0  0
    0.5789   -0.4957   -1.5741 H   0  0  0  0  0  0  0  0  0  0  0  0
    0.5510   -1.3763   -0.0320 H   0  0  0  0  0  0  0  0  0  0  0  0
   -1.9354   -0.2117   -1.4319 H   0  0  0  0  0  0  0  0  0  0  0  0
   -2.6053   -2.6750   -1.4973 H   0  0  0  0  0  0  0  0  0  0  0  0
   -1.0191   -3.1050   -0.6980 H   0  0  0  0  0  0  0  0  0  0  0  0
   -1.5877   -1.6728    1.0756 H   0  0  0  0  0  0  0  0  0  0  0  0
  1  9  1  0  0  0  0
  1 11  1  0  0  0  0
  2  1  1  0  0  0  0
  2  3  1  0  0  0  0
  3 14  1  0  0  0  0
  3 15  1  0  0  0  0
  4  2  1  0  0  0  0
  5 17  1  0  0  0  0
  5  4  1  0  0  0  0
  6 18  1  6  0  0  0
  6  5  1  0  0  0  0
  6  8  1  0  0  0  0
  7  6  1  0  0  0  0
  7 20  1  0  0  0  0
  7  8  1  0  0  0  0
  8 21  1  0  0  0  0
 10  1  1  0  0  0  0
 12  2  1  0  0  0  0
 13  3  1  0  0  0  0
 16  5  1  0  0  0  0
 19  7  1  0  0  0  0
M  END
