title
 OpenBabel02282109593D

 23 23  0  0  0  0  0  0  0  0999 V2000
    1.2433    2.9014   -0.2063 C   0  0  0  0  0  0  0  0  0  0  0  0
    1.3561    1.3949    0.0656 C   0  0  0  0  0  0  0  0  0  0  0  0
    2.1328    1.1407    1.3660 C   0  0  0  0  0  0  0  0  0  0  0  0
   -0.0394    0.7460    0.0747 C   0  0  0  0  0  0  0  0  0  0  0  0
   -0.0345   -0.7819    0.1486 C   0  0  0  0  0  0  0  0  0  0  0  0
   -1.3960   -1.3064    0.0926 N   0  0  0  0  0  0  0  0  0  0  0  0
   -1.9287   -1.5784   -1.2379 C   0  0  0  0  0  0  0  0  0  0  0  0
   -1.5371   -2.6934   -0.3316 C   0  0  0  0  0  0  0  0  0  0  0  0
    2.2314    3.3711   -0.2545 H   0  0  0  0  0  0  0  0  0  0  0  0
    0.7299    3.0998   -1.1531 H   0  0  0  0  0  0  0  0  0  0  0  0
    0.6774    3.4010    0.5892 H   0  0  0  0  0  0  0  0  0  0  0  0
    1.9283    0.9482   -0.7612 H   0  0  0  0  0  0  0  0  0  0  0  0
    2.3040    0.0751    1.5451 H   0  0  0  0  0  0  0  0  0  0  0  0
    3.1120    1.6302    1.3378 H   0  0  0  0  0  0  0  0  0  0  0  0
    1.5874    1.5405    2.2296 H   0  0  0  0  0  0  0  0  0  0  0  0
   -0.6255    1.1377    0.9162 H   0  0  0  0  0  0  0  0  0  0  0  0
   -0.5753    1.0438   -0.8360 H   0  0  0  0  0  0  0  0  0  0  0  0
    0.5953   -1.1916   -0.6652 H   0  0  0  0  0  0  0  0  0  0  0  0
    0.4062   -1.1212    1.0927 H   0  0  0  0  0  0  0  0  0  0  0  0
   -2.9750   -1.3312   -1.3935 H   0  0  0  0  0  0  0  0  0  0  0  0
   -1.2831   -1.3880   -2.0948 H   0  0  0  0  0  0  0  0  0  0  0  0
   -0.6323   -3.2435   -0.5872 H   0  0  0  0  0  0  0  0  0  0  0  0
   -2.2915   -3.2758    0.1899 H   0  0  0  0  0  0  0  0  0  0  0  0
  1  2  1  0  0  0  0
  1 11  1  0  0  0  0
  2  4  1  0  0  0  0
  2  3  1  0  0  0  0
  3 13  1  0  0  0  0
  3 15  1  0  0  0  0
  4  5  1  0  0  0  0
  4 16  1  0  0  0  0
  5 19  1  0  0  0  0
  6  5  1  0  0  0  0
  7  8  1  0  0  0  0
  7  6  1  0  0  0  0
  8  6  1  0  0  0  0
  8 23  1  0  0  0  0
  9  1  1  0  0  0  0
 10  1  1  0  0  0  0
 12  2  1  0  0  0  0
 14  3  1  0  0  0  0
 17  4  1  0  0  0  0
 18  5  1  0  0  0  0
 20  7  1  0  0  0  0
 21  7  1  0  0  0  0
 22  8  1  0  0  0  0
M  END
