title
 OpenBabel02282109593D

 20 20  0  0  1  0  0  0  0  0999 V2000
    1.8064    2.4862    0.1696 C   0  0  0  0  0  0  0  0  0  0  0  0
    1.3040    1.0464    0.1291 C   0  0  0  0  0  0  0  0  0  0  0  0
    1.1813    0.4374    1.5270 C   0  0  0  0  0  0  0  0  0  0  0  0
    0.0531    1.0867   -0.5634 O   0  0  0  0  0  0  0  0  0  0  0  0
   -0.4009   -0.1170   -1.1427 C   0  0  0  0  0  0  0  0  0  0  0  0
   -1.4166   -0.8541   -0.2991 C   0  0  1  0  0  0  0  0  0  0  0  0
   -1.6927   -2.2790   -0.5194 C   0  0  0  0  0  0  0  0  0  0  0  0
   -0.9412   -1.8467    0.6154 O   0  0  0  0  0  0  0  0  0  0  0  0
    2.7857    2.5389    0.6544 H   0  0  0  0  0  0  0  0  0  0  0  0
    1.8923    2.8926   -0.8416 H   0  0  0  0  0  0  0  0  0  0  0  0
    1.1090    3.1142    0.7331 H   0  0  0  0  0  0  0  0  0  0  0  0
    2.0078    0.4385   -0.4639 H   0  0  0  0  0  0  0  0  0  0  0  0
    2.1534    0.4541    2.0315 H   0  0  0  0  0  0  0  0  0  0  0  0
    0.4727    1.0160    2.1293 H   0  0  0  0  0  0  0  0  0  0  0  0
    0.8341   -0.5969    1.4843 H   0  0  0  0  0  0  0  0  0  0  0  0
   -0.8847    0.1568   -2.0909 H   0  0  0  0  0  0  0  0  0  0  0  0
    0.4342   -0.7952   -1.3739 H   0  0  0  0  0  0  0  0  0  0  0  0
   -2.2132   -0.2263    0.1015 H   0  0  0  0  0  0  0  0  0  0  0  0
   -2.6818   -2.6801   -0.3038 H   0  0  0  0  0  0  0  0  0  0  0  0
   -1.1266   -2.8272   -1.2721 H   0  0  0  0  0  0  0  0  0  0  0  0
  1  9  1  0  0  0  0
  1 11  1  0  0  0  0
  2  1  1  0  0  0  0
  2  3  1  0  0  0  0
  3 13  1  0  0  0  0
  3 14  1  0  0  0  0
  4  2  1  0  0  0  0
  5  4  1  0  0  0  0
  5  6  1  0  0  0  0
  6 18  1  1  0  0  0
  6  8  1  0  0  0  0
  7 19  1  0  0  0  0
  7  6  1  0  0  0  0
  7  8  1  0  0  0  0
 10  1  1  0  0  0  0
 12  2  1  0  0  0  0
 15  3  1  0  0  0  0
 16  5  1  0  0  0  0
 17  5  1  0  0  0  0
 20  7  1  0  0  0  0
M  END
