title
 OpenBabel02282109593D

 22 22  0  0  1  0  0  0  0  0999 V2000
    1.3682    2.8955   -0.1266 C   0  0  0  0  0  0  0  0  0  0  0  0
    1.3788    1.3797    0.0745 C   0  0  1  0  0  0  0  0  0  0  0  0
    2.0176    1.0304    1.3030 O   0  0  0  0  0  0  0  0  0  0  0  0
   -0.0236    0.7666   -0.0272 C   0  0  0  0  0  0  0  0  0  0  0  0
   -0.0342   -0.7619    0.0984 C   0  0  0  0  0  0  0  0  0  0  0  0
   -1.4268   -1.3539    0.0611 C   0  0  0  0  0  0  0  0  0  0  0  0
   -2.1006   -1.6504   -1.2565 C   0  0  0  0  0  0  0  0  0  0  0  0
   -1.6451   -2.7821   -0.3661 C   0  0  0  0  0  0  0  0  0  0  0  0
    2.3796    3.2994   -0.0289 H   0  0  0  0  0  0  0  0  0  0  0  0
    0.9792    3.1633   -1.1144 H   0  0  0  0  0  0  0  0  0  0  0  0
    0.7317    3.3819    0.6238 H   0  0  0  0  0  0  0  0  0  0  0  0
    2.0172    0.9244   -0.6940 H   0  0  0  0  0  0  0  0  0  0  0  0
    1.5168    1.4434    2.0157 H   0  0  0  0  0  0  0  0  0  0  0  0
   -0.6558    1.2067    0.7597 H   0  0  0  0  0  0  0  0  0  0  0  0
   -0.4774    1.0647   -0.9810 H   0  0  0  0  0  0  0  0  0  0  0  0
    0.5630   -1.1952   -0.7159 H   0  0  0  0  0  0  0  0  0  0  0  0
    0.4723   -1.0433    1.0287 H   0  0  0  0  0  0  0  0  0  0  0  0
   -2.0842   -0.9960    0.8510 H   0  0  0  0  0  0  0  0  0  0  0  0
   -3.1650   -1.4663   -1.3535 H   0  0  0  0  0  0  0  0  0  0  0  0
   -1.5358   -1.4655   -2.1651 H   0  0  0  0  0  0  0  0  0  0  0  0
   -0.7771   -3.3536   -0.6789 H   0  0  0  0  0  0  0  0  0  0  0  0
   -2.3985   -3.3688    0.1479 H   0  0  0  0  0  0  0  0  0  0  0  0
  1  9  1  0  0  0  0
  1  2  1  0  0  0  0
  1 11  1  0  0  0  0
  2 12  1  6  0  0  0
  2  3  1  0  0  0  0
  3 13  1  0  0  0  0
  4  2  1  0  0  0  0
  4  5  1  0  0  0  0
  4 14  1  0  0  0  0
  5 17  1  0  0  0  0
  6  5  1  0  0  0  0
  6 18  1  0  0  0  0
  7  8  1  0  0  0  0
  7  6  1  0  0  0  0
  8  6  1  0  0  0  0
  8 22  1  0  0  0  0
 10  1  1  0  0  0  0
 15  4  1  0  0  0  0
 16  5  1  0  0  0  0
 19  7  1  0  0  0  0
 20  7  1  0  0  0  0
 21  8  1  0  0  0  0
M  END
