title
 OpenBabel02282109593D

 16 16  0  0  1  0  0  0  0  0999 V2000
    1.8844    2.4097   -0.0219 C   0  0  0  0  0  0  0  0  0  0  0  0
    1.8859    0.8743    0.0219 C   0  0  1  0  0  0  0  0  0  0  0  0
    2.5960    0.3810    1.1546 O   0  0  0  0  0  0  0  0  0  0  0  0
    0.5219    0.3376   -0.0410 C   0  0  0  0  0  0  0  0  0  0  0  0
   -0.6048   -0.0913   -0.0530 C   0  0  0  0  0  0  0  0  0  0  0  0
   -1.9547   -0.5852   -0.0561 C   0  0  1  0  0  0  0  0  0  0  0  0
   -2.5067   -1.3283   -1.2074 C   0  0  0  0  0  0  0  0  0  0  0  0
   -2.1447   -2.0099   -0.0153 O   0  0  0  0  0  0  0  0  0  0  0  0
    2.9138    2.7728    0.0338 H   0  0  0  0  0  0  0  0  0  0  0  0
    1.4245    2.7744   -0.9449 H   0  0  0  0  0  0  0  0  0  0  0  0
    1.3208    2.8164    0.8240 H   0  0  0  0  0  0  0  0  0  0  0  0
    2.4526    0.4991   -0.8388 H   0  0  0  0  0  0  0  0  0  0  0  0
    2.0481    0.5393    1.9315 H   0  0  0  0  0  0  0  0  0  0  0  0
   -2.6574   -0.0347    0.5687 H   0  0  0  0  0  0  0  0  0  0  0  0
   -3.5746   -1.2656   -1.4134 H   0  0  0  0  0  0  0  0  0  0  0  0
   -1.8674   -1.5132   -2.0684 H   0  0  0  0  0  0  0  0  0  0  0  0
  1  2  1  0  0  0  0
  1  9  1  0  0  0  0
  1 11  1  0  0  0  0
  2 12  1  6  0  0  0
  2  3  1  0  0  0  0
  3 13  1  0  0  0  0
  4  2  1  0  0  0  0
  5  4  3  0  0  0  0
  6  5  1  0  0  0  0
  6  8  1  0  0  0  0
  6 14  1  1  0  0  0
  7  6  1  0  0  0  0
  7  8  1  0  0  0  0
 10  1  1  0  0  0  0
 15  7  1  0  0  0  0
 16  7  1  0  0  0  0
M  END
