title
 OpenBabel02282109593D

 14 15  0  0  1  0  0  0  0  0999 V2000
   -0.7044   -2.0691   -0.0049 O   0  0  0  0  0  0  0  0  0  0  0  0
   -0.7137   -0.8818    0.0017 C   0  0  0  0  0  0  0  0  0  0  0  0
   -1.6790    0.3093    0.0173 C   0  0  1  0  0  0  0  0  0  0  0  0
   -0.7034    0.9125    1.0821 C   0  0  0  0  0  0  0  0  0  0  0  0
    0.2798    0.3234   -0.0007 C   0  0  2  0  0  0  0  0  0  0  0  0
   -0.7232    0.9244   -1.0586 C   0  0  0  0  0  0  0  0  0  0  0  0
    1.7055    0.3486   -0.0139 C   0  0  0  0  0  0  0  0  0  0  0  0
    2.9085    0.3477   -0.0252 C   0  0  0  0  0  0  0  0  0  0  0  0
   -2.7651    0.3196    0.0274 H   0  0  0  0  0  0  0  0  0  0  0  0
   -0.7026    2.0037    1.1279 H   0  0  0  0  0  0  0  0  0  0  0  0
   -0.6822    0.4596    2.0744 H   0  0  0  0  0  0  0  0  0  0  0  0
   -0.7204    0.4827   -2.0561 H   0  0  0  0  0  0  0  0  0  0  0  0
   -0.7231    2.0161   -1.0922 H   0  0  0  0  0  0  0  0  0  0  0  0
    3.9705    0.3426   -0.0351 H   0  0  0  0  0  0  0  0  0  0  0  0
  1  2  2  0  0  0  0
  2  3  1  0  0  0  0
  3  9  1  1  0  0  0
  3  4  1  0  0  0  0
  4 10  1  0  0  0  0
  4 11  1  0  0  0  0
  5  7  1  6  0  0  0
  5  2  1  0  0  0  0
  5  4  1  0  0  0  0
  6  5  1  0  0  0  0
  6  3  1  0  0  0  0
  8  7  3  0  0  0  0
 12  6  1  0  0  0  0
 13  6  1  0  0  0  0
 14  8  1  0  0  0  0
M  END
