title
 OpenBabel02282109593D

 20 20  0  0  1  0  0  0  0  0999 V2000
   -2.2970    1.2270   -0.9108 C   0  0  0  0  0  0  0  0  0  0  0  0
   -1.5914   -0.1147   -1.1272 C   0  0  1  0  0  0  0  0  0  0  0  0
   -0.6575   -0.0482   -2.1963 O   0  0  0  0  0  0  0  0  0  0  0  0
   -0.8900   -0.6194    0.1341 C   0  0  0  0  0  0  0  0  0  0  0  0
    0.1722    0.2869    0.4078 O   0  0  0  0  0  0  0  0  0  0  0  0
    0.9975   -0.1102    1.4584 C   0  0  0  0  0  0  0  0  0  0  0  0
    2.1095   -1.0920    1.1917 C   0  0  0  0  0  0  0  0  0  0  0  0
    2.4081    0.3776    1.4204 C   0  0  0  0  0  0  0  0  0  0  0  0
   -1.5879    1.9784   -0.5511 H   0  0  0  0  0  0  0  0  0  0  0  0
   -2.7284    1.5747   -1.8528 H   0  0  0  0  0  0  0  0  0  0  0  0
   -3.1007    1.1352   -0.1719 H   0  0  0  0  0  0  0  0  0  0  0  0
   -2.3300   -0.8697   -1.4233 H   0  0  0  0  0  0  0  0  0  0  0  0
    0.1085    0.4197   -1.8417 H   0  0  0  0  0  0  0  0  0  0  0  0
   -1.5878   -0.6653    0.9848 H   0  0  0  0  0  0  0  0  0  0  0  0
   -0.4875   -1.6271   -0.0395 H   0  0  0  0  0  0  0  0  0  0  0  0
    0.4919   -0.1612    2.4232 H   0  0  0  0  0  0  0  0  0  0  0  0
    2.3721   -1.8084    1.9623 H   0  0  0  0  0  0  0  0  0  0  0  0
    2.2051   -1.4594    0.1759 H   0  0  0  0  0  0  0  0  0  0  0  0
    2.6931    0.9637    0.5541 H   0  0  0  0  0  0  0  0  0  0  0  0
    2.8758    0.6825    2.3495 H   0  0  0  0  0  0  0  0  0  0  0  0
  1  9  1  0  0  0  0
  1 11  1  0  0  0  0
  2 12  1  6  0  0  0
  2  1  1  0  0  0  0
  2  4  1  0  0  0  0
  3 13  1  0  0  0  0
  3  2  1  0  0  0  0
  4  5  1  0  0  0  0
  4 14  1  0  0  0  0
  5  6  1  0  0  0  0
  6 16  1  0  0  0  0
  7  8  1  0  0  0  0
  7  6  1  0  0  0  0
  7 17  1  0  0  0  0
  8  6  1  0  0  0  0
  8 20  1  0  0  0  0
 10  1  1  0  0  0  0
 15  4  1  0  0  0  0
 18  7  1  0  0  0  0
 19  8  1  0  0  0  0
M  END
