14
title
O -1.5192915 -2.119956 -0.15432946
C -1.4628723 -0.92645025 -0.32411307
C -0.19941957 -0.14938906 -0.30464
C 1.2662518 -0.6861912 -0.2974742
C 1.464567 0.8704827 -0.2698469
C 0.30224818 0.9392097 -1.3224369
C 0.33774287 0.87146235 0.7631188
O 0.017474463 1.3610265 1.7953162
H -2.3809881 -0.320277 -0.49106658
H 1.5905704 -1.2575306 0.5721093
H 1.5684562 -1.1587995 -1.2342592
H 2.3990476 1.4256811 -0.27423793
H 0.56373554 0.53486586 -2.3029854
H -0.2620917 1.8698206 -1.3986591
