title
 OpenBabel02282109593D

 13 14  0  0  1  0  0  0  0  0999 V2000
   -0.7205   -2.0747   -0.0046 O   0  0  0  0  0  0  0  0  0  0  0  0
   -0.7323   -0.8903    0.0023 C   0  0  0  0  0  0  0  0  0  0  0  0
   -1.6869    0.3080    0.0183 C   0  0  1  0  0  0  0  0  0  0  0  0
   -0.7067    0.9088    1.0848 C   0  0  0  0  0  0  0  0  0  0  0  0
    0.2632    0.3193   -0.0008 C   0  0  2  0  0  0  0  0  0  0  0  0
   -0.7277    0.9207   -1.0606 C   0  0  0  0  0  0  0  0  0  0  0  0
    1.6953    0.3459   -0.0147 C   0  0  0  0  0  0  0  0  0  0  0  0
    2.8518    0.3512   -0.0260 N   0  0  0  0  0  0  0  0  0  0  0  0
   -2.7724    0.3237    0.0290 H   0  0  0  0  0  0  0  0  0  0  0  0
   -0.7046    1.9994    1.1303 H   0  0  0  0  0  0  0  0  0  0  0  0
   -0.6830    0.4528    2.0748 H   0  0  0  0  0  0  0  0  0  0  0  0
   -0.7234    0.4756   -2.0558 H   0  0  0  0  0  0  0  0  0  0  0  0
   -0.7264    2.0117   -1.0941 H   0  0  0  0  0  0  0  0  0  0  0  0
  1  2  2  0  0  0  0
  2  3  1  0  0  0  0
  3  9  1  1  0  0  0
  3  4  1  0  0  0  0
  4 10  1  0  0  0  0
  4 11  1  0  0  0  0
  5  7  1  6  0  0  0
  5  2  1  0  0  0  0
  5  4  1  0  0  0  0
  6  5  1  0  0  0  0
  6  3  1  0  0  0  0
  8  7  3  0  0  0  0
 12  6  1  0  0  0  0
 13  6  1  0  0  0  0
M  END
