13
title
O -0.7128734 -2.0939434 -0.13635951
C -0.70988506 -0.9182913 0.031677034
C -1.6362267 0.31421402 0.059634708
C -0.696641 0.9189289 1.1343718
C 0.27172053 0.30842522 0.07420898
N -0.6824213 0.92073065 -0.9683503
C 1.6922643 0.38089707 -0.013843003
C 2.8926764 0.4015067 -0.0802171
H -2.7147465 0.40540388 -0.03614781
H -0.68740076 2.0096273 1.1321537
H -0.69712174 0.47817615 2.131118
H -0.67019117 0.37390235 -1.8350819
H 3.9530723 0.424058 -0.14001162
