title
 OpenBabel02282109593D

 21 21  0  0  1  0  0  0  0  0999 V2000
   -0.8360    2.8921   -1.0295 C   0  0  0  0  0  0  0  0  0  0  0  0
   -0.6845    1.3757   -1.1530 C   0  0  1  0  0  0  0  0  0  0  0  0
   -0.0019    1.0234   -2.3569 O   0  0  0  0  0  0  0  0  0  0  0  0
   -0.0114    0.7563    0.0776 C   0  0  0  0  0  0  0  0  0  0  0  0
    0.0977   -0.7661   -0.0017 C   0  0  0  0  0  0  0  0  0  0  0  0
    0.8349   -1.2960    1.1404 N   0  0  0  0  0  0  0  0  0  0  0  0
    0.0456   -1.6370    2.3194 C   0  0  0  0  0  0  0  0  0  0  0  0
    0.6182   -2.7029    1.4513 C   0  0  0  0  0  0  0  0  0  0  0  0
    0.1433    3.3703   -0.9001 H   0  0  0  0  0  0  0  0  0  0  0  0
   -1.2997    3.3017   -1.9309 H   0  0  0  0  0  0  0  0  0  0  0  0
   -1.4529    3.1615   -0.1661 H   0  0  0  0  0  0  0  0  0  0  0  0
   -1.6803    0.9294   -1.2742 H   0  0  0  0  0  0  0  0  0  0  0  0
    0.8753    1.4213   -2.3183 H   0  0  0  0  0  0  0  0  0  0  0  0
    0.9960    1.1790    0.1950 H   0  0  0  0  0  0  0  0  0  0  0  0
   -0.5721    1.0413    0.9769 H   0  0  0  0  0  0  0  0  0  0  0  0
   -0.9147   -1.2072   -0.0786 H   0  0  0  0  0  0  0  0  0  0  0  0
    0.6341   -1.0428   -0.9147 H   0  0  0  0  0  0  0  0  0  0  0  0
    0.4956   -1.4026    3.2800 H   0  0  0  0  0  0  0  0  0  0  0  0
   -1.0327   -1.4876    2.2727 H   0  0  0  0  0  0  0  0  0  0  0  0
   -0.0794   -3.2614    0.8284 H   0  0  0  0  0  0  0  0  0  0  0  0
    1.4959   -3.2612    1.7645 H   0  0  0  0  0  0  0  0  0  0  0  0
  1  9  1  0  0  0  0
  1 11  1  0  0  0  0
  2 12  1  6  0  0  0
  2  1  1  0  0  0  0
  2  4  1  0  0  0  0
  3 13  1  0  0  0  0
  3  2  1  0  0  0  0
  4 14  1  0  0  0  0
  4 15  1  0  0  0  0
  5  4  1  0  0  0  0
  5  6  1  0  0  0  0
  6  8  1  0  0  0  0
  6  7  1  0  0  0  0
  7 18  1  0  0  0  0
  8 21  1  0  0  0  0
  8  7  1  0  0  0  0
 10  1  1  0  0  0  0
 16  5  1  0  0  0  0
 17  5  1  0  0  0  0
 19  7  1  0  0  0  0
 20  8  1  0  0  0  0
M  END
