13
title
O -0.7205177 -2.074661 -0.0045604794
C -0.73231727 -0.8903363 0.002332347
C -1.6869471 0.3080198 0.01825965
C -0.70671195 0.90881884 1.0847741
C 0.2631976 0.3192605 -0.00078961946
C -0.7277368 0.9206513 -1.060569
C 1.695301 0.34588447 -0.014682342
N 2.8518338 0.35115615 -0.025992062
H -2.7724466 0.32366338 0.028978359
H -0.70455813 1.999395 1.1302835
H -0.68296653 0.45281425 2.0747747
H -0.7234467 0.47559395 -2.055813
H -0.726356 2.0116632 -1.094088
