21
title
C -0.8359515 2.8921275 -1.0294844
C -0.6844955 1.3756883 -1.1529825
O -0.0019360846 1.0233641 -2.3568864
C -0.011425442 0.7563071 0.0775541
C 0.09770768 -0.7661266 -0.0017398698
N 0.834906 -1.2959774 1.1403655
C 0.04563623 -1.6369884 2.3193862
C 0.6181656 -2.7028918 1.4512631
H 0.14328223 3.3702567 -0.90010285
H -1.2996621 3.3016624 -1.930943
H -1.452939 3.1614747 -0.16606815
H -1.6802832 0.9294216 -1.2742378
H 0.87533486 1.4213489 -2.3183444
H 0.99604297 1.1789687 0.19500266
H -0.5721036 1.0412837 0.9769434
H -0.91469777 -1.2072387 -0.07855535
H 0.63406026 -1.042758 -0.9147339
H 0.49558794 -1.4026144 3.279996
H -1.0327415 -1.4876189 2.272713
H -0.07937432 -3.2614245 0.8284087
H 1.4959016 -3.261238 1.7645074
