16
title
C -0.53312075 1.752085 -1.1405431
N -0.5617938 0.30301484 -0.9595484
C -1.6198497 -0.31162375 -0.051039815
C -0.69940054 -1.5586085 0.0064552445
C 0.1863872 -0.2986986 0.22720164
C -0.8990554 0.2256004 1.2191548
C 1.6220378 -0.22245118 0.35509437
N 2.7703528 -0.14970553 0.46807367
H 0.4453202 2.02628 -1.5465044
H -1.2887017 2.0098498 -1.8891906
H -0.7160422 2.3668442 -0.24730837
H -2.6789787 -0.269592 -0.30120486
H -0.81397706 -2.2262967 0.8603669
H -0.53776866 -2.0713656 -0.94055176
H -0.92077196 1.2981837 1.4019041
H -1.0266773 -0.33478808 2.1480348
