title
 OpenBabel02282109593D

 16 17  0  0  1  0  0  0  0  0999 V2000
   -0.5331    1.7521   -1.1405 C   0  0  0  0  0  0  0  0  0  0  0  0
   -0.5618    0.3030   -0.9595 N   0  0  0  0  0  0  0  0  0  0  0  0
   -1.6198   -0.3116   -0.0510 C   0  0  1  0  0  0  0  0  0  0  0  0
   -0.6994   -1.5586    0.0065 C   0  0  0  0  0  0  0  0  0  0  0  0
    0.1864   -0.2987    0.2272 C   0  0  2  0  0  0  0  0  0  0  0  0
   -0.8991    0.2256    1.2192 C   0  0  0  0  0  0  0  0  0  0  0  0
    1.6220   -0.2225    0.3551 C   0  0  0  0  0  0  0  0  0  0  0  0
    2.7704   -0.1497    0.4681 N   0  0  0  0  0  0  0  0  0  0  0  0
    0.4453    2.0263   -1.5465 H   0  0  0  0  0  0  0  0  0  0  0  0
   -1.2887    2.0098   -1.8892 H   0  0  0  0  0  0  0  0  0  0  0  0
   -0.7160    2.3668   -0.2473 H   0  0  0  0  0  0  0  0  0  0  0  0
   -2.6790   -0.2696   -0.3012 H   0  0  0  0  0  0  0  0  0  0  0  0
   -0.8140   -2.2263    0.8604 H   0  0  0  0  0  0  0  0  0  0  0  0
   -0.5378   -2.0714   -0.9406 H   0  0  0  0  0  0  0  0  0  0  0  0
   -0.9208    1.2982    1.4019 H   0  0  0  0  0  0  0  0  0  0  0  0
   -1.0267   -0.3348    2.1480 H   0  0  0  0  0  0  0  0  0  0  0  0
  1  2  1  0  0  0  0
  1 11  1  0  0  0  0
  2  3  1  0  0  0  0
  2  5  1  0  0  0  0
  3 12  1  6  0  0  0
  3  4  1  0  0  0  0
  3  6  1  0  0  0  0
  4  5  1  0  0  0  0
  4 13  1  0  0  0  0
  5  7  1  1  0  0  0
  5  6  1  0  0  0  0
  6 15  1  0  0  0  0
  6 16  1  0  0  0  0
  7  8  3  0  0  0  0
  9  1  1  0  0  0  0
 10  1  1  0  0  0  0
 14  4  1  0  0  0  0
M  END
