title
 OpenBabel02282109593D

 15 16  0  0  1  0  0  0  0  0999 V2000
   -0.9087    1.9915   -0.9082 C   0  0  0  0  0  0  0  0  0  0  0  0
   -0.7377    0.4859   -0.8422 C   0  0  1  0  0  0  0  0  0  0  0  0
    0.4303   -0.2890   -1.5205 C   0  0  1  0  0  0  0  0  0  0  0  0
    1.4338    0.2326   -0.4647 C   0  0  0  0  0  0  0  0  0  0  0  0
    0.1331   -0.2327    0.2434 C   0  0  2  0  0  0  0  0  0  0  0  0
    0.1368   -1.4345   -0.6164 O   0  0  0  0  0  0  0  0  0  0  0  0
   -0.1290   -0.3797    1.6548 C   0  0  0  0  0  0  0  0  0  0  0  0
   -0.3445   -0.4494    2.7881 N   0  0  0  0  0  0  0  0  0  0  0  0
    0.0276    2.5425   -0.7934 H   0  0  0  0  0  0  0  0  0  0  0  0
   -1.3470    2.2749   -1.8708 H   0  0  0  0  0  0  0  0  0  0  0  0
   -1.5944    2.3283   -0.1242 H   0  0  0  0  0  0  0  0  0  0  0  0
   -1.6849   -0.0427   -0.9726 H   0  0  0  0  0  0  0  0  0  0  0  0
    0.5915   -0.5172   -2.5723 H   0  0  0  0  0  0  0  0  0  0  0  0
    2.2916   -0.4155   -0.2885 H   0  0  0  0  0  0  0  0  0  0  0  0
    1.6880    1.2923   -0.4444 H   0  0  0  0  0  0  0  0  0  0  0  0
  1  2  1  0  0  0  0
  1  9  1  0  0  0  0
  1 11  1  0  0  0  0
  2  3  1  6  0  0  0
  3 13  1  6  0  0  0
  3  6  1  0  0  0  0
  3  4  1  0  0  0  0
  4 15  1  0  0  0  0
  4 14  1  0  0  0  0
  4  5  1  0  0  0  0
  5  2  1  6  0  0  0
  5  7  1  0  0  0  0
  6  5  1  0  0  0  0
  7  8  3  0  0  0  0
 10  1  1  0  0  0  0
 12  2  1  0  0  0  0
M  END
