title
 OpenBabel02282109593D

 16 17  0  0  1  0  0  0  0  0999 V2000
   -0.8220    1.9261   -0.9446 C   0  0  0  0  0  0  0  0  0  0  0  0
   -0.6372    0.4256   -0.8764 C   0  0  1  0  0  0  0  0  0  0  0  0
    0.5874   -0.2170   -1.5779 N   0  0  1  0  0  0  0  0  0  0  0  0
    1.3971    0.2223   -0.3453 C   0  0  0  0  0  0  0  0  0  0  0  0
    0.0905   -0.3067    0.2948 C   0  0  2  0  0  0  0  0  0  0  0  0
    0.2464   -1.4550   -0.7324 C   0  0  0  0  0  0  0  0  0  0  0  0
   -0.2823   -0.3752    1.6935 C   0  0  0  0  0  0  0  0  0  0  0  0
   -0.5886   -0.4218    2.8076 N   0  0  0  0  0  0  0  0  0  0  0  0
   -1.0072    2.2208   -1.9824 H   0  0  0  0  0  0  0  0  0  0  0  0
   -1.6981    2.2121   -0.3538 H   0  0  0  0  0  0  0  0  0  0  0  0
    0.0299    2.5011   -0.5772 H   0  0  0  0  0  0  0  0  0  0  0  0
   -1.5591   -0.0716   -1.1952 H   0  0  0  0  0  0  0  0  0  0  0  0
    2.3014   -0.3688   -0.1872 H   0  0  0  0  0  0  0  0  0  0  0  0
    1.6119    1.2882   -0.2941 H   0  0  0  0  0  0  0  0  0  0  0  0
   -0.6583   -1.9763   -1.0525 H   0  0  0  0  0  0  0  0  0  0  0  0
    1.0869   -2.1383   -0.5984 H   0  0  0  0  0  0  0  0  0  0  0  0
  1  2  1  0  0  0  0
  1 11  1  0  0  0  0
  1 10  1  0  0  0  0
  2  3  1  6  0  0  0
  3  6  1  1  0  0  0
  3  4  1  0  0  0  0
  4 14  1  0  0  0  0
  4 13  1  0  0  0  0
  4  5  1  0  0  0  0
  5  2  1  6  0  0  0
  5  7  1  0  0  0  0
  6 16  1  0  0  0  0
  6  5  1  0  0  0  0
  7  8  3  0  0  0  0
  9  1  1  0  0  0  0
 12  2  1  0  0  0  0
 15  6  1  0  0  0  0
M  END
