17
title
C -0.5184196 1.750113 -1.1367496
N -0.5545238 0.30245647 -0.957258
C -1.6113844 -0.30481005 -0.047949806
C -0.6988097 -1.5553795 0.009498759
C 0.2052864 -0.304031 0.23154186
C -0.8872684 0.22611593 1.2192475
C 1.6313698 -0.23289241 0.3591734
C 2.826455 -0.15974762 0.47426125
H 0.46634433 2.020371 -1.530668
H -1.2645212 2.0166867 -1.8925948
H -0.70626044 2.3668008 -0.24492015
H -2.671535 -0.25757575 -0.2965326
H -0.819296 -2.2244875 0.86237097
H -0.54327554 -2.0710535 -0.9375922
H -0.90481126 1.2988291 1.4055539
H -1.0201604 -0.3332436 2.148844
H 3.88221 -0.1005953 0.57267594
