15
title
C -0.9086594 1.9915196 -0.9082366
C -0.7376683 0.48585087 -0.8421537
C 0.4302564 -0.28901854 -1.5204887
C 1.4338341 0.23264968 -0.4646958
C 0.13309054 -0.23273219 0.24340433
O 0.13682114 -1.434458 -0.61640924
C -0.12904908 -0.37969205 1.6547962
N -0.344492 -0.44943598 2.7881336
H 0.02764819 2.5425193 -0.7934372
H -1.3469913 2.2748835 -1.8707658
H -1.5944005 2.3283165 -0.124218464
H -1.6848837 -0.042716734 -0.9726123
H 0.5914909 -0.5171824 -2.572348
H 2.2915754 -0.41553912 -0.2884693
H 1.6879873 1.2923388 -0.4443723
