title
 OpenBabel02282109593D

 16 17  0  0  1  0  0  0  0  0999 V2000
   -0.9046    1.9757   -0.8773 C   0  0  0  0  0  0  0  0  0  0  0  0
   -0.7312    0.4665   -0.8411 C   0  0  1  0  0  0  0  0  0  0  0  0
    0.4304   -0.2951   -1.5570 C   0  0  1  0  0  0  0  0  0  0  0  0
    1.4231    0.2095   -0.4785 C   0  0  0  0  0  0  0  0  0  0  0  0
    0.1328   -0.2708    0.2444 C   0  0  2  0  0  0  0  0  0  0  0  0
    0.2069   -1.5000   -0.6501 N   0  0  0  0  0  0  0  0  0  0  0  0
   -0.1215   -0.3536    1.6631 C   0  0  0  0  0  0  0  0  0  0  0  0
   -0.3465   -0.3913    2.7966 N   0  0  0  0  0  0  0  0  0  0  0  0
    0.0325    2.5244   -0.7593 H   0  0  0  0  0  0  0  0  0  0  0  0
   -1.3493    2.2776   -1.8314 H   0  0  0  0  0  0  0  0  0  0  0  0
   -1.5838    2.2982   -0.0813 H   0  0  0  0  0  0  0  0  0  0  0  0
   -1.6989   -0.0300   -0.9811 H   0  0  0  0  0  0  0  0  0  0  0  0
    0.6055   -0.4164   -2.6252 H   0  0  0  0  0  0  0  0  0  0  0  0
    2.2926   -0.4254   -0.3146 H   0  0  0  0  0  0  0  0  0  0  0  0
    1.6566    1.2712   -0.4413 H   0  0  0  0  0  0  0  0  0  0  0  0
   -0.7438   -1.8583   -0.7942 H   0  0  0  0  0  0  0  0  0  0  0  0
  1  2  1  0  0  0  0
  1  9  1  0  0  0  0
  1 11  1  0  0  0  0
  2  3  1  6  0  0  0
  3 13  1  6  0  0  0
  3  6  1  0  0  0  0
  3  4  1  0  0  0  0
  4 15  1  0  0  0  0
  4 14  1  0  0  0  0
  4  5  1  0  0  0  0
  5  2  1  6  0  0  0
  5  7  1  0  0  0  0
  6  5  1  0  0  0  0
  7  8  3  0  0  0  0
 10  1  1  0  0  0  0
 12  2  1  0  0  0  0
 16  6  1  0  0  0  0
M  END
