title
 OpenBabel02282109593D

 18 19  0  0  1  0  0  0  0  0999 V2000
   -1.0429    1.8825   -0.8779 C   0  0  0  0  0  0  0  0  0  0  0  0
   -0.8672    0.3728   -0.8716 C   0  0  1  0  0  0  0  0  0  0  0  0
    0.2944   -0.3374   -1.6417 C   0  0  1  0  0  0  0  0  0  0  0  0
    1.2842    0.1401   -0.5365 C   0  0  0  0  0  0  0  0  0  0  0  0
    0.0201   -0.3524    0.2182 C   0  0  2  0  0  0  0  0  0  0  0  0
    0.0131   -1.5818   -0.7509 C   0  0  0  0  0  0  0  0  0  0  0  0
   -0.2233   -0.3742    1.6854 C   0  0  0  0  0  0  0  0  0  0  0  0
    0.5361    0.0682    2.5124 O   0  0  0  0  0  0  0  0  0  0  0  0
   -0.1123    2.4300   -0.7137 H   0  0  0  0  0  0  0  0  0  0  0  0
   -1.4541    2.2067   -1.8404 H   0  0  0  0  0  0  0  0  0  0  0  0
   -1.7506    2.1914   -0.1011 H   0  0  0  0  0  0  0  0  0  0  0  0
   -1.8376   -0.1153   -1.0195 H   0  0  0  0  0  0  0  0  0  0  0  0
    0.4615   -0.3323   -2.7197 H   0  0  0  0  0  0  0  0  0  0  0  0
    2.1835   -0.4645   -0.3989 H   0  0  0  0  0  0  0  0  0  0  0  0
    1.5208    1.2020   -0.4838 H   0  0  0  0  0  0  0  0  0  0  0  0
   -0.9439   -2.0897   -0.8972 H   0  0  0  0  0  0  0  0  0  0  0  0
    0.8348   -2.2902   -0.6219 H   0  0  0  0  0  0  0  0  0  0  0  0
   -1.1934   -0.8370    1.9854 H   0  0  0  0  0  0  0  0  0  0  0  0
  1  2  1  0  0  0  0
  1  9  1  0  0  0  0
  1 11  1  0  0  0  0
  2  3  1  6  0  0  0
  3 13  1  6  0  0  0
  3  6  1  0  0  0  0
  3  4  1  0  0  0  0
  4 15  1  0  0  0  0
  4 14  1  0  0  0  0
  4  5  1  0  0  0  0
  5  2  1  6  0  0  0
  5  7  1  0  0  0  0
  6 17  1  0  0  0  0
  6  5  1  0  0  0  0
  7 18  1  0  0  0  0
  7  8  2  0  0  0  0
 10  1  1  0  0  0  0
 12  2  1  0  0  0  0
 16  6  1  0  0  0  0
M  END
