14
title
N 1.3852469 1.8647304 -0.13815078
C 1.1279398 0.46619427 -0.08470416
C 0.9281364 -0.27365857 1.2645282
C -0.5108291 0.2838401 1.3996005
C -0.31117097 -0.23751885 -0.046014566
O 0.37074956 -1.4202156 0.5042858
C -1.2779542 -0.40193826 -1.0987314
N -2.0397873 -0.46899188 -1.9663094
H 1.4017055 2.206737 -1.0916958
H 0.72776955 2.4242582 0.39149937
H 1.7932442 -0.07785072 -0.75694096
H 1.6551203 -0.4972341 2.0427716
H -1.185265 -0.3209105 2.0054684
H -0.6589042 1.354973 1.5529262
