title
 OpenBabel02282109593D

 16 17  0  0  1  0  0  0  0  0999 V2000
    1.2703    1.7302   -0.2859 O   0  0  0  0  0  0  0  0  0  0  0  0
    1.1066    0.3576   -0.1281 C   0  0  1  0  0  0  0  0  0  0  0  0
    1.0367   -0.3184    1.2759 C   0  0  1  0  0  0  0  0  0  0  0  0
   -0.4139    0.2314    1.4127 C   0  0  0  0  0  0  0  0  0  0  0  0
   -0.3264   -0.3070   -0.0582 C   0  0  2  0  0  0  0  0  0  0  0  0
    0.4164   -1.5422    0.5473 C   0  0  0  0  0  0  0  0  0  0  0  0
   -1.3516   -0.2971   -1.0583 C   0  0  0  0  0  0  0  0  0  0  0  0
   -2.2061   -0.2764   -1.9054 C   0  0  0  0  0  0  0  0  0  0  0  0
    0.6882    2.1991    0.3207 H   0  0  0  0  0  0  0  0  0  0  0  0
    1.7862   -0.1115   -0.8438 H   0  0  0  0  0  0  0  0  0  0  0  0
    1.8103   -0.3333    2.0424 H   0  0  0  0  0  0  0  0  0  0  0  0
   -1.0847   -0.3162    2.0788 H   0  0  0  0  0  0  0  0  0  0  0  0
   -0.5532    1.3082    1.5483 H   0  0  0  0  0  0  0  0  0  0  0  0
    1.0633   -2.1019   -0.1333 H   0  0  0  0  0  0  0  0  0  0  0  0
   -0.2002   -2.2042    1.1576 H   0  0  0  0  0  0  0  0  0  0  0  0
   -2.9579   -0.2599   -2.6550 H   0  0  0  0  0  0  0  0  0  0  0  0
  1  2  1  0  0  0  0
  1  9  1  0  0  0  0
  2  5  1  6  0  0  0
  3  2  1  6  0  0  0
  3  4  1  0  0  0  0
  3 11  1  0  0  0  0
  4 13  1  0  0  0  0
  4 12  1  0  0  0  0
  5  7  1  6  0  0  0
  5  6  1  0  0  0  0
  5  4  1  0  0  0  0
  6 15  1  0  0  0  0
  6  3  1  0  0  0  0
  8  7  3  0  0  0  0
 10  2  1  0  0  0  0
 14  6  1  0  0  0  0
 16  8  1  0  0  0  0
M  END
