title
 OpenBabel02282109593D

 15 16  0  0  1  0  0  0  0  0999 V2000
    1.0661    1.7826   -0.1679 O   0  0  0  0  0  0  0  0  0  0  0  0
    1.1076    0.3891   -0.0949 C   0  0  1  0  0  0  0  0  0  0  0  0
    1.0358   -0.3277    1.2954 C   0  0  1  0  0  0  0  0  0  0  0  0
   -0.4238    0.2052    1.4161 C   0  0  0  0  0  0  0  0  0  0  0  0
   -0.2844   -0.3070   -0.0573 C   0  0  2  0  0  0  0  0  0  0  0  0
    0.4588   -1.5488    0.5268 C   0  0  0  0  0  0  0  0  0  0  0  0
   -1.2874   -0.2982   -1.0921 C   0  0  0  0  0  0  0  0  0  0  0  0
   -2.0903   -0.2975   -1.9243 N   0  0  0  0  0  0  0  0  0  0  0  0
    1.9671    2.1187   -0.1527 H   0  0  0  0  0  0  0  0  0  0  0  0
    1.8173   -0.0417   -0.8124 H   0  0  0  0  0  0  0  0  0  0  0  0
    1.7990   -0.3438    2.0720 H   0  0  0  0  0  0  0  0  0  0  0  0
   -1.1012   -0.3681    2.0519 H   0  0  0  0  0  0  0  0  0  0  0  0
   -0.5484    1.2796    1.5344 H   0  0  0  0  0  0  0  0  0  0  0  0
    1.1268   -2.0806   -0.1555 H   0  0  0  0  0  0  0  0  0  0  0  0
   -0.1621   -2.2341    1.1049 H   0  0  0  0  0  0  0  0  0  0  0  0
  1  9  1  0  0  0  0
  1  2  1  0  0  0  0
  2  5  1  6  0  0  0
  3  2  1  6  0  0  0
  3  4  1  0  0  0  0
  3 11  1  0  0  0  0
  4 13  1  0  0  0  0
  4 12  1  0  0  0  0
  5  7  1  6  0  0  0
  5  6  1  0  0  0  0
  5  4  1  0  0  0  0
  6 15  1  0  0  0  0
  6  3  1  0  0  0  0
  8  7  3  0  0  0  0
 10  2  1  0  0  0  0
 14  6  1  0  0  0  0
M  END
