title
 OpenBabel02282109593D

 13 14  0  0  1  0  0  0  0  0999 V2000
    1.2583    1.8152   -0.0116 O   0  0  0  0  0  0  0  0  0  0  0  0
    1.1179    0.4382   -0.0882 C   0  0  1  0  0  0  0  0  0  0  0  0
    0.9374   -0.3263    1.2420 C   0  0  1  0  0  0  0  0  0  0  0  0
   -0.4867    0.2580    1.4028 C   0  0  0  0  0  0  0  0  0  0  0  0
   -0.3111   -0.2399   -0.0549 C   0  0  2  0  0  0  0  0  0  0  0  0
    0.3660   -1.4467    0.4501 O   0  0  0  0  0  0  0  0  0  0  0  0
   -1.2834   -0.3620   -1.1097 C   0  0  0  0  0  0  0  0  0  0  0  0
   -2.0521   -0.4045   -1.9723 N   0  0  0  0  0  0  0  0  0  0  0  0
    1.3261    2.1733   -0.9026 H   0  0  0  0  0  0  0  0  0  0  0  0
    1.7922   -0.0531   -0.7963 H   0  0  0  0  0  0  0  0  0  0  0  0
    1.6772   -0.5758    1.9993 H   0  0  0  0  0  0  0  0  0  0  0  0
   -1.1696   -0.3409    2.0046 H   0  0  0  0  0  0  0  0  0  0  0  0
   -0.5818    1.3326    1.5545 H   0  0  0  0  0  0  0  0  0  0  0  0
  2  5  1  6  0  0  0
  2  1  1  0  0  0  0
  3  2  1  6  0  0  0
  3  4  1  0  0  0  0
  3 11  1  0  0  0  0
  4 13  1  0  0  0  0
  4 12  1  0  0  0  0
  5  7  1  6  0  0  0
  5  6  1  0  0  0  0
  5  4  1  0  0  0  0
  6  3  1  0  0  0  0
  8  7  3  0  0  0  0
  9  1  1  0  0  0  0
 10  2  1  0  0  0  0
M  END
