title
 OpenBabel02282109593D

 14 15  0  0  1  0  0  0  0  0999 V2000
    1.2331    1.7993   -0.0303 O   0  0  0  0  0  0  0  0  0  0  0  0
    1.1094    0.4154   -0.0856 C   0  0  1  0  0  0  0  0  0  0  0  0
    0.9708   -0.3327    1.2615 C   0  0  1  0  0  0  0  0  0  0  0  0
   -0.4669    0.2327    1.4052 C   0  0  0  0  0  0  0  0  0  0  0  0
   -0.3113   -0.2787   -0.0543 C   0  0  2  0  0  0  0  0  0  0  0  0
    0.3471   -1.5129    0.5291 N   0  0  0  0  0  0  0  0  0  0  0  0
   -1.2922   -0.3321   -1.1082 C   0  0  0  0  0  0  0  0  0  0  0  0
   -2.0543   -0.3383   -1.9781 N   0  0  0  0  0  0  0  0  0  0  0  0
    1.2013    2.1531   -0.9254 H   0  0  0  0  0  0  0  0  0  0  0  0
    1.7998   -0.0487   -0.8039 H   0  0  0  0  0  0  0  0  0  0  0  0
    1.7230   -0.4741    2.0353 H   0  0  0  0  0  0  0  0  0  0  0  0
   -1.1429   -0.3570    2.0228 H   0  0  0  0  0  0  0  0  0  0  0  0
   -0.5645    1.3082    1.5324 H   0  0  0  0  0  0  0  0  0  0  0  0
    1.0173   -1.8945   -0.1492 H   0  0  0  0  0  0  0  0  0  0  0  0
  2  5  1  6  0  0  0
  2  1  1  0  0  0  0
  3  2  1  6  0  0  0
  3  4  1  0  0  0  0
  3 11  1  0  0  0  0
  4 13  1  0  0  0  0
  4 12  1  0  0  0  0
  5  7  1  6  0  0  0
  5  6  1  0  0  0  0
  5  4  1  0  0  0  0
  6  3  1  0  0  0  0
  8  7  3  0  0  0  0
  9  1  1  0  0  0  0
 10  2  1  0  0  0  0
 14  6  1  0  0  0  0
M  END
