title
 OpenBabel02282109593D

 15 16  0  0  1  0  0  0  0  0999 V2000
    1.2209    1.8011   -0.0527 O   0  0  0  0  0  0  0  0  0  0  0  0
    1.0964    0.4111   -0.0984 C   0  0  1  0  0  0  0  0  0  0  0  0
    0.9734   -0.3307    1.2501 C   0  0  1  0  0  0  0  0  0  0  0  0
   -0.4632    0.2289    1.4023 C   0  0  0  0  0  0  0  0  0  0  0  0
   -0.3234   -0.2807   -0.0643 C   0  0  2  0  0  0  0  0  0  0  0  0
    0.3514   -1.5145    0.5269 N   0  0  0  0  0  0  0  0  0  0  0  0
   -1.3041   -0.3363   -1.1063 C   0  0  0  0  0  0  0  0  0  0  0  0
   -2.1078   -0.3513   -2.0015 C   0  0  0  0  0  0  0  0  0  0  0  0
    1.0870    2.1490   -0.9407 H   0  0  0  0  0  0  0  0  0  0  0  0
    1.7875   -0.0508   -0.8189 H   0  0  0  0  0  0  0  0  0  0  0  0
    1.7332   -0.4660    2.0185 H   0  0  0  0  0  0  0  0  0  0  0  0
   -1.1329   -0.3617    2.0266 H   0  0  0  0  0  0  0  0  0  0  0  0
   -0.5634    1.3042    1.5324 H   0  0  0  0  0  0  0  0  0  0  0  0
    1.0204   -1.8903   -0.1565 H   0  0  0  0  0  0  0  0  0  0  0  0
   -2.8266   -0.3758   -2.7830 H   0  0  0  0  0  0  0  0  0  0  0  0
  2  5  1  6  0  0  0
  2  1  1  0  0  0  0
  3  2  1  6  0  0  0
  3  4  1  0  0  0  0
  3 11  1  0  0  0  0
  4 13  1  0  0  0  0
  4 12  1  0  0  0  0
  5  7  1  6  0  0  0
  5  6  1  0  0  0  0
  5  4  1  0  0  0  0
  6  3  1  0  0  0  0
  8  7  3  0  0  0  0
  9  1  1  0  0  0  0
 10  2  1  0  0  0  0
 14  6  1  0  0  0  0
 15  8  1  0  0  0  0
M  END
