16
title
C -0.9604565 1.9309226 -0.8170174
C -0.831244 0.4199468 -0.8003972
C 0.25084338 -0.37587842 -1.5861568
C 1.3530935 0.102972195 -0.61302996
C 0.11026904 -0.351952 0.19677721
O -0.0004939752 -1.5311633 -0.68706524
C -0.0689958 -0.54536843 1.6657957
O 0.18336853 0.30725718 2.4792151
H -0.0005147176 2.4492698 -0.766518
H -1.4681139 2.2538168 -1.7324191
H -1.5651969 2.2683387 0.030696085
H -1.802773 -0.07724318 -0.8641445
H 0.31541762 -0.5876115 -2.6535344
H 2.2106807 -0.56450754 -0.52835655
H 1.6316847 1.1560472 -0.59553266
H -0.47824252 -1.5403981 1.9483281
