title
 OpenBabel02282109593D

 16 17  0  0  1  0  0  0  0  0999 V2000
   -0.9605    1.9309   -0.8170 C   0  0  0  0  0  0  0  0  0  0  0  0
   -0.8312    0.4199   -0.8004 C   0  0  1  0  0  0  0  0  0  0  0  0
    0.2508   -0.3759   -1.5862 C   0  0  1  0  0  0  0  0  0  0  0  0
    1.3531    0.1030   -0.6130 C   0  0  0  0  0  0  0  0  0  0  0  0
    0.1103   -0.3520    0.1968 C   0  0  2  0  0  0  0  0  0  0  0  0
   -0.0005   -1.5312   -0.6871 O   0  0  0  0  0  0  0  0  0  0  0  0
   -0.0690   -0.5454    1.6658 C   0  0  0  0  0  0  0  0  0  0  0  0
    0.1834    0.3073    2.4792 O   0  0  0  0  0  0  0  0  0  0  0  0
   -0.0005    2.4493   -0.7665 H   0  0  0  0  0  0  0  0  0  0  0  0
   -1.4681    2.2538   -1.7324 H   0  0  0  0  0  0  0  0  0  0  0  0
   -1.5652    2.2683    0.0307 H   0  0  0  0  0  0  0  0  0  0  0  0
   -1.8028   -0.0772   -0.8641 H   0  0  0  0  0  0  0  0  0  0  0  0
    0.3154   -0.5876   -2.6535 H   0  0  0  0  0  0  0  0  0  0  0  0
    2.2107   -0.5645   -0.5284 H   0  0  0  0  0  0  0  0  0  0  0  0
    1.6317    1.1560   -0.5955 H   0  0  0  0  0  0  0  0  0  0  0  0
   -0.4782   -1.5404    1.9483 H   0  0  0  0  0  0  0  0  0  0  0  0
  1  2  1  0  0  0  0
  1  9  1  0  0  0  0
  1 11  1  0  0  0  0
  2  3  1  6  0  0  0
  3 13  1  6  0  0  0
  3  6  1  0  0  0  0
  3  4  1  0  0  0  0
  4 15  1  0  0  0  0
  4 14  1  0  0  0  0
  4  5  1  0  0  0  0
  5  2  1  6  0  0  0
  5  7  1  0  0  0  0
  6  5  1  0  0  0  0
  7 16  1  0  0  0  0
  7  8  2  0  0  0  0
 10  1  1  0  0  0  0
 12  2  1  0  0  0  0
M  END
