15
title
O 1.066057 1.7825698 -0.1678705
C 1.1076108 0.3890913 -0.0948721
C 1.0358496 -0.32767603 1.295423
C -0.4238222 0.20516273 1.4160624
C -0.28442827 -0.30700555 -0.05725742
C 0.4587693 -1.5487967 0.5268032
C -1.2873964 -0.29816028 -1.0920633
N -2.0903265 -0.2974604 -1.9242518
H 1.9671263 2.1187139 -0.15272425
H 1.8173476 -0.041749075 -0.8124494
H 1.7989928 -0.34378734 2.0720282
H -1.1011894 -0.36813208 2.0519135
H -0.5484248 1.2795672 1.5343711
H 1.1267807 -2.0805542 -0.15552935
H -0.1621292 -2.2341259 1.1049225
