title
 OpenBabel02282109593D

 14 15  0  0  1  0  0  0  0  0999 V2000
    1.3852    1.8647   -0.1382 N   0  0  0  0  0  0  0  0  0  0  0  0
    1.1279    0.4662   -0.0847 C   0  0  1  0  0  0  0  0  0  0  0  0
    0.9281   -0.2737    1.2645 C   0  0  1  0  0  0  0  0  0  0  0  0
   -0.5108    0.2838    1.3996 C   0  0  0  0  0  0  0  0  0  0  0  0
   -0.3112   -0.2375   -0.0460 C   0  0  2  0  0  0  0  0  0  0  0  0
    0.3707   -1.4202    0.5043 O   0  0  0  0  0  0  0  0  0  0  0  0
   -1.2780   -0.4019   -1.0987 C   0  0  0  0  0  0  0  0  0  0  0  0
   -2.0398   -0.4690   -1.9663 N   0  0  0  0  0  0  0  0  0  0  0  0
    1.4017    2.2067   -1.0917 H   0  0  0  0  0  0  0  0  0  0  0  0
    0.7278    2.4243    0.3915 H   0  0  0  0  0  0  0  0  0  0  0  0
    1.7932   -0.0779   -0.7569 H   0  0  0  0  0  0  0  0  0  0  0  0
    1.6551   -0.4972    2.0428 H   0  0  0  0  0  0  0  0  0  0  0  0
   -1.1853   -0.3209    2.0055 H   0  0  0  0  0  0  0  0  0  0  0  0
   -0.6589    1.3550    1.5529 H   0  0  0  0  0  0  0  0  0  0  0  0
  1  2  1  0  0  0  0
  1 10  1  0  0  0  0
  2  5  1  6  0  0  0
  3  2  1  6  0  0  0
  3  4  1  0  0  0  0
  3 12  1  0  0  0  0
  4 14  1  0  0  0  0
  4 13  1  0  0  0  0
  5  7  1  6  0  0  0
  5  6  1  0  0  0  0
  5  4  1  0  0  0  0
  6  3  1  0  0  0  0
  8  7  3  0  0  0  0
  9  1  1  0  0  0  0
 11  2  1  0  0  0  0
M  END
