title
 OpenBabel02282109593D

 17 18  0  0  1  0  0  0  0  0999 V2000
   -0.9758    1.9045   -0.8969 C   0  0  0  0  0  0  0  0  0  0  0  0
   -0.8021    0.3995   -0.8745 C   0  0  1  0  0  0  0  0  0  0  0  0
    0.3797   -0.2264   -1.6581 N   0  0  1  0  0  0  0  0  0  0  0  0
    1.2576    0.1716   -0.4501 C   0  0  0  0  0  0  0  0  0  0  0  0
   -0.0100   -0.3635    0.2415 C   0  0  2  0  0  0  0  0  0  0  0  0
    0.0661   -1.4844   -0.8292 C   0  0  0  0  0  0  0  0  0  0  0  0
   -0.3188   -0.4711    1.6992 C   0  0  0  0  0  0  0  0  0  0  0  0
    0.4108   -0.0758    2.5751 O   0  0  0  0  0  0  0  0  0  0  0  0
   -1.1664    2.2317   -1.9244 H   0  0  0  0  0  0  0  0  0  0  0  0
   -1.8441    2.1848   -0.2916 H   0  0  0  0  0  0  0  0  0  0  0  0
   -0.1144    2.4582   -0.5197 H   0  0  0  0  0  0  0  0  0  0  0  0
   -1.7429   -0.0804   -1.1663 H   0  0  0  0  0  0  0  0  0  0  0  0
    2.1661   -0.4281   -0.3646 H   0  0  0  0  0  0  0  0  0  0  0  0
    1.4892    1.2334   -0.3885 H   0  0  0  0  0  0  0  0  0  0  0  0
   -0.8586   -1.9871   -1.1242 H   0  0  0  0  0  0  0  0  0  0  0  0
    0.9038   -2.1823   -0.7629 H   0  0  0  0  0  0  0  0  0  0  0  0
   -1.2993   -0.9477    1.9369 H   0  0  0  0  0  0  0  0  0  0  0  0
  1  2  1  0  0  0  0
  1 11  1  0  0  0  0
  1 10  1  0  0  0  0
  2  3  1  6  0  0  0
  3  6  1  1  0  0  0
  3  4  1  0  0  0  0
  4 14  1  0  0  0  0
  4 13  1  0  0  0  0
  4  5  1  0  0  0  0
  5  2  1  6  0  0  0
  5  7  1  0  0  0  0
  6 16  1  0  0  0  0
  6  5  1  0  0  0  0
  7 17  1  0  0  0  0
  7  8  2  0  0  0  0
  9  1  1  0  0  0  0
 12  2  1  0  0  0  0
 15  6  1  0  0  0  0
M  END
