18
title
C -0.7003428 1.7887298 1.7393564
C -0.6176664 0.2573992 1.6842637
C 0.07206453 -0.24048604 0.44326067
C 1.5444309 0.032424044 -0.051672447
C 0.9632386 -0.88986355 -1.1747969
C 0.32980055 -1.7248799 -0.011805762
C -0.2933143 -0.019099105 -1.0375179
O -1.1144309 0.5343906 -1.7037078
H 0.29762375 2.239155 1.7582258
H -1.2297125 2.1800225 0.865575
H -1.2318832 2.11931 2.6362991
H -0.09817546 -0.12515749 2.5720842
H -1.6291878 -0.16712849 1.7134898
H 1.8109874 1.0557085 -0.32278788
H 2.3149068 -0.4405305 0.5630251
H 1.4684342 -1.2580694 -2.064089
H 1.0571284 -2.2608721 0.60369754
H -0.54090667 -2.342097 -0.24311398
