17
title
C -0.97580355 1.9044666 -0.89688164
C -0.80212945 0.39951423 -0.8744813
N 0.3797464 -0.22641706 -1.6581329
C 1.257597 0.17161909 -0.45011955
C -0.009965749 -0.3635111 0.24154049
C 0.06608811 -1.4843525 -0.8292183
C -0.31881407 -0.47105068 1.6992033
O 0.41078576 -0.075813025 2.5751104
H -1.1664256 2.231691 -1.9243883
H -1.8441186 2.1848373 -0.2915833
H -0.11437258 2.458224 -0.51967096
H -1.7429479 -0.08039144 -1.1662538
H 2.1661258 -0.42812914 -0.36456847
H 1.4891591 1.2334006 -0.38849413
H -0.858573 -1.9870626 -1.1241953
H 0.90382606 -2.1822968 -0.76291513
H -1.2992632 -0.94773036 1.936882
