14
title
O 1.128863 1.7962774 -0.06175885
C 1.0862721 0.4119258 -0.17701738
C 1.113643 -0.40829173 1.1320007
C -0.3186775 0.06636945 1.4700044
C -0.26829275 -0.3779793 -0.02037567
O 0.5420923 -1.5458183 0.36916912
C -1.3680934 -0.55852926 -1.0087324
O -1.9522732 0.3702569 -1.5103724
H 0.83317614 2.181672 -0.8935582
H 1.7210519 0.003548478 -0.9710513
H 1.951031 -0.62470734 1.7939171
H -0.88656 -0.59731406 2.1222026
H -0.47011003 1.1263928 1.6679518
H -1.6010772 -1.6166195 -1.2588655
