16
title
C 1.7479845 1.8106555 0.3017625
C 1.7611774 0.2765619 0.31596974
C 0.3897783 -0.30447447 0.18172021
C -0.12038348 -1.7682145 0.27879626
C -1.3855675 -0.8826191 0.31289357
O -0.65613854 0.057807606 1.2020266
C -0.7678505 -0.035194788 -0.8288503
O -1.0388368 0.5835329 -1.8050363
H 2.7613053 2.2067175 0.40919164
H 1.3290586 2.1878648 -0.635523
H 1.1385704 2.1977625 1.1226518
H 2.366858 -0.110366195 -0.5129951
H 2.2179942 -0.09773302 1.2400252
H 0.035897277 -2.4383643 -0.57087374
H 0.09923186 -2.2309632 1.2426422
H -2.4108562 -1.1310369 0.5757775
