20
title
C 1.6813409 2.2633376 0.06319234
C 1.5905868 0.73495024 0.13744226
C 0.17835829 0.2068502 0.16188212
C -0.9199126 0.41676944 1.2512188
C -1.5956087 -0.48580483 0.18195303
C -0.9622638 0.45206755 -0.88680404
C -0.26530567 -1.2959524 0.17748776
O 0.07466206 -2.167978 -0.86423093
H 2.7236633 2.5958767 0.046448935
H 1.194594 2.6461363 -0.84010744
H 1.1952401 2.731924 0.92541283
H 2.1141853 0.28918892 -0.71876836
H 2.1154234 0.37573373 1.0326314
H -0.73270464 -0.030426834 2.2324088
H -1.3222322 1.4281781 1.3420541
H -2.614457 -0.87425 0.19777425
H -1.3650508 1.467082 -0.9391485
H -0.8204472 0.061805394 -1.9009358
H -0.040458586 -1.8376707 1.1010323
H -0.14382508 -1.7567018 -1.7065675
