20
title
C -1.0659109 2.0515347 -0.9492777
C -0.88825464 0.5402955 -0.90804523
C 0.28500888 -0.17801613 -1.65287
C 1.2482537 0.31408793 -0.53443784
C -0.038990352 -0.1735844 0.20065363
C -0.29618552 -0.17471832 1.680463
O 0.71518975 -0.95474136 2.304463
C -0.0028734556 -1.4095228 -0.7483634
H -0.13729003 2.604736 -0.7886805
H -1.4680432 2.3587568 -1.9213083
H -1.7816079 2.3784134 -0.18631421
H -1.8583449 0.054862916 -1.074887
H 0.47272918 -0.18345755 -2.727739
H 2.1449747 -0.28694296 -0.36808738
H 1.4831594 1.378878 -0.49359363
H -0.2901049 0.86204964 2.0565648
H -1.2999309 -0.5876838 1.8773569
H 0.5576629 -0.9459045 3.2530305
H -0.95225096 -1.9292923 -0.91057557
H 0.8209674 -2.1098552 -0.59526867
