14
title
O 2.2406356 0.84977955 -0.58741885
C 1.5691289 0.52462804 0.6170366
C 0.27849296 -0.18247941 0.3125483
C -0.03365192 -1.627031 -0.1575063
C -1.3971444 -0.99509066 0.20596068
O -0.7435502 -0.3653415 1.3883159
C -0.9407836 0.29249027 -0.52984256
O -1.3165926 1.1938077 -1.2056502
H 1.7022403 1.4955992 -1.0586276
H 2.2427623 -0.12058255 1.1889416
H 1.3492401 1.409322 1.2326502
H 0.16724518 -1.8984181 -1.1962904
H 0.28653708 -2.3830566 0.56151813
H -2.369498 -1.4578246 0.3554946
