title
 OpenBabel02282109593D

 18 19  0  0  1  0  0  0  0  0999 V2000
    1.5969    2.2287   -0.0765 C   0  0  0  0  0  0  0  0  0  0  0  0
    1.5727    0.7149    0.1630 C   0  0  0  0  0  0  0  0  0  0  0  0
    0.1894    0.1514    0.2815 C   0  0  1  0  0  0  0  0  0  0  0  0
   -0.9730    0.4784    1.2495 C   0  0  0  0  0  0  0  0  0  0  0  0
   -1.5272   -0.4199    0.1306 C   0  0  1  0  0  0  0  0  0  0  0  0
   -0.7640    0.3812   -0.8648 O   0  0  0  0  0  0  0  0  0  0  0  0
   -0.2831   -1.3400    0.2605 C   0  0  1  0  0  0  0  0  0  0  0  0
    0.0818   -2.1169   -0.8288 O   0  0  0  0  0  0  0  0  0  0  0  0
    2.6228    2.5860   -0.2029 H   0  0  0  0  0  0  0  0  0  0  0  0
    1.0297    2.4849   -0.9753 H   0  0  0  0  0  0  0  0  0  0  0  0
    1.1533    2.7704    0.7649 H   0  0  0  0  0  0  0  0  0  0  0  0
    2.0806    0.1905   -0.6560 H   0  0  0  0  0  0  0  0  0  0  0  0
    2.1192    0.4604    1.0800 H   0  0  0  0  0  0  0  0  0  0  0  0
   -0.9241    0.0732    2.2640 H   0  0  0  0  0  0  0  0  0  0  0  0
   -1.3240    1.5094    1.2171 H   0  0  0  0  0  0  0  0  0  0  0  0
   -2.5593   -0.6645   -0.1205 H   0  0  0  0  0  0  0  0  0  0  0  0
   -0.1669   -1.9285    1.1736 H   0  0  0  0  0  0  0  0  0  0  0  0
   -0.0622   -1.5428   -1.5964 H   0  0  0  0  0  0  0  0  0  0  0  0
  1  2  1  0  0  0  0
  1 11  1  0  0  0  0
  2  3  1  0  0  0  0
  2 13  1  0  0  0  0
  3  7  1  1  0  0  0
  3  4  1  0  0  0  0
  4 14  1  0  0  0  0
  5  7  1  1  0  0  0
  5  4  1  0  0  0  0
  6  5  1  0  0  0  0
  6  3  1  0  0  0  0
  7 17  1  1  0  0  0
  8  7  1  0  0  0  0
  9  1  1  0  0  0  0
 10  1  1  0  0  0  0
 12  2  1  0  0  0  0
 15  4  1  0  0  0  0
 16  5  1  0  0  0  0
 18  8  1  0  0  0  0
M  END
