title
 OpenBabel02282109593D

 20 21  0  0  1  0  0  0  0  0999 V2000
   -0.8721    2.1761    1.3957 C   0  0  0  0  0  0  0  0  0  0  0  0
   -0.9211    0.6471    1.3017 C   0  0  0  0  0  0  0  0  0  0  0  0
   -0.3101    0.1174    0.0375 C   0  0  1  0  0  0  0  0  0  0  0  0
   -0.6111    0.4640   -1.4473 C   0  0  0  0  0  0  0  0  0  0  0  0
    0.6753   -0.3838   -1.3779 C   0  0  1  0  0  0  0  0  0  0  0  0
    1.1261    0.4407   -0.2341 O   0  0  0  0  0  0  0  0  0  0  0  0
   -0.0198   -1.3588   -0.3906 C   0  0  1  0  0  0  0  0  0  0  0  0
    0.8295   -2.2360    0.5088 C   0  0  0  0  0  0  0  0  0  0  0  0
    0.1583    2.5320    1.3123 H   0  0  0  0  0  0  0  0  0  0  0  0
   -1.4527    2.6403    0.5921 H   0  0  0  0  0  0  0  0  0  0  0  0
   -1.2810    2.5223    2.3493 H   0  0  0  0  0  0  0  0  0  0  0  0
   -0.3926    0.2001    2.1527 H   0  0  0  0  0  0  0  0  0  0  0  0
   -1.9579    0.2908    1.3545 H   0  0  0  0  0  0  0  0  0  0  0  0
   -1.4999    0.0253   -1.9091 H   0  0  0  0  0  0  0  0  0  0  0  0
   -0.4565    1.5083   -1.7203 H   0  0  0  0  0  0  0  0  0  0  0  0
    1.4082   -0.5928   -2.1579 H   0  0  0  0  0  0  0  0  0  0  0  0
   -0.8840   -1.8919   -0.8026 H   0  0  0  0  0  0  0  0  0  0  0  0
    1.6800   -1.6713    0.8965 H   0  0  0  0  0  0  0  0  0  0  0  0
    0.2452   -2.6137    1.3553 H   0  0  0  0  0  0  0  0  0  0  0  0
    1.2085   -3.1057   -0.0390 H   0  0  0  0  0  0  0  0  0  0  0  0
  1 11  1  0  0  0  0
  2 13  1  0  0  0  0
  2  1  1  0  0  0  0
  2 12  1  0  0  0  0
  3  7  1  1  0  0  0
  3  2  1  0  0  0  0
  4  5  1  0  0  0  0
  4  3  1  0  0  0  0
  5  7  1  1  0  0  0
  5  6  1  0  0  0  0
  6  3  1  0  0  0  0
  7 17  1  6  0  0  0
  7  8  1  0  0  0  0
  8 18  1  0  0  0  0
  8 19  1  0  0  0  0
  9  1  1  0  0  0  0
 10  1  1  0  0  0  0
 14  4  1  0  0  0  0
 15  4  1  0  0  0  0
 16  5  1  0  0  0  0
 20  8  1  0  0  0  0
M  END
