title
 OpenBabel02282109593D

 15 16  0  0  1  0  0  0  0  0999 V2000
    1.7152    1.6999    0.2549 O   0  0  0  0  0  0  0  0  0  0  0  0
    1.7450    0.2876    0.2754 C   0  0  0  0  0  0  0  0  0  0  0  0
    0.3529   -0.2698    0.2170 C   0  0  1  0  0  0  0  0  0  0  0  0
   -0.2116   -1.7209    0.3691 C   0  0  0  0  0  0  0  0  0  0  0  0
   -1.4683   -0.7902    0.3579 C   0  0  1  0  0  0  0  0  0  0  0  0
   -0.7074    0.2179    1.2206 N   0  0  0  0  0  0  0  0  0  0  0  0
   -0.7791   -0.0866   -0.8274 C   0  0  0  0  0  0  0  0  0  0  0  0
   -0.9792    0.3017   -1.9292 O   0  0  0  0  0  0  0  0  0  0  0  0
    0.9708    1.9731    0.8057 H   0  0  0  0  0  0  0  0  0  0  0  0
    2.3169   -0.0420   -0.5991 H   0  0  0  0  0  0  0  0  0  0  0  0
    2.2624   -0.0979    1.1710 H   0  0  0  0  0  0  0  0  0  0  0  0
   -0.0678   -2.4396   -0.4431 H   0  0  0  0  0  0  0  0  0  0  0  0
   -0.0121   -2.1644    1.3493 H   0  0  0  0  0  0  0  0  0  0  0  0
   -2.5106   -1.0407    0.5414 H   0  0  0  0  0  0  0  0  0  0  0  0
   -0.5088   -0.2453    2.1146 H   0  0  0  0  0  0  0  0  0  0  0  0
  1  2  1  0  0  0  0
  1  9  1  0  0  0  0
  2 11  1  0  0  0  0
  3  2  1  6  0  0  0
  3  4  1  0  0  0  0
  3  6  1  0  0  0  0
  4 13  1  0  0  0  0
  5  4  1  0  0  0  0
  5 14  1  1  0  0  0
  5  6  1  0  0  0  0
  6 15  1  0  0  0  0
  7  3  1  0  0  0  0
  7  5  1  0  0  0  0
  8  7  2  0  0  0  0
 10  2  1  0  0  0  0
 12  4  1  0  0  0  0
M  END
