title
 OpenBabel02282109593D

 12 13  0  0  1  0  0  0  0  0999 V2000
   -0.0485    2.6877    0.0512 N   0  0  0  0  0  0  0  0  0  0  0  0
   -0.0735    1.4433    0.1361 C   0  0  0  0  0  0  0  0  0  0  0  0
    0.9727    0.5187    0.2887 O   0  0  0  0  0  0  0  0  0  0  0  0
    0.0349   -0.5746    0.1267 C   0  0  1  0  0  0  0  0  0  0  0  0
   -0.9565   -0.5535    1.2453 C   0  0  0  0  0  0  0  0  0  0  0  0
   -1.1395    0.3967    0.0684 C   0  0  1  0  0  0  0  0  0  0  0  0
    0.3950   -1.6786   -0.6964 C   0  0  0  0  0  0  0  0  0  0  0  0
    0.6744   -2.5880   -1.3539 N   0  0  0  0  0  0  0  0  0  0  0  0
    0.9003    3.0579    0.1205 H   0  0  0  0  0  0  0  0  0  0  0  0
   -1.6630   -1.3766    1.2690 H   0  0  0  0  0  0  0  0  0  0  0  0
   -0.6293   -0.1804    2.2100 H   0  0  0  0  0  0  0  0  0  0  0  0
   -2.0141    0.3983   -0.5645 H   0  0  0  0  0  0  0  0  0  0  0  0
  1  9  1  0  0  0  0
  1  2  2  0  0  0  0
  2  3  1  0  0  0  0
  4  6  1  6  0  0  0
  4  3  1  0  0  0  0
  4  5  1  0  0  0  0
  5 10  1  0  0  0  0
  5 11  1  0  0  0  0
  6 12  1  6  0  0  0
  6  2  1  0  0  0  0
  6  5  1  0  0  0  0
  7  4  1  0  0  0  0
  8  7  3  0  0  0  0
M  END
