13
title
O -0.01766879 -2.705605 0.053593565
C -0.029813202 -1.5172963 0.1729976
C -1.1779089 -0.47793534 0.28934324
C -0.10274159 0.61821294 0.12971804
C 0.8965973 0.50155044 1.2392083
C 1.0332909 -0.45535973 0.07086281
C -0.23250782 1.7757542 -0.6913241
N -0.35054633 2.7146623 -1.3574669
H -1.8482033 -0.56353116 -0.5696147
H -1.7648952 -0.45179608 1.2107352
H 1.6630456 1.2676308 1.2755235
H 0.56528443 0.1432328 2.2093015
H 1.9259679 -0.4761968 -0.5410168
