title
 OpenBabel02282109593D

 18 19  0  0  1  0  0  0  0  0999 V2000
   -0.8917    2.1043    1.2686 C   0  0  0  0  0  0  0  0  0  0  0  0
   -0.8499    0.6938    1.1730 O   0  0  0  0  0  0  0  0  0  0  0  0
   -0.2137    0.2215    0.0511 C   0  0  1  0  0  0  0  0  0  0  0  0
   -0.6311    0.3825   -1.4484 C   0  0  0  0  0  0  0  0  0  0  0  0
    0.6248   -0.5299   -1.4449 C   0  0  1  0  0  0  0  0  0  0  0  0
    1.2711    0.4380   -0.4112 C   0  0  0  0  0  0  0  0  0  0  0  0
   -0.0355   -1.2800   -0.2403 C   0  0  1  0  0  0  0  0  0  0  0  0
    0.7657   -1.9830    0.6709 O   0  0  0  0  0  0  0  0  0  0  0  0
    0.1173    2.5389    1.2972 H   0  0  0  0  0  0  0  0  0  0  0  0
   -1.4420    2.5527    0.4292 H   0  0  0  0  0  0  0  0  0  0  0  0
   -1.4081    2.3455    2.2001 H   0  0  0  0  0  0  0  0  0  0  0  0
   -1.5797   -0.0717   -1.7487 H   0  0  0  0  0  0  0  0  0  0  0  0
   -0.4954    1.3715   -1.8900 H   0  0  0  0  0  0  0  0  0  0  0  0
    1.1048   -0.9741   -2.3139 H   0  0  0  0  0  0  0  0  0  0  0  0
    1.5300    1.4318   -0.7845 H   0  0  0  0  0  0  0  0  0  0  0  0
    2.0427    0.0193    0.2328 H   0  0  0  0  0  0  0  0  0  0  0  0
   -0.9604   -1.8239   -0.4754 H   0  0  0  0  0  0  0  0  0  0  0  0
    0.9496   -2.8517    0.3009 H   0  0  0  0  0  0  0  0  0  0  0  0
  1  9  1  0  0  0  0
  1 11  1  0  0  0  0
  2  1  1  0  0  0  0
  3  7  1  1  0  0  0
  3  2  1  0  0  0  0
  4  5  1  0  0  0  0
  4  3  1  0  0  0  0
  5 14  1  6  0  0  0
  5  6  1  0  0  0  0
  6  3  1  0  0  0  0
  6 16  1  0  0  0  0
  7  5  1  6  0  0  0
  7  8  1  0  0  0  0
 10  1  1  0  0  0  0
 12  4  1  0  0  0  0
 13  4  1  0  0  0  0
 15  6  1  0  0  0  0
 17  7  1  0  0  0  0
 18  8  1  0  0  0  0
M  END
