18
title
O 1.6817921 2.093482 0.17072631
C 1.5877475 0.6745671 0.17230621
C 0.1668394 0.17806692 0.16374773
C -0.9403418 0.42539334 1.2297912
C -1.628584 -0.44458514 0.1412051
C -0.93692404 0.4735655 -0.9107293
C -0.33169803 -1.3092608 0.15783702
O -0.009540876 -2.189574 -0.881078
H 1.2692796 2.410331 -0.63924986
H 2.1374972 0.23316495 -0.67498106
H 2.0900304 0.34412614 1.0884725
H -0.7898906 -0.034340493 2.2109332
H -1.2937115 1.4540995 1.3173622
H -2.6617496 -0.7931878 0.13030092
H -1.3022693 1.5031512 -0.96255624
H -0.7878023 0.08282746 -1.9234564
H -0.14607759 -1.861659 1.0832717
H -0.23743005 -1.7864914 -1.7248132
