title
 OpenBabel02282109593D

 13 14  0  0  1  0  0  0  0  0999 V2000
   -0.0177   -2.7056    0.0536 O   0  0  0  0  0  0  0  0  0  0  0  0
   -0.0298   -1.5173    0.1730 C   0  0  0  0  0  0  0  0  0  0  0  0
   -1.1779   -0.4779    0.2893 C   0  0  0  0  0  0  0  0  0  0  0  0
   -0.1027    0.6182    0.1297 C   0  0  1  0  0  0  0  0  0  0  0  0
    0.8966    0.5016    1.2392 C   0  0  0  0  0  0  0  0  0  0  0  0
    1.0333   -0.4554    0.0709 C   0  0  1  0  0  0  0  0  0  0  0  0
   -0.2325    1.7758   -0.6913 C   0  0  0  0  0  0  0  0  0  0  0  0
   -0.3505    2.7147   -1.3575 N   0  0  0  0  0  0  0  0  0  0  0  0
   -1.8482   -0.5635   -0.5696 H   0  0  0  0  0  0  0  0  0  0  0  0
   -1.7649   -0.4518    1.2107 H   0  0  0  0  0  0  0  0  0  0  0  0
    1.6630    1.2676    1.2755 H   0  0  0  0  0  0  0  0  0  0  0  0
    0.5653    0.1432    2.2093 H   0  0  0  0  0  0  0  0  0  0  0  0
    1.9260   -0.4762   -0.5410 H   0  0  0  0  0  0  0  0  0  0  0  0
  1  2  2  0  0  0  0
  2  3  1  0  0  0  0
  3 10  1  0  0  0  0
  4  6  1  6  0  0  0
  4  3  1  0  0  0  0
  4  5  1  0  0  0  0
  5 11  1  0  0  0  0
  5 12  1  0  0  0  0
  6 13  1  6  0  0  0
  6  2  1  0  0  0  0
  6  5  1  0  0  0  0
  7  4  1  0  0  0  0
  8  7  3  0  0  0  0
  9  3  1  0  0  0  0
M  END
