13
title
N -0.042438053 2.7173827 0.113615684
C 0.11532092 1.4754128 0.1317586
C 1.2446007 0.44387388 0.20494205
C 0.12090673 -0.59978557 0.15655494
C -0.89633226 -0.34174275 1.2007203
N -0.9522991 0.49334228 -0.022019459
C 0.1456738 -1.782335 -0.64696455
N 0.20461214 -2.7494783 -1.278489
H 0.84739417 3.2078235 0.2136043
H 1.8631768 0.44794738 -0.6952979
H 1.8857347 0.4393202 1.0898268
H -1.7292747 -1.0325398 1.271002
H -0.5880509 0.11511732 2.1378846
