title
 OpenBabel02282109593D

 19 20  0  0  1  0  0  0  0  0999 V2000
   -1.2696    1.8820    1.3503 C   0  0  0  0  0  0  0  0  0  0  0  0
   -0.9958    0.5003    1.2049 O   0  0  0  0  0  0  0  0  0  0  0  0
   -0.2516    0.1852    0.0880 C   0  0  1  0  0  0  0  0  0  0  0  0
   -0.5735    0.3527   -1.4226 C   0  0  0  0  0  0  0  0  0  0  0  0
    0.7807   -0.3697   -1.4293 N   0  0  1  0  0  0  0  0  0  0  0  0
    1.1805    0.6228   -0.3266 C   0  0  0  0  0  0  0  0  0  0  0  0
    0.1738   -1.2439   -0.2986 C   0  0  1  0  0  0  0  0  0  0  0  0
    1.0966   -2.1090    0.5354 C   0  0  0  0  0  0  0  0  0  0  0  0
   -0.3460    2.4719    1.4361 H   0  0  0  0  0  0  0  0  0  0  0  0
   -1.8550    2.2707    0.5052 H   0  0  0  0  0  0  0  0  0  0  0  0
   -1.8506    1.9993    2.2672 H   0  0  0  0  0  0  0  0  0  0  0  0
   -1.3883   -0.2403   -1.8459 H   0  0  0  0  0  0  0  0  0  0  0  0
   -0.5261    1.3519   -1.8618 H   0  0  0  0  0  0  0  0  0  0  0  0
    1.3207    1.6391   -0.7028 H   0  0  0  0  0  0  0  0  0  0  0  0
    2.0328    0.3099    0.2754 H   0  0  0  0  0  0  0  0  0  0  0  0
   -0.6396   -1.8590   -0.6994 H   0  0  0  0  0  0  0  0  0  0  0  0
    1.8952   -1.5569    1.0346 H   0  0  0  0  0  0  0  0  0  0  0  0
    0.5124   -2.6178    1.3090 H   0  0  0  0  0  0  0  0  0  0  0  0
    1.5571   -2.8761   -0.0957 H   0  0  0  0  0  0  0  0  0  0  0  0
  1  9  1  0  0  0  0
  1 11  1  0  0  0  0
  2  1  1  0  0  0  0
  3  7  1  1  0  0  0
  3  2  1  0  0  0  0
  4  3  1  0  0  0  0
  5  4  1  6  0  0  0
  5  6  1  0  0  0  0
  6  3  1  0  0  0  0
  6 15  1  0  0  0  0
  7  5  1  6  0  0  0
  7  8  1  0  0  0  0
  8 17  1  0  0  0  0
  8 18  1  0  0  0  0
 10  1  1  0  0  0  0
 12  4  1  0  0  0  0
 13  4  1  0  0  0  0
 14  6  1  0  0  0  0
 16  7  1  0  0  0  0
 19  8  1  0  0  0  0
M  END
