title
 OpenBabel02282109593D

 13 14  0  0  1  0  0  0  0  0999 V2000
   -0.0428    2.6764    0.0281 N   0  0  0  0  0  0  0  0  0  0  0  0
   -0.0722    1.4296    0.1258 C   0  0  0  0  0  0  0  0  0  0  0  0
    0.9682    0.5115    0.2889 O   0  0  0  0  0  0  0  0  0  0  0  0
    0.0277   -0.5950    0.1186 C   0  0  1  0  0  0  0  0  0  0  0  0
   -0.9562   -0.5554    1.2430 C   0  0  0  0  0  0  0  0  0  0  0  0
   -1.1406    0.3905    0.0611 C   0  0  1  0  0  0  0  0  0  0  0  0
    0.3951   -1.6972   -0.6899 C   0  0  0  0  0  0  0  0  0  0  0  0
    0.7096   -2.6418   -1.3641 C   0  0  0  0  0  0  0  0  0  0  0  0
    0.9117    3.0332    0.0955 H   0  0  0  0  0  0  0  0  0  0  0  0
   -1.6667   -1.3748    1.2736 H   0  0  0  0  0  0  0  0  0  0  0  0
   -0.6330   -0.1734    2.2060 H   0  0  0  0  0  0  0  0  0  0  0  0
   -2.0207    0.3994   -0.5639 H   0  0  0  0  0  0  0  0  0  0  0  0
    0.9900   -3.4726   -1.9636 H   0  0  0  0  0  0  0  0  0  0  0  0
  1  9  1  0  0  0  0
  1  2  2  0  0  0  0
  2  3  1  0  0  0  0
  4  6  1  6  0  0  0
  4  3  1  0  0  0  0
  4  5  1  0  0  0  0
  5 10  1  0  0  0  0
  5 11  1  0  0  0  0
  6 12  1  6  0  0  0
  6  2  1  0  0  0  0
  6  5  1  0  0  0  0
  7  4  1  0  0  0  0
  8  7  3  0  0  0  0
 13  8  1  0  0  0  0
M  END
