title
 OpenBabel02282109593D

 12 13  0  0  1  0  0  0  0  0999 V2000
    0.0208   -2.7214    0.1087 O   0  0  0  0  0  0  0  0  0  0  0  0
   -0.0231   -1.5316    0.1730 C   0  0  0  0  0  0  0  0  0  0  0  0
   -1.1858   -0.4954    0.2396 C   0  0  0  0  0  0  0  0  0  0  0  0
   -0.1075    0.5851    0.0176 C   0  0  1  0  0  0  0  0  0  0  0  0
    0.7867    0.4638    1.1292 O   0  0  0  0  0  0  0  0  0  0  0  0
    1.0097   -0.4164    0.0148 C   0  0  1  0  0  0  0  0  0  0  0  0
   -0.2228    1.8170   -0.6806 C   0  0  0  0  0  0  0  0  0  0  0  0
   -0.3687    2.8530   -1.2724 C   0  0  0  0  0  0  0  0  0  0  0  0
   -1.8725   -0.6351   -0.5996 H   0  0  0  0  0  0  0  0  0  0  0  0
   -1.7397   -0.4094    1.1756 H   0  0  0  0  0  0  0  0  0  0  0  0
    1.9838   -0.3973   -0.4597 H   0  0  0  0  0  0  0  0  0  0  0  0
   -0.4856    3.7712   -1.7938 H   0  0  0  0  0  0  0  0  0  0  0  0
  1  2  2  0  0  0  0
  2  3  1  0  0  0  0
  3 10  1  0  0  0  0
  4  6  1  6  0  0  0
  4  3  1  0  0  0  0
  4  5  1  0  0  0  0
  6 11  1  6  0  0  0
  6  2  1  0  0  0  0
  6  5  1  0  0  0  0
  7  4  1  0  0  0  0
  8  7  3  0  0  0  0
  9  3  1  0  0  0  0
 12  8  1  0  0  0  0
M  END
