12
title
O -0.011498931 -2.7220833 0.082742356
C -0.040579088 -1.534973 0.17699341
C -1.1925651 -0.49117318 0.2806538
C -0.111723326 0.5862583 0.07389267
N 0.8130992 0.4432436 1.214084
C 1.0055897 -0.43950573 0.0283639
C -0.21629481 1.7864481 -0.68531436
N -0.3116688 2.7666101 -1.293279
H -1.8811331 -0.59951437 -0.56085455
H -1.7394917 -0.4308218 1.2223465
H 1.5229039 1.1746694 1.1511731
H 1.9324609 -0.43544546 -0.53112036
