12
title
O -0.045791503 -2.598564 0.007738933
C 0.05827981 -1.4214281 0.10105202
O -0.96140206 -0.49782103 0.31038645
C -0.01603529 0.6066235 0.12867795
C 0.9870332 0.5445369 1.2310921
C 1.1418837 -0.3792588 0.021536388
C -0.39541653 1.7168766 -0.66300416
C -0.7187955 2.6693325 -1.3210828
H 1.7080725 1.3547508 1.2656068
H 0.68210953 0.14162332 2.1912472
H 2.010009 -0.38236445 -0.62044823
H -1.0082549 3.5067935 -1.907267
