12
title
O -0.03362831 -2.648278 0.06578291
C -0.10996963 -1.4656712 0.11206881
C -1.2411253 -0.43174636 0.23404787
C -0.116492614 0.60976255 0.17293382
C 0.9154026 0.34270084 1.1964244
N 0.9595191 -0.47654402 -0.0462222
C -0.1534066 1.797556 -0.6229035
N -0.21785049 2.7698874 -1.2453368
H -1.883255 -0.43748057 -0.6494003
H -1.8556943 -0.45193756 1.1363119
H 1.7533158 1.0270711 1.2679895
H 0.62087995 -0.1313647 2.1295552
