title
 OpenBabel02282109593D

 13 14  0  0  1  0  0  0  0  0999 V2000
    0.0103   -2.7098    0.0597 O   0  0  0  0  0  0  0  0  0  0  0  0
   -0.0219   -1.5221    0.1776 C   0  0  0  0  0  0  0  0  0  0  0  0
   -1.1791   -0.4882    0.2957 C   0  0  0  0  0  0  0  0  0  0  0  0
   -0.1120    0.6020    0.0672 C   0  0  1  0  0  0  0  0  0  0  0  0
    0.8151    0.4689    1.2104 N   0  0  0  0  0  0  0  0  0  0  0  0
    1.0115   -0.4246    0.0292 C   0  0  1  0  0  0  0  0  0  0  0  0
   -0.2397    1.7949   -0.6908 C   0  0  0  0  0  0  0  0  0  0  0  0
   -0.3713    2.8109   -1.3220 C   0  0  0  0  0  0  0  0  0  0  0  0
   -1.8794   -0.6050   -0.5349 H   0  0  0  0  0  0  0  0  0  0  0  0
   -1.7133   -0.4317    1.2454 H   0  0  0  0  0  0  0  0  0  0  0  0
    1.5165    1.2062    1.1246 H   0  0  0  0  0  0  0  0  0  0  0  0
    1.9421   -0.4236   -0.5244 H   0  0  0  0  0  0  0  0  0  0  0  0
   -0.4834    3.7060   -1.8825 H   0  0  0  0  0  0  0  0  0  0  0  0
  1  2  2  0  0  0  0
  2  3  1  0  0  0  0
  3 10  1  0  0  0  0
  4  6  1  6  0  0  0
  4  3  1  0  0  0  0
  4  5  1  0  0  0  0
  6 12  1  6  0  0  0
  6  2  1  0  0  0  0
  6  5  1  0  0  0  0
  7  4  1  0  0  0  0
  8  7  3  0  0  0  0
  9  3  1  0  0  0  0
 11  5  1  0  0  0  0
 13  8  1  0  0  0  0
M  END
