title
 OpenBabel02282109593D

 13 14  0  0  1  0  0  0  0  0999 V2000
   -0.2053    2.6461    0.1024 N   0  0  0  0  0  0  0  0  0  0  0  0
   -0.2032    1.4000    0.1919 C   0  0  0  0  0  0  0  0  0  0  0  0
    0.8564    0.4980    0.3280 O   0  0  0  0  0  0  0  0  0  0  0  0
   -0.0494   -0.6104    0.1591 C   0  0  1  0  0  0  0  0  0  0  0  0
   -1.0452   -0.6206    1.2813 C   0  0  0  0  0  0  0  0  0  0  0  0
   -1.2589    0.3410    0.1336 C   0  0  1  0  0  0  0  0  0  0  0  0
    0.2760   -1.7266   -0.7398 C   0  0  0  0  0  0  0  0  0  0  0  0
    1.3126   -1.8493   -1.3388 O   0  0  0  0  0  0  0  0  0  0  0  0
    0.7400    3.0286    0.1555 H   0  0  0  0  0  0  0  0  0  0  0  0
   -1.7348   -1.4592    1.3008 H   0  0  0  0  0  0  0  0  0  0  0  0
   -0.7171   -0.2600    2.2504 H   0  0  0  0  0  0  0  0  0  0  0  0
   -2.1349    0.3344   -0.4982 H   0  0  0  0  0  0  0  0  0  0  0  0
   -0.5502   -2.4695   -0.8153 H   0  0  0  0  0  0  0  0  0  0  0  0
  1  9  1  0  0  0  0
  1  2  2  0  0  0  0
  2  3  1  0  0  0  0
  4  6  1  6  0  0  0
  4  3  1  0  0  0  0
  4  5  1  0  0  0  0
  5 10  1  0  0  0  0
  5 11  1  0  0  0  0
  6 12  1  6  0  0  0
  6  2  1  0  0  0  0
  6  5  1  0  0  0  0
  7  4  1  0  0  0  0
  8  7  2  0  0  0  0
 13  7  1  0  0  0  0
M  END
