title
 OpenBabel02282109593D

 13 14  0  0  1  0  0  0  0  0999 V2000
    0.0608   -2.6697    0.1518 O   0  0  0  0  0  0  0  0  0  0  0  0
    0.0495   -1.4748    0.0987 C   0  0  0  0  0  0  0  0  0  0  0  0
   -1.0079   -0.5463    0.1060 N   0  0  0  0  0  0  0  0  0  0  0  0
   -0.0933    0.6071    0.1002 C   0  0  1  0  0  0  0  0  0  0  0  0
    0.8802    0.5253    1.2484 C   0  0  0  0  0  0  0  0  0  0  0  0
    1.0928   -0.3652    0.0307 C   0  0  1  0  0  0  0  0  0  0  0  0
   -0.3614    1.7750   -0.6662 C   0  0  0  0  0  0  0  0  0  0  0  0
   -0.5979    2.7766   -1.2883 C   0  0  0  0  0  0  0  0  0  0  0  0
   -1.8205   -0.6186    0.7086 H   0  0  0  0  0  0  0  0  0  0  0  0
    1.5812    1.3492    1.3401 H   0  0  0  0  0  0  0  0  0  0  0  0
    0.5541    0.0900    2.1885 H   0  0  0  0  0  0  0  0  0  0  0  0
    1.9744   -0.3118   -0.5911 H   0  0  0  0  0  0  0  0  0  0  0  0
   -0.8052    3.6532   -1.8507 H   0  0  0  0  0  0  0  0  0  0  0  0
  2  3  1  0  0  0  0
  2  1  2  0  0  0  0
  3  9  1  0  0  0  0
  4  6  1  6  0  0  0
  4  3  1  0  0  0  0
  4  5  1  0  0  0  0
  5 10  1  0  0  0  0
  5 11  1  0  0  0  0
  6 12  1  6  0  0  0
  6  2  1  0  0  0  0
  6  5  1  0  0  0  0
  7  4  1  0  0  0  0
  8  7  3  0  0  0  0
 13  8  1  0  0  0  0
M  END
