title
 OpenBabel02282109593D

 17 18  0  0  1  0  0  0  0  0999 V2000
   -1.6497    2.2104   -0.2504 C   0  0  0  0  0  0  0  0  0  0  0  0
   -1.2783    0.7398   -0.3141 C   0  0  1  0  0  0  0  0  0  0  0  0
   -0.1661    0.2442   -1.2794 C   0  0  0  0  0  0  0  0  0  0  0  0
    0.5325   -0.3379   -0.0436 C   0  0  1  0  0  0  0  0  0  0  0  0
    0.7664    0.7364    0.9512 C   0  0  0  0  0  0  0  0  0  0  0  0
   -0.5827    0.1579    0.9002 N   0  0  1  0  0  0  0  0  0  0  0  0
    1.1195   -1.6337    0.0327 C   0  0  0  0  0  0  0  0  0  0  0  0
    1.6271   -2.7245    0.0568 C   0  0  0  0  0  0  0  0  0  0  0  0
   -0.7762    2.8620   -0.1541 H   0  0  0  0  0  0  0  0  0  0  0  0
   -2.1805    2.5037   -1.1625 H   0  0  0  0  0  0  0  0  0  0  0  0
   -2.3109    2.3991    0.6016 H   0  0  0  0  0  0  0  0  0  0  0  0
   -2.1869    0.1476   -0.4511 H   0  0  0  0  0  0  0  0  0  0  0  0
   -0.5110   -0.5157   -1.9812 H   0  0  0  0  0  0  0  0  0  0  0  0
    0.4070    0.9999   -1.8251 H   0  0  0  0  0  0  0  0  0  0  0  0
    1.2991    0.4631    1.8561 H   0  0  0  0  0  0  0  0  0  0  0  0
    0.9484    1.7516    0.6059 H   0  0  0  0  0  0  0  0  0  0  0  0
    2.0721   -3.6879    0.0903 H   0  0  0  0  0  0  0  0  0  0  0  0
  1  9  1  0  0  0  0
  1 11  1  0  0  0  0
  2  1  1  0  0  0  0
  2  6  1  1  0  0  0
  3  2  1  0  0  0  0
  3  4  1  0  0  0  0
  4  7  1  0  0  0  0
  4  6  1  1  0  0  0
  4  5  1  0  0  0  0
  5 15  1  0  0  0  0
  6  5  1  1  0  0  0
  7  8  3  0  0  0  0
  8 17  1  0  0  0  0
 10  1  1  0  0  0  0
 12  2  1  0  0  0  0
 13  3  1  0  0  0  0
 14  3  1  0  0  0  0
 16  5  1  0  0  0  0
M  END
