13
title
O -1.9651155 -1.7377249 0.68896055
C -1.2142982 -1.5138733 -0.22747886
C -0.035117853 -0.6281618 -0.1177521
C 0.4420712 0.13070513 1.1271267
C 0.6747184 1.3496487 0.19240087
O 0.9256816 2.5014246 0.38619095
C 0.25559473 0.5744269 -1.0450916
N 0.99186945 -0.68216586 -1.138039
H -1.3536589 -1.9491051 -1.2394488
H -0.3531412 0.3496504 1.8446003
H 1.2973802 -0.29986998 1.654918
H -0.27064085 0.9316704 -1.9227363
H 1.9298809 -0.6348473 -0.7445948
