title
 OpenBabel02282109593D

 13 14  0  0  1  0  0  0  0  0999 V2000
   -1.9651   -1.7377    0.6890 O   0  0  0  0  0  0  0  0  0  0  0  0
   -1.2143   -1.5139   -0.2275 C   0  0  0  0  0  0  0  0  0  0  0  0
   -0.0351   -0.6282   -0.1178 C   0  0  2  0  0  0  0  0  0  0  0  0
    0.4421    0.1307    1.1271 C   0  0  0  0  0  0  0  0  0  0  0  0
    0.6747    1.3496    0.1924 C   0  0  0  0  0  0  0  0  0  0  0  0
    0.9257    2.5014    0.3862 O   0  0  0  0  0  0  0  0  0  0  0  0
    0.2556    0.5744   -1.0451 C   0  0  1  0  0  0  0  0  0  0  0  0
    0.9919   -0.6822   -1.1380 N   0  0  0  0  0  0  0  0  0  0  0  0
   -1.3537   -1.9491   -1.2394 H   0  0  0  0  0  0  0  0  0  0  0  0
   -0.3531    0.3497    1.8446 H   0  0  0  0  0  0  0  0  0  0  0  0
    1.2974   -0.2999    1.6549 H   0  0  0  0  0  0  0  0  0  0  0  0
   -0.2706    0.9317   -1.9227 H   0  0  0  0  0  0  0  0  0  0  0  0
    1.9299   -0.6348   -0.7446 H   0  0  0  0  0  0  0  0  0  0  0  0
  2  3  1  0  0  0  0
  2  1  2  0  0  0  0
  3  7  1  6  0  0  0
  3  4  1  0  0  0  0
  4 11  1  0  0  0  0
  4 10  1  0  0  0  0
  5  6  2  0  0  0  0
  5  4  1  0  0  0  0
  7 12  1  6  0  0  0
  7  5  1  0  0  0  0
  8  7  1  0  0  0  0
  8 13  1  0  0  0  0
  8  3  1  0  0  0  0
  9  2  1  0  0  0  0
M  END
