title
 OpenBabel02282109593D

 17 18  0  0  1  0  0  0  0  0999 V2000
   -1.4580    2.4310   -0.2462 C   0  0  0  0  0  0  0  0  0  0  0  0
   -1.2556    0.9217   -0.2763 C   0  0  1  0  0  0  0  0  0  0  0  0
   -0.1695    0.3139   -1.2315 C   0  0  0  0  0  0  0  0  0  0  0  0
    0.4678   -0.4058   -0.0284 C   0  0  1  0  0  0  0  0  0  0  0  0
    0.8818    0.6079    1.0148 C   0  0  0  0  0  0  0  0  0  0  0  0
   -0.5661    0.2441    0.9202 C   0  0  1  0  0  0  0  0  0  0  0  0
    0.9617   -1.7422   -0.0360 C   0  0  0  0  0  0  0  0  0  0  0  0
    1.3552   -2.8313   -0.0571 N   0  0  0  0  0  0  0  0  0  0  0  0
   -0.5220    2.9629   -0.0474 H   0  0  0  0  0  0  0  0  0  0  0  0
   -1.8458    2.7897   -1.2056 H   0  0  0  0  0  0  0  0  0  0  0  0
   -2.1752    2.7154    0.5310 H   0  0  0  0  0  0  0  0  0  0  0  0
   -2.2126    0.4285   -0.4690 H   0  0  0  0  0  0  0  0  0  0  0  0
   -0.5871   -0.3695   -1.9715 H   0  0  0  0  0  0  0  0  0  0  0  0
    0.4903    1.0257   -1.7371 H   0  0  0  0  0  0  0  0  0  0  0  0
    1.4077    0.1988    1.8704 H   0  0  0  0  0  0  0  0  0  0  0  0
    1.2465    1.5768    0.6843 H   0  0  0  0  0  0  0  0  0  0  0  0
   -1.0764   -0.2322    1.7485 H   0  0  0  0  0  0  0  0  0  0  0  0
  1  9  1  0  0  0  0
  1 11  1  0  0  0  0
  2  1  1  0  0  0  0
  2  6  1  1  0  0  0
  3  2  1  0  0  0  0
  3  4  1  0  0  0  0
  4  6  1  1  0  0  0
  4  5  1  0  0  0  0
  5 15  1  0  0  0  0
  6  5  1  0  0  0  0
  6 17  1  1  0  0  0
  7  4  1  0  0  0  0
  8  7  3  0  0  0  0
 10  1  1  0  0  0  0
 12  2  1  0  0  0  0
 13  3  1  0  0  0  0
 14  3  1  0  0  0  0
 16  5  1  0  0  0  0
M  END
