title
 OpenBabel02282109593D

 13 14  0  0  1  0  0  0  0  0999 V2000
   -1.7568   -1.8927    0.3756 O   0  0  0  0  0  0  0  0  0  0  0  0
   -1.7461   -0.6848    0.3277 C   0  0  0  0  0  0  0  0  0  0  0  0
   -0.5251    0.1137    0.4289 C   0  0  2  0  0  0  0  0  0  0  0  0
   -0.4066    1.5669    0.7987 C   0  0  0  0  0  0  0  0  0  0  0  0
    0.0113    1.1515   -0.5897 C   0  0  1  0  0  0  0  0  0  0  0  0
    1.2866    0.2907   -0.5622 C   0  0  0  0  0  0  0  0  0  0  0  0
    2.2790    0.2401   -1.2264 O   0  0  0  0  0  0  0  0  0  0  0  0
    0.8137   -0.4857    0.5002 N   0  0  0  0  0  0  0  0  0  0  0  0
   -2.6759   -0.0877    0.2080 H   0  0  0  0  0  0  0  0  0  0  0  0
   -1.3291    2.1400    0.8393 H   0  0  0  0  0  0  0  0  0  0  0  0
    0.3396    1.8255    1.5426 H   0  0  0  0  0  0  0  0  0  0  0  0
   -0.4707    1.5225   -1.4830 H   0  0  0  0  0  0  0  0  0  0  0  0
    0.9831   -1.4714    0.6392 H   0  0  0  0  0  0  0  0  0  0  0  0
  2  1  2  0  0  0  0
  2  3  1  0  0  0  0
  3  5  1  6  0  0  0
  3  8  1  0  0  0  0
  3  4  1  0  0  0  0
  4 10  1  0  0  0  0
  4 11  1  0  0  0  0
  5 12  1  6  0  0  0
  5  6  1  0  0  0  0
  5  4  1  0  0  0  0
  6  8  1  0  0  0  0
  7  6  2  0  0  0  0
  8 13  1  0  0  0  0
  9  2  1  0  0  0  0
M  END
