12
title
O -1.42689 -2.35464 -0.5223268
C -1.3440437 -1.4080162 0.21502316
C -0.18973379 -0.4732052 0.25237137
C 0.1977684 0.5667783 1.3181674
C 0.60946244 1.4921321 0.13193777
O 0.894792 2.645447 0.043203823
C 0.27286455 0.4014343 -0.88782203
O 0.9904143 -0.7611177 -0.47640914
H -2.1479964 -1.1442777 0.93656975
H -0.63873875 1.0063914 1.8695077
H 0.9805376 0.24911106 2.0085166
H -0.06228236 0.45291674 -1.9176688
