title
 OpenBabel02282109593D

 16 17  0  0  1  0  0  0  0  0999 V2000
   -1.6230    2.2405   -0.2720 C   0  0  0  0  0  0  0  0  0  0  0  0
   -1.2749    0.7652   -0.3286 C   0  0  1  0  0  0  0  0  0  0  0  0
   -0.1663    0.2466   -1.2893 C   0  0  0  0  0  0  0  0  0  0  0  0
    0.5171   -0.3262   -0.0436 C   0  0  1  0  0  0  0  0  0  0  0  0
    0.7685    0.7426    0.9531 C   0  0  0  0  0  0  0  0  0  0  0  0
   -0.5848    0.1793    0.8921 N   0  0  1  0  0  0  0  0  0  0  0  0
    1.0832   -1.6374    0.0515 C   0  0  0  0  0  0  0  0  0  0  0  0
    1.5551   -2.6931    0.0924 N   0  0  0  0  0  0  0  0  0  0  0  0
   -0.7403    2.8800   -0.1802 H   0  0  0  0  0  0  0  0  0  0  0  0
   -2.1495    2.5347   -1.1859 H   0  0  0  0  0  0  0  0  0  0  0  0
   -2.2818    2.4427    0.5785 H   0  0  0  0  0  0  0  0  0  0  0  0
   -2.1899    0.1827   -0.4604 H   0  0  0  0  0  0  0  0  0  0  0  0
   -0.5190   -0.5153   -1.9843 H   0  0  0  0  0  0  0  0  0  0  0  0
    0.4199    0.9887   -1.8382 H   0  0  0  0  0  0  0  0  0  0  0  0
    1.2937    0.4634    1.8604 H   0  0  0  0  0  0  0  0  0  0  0  0
    0.9696    1.7500    0.5984 H   0  0  0  0  0  0  0  0  0  0  0  0
  1  9  1  0  0  0  0
  1 11  1  0  0  0  0
  2  1  1  0  0  0  0
  2  6  1  1  0  0  0
  3  2  1  0  0  0  0
  3  4  1  0  0  0  0
  4  7  1  0  0  0  0
  4  6  1  1  0  0  0
  4  5  1  0  0  0  0
  5 15  1  0  0  0  0
  6  5  1  1  0  0  0
  7  8  3  0  0  0  0
 10  1  1  0  0  0  0
 12  2  1  0  0  0  0
 13  3  1  0  0  0  0
 14  3  1  0  0  0  0
 16  5  1  0  0  0  0
M  END
