title
 OpenBabel02282109593D

 18 19  0  0  1  0  0  0  0  0999 V2000
   -1.4710    2.4123   -0.2290 C   0  0  0  0  0  0  0  0  0  0  0  0
   -1.2563    0.9042   -0.2666 C   0  0  1  0  0  0  0  0  0  0  0  0
   -0.1646    0.3099   -1.2221 C   0  0  0  0  0  0  0  0  0  0  0  0
    0.4766   -0.4214   -0.0253 C   0  0  1  0  0  0  0  0  0  0  0  0
    0.8834    0.5989    1.0152 C   0  0  0  0  0  0  0  0  0  0  0  0
   -0.5635    0.2237    0.9241 C   0  0  1  0  0  0  0  0  0  0  0  0
    0.9843   -1.7496   -0.0495 C   0  0  0  0  0  0  0  0  0  0  0  0
    1.4070   -2.8765   -0.0939 C   0  0  0  0  0  0  0  0  0  0  0  0
   -0.5395    2.9492   -0.0219 H   0  0  0  0  0  0  0  0  0  0  0  0
   -1.8567    2.7758   -1.1878 H   0  0  0  0  0  0  0  0  0  0  0  0
   -2.1937    2.6878    0.5469 H   0  0  0  0  0  0  0  0  0  0  0  0
   -2.2107    0.4071   -0.4651 H   0  0  0  0  0  0  0  0  0  0  0  0
   -0.5774   -0.3704   -1.9685 H   0  0  0  0  0  0  0  0  0  0  0  0
    0.4894    1.0312   -1.7236 H   0  0  0  0  0  0  0  0  0  0  0  0
    1.4136    0.1911    1.8687 H   0  0  0  0  0  0  0  0  0  0  0  0
    1.2364    1.5762    0.6940 H   0  0  0  0  0  0  0  0  0  0  0  0
   -1.0722   -0.2493    1.7558 H   0  0  0  0  0  0  0  0  0  0  0  0
    1.7833   -3.8683   -0.1277 H   0  0  0  0  0  0  0  0  0  0  0  0
  1  9  1  0  0  0  0
  1 11  1  0  0  0  0
  2  1  1  0  0  0  0
  2  6  1  1  0  0  0
  3  2  1  0  0  0  0
  3  4  1  0  0  0  0
  4  6  1  1  0  0  0
  4  5  1  0  0  0  0
  5 15  1  0  0  0  0
  6  5  1  0  0  0  0
  6 17  1  1  0  0  0
  7  4  1  0  0  0  0
  8  7  3  0  0  0  0
 10  1  1  0  0  0  0
 12  2  1  0  0  0  0
 13  3  1  0  0  0  0
 14  3  1  0  0  0  0
 16  5  1  0  0  0  0
 18  8  1  0  0  0  0
M  END
