16
title
C -1.6229655 2.2404847 -0.27198645
C -1.2748792 0.76521283 -0.32859743
C -0.16632572 0.24663557 -1.2892877
C 0.51708776 -0.32616055 -0.043576967
C 0.7684782 0.7425554 0.9530937
N -0.5847924 0.17932294 0.8920613
C 1.083165 -1.6374341 0.0515229
N 1.5551385 -2.693101 0.09235611
H -0.7402859 2.8800051 -0.18019874
H -2.14951 2.53465 -1.185876
H -2.2817912 2.4427056 0.57845956
H -2.1898503 0.18269663 -0.46037537
H -0.51899207 -0.5153245 -1.9843482
H 0.41994438 0.9886574 -1.8381552
H 1.2937149 0.4633987 1.860444
H 0.969631 1.750013 0.598408
