16
title
C -1.3971356 2.4404078 -0.2134723
C -1.2812719 0.92564464 -0.28958717
C -0.21216497 0.2953766 -1.2604249
C 0.40212587 -0.4286967 -0.05317081
N 0.8103687 0.63848084 0.90412545
C -0.593398 0.19899116 0.8798349
C 0.98502153 -1.7271743 -0.012575325
N 1.4562277 -2.7848785 0.00748739
H -0.4281927 2.886715 0.024548594
H -1.7420691 2.8523815 -1.167506
H -2.1138124 2.742317 0.5579921
H -2.256678 0.4692605 -0.48058096
H -0.64959395 -0.38291043 -1.9938463
H 0.46877328 0.99231106 -1.7530841
H 1.2656168 0.18557702 1.6967828
H -1.0552256 -0.23052223 1.7607634
