16
title
C -1.421379 2.3312383 -0.27520773
C -1.2065667 0.8352034 -0.19196242
O -0.12713164 0.35276002 -1.0521618
C 0.44172388 -0.38604382 0.039805427
C 0.9059399 0.5648289 1.1094854
C -0.55650795 0.19813505 1.036356
C 0.9281643 -1.7025625 -0.17794581
C 1.3494074 -2.8138332 -0.36522502
H -0.5338177 2.8836308 0.043905243
H -1.6540395 2.6206996 -1.3048023
H -2.2637403 2.6262755 0.35956904
H -2.1271524 0.30019698 -0.45834133
H 1.442136 0.10858241 1.9347445
H 1.2614841 1.5456519 0.80815786
H -1.0784572 -0.29467168 1.8449699
H 1.7192101 -3.7950242 -0.53282994
