title
 OpenBabel02282109593D

 16 17  0  0  1  0  0  0  0  0999 V2000
   -1.3971    2.4404   -0.2135 C   0  0  0  0  0  0  0  0  0  0  0  0
   -1.2813    0.9256   -0.2896 C   0  0  1  0  0  0  0  0  0  0  0  0
   -0.2122    0.2954   -1.2604 C   0  0  0  0  0  0  0  0  0  0  0  0
    0.4021   -0.4287   -0.0532 C   0  0  1  0  0  0  0  0  0  0  0  0
    0.8104    0.6385    0.9041 N   0  0  0  0  0  0  0  0  0  0  0  0
   -0.5934    0.1990    0.8798 C   0  0  1  0  0  0  0  0  0  0  0  0
    0.9850   -1.7272   -0.0126 C   0  0  0  0  0  0  0  0  0  0  0  0
    1.4562   -2.7849    0.0075 N   0  0  0  0  0  0  0  0  0  0  0  0
   -0.4282    2.8867    0.0245 H   0  0  0  0  0  0  0  0  0  0  0  0
   -1.7421    2.8524   -1.1675 H   0  0  0  0  0  0  0  0  0  0  0  0
   -2.1138    2.7423    0.5580 H   0  0  0  0  0  0  0  0  0  0  0  0
   -2.2567    0.4693   -0.4806 H   0  0  0  0  0  0  0  0  0  0  0  0
   -0.6496   -0.3829   -1.9938 H   0  0  0  0  0  0  0  0  0  0  0  0
    0.4688    0.9923   -1.7531 H   0  0  0  0  0  0  0  0  0  0  0  0
    1.2656    0.1856    1.6968 H   0  0  0  0  0  0  0  0  0  0  0  0
   -1.0552   -0.2305    1.7608 H   0  0  0  0  0  0  0  0  0  0  0  0
  1  9  1  0  0  0  0
  1 11  1  0  0  0  0
  2  1  1  0  0  0  0
  2  6  1  1  0  0  0
  3  2  1  0  0  0  0
  3  4  1  0  0  0  0
  4  7  1  0  0  0  0
  4  6  1  1  0  0  0
  4  5  1  0  0  0  0
  5 15  1  0  0  0  0
  6  5  1  0  0  0  0
  6 16  1  1  0  0  0
  7  8  3  0  0  0  0
 10  1  1  0  0  0  0
 12  2  1  0  0  0  0
 13  3  1  0  0  0  0
 14  3  1  0  0  0  0
M  END
