title
 OpenBabel02282109593D

 15 16  0  0  1  0  0  0  0  0999 V2000
   -1.4044    2.3541   -0.2808 C   0  0  0  0  0  0  0  0  0  0  0  0
   -1.2061    0.8578   -0.1937 C   0  0  1  0  0  0  0  0  0  0  0  0
   -0.1300    0.3590   -1.0583 O   0  0  0  0  0  0  0  0  0  0  0  0
    0.4323   -0.3668    0.0323 C   0  0  1  0  0  0  0  0  0  0  0  0
    0.9118    0.5694    1.1067 C   0  0  0  0  0  0  0  0  0  0  0  0
   -0.5534    0.2173    1.0355 C   0  0  1  0  0  0  0  0  0  0  0  0
    0.9004   -1.6995   -0.1752 C   0  0  0  0  0  0  0  0  0  0  0  0
    1.2872   -2.7791   -0.3286 N   0  0  0  0  0  0  0  0  0  0  0  0
   -0.5095    2.8991    0.0296 H   0  0  0  0  0  0  0  0  0  0  0  0
   -1.6424    2.6409   -1.3096 H   0  0  0  0  0  0  0  0  0  0  0  0
   -2.2393    2.6585    0.3591 H   0  0  0  0  0  0  0  0  0  0  0  0
   -2.1287    0.3268   -0.4565 H   0  0  0  0  0  0  0  0  0  0  0  0
    1.4455    0.1058    1.9295 H   0  0  0  0  0  0  0  0  0  0  0  0
    1.2799    1.5433    0.7999 H   0  0  0  0  0  0  0  0  0  0  0  0
   -1.0744   -0.2793    1.8419 H   0  0  0  0  0  0  0  0  0  0  0  0
  1  2  1  0  0  0  0
  1  9  1  0  0  0  0
  1 11  1  0  0  0  0
  2  6  1  1  0  0  0
  3  2  1  0  0  0  0
  3  4  1  0  0  0  0
  4  6  1  1  0  0  0
  4  5  1  0  0  0  0
  5 13  1  0  0  0  0
  6  5  1  0  0  0  0
  6 15  1  1  0  0  0
  7  4  1  0  0  0  0
  8  7  3  0  0  0  0
 10  1  1  0  0  0  0
 12  2  1  0  0  0  0
 14  5  1  0  0  0  0
M  END
