title
 OpenBabel02282109593D

 16 17  0  0  1  0  0  0  0  0999 V2000
   -1.5826    2.2283   -0.2738 C   0  0  0  0  0  0  0  0  0  0  0  0
   -1.2497    0.8155   -0.2864 N   0  0  0  0  0  0  0  0  0  0  0  0
   -0.1836    0.3259   -1.2008 C   0  0  0  0  0  0  0  0  0  0  0  0
    0.5084   -0.3696   -0.0161 C   0  0  1  0  0  0  0  0  0  0  0  0
    0.8420    0.6667    1.0431 C   0  0  0  0  0  0  0  0  0  0  0  0
   -0.5859    0.2385    0.8734 C   0  0  1  0  0  0  0  0  0  0  0  0
    1.0460   -1.6868   -0.0245 C   0  0  0  0  0  0  0  0  0  0  0  0
    1.4897   -2.7561   -0.0469 N   0  0  0  0  0  0  0  0  0  0  0  0
   -0.7223    2.8955   -0.0905 H   0  0  0  0  0  0  0  0  0  0  0  0
   -2.0269    2.5032   -1.2354 H   0  0  0  0  0  0  0  0  0  0  0  0
   -2.3289    2.4143    0.5051 H   0  0  0  0  0  0  0  0  0  0  0  0
   -0.5729   -0.3605   -1.9575 H   0  0  0  0  0  0  0  0  0  0  0  0
    0.4174    1.1054   -1.6870 H   0  0  0  0  0  0  0  0  0  0  0  0
    1.3440    0.2723    1.9202 H   0  0  0  0  0  0  0  0  0  0  0  0
    1.1801    1.6489    0.7253 H   0  0  0  0  0  0  0  0  0  0  0  0
   -1.1553   -0.2311    1.6683 H   0  0  0  0  0  0  0  0  0  0  0  0
  1  9  1  0  0  0  0
  1 11  1  0  0  0  0
  2  1  1  0  0  0  0
  2  6  1  0  0  0  0
  3  2  1  0  0  0  0
  3  4  1  0  0  0  0
  4  6  1  1  0  0  0
  4  5  1  0  0  0  0
  5 14  1  0  0  0  0
  6  5  1  0  0  0  0
  6 16  1  1  0  0  0
  7  4  1  0  0  0  0
  8  7  3  0  0  0  0
 10  1  1  0  0  0  0
 12  3  1  0  0  0  0
 13  3  1  0  0  0  0
 15  5  1  0  0  0  0
M  END
