title
 OpenBabel02282109593D

 16 17  0  0  1  0  0  0  0  0999 V2000
   -1.4214    2.3312   -0.2752 C   0  0  0  0  0  0  0  0  0  0  0  0
   -1.2066    0.8352   -0.1920 C   0  0  1  0  0  0  0  0  0  0  0  0
   -0.1271    0.3528   -1.0522 O   0  0  0  0  0  0  0  0  0  0  0  0
    0.4417   -0.3860    0.0398 C   0  0  1  0  0  0  0  0  0  0  0  0
    0.9059    0.5648    1.1095 C   0  0  0  0  0  0  0  0  0  0  0  0
   -0.5565    0.1981    1.0364 C   0  0  1  0  0  0  0  0  0  0  0  0
    0.9282   -1.7026   -0.1779 C   0  0  0  0  0  0  0  0  0  0  0  0
    1.3494   -2.8138   -0.3652 C   0  0  0  0  0  0  0  0  0  0  0  0
   -0.5338    2.8836    0.0439 H   0  0  0  0  0  0  0  0  0  0  0  0
   -1.6540    2.6207   -1.3048 H   0  0  0  0  0  0  0  0  0  0  0  0
   -2.2637    2.6263    0.3596 H   0  0  0  0  0  0  0  0  0  0  0  0
   -2.1272    0.3002   -0.4583 H   0  0  0  0  0  0  0  0  0  0  0  0
    1.4421    0.1086    1.9347 H   0  0  0  0  0  0  0  0  0  0  0  0
    1.2615    1.5457    0.8082 H   0  0  0  0  0  0  0  0  0  0  0  0
   -1.0785   -0.2947    1.8450 H   0  0  0  0  0  0  0  0  0  0  0  0
    1.7192   -3.7950   -0.5328 H   0  0  0  0  0  0  0  0  0  0  0  0
  1  2  1  0  0  0  0
  1  9  1  0  0  0  0
  1 11  1  0  0  0  0
  2  6  1  1  0  0  0
  3  2  1  0  0  0  0
  3  4  1  0  0  0  0
  4  6  1  1  0  0  0
  4  5  1  0  0  0  0
  5 13  1  0  0  0  0
  6  5  1  0  0  0  0
  6 15  1  1  0  0  0
  7  4  1  0  0  0  0
  8  7  3  0  0  0  0
 10  1  1  0  0  0  0
 12  2  1  0  0  0  0
 14  5  1  0  0  0  0
 16  8  1  0  0  0  0
M  END
