title
 OpenBabel02282109593D

 15 16  0  0  1  0  0  0  0  0999 V2000
   -1.3496    2.4520   -0.1938 C   0  0  0  0  0  0  0  0  0  0  0  0
   -1.2966    0.9341   -0.2801 C   0  0  1  0  0  0  0  0  0  0  0  0
   -0.2575    0.2701   -1.2625 C   0  0  0  0  0  0  0  0  0  0  0  0
    0.3606   -0.4451   -0.0507 C   0  0  1  0  0  0  0  0  0  0  0  0
    0.7718    0.5652    0.8804 O   0  0  0  0  0  0  0  0  0  0  0  0
   -0.6047    0.1893    0.8772 C   0  0  1  0  0  0  0  0  0  0  0  0
    1.0043   -1.7207   -0.0050 C   0  0  0  0  0  0  0  0  0  0  0  0
    1.5098   -2.7608   -0.0107 N   0  0  0  0  0  0  0  0  0  0  0  0
   -0.3598    2.8561    0.0355 H   0  0  0  0  0  0  0  0  0  0  0  0
   -1.6858    2.8842   -1.1416 H   0  0  0  0  0  0  0  0  0  0  0  0
   -2.0440    2.7786    0.5875 H   0  0  0  0  0  0  0  0  0  0  0  0
   -2.2911    0.5127   -0.4551 H   0  0  0  0  0  0  0  0  0  0  0  0
   -0.7211   -0.4125   -1.9763 H   0  0  0  0  0  0  0  0  0  0  0  0
    0.4302    0.9418   -1.7803 H   0  0  0  0  0  0  0  0  0  0  0  0
   -1.0166   -0.1831    1.8083 H   0  0  0  0  0  0  0  0  0  0  0  0
  1  9  1  0  0  0  0
  1 11  1  0  0  0  0
  2  1  1  0  0  0  0
  2  6  1  1  0  0  0
  3  2  1  0  0  0  0
  3  4  1  0  0  0  0
  4  7  1  0  0  0  0
  4  6  1  1  0  0  0
  4  5  1  0  0  0  0
  6  5  1  0  0  0  0
  6 15  1  1  0  0  0
  8  7  3  0  0  0  0
 10  1  1  0  0  0  0
 12  2  1  0  0  0  0
 13  3  1  0  0  0  0
 14  3  1  0  0  0  0
M  END
