15
title
O 0.7719658 2.3016403 -1.0475898
C 0.86275613 0.9031768 -0.92142767
C 1.1481634 0.29583213 0.49977145
C -0.20832995 -0.4250113 0.4263973
C -1.3119333 0.59188247 0.24238025
C -0.4970354 0.21446098 -0.9537296
C -0.45209482 -1.7630165 0.85069764
N -0.6319075 -2.8527217 1.1987565
H 1.6619574 2.6683545 -1.0372363
H 1.5436643 0.4755571 -1.667579
H 2.0027893 -0.38218597 0.5100038
H 1.2411996 1.0196481 1.3140361
H -2.3184803 0.18972309 0.26038775
H -1.1988137 1.5726498 0.69350636
H -0.94106895 -0.25779 -1.8203877
