title
 OpenBabel02282109593D

 16 17  0  0  1  0  0  0  0  0999 V2000
    0.7684    2.2856   -1.0725 O   0  0  0  0  0  0  0  0  0  0  0  0
    0.8522    0.8849   -0.9259 C   0  0  1  0  0  0  0  0  0  0  0  0
    1.1359    0.2952    0.5003 C   0  0  0  0  0  0  0  0  0  0  0  0
   -0.2157   -0.4404    0.4343 C   0  0  1  0  0  0  0  0  0  0  0  0
   -1.3154    0.5801    0.2461 C   0  0  0  0  0  0  0  0  0  0  0  0
   -0.5040    0.1952   -0.9517 C   0  0  1  0  0  0  0  0  0  0  0  0
   -0.4495   -1.7713    0.8769 C   0  0  0  0  0  0  0  0  0  0  0  0
   -0.6237   -2.8995    1.2601 C   0  0  0  0  0  0  0  0  0  0  0  0
    1.6592    2.6476   -1.0268 H   0  0  0  0  0  0  0  0  0  0  0  0
    1.5348    0.4494   -1.6669 H   0  0  0  0  0  0  0  0  0  0  0  0
    1.9951   -0.3774    0.5198 H   0  0  0  0  0  0  0  0  0  0  0  0
    1.2256    1.0298    1.3063 H   0  0  0  0  0  0  0  0  0  0  0  0
   -2.3215    0.1769    0.2688 H   0  0  0  0  0  0  0  0  0  0  0  0
   -1.2071    1.5684    0.6832 H   0  0  0  0  0  0  0  0  0  0  0  0
   -0.9508   -0.2749   -1.8186 H   0  0  0  0  0  0  0  0  0  0  0  0
   -0.7839   -3.8931    1.5974 H   0  0  0  0  0  0  0  0  0  0  0  0
  1  9  1  0  0  0  0
  1  2  1  0  0  0  0
  2  6  1  6  0  0  0
  2  3  1  0  0  0  0
  3 11  1  0  0  0  0
  3 12  1  0  0  0  0
  4  6  1  6  0  0  0
  4  3  1  0  0  0  0
  4  7  1  0  0  0  0
  5 13  1  0  0  0  0
  5  4  1  0  0  0  0
  5 14  1  0  0  0  0
  6 15  1  6  0  0  0
  6  5  1  0  0  0  0
  7  8  3  0  0  0  0
  8 16  1  0  0  0  0
 10  2  1  0  0  0  0
M  END
