title
 OpenBabel02282109593D

 18 19  0  0  1  0  0  0  0  0999 V2000
   -1.4566    2.4497   -0.0828 C   0  0  0  0  0  0  0  0  0  0  0  0
   -1.2356    0.9429   -0.1302 C   0  0  1  0  0  0  0  0  0  0  0  0
   -0.1514    0.3614   -1.1028 C   0  0  0  0  0  0  0  0  0  0  0  0
    0.5088   -0.3623    0.0711 C   0  0  1  0  0  0  0  0  0  0  0  0
    0.9144    0.6236    1.1462 C   0  0  0  0  0  0  0  0  0  0  0  0
   -0.5260    0.2690    1.0585 C   0  0  1  0  0  0  0  0  0  0  0  0
    0.9564   -1.7553    0.0786 C   0  0  0  0  0  0  0  0  0  0  0  0
    0.9857   -2.4756   -0.8929 O   0  0  0  0  0  0  0  0  0  0  0  0
   -0.5234    2.9914    0.1034 H   0  0  0  0  0  0  0  0  0  0  0  0
   -1.8643    2.8109   -1.0332 H   0  0  0  0  0  0  0  0  0  0  0  0
   -2.1634    2.7206    0.7091 H   0  0  0  0  0  0  0  0  0  0  0  0
   -2.1900    0.4405   -0.3127 H   0  0  0  0  0  0  0  0  0  0  0  0
   -0.5551   -0.3288   -1.8444 H   0  0  0  0  0  0  0  0  0  0  0  0
    0.4816    1.0962   -1.6105 H   0  0  0  0  0  0  0  0  0  0  0  0
    1.4474    0.1957    1.9904 H   0  0  0  0  0  0  0  0  0  0  0  0
    1.2813    1.5986    0.8366 H   0  0  0  0  0  0  0  0  0  0  0  0
   -1.0263   -0.2388    1.8753 H   0  0  0  0  0  0  0  0  0  0  0  0
    1.2639   -2.1291    1.0843 H   0  0  0  0  0  0  0  0  0  0  0  0
  1  9  1  0  0  0  0
  1 11  1  0  0  0  0
  2  1  1  0  0  0  0
  2  6  1  1  0  0  0
  3  2  1  0  0  0  0
  3  4  1  0  0  0  0
  4  7  1  0  0  0  0
  4  6  1  1  0  0  0
  4  5  1  0  0  0  0
  5 15  1  0  0  0  0
  6  5  1  0  0  0  0
  6 17  1  1  0  0  0
  7 18  1  0  0  0  0
  8  7  2  0  0  0  0
 10  1  1  0  0  0  0
 12  2  1  0  0  0  0
 13  3  1  0  0  0  0
 14  3  1  0  0  0  0
 16  5  1  0  0  0  0
M  END
