17
title
C -1.594272 2.2909055 -0.106302276
C -1.2600611 0.812429 -0.18102545
C -0.17094378 0.2992969 -1.1650634
C 0.52747756 -0.29327932 0.05062202
C 0.7983007 0.7534315 1.0706382
N -0.55597806 0.2161121 1.030593
C 1.0358722 -1.670773 0.17155719
O 1.2249064 -2.4064484 -0.7671287
H -0.7032104 2.9199896 -0.019367972
H -2.1265762 2.5981982 -1.0126601
H -2.2411761 2.4943533 0.75309694
H -2.1826398 0.23866221 -0.29821312
H -0.52735883 -0.45889798 -1.8625665
H 0.39822394 1.0521816 -1.7175213
H 1.337748 0.45867985 1.9663683
H 1.0117636 1.7624948 0.7267824
H 1.2248185 -1.9927983 1.2204492
