18
title
C -1.4566189 2.4497335 -0.08284431
C -1.2356313 0.9429274 -0.13023932
C -0.15136975 0.36142042 -1.1027555
C 0.5088127 -0.36232755 0.07106346
C 0.91444 0.6235652 1.1461886
C -0.52603203 0.2689776 1.0584514
C 0.9564324 -1.7552714 0.07855682
O 0.9856623 -2.475574 -0.8928775
H -0.52343327 2.9914236 0.10340567
H -1.8642882 2.8109276 -1.0331663
H -2.1633945 2.7205615 0.7090587
H -2.190044 0.44051152 -0.31269655
H -0.5550832 -0.3288115 -1.844416
H 0.4816094 1.0962323 -1.6104572
H 1.4473785 0.19573249 1.9903556
H 1.2813147 1.598613 0.83663785
H -1.0262579 -0.23876451 1.875255
H 1.2638658 -2.1290975 1.0843081
