title
 OpenBabel02282109593D

 16 17  0  0  1  0  0  0  0  0999 V2000
   -1.3673    2.3830   -0.1204 C   0  0  0  0  0  0  0  0  0  0  0  0
   -1.1727    0.8844   -0.0457 C   0  0  1  0  0  0  0  0  0  0  0  0
   -0.1271    0.3850   -0.9377 O   0  0  0  0  0  0  0  0  0  0  0  0
    0.4537   -0.3561    0.1211 C   0  0  1  0  0  0  0  0  0  0  0  0
    0.9624    0.5661    1.2071 C   0  0  0  0  0  0  0  0  0  0  0  0
   -0.4978    0.2377    1.1701 C   0  0  1  0  0  0  0  0  0  0  0  0
    0.8971   -1.7442   -0.0540 C   0  0  0  0  0  0  0  0  0  0  0  0
    0.8772   -2.3568   -1.0919 O   0  0  0  0  0  0  0  0  0  0  0  0
   -0.4609    2.9233    0.1645 H   0  0  0  0  0  0  0  0  0  0  0  0
   -1.6335    2.6738   -1.1412 H   0  0  0  0  0  0  0  0  0  0  0  0
   -2.1812    2.6896    0.5450 H   0  0  0  0  0  0  0  0  0  0  0  0
   -2.1073    0.3613   -0.2828 H   0  0  0  0  0  0  0  0  0  0  0  0
    1.5152    0.0902    2.0110 H   0  0  0  0  0  0  0  0  0  0  0  0
    1.3365    1.5370    0.8983 H   0  0  0  0  0  0  0  0  0  0  0  0
   -1.0087   -0.2676    1.9788 H   0  0  0  0  0  0  0  0  0  0  0  0
    1.2690   -2.1969    0.8952 H   0  0  0  0  0  0  0  0  0  0  0  0
  1  2  1  0  0  0  0
  1  9  1  0  0  0  0
  1 11  1  0  0  0  0
  2  6  1  1  0  0  0
  3  2  1  0  0  0  0
  3  4  1  0  0  0  0
  4  6  1  1  0  0  0
  4  5  1  0  0  0  0
  5 13  1  0  0  0  0
  6  5  1  0  0  0  0
  6 15  1  1  0  0  0
  7  4  1  0  0  0  0
  7 16  1  0  0  0  0
  8  7  2  0  0  0  0
 10  1  1  0  0  0  0
 12  2  1  0  0  0  0
 14  5  1  0  0  0  0
M  END
