title
 OpenBabel02282109593D

 15 16  0  0  1  0  0  0  0  0999 V2000
    0.7946    2.2901   -1.0429 O   0  0  0  0  0  0  0  0  0  0  0  0
    0.8689    0.8969   -0.9746 C   0  0  1  0  0  0  0  0  0  0  0  0
    1.2213    0.2278    0.4118 C   0  0  0  0  0  0  0  0  0  0  0  0
   -0.1442   -0.4728    0.3734 C   0  0  1  0  0  0  0  0  0  0  0  0
   -1.1458    0.6357    0.2608 N   0  0  0  0  0  0  0  0  0  0  0  0
   -0.4713    0.1431   -0.9566 C   0  0  1  0  0  0  0  0  0  0  0  0
   -0.4972   -1.7440    0.8998 C   0  0  0  0  0  0  0  0  0  0  0  0
   -0.7769   -2.8207    1.3595 C   0  0  0  0  0  0  0  0  0  0  0  0
    0.0908    2.5431   -0.4299 H   0  0  0  0  0  0  0  0  0  0  0  0
    1.5382    0.5655   -1.7708 H   0  0  0  0  0  0  0  0  0  0  0  0
    2.0608   -0.4661    0.3429 H   0  0  0  0  0  0  0  0  0  0  0  0
    1.3670    0.9154    1.2476 H   0  0  0  0  0  0  0  0  0  0  0  0
   -2.0727    0.2135    0.2966 H   0  0  0  0  0  0  0  0  0  0  0  0
   -1.0395   -0.2621   -1.7853 H   0  0  0  0  0  0  0  0  0  0  0  0
   -1.0252   -3.7715    1.7619 H   0  0  0  0  0  0  0  0  0  0  0  0
  1  2  1  0  0  0  0
  1  9  1  0  0  0  0
  2  6  1  6  0  0  0
  2  3  1  0  0  0  0
  3 12  1  0  0  0  0
  4  6  1  6  0  0  0
  4  3  1  0  0  0  0
  4  7  1  0  0  0  0
  5 13  1  0  0  0  0
  5  4  1  0  0  0  0
  6 14  1  6  0  0  0
  6  5  1  0  0  0  0
  7  8  3  0  0  0  0
  8 15  1  0  0  0  0
 10  2  1  0  0  0  0
 11  3  1  0  0  0  0
M  END
