17
title
C -1.3583257 2.2154708 1.3918979
C -1.1785482 0.6911418 1.3970126
C -0.47181416 0.18435852 0.17383605
C -1.1045867 -0.19041462 -1.1309922
C -0.2908429 -1.2328496 -0.35001272
C 1.1733958 -0.8781707 -0.5410772
O 2.152279 -1.4164072 -0.9725297
N 0.9758883 0.4135334 -0.0045369244
H -0.38948643 2.72473 1.3581622
H -1.9416217 2.5426173 0.52506924
H -1.8771359 2.5500526 2.2947915
H -0.6087204 0.38834208 2.2830338
H -2.157754 0.20259555 1.4621615
H -2.1778612 -0.36193192 -1.1197944
H -0.7200786 0.20097868 -2.0685258
H -0.71487534 -2.1645246 -0.0030474043
H 1.3619591 1.2441434 -0.44144553
