title
 OpenBabel02282109593D

 17 18  0  0  1  0  0  0  0  0999 V2000
   -1.3583    2.2155    1.3919 C   0  0  0  0  0  0  0  0  0  0  0  0
   -1.1785    0.6911    1.3970 C   0  0  0  0  0  0  0  0  0  0  0  0
   -0.4718    0.1844    0.1738 C   0  0  2  0  0  0  0  0  0  0  0  0
   -1.1046   -0.1904   -1.1310 C   0  0  0  0  0  0  0  0  0  0  0  0
   -0.2908   -1.2328   -0.3500 C   0  0  1  0  0  0  0  0  0  0  0  0
    1.1734   -0.8782   -0.5411 C   0  0  0  0  0  0  0  0  0  0  0  0
    2.1523   -1.4164   -0.9725 O   0  0  0  0  0  0  0  0  0  0  0  0
    0.9759    0.4135   -0.0045 N   0  0  0  0  0  0  0  0  0  0  0  0
   -0.3895    2.7247    1.3582 H   0  0  0  0  0  0  0  0  0  0  0  0
   -1.9416    2.5426    0.5251 H   0  0  0  0  0  0  0  0  0  0  0  0
   -1.8771    2.5501    2.2948 H   0  0  0  0  0  0  0  0  0  0  0  0
   -0.6087    0.3883    2.2830 H   0  0  0  0  0  0  0  0  0  0  0  0
   -2.1578    0.2026    1.4622 H   0  0  0  0  0  0  0  0  0  0  0  0
   -2.1779   -0.3619   -1.1198 H   0  0  0  0  0  0  0  0  0  0  0  0
   -0.7201    0.2010   -2.0685 H   0  0  0  0  0  0  0  0  0  0  0  0
   -0.7149   -2.1645   -0.0030 H   0  0  0  0  0  0  0  0  0  0  0  0
    1.3620    1.2441   -0.4414 H   0  0  0  0  0  0  0  0  0  0  0  0
  1  2  1  0  0  0  0
  1 11  1  0  0  0  0
  2 13  1  0  0  0  0
  2 12  1  0  0  0  0
  3  5  1  1  0  0  0
  3  2  1  0  0  0  0
  4 14  1  0  0  0  0
  4  5  1  0  0  0  0
  4  3  1  0  0  0  0
  5 16  1  1  0  0  0
  6  5  1  0  0  0  0
  6  8  1  0  0  0  0
  7  6  2  0  0  0  0
  8  3  1  0  0  0  0
  9  1  1  0  0  0  0
 10  1  1  0  0  0  0
 15  4  1  0  0  0  0
 17  8  1  0  0  0  0
M  END
