17
title
C -0.4061838 2.179597 1.9918659
C -0.69933796 0.70183265 1.6986005
C -0.010257289 0.21864712 0.45506322
C -0.3685335 0.5895266 -1.0001116
C -0.032794043 -0.88937175 -1.3588736
O -0.21412577 -1.5521718 -2.339228
C 0.37854066 -1.2033001 0.05692529
N 1.3717654 -0.2067118 0.5132636
H 0.66755617 2.3411818 2.1274693
H -0.7441492 2.8234303 1.1728251
H -0.9160305 2.5040796 2.9034727
H -0.36721042 0.08378283 2.5392818
H -1.7800862 0.54866594 1.590765
H -1.4312211 0.7791818 -1.1832068
H 0.22101839 1.3898263 -1.457686
H 0.3148757 -2.14532 0.58867705
H 1.938815 0.1551983 -0.2517314
