title
 OpenBabel02282109593D

 16 17  0  0  1  0  0  0  0  0999 V2000
    1.7900    2.2040    0.4682 C   0  0  0  0  0  0  0  0  0  0  0  0
    1.7685    0.6862    0.2388 C   0  0  0  0  0  0  0  0  0  0  0  0
    0.3968    0.1098    0.3705 C   0  0  2  0  0  0  0  0  0  0  0  0
   -0.3447   -0.3351    1.5764 C   0  0  0  0  0  0  0  0  0  0  0  0
   -0.1522   -1.2997    0.3898 C   0  0  1  0  0  0  0  0  0  0  0  0
   -1.0332   -0.8167   -0.7277 C   0  0  0  0  0  0  0  0  0  0  0  0
   -1.8092   -1.2651   -1.5064 O   0  0  0  0  0  0  0  0  0  0  0  0
   -0.5920    0.4998   -0.6415 O   0  0  0  0  0  0  0  0  0  0  0  0
    2.8025    2.5980    0.3440 H   0  0  0  0  0  0  0  0  0  0  0  0
    1.1361    2.7109   -0.2466 H   0  0  0  0  0  0  0  0  0  0  0  0
    1.4478    2.4555    1.4768 H   0  0  0  0  0  0  0  0  0  0  0  0
    2.1544    0.4519   -0.7599 H   0  0  0  0  0  0  0  0  0  0  0  0
    2.4216    0.1828    0.9610 H   0  0  0  0  0  0  0  0  0  0  0  0
    0.2553   -0.5911    2.4450 H   0  0  0  0  0  0  0  0  0  0  0  0
   -1.3282    0.0685    1.7940 H   0  0  0  0  0  0  0  0  0  0  0  0
    0.3238   -2.2651    0.4799 H   0  0  0  0  0  0  0  0  0  0  0  0
  1 11  1  0  0  0  0
  2  3  1  0  0  0  0
  2  1  1  0  0  0  0
  2 13  1  0  0  0  0
  3  5  1  6  0  0  0
  3  4  1  0  0  0  0
  4 15  1  0  0  0  0
  4 14  1  0  0  0  0
  5 16  1  1  0  0  0
  5  4  1  0  0  0  0
  6  8  1  0  0  0  0
  6  5  1  0  0  0  0
  7  6  2  0  0  0  0
  8  3  1  0  0  0  0
  9  1  1  0  0  0  0
 10  1  1  0  0  0  0
 12  2  1  0  0  0  0
M  END
