17
title
C -0.5703494 2.261405 -1.8889251
C -0.7317061 0.7608374 -1.608731
C 0.050718557 0.31532353 -0.40707445
C 1.4212145 -0.21024121 -0.45449626
N 0.31979108 -1.1796763 -0.13324606
C -0.008262563 -0.9226888 1.25908
O -0.0676171 -1.6913347 2.1658034
C -0.35940906 0.56025165 1.050383
H 0.476628 2.518212 -2.0795648
H -1.1553587 2.5576048 -2.7641056
H -0.91182715 2.8635027 -1.0402443
H -1.7915678 0.5229387 -1.4547282
H -0.40489155 0.17762683 -2.4767933
H 1.8630935 -0.4134615 -1.4248776
H 2.1394176 0.031962626 0.3255235
H 0.20130683 1.3004309 1.626747
H -1.4304938 0.733172 1.1882395
