16
title
C -0.39477187 2.2037842 1.9468193
C -0.6741726 0.7101114 1.7269312
C -0.08230035 0.20083323 0.449867
C -0.4955311 0.5172288 -1.0038049
C -0.021561284 -0.92855567 -1.3472044
O -0.13614418 -1.6289111 -2.3073885
C 0.42593965 -1.1553758 0.09184288
O 1.3200177 -0.056105405 0.3846531
H 0.6815479 2.3947957 1.9850719
H -0.81703776 2.8099854 1.1388198
H -0.8358519 2.5446343 2.8875327
H -0.26177377 0.12496862 2.5558374
H -1.7557938 0.52896684 1.7100229
H -1.5727232 0.6122701 -1.1726737
H 0.03428672 1.3469481 -1.4751849
H 0.5408814 -2.0637233 0.6720859
