title
 OpenBabel02282109593D

 16 17  0  0  1  0  0  0  0  0999 V2000
   -0.3948    2.2038    1.9468 C   0  0  0  0  0  0  0  0  0  0  0  0
   -0.6742    0.7101    1.7269 C   0  0  0  0  0  0  0  0  0  0  0  0
   -0.0823    0.2008    0.4499 C   0  0  2  0  0  0  0  0  0  0  0  0
   -0.4955    0.5172   -1.0038 C   0  0  0  0  0  0  0  0  0  0  0  0
   -0.0216   -0.9286   -1.3472 C   0  0  0  0  0  0  0  0  0  0  0  0
   -0.1361   -1.6289   -2.3074 O   0  0  0  0  0  0  0  0  0  0  0  0
    0.4259   -1.1554    0.0918 C   0  0  1  0  0  0  0  0  0  0  0  0
    1.3200   -0.0561    0.3847 O   0  0  0  0  0  0  0  0  0  0  0  0
    0.6815    2.3948    1.9851 H   0  0  0  0  0  0  0  0  0  0  0  0
   -0.8170    2.8100    1.1388 H   0  0  0  0  0  0  0  0  0  0  0  0
   -0.8359    2.5446    2.8875 H   0  0  0  0  0  0  0  0  0  0  0  0
   -0.2618    0.1250    2.5558 H   0  0  0  0  0  0  0  0  0  0  0  0
   -1.7558    0.5290    1.7100 H   0  0  0  0  0  0  0  0  0  0  0  0
   -1.5727    0.6123   -1.1727 H   0  0  0  0  0  0  0  0  0  0  0  0
    0.0343    1.3469   -1.4752 H   0  0  0  0  0  0  0  0  0  0  0  0
    0.5409   -2.0637    0.6721 H   0  0  0  0  0  0  0  0  0  0  0  0
  1  9  1  0  0  0  0
  1 11  1  0  0  0  0
  2  1  1  0  0  0  0
  2 12  1  0  0  0  0
  3  7  1  1  0  0  0
  3  2  1  0  0  0  0
  4  3  1  0  0  0  0
  5  4  1  0  0  0  0
  5  7  1  0  0  0  0
  6  5  2  0  0  0  0
  7  8  1  0  0  0  0
  7 16  1  1  0  0  0
  8  3  1  0  0  0  0
 10  1  1  0  0  0  0
 13  2  1  0  0  0  0
 14  4  1  0  0  0  0
 15  4  1  0  0  0  0
M  END
