title
 OpenBabel02282109593D

 15 16  0  0  1  0  0  0  0  0999 V2000
    1.9050    2.0089   -0.6646 O   0  0  0  0  0  0  0  0  0  0  0  0
    1.8050    0.6671   -0.2156 C   0  0  0  0  0  0  0  0  0  0  0  0
    0.3791    0.2010   -0.1806 C   0  0  2  0  0  0  0  0  0  0  0  0
   -0.7100    0.5984    0.8329 C   0  0  0  0  0  0  0  0  0  0  0  0
   -1.2099   -0.8733    0.7248 C   0  0  0  0  0  0  0  0  0  0  0  0
   -1.9919   -1.5219    1.3565 O   0  0  0  0  0  0  0  0  0  0  0  0
   -0.1700   -1.2135   -0.3198 C   0  0  1  0  0  0  0  0  0  0  0  0
   -0.2421   -0.2288   -1.4184 N   0  0  0  0  0  0  0  0  0  0  0  0
    1.5933    2.0241   -1.5764 H   0  0  0  0  0  0  0  0  0  0  0  0
    2.3907   -0.0183   -0.8444 H   0  0  0  0  0  0  0  0  0  0  0  0
    2.2305    0.6518    0.7927 H   0  0  0  0  0  0  0  0  0  0  0  0
   -0.3496    0.7929    1.8479 H   0  0  0  0  0  0  0  0  0  0  0  0
   -1.3797    1.4089    0.5319 H   0  0  0  0  0  0  0  0  0  0  0  0
    0.3166   -2.1629   -0.5096 H   0  0  0  0  0  0  0  0  0  0  0  0
   -1.1818    0.1439   -1.5437 H   0  0  0  0  0  0  0  0  0  0  0  0
  1  2  1  0  0  0  0
  2  3  1  0  0  0  0
  2 11  1  0  0  0  0
  3  7  1  1  0  0  0
  3  4  1  0  0  0  0
  4 12  1  0  0  0  0
  5  4  1  0  0  0  0
  5  6  2  0  0  0  0
  7 14  1  6  0  0  0
  7  5  1  0  0  0  0
  8  7  1  0  0  0  0
  8  3  1  0  0  0  0
  9  1  1  0  0  0  0
 10  2  1  0  0  0  0
 13  4  1  0  0  0  0
 15  8  1  0  0  0  0
M  END
