15
title
O 2.2530982 1.0963466 1.1783073
C 1.5989106 1.0688313 -0.07788322
C 0.20559782 0.5024596 0.013021696
C -0.70167524 0.5408814 1.2018312
C -0.26555055 -0.8105026 0.61412966
C -1.0456971 -1.0099663 -0.67381495
O -1.8044246 -1.8206822 -1.1199244
N -0.5392962 0.19530436 -1.2177974
H 1.9132332 1.84658 1.6753539
H 1.5651451 2.0685291 -0.5392752
H 2.1999514 0.43267658 -0.7359579
H -0.23755473 0.76299065 2.158342
H -1.7316529 0.87139744 1.1025453
H 0.27929753 -1.542144 1.1926854
H -1.1324087 0.86688083 -1.6946093
