title
 OpenBabel02282109593D

 16 17  0  0  1  0  0  0  0  0999 V2000
    1.9007    2.0819    0.4577 O   0  0  0  0  0  0  0  0  0  0  0  0
    1.7704    0.6855    0.2335 C   0  0  0  0  0  0  0  0  0  0  0  0
    0.3411    0.2310    0.2753 C   0  0  2  0  0  0  0  0  0  0  0  0
   -0.3587   -0.2097    1.5153 C   0  0  0  0  0  0  0  0  0  0  0  0
   -0.1920   -1.2267    0.3896 C   0  0  1  0  0  0  0  0  0  0  0  0
   -1.1677   -0.9165   -0.7069 C   0  0  0  0  0  0  0  0  0  0  0  0
   -1.8832   -1.5925   -1.3894 O   0  0  0  0  0  0  0  0  0  0  0  0
   -0.7181    0.5669   -0.7921 C   0  0  0  0  0  0  0  0  0  0  0  0
    1.5268    2.2741    1.3242 H   0  0  0  0  0  0  0  0  0  0  0  0
    2.1962    0.5100   -0.7603 H   0  0  0  0  0  0  0  0  0  0  0  0
    2.3655    0.1012    0.9538 H   0  0  0  0  0  0  0  0  0  0  0  0
    0.2673   -0.4207    2.3778 H   0  0  0  0  0  0  0  0  0  0  0  0
   -1.3455    0.1711    1.7644 H   0  0  0  0  0  0  0  0  0  0  0  0
    0.3326   -2.1604    0.5527 H   0  0  0  0  0  0  0  0  0  0  0  0
   -1.4474    1.3427   -0.5434 H   0  0  0  0  0  0  0  0  0  0  0  0
   -0.2989    0.7747   -1.7811 H   0  0  0  0  0  0  0  0  0  0  0  0
  1  9  1  0  0  0  0
  2  3  1  0  0  0  0
  2  1  1  0  0  0  0
  2 11  1  0  0  0  0
  3  5  1  6  0  0  0
  3  4  1  0  0  0  0
  4 13  1  0  0  0  0
  4 12  1  0  0  0  0
  5 14  1  1  0  0  0
  5  4  1  0  0  0  0
  6  5  1  0  0  0  0
  7  6  2  0  0  0  0
  8  6  1  0  0  0  0
  8 15  1  0  0  0  0
  8  3  1  0  0  0  0
 10  2  1  0  0  0  0
 16  8  1  0  0  0  0
M  END
