title
 OpenBabel02282109593D

 15 16  0  0  1  0  0  0  0  0999 V2000
    2.2531    1.0963    1.1783 O   0  0  0  0  0  0  0  0  0  0  0  0
    1.5989    1.0688   -0.0779 C   0  0  0  0  0  0  0  0  0  0  0  0
    0.2056    0.5025    0.0130 C   0  0  2  0  0  0  0  0  0  0  0  0
   -0.7017    0.5409    1.2018 C   0  0  0  0  0  0  0  0  0  0  0  0
   -0.2656   -0.8105    0.6141 C   0  0  1  0  0  0  0  0  0  0  0  0
   -1.0457   -1.0100   -0.6738 C   0  0  0  0  0  0  0  0  0  0  0  0
   -1.8044   -1.8207   -1.1199 O   0  0  0  0  0  0  0  0  0  0  0  0
   -0.5393    0.1953   -1.2178 N   0  0  0  0  0  0  0  0  0  0  0  0
    1.9132    1.8466    1.6754 H   0  0  0  0  0  0  0  0  0  0  0  0
    1.5651    2.0685   -0.5393 H   0  0  0  0  0  0  0  0  0  0  0  0
    2.2000    0.4327   -0.7360 H   0  0  0  0  0  0  0  0  0  0  0  0
   -0.2376    0.7630    2.1583 H   0  0  0  0  0  0  0  0  0  0  0  0
   -1.7317    0.8714    1.1025 H   0  0  0  0  0  0  0  0  0  0  0  0
    0.2793   -1.5421    1.1927 H   0  0  0  0  0  0  0  0  0  0  0  0
   -1.1324    0.8669   -1.6946 H   0  0  0  0  0  0  0  0  0  0  0  0
  1  9  1  0  0  0  0
  2  3  1  0  0  0  0
  2  1  1  0  0  0  0
  3  5  1  1  0  0  0
  3  4  1  0  0  0  0
  4 12  1  0  0  0  0
  5 14  1  1  0  0  0
  5  4  1  0  0  0  0
  6  5  1  0  0  0  0
  7  6  2  0  0  0  0
  8  6  1  0  0  0  0
  8  3  1  0  0  0  0
 10  2  1  0  0  0  0
 11  2  1  0  0  0  0
 13  4  1  0  0  0  0
 15  8  1  0  0  0  0
M  END
