15
title
O 1.9050184 2.0089364 -0.66461396
C 1.8049628 0.66710037 -0.21556492
C 0.3791232 0.20104659 -0.18059732
C -0.71000326 0.59836924 0.8328737
C -1.2099117 -0.8732899 0.7248479
O -1.9918712 -1.5218542 1.3565022
C -0.16996765 -1.213549 -0.31978825
N -0.24208772 -0.22883424 -1.4184406
H 1.5933379 2.0241456 -1.5763614
H 2.390683 -0.018283991 -0.8443785
H 2.2305005 0.6518363 0.7927486
H -0.34957564 0.79285866 1.8478533
H -1.3796915 1.4089037 0.5319265
H 0.31658864 -2.1629407 -0.5095778
H -1.1817998 0.14390591 -1.543733
