title
 OpenBabel02282109593D

 16 17  0  0  1  0  0  0  0  0999 V2000
   -1.3876    2.1337    1.2090 C   0  0  0  0  0  0  0  0  0  0  0  0
   -0.9537    0.7855    1.3214 O   0  0  0  0  0  0  0  0  0  0  0  0
   -0.3859    0.2972    0.1726 C   0  0  2  0  0  0  0  0  0  0  0  0
   -1.1772   -0.2174   -0.9769 C   0  0  0  0  0  0  0  0  0  0  0  0
   -0.2820   -1.1957   -0.1951 C   0  0  1  0  0  0  0  0  0  0  0  0
    1.1475   -0.9656   -0.5842 C   0  0  0  0  0  0  0  0  0  0  0  0
    2.0538   -1.6870   -0.8882 O   0  0  0  0  0  0  0  0  0  0  0  0
    1.0739    0.5528   -0.2543 C   0  0  0  0  0  0  0  0  0  0  0  0
   -0.5480    2.8115    1.0022 H   0  0  0  0  0  0  0  0  0  0  0  0
   -2.1371    2.2475    0.4142 H   0  0  0  0  0  0  0  0  0  0  0  0
   -1.8340    2.4018    2.1684 H   0  0  0  0  0  0  0  0  0  0  0  0
   -2.2319   -0.3760   -0.7756 H   0  0  0  0  0  0  0  0  0  0  0  0
   -0.9426    0.0468   -2.0043 H   0  0  0  0  0  0  0  0  0  0  0  0
   -0.7061   -2.0735    0.2758 H   0  0  0  0  0  0  0  0  0  0  0  0
    1.2620    1.2679   -1.0602 H   0  0  0  0  0  0  0  0  0  0  0  0
    1.7259    0.7728    0.5965 H   0  0  0  0  0  0  0  0  0  0  0  0
  1  2  1  0  0  0  0
  1 11  1  0  0  0  0
  3  5  1  1  0  0  0
  3  2  1  0  0  0  0
  4 12  1  0  0  0  0
  4  5  1  0  0  0  0
  4  3  1  0  0  0  0
  5 14  1  1  0  0  0
  6  8  1  0  0  0  0
  6  5  1  0  0  0  0
  7  6  2  0  0  0  0
  8  3  1  0  0  0  0
  8 16  1  0  0  0  0
  9  1  1  0  0  0  0
 10  1  1  0  0  0  0
 13  4  1  0  0  0  0
 15  8  1  0  0  0  0
M  END
