title
 OpenBabel02282109593D

 15 16  0  0  1  0  0  0  0  0999 V2000
    1.7684    2.0420    0.5068 O   0  0  0  0  0  0  0  0  0  0  0  0
    1.7369    0.6583    0.2033 C   0  0  0  0  0  0  0  0  0  0  0  0
    0.3685    0.0799    0.3555 C   0  0  2  0  0  0  0  0  0  0  0  0
   -0.3491   -0.3949    1.5641 C   0  0  0  0  0  0  0  0  0  0  0  0
   -0.1950   -1.3265    0.3518 C   0  0  1  0  0  0  0  0  0  0  0  0
   -1.0828   -0.8169   -0.7331 C   0  0  0  0  0  0  0  0  0  0  0  0
   -1.9069   -1.3286   -1.5242 N   0  0  0  0  0  0  0  0  0  0  0  0
   -0.6252    0.5019   -0.6333 O   0  0  0  0  0  0  0  0  0  0  0  0
    1.1859    2.4863   -0.1192 H   0  0  0  0  0  0  0  0  0  0  0  0
    2.1030    0.4588   -0.8148 H   0  0  0  0  0  0  0  0  0  0  0  0
    2.4162    0.1676    0.9073 H   0  0  0  0  0  0  0  0  0  0  0  0
    0.2745   -0.6690    2.4097 H   0  0  0  0  0  0  0  0  0  0  0  0
   -1.3206    0.0173    1.8159 H   0  0  0  0  0  0  0  0  0  0  0  0
    0.2793   -2.2954    0.4020 H   0  0  0  0  0  0  0  0  0  0  0  0
   -2.2887   -0.6312   -2.1652 H   0  0  0  0  0  0  0  0  0  0  0  0
  2  3  1  0  0  0  0
  2  1  1  0  0  0  0
  2 11  1  0  0  0  0
  3  5  1  6  0  0  0
  3  4  1  0  0  0  0
  4 13  1  0  0  0  0
  4 12  1  0  0  0  0
  5 14  1  6  0  0  0
  5  4  1  0  0  0  0
  6  8  1  0  0  0  0
  6  5  1  0  0  0  0
  7  6  2  0  0  0  0
  8  3  1  0  0  0  0
  9  1  1  0  0  0  0
 10  2  1  0  0  0  0
 15  7  1  0  0  0  0
M  END
