title
 OpenBabel02282109593D

 20 21  0  0  1  0  0  0  0  0999 V2000
   -1.6589    2.4059   -0.0729 C   0  0  0  0  0  0  0  0  0  0  0  0
   -1.4532    0.8968   -0.1187 C   0  0  1  0  0  0  0  0  0  0  0  0
   -0.3974    0.2941   -1.1116 C   0  0  0  0  0  0  0  0  0  0  0  0
    0.2781   -0.4283    0.0638 C   0  0  1  0  0  0  0  0  0  0  0  0
    0.8040   -1.8259    0.0252 C   0  0  0  0  0  0  0  0  0  0  0  0
    2.0318   -1.8280   -0.6979 O   0  0  0  0  0  0  0  0  0  0  0  0
    0.7425    0.5880    1.0687 C   0  0  0  0  0  0  0  0  0  0  0  0
   -0.7140    0.2088    1.0429 C   0  0  1  0  0  0  0  0  0  0  0  0
   -0.7169    2.9372    0.0973 H   0  0  0  0  0  0  0  0  0  0  0  0
   -2.0803    2.7727   -1.0155 H   0  0  0  0  0  0  0  0  0  0  0  0
   -2.3483    2.6856    0.7318 H   0  0  0  0  0  0  0  0  0  0  0  0
   -2.4186    0.4064   -0.2805 H   0  0  0  0  0  0  0  0  0  0  0  0
   -0.8435   -0.3858   -1.8419 H   0  0  0  0  0  0  0  0  0  0  0  0
    0.2328    1.0120   -1.6466 H   0  0  0  0  0  0  0  0  0  0  0  0
    0.9471   -2.1923    1.0556 H   0  0  0  0  0  0  0  0  0  0  0  0
    0.0675   -2.4894   -0.4579 H   0  0  0  0  0  0  0  0  0  0  0  0
    2.3049   -2.7428   -0.8167 H   0  0  0  0  0  0  0  0  0  0  0  0
    1.3064    0.1861    1.9050 H   0  0  0  0  0  0  0  0  0  0  0  0
    1.0759    1.5709    0.7453 H   0  0  0  0  0  0  0  0  0  0  0  0
   -1.1923   -0.2389    1.9076 H   0  0  0  0  0  0  0  0  0  0  0  0
  1  9  1  0  0  0  0
  1 11  1  0  0  0  0
  2  1  1  0  0  0  0
  2  8  1  1  0  0  0
  3  2  1  0  0  0  0
  3  4  1  0  0  0  0
  4  8  1  1  0  0  0
  4  7  1  0  0  0  0
  5  4  1  0  0  0  0
  5 15  1  0  0  0  0
  6  5  1  0  0  0  0
  7 18  1  0  0  0  0
  8  7  1  0  0  0  0
  8 20  1  1  0  0  0
 10  1  1  0  0  0  0
 12  2  1  0  0  0  0
 13  3  1  0  0  0  0
 14  3  1  0  0  0  0
 16  5  1  0  0  0  0
 17  6  1  0  0  0  0
 19  7  1  0  0  0  0
M  END
