20
title
C -1.6589118 2.4058955 -0.072867006
C -1.4531981 0.89679825 -0.11866936
C -0.39737883 0.29412428 -1.111612
C 0.2781466 -0.42825678 0.06375419
C 0.8039778 -1.8259375 0.02520899
O 2.031838 -1.8280437 -0.69789815
C 0.7425416 0.5879985 1.068746
C -0.7140364 0.2088292 1.0428935
H -0.71690875 2.9372272 0.09726348
H -2.0802991 2.7727137 -1.015547
H -2.3482625 2.6855795 0.7317535
H -2.4185917 0.4064229 -0.28050494
H -0.84353906 -0.38581374 -1.8418871
H 0.23281822 1.0119988 -1.6466469
H 0.94705254 -2.19225 1.0555985
H 0.06751689 -2.4893935 -0.45789507
H 2.3048935 -2.7428293 -0.816698
H 1.3063544 0.18607268 1.9049516
H 1.0759243 1.5708929 0.7453188
H -1.192316 -0.23887566 1.9075735
