title
 OpenBabel02282109593D

 20 21  0  0  1  0  0  0  0  0999 V2000
   -1.3429    2.0546    1.3967 C   0  0  0  0  0  0  0  0  0  0  0  0
   -0.9071    0.7107    1.5064 O   0  0  0  0  0  0  0  0  0  0  0  0
   -0.3222    0.2322    0.3531 C   0  0  2  0  0  0  0  0  0  0  0  0
   -1.1296   -0.2303   -0.8272 C   0  0  0  0  0  0  0  0  0  0  0  0
   -0.2344   -1.2130   -0.0937 C   0  0  1  0  0  0  0  0  0  0  0  0
    1.2410   -1.0186   -0.4882 C   0  0  1  0  0  0  0  0  0  0  0  0
    1.6741   -1.3424   -1.9125 C   0  0  0  0  0  0  0  0  0  0  0  0
    1.1380    0.4883   -0.0496 C   0  0  0  0  0  0  0  0  0  0  0  0
   -0.5055    2.7398    1.2018 H   0  0  0  0  0  0  0  0  0  0  0  0
   -2.0834    2.1719    0.5929 H   0  0  0  0  0  0  0  0  0  0  0  0
   -1.8021    2.3215    2.3513 H   0  0  0  0  0  0  0  0  0  0  0  0
   -2.1861   -0.3613   -0.6151 H   0  0  0  0  0  0  0  0  0  0  0  0
   -0.9094    0.0958   -1.8410 H   0  0  0  0  0  0  0  0  0  0  0  0
   -0.6489   -2.0985    0.3732 H   0  0  0  0  0  0  0  0  0  0  0  0
    1.8836   -1.5546    0.2169 H   0  0  0  0  0  0  0  0  0  0  0  0
    1.0501   -0.8309   -2.6527 H   0  0  0  0  0  0  0  0  0  0  0  0
    2.7117   -1.0365   -2.0859 H   0  0  0  0  0  0  0  0  0  0  0  0
    1.6063   -2.4182   -2.1086 H   0  0  0  0  0  0  0  0  0  0  0  0
    1.3051    1.2392   -0.8294 H   0  0  0  0  0  0  0  0  0  0  0  0
    1.7752    0.7158    0.8080 H   0  0  0  0  0  0  0  0  0  0  0  0
  1  2  1  0  0  0  0
  1 11  1  0  0  0  0
  3  5  1  1  0  0  0
  3  2  1  0  0  0  0
  4 12  1  0  0  0  0
  4  5  1  0  0  0  0
  4  3  1  0  0  0  0
  5  6  1  6  0  0  0
  5 14  1  0  0  0  0
  6  8  1  0  0  0  0
  6 15  1  1  0  0  0
  7  6  1  0  0  0  0
  8  3  1  0  0  0  0
  8 20  1  0  0  0  0
  9  1  1  0  0  0  0
 10  1  1  0  0  0  0
 13  4  1  0  0  0  0
 16  7  1  0  0  0  0
 17  7  1  0  0  0  0
 18  7  1  0  0  0  0
 19  8  1  0  0  0  0
M  END
