title
 OpenBabel02282109593D

 18 19  0  0  1  0  0  0  0  0999 V2000
   -1.4652    2.4514   -0.0349 C   0  0  0  0  0  0  0  0  0  0  0  0
   -1.4805    0.9304   -0.0622 C   0  0  1  0  0  0  0  0  0  0  0  0
   -0.5951    0.1857   -1.1331 C   0  0  0  0  0  0  0  0  0  0  0  0
    0.1301   -0.5208    0.0223 C   0  0  1  0  0  0  0  0  0  0  0  0
    0.8337   -1.8393    0.0535 C   0  0  0  0  0  0  0  0  0  0  0  0
    2.0612   -1.7987   -0.6584 O   0  0  0  0  0  0  0  0  0  0  0  0
    0.7069    0.5273    0.8334 O   0  0  0  0  0  0  0  0  0  0  0  0
   -0.6745    0.1959    1.0272 C   0  0  1  0  0  0  0  0  0  0  0  0
   -0.4387    2.8179    0.0548 H   0  0  0  0  0  0  0  0  0  0  0  0
   -1.8979    2.8654   -0.9517 H   0  0  0  0  0  0  0  0  0  0  0  0
   -2.0426    2.8395    0.8115 H   0  0  0  0  0  0  0  0  0  0  0  0
   -2.5062    0.5488   -0.0948 H   0  0  0  0  0  0  0  0  0  0  0  0
   -1.1733   -0.4911   -1.7666 H   0  0  0  0  0  0  0  0  0  0  0  0
    0.0443    0.8138   -1.7575 H   0  0  0  0  0  0  0  0  0  0  0  0
    0.9804   -2.1409    1.1018 H   0  0  0  0  0  0  0  0  0  0  0  0
    0.2235   -2.6050   -0.4369 H   0  0  0  0  0  0  0  0  0  0  0  0
    2.5935   -1.1044   -0.2540 H   0  0  0  0  0  0  0  0  0  0  0  0
   -0.9743   -0.0854    2.0316 H   0  0  0  0  0  0  0  0  0  0  0  0
  1  9  1  0  0  0  0
  1 11  1  0  0  0  0
  2  1  1  0  0  0  0
  2  8  1  1  0  0  0
  3  2  1  0  0  0  0
  3  4  1  0  0  0  0
  4  5  1  0  0  0  0
  4  7  1  0  0  0  0
  4  8  1  1  0  0  0
  5 15  1  0  0  0  0
  6 17  1  0  0  0  0
  6  5  1  0  0  0  0
  7  8  1  0  0  0  0
  8 18  1  1  0  0  0
 10  1  1  0  0  0  0
 12  2  1  0  0  0  0
 13  3  1  0  0  0  0
 14  3  1  0  0  0  0
 16  5  1  0  0  0  0
M  END
