19
title
C -1.5439935 2.1227942 -1.4498504
C -1.1162775 0.6575364 -1.6078188
C -0.33712813 0.15577827 -0.42608204
C 1.1101056 0.53356934 -0.05925051
C 1.3008515 -0.92571896 0.49013183
O 1.5535771 -1.0904754 1.8703465
C -0.1482098 -1.2361084 0.11969992
N -1.0546672 -0.28999642 0.76424044
H -0.6758031 2.7825117 -1.3438364
H -2.1153235 2.4622238 -2.3190327
H -2.1707056 2.24635 -0.5612896
H -2.001973 0.02498464 -1.7308741
H -0.50942 0.5424701 -2.5152266
H 1.7497655 0.7421945 -0.92151165
H 1.2196053 1.3399166 0.6740672
H 2.0165749 -1.4934897 -0.11921386
H 2.4402409 -0.76543206 2.0566049
H -0.54195595 -2.1912878 -0.20930664
H -0.66006756 0.063427664 1.6343782
