title
 OpenBabel02282109593D

 18 19  0  0  1  0  0  0  0  0999 V2000
   -1.5159    2.1517   -1.3607 C   0  0  0  0  0  0  0  0  0  0  0  0
   -1.2030    0.6610   -1.5506 C   0  0  0  0  0  0  0  0  0  0  0  0
   -0.3071    0.1211   -0.4801 C   0  0  2  0  0  0  0  0  0  0  0  0
    1.1810    0.4048   -0.2223 C   0  0  0  0  0  0  0  0  0  0  0  0
    1.2749   -1.0098    0.4756 C   0  0  1  0  0  0  0  0  0  0  0  0
    1.6241   -1.0634    1.8292 O   0  0  0  0  0  0  0  0  0  0  0  0
   -0.2157   -1.2090    0.1500 C   0  0  1  0  0  0  0  0  0  0  0  0
   -0.8847   -0.1252    0.8231 O   0  0  0  0  0  0  0  0  0  0  0  0
   -0.6022    2.7548   -1.3793 H   0  0  0  0  0  0  0  0  0  0  0  0
   -2.1738    2.5159   -2.1549 H   0  0  0  0  0  0  0  0  0  0  0  0
   -2.0122    2.3221   -0.4009 H   0  0  0  0  0  0  0  0  0  0  0  0
   -2.1319    0.0800   -1.5521 H   0  0  0  0  0  0  0  0  0  0  0  0
   -0.7220    0.5006   -2.5238 H   0  0  0  0  0  0  0  0  0  0  0  0
    1.7832    0.4647   -1.1328 H   0  0  0  0  0  0  0  0  0  0  0  0
    1.3948    1.2629    0.4196 H   0  0  0  0  0  0  0  0  0  0  0  0
    1.9368   -1.6942   -0.0600 H   0  0  0  0  0  0  0  0  0  0  0  0
    0.9400   -0.5654    2.2956 H   0  0  0  0  0  0  0  0  0  0  0  0
   -0.7860   -2.1193   -0.0023 H   0  0  0  0  0  0  0  0  0  0  0  0
  1 11  1  0  0  0  0
  2  1  1  0  0  0  0
  2  3  1  0  0  0  0
  3  4  1  0  0  0  0
  3  7  1  6  0  0  0
  3  8  1  0  0  0  0
  4 15  1  0  0  0  0
  4  5  1  0  0  0  0
  5  7  1  6  0  0  0
  5  6  1  0  0  0  0
  6 17  1  0  0  0  0
  7 18  1  6  0  0  0
  7  8  1  0  0  0  0
  9  1  1  0  0  0  0
 10  1  1  0  0  0  0
 12  2  1  0  0  0  0
 13  2  1  0  0  0  0
 14  4  1  0  0  0  0
 16  5  1  0  0  0  0
M  END
