18
title
C -1.5158821 2.1517484 -1.3607467
C -1.2029705 0.66096705 -1.5506355
C -0.3070553 0.12106914 -0.48007834
C 1.1810237 0.40483308 -0.22232497
C 1.2748717 -1.0097654 0.47563195
O 1.6240836 -1.0634463 1.8291622
C -0.21571672 -1.2089787 0.14995861
O -0.884692 -0.12520176 0.823135
H -0.602227 2.7548492 -1.379333
H -2.1738136 2.5159354 -2.15489
H -2.0122077 2.3220534 -0.4009062
H -2.1318557 0.079999514 -1.5521221
H -0.7219609 0.5006162 -2.5237691
H 1.7832118 0.46473175 -1.1328222
H 1.3947941 1.2628567 0.4195801
H 1.9368416 -1.6941906 -0.060034037
H 0.9400321 -0.56537586 2.295649
H -0.7859623 -2.119274 -0.0023213637
