18
title
C -1.6848714 2.3201628 0.001794094
C -1.3898828 0.8375977 0.0880884
O -0.6521103 0.3210171 -1.0673418
C 0.2896921 -0.31480098 -0.19436334
C 0.73772305 -1.6968377 -0.5840781
O 1.7374115 -2.2138124 0.2758517
C 1.0590262 0.7109181 0.5786088
C -0.3279826 0.29015207 1.042263
H -0.76648676 2.9115562 -0.039229386
H -2.2728496 2.537304 -0.89571035
H -2.2657132 2.6385162 0.8741797
H -2.3240602 0.26876718 0.18394826
H -0.106463365 -2.39228 -0.52996343
H 1.066447 -1.6710541 -1.635565
H 2.5426483 -1.7102768 0.11978803
H 1.8520048 0.32395166 1.2106405
H 1.2426739 1.6909605 0.14762671
H -0.50958085 -0.14019589 2.0176976
