title
 OpenBabel02282109593D

 20 21  0  0  1  0  0  0  0  0999 V2000
   -0.7621    2.1343   -1.7961 C   0  0  0  0  0  0  0  0  0  0  0  0
   -0.8937    0.6100   -1.6698 C   0  0  0  0  0  0  0  0  0  0  0  0
   -0.0688    0.0635   -0.5467 C   0  0  2  0  0  0  0  0  0  0  0  0
    1.3792   -0.3205   -0.5813 C   0  0  0  0  0  0  0  0  0  0  0  0
    0.3420   -1.3216   -0.0990 C   0  0  1  0  0  0  0  0  0  0  0  0
   -0.1875   -0.9008    1.2717 C   0  0  1  0  0  0  0  0  0  0  0  0
    0.6865   -0.9597    2.5076 C   0  0  0  0  0  0  0  0  0  0  0  0
   -0.4286    0.4570    0.7900 O   0  0  0  0  0  0  0  0  0  0  0  0
    0.2710    2.4231   -2.0143 H   0  0  0  0  0  0  0  0  0  0  0  0
   -1.3996    2.5175   -2.5983 H   0  0  0  0  0  0  0  0  0  0  0  0
   -1.0571    2.6224   -0.8628 H   0  0  0  0  0  0  0  0  0  0  0  0
   -1.9443    0.3418   -1.5041 H   0  0  0  0  0  0  0  0  0  0  0  0
   -0.5819    0.1233   -2.6015 H   0  0  0  0  0  0  0  0  0  0  0  0
    1.7820   -0.5441   -1.5647 H   0  0  0  0  0  0  0  0  0  0  0  0
    2.0820    0.1404    0.1066 H   0  0  0  0  0  0  0  0  0  0  0  0
    0.1941   -2.2866   -0.5658 H   0  0  0  0  0  0  0  0  0  0  0  0
   -1.1567   -1.3774    1.4726 H   0  0  0  0  0  0  0  0  0  0  0  0
    1.6809   -0.5472    2.3181 H   0  0  0  0  0  0  0  0  0  0  0  0
    0.2283   -0.3890    3.3217 H   0  0  0  0  0  0  0  0  0  0  0  0
    0.7973   -1.9975    2.8404 H   0  0  0  0  0  0  0  0  0  0  0  0
  1  2  1  0  0  0  0
  1 11  1  0  0  0  0
  2 12  1  0  0  0  0
  2  3  1  0  0  0  0
  3  5  1  1  0  0  0
  3  8  1  0  0  0  0
  4  3  1  0  0  0  0
  4  5  1  0  0  0  0
  4 15  1  0  0  0  0
  5  6  1  1  0  0  0
  6 17  1  1  0  0  0
  6  7  1  0  0  0  0
  7 20  1  0  0  0  0
  7 19  1  0  0  0  0
  8  6  1  0  0  0  0
  9  1  1  0  0  0  0
 10  1  1  0  0  0  0
 13  2  1  0  0  0  0
 14  4  1  0  0  0  0
 16  5  1  0  0  0  0
 18  7  1  0  0  0  0
M  END
