20
title
C 1.9304806 2.1592102 -0.5431646
C 1.9328022 0.67043924 -0.16803282
C 0.5504775 0.11765719 -0.010355477
C -0.47984043 0.38873997 1.1033661
C -1.0874056 -1.0398248 0.83242047
C -2.5504327 -1.1399971 0.42635107
C -0.033555415 -1.2080134 -0.2782139
O -0.21680728 -0.12675554 -1.2051619
H 2.9510915 2.535183 -0.6594659
H 1.3979905 2.3171113 -1.4855795
H 1.4372721 2.7618003 0.22674507
H 2.4514883 0.09102506 -0.9400148
H 2.4835212 0.5219987 0.7695452
H -0.03779998 0.4793837 2.0989466
H -1.1422294 1.2385856 0.9190041
H -0.8666457 -1.7063777 1.6727091
H -2.741025 -0.51426625 -0.45006692
H -2.8240604 -2.171266 0.17666548
H -3.2091475 -0.8072313 1.2355963
H 0.41253945 -2.1169813 -0.66929424
