18
title
C -1.4651564 2.4514465 -0.03493639
C -1.4804676 0.93040985 -0.0622278
C -0.59505093 0.18571481 -1.1330711
C 0.13005124 -0.5208264 0.022262603
C 0.8337033 -1.8392669 0.05350855
O 2.06116 -1.7987269 -0.6584026
O 0.7068598 0.52725655 0.8334369
C -0.6744934 0.19589135 1.0272068
H -0.4387354 2.817913 0.054817334
H -1.8979499 2.8654425 -0.95169467
H -2.042619 2.839538 0.8114625
H -2.5061615 0.5487601 -0.094816454
H -1.1732557 -0.4910632 -1.7665824
H 0.044327598 0.8138412 -1.7575344
H 0.9803841 -2.1408606 1.1017677
H 0.22346567 -2.6050038 -0.43689165
H 2.593522 -1.1044333 -0.25396714
H -0.9742676 -0.0854176 2.0316486
