17
title
O 1.9626061 2.0030477 -0.5820865
C 1.9141253 0.6771861 -0.07456564
C 0.5096867 0.15751691 -0.0120883025
C -0.5680412 0.49354738 1.0287738
C -1.119151 -0.967684 0.85335386
O -2.4190412 -1.1302752 0.3266372
C -0.032442596 -1.236225 -0.18907729
N -0.11161759 -0.25893384 -1.270001
H 1.5809 1.9680092 -1.4665972
H 2.523024 -0.009286868 -0.6813281
H 2.3514867 0.721416 0.928555
H -0.17538348 0.67665344 2.0323522
H -1.2531186 1.3027339 0.756521
H -0.97565734 -1.5641531 1.7639141
H -3.052425 -0.82397896 0.9836533
H 0.4694415 -2.1787064 -0.3758951
H -1.0634545 0.08681138 -1.3802516
