title
 OpenBabel02282109593D

 16 17  0  0  1  0  0  0  0  0999 V2000
    1.8890    2.0227   -0.5950 O   0  0  0  0  0  0  0  0  0  0  0  0
    1.9160    0.6426   -0.2689 C   0  0  0  0  0  0  0  0  0  0  0  0
    0.5458    0.1064   -0.0032 C   0  0  2  0  0  0  0  0  0  0  0  0
   -0.4140    0.3812    1.1587 C   0  0  0  0  0  0  0  0  0  0  0  0
   -1.0730   -1.0265    0.8720 C   0  0  1  0  0  0  0  0  0  0  0  0
   -2.4228   -1.0748    0.5114 O   0  0  0  0  0  0  0  0  0  0  0  0
   -0.0549   -1.2139   -0.2691 C   0  0  1  0  0  0  0  0  0  0  0  0
   -0.2955   -0.1137   -1.1638 O   0  0  0  0  0  0  0  0  0  0  0  0
    1.3484    2.1143   -1.3875 H   0  0  0  0  0  0  0  0  0  0  0  0
    2.3877    0.0434   -1.0619 H   0  0  0  0  0  0  0  0  0  0  0  0
    2.5313    0.5557    0.6327 H   0  0  0  0  0  0  0  0  0  0  0  0
    0.0761    0.4267    2.1343 H   0  0  0  0  0  0  0  0  0  0  0  0
   -1.0672    1.2471    1.0329 H   0  0  0  0  0  0  0  0  0  0  0  0
   -0.9306   -1.7261    1.6989 H   0  0  0  0  0  0  0  0  0  0  0  0
   -2.5004   -0.5537   -0.2982 H   0  0  0  0  0  0  0  0  0  0  0  0
    0.3571   -2.1191   -0.7023 H   0  0  0  0  0  0  0  0  0  0  0  0
  1  2  1  0  0  0  0
  2  3  1  0  0  0  0
  2 11  1  0  0  0  0
  3  7  1  1  0  0  0
  3  4  1  0  0  0  0
  4 12  1  0  0  0  0
  5  7  1  6  0  0  0
  5  4  1  0  0  0  0
  5 14  1  0  0  0  0
  6  5  1  0  0  0  0
  7 16  1  6  0  0  0
  8  7  1  0  0  0  0
  8  3  1  0  0  0  0
  9  1  1  0  0  0  0
 10  2  1  0  0  0  0
 13  4  1  0  0  0  0
 15  6  1  0  0  0  0
M  END
