18
title
C -1.3719326 2.0798995 1.3699594
O -0.9345914 0.7376541 1.4988091
C -0.3301692 0.2516153 0.36056453
C -1.1087132 -0.2370937 -0.82749563
C -0.23222537 -1.2059171 -0.05664165
C 1.2271394 -1.0035506 -0.44534093
O 1.4937946 -1.3006884 -1.799147
C 1.1333619 0.50978166 -0.022045445
H -0.53271174 2.7648287 1.182209
H -2.0995913 2.1876135 0.5535823
H -1.8465357 2.353405 2.3149116
H -2.1696522 -0.36669564 -0.6397386
H -0.8478307 0.04567986 -1.8429455
H -0.642194 -2.089793 0.4150527
H 1.9040507 -1.554761 0.2203068
H 2.4149098 -1.0856302 -1.9770576
H 1.3146054 1.2398779 -0.81729776
H 1.7621764 0.7384346 0.8419026
