title
 OpenBabel02282109593D

 18 19  0  0  1  0  0  0  0  0999 V2000
   -1.3719    2.0799    1.3700 C   0  0  0  0  0  0  0  0  0  0  0  0
   -0.9346    0.7377    1.4988 O   0  0  0  0  0  0  0  0  0  0  0  0
   -0.3302    0.2516    0.3606 C   0  0  2  0  0  0  0  0  0  0  0  0
   -1.1087   -0.2371   -0.8275 C   0  0  0  0  0  0  0  0  0  0  0  0
   -0.2322   -1.2059   -0.0566 C   0  0  1  0  0  0  0  0  0  0  0  0
    1.2271   -1.0036   -0.4453 C   0  0  1  0  0  0  0  0  0  0  0  0
    1.4938   -1.3007   -1.7991 O   0  0  0  0  0  0  0  0  0  0  0  0
    1.1334    0.5098   -0.0220 C   0  0  0  0  0  0  0  0  0  0  0  0
   -0.5327    2.7648    1.1822 H   0  0  0  0  0  0  0  0  0  0  0  0
   -2.0996    2.1876    0.5536 H   0  0  0  0  0  0  0  0  0  0  0  0
   -1.8465    2.3534    2.3149 H   0  0  0  0  0  0  0  0  0  0  0  0
   -2.1697   -0.3667   -0.6397 H   0  0  0  0  0  0  0  0  0  0  0  0
   -0.8478    0.0457   -1.8429 H   0  0  0  0  0  0  0  0  0  0  0  0
   -0.6422   -2.0898    0.4151 H   0  0  0  0  0  0  0  0  0  0  0  0
    1.9041   -1.5548    0.2203 H   0  0  0  0  0  0  0  0  0  0  0  0
    2.4149   -1.0856   -1.9771 H   0  0  0  0  0  0  0  0  0  0  0  0
    1.3146    1.2399   -0.8173 H   0  0  0  0  0  0  0  0  0  0  0  0
    1.7622    0.7384    0.8419 H   0  0  0  0  0  0  0  0  0  0  0  0
  1  2  1  0  0  0  0
  1 11  1  0  0  0  0
  3  5  1  1  0  0  0
  3  2  1  0  0  0  0
  4 12  1  0  0  0  0
  4  5  1  0  0  0  0
  4  3  1  0  0  0  0
  5  6  1  6  0  0  0
  5 14  1  0  0  0  0
  6  8  1  0  0  0  0
  6 15  1  1  0  0  0
  7  6  1  0  0  0  0
  8  3  1  0  0  0  0
  8 18  1  0  0  0  0
  9  1  1  0  0  0  0
 10  1  1  0  0  0  0
 13  4  1  0  0  0  0
 16  7  1  0  0  0  0
 17  8  1  0  0  0  0
M  END
