19
title
C -1.3334769 2.0400853 1.4417932
O -0.8754586 0.6998124 1.5178434
C -0.32621905 0.2455656 0.342856
C -1.1471032 -0.20733592 -0.8413088
C -0.21416512 -1.1785238 -0.13028067
N 1.1943036 -0.99224156 -0.4770587
C 1.6295942 -1.3231214 -1.8207138
C 1.1373008 0.44616276 -0.07940537
H -0.5107697 2.7402148 1.2382394
H -2.095396 2.158722 0.6590958
H -1.7715715 2.2825549 2.4123433
H -2.1972406 -0.36433908 -0.6140534
H -0.943661 0.14518824 -1.8491802
H -0.5650219 -2.1030028 0.31526333
H 1.0591258 -0.820813 -2.622612
H 2.684566 -1.0545212 -1.9378054
H 1.5411323 -2.4040368 -1.972415
H 1.3128413 1.1636302 -0.89216894
H 1.8128539 0.66492325 0.7542198
