title
 OpenBabel02282109593D

 18 19  0  0  1  0  0  0  0  0999 V2000
    2.0563    2.0127    0.3852 O   0  0  0  0  0  0  0  0  0  0  0  0
    1.9175    0.6241    0.1073 C   0  0  0  0  0  0  0  0  0  0  0  0
    0.4886    0.1740    0.1200 C   0  0  2  0  0  0  0  0  0  0  0  0
   -0.2256   -0.2507    1.3778 C   0  0  0  0  0  0  0  0  0  0  0  0
   -0.0840   -1.2446    0.2568 C   0  0  1  0  0  0  0  0  0  0  0  0
   -1.1008   -0.9528   -0.8386 C   0  0  1  0  0  0  0  0  0  0  0  0
   -2.4380   -1.1497   -0.4311 O   0  0  0  0  0  0  0  0  0  0  0  0
   -0.5566    0.5158   -0.9510 C   0  0  0  0  0  0  0  0  0  0  0  0
    1.6067    2.1800    1.2204 H   0  0  0  0  0  0  0  0  0  0  0  0
    2.3576    0.4844   -0.8868 H   0  0  0  0  0  0  0  0  0  0  0  0
    2.5037    0.0120    0.8129 H   0  0  0  0  0  0  0  0  0  0  0  0
    0.4115   -0.4471    2.2355 H   0  0  0  0  0  0  0  0  0  0  0  0
   -1.2045    0.1498    1.6239 H   0  0  0  0  0  0  0  0  0  0  0  0
    0.4385   -2.1842    0.3918 H   0  0  0  0  0  0  0  0  0  0  0  0
   -0.8798   -1.5217   -1.7516 H   0  0  0  0  0  0  0  0  0  0  0  0
   -3.0140   -0.8937   -1.1587 H   0  0  0  0  0  0  0  0  0  0  0  0
   -1.2699    1.3033   -0.6893 H   0  0  0  0  0  0  0  0  0  0  0  0
   -0.1236    0.7348   -1.9304 H   0  0  0  0  0  0  0  0  0  0  0  0
  1  9  1  0  0  0  0
  2  3  1  0  0  0  0
  2  1  1  0  0  0  0
  2 11  1  0  0  0  0
  3  5  1  6  0  0  0
  3  4  1  0  0  0  0
  4 13  1  0  0  0  0
  4 12  1  0  0  0  0
  5  6  1  6  0  0  0
  5 14  1  0  0  0  0
  5  4  1  0  0  0  0
  6 15  1  6  0  0  0
  6  7  1  0  0  0  0
  8  6  1  0  0  0  0
  8 17  1  0  0  0  0
  8  3  1  0  0  0  0
 10  2  1  0  0  0  0
 16  7  1  0  0  0  0
 18  8  1  0  0  0  0
M  END
