title
 OpenBabel02282109593D

 16 17  0  0  1  0  0  0  0  0999 V2000
    0.0188   -2.9739   -0.0201 C   0  0  0  0  0  0  0  0  0  0  0  0
    0.0079   -1.7709   -0.0159 C   0  0  0  0  0  0  0  0  0  0  0  0
    0.0045   -0.3314    0.0006 C   0  0  1  0  0  0  0  0  0  0  0  0
   -0.3079    0.5098    1.3011 C   0  0  0  0  0  0  0  0  0  0  0  0
    0.3569    1.6417    0.4486 C   0  0  1  0  0  0  0  0  0  0  0  0
    1.3275    0.5294   -0.0717 C   0  0  0  0  0  0  0  0  0  0  0  0
   -0.6298    1.7185   -0.7257 C   0  0  0  0  0  0  0  0  0  0  0  0
   -0.8629    0.4393   -1.0216 C   0  0  0  0  0  0  0  0  0  0  0  0
    0.0273   -4.0355   -0.0252 H   0  0  0  0  0  0  0  0  0  0  0  0
   -1.3599    0.6254    1.5688 H   0  0  0  0  0  0  0  0  0  0  0  0
    0.2897    0.1944    2.1612 H   0  0  0  0  0  0  0  0  0  0  0  0
    0.7191    2.5669    0.8933 H   0  0  0  0  0  0  0  0  0  0  0  0
    2.0755    0.2158    0.6621 H   0  0  0  0  0  0  0  0  0  0  0  0
    1.7716    0.6630   -1.0599 H   0  0  0  0  0  0  0  0  0  0  0  0
   -1.0213    2.6176   -1.1793 H   0  0  0  0  0  0  0  0  0  0  0  0
   -1.4886   -0.0180   -1.7735 H   0  0  0  0  0  0  0  0  0  0  0  0
  1  2  3  0  0  0  0
  3  2  1  1  0  0  0
  3  4  1  0  0  0  0
  4 10  1  0  0  0  0
  4 11  1  0  0  0  0
  5 12  1  1  0  0  0
  5  4  1  0  0  0  0
  6  3  1  0  0  0  0
  6  5  1  0  0  0  0
  6 13  1  0  0  0  0
  7  5  1  0  0  0  0
  8  7  2  0  0  0  0
  8  3  1  0  0  0  0
  9  1  1  0  0  0  0
 14  6  1  0  0  0  0
 15  7  1  0  0  0  0
 16  8  1  0  0  0  0
M  END
