13
title
N 0.04049661 -2.88495 -0.024205137
C 0.018082472 -1.7301904 -0.008821736
C -0.05242846 -0.28419217 0.023448568
C -0.35827282 0.541645 1.3190986
C 0.4064151 1.556389 0.4183502
O 1.2257812 0.42694822 -0.050406147
C -0.57409465 1.7345973 -0.7566656
C -0.8979732 0.47194162 -1.0318888
H -1.4013944 0.7343764 1.5713197
H 0.229394 0.20184746 2.1735919
H 0.97798276 2.3985224 0.80031693
H -0.8967001 2.6605458 -1.2078152
H -1.5513556 0.027797736 -1.7663447
