14
title
C 0.0531235 -2.943585 -0.023824656
C 0.017919505 -1.7426381 -0.0076998062
C -0.05448867 -0.30701706 0.024071002
C -0.36011782 0.5324107 1.3157735
C 0.40281558 1.546196 0.41714844
O 1.2257538 0.42578533 -0.049560998
C -0.5794124 1.7232976 -0.757432
C -0.8966486 0.4586902 -1.0301843
H 0.09226826 -4.0048814 -0.04056887
H -1.4034292 0.72565037 1.570137
H 0.22691253 0.19433346 2.1718662
H 0.96823156 2.3936253 0.7987726
H -0.906312 2.6483188 -1.2081904
H -1.5506303 0.014844926 -1.7648499
