16
title
C 0.018786294 -2.9738624 -0.020117195
C 0.007853808 -1.7709339 -0.015922334
C 0.004485787 -0.3314178 0.00061606604
C -0.30789092 0.5097945 1.3011225
C 0.35687783 1.6417341 0.44857106
C 1.3274753 0.5293968 -0.07171363
C -0.629767 1.7185152 -0.7256538
C -0.8628686 0.43929315 -1.0216
H 0.027330384 -4.03548 -0.025158094
H -1.3598533 0.62544966 1.5688396
H 0.2896682 0.194417 2.1612206
H 0.7190883 2.5669208 0.8932581
H 2.0754826 0.21582246 0.66208786
H 1.7716162 0.66298556 -1.0599273
H -1.0213294 2.6175995 -1.1792574
H -1.4886037 -0.017973302 -1.7735255
