title
 OpenBabel02282109593D

 14 15  0  0  1  0  0  0  0  0999 V2000
    0.0464   -2.8955   -0.0189 N   0  0  0  0  0  0  0  0  0  0  0  0
    0.0134   -1.7402   -0.0191 C   0  0  0  0  0  0  0  0  0  0  0  0
   -0.0306   -0.2950    0.0096 C   0  0  1  0  0  0  0  0  0  0  0  0
   -0.3495    0.5250    1.3108 C   0  0  0  0  0  0  0  0  0  0  0  0
    0.3768    1.5962    0.4371 C   0  0  1  0  0  0  0  0  0  0  0  0
    1.2776    0.4921   -0.1197 N   0  0  0  0  0  0  0  0  0  0  0  0
   -0.6004    1.7327   -0.7372 C   0  0  0  0  0  0  0  0  0  0  0  0
   -0.8809    0.4642   -1.0298 C   0  0  0  0  0  0  0  0  0  0  0  0
   -1.3985    0.6760    1.5757 H   0  0  0  0  0  0  0  0  0  0  0  0
    0.2373    0.1930    2.1724 H   0  0  0  0  0  0  0  0  0  0  0  0
    0.8535    2.4829    0.8491 H   0  0  0  0  0  0  0  0  0  0  0  0
    1.8839    0.1824    0.6473 H   0  0  0  0  0  0  0  0  0  0  0  0
   -0.9397    2.6498   -1.1939 H   0  0  0  0  0  0  0  0  0  0  0  0
   -1.5040    0.0115   -1.7848 H   0  0  0  0  0  0  0  0  0  0  0  0
  2  1  3  0  0  0  0
  3  2  1  1  0  0  0
  3  4  1  0  0  0  0
  4  9  1  0  0  0  0
  4 10  1  0  0  0  0
  5 11  1  1  0  0  0
  5  4  1  0  0  0  0
  6  3  1  0  0  0  0
  6  5  1  0  0  0  0
  6 12  1  0  0  0  0
  7  5  1  0  0  0  0
  8  7  2  0  0  0  0
  8  3  1  0  0  0  0
 13  7  1  0  0  0  0
 14  8  1  0  0  0  0
M  END
