title
 OpenBabel02282109593D

 16 17  0  0  1  0  0  0  0  0999 V2000
   -0.0017   -2.9232   -0.0765 N   0  0  0  0  0  0  0  0  0  0  0  0
   -0.0122   -1.7682   -0.0365 C   0  0  0  0  0  0  0  0  0  0  0  0
    0.0167   -0.3213    0.0225 C   0  0  1  0  0  0  0  0  0  0  0  0
   -0.2875    0.4761    1.3245 C   0  0  0  0  0  0  0  0  0  0  0  0
    0.4185    1.6065    0.5149 C   0  0  1  0  0  0  0  0  0  0  0  0
    1.3523    0.4905   -0.0420 C   0  0  0  0  0  0  0  0  0  0  0  0
   -0.5712    1.7854   -0.6484 C   0  0  0  0  0  0  0  0  0  0  0  0
   -0.8888    0.3487   -0.9435 N   0  0  0  0  0  0  0  0  0  0  0  0
   -1.3413    0.5930    1.5822 H   0  0  0  0  0  0  0  0  0  0  0  0
    0.2971    0.1275    2.1757 H   0  0  0  0  0  0  0  0  0  0  0  0
    0.8087    2.5032    0.9925 H   0  0  0  0  0  0  0  0  0  0  0  0
    2.0964    0.1538    0.6813 H   0  0  0  0  0  0  0  0  0  0  0  0
    1.8014    0.6249   -1.0297 H   0  0  0  0  0  0  0  0  0  0  0  0
   -1.4761    2.3269   -0.3552 H   0  0  0  0  0  0  0  0  0  0  0  0
   -0.1242    2.2969   -1.5070 H   0  0  0  0  0  0  0  0  0  0  0  0
   -0.6090    0.1109   -1.8904 H   0  0  0  0  0  0  0  0  0  0  0  0
  1  2  3  0  0  0  0
  3  2  1  1  0  0  0
  3  4  1  0  0  0  0
  4  9  1  0  0  0  0
  4 10  1  0  0  0  0
  5 11  1  1  0  0  0
  5  4  1  0  0  0  0
  6  3  1  0  0  0  0
  6  5  1  0  0  0  0
  6 12  1  0  0  0  0
  7 14  1  0  0  0  0
  7  5  1  0  0  0  0
  8  7  1  0  0  0  0
  8  3  1  0  0  0  0
 13  6  1  0  0  0  0
 15  7  1  0  0  0  0
 16  8  1  0  0  0  0
M  END
