16
title
N -0.0017472405 -2.9232147 -0.07647458
C -0.012212968 -1.7681829 -0.036526594
C 0.01667126 -0.32129735 0.02249847
C -0.28749013 0.47612745 1.3244932
C 0.41853407 1.6064967 0.5149282
C 1.3523155 0.49049717 -0.04200271
C -0.5711554 1.7854143 -0.64838374
N -0.8888457 0.34873706 -0.94352496
H -1.3413281 0.5930453 1.5822154
H 0.2970678 0.12746711 2.1756961
H 0.80871105 2.5032265 0.9924959
H 2.0963511 0.1538188 0.68127865
H 1.8013737 0.6249128 -1.0297201
H -1.4761196 2.3269384 -0.35522854
H -0.12419433 2.2969177 -1.5069788
H -0.60898197 0.110858396 -1.8903861
