title
 OpenBabel02282109593D

 15 16  0  0  1  0  0  0  0  0999 V2000
    0.0545   -2.9157   -0.0197 N   0  0  0  0  0  0  0  0  0  0  0  0
    0.0286   -1.7608    0.0011 C   0  0  0  0  0  0  0  0  0  0  0  0
    0.0194   -0.3133    0.0687 C   0  0  1  0  0  0  0  0  0  0  0  0
   -0.8426    0.4783    1.0857 C   0  0  0  0  0  0  0  0  0  0  0  0
   -0.6996    1.4936   -0.0681 C   0  0  1  0  0  0  0  0  0  0  0  0
    0.7929    1.8813   -0.0437 C   0  0  0  0  0  0  0  0  0  0  0  0
    1.3776    0.4378    0.0709 C   0  0  0  0  0  0  0  0  0  0  0  0
   -0.7039    0.3628   -1.0058 O   0  0  0  0  0  0  0  0  0  0  0  0
   -1.8504    0.0718    1.1576 H   0  0  0  0  0  0  0  0  0  0  0  0
   -0.4190    0.7067    2.0659 H   0  0  0  0  0  0  0  0  0  0  0  0
   -1.4478    2.2515   -0.2911 H   0  0  0  0  0  0  0  0  0  0  0  0
    1.0891    2.3791   -0.9683 H   0  0  0  0  0  0  0  0  0  0  0  0
    1.0514    2.5231    0.8021 H   0  0  0  0  0  0  0  0  0  0  0  0
    1.9522    0.2600    0.9822 H   0  0  0  0  0  0  0  0  0  0  0  0
    1.9797    0.1493   -0.7914 H   0  0  0  0  0  0  0  0  0  0  0  0
  1  2  3  0  0  0  0
  3  2  1  1  0  0  0
  3  7  1  0  0  0  0
  3  4  1  0  0  0  0
  4  9  1  0  0  0  0
  4 10  1  0  0  0  0
  5 11  1  6  0  0  0
  5  6  1  0  0  0  0
  5  4  1  0  0  0  0
  6  7  1  0  0  0  0
  6 13  1  0  0  0  0
  7 14  1  0  0  0  0
  8  5  1  0  0  0  0
  8  3  1  0  0  0  0
 12  6  1  0  0  0  0
 15  7  1  0  0  0  0
M  END
