15
title
N -0.0243871 -2.9090683 -0.0650967
C -0.016174106 -1.754242 -0.04089498
C 0.03960476 -0.3088592 0.042317264
C -0.2648615 0.4893073 1.3414897
C 0.40854788 1.6168553 0.49654034
C 1.3599576 0.5068061 -0.052449293
C -0.587756 1.7166737 -0.6635349
O -0.80861324 0.30875865 -0.938634
H -1.3178304 0.59005183 1.610654
H 0.3377437 0.17167965 2.1922665
H 0.77711785 2.5404258 0.9377531
H 2.1131303 0.19078556 0.669151
H 1.7847725 0.6234662 -1.0510814
H -1.535324 2.1924653 -0.3897263
H -0.17901814 2.2070622 -1.5533026
