15
title
N 0.054504625 -2.915652 -0.019731278
C 0.028561458 -1.7607616 0.0010575945
C 0.019385036 -0.31333005 0.0686803
C -0.842556 0.4782908 1.0856994
C -0.6995556 1.493561 -0.06806519
C 0.7929017 1.8812697 -0.04370019
C 1.3775971 0.43783402 0.0708666
O -0.70385325 0.3627994 -1.0057552
H -1.8504293 0.07184815 1.1575589
H -0.41895345 0.7067256 2.0658994
H -1.4478006 2.251492 -0.29107657
H 1.0890843 2.379129 -0.96829027
H 1.0514008 2.5230937 0.8020967
H 1.952204 0.26004243 0.98224366
H 1.9797127 0.1492965 -0.7913567
