title
 OpenBabel02282109593D

 15 16  0  0  1  0  0  0  0  0999 V2000
    0.0029   -2.9626   -0.0433 N   0  0  0  0  0  0  0  0  0  0  0  0
    0.0122   -1.8067   -0.0133 C   0  0  0  0  0  0  0  0  0  0  0  0
    0.0268   -0.3654    0.0269 C   0  0  1  0  0  0  0  0  0  0  0  0
   -0.3054    0.4614    1.3198 C   0  0  0  0  0  0  0  0  0  0  0  0
    0.3735    1.5678    0.4766 C   0  0  1  0  0  0  0  0  0  0  0  0
    1.3464    0.4827   -0.0450 C   0  0  0  0  0  0  0  0  0  0  0  0
   -0.5344    1.7563   -0.6194 O   0  0  0  0  0  0  0  0  0  0  0  0
   -0.8339    0.4007   -1.0030 C   0  0  0  0  0  0  0  0  0  0  0  0
   -1.3575    0.5953    1.5770 H   0  0  0  0  0  0  0  0  0  0  0  0
    0.2800    0.1362    2.1797 H   0  0  0  0  0  0  0  0  0  0  0  0
    0.6873    2.5308    0.8714 H   0  0  0  0  0  0  0  0  0  0  0  0
    2.0854    0.1594    0.6880 H   0  0  0  0  0  0  0  0  0  0  0  0
    1.7952    0.6359   -1.0278 H   0  0  0  0  0  0  0  0  0  0  0  0
   -0.5261    0.2142   -2.0369 H   0  0  0  0  0  0  0  0  0  0  0  0
   -1.9044    0.1964   -0.8982 H   0  0  0  0  0  0  0  0  0  0  0  0
  1  2  3  0  0  0  0
  3  2  1  1  0  0  0
  3  4  1  0  0  0  0
  4  9  1  0  0  0  0
  4 10  1  0  0  0  0
  5 11  1  1  0  0  0
  5  4  1  0  0  0  0
  6  3  1  0  0  0  0
  6  5  1  0  0  0  0
  6 12  1  0  0  0  0
  7  5  1  0  0  0  0
  8 15  1  0  0  0  0
  8  7  1  0  0  0  0
  8  3  1  0  0  0  0
 13  6  1  0  0  0  0
 14  8  1  0  0  0  0
M  END
