title
 OpenBabel02282109593D

 17 18  0  0  1  0  0  0  0  0999 V2000
    0.0011   -2.9439   -0.0346 N   0  0  0  0  0  0  0  0  0  0  0  0
    0.0008   -1.7873   -0.0209 C   0  0  0  0  0  0  0  0  0  0  0  0
    0.0042   -0.3421    0.0009 C   0  0  1  0  0  0  0  0  0  0  0  0
   -0.2966    0.4645    1.3067 C   0  0  0  0  0  0  0  0  0  0  0  0
    0.4260    1.5985    0.5250 C   0  0  1  0  0  0  0  0  0  0  0  0
    1.3324    0.4812   -0.0659 C   0  0  0  0  0  0  0  0  0  0  0  0
   -0.5535    1.8671   -0.6341 C   0  0  0  0  0  0  0  0  0  0  0  0
   -0.8802    0.3923   -1.0398 C   0  0  0  0  0  0  0  0  0  0  0  0
   -1.3461    0.6021    1.5796 H   0  0  0  0  0  0  0  0  0  0  0  0
    0.2772    0.0969    2.1589 H   0  0  0  0  0  0  0  0  0  0  0  0
    0.8496    2.4604    1.0382 H   0  0  0  0  0  0  0  0  0  0  0  0
    2.0793    0.1154    0.6404 H   0  0  0  0  0  0  0  0  0  0  0  0
    1.7776    0.6341   -1.0524 H   0  0  0  0  0  0  0  0  0  0  0  0
   -1.4412    2.4157   -0.3084 H   0  0  0  0  0  0  0  0  0  0  0  0
   -0.0886    2.4296   -1.4481 H   0  0  0  0  0  0  0  0  0  0  0  0
   -0.5831    0.1514   -2.0631 H   0  0  0  0  0  0  0  0  0  0  0  0
   -1.9360    0.1376   -0.9231 H   0  0  0  0  0  0  0  0  0  0  0  0
  1  2  3  0  0  0  0
  3  2  1  1  0  0  0
  3  4  1  0  0  0  0
  4  9  1  0  0  0  0
  4 10  1  0  0  0  0
  5 11  1  1  0  0  0
  5  4  1  0  0  0  0
  6  3  1  0  0  0  0
  6  5  1  0  0  0  0
  6 12  1  0  0  0  0
  7 14  1  0  0  0  0
  7  5  1  0  0  0  0
  8 17  1  0  0  0  0
  8  7  1  0  0  0  0
  8  3  1  0  0  0  0
 13  6  1  0  0  0  0
 15  7  1  0  0  0  0
 16  8  1  0  0  0  0
M  END
