title
 OpenBabel02282109593D

 18 19  0  0  1  0  0  0  0  0999 V2000
    0.0027   -3.0051   -0.0336 C   0  0  0  0  0  0  0  0  0  0  0  0
    0.0053   -1.8019   -0.0162 C   0  0  0  0  0  0  0  0  0  0  0  0
    0.0068   -0.3618    0.0035 C   0  0  1  0  0  0  0  0  0  0  0  0
   -0.2964    0.4588    1.3041 C   0  0  0  0  0  0  0  0  0  0  0  0
    0.4225    1.5921    0.5210 C   0  0  1  0  0  0  0  0  0  0  0  0
    1.3299    0.4758   -0.0664 C   0  0  0  0  0  0  0  0  0  0  0  0
   -0.5576    1.8540   -0.6388 C   0  0  0  0  0  0  0  0  0  0  0  0
   -0.8775    0.3767   -1.0366 C   0  0  0  0  0  0  0  0  0  0  0  0
    0.0019   -4.0665   -0.0469 H   0  0  0  0  0  0  0  0  0  0  0  0
   -1.3459    0.5972    1.5794 H   0  0  0  0  0  0  0  0  0  0  0  0
    0.2780    0.0960    2.1585 H   0  0  0  0  0  0  0  0  0  0  0  0
    0.8427    2.4588    1.0303 H   0  0  0  0  0  0  0  0  0  0  0  0
    2.0789    0.1148    0.6407 H   0  0  0  0  0  0  0  0  0  0  0  0
    1.7772    0.6298   -1.0527 H   0  0  0  0  0  0  0  0  0  0  0  0
   -1.4469    2.4023   -0.3149 H   0  0  0  0  0  0  0  0  0  0  0  0
   -0.0946    2.4165   -1.4546 H   0  0  0  0  0  0  0  0  0  0  0  0
   -0.5811    0.1335   -2.0600 H   0  0  0  0  0  0  0  0  0  0  0  0
   -1.9333    0.1194   -0.9204 H   0  0  0  0  0  0  0  0  0  0  0  0
  1  2  3  0  0  0  0
  3  2  1  1  0  0  0
  3  4  1  0  0  0  0
  4 10  1  0  0  0  0
  4 11  1  0  0  0  0
  5 12  1  1  0  0  0
  5  4  1  0  0  0  0
  6  3  1  0  0  0  0
  6  5  1  0  0  0  0
  6 13  1  0  0  0  0
  7 15  1  0  0  0  0
  7  5  1  0  0  0  0
  8 18  1  0  0  0  0
  8  7  1  0  0  0  0
  8  3  1  0  0  0  0
  9  1  1  0  0  0  0
 14  6  1  0  0  0  0
 16  7  1  0  0  0  0
 17  8  1  0  0  0  0
M  END
