16
title
C -0.025686044 -2.9683962 -0.0673107
C -0.010042257 -1.7673768 -0.034632877
C 0.042045143 -0.3309895 0.044691764
C -0.2654462 0.48202607 1.3384848
C 0.40679717 1.6083386 0.49495894
C 1.3571906 0.49987623 -0.052853614
C -0.5891614 1.7035968 -0.6653172
O -0.8086773 0.30019757 -0.9393405
H -0.045467004 -4.029607 -0.102980055
H -1.3186067 0.5849456 1.6086069
H 0.33548403 0.1669043 2.1918528
H 0.7722805 2.5353978 0.9330832
H 2.112875 0.18646094 0.6678186
H 1.78341 0.6190409 -1.0512727
H -1.5357754 2.1835551 -0.3911833
H -0.1800037 2.1984746 -1.5537269
