16
title
O -1.9449978 -1.6850626 -0.53210545
C -1.4898943 -0.94677126 0.30516323
C -0.24760008 -0.13807343 0.09021593
C 1.1347526 -0.7634374 -0.26211277
C 1.4396249 0.72990954 -0.596854
C -0.026368614 0.8049866 -1.126892
C 1.2570482 1.359752 0.79131645
O 0.04199565 0.69656503 1.2200772
H -1.9622493 -0.8171936 1.3026791
H 1.6782285 -1.2381634 0.5580372
H 1.0935003 -1.4060638 -1.1411457
H 2.3004084 1.041015 -1.1869476
H -0.16995668 0.29959384 -2.0814414
H -0.5446867 1.7662052 -1.0992396
H 2.0722344 1.1319441 1.4872587
H 1.1006125 2.4439602 0.76386297
