14
title
O -1.6400955 -1.9833642 0.20203494
C -1.5756009 -0.80875605 -0.043317188
C -0.32029593 0.0029832455 -0.03125433
C 0.029441847 1.0137459 1.1233215
C 1.4141922 0.6853196 0.48901275
O 0.92709064 -0.68130594 0.2711332
C 1.2648697 1.2999235 -0.91621584
C 0.063852206 0.84745854 -1.2763599
H -2.48057 -0.20840594 -0.29884946
H -0.35466623 2.0329745 1.0614794
H -0.10028647 0.57100934 2.1132905
H 2.3575275 0.74880856 1.0279362
H 1.9695611 1.9311067 -1.436661
H -0.51834 0.98652357 -2.1747952
