18
title
O -1.6908028 -2.0502987 -0.021608923
C -1.5943018 -0.8578526 0.13757035
C -0.3242214 -0.08365548 0.05104854
C 1.0303249 -0.71799684 -0.36093274
C 1.391715 0.75983477 -0.6928419
C -0.092456125 0.9265475 -1.1290839
C 1.3882887 1.4145067 0.7020294
C 0.06966076 0.7896211 1.2695096
H -2.4965742 -0.23712444 0.356155
H 1.6094682 -1.2317842 0.41112217
H 0.9355726 -1.3493378 -1.2457947
H 2.2101054 1.0131526 -1.36681
H -0.30301467 0.4782076 -2.1022766
H -0.5507008 1.9170616 -1.0545017
H 2.2655625 1.136509 1.2925574
H 1.3479292 2.5062227 0.6523006
H -0.6902881 1.5402875 1.5058045
H 0.23788759 0.18526363 2.1649137
