15
title
O -1.5979164 -2.010826 0.23044369
C -1.5445055 -0.86984575 -0.15473649
C -0.31212154 -0.03174379 -0.09455047
C -0.051685832 0.9336759 1.131796
C 1.3877323 0.7454587 0.5574767
N 1.0265033 -0.68985295 0.18498522
C 1.2381191 1.4046866 -0.82058436
C 0.085892536 0.8954421 -1.2574635
H -2.4443564 -0.34863272 -0.5552243
H -0.5054152 1.9282669 1.1166402
H -0.20519438 0.43638238 2.0949204
H 2.2909741 0.91570675 1.1414855
H 0.9141698 -1.2270777 1.0498378
H 1.9269345 2.091186 -1.2896942
H -0.45248738 1.0335766 -2.1831572
