16
title
O -1.6999313 -2.010603 0.1712973
C -1.5775527 -0.84777623 -0.12065364
C -0.2853563 -0.09841972 -0.011537348
C 0.03482874 0.7778458 1.2364713
C 0.8481669 1.4848812 0.13175622
C 1.9629552 0.47501534 -0.21370715
C 1.0598905 -0.7961444 -0.312263
O -0.20514362 1.1171045 -0.81894475
H -2.4332044 -0.22946374 -0.47074327
H -0.82686937 1.3659468 1.5533831
H 0.5483908 0.31564516 2.0824442
H 1.0778785 2.549843 0.14820218
H 2.4420676 0.72383946 -1.1623895
H 2.7314997 0.40864986 0.5606813
H 1.2980571 -1.5732104 0.4158521
H 1.0566576 -1.2405014 -1.3088739
