title
 OpenBabel02282109593D

 15 16  0  0  1  0  0  0  0  0999 V2000
   -1.5979   -2.0108    0.2304 O   0  0  0  0  0  0  0  0  0  0  0  0
   -1.5445   -0.8698   -0.1547 C   0  0  0  0  0  0  0  0  0  0  0  0
   -0.3121   -0.0317   -0.0946 C   0  0  1  0  0  0  0  0  0  0  0  0
   -0.0517    0.9337    1.1318 C   0  0  0  0  0  0  0  0  0  0  0  0
    1.3877    0.7455    0.5575 C   0  0  1  0  0  0  0  0  0  0  0  0
    1.0265   -0.6899    0.1850 N   0  0  0  0  0  0  0  0  0  0  0  0
    1.2381    1.4047   -0.8206 C   0  0  0  0  0  0  0  0  0  0  0  0
    0.0859    0.8954   -1.2575 C   0  0  0  0  0  0  0  0  0  0  0  0
   -2.4444   -0.3486   -0.5552 H   0  0  0  0  0  0  0  0  0  0  0  0
   -0.5054    1.9283    1.1166 H   0  0  0  0  0  0  0  0  0  0  0  0
   -0.2052    0.4364    2.0949 H   0  0  0  0  0  0  0  0  0  0  0  0
    2.2910    0.9157    1.1415 H   0  0  0  0  0  0  0  0  0  0  0  0
    0.9142   -1.2271    1.0498 H   0  0  0  0  0  0  0  0  0  0  0  0
    1.9269    2.0912   -1.2897 H   0  0  0  0  0  0  0  0  0  0  0  0
   -0.4525    1.0336   -2.1832 H   0  0  0  0  0  0  0  0  0  0  0  0
  2  1  2  0  0  0  0
  3  2  1  6  0  0  0
  3  6  1  0  0  0  0
  3  4  1  0  0  0  0
  4 11  1  0  0  0  0
  5  4  1  0  0  0  0
  5 12  1  1  0  0  0
  6  5  1  0  0  0  0
  6 13  1  0  0  0  0
  7  5  1  0  0  0  0
  8  7  2  0  0  0  0
  8  3  1  0  0  0  0
  9  2  1  0  0  0  0
 10  4  1  0  0  0  0
 14  7  1  0  0  0  0
 15  8  1  0  0  0  0
M  END
