20
title
C 1.8302429 2.0024364 -0.15667379
C 1.7619745 0.48859546 0.0800627
C 0.35340488 -0.06818705 0.03355921
C -0.5625683 0.004653639 -1.2468857
C -1.3522722 -1.0991712 -0.46665627
C 0.05173205 -1.6123644 7.467503e-05
C -1.7780727 -0.30508518 0.7773701
C -0.6711732 0.36534968 1.1041589
H 2.8619115 2.3640075 -0.1068803
H 1.4310745 2.2659972 -1.1417528
H 1.2481182 2.5512931 0.59101206
H 2.3758972 -0.024621569 -0.6710465
H 2.2093368 0.24718022 1.0539012
H -1.0804805 0.94560397 -1.4468019
H -0.06766082 -0.36880785 -2.1503723
H -2.0811718 -1.7482456 -0.9504481
H 0.60757864 -2.140145 -0.783063
H 0.100850925 -2.1560457 0.9468449
H -2.7502885 -0.3201931 1.2492425
H -0.4853059 1.05038 1.9197881
