18
title
O 1.667396 1.8640295 -0.14227417
C 1.7391279 0.45230392 0.01711327
C 0.33392724 -0.08817439 0.010240565
C -0.5921825 -0.06217335 -1.2596469
C -1.3837517 -1.1181676 -0.41379443
C 0.022878144 -1.6261004 0.055183552
C -1.7810465 -0.25663474 0.7955033
C -0.66241443 0.41660407 1.071671
H 2.5627851 2.2143404 -0.12485988
H 2.3217487 -0.011618628 -0.7950687
H 2.2314339 0.18355547 0.96705556
H -1.0939578 0.8784619 -1.4928057
H -0.11317327 -0.48432913 -2.1500652
H -2.1259935 -1.7838017 -0.8528242
H 0.5575967 -2.198105 -0.71124244
H 0.08200548 -2.122709 1.0268915
H -2.7503297 -0.22620027 1.2727227
H -0.45144668 1.160136 1.8264257
