title
 OpenBabel02282109593D

 20 21  0  0  1  0  0  0  0  0999 V2000
   -1.1067    1.9968   -1.5734 C   0  0  0  0  0  0  0  0  0  0  0  0
   -0.8680    0.4811   -1.5947 C   0  0  0  0  0  0  0  0  0  0  0  0
   -0.1975   -0.0595   -0.3492 C   0  0  1  0  0  0  0  0  0  0  0  0
   -0.8395   -0.0046    1.0830 C   0  0  0  0  0  0  0  0  0  0  0  0
    0.2462   -1.0738    1.3461 C   0  0  1  0  0  0  0  0  0  0  0  0
   -0.0201   -1.5949   -0.0839 C   0  0  0  0  0  0  0  0  0  0  0  0
    1.4753   -0.3417    1.2087 O   0  0  0  0  0  0  0  0  0  0  0  0
    1.2264    0.4125    0.0022 C   0  0  0  0  0  0  0  0  0  0  0  0
   -0.1666    2.5546   -1.5162 H   0  0  0  0  0  0  0  0  0  0  0  0
   -1.6282    2.3216   -2.4787 H   0  0  0  0  0  0  0  0  0  0  0  0
   -1.7190    2.2887   -0.7137 H   0  0  0  0  0  0  0  0  0  0  0  0
   -1.8275   -0.0341   -1.7291 H   0  0  0  0  0  0  0  0  0  0  0  0
   -0.2584    0.2177   -2.4701 H   0  0  0  0  0  0  0  0  0  0  0  0
   -0.7708    0.9253    1.6530 H   0  0  0  0  0  0  0  0  0  0  0  0
   -1.8571   -0.4007    1.0999 H   0  0  0  0  0  0  0  0  0  0  0  0
    0.2904   -1.7020    2.2341 H   0  0  0  0  0  0  0  0  0  0  0  0
   -0.9579   -2.1453   -0.1838 H   0  0  0  0  0  0  0  0  0  0  0  0
    0.7979   -2.1190   -0.5855 H   0  0  0  0  0  0  0  0  0  0  0  0
    1.9654    0.1538   -0.7671 H   0  0  0  0  0  0  0  0  0  0  0  0
    1.2949    1.4860    0.2129 H   0  0  0  0  0  0  0  0  0  0  0  0
  1  9  1  0  0  0  0
  1 11  1  0  0  0  0
  2  1  1  0  0  0  0
  3  2  1  6  0  0  0
  3  6  1  0  0  0  0
  3  8  1  0  0  0  0
  3  4  1  0  0  0  0
  4 15  1  0  0  0  0
  4  5  1  0  0  0  0
  4 14  1  0  0  0  0
  5 16  1  1  0  0  0
  6  5  1  0  0  0  0
  7  5  1  0  0  0  0
  8 20  1  0  0  0  0
  8  7  1  0  0  0  0
 10  1  1  0  0  0  0
 12  2  1  0  0  0  0
 13  2  1  0  0  0  0
 17  6  1  0  0  0  0
 18  6  1  0  0  0  0
 19  8  1  0  0  0  0
M  END
