title
 OpenBabel02282109593D

 20 21  0  0  1  0  0  0  0  0999 V2000
   -0.9897    1.9278   -1.4096 C   0  0  0  0  0  0  0  0  0  0  0  0
   -0.7442    0.5380   -1.4602 O   0  0  0  0  0  0  0  0  0  0  0  0
   -0.1476    0.0070   -0.3229 C   0  0  1  0  0  0  0  0  0  0  0  0
   -0.8542   -0.0375    1.0758 C   0  0  0  0  0  0  0  0  0  0  0  0
    0.1420   -1.2124    1.2892 C   0  0  1  0  0  0  0  0  0  0  0  0
   -0.0540   -1.5342   -0.2199 C   0  0  0  0  0  0  0  0  0  0  0  0
    1.5048   -0.4867    1.2860 C   0  0  0  0  0  0  0  0  0  0  0  0
    1.2881    0.4503    0.0550 C   0  0  0  0  0  0  0  0  0  0  0  0
   -0.0610    2.5147   -1.3736 H   0  0  0  0  0  0  0  0  0  0  0  0
   -1.5318    2.1890   -2.3215 H   0  0  0  0  0  0  0  0  0  0  0  0
   -1.6070    2.2010   -0.5412 H   0  0  0  0  0  0  0  0  0  0  0  0
   -0.7753    0.8301    1.7379 H   0  0  0  0  0  0  0  0  0  0  0  0
   -1.8916   -0.3697    0.9959 H   0  0  0  0  0  0  0  0  0  0  0  0
   -0.0251   -1.9649    2.0584 H   0  0  0  0  0  0  0  0  0  0  0  0
   -1.0122   -2.0118   -0.4336 H   0  0  0  0  0  0  0  0  0  0  0  0
    0.7559   -2.0376   -0.7560 H   0  0  0  0  0  0  0  0  0  0  0  0
    1.6812    0.0688    2.2118 H   0  0  0  0  0  0  0  0  0  0  0  0
    2.3408   -1.1777    1.1445 H   0  0  0  0  0  0  0  0  0  0  0  0
    1.9922    0.2627   -0.7606 H   0  0  0  0  0  0  0  0  0  0  0  0
    1.3476    1.5097    0.3187 H   0  0  0  0  0  0  0  0  0  0  0  0
  1  9  1  0  0  0  0
  1 11  1  0  0  0  0
  2  1  1  0  0  0  0
  3  2  1  6  0  0  0
  3  6  1  0  0  0  0
  3  8  1  0  0  0  0
  3  4  1  0  0  0  0
  4  5  1  0  0  0  0
  4 12  1  0  0  0  0
  5 14  1  1  0  0  0
  6  5  1  0  0  0  0
  7  5  1  0  0  0  0
  7 17  1  0  0  0  0
  8 20  1  0  0  0  0
  8  7  1  0  0  0  0
 10  1  1  0  0  0  0
 13  4  1  0  0  0  0
 15  6  1  0  0  0  0
 16  6  1  0  0  0  0
 18  7  1  0  0  0  0
 19  8  1  0  0  0  0
M  END
