18
title
C -0.72387785 1.8908828 1.5377212
O -0.91188365 0.5042937 1.3405813
C -0.20214072 -0.018305184 0.27090392
C 1.370813 0.0049023004 0.15916106
C 1.0545217 -1.1433145 -0.8597887
C -0.08809903 -1.5652162 0.13087794
C 0.2402133 -0.37513578 -1.9120703
C -0.58648896 0.36987957 -1.1765466
H 0.32560053 2.1299837 1.7627376
H -1.0300109 2.47816 0.6599469
H -1.3435012 2.180585 2.3893116
H 1.8465949 0.9051431 -0.23533681
H 1.866767 -0.3454305 1.069791
H 1.8182853 -1.843283 -1.1910722
H 0.27855912 -2.0465016 1.0425192
H -0.9470828 -2.0967271 -0.28318277
H 0.3352454 -0.46027064 -2.9854908
H -1.3665164 1.0593371 -1.4660454
