title
 OpenBabel02282109593D

 16 17  0  0  1  0  0  0  0  0999 V2000
    1.7098    1.7968    0.1201 O   0  0  0  0  0  0  0  0  0  0  0  0
    1.7386    0.3924   -0.0643 C   0  0  0  0  0  0  0  0  0  0  0  0
    0.3421   -0.1638   -0.1193 C   0  0  1  0  0  0  0  0  0  0  0  0
   -0.0603   -1.6699   -0.0219 C   0  0  0  0  0  0  0  0  0  0  0  0
   -1.3206   -0.9393    0.5309 C   0  0  1  0  0  0  0  0  0  0  0  0
   -0.4116    0.0410    1.1369 O   0  0  0  0  0  0  0  0  0  0  0  0
   -1.8130   -0.1790   -0.7161 C   0  0  0  0  0  0  0  0  0  0  0  0
   -0.6755    0.3568   -1.1594 C   0  0  0  0  0  0  0  0  0  0  0  0
    1.1203    1.9622    0.8656 H   0  0  0  0  0  0  0  0  0  0  0  0
    2.2568    0.2043   -1.0111 H   0  0  0  0  0  0  0  0  0  0  0  0
    2.3018   -0.1124    0.7353 H   0  0  0  0  0  0  0  0  0  0  0  0
   -0.1501   -2.2487   -0.9429 H   0  0  0  0  0  0  0  0  0  0  0  0
    0.4941   -2.2046    0.7536 H   0  0  0  0  0  0  0  0  0  0  0  0
   -2.0315   -1.3870    1.2235 H   0  0  0  0  0  0  0  0  0  0  0  0
   -2.8221   -0.1281   -1.0975 H   0  0  0  0  0  0  0  0  0  0  0  0
   -0.4613    0.9911   -2.0064 H   0  0  0  0  0  0  0  0  0  0  0  0
  1  9  1  0  0  0  0
  2  1  1  0  0  0  0
  2 11  1  0  0  0  0
  3  2  1  6  0  0  0
  3  4  1  0  0  0  0
  3  6  1  0  0  0  0
  4  5  1  0  0  0  0
  4 13  1  0  0  0  0
  5  6  1  0  0  0  0
  5 14  1  1  0  0  0
  7  5  1  0  0  0  0
  8  7  2  0  0  0  0
  8  3  1  0  0  0  0
 10  2  1  0  0  0  0
 12  4  1  0  0  0  0
 15  7  1  0  0  0  0
 16  8  1  0  0  0  0
M  END
