title
 OpenBabel02282109593D

 18 19  0  0  1  0  0  0  0  0999 V2000
    1.6674    1.8640   -0.1423 O   0  0  0  0  0  0  0  0  0  0  0  0
    1.7391    0.4523    0.0171 C   0  0  0  0  0  0  0  0  0  0  0  0
    0.3339   -0.0882    0.0102 C   0  0  1  0  0  0  0  0  0  0  0  0
   -0.5922   -0.0622   -1.2596 C   0  0  0  0  0  0  0  0  0  0  0  0
   -1.3838   -1.1182   -0.4138 C   0  0  1  0  0  0  0  0  0  0  0  0
    0.0229   -1.6261    0.0552 C   0  0  0  0  0  0  0  0  0  0  0  0
   -1.7810   -0.2566    0.7955 C   0  0  0  0  0  0  0  0  0  0  0  0
   -0.6624    0.4166    1.0717 C   0  0  0  0  0  0  0  0  0  0  0  0
    2.5628    2.2143   -0.1249 H   0  0  0  0  0  0  0  0  0  0  0  0
    2.3217   -0.0116   -0.7951 H   0  0  0  0  0  0  0  0  0  0  0  0
    2.2314    0.1836    0.9671 H   0  0  0  0  0  0  0  0  0  0  0  0
   -1.0940    0.8785   -1.4928 H   0  0  0  0  0  0  0  0  0  0  0  0
   -0.1132   -0.4843   -2.1501 H   0  0  0  0  0  0  0  0  0  0  0  0
   -2.1260   -1.7838   -0.8528 H   0  0  0  0  0  0  0  0  0  0  0  0
    0.5576   -2.1981   -0.7112 H   0  0  0  0  0  0  0  0  0  0  0  0
    0.0820   -2.1227    1.0269 H   0  0  0  0  0  0  0  0  0  0  0  0
   -2.7503   -0.2262    1.2727 H   0  0  0  0  0  0  0  0  0  0  0  0
   -0.4514    1.1601    1.8264 H   0  0  0  0  0  0  0  0  0  0  0  0
  1  9  1  0  0  0  0
  1  2  1  0  0  0  0
  2 11  1  0  0  0  0
  3  2  1  6  0  0  0
  3  6  1  0  0  0  0
  3  8  1  0  0  0  0
  4  5  1  0  0  0  0
  4  3  1  0  0  0  0
  5 14  1  6  0  0  0
  5  6  1  0  0  0  0
  5  7  1  0  0  0  0
  6 16  1  0  0  0  0
  7  8  2  0  0  0  0
  7 17  1  0  0  0  0
  8 18  1  0  0  0  0
 10  2  1  0  0  0  0
 12  4  1  0  0  0  0
 13  4  1  0  0  0  0
 15  6  1  0  0  0  0
M  END
