20
title
C -0.9896976 1.9278495 -1.4095862
O -0.74417746 0.5379537 -1.4601623
C -0.14762256 0.006958619 -0.32292935
C -0.8542049 -0.037515387 1.0757716
C 0.14202318 -1.2123799 1.2892017
C -0.05397544 -1.5341531 -0.2198529
C 1.5047892 -0.48668173 1.2860167
C 1.2880872 0.45030525 0.054962315
H -0.060969867 2.5146644 -1.3736448
H -1.5318431 2.1889741 -2.3214576
H -1.6070046 2.2009983 -0.54124504
H -0.7752585 0.83008087 1.7378888
H -1.891564 -0.36971155 0.9958995
H -0.025083996 -1.9648622 2.0583858
H -1.0122343 -2.0117874 -0.4335676
H 0.7559045 -2.037625 -0.75598216
H 1.6812295 0.06882925 2.211773
H 2.3408353 -1.1776729 1.1444979
H 1.9921914 0.26274014 -0.7606051
H 1.3476094 1.5096779 0.3186529
