22
title
C -0.8479884 1.9748188 1.7337494
C -0.9642562 0.4600986 1.5194795
C -0.2141419 -0.056720827 0.307336
C 1.3433475 0.020203644 0.18318452
C 1.1241713 -1.1076466 -0.86340463
C -0.038109846 -1.5871403 0.04916074
C 0.36489296 -0.3653606 -1.9798399
C -0.6502859 0.4311491 -1.0961334
H 0.19875336 2.2801604 1.8383366
H -1.2748231 2.5353787 0.8960355
H -1.3760163 2.2837725 2.6411445
H -0.59470934 -0.058795784 2.4136548
H -2.0241587 0.18497837 1.4263976
H 1.7933085 0.9590275 -0.15603481
H 1.84898 -0.33328822 1.0859997
H 1.9315317 -1.7758138 -1.1648871
H 0.31183386 -2.118338 0.9384675
H -0.8685548 -2.1326463 -0.41196057
H 1.0186085 0.28888732 -2.5645363
H -0.12861103 -1.0519003 -2.6742961
H -1.6924969 0.17274538 -1.3104411
H -0.54528075 1.5135646 -1.2126161
