16
title
O 1.7098478 1.796798 0.12011301
C 1.7386302 0.39243227 -0.06431932
C 0.34209242 -0.16379899 -0.11932543
C -0.060336325 -1.6698893 -0.021895815
C -1.3206038 -0.93929034 0.53094757
O -0.4115636 0.04101372 1.1368572
C -1.8130062 -0.17899859 -0.7161128
C -0.6755445 0.35684615 -1.1594278
H 1.120288 1.9622396 0.8656077
H 2.2568192 0.20433612 -1.011128
H 2.3017612 -0.11243349 0.7353305
H -0.15013704 -2.2486994 -0.9428647
H 0.4941179 -2.2045815 0.75360954
H -2.0314703 -1.387032 1.2235416
H -2.8220813 -0.12808657 -1.0974633
H -0.46131346 0.99111 -2.006406
