title
 OpenBabel02282109593D

 20 21  0  0  1  0  0  0  0  0999 V2000
    1.7004    1.8788   -0.1544 O   0  0  0  0  0  0  0  0  0  0  0  0
    1.7644    0.4689    0.0301 C   0  0  0  0  0  0  0  0  0  0  0  0
    0.3587   -0.0713    0.0191 C   0  0  1  0  0  0  0  0  0  0  0  0
   -0.5348   -0.0454   -1.2593 C   0  0  0  0  0  0  0  0  0  0  0  0
   -1.3148   -1.1526   -0.4956 C   0  0  1  0  0  0  0  0  0  0  0  0
    0.0702   -1.6026    0.0547 C   0  0  0  0  0  0  0  0  0  0  0  0
   -1.8940   -0.3678    0.6984 C   0  0  0  0  0  0  0  0  0  0  0  0
   -0.6228    0.4542    1.0915 C   0  0  0  0  0  0  0  0  0  0  0  0
    2.5972    2.2247   -0.1384 H   0  0  0  0  0  0  0  0  0  0  0  0
    2.3541   -0.0078   -0.7700 H   0  0  0  0  0  0  0  0  0  0  0  0
    2.2484    0.2155    0.9890 H   0  0  0  0  0  0  0  0  0  0  0  0
   -1.0560    0.8845   -1.5034 H   0  0  0  0  0  0  0  0  0  0  0  0
   -0.0103   -0.4266   -2.1396 H   0  0  0  0  0  0  0  0  0  0  0  0
   -1.9789   -1.8484   -1.0092 H   0  0  0  0  0  0  0  0  0  0  0  0
    0.6566   -2.1575   -0.6827 H   0  0  0  0  0  0  0  0  0  0  0  0
    0.1038   -2.1114    1.0239 H   0  0  0  0  0  0  0  0  0  0  0  0
   -2.7344    0.2693    0.4071 H   0  0  0  0  0  0  0  0  0  0  0  0
   -2.2367   -1.0265    1.5021 H   0  0  0  0  0  0  0  0  0  0  0  0
   -0.2735    0.2339    2.1055 H   0  0  0  0  0  0  0  0  0  0  0  0
   -0.7652    1.5339    1.0120 H   0  0  0  0  0  0  0  0  0  0  0  0
  1  9  1  0  0  0  0
  1  2  1  0  0  0  0
  2 11  1  0  0  0  0
  3  2  1  6  0  0  0
  3  6  1  0  0  0  0
  3  8  1  0  0  0  0
  4  5  1  0  0  0  0
  4  3  1  0  0  0  0
  5 14  1  6  0  0  0
  5  6  1  0  0  0  0
  5  7  1  0  0  0  0
  6 16  1  0  0  0  0
  7  8  1  0  0  0  0
  7 18  1  0  0  0  0
  8 19  1  0  0  0  0
 10  2  1  0  0  0  0
 12  4  1  0  0  0  0
 13  4  1  0  0  0  0
 15  6  1  0  0  0  0
 17  7  1  0  0  0  0
 20  8  1  0  0  0  0
M  END
