20
title
C -0.8337233 1.9830127 1.6072493
C -0.9630535 0.46041247 1.4831342
C -0.15874879 -0.11433643 0.3461057
C 1.3895411 -0.029995084 0.20332575
C 1.1022433 -1.0888447 -0.90508187
C -0.014415123 -1.6307966 0.039515734
C 0.25320485 -0.24574083 -1.8632733
O -0.617316 0.41541898 -0.9210793
H 0.20123078 2.2772443 1.8116645
H -1.144067 2.4707894 0.68001014
H -1.4555609 2.362975 2.4231815
H -0.6426653 -0.025292277 2.4124694
H -2.0143933 0.18682897 1.3301059
H 1.8156807 0.93119085 -0.0951674
H 1.9243948 -0.44662607 1.0588921
H 1.876468 -1.7234184 -1.3344227
H 0.38170078 -2.2051744 0.8790482
H -0.8769377 -2.1324527 -0.4073751
H 0.83436227 0.49449497 -2.4268067
H -0.33738658 -0.84482336 -2.567094
