title
 OpenBabel02282109593D

 20 21  0  0  1  0  0  0  0  0999 V2000
   -0.7416    1.9111    1.7381 C   0  0  0  0  0  0  0  0  0  0  0  0
   -0.9997    0.4212    1.4810 C   0  0  0  0  0  0  0  0  0  0  0  0
   -0.3074   -0.1080    0.2501 C   0  0  1  0  0  0  0  0  0  0  0  0
   -0.1299   -1.6200   -0.0460 C   0  0  0  0  0  0  0  0  0  0  0  0
    1.1031   -1.0291   -0.7564 C   0  0  1  0  0  0  0  0  0  0  0  0
    0.5041   -0.2524   -1.9468 C   0  0  0  0  0  0  0  0  0  0  0  0
   -0.6213    0.4807   -1.1509 C   0  0  0  0  0  0  0  0  0  0  0  0
    1.1631   -0.0022    0.2799 O   0  0  0  0  0  0  0  0  0  0  0  0
    0.3326    2.1100    1.7881 H   0  0  0  0  0  0  0  0  0  0  0  0
   -1.1638    2.5384    0.9470 H   0  0  0  0  0  0  0  0  0  0  0  0
   -1.1917    2.2238    2.6848 H   0  0  0  0  0  0  0  0  0  0  0  0
   -0.6592   -0.1632    2.3435 H   0  0  0  0  0  0  0  0  0  0  0  0
   -2.0766    0.2329    1.3792 H   0  0  0  0  0  0  0  0  0  0  0  0
    0.1399   -2.1766    0.8527 H   0  0  0  0  0  0  0  0  0  0  0  0
   -0.8886   -2.1454   -0.6331 H   0  0  0  0  0  0  0  0  0  0  0  0
    2.0360   -1.5754   -0.8952 H   0  0  0  0  0  0  0  0  0  0  0  0
    1.2319    0.4368   -2.3799 H   0  0  0  0  0  0  0  0  0  0  0  0
    0.1278   -0.9065   -2.7382 H   0  0  0  0  0  0  0  0  0  0  0  0
   -1.6306    0.2346   -1.4929 H   0  0  0  0  0  0  0  0  0  0  0  0
   -0.5044    1.5657   -1.1654 H   0  0  0  0  0  0  0  0  0  0  0  0
  1  9  1  0  0  0  0
  1 11  1  0  0  0  0
  2  1  1  0  0  0  0
  2 12  1  0  0  0  0
  3  8  1  0  0  0  0
  3  2  1  1  0  0  0
  4  3  1  0  0  0  0
  4 14  1  0  0  0  0
  5 16  1  6  0  0  0
  5  4  1  0  0  0  0
  5  8  1  0  0  0  0
  6  7  1  0  0  0  0
  6  5  1  0  0  0  0
  7  3  1  0  0  0  0
 10  1  1  0  0  0  0
 13  2  1  0  0  0  0
 15  4  1  0  0  0  0
 17  6  1  0  0  0  0
 18  6  1  0  0  0  0
 19  7  1  0  0  0  0
 20  7  1  0  0  0  0
M  END
