16
title
C -0.9880198 1.8846993 -0.43888107
C -0.7973311 0.37307712 -0.4470644
C 0.42524242 -0.15936463 -1.2077352
O 0.86271787 -0.12546025 -2.3121488
O 0.97598636 -0.76762617 -0.10310765
C -0.11215795 -0.3031574 0.7384322
C 0.14220828 0.15331772 2.1300237
C -0.6251448 -1.1377679 1.8542588
H -0.07823474 2.3974352 -0.11404612
H -1.2384553 2.2380276 -1.442984
H -1.801768 2.1719074 0.2342583
H -1.7115958 -0.13891725 -0.76314443
H 1.1547151 0.059893027 2.5066369
H -0.40388453 1.0151976 2.499297
H -1.694701 -1.1571431 2.0362923
H -0.11247123 -2.0725918 2.051986
