title
 OpenBabel02282109593D

 18 19  0  0  1  0  0  0  0  0999 V2000
    1.7014    1.8886   -0.1506 O   0  0  0  0  0  0  0  0  0  0  0  0
    1.7855    0.4760   -0.0085 C   0  0  0  0  0  0  0  0  0  0  0  0
    0.3865   -0.0772   -0.0187 C   0  0  1  0  0  0  0  0  0  0  0  0
   -0.5500   -0.0497   -1.2735 C   0  0  0  0  0  0  0  0  0  0  0  0
   -1.3043   -1.1005   -0.4241 C   0  0  1  0  0  0  0  0  0  0  0  0
    0.0818   -1.6101    0.0440 C   0  0  0  0  0  0  0  0  0  0  0  0
   -1.7782   -0.3440    0.7005 O   0  0  0  0  0  0  0  0  0  0  0  0
   -0.6035    0.4261    1.0461 C   0  0  0  0  0  0  0  0  0  0  0  0
    2.5937    2.2468   -0.1405 H   0  0  0  0  0  0  0  0  0  0  0  0
    2.3681    0.0261   -0.8283 H   0  0  0  0  0  0  0  0  0  0  0  0
    2.2826    0.1991    0.9368 H   0  0  0  0  0  0  0  0  0  0  0  0
   -1.0752    0.8785   -1.5067 H   0  0  0  0  0  0  0  0  0  0  0  0
   -0.0707   -0.4660   -2.1619 H   0  0  0  0  0  0  0  0  0  0  0  0
   -2.0992   -1.7431   -0.7985 H   0  0  0  0  0  0  0  0  0  0  0  0
    0.6182   -2.1790   -0.7182 H   0  0  0  0  0  0  0  0  0  0  0  0
    0.1294   -2.1101    1.0149 H   0  0  0  0  0  0  0  0  0  0  0  0
   -0.2876    0.1947    2.0712 H   0  0  0  0  0  0  0  0  0  0  0  0
   -0.8097    1.4973    0.9659 H   0  0  0  0  0  0  0  0  0  0  0  0
  1  9  1  0  0  0  0
  1  2  1  0  0  0  0
  2 11  1  0  0  0  0
  3  2  1  6  0  0  0
  3  6  1  0  0  0  0
  3  8  1  0  0  0  0
  4  5  1  0  0  0  0
  4  3  1  0  0  0  0
  5 14  1  6  0  0  0
  5  6  1  0  0  0  0
  5  7  1  0  0  0  0
  6 16  1  0  0  0  0
  7  8  1  0  0  0  0
  8 17  1  0  0  0  0
 10  2  1  0  0  0  0
 12  4  1  0  0  0  0
 13  4  1  0  0  0  0
 15  6  1  0  0  0  0
 18  8  1  0  0  0  0
M  END
