title
 OpenBabel02282109593D

 17 18  0  0  1  0  0  0  0  0999 V2000
   -0.9658    1.8852   -0.4527 C   0  0  0  0  0  0  0  0  0  0  0  0
   -0.7875    0.3721   -0.4590 C   0  0  1  0  0  0  0  0  0  0  0  0
    0.4113   -0.1727   -1.2177 C   0  0  0  0  0  0  0  0  0  0  0  0
    0.8068   -0.1078   -2.4052 N   0  0  0  0  0  0  0  0  0  0  0  0
    0.9739   -0.7840   -0.1120 O   0  0  0  0  0  0  0  0  0  0  0  0
   -0.1008   -0.3007    0.7325 C   0  0  0  0  0  0  0  0  0  0  0  0
    0.1647    0.1673    2.1189 C   0  0  0  0  0  0  0  0  0  0  0  0
   -0.6194   -1.1170    1.8600 C   0  0  0  0  0  0  0  0  0  0  0  0
   -0.0457    2.3898   -0.1448 H   0  0  0  0  0  0  0  0  0  0  0  0
   -1.2259    2.2352   -1.4553 H   0  0  0  0  0  0  0  0  0  0  0  0
   -1.7670    2.1830    0.2314 H   0  0  0  0  0  0  0  0  0  0  0  0
   -1.7148   -0.1295   -0.7522 H   0  0  0  0  0  0  0  0  0  0  0  0
    1.6914   -0.6026   -2.5320 H   0  0  0  0  0  0  0  0  0  0  0  0
    1.1777    0.0649    2.4923 H   0  0  0  0  0  0  0  0  0  0  0  0
   -0.3686    1.0399    2.4816 H   0  0  0  0  0  0  0  0  0  0  0  0
   -1.6885   -1.1217    2.0465 H   0  0  0  0  0  0  0  0  0  0  0  0
   -0.1175   -2.0561    2.0656 H   0  0  0  0  0  0  0  0  0  0  0  0
  1  9  1  0  0  0  0
  1 11  1  0  0  0  0
  2 12  1  6  0  0  0
  2  1  1  0  0  0  0
  2  6  1  0  0  0  0
  3  2  1  0  0  0  0
  3  5  1  0  0  0  0
  4  3  2  0  0  0  0
  5  6  1  0  0  0  0
  6  8  1  0  0  0  0
  6  7  1  0  0  0  0
  7 15  1  0  0  0  0
  7 14  1  0  0  0  0
  8 16  1  0  0  0  0
  8 17  1  0  0  0  0
  8  7  1  0  0  0  0
 10  1  1  0  0  0  0
 13  4  1  0  0  0  0
M  END
