17
title
C -0.96582156 1.8851756 -0.45267725
C -0.7874732 0.37214977 -0.4589799
C 0.4112666 -0.1727311 -1.217745
N 0.8068317 -0.10784442 -2.405225
O 0.9739349 -0.7840022 -0.11201325
C -0.100825414 -0.3007117 0.73252517
C 0.16470905 0.16725078 2.1189399
C -0.6194497 -1.1169962 1.8600321
H -0.04566191 2.3898318 -0.14475298
H -1.2258902 2.2351587 -1.4552791
H -1.766956 2.1829896 0.23143518
H -1.7148292 -0.1294648 -0.75221413
H 1.6914288 -0.60256755 -2.5320172
H 1.1776927 0.06487092 2.4922624
H -0.3685952 1.039903 2.481552
H -1.6885314 -1.121681 2.046476
H -0.11745952 -2.0560586 2.0656173
