18
title
O 1.7542844 1.7852519 -0.23438366
C 1.7620083 0.41034278 0.11108484
C 0.36073443 -0.13969348 0.16351348
C -0.0076622195 -1.6424637 0.16102676
C -1.2281152 -1.0282161 -0.5584992
C -1.9458882 -0.22358803 0.5445615
C -0.6803803 0.48563576 1.1220796
O -0.3335196 -0.022451214 -1.1334335
H 1.2441696 1.8567485 -1.0499253
H 2.3598132 -0.18009625 -0.6000326
H 2.2361276 0.33195332 1.0957468
H 0.6230764 -2.21776 -0.5180405
H -0.15149336 -2.1579072 1.1142159
H -1.8213042 -1.5669352 -1.2971172
H -2.6675575 0.47711876 0.11983691
H -2.4617484 -0.86051947 1.2682735
H -0.48359194 0.24342498 2.1700509
H -0.7029287 1.5702704 1.0119921
