18
title
O 1.7109879 1.8517398 -0.07595586
C 1.7484432 0.44331053 0.066820785
C 0.3716618 -0.15138932 -0.056844402
C -0.5236849 -0.08941234 -1.322093
C -1.3622754 -1.0985084 -0.47683385
C 0.00588481 -1.6546588 0.035373613
C -1.7484198 -0.19915809 0.7032515
O -0.47790262 0.4422336 0.9587052
H 1.0066394 2.154497 0.5097141
H 2.3969672 0.05550887 -0.72517765
H 2.182702 0.14446194 1.0349998
H -0.9660184 0.8767787 -1.5739365
H -0.06160958 -0.5491911 -2.1971323
H -2.1351569 -1.7349093 -0.9053872
H 0.51465374 -2.2714543 -0.70731336
H 0.043906733 -2.1174405 1.0247184
H -2.507506 0.5508604 0.4519577
H -2.0726516 -0.753194 1.5918756
