18
title
O 1.7014083 1.888633 -0.15062883
C 1.7854823 0.47603485 -0.008508952
C 0.38645887 -0.07717908 -0.018742235
C -0.5499593 -0.04973865 -1.2735035
C -1.3042613 -1.1004677 -0.42408216
C 0.08177067 -1.6101055 0.044033308
O -1.7782081 -0.34396333 0.7005429
C -0.6034714 0.42606932 1.0460967
H 2.5936527 2.2468362 -0.14052008
H 2.3680527 0.026133742 -0.82828486
H 2.282597 0.19913349 0.93679637
H -1.0751718 0.8784803 -1.5066578
H -0.070659384 -0.46603453 -2.1618881
H -2.0991733 -1.7431357 -0.79847205
H 0.61819017 -2.1789656 -0.7182395
H 0.12937547 -2.1100626 1.0149317
H -0.2875892 0.19467103 2.0711622
H -0.80974686 1.4973487 0.9658832
