16
title
C -1.2275423 1.6762938 -0.52586544
C -0.7314901 0.237458 -0.47989136
C 0.5435441 -0.12209309 -1.2731146
O 0.9390256 0.1697396 -2.363708
C 1.1507119 -0.8943845 -0.08453588
C 0.0012584056 -0.31914344 0.7594559
C 0.035585854 0.20505401 2.123953
O -0.6411541 -1.0215482 1.8024875
H -0.44412506 2.3748882 -0.2161356
H -1.5268884 1.9394999 -1.5444044
H -2.0917106 1.8173712 0.1306177
H -1.5330267 -0.4588761 -0.7637211
H 1.081726 -1.980394 -0.21174683
H 2.1763897 -0.6334626 0.18776645
H 0.93888456 0.09585371 2.7227888
H -0.613107 1.0328691 2.4063718
