title
 OpenBabel02282109593D

 15 16  0  0  1  0  0  0  0  0999 V2000
    0.7865    1.7080   -0.6449 O   0  0  0  0  0  0  0  0  0  0  0  0
    0.7920    0.3186   -0.4517 C   0  0  1  0  0  0  0  0  0  0  0  0
    0.8298   -0.1792    0.9871 C   0  0  0  0  0  0  0  0  0  0  0  0
    1.6383   -0.0304    1.9325 N   0  0  0  0  0  0  0  0  0  0  0  0
   -0.3841   -0.8273    0.9073 O   0  0  0  0  0  0  0  0  0  0  0  0
   -0.5863   -0.3332   -0.4466 C   0  0  0  0  0  0  0  0  0  0  0  0
   -1.8910    0.2028   -0.9022 C   0  0  0  0  0  0  0  0  0  0  0  0
   -1.3390   -1.1038   -1.4675 C   0  0  0  0  0  0  0  0  0  0  0  0
    1.5434    2.0684   -0.1688 H   0  0  0  0  0  0  0  0  0  0  0  0
    1.5191   -0.1885   -1.1013 H   0  0  0  0  0  0  0  0  0  0  0  0
    1.3095   -0.4750    2.7912 H   0  0  0  0  0  0  0  0  0  0  0  0
   -2.7247    0.1326   -0.2125 H   0  0  0  0  0  0  0  0  0  0  0  0
   -1.8763    1.0932   -1.5208 H   0  0  0  0  0  0  0  0  0  0  0  0
   -0.9608   -1.1182   -2.4844 H   0  0  0  0  0  0  0  0  0  0  0  0
   -1.8126   -2.0241   -1.1436 H   0  0  0  0  0  0  0  0  0  0  0  0
  1  2  1  0  0  0  0
  1  9  1  0  0  0  0
  2 10  1  6  0  0  0
  2  6  1  0  0  0  0
  2  3  1  0  0  0  0
  3  4  2  0  0  0  0
  4 11  1  0  0  0  0
  5  3  1  0  0  0  0
  6  5  1  0  0  0  0
  7  6  1  0  0  0  0
  7 12  1  0  0  0  0
  8 15  1  0  0  0  0
  8  7  1  0  0  0  0
  8  6  1  0  0  0  0
 13  7  1  0  0  0  0
 14  8  1  0  0  0  0
M  END
