title
 OpenBabel02282109593D

 16 17  0  0  1  0  0  0  0  0999 V2000
    1.2045    1.1402   -1.0893 O   0  0  0  0  0  0  0  0  0  0  0  0
    0.8288   -0.0155   -0.4042 C   0  0  1  0  0  0  0  0  0  0  0  0
    0.7595   -0.0021    1.1377 C   0  0  0  0  0  0  0  0  0  0  0  0
    1.3163    0.6621    1.9637 O   0  0  0  0  0  0  0  0  0  0  0  0
   -0.5139   -0.8730    1.1385 C   0  0  0  0  0  0  0  0  0  0  0  0
   -0.6509   -0.4804   -0.3427 C   0  0  0  0  0  0  0  0  0  0  0  0
   -1.7754    0.3068   -0.9456 C   0  0  0  0  0  0  0  0  0  0  0  0
   -1.4630   -1.0914   -1.4373 C   0  0  0  0  0  0  0  0  0  0  0  0
    0.9918    1.8992   -0.5343 H   0  0  0  0  0  0  0  0  0  0  0  0
    1.4698   -0.8332   -0.7594 H   0  0  0  0  0  0  0  0  0  0  0  0
   -0.2950   -1.9349    1.2961 H   0  0  0  0  0  0  0  0  0  0  0  0
   -1.2957   -0.5605    1.8348 H   0  0  0  0  0  0  0  0  0  0  0  0
   -2.6765    0.4554   -0.3594 H   0  0  0  0  0  0  0  0  0  0  0  0
   -1.5059    1.1379   -1.5895 H   0  0  0  0  0  0  0  0  0  0  0  0
   -1.0028   -1.1953   -2.4151 H   0  0  0  0  0  0  0  0  0  0  0  0
   -2.1534   -1.8882   -1.1797 H   0  0  0  0  0  0  0  0  0  0  0  0
  1  9  1  0  0  0  0
  1  2  1  0  0  0  0
  2 10  1  6  0  0  0
  2  6  1  0  0  0  0
  2  3  1  0  0  0  0
  3  5  1  0  0  0  0
  3  4  2  0  0  0  0
  5 11  1  0  0  0  0
  5 12  1  0  0  0  0
  6  5  1  0  0  0  0
  7 13  1  0  0  0  0
  7  6  1  0  0  0  0
  8 16  1  0  0  0  0
  8  7  1  0  0  0  0
  8  6  1  0  0  0  0
 14  7  1  0  0  0  0
 15  8  1  0  0  0  0
M  END
