title
 OpenBabel02282109593D

 18 19  0  0  1  0  0  0  0  0999 V2000
   -2.1895    1.4785    0.1016 C   0  0  0  0  0  0  0  0  0  0  0  0
   -1.4486    0.1636   -0.1165 C   0  0  1  0  0  0  0  0  0  0  0  0
   -0.5116    0.0217   -1.3679 C   0  0  0  0  0  0  0  0  0  0  0  0
    0.6640   -0.3087   -0.4320 C   0  0  0  0  0  0  0  0  0  0  0  0
    1.7177   -1.3915   -0.5422 C   0  0  0  0  0  0  0  0  0  0  0  0
    2.1308    0.0449   -0.5311 C   0  0  0  0  0  0  0  0  0  0  0  0
   -0.2062   -0.0842    0.7696 C   0  0  0  0  0  0  0  0  0  0  0  0
   -0.0080   -0.0672    1.9538 O   0  0  0  0  0  0  0  0  0  0  0  0
   -1.5116    2.3334    0.0061 H   0  0  0  0  0  0  0  0  0  0  0  0
   -2.9952    1.6037   -0.6287 H   0  0  0  0  0  0  0  0  0  0  0  0
   -2.6274    1.5092    1.1038 H   0  0  0  0  0  0  0  0  0  0  0  0
   -2.1427   -0.6809   -0.0301 H   0  0  0  0  0  0  0  0  0  0  0  0
   -0.7923   -0.7678   -2.0686 H   0  0  0  0  0  0  0  0  0  0  0  0
   -0.3886    0.9579   -1.9200 H   0  0  0  0  0  0  0  0  0  0  0  0
    1.8977   -1.9882    0.3458 H   0  0  0  0  0  0  0  0  0  0  0  0
    1.7633   -1.9356   -1.4799 H   0  0  0  0  0  0  0  0  0  0  0  0
    2.4658    0.4936   -1.4604 H   0  0  0  0  0  0  0  0  0  0  0  0
    2.5936    0.4421    0.3663 H   0  0  0  0  0  0  0  0  0  0  0  0
  1 11  1  0  0  0  0
  2 12  1  1  0  0  0
  2  1  1  0  0  0  0
  2  7  1  0  0  0  0
  3  4  1  0  0  0  0
  3  2  1  0  0  0  0
  4  7  1  0  0  0  0
  5  6  1  0  0  0  0
  5  4  1  0  0  0  0
  5 15  1  0  0  0  0
  6  4  1  0  0  0  0
  6 18  1  0  0  0  0
  7  8  2  0  0  0  0
  9  1  1  0  0  0  0
 10  1  1  0  0  0  0
 13  3  1  0  0  0  0
 14  3  1  0  0  0  0
 16  5  1  0  0  0  0
 17  6  1  0  0  0  0
M  END
