15
title
O 0.7864595 1.7080315 -0.6448905
C 0.7920394 0.31864354 -0.4517096
C 0.829817 -0.17915204 0.987136
N 1.6383234 -0.030440178 1.9324799
O -0.38413948 -0.82731575 0.9072701
C -0.5863343 -0.33321133 -0.44662496
C -1.8909998 0.2028371 -0.9021728
C -1.3390367 -1.1038215 -1.4674642
H 1.5434192 2.0684276 -0.16881785
H 1.5191157 -0.18852279 -1.1012818
H 1.3095223 -0.47499326 2.7911675
H -2.7247329 0.13259834 -0.21249186
H -1.8762958 1.0931599 -1.5208094
H -0.96077806 -1.1182079 -2.48438
H -1.8126283 -2.0240734 -1.143603
