15
title
O 0.7253208 1.7187318 -0.5727649
C 0.7394469 0.31982678 -0.47005737
C 0.8947644 -0.25156602 0.9708596
O 1.7056724 -0.13283409 1.8510841
N -0.30505022 -0.9094025 0.8618863
C -0.6505646 -0.33892354 -0.43354648
C -1.9486375 0.27717683 -0.82642674
C -1.4405301 -0.98139834 -1.5230874
H 1.4772547 2.0516546 -0.069229186
H 1.4230845 -0.14515997 -1.1940473
H -0.8574863 -1.4027866 1.5487988
H -2.7920654 0.17263624 -0.15167037
H -1.9099517 1.2209789 -1.3591512
H -1.0758557 -0.8996229 -2.5418775
H -1.9474337 -1.9157982 -1.3043163
