title
 OpenBabel02282109593D

 16 17  0  0  1  0  0  0  0  0999 V2000
    0.7978    1.7594   -0.7810 N   0  0  0  0  0  0  0  0  0  0  0  0
    0.7766    0.3480   -0.4723 C   0  0  1  0  0  0  0  0  0  0  0  0
    0.8717   -0.1607    0.9696 C   0  0  0  0  0  0  0  0  0  0  0  0
    1.6885   -0.0150    1.9091 N   0  0  0  0  0  0  0  0  0  0  0  0
   -0.3325   -0.8405    0.9128 O   0  0  0  0  0  0  0  0  0  0  0  0
   -0.5904   -0.3362   -0.4217 C   0  0  0  0  0  0  0  0  0  0  0  0
   -1.9234    0.1876   -0.8215 C   0  0  0  0  0  0  0  0  0  0  0  0
   -1.3708   -1.1016   -1.4243 C   0  0  0  0  0  0  0  0  0  0  0  0
    0.2919    2.2814   -0.0712 H   0  0  0  0  0  0  0  0  0  0  0  0
    1.7533    2.1019   -0.7654 H   0  0  0  0  0  0  0  0  0  0  0  0
    1.4842   -0.1703   -1.1265 H   0  0  0  0  0  0  0  0  0  0  0  0
    1.3786   -0.4954    2.7560 H   0  0  0  0  0  0  0  0  0  0  0  0
   -2.7347    0.0948   -0.1079 H   0  0  0  0  0  0  0  0  0  0  0  0
   -1.9425    1.0808   -1.4370 H   0  0  0  0  0  0  0  0  0  0  0  0
   -1.0331   -1.0941   -2.4554 H   0  0  0  0  0  0  0  0  0  0  0  0
   -1.8204   -2.0330   -1.0978 H   0  0  0  0  0  0  0  0  0  0  0  0
  1 10  1  0  0  0  0
  1  2  1  0  0  0  0
  1  9  1  0  0  0  0
  2 11  1  6  0  0  0
  2  6  1  0  0  0  0
  2  3  1  0  0  0  0
  3  4  2  0  0  0  0
  4 12  1  0  0  0  0
  5  3  1  0  0  0  0
  6  5  1  0  0  0  0
  7  6  1  0  0  0  0
  7 13  1  0  0  0  0
  8 16  1  0  0  0  0
  8  7  1  0  0  0  0
  8  6  1  0  0  0  0
 14  7  1  0  0  0  0
 15  8  1  0  0  0  0
M  END
