title
 OpenBabel02282109593D

 15 16  0  0  1  0  0  0  0  0999 V2000
    1.2291    1.1681   -1.0592 O   0  0  0  0  0  0  0  0  0  0  0  0
    0.8171    0.0095   -0.4013 C   0  0  1  0  0  0  0  0  0  0  0  0
    0.7709   -0.0469    1.1414 C   0  0  0  0  0  0  0  0  0  0  0  0
    1.3752    0.5483    1.9861 O   0  0  0  0  0  0  0  0  0  0  0  0
   -0.5257   -0.8798    1.1222 C   0  0  0  0  0  0  0  0  0  0  0  0
   -0.6727   -0.4143   -0.3352 C   0  0  1  0  0  0  0  0  0  0  0  0
   -1.7803    0.3400   -0.9539 C   0  0  0  0  0  0  0  0  0  0  0  0
   -1.4689   -1.0475   -1.3691 N   0  0  0  0  0  0  0  0  0  0  0  0
    1.0695    1.9180   -0.4744 H   0  0  0  0  0  0  0  0  0  0  0  0
    1.4179   -0.8255   -0.7894 H   0  0  0  0  0  0  0  0  0  0  0  0
   -0.3399   -1.9552    1.2139 H   0  0  0  0  0  0  0  0  0  0  0  0
   -1.2923   -0.5840    1.8410 H   0  0  0  0  0  0  0  0  0  0  0  0
   -2.7239    0.4574   -0.4281 H   0  0  0  0  0  0  0  0  0  0  0  0
   -1.5159    1.1535   -1.6247 H   0  0  0  0  0  0  0  0  0  0  0  0
   -0.9671   -1.0384   -2.2551 H   0  0  0  0  0  0  0  0  0  0  0  0
  1  9  1  0  0  0  0
  1  2  1  0  0  0  0
  2  6  1  6  0  0  0
  2  3  1  0  0  0  0
  3  4  2  0  0  0  0
  5  3  1  0  0  0  0
  5 11  1  0  0  0  0
  5 12  1  0  0  0  0
  6  8  1  6  0  0  0
  6  5  1  0  0  0  0
  7 13  1  0  0  0  0
  7  6  1  0  0  0  0
  8  7  1  0  0  0  0
 10  2  1  0  0  0  0
 14  7  1  0  0  0  0
 15  8  1  0  0  0  0
M  END
