14
title
O 0.75831074 1.7094518 -0.69257313
C 0.7878655 0.32899773 -0.46053872
C 0.81265295 -0.14964022 1.0107404
O 1.5173814 -0.04763017 1.9617134
O -0.3874221 -0.810379 0.9072274
C -0.57672435 -0.33958912 -0.45574933
C -1.8819792 0.17518605 -0.9344017
C -1.3106992 -1.1345205 -1.4715912
H 1.6271935 2.068773 -0.48186743
H 1.5360781 -0.19030418 -1.0757757
H -2.7219312 0.10923945 -0.25210413
H -1.8683281 1.0543793 -1.5688252
H -0.92231506 -1.1616553 -2.4843152
H -1.777643 -2.0541651 -1.1369066
