15
title
N 0.99280274 1.7668732 -0.6429206
C 0.8021426 0.359079 -0.43292284
C 0.7750339 -0.13726774 1.0309564
O 1.4346255 -0.047874965 2.0128057
O -0.4149837 -0.81640416 0.8747395
C -0.5724111 -0.3340372 -0.48081535
C -1.8801167 0.1638003 -0.98098725
C -1.2725058 -1.1312469 -1.5174172
H 1.0270755 1.9944282 -1.6300054
H 0.25047773 2.3133202 -0.21933937
H 1.557132 -0.19429412 -1.0008991
H -2.73781 0.076963775 -0.3233208
H -1.8798559 1.0422124 -1.6195662
H -0.86834973 -1.1405483 -2.5247386
H -1.7351055 -2.0613701 -1.2059602
