title
 OpenBabel02282109593D

 17 18  0  0  1  0  0  0  0  0999 V2000
   -2.0046    1.5522   -0.6029 C   0  0  0  0  0  0  0  0  0  0  0  0
   -1.2948    0.2080   -0.5623 C   0  0  1  0  0  0  0  0  0  0  0  0
   -0.0199    0.1289   -1.3584 N   0  0  0  0  0  0  0  0  0  0  0  0
    0.7389   -0.3083   -0.1718 C   0  0  0  0  0  0  0  0  0  0  0  0
    1.7787   -1.3968   -0.0706 C   0  0  0  0  0  0  0  0  0  0  0  0
    2.1667    0.0379    0.1611 C   0  0  0  0  0  0  0  0  0  0  0  0
   -0.4676   -0.1237    0.6994 C   0  0  0  0  0  0  0  0  0  0  0  0
   -0.6896   -0.1813    1.8749 O   0  0  0  0  0  0  0  0  0  0  0  0
   -1.3050    2.3629   -0.3822 H   0  0  0  0  0  0  0  0  0  0  0  0
   -2.4355    1.7337   -1.5922 H   0  0  0  0  0  0  0  0  0  0  0  0
   -2.8114    1.5737    0.1365 H   0  0  0  0  0  0  0  0  0  0  0  0
   -1.9961   -0.6073   -0.7879 H   0  0  0  0  0  0  0  0  0  0  0  0
   -0.0642   -0.5883   -2.0758 H   0  0  0  0  0  0  0  0  0  0  0  0
    1.7165   -2.0688    0.7791 H   0  0  0  0  0  0  0  0  0  0  0  0
    2.0899   -1.8626   -1.0005 H   0  0  0  0  0  0  0  0  0  0  0  0
    2.7284    0.5453   -0.6155 H   0  0  0  0  0  0  0  0  0  0  0  0
    2.3713    0.3637    1.1755 H   0  0  0  0  0  0  0  0  0  0  0  0
  1  2  1  0  0  0  0
  1  9  1  0  0  0  0
  1 11  1  0  0  0  0
  2 12  1  6  0  0  0
  2  7  1  0  0  0  0
  3  2  1  0  0  0  0
  3  4  1  0  0  0  0
  4  5  1  0  0  0  0
  4  6  1  0  0  0  0
  4  7  1  0  0  0  0
  5  6  1  0  0  0  0
  5 14  1  0  0  0  0
  6 17  1  0  0  0  0
  7  8  2  0  0  0  0
 10  1  1  0  0  0  0
 13  3  1  0  0  0  0
 15  5  1  0  0  0  0
 16  6  1  0  0  0  0
M  END
