17
title
C -2.0046465 1.5521532 -0.60294145
C -1.2948275 0.20798177 -0.5623364
N -0.01992157 0.12887195 -1.3584049
C 0.7388561 -0.3082592 -0.17175832
C 1.7787433 -1.3967711 -0.07055738
C 2.166656 0.03793241 0.16110584
C -0.4676459 -0.12370469 0.6994249
O -0.68960553 -0.18130131 1.8748575
H -1.3049828 2.3628607 -0.38217548
H -2.4354656 1.733722 -1.5922412
H -2.8113885 1.5736712 0.13648817
H -1.9961021 -0.6072667 -0.78793323
H -0.064189464 -0.58829373 -2.075755
H 1.7165043 -2.0687778 0.7790536
H 2.0899382 -1.86261 -1.0004598
H 2.7283828 0.54528016 -0.61549324
H 2.3712807 0.36367407 1.1755211
