14
title
O 1.1765307 1.1419154 1.935986
C 0.6051397 0.038594473 1.2878953
C -0.93749654 0.07227271 1.0529897
C -0.6979362 -0.33588332 -0.4126489
C -1.2959079 -1.4215153 -1.2087699
O -1.5103223 -0.04828329 -1.5263845
C 0.7749799 0.00031114108 -0.24970792
O 1.6762022 0.32725486 -0.9666356
H 1.9508939 1.4036669 1.4224651
H 0.91771597 -0.9120344 1.7466573
H -1.5439029 -0.5970928 1.6632085
H -1.3120275 1.095799 1.1281374
H -0.67985225 -1.9752114 -1.9150997
H -2.1557546 -1.9516535 -0.80159986
