title
 OpenBabel02282109593D

 16 17  0  0  1  0  0  0  0  0999 V2000
   -1.8730    1.6242   -0.5749 C   0  0  0  0  0  0  0  0  0  0  0  0
   -1.2678    0.2346   -0.5491 C   0  0  1  0  0  0  0  0  0  0  0  0
   -0.0169    0.1273   -1.2928 O   0  0  0  0  0  0  0  0  0  0  0  0
    0.7123   -0.2991   -0.1409 C   0  0  0  0  0  0  0  0  0  0  0  0
    1.7814   -1.3547   -0.1611 C   0  0  0  0  0  0  0  0  0  0  0  0
    2.1364    0.0804    0.1446 C   0  0  0  0  0  0  0  0  0  0  0  0
   -0.5070   -0.1956    0.7216 C   0  0  0  0  0  0  0  0  0  0  0  0
   -0.7698   -0.3569    1.8766 O   0  0  0  0  0  0  0  0  0  0  0  0
   -1.1583    2.3689   -0.2139 H   0  0  0  0  0  0  0  0  0  0  0  0
   -2.1678    1.8910   -1.5939 H   0  0  0  0  0  0  0  0  0  0  0  0
   -2.7620    1.6530    0.0628 H   0  0  0  0  0  0  0  0  0  0  0  0
   -1.9852   -0.5233   -0.8905 H   0  0  0  0  0  0  0  0  0  0  0  0
    1.7838   -2.0815    0.6442 H   0  0  0  0  0  0  0  0  0  0  0  0
    2.0457   -1.7402   -1.1397 H   0  0  0  0  0  0  0  0  0  0  0  0
    2.6386    0.6501   -0.6295 H   0  0  0  0  0  0  0  0  0  0  0  0
    2.3852    0.3559    1.1640 H   0  0  0  0  0  0  0  0  0  0  0  0
  1  2  1  0  0  0  0
  1  9  1  0  0  0  0
  1 11  1  0  0  0  0
  2 12  1  6  0  0  0
  2  7  1  0  0  0  0
  3  2  1  0  0  0  0
  3  4  1  0  0  0  0
  4  6  1  0  0  0  0
  4  7  1  0  0  0  0
  5  4  1  0  0  0  0
  5  6  1  0  0  0  0
  5 13  1  0  0  0  0
  6 16  1  0  0  0  0
  7  8  2  0  0  0  0
 10  1  1  0  0  0  0
 14  5  1  0  0  0  0
 15  6  1  0  0  0  0
M  END
