title
 OpenBabel02282109593D

 15 16  0  0  1  0  0  0  0  0999 V2000
    0.2673    2.3526    0.9014 O   0  0  0  0  0  0  0  0  0  0  0  0
    0.4014    0.9579    0.9539 C   0  0  1  0  0  0  0  0  0  0  0  0
   -0.9104    0.1194    1.0726 C   0  0  0  0  0  0  0  0  0  0  0  0
   -0.4113   -0.7740   -0.0817 C   0  0  1  0  0  0  0  0  0  0  0  0
   -0.2769   -2.2603   -0.0933 C   0  0  0  0  0  0  0  0  0  0  0  0
   -1.1486   -1.5783   -1.0520 N   0  0  0  0  0  0  0  0  0  0  0  0
    0.6597    0.2453   -0.3937 C   0  0  0  0  0  0  0  0  0  0  0  0
    1.3393    0.5339   -1.3370 O   0  0  0  0  0  0  0  0  0  0  0  0
    0.8239    2.6626    0.1764 H   0  0  0  0  0  0  0  0  0  0  0  0
    1.1374    0.6471    1.7117 H   0  0  0  0  0  0  0  0  0  0  0  0
   -1.0966   -0.3618    2.0337 H   0  0  0  0  0  0  0  0  0  0  0  0
   -1.7721    0.7274    0.7841 H   0  0  0  0  0  0  0  0  0  0  0  0
    0.6107   -2.7136   -0.5254 H   0  0  0  0  0  0  0  0  0  0  0  0
   -0.7169   -2.8008    0.7415 H   0  0  0  0  0  0  0  0  0  0  0  0
   -2.1218   -1.6479   -0.7615 H   0  0  0  0  0  0  0  0  0  0  0  0
  1  2  1  0  0  0  0
  2  3  1  0  0  0  0
  2 10  1  1  0  0  0
  3 11  1  0  0  0  0
  4  7  1  6  0  0  0
  4  3  1  0  0  0  0
  5  4  1  0  0  0  0
  5 14  1  0  0  0  0
  6 15  1  0  0  0  0
  6  5  1  0  0  0  0
  6  4  1  0  0  0  0
  7  2  1  0  0  0  0
  8  7  2  0  0  0  0
  9  1  1  0  0  0  0
 12  3  1  0  0  0  0
 13  5  1  0  0  0  0
M  END
