title
 OpenBabel02282109593D

 20 21  0  0  1  0  0  0  0  0999 V2000
   -0.9538    1.7129   -0.3925 C   0  0  0  0  0  0  0  0  0  0  0  0
   -0.8020    0.1936   -0.3928 C   0  0  1  0  0  0  0  0  0  0  0  0
    0.3590   -0.3421   -1.2827 C   0  0  1  0  0  0  0  0  0  0  0  0
    0.7788    0.5564   -2.2835 O   0  0  0  0  0  0  0  0  0  0  0  0
    1.2434   -0.5195   -0.0138 C   0  0  0  0  0  0  0  0  0  0  0  0
   -0.0391   -0.3837    0.8171 C   0  0  0  0  0  0  0  0  0  0  0  0
   -0.1802   -0.0359    2.2675 C   0  0  0  0  0  0  0  0  0  0  0  0
   -0.5651   -1.4137    1.7739 C   0  0  0  0  0  0  0  0  0  0  0  0
   -0.0043    2.2131   -0.1831 H   0  0  0  0  0  0  0  0  0  0  0  0
   -1.3071    2.0689   -1.3643 H   0  0  0  0  0  0  0  0  0  0  0  0
   -1.6752    2.0242    0.3702 H   0  0  0  0  0  0  0  0  0  0  0  0
   -1.7712   -0.2751   -0.5939 H   0  0  0  0  0  0  0  0  0  0  0  0
    0.0969   -1.3184   -1.7140 H   0  0  0  0  0  0  0  0  0  0  0  0
    1.5378    0.1727   -2.7337 H   0  0  0  0  0  0  0  0  0  0  0  0
    1.8147   -1.4477    0.0799 H   0  0  0  0  0  0  0  0  0  0  0  0
    1.9187    0.3334    0.1108 H   0  0  0  0  0  0  0  0  0  0  0  0
    0.7240    0.0620    2.8602 H   0  0  0  0  0  0  0  0  0  0  0  0
   -0.9765    0.6414    2.5599 H   0  0  0  0  0  0  0  0  0  0  0  0
   -1.6213   -1.6628    1.7319 H   0  0  0  0  0  0  0  0  0  0  0  0
    0.0780   -2.2486    2.0354 H   0  0  0  0  0  0  0  0  0  0  0  0
  1  9  1  0  0  0  0
  1 11  1  0  0  0  0
  2  3  1  6  0  0  0
  2  1  1  0  0  0  0
  2  6  1  0  0  0  0
  3 13  1  6  0  0  0
  3  5  1  0  0  0  0
  4  3  1  0  0  0  0
  5 15  1  0  0  0  0
  5 16  1  0  0  0  0
  5  6  1  0  0  0  0
  6  8  1  0  0  0  0
  6  7  1  0  0  0  0
  7 18  1  0  0  0  0
  7 17  1  0  0  0  0
  8 20  1  0  0  0  0
  8  7  1  0  0  0  0
 10  1  1  0  0  0  0
 12  2  1  0  0  0  0
 14  4  1  0  0  0  0
 19  8  1  0  0  0  0
M  END
