title
 OpenBabel02282109593D

 16 17  0  0  1  0  0  0  0  0999 V2000
   -0.3433    2.6500    0.0746 C   0  0  0  0  0  0  0  0  0  0  0  0
   -0.3194    1.2143    0.0094 N   0  0  0  0  0  0  0  0  0  0  0  0
   -1.3899    0.2139    0.0270 C   0  0  0  0  0  0  0  0  0  0  0  0
   -0.2672   -0.8449    0.0098 C   0  0  1  0  0  0  0  0  0  0  0  0
   -0.1848   -2.1467    0.7058 C   0  0  0  0  0  0  0  0  0  0  0  0
   -0.1622   -2.0708   -0.7669 N   0  0  0  0  0  0  0  0  0  0  0  0
    0.7285    0.3164   -0.0200 C   0  0  0  0  0  0  0  0  0  0  0  0
    1.9212    0.4651   -0.0331 O   0  0  0  0  0  0  0  0  0  0  0  0
    0.6930    2.9964    0.0604 H   0  0  0  0  0  0  0  0  0  0  0  0
   -0.8728    3.0853   -0.7818 H   0  0  0  0  0  0  0  0  0  0  0  0
   -0.8223    3.0065    0.9955 H   0  0  0  0  0  0  0  0  0  0  0  0
   -2.0131    0.2369    0.9292 H   0  0  0  0  0  0  0  0  0  0  0  0
   -2.0313    0.2305   -0.8635 H   0  0  0  0  0  0  0  0  0  0  0  0
    0.7550   -2.4492    1.1582 H   0  0  0  0  0  0  0  0  0  0  0  0
   -1.0793   -2.5135    1.2032 H   0  0  0  0  0  0  0  0  0  0  0  0
   -1.0719   -2.3207   -1.1484 H   0  0  0  0  0  0  0  0  0  0  0  0
  1 11  1  0  0  0  0
  2  3  1  0  0  0  0
  2  1  1  0  0  0  0
  3 12  1  0  0  0  0
  4  7  1  1  0  0  0
  4  3  1  0  0  0  0
  4  5  1  0  0  0  0
  5 14  1  0  0  0  0
  5 15  1  0  0  0  0
  6  4  1  0  0  0  0
  6  5  1  0  0  0  0
  7  2  1  0  0  0  0
  8  7  2  0  0  0  0
  9  1  1  0  0  0  0
 10  1  1  0  0  0  0
 13  3  1  0  0  0  0
 16  6  1  0  0  0  0
M  END
