15
title
O 0.26731923 2.352605 0.901444
C 0.401449 0.95787936 0.953912
C -0.9104035 0.11939955 1.0725724
C -0.41133478 -0.7739871 -0.08166944
C -0.27692446 -2.260309 -0.09327983
N -1.1485691 -1.5783297 -1.0519972
C 0.65970486 0.24531448 -0.39373338
O 1.339315 0.53393877 -1.3369864
H 0.8239074 2.6626227 0.17641759
H 1.1373938 0.6470623 1.7117283
H -1.0965867 -0.36177593 2.0337245
H -1.772123 0.7273612 0.78413385
H 0.6106924 -2.7136233 -0.52539396
H -0.7169434 -2.800764 0.7415469
H -2.1217718 -1.6478754 -0.7615317
