16
title
C -0.3433424 2.6500437 0.074636094
N -0.31941843 1.2142649 0.009350271
C -1.389908 0.21387221 0.026955089
C -0.26718143 -0.84492064 0.009810102
C -0.18484236 -2.146684 0.70576495
N -0.16218333 -2.070826 -0.7669053
C 0.7284908 0.31638357 -0.019954
O 1.9212109 0.46510044 -0.033081207
H 0.6929898 2.9964285 0.060370363
H -0.87284625 3.085311 -0.781835
H -0.8222708 3.0064702 0.9954755
H -2.0130785 0.2369491 0.9292202
H -2.0312724 0.23046829 -0.86354345
H 0.75500286 -2.449227 1.1581522
H -1.0793369 -2.513547 1.2032073
H -1.07188 -2.3207366 -1.148444
