title
 OpenBabel02282109593D

 15 16  0  0  1  0  0  0  0  0999 V2000
   -0.3373    2.6578    0.0544 C   0  0  0  0  0  0  0  0  0  0  0  0
   -0.3172    1.2208    0.0086 N   0  0  0  0  0  0  0  0  0  0  0  0
   -1.3947    0.2243    0.0319 C   0  0  0  0  0  0  0  0  0  0  0  0
   -0.2730   -0.8345    0.0484 C   0  0  1  0  0  0  0  0  0  0  0  0
   -0.1681   -2.1432    0.6906 C   0  0  0  0  0  0  0  0  0  0  0  0
   -0.2319   -1.9984   -0.7365 O   0  0  0  0  0  0  0  0  0  0  0  0
    0.7316    0.3270   -0.0106 C   0  0  0  0  0  0  0  0  0  0  0  0
    1.9247    0.4703   -0.0394 O   0  0  0  0  0  0  0  0  0  0  0  0
    0.6995    3.0027    0.0407 H   0  0  0  0  0  0  0  0  0  0  0  0
   -0.8625    3.0808   -0.8104 H   0  0  0  0  0  0  0  0  0  0  0  0
   -0.8213    3.0256    0.9678 H   0  0  0  0  0  0  0  0  0  0  0  0
   -2.0299    0.2685    0.9240 H   0  0  0  0  0  0  0  0  0  0  0  0
   -2.0158    0.2090   -0.8705 H   0  0  0  0  0  0  0  0  0  0  0  0
    0.7945   -2.4667    1.0816 H   0  0  0  0  0  0  0  0  0  0  0  0
   -1.0480   -2.5859    1.1544 H   0  0  0  0  0  0  0  0  0  0  0  0
  1 11  1  0  0  0  0
  2  3  1  0  0  0  0
  2  1  1  0  0  0  0
  3  4  1  0  0  0  0
  3 12  1  0  0  0  0
  4  6  1  6  0  0  0
  4  5  1  0  0  0  0
  5 14  1  0  0  0  0
  5 15  1  0  0  0  0
  6  5  1  0  0  0  0
  7  2  1  0  0  0  0
  7  4  1  0  0  0  0
  8  7  2  0  0  0  0
  9  1  1  0  0  0  0
 10  1  1  0  0  0  0
 13  3  1  0  0  0  0
M  END
