18
title
C -1.8268424 1.5047807 -0.5756591
C -1.297375 0.085567266 -0.5583386
O -0.07395926 -0.067912586 -1.3335482
C 0.6604167 -0.4586475 -0.17553692
C 1.8001076 -1.4147928 -0.22774054
C 2.0386436 0.05007362 0.11718057
C -0.5665826 -0.40486717 0.7298587
O -0.52420366 0.42601827 1.8595265
H -1.0760057 2.2196245 -0.22497244
H -2.1051652 1.787305 -1.5951556
H -2.7114465 1.5910771 0.06313734
H -2.061301 -0.61330223 -0.9207286
H 1.8937441 -2.156569 0.5590535
H 2.1141343 -1.7493227 -1.2107297
H 2.5087864 0.670645 -0.63810545
H 2.285756 0.30404332 1.1435317
H -0.9149684 -1.377037 1.085701
H -0.07172766 1.2405148 1.6145531
