19
title
C -1.4271932 1.4337145 -0.5414133
C -0.82752365 0.03668227 -0.54746896
C 0.4559779 -0.23612955 -1.3922188
O 1.1665576 0.97356004 -1.5770812
C 1.0102606 -1.1142682 -0.23000601
C -0.053701498 -0.48912212 0.67553425
C 0.13474348 0.1964483 1.9702152
N -0.5801604 -1.0976788 1.8903693
H -0.65888447 2.1856074 -0.35103664
H -1.8954349 1.6651642 -1.5037078
H -2.20118 1.5221102 0.22991377
H -1.5886381 -0.7023465 -0.82921636
H 0.29528376 -0.747518 -2.3502607
H 2.0485406 0.7531851 -1.8923538
H 0.84274966 -2.1840703 -0.3872119
H 2.058297 -0.9467208 0.03375941
H 1.0971674 0.15440854 2.4740636
H -0.43775994 1.0999237 2.1645606
H -1.5843761 -0.9414131 1.953482
