18
title
C -1.420209 1.446005 -0.5904622
C -0.83110285 0.04599967 -0.5474197
C 0.43697596 -0.28297642 -1.3964506
O 1.1728946 0.9041885 -1.6201335
C 0.98557794 -1.1367036 -0.2111098
C -0.04059636 -0.43256354 0.67861557
C 0.16281708 0.23433098 1.9638237
O -0.60983086 -0.9729803 1.8542026
H -0.6459185 2.200006 -0.43374383
H -1.8925803 1.6451112 -1.5578462
H -2.186315 1.5627006 0.1835608
H -1.600701 -0.7030761 -0.7685709
H 0.25763464 -0.820868 -2.3355966
H 2.0335276 0.65848017 -1.9734397
H 0.7605773 -2.2018178 -0.32180953
H 2.0448654 -1.0107218 0.028266214
H 1.1166438 0.13271596 2.480568
H -0.40582758 1.1296117 2.2108111
