title
 OpenBabel02282109593D

 18 19  0  0  1  0  0  0  0  0999 V2000
   -1.8268    1.5048   -0.5757 C   0  0  0  0  0  0  0  0  0  0  0  0
   -1.2974    0.0856   -0.5583 C   0  0  1  0  0  0  0  0  0  0  0  0
   -0.0740   -0.0679   -1.3335 O   0  0  0  0  0  0  0  0  0  0  0  0
    0.6604   -0.4586   -0.1755 C   0  0  0  0  0  0  0  0  0  0  0  0
    1.8001   -1.4148   -0.2277 C   0  0  0  0  0  0  0  0  0  0  0  0
    2.0386    0.0501    0.1172 C   0  0  0  0  0  0  0  0  0  0  0  0
   -0.5666   -0.4049    0.7299 C   0  0  1  0  0  0  0  0  0  0  0  0
   -0.5242    0.4260    1.8595 O   0  0  0  0  0  0  0  0  0  0  0  0
   -1.0760    2.2196   -0.2250 H   0  0  0  0  0  0  0  0  0  0  0  0
   -2.1052    1.7873   -1.5952 H   0  0  0  0  0  0  0  0  0  0  0  0
   -2.7114    1.5911    0.0631 H   0  0  0  0  0  0  0  0  0  0  0  0
   -2.0613   -0.6133   -0.9207 H   0  0  0  0  0  0  0  0  0  0  0  0
    1.8937   -2.1566    0.5591 H   0  0  0  0  0  0  0  0  0  0  0  0
    2.1141   -1.7493   -1.2107 H   0  0  0  0  0  0  0  0  0  0  0  0
    2.5088    0.6706   -0.6381 H   0  0  0  0  0  0  0  0  0  0  0  0
    2.2858    0.3040    1.1435 H   0  0  0  0  0  0  0  0  0  0  0  0
   -0.9150   -1.3770    1.0857 H   0  0  0  0  0  0  0  0  0  0  0  0
   -0.0717    1.2405    1.6146 H   0  0  0  0  0  0  0  0  0  0  0  0
  1  2  1  0  0  0  0
  1  9  1  0  0  0  0
  1 11  1  0  0  0  0
  2  7  1  1  0  0  0
  3  2  1  0  0  0  0
  3  4  1  0  0  0  0
  4  6  1  0  0  0  0
  4  7  1  0  0  0  0
  5  4  1  0  0  0  0
  5  6  1  0  0  0  0
  5 13  1  0  0  0  0
  6 16  1  0  0  0  0
  7 17  1  1  0  0  0
  7  8  1  0  0  0  0
 10  1  1  0  0  0  0
 12  2  1  0  0  0  0
 14  5  1  0  0  0  0
 15  6  1  0  0  0  0
 18  8  1  0  0  0  0
M  END
