20
title
C -0.7948521 2.2890258 -0.58286464
C -1.0825335 0.83210975 -0.27925777
O -0.41913494 -0.061081197 -1.2139695
C 0.20099764 -0.7754138 -0.14659156
C 0.35588112 -2.259421 -0.1849613
C 1.5738703 -1.3470315 -0.28382015
C -0.3960471 0.12933996 0.93209857
C 0.5719796 0.9213536 1.8011508
H 0.2779149 2.4979362 -0.57434386
H -1.1802377 2.5400488 -1.5761284
H -1.2867415 2.9422553 0.14622283
H -2.166733 0.6575131 -0.30231774
H 0.20362024 -2.8254418 0.7290085
H 0.037931606 -2.7642522 -1.0910358
H 2.0497015 -1.2542778 -1.2543905
H 2.2524035 -1.2916735 0.56159496
H -1.1204162 -0.39058396 1.5660857
H 1.3402597 1.4210328 1.2048509
H 0.046513483 1.6819388 2.3882623
H 1.0829529 0.25772193 2.5071874
