19
title
C -1.006197 1.7451924 -0.36125797
C -0.7636953 0.23803645 -0.4311818
N 0.36535612 -0.2428492 -1.2785035
C 0.90278745 0.55863243 -2.352537
C 1.2139841 -0.5495445 -0.11265121
C -0.017642956 -0.35839167 0.771945
C -0.15707622 -0.13493302 2.2075846
O -0.55140907 -1.3742695 1.5965046
H -0.10856424 2.2908072 -0.053271033
H -1.3298573 2.1404254 -1.3294618
H -1.7977232 1.9611877 0.3638145
H -1.7028941 -0.27907905 -0.6665169
H 1.3192968 1.5320234 -2.0331495
H 1.7060778 0.0030929442 -2.8489468
H 0.12659194 0.7509069 -3.100708
H 1.6569071 -1.5521148 -0.115650244
H 2.0078163 0.19148749 0.081942044
H 0.7197288 -0.18990016 2.8522627
H -0.97373456 0.47669002 2.58953
