18
title
C -1.5800105 1.588914 -0.5493498
C -1.3843337 0.07925569 -0.63068295
C -0.17576747 -0.36800054 -1.5217363
C 0.6313378 -0.5630686 -0.24075666
C 1.981423 -1.0209411 0.06858302
O 1.6449858 0.38021755 0.12519628
C -0.6405033 -0.53795964 0.61436975
O -0.55997413 0.17256199 1.8148707
H -0.6322987 2.107289 -0.36890534
H -1.9972107 1.9766816 -1.4843671
H -2.2602983 1.8491983 0.26660126
H -2.3310986 -0.4134751 -0.8674168
H -0.35149217 -1.3047855 -2.057653
H 0.22318478 0.37489992 -2.2165687
H 2.186008 -1.4858681 1.0319568
H 2.6631393 -1.2934865 -0.7355509
H -1.0157748 -1.5437896 0.8345752
H 0.2102805 0.7519092 1.7288748
