title
 OpenBabel02282109593D

 20 21  0  0  1  0  0  0  0  0999 V2000
   -0.7949    2.2890   -0.5829 C   0  0  0  0  0  0  0  0  0  0  0  0
   -1.0825    0.8321   -0.2793 C   0  0  1  0  0  0  0  0  0  0  0  0
   -0.4191   -0.0611   -1.2140 O   0  0  0  0  0  0  0  0  0  0  0  0
    0.2010   -0.7754   -0.1466 C   0  0  0  0  0  0  0  0  0  0  0  0
    0.3559   -2.2594   -0.1850 C   0  0  0  0  0  0  0  0  0  0  0  0
    1.5739   -1.3470   -0.2838 C   0  0  0  0  0  0  0  0  0  0  0  0
   -0.3960    0.1293    0.9321 C   0  0  1  0  0  0  0  0  0  0  0  0
    0.5720    0.9214    1.8012 C   0  0  0  0  0  0  0  0  0  0  0  0
    0.2779    2.4979   -0.5743 H   0  0  0  0  0  0  0  0  0  0  0  0
   -1.1802    2.5400   -1.5761 H   0  0  0  0  0  0  0  0  0  0  0  0
   -1.2867    2.9423    0.1462 H   0  0  0  0  0  0  0  0  0  0  0  0
   -2.1667    0.6575   -0.3023 H   0  0  0  0  0  0  0  0  0  0  0  0
    0.2036   -2.8254    0.7290 H   0  0  0  0  0  0  0  0  0  0  0  0
    0.0379   -2.7643   -1.0910 H   0  0  0  0  0  0  0  0  0  0  0  0
    2.0497   -1.2543   -1.2544 H   0  0  0  0  0  0  0  0  0  0  0  0
    2.2524   -1.2917    0.5616 H   0  0  0  0  0  0  0  0  0  0  0  0
   -1.1204   -0.3906    1.5661 H   0  0  0  0  0  0  0  0  0  0  0  0
    1.3403    1.4210    1.2049 H   0  0  0  0  0  0  0  0  0  0  0  0
    0.0465    1.6819    2.3883 H   0  0  0  0  0  0  0  0  0  0  0  0
    1.0830    0.2577    2.5072 H   0  0  0  0  0  0  0  0  0  0  0  0
  1  9  1  0  0  0  0
  1  2  1  0  0  0  0
  1 11  1  0  0  0  0
  2  7  1  1  0  0  0
  3  2  1  0  0  0  0
  3  4  1  0  0  0  0
  4  7  1  0  0  0  0
  5  4  1  0  0  0  0
  5 13  1  0  0  0  0
  6  5  1  0  0  0  0
  6  4  1  0  0  0  0
  6 16  1  0  0  0  0
  7 17  1  1  0  0  0
  7  8  1  0  0  0  0
  8 19  1  0  0  0  0
  8 20  1  0  0  0  0
 10  1  1  0  0  0  0
 12  2  1  0  0  0  0
 14  5  1  0  0  0  0
 15  6  1  0  0  0  0
 18  8  1  0  0  0  0
M  END
