title
 OpenBabel02282109593D

 19 20  0  0  1  0  0  0  0  0999 V2000
   -1.4272    1.4337   -0.5414 C   0  0  0  0  0  0  0  0  0  0  0  0
   -0.8275    0.0367   -0.5475 C   0  0  1  0  0  0  0  0  0  0  0  0
    0.4560   -0.2361   -1.3922 C   0  0  1  0  0  0  0  0  0  0  0  0
    1.1666    0.9736   -1.5771 O   0  0  0  0  0  0  0  0  0  0  0  0
    1.0103   -1.1143   -0.2300 C   0  0  0  0  0  0  0  0  0  0  0  0
   -0.0537   -0.4891    0.6755 C   0  0  1  0  0  0  0  0  0  0  0  0
    0.1347    0.1964    1.9702 C   0  0  0  0  0  0  0  0  0  0  0  0
   -0.5802   -1.0977    1.8904 N   0  0  0  0  0  0  0  0  0  0  0  0
   -0.6589    2.1856   -0.3510 H   0  0  0  0  0  0  0  0  0  0  0  0
   -1.8954    1.6652   -1.5037 H   0  0  0  0  0  0  0  0  0  0  0  0
   -2.2012    1.5221    0.2299 H   0  0  0  0  0  0  0  0  0  0  0  0
   -1.5886   -0.7023   -0.8292 H   0  0  0  0  0  0  0  0  0  0  0  0
    0.2953   -0.7475   -2.3503 H   0  0  0  0  0  0  0  0  0  0  0  0
    2.0485    0.7532   -1.8924 H   0  0  0  0  0  0  0  0  0  0  0  0
    0.8427   -2.1841   -0.3872 H   0  0  0  0  0  0  0  0  0  0  0  0
    2.0583   -0.9467    0.0338 H   0  0  0  0  0  0  0  0  0  0  0  0
    1.0972    0.1544    2.4741 H   0  0  0  0  0  0  0  0  0  0  0  0
   -0.4378    1.0999    2.1646 H   0  0  0  0  0  0  0  0  0  0  0  0
   -1.5844   -0.9414    1.9535 H   0  0  0  0  0  0  0  0  0  0  0  0
  1  9  1  0  0  0  0
  1 11  1  0  0  0  0
  2  3  1  6  0  0  0
  2  1  1  0  0  0  0
  3 13  1  6  0  0  0
  3  5  1  0  0  0  0
  4  3  1  0  0  0  0
  5 16  1  0  0  0  0
  5  6  1  0  0  0  0
  6  2  1  6  0  0  0
  6  8  1  0  0  0  0
  6  7  1  0  0  0  0
  7 18  1  0  0  0  0
  7 17  1  0  0  0  0
  8 19  1  0  0  0  0
  8  7  1  0  0  0  0
 10  1  1  0  0  0  0
 12  2  1  0  0  0  0
 14  4  1  0  0  0  0
 15  5  1  0  0  0  0
M  END
