title
 OpenBabel02282109593D

 18 19  0  0  1  0  0  0  0  0999 V2000
   -1.4202    1.4460   -0.5905 C   0  0  0  0  0  0  0  0  0  0  0  0
   -0.8311    0.0460   -0.5474 C   0  0  1  0  0  0  0  0  0  0  0  0
    0.4370   -0.2830   -1.3965 C   0  0  1  0  0  0  0  0  0  0  0  0
    1.1729    0.9042   -1.6201 O   0  0  0  0  0  0  0  0  0  0  0  0
    0.9856   -1.1367   -0.2111 C   0  0  0  0  0  0  0  0  0  0  0  0
   -0.0406   -0.4326    0.6786 C   0  0  1  0  0  0  0  0  0  0  0  0
    0.1628    0.2343    1.9638 C   0  0  0  0  0  0  0  0  0  0  0  0
   -0.6098   -0.9730    1.8542 O   0  0  0  0  0  0  0  0  0  0  0  0
   -0.6459    2.2000   -0.4337 H   0  0  0  0  0  0  0  0  0  0  0  0
   -1.8926    1.6451   -1.5578 H   0  0  0  0  0  0  0  0  0  0  0  0
   -2.1863    1.5627    0.1836 H   0  0  0  0  0  0  0  0  0  0  0  0
   -1.6007   -0.7031   -0.7686 H   0  0  0  0  0  0  0  0  0  0  0  0
    0.2576   -0.8209   -2.3356 H   0  0  0  0  0  0  0  0  0  0  0  0
    2.0335    0.6585   -1.9734 H   0  0  0  0  0  0  0  0  0  0  0  0
    0.7606   -2.2018   -0.3218 H   0  0  0  0  0  0  0  0  0  0  0  0
    2.0449   -1.0107    0.0283 H   0  0  0  0  0  0  0  0  0  0  0  0
    1.1166    0.1327    2.4806 H   0  0  0  0  0  0  0  0  0  0  0  0
   -0.4058    1.1296    2.2108 H   0  0  0  0  0  0  0  0  0  0  0  0
  1  2  1  0  0  0  0
  1  9  1  0  0  0  0
  1 11  1  0  0  0  0
  2  3  1  6  0  0  0
  3 13  1  6  0  0  0
  3  5  1  0  0  0  0
  4  3  1  0  0  0  0
  5 16  1  0  0  0  0
  5  6  1  0  0  0  0
  6  2  1  6  0  0  0
  6  8  1  0  0  0  0
  6  7  1  0  0  0  0
  7 18  1  0  0  0  0
  7 17  1  0  0  0  0
  8  7  1  0  0  0  0
 10  1  1  0  0  0  0
 12  2  1  0  0  0  0
 14  4  1  0  0  0  0
 15  5  1  0  0  0  0
M  END
