title
 OpenBabel02282109593D

 17 18  0  0  1  0  0  0  0  0999 V2000
    1.2411    1.4665   -0.9837 O   0  0  0  0  0  0  0  0  0  0  0  0
    1.2269    0.0678   -0.8674 C   0  0  1  0  0  0  0  0  0  0  0  0
    1.3720   -0.4021    0.6123 C   0  0  0  0  0  0  0  0  0  0  0  0
   -0.1475   -0.5819    0.6591 C   0  0  1  0  0  0  0  0  0  0  0  0
   -1.0537   -1.2013    1.6433 C   0  0  0  0  0  0  0  0  0  0  0  0
   -1.0810    0.2602    1.4093 N   0  0  0  0  0  0  0  0  0  0  0  0
   -0.2494   -0.4762   -0.8702 C   0  0  1  0  0  0  0  0  0  0  0  0
   -1.2115    0.4344   -1.3336 O   0  0  0  0  0  0  0  0  0  0  0  0
    0.3866    1.6954   -1.3822 H   0  0  0  0  0  0  0  0  0  0  0  0
    1.9158   -0.3967   -1.5834 H   0  0  0  0  0  0  0  0  0  0  0  0
    1.9175   -1.3449    0.7155 H   0  0  0  0  0  0  0  0  0  0  0  0
    1.8025    0.3447    1.2840 H   0  0  0  0  0  0  0  0  0  0  0  0
   -1.9434   -1.7322    1.3151 H   0  0  0  0  0  0  0  0  0  0  0  0
   -0.6270   -1.5628    2.5758 H   0  0  0  0  0  0  0  0  0  0  0  0
   -0.6064    0.7622    2.1548 H   0  0  0  0  0  0  0  0  0  0  0  0
   -0.3569   -1.4364   -1.3859 H   0  0  0  0  0  0  0  0  0  0  0  0
   -1.6211    0.7901   -0.5241 H   0  0  0  0  0  0  0  0  0  0  0  0
  1  2  1  0  0  0  0
  2  7  1  6  0  0  0
  2  3  1  0  0  0  0
  3  4  1  0  0  0  0
  3 11  1  0  0  0  0
  3 12  1  0  0  0  0
  4  7  1  6  0  0  0
  4  6  1  0  0  0  0
  4  5  1  0  0  0  0
  5 14  1  0  0  0  0
  6  5  1  0  0  0  0
  6 15  1  0  0  0  0
  7 16  1  6  0  0  0
  8  7  1  0  0  0  0
  8 17  1  0  0  0  0
  9  1  1  0  0  0  0
 10  2  1  0  0  0  0
 13  5  1  0  0  0  0
M  END
