title
 OpenBabel02282109593D

 18 19  0  0  0  0  0  0  0  0999 V2000
   -1.6852   -2.2455   -1.9598 C   0  0  0  0  0  0  0  0  0  0  0  0
   -1.2494   -1.2488   -1.4458 C   0  0  0  0  0  0  0  0  0  0  0  0
   -0.7101   -0.0656   -0.8103 C   0  0  0  0  0  0  0  0  0  0  0  0
   -0.7979    0.0537    0.7512 C   0  0  0  0  0  0  0  0  0  0  0  0
    0.6401    0.5849    0.7398 C   0  0  0  0  0  0  0  0  0  0  0  0
    1.0739    1.9261    1.2578 C   0  0  0  0  0  0  0  0  0  0  0  0
    1.6252    0.6525    1.8633 C   0  0  0  0  0  0  0  0  0  0  0  0
    0.8473    0.0793   -0.6925 C   0  0  0  0  0  0  0  0  0  0  0  0
   -2.0732   -3.1209   -2.4182 H   0  0  0  0  0  0  0  0  0  0  0  0
   -1.1309    0.8321   -1.2739 H   0  0  0  0  0  0  0  0  0  0  0  0
   -1.5804    0.7069    1.1452 H   0  0  0  0  0  0  0  0  0  0  0  0
   -0.8827   -0.9305    1.2206 H   0  0  0  0  0  0  0  0  0  0  0  0
    1.7357    2.5257    0.6402 H   0  0  0  0  0  0  0  0  0  0  0  0
    0.3654    2.5043    1.8431 H   0  0  0  0  0  0  0  0  0  0  0  0
    1.2893    0.3722    2.8569 H   0  0  0  0  0  0  0  0  0  0  0  0
    2.6586    0.3934    1.6546 H   0  0  0  0  0  0  0  0  0  0  0  0
    1.3409   -0.8959   -0.7307 H   0  0  0  0  0  0  0  0  0  0  0  0
    1.3280    0.7522   -1.4070 H   0  0  0  0  0  0  0  0  0  0  0  0
  1  2  3  0  0  0  0
  2  3  1  0  0  0  0
  3  8  1  0  0  0  0
  3  4  1  0  0  0  0
  4 11  1  0  0  0  0
  4 12  1  0  0  0  0
  5  4  1  0  0  0  0
  5  6  1  0  0  0  0
  5  7  1  0  0  0  0
  6 14  1  0  0  0  0
  6  7  1  0  0  0  0
  7 15  1  0  0  0  0
  8  5  1  0  0  0  0
  9  1  1  0  0  0  0
 10  3  1  0  0  0  0
 13  6  1  0  0  0  0
 16  7  1  0  0  0  0
 17  8  1  0  0  0  0
 18  8  1  0  0  0  0
M  END
