title
 OpenBabel02282109593D

 16 17  0  0  1  0  0  0  0  0999 V2000
   -1.4704   -2.3898   -1.6177 C   0  0  0  0  0  0  0  0  0  0  0  0
   -1.1226   -1.2883   -1.2855 C   0  0  0  0  0  0  0  0  0  0  0  0
   -0.7229    0.0476   -0.8801 C   0  0  1  0  0  0  0  0  0  0  0  0
   -0.9985    0.4621    0.5937 C   0  0  0  0  0  0  0  0  0  0  0  0
    0.5123    0.6346    0.6651 C   0  0  0  0  0  0  0  0  0  0  0  0
    1.3281    1.7380    1.2508 C   0  0  0  0  0  0  0  0  0  0  0  0
    1.4776    0.3040    1.7505 C   0  0  0  0  0  0  0  0  0  0  0  0
    0.7110    0.1885   -0.6807 O   0  0  0  0  0  0  0  0  0  0  0  0
   -1.7713   -3.3642   -1.9145 H   0  0  0  0  0  0  0  0  0  0  0  0
   -1.0764    0.7822   -1.6140 H   0  0  0  0  0  0  0  0  0  0  0  0
   -1.5940    1.3684    0.7135 H   0  0  0  0  0  0  0  0  0  0  0  0
   -1.4063   -0.3381    1.2123 H   0  0  0  0  0  0  0  0  0  0  0  0
    2.1298    2.1367    0.6384 H   0  0  0  0  0  0  0  0  0  0  0  0
    0.8388    2.4653    1.8911 H   0  0  0  0  0  0  0  0  0  0  0  0
    1.0901    0.0496    2.7319 H   0  0  0  0  0  0  0  0  0  0  0  0
    2.3757   -0.2318    1.4625 H   0  0  0  0  0  0  0  0  0  0  0  0
  1  2  3  0  0  0  0
  2  3  1  0  0  0  0
  3 10  1  6  0  0  0
  3  8  1  0  0  0  0
  3  4  1  0  0  0  0
  4  5  1  0  0  0  0
  4 11  1  0  0  0  0
  4 12  1  0  0  0  0
  5  6  1  0  0  0  0
  5  7  1  0  0  0  0
  6  7  1  0  0  0  0
  6 14  1  0  0  0  0
  7 15  1  0  0  0  0
  8  5  1  0  0  0  0
  9  1  1  0  0  0  0
 13  6  1  0  0  0  0
 16  7  1  0  0  0  0
M  END
