17
title
O 1.2411338 1.4664608 -0.98365134
C 1.2269142 0.06781941 -0.8673933
C 1.3719653 -0.4021233 0.6123285
C -0.1474574 -0.5818885 0.65909183
C -1.0537007 -1.2013047 1.6433188
N -1.0810356 0.2601839 1.4092859
C -0.24937217 -0.47621873 -0.8701785
O -1.2114563 0.43443137 -1.3336004
H 0.3865723 1.695364 -1.3822035
H 1.9158069 -0.39665338 -1.583429
H 1.9174567 -1.3448932 0.7154763
H 1.8025204 0.34469545 1.2840015
H -1.9433835 -1.7321862 1.3150686
H -0.6270476 -1.5628151 2.575772
H -0.60640305 0.76223016 2.1547987
H -0.35694283 -1.4364008 -1.3858908
H -1.6210876 0.7900562 -0.5240669
