title
 OpenBabel02282109593D

 16 17  0  0  1  0  0  0  0  0999 V2000
   -1.7113   -2.1050   -1.9830 N   0  0  0  0  0  0  0  0  0  0  0  0
   -1.2721   -1.1636   -1.4749 C   0  0  0  0  0  0  0  0  0  0  0  0
   -0.7104    0.0046   -0.8214 C   0  0  1  0  0  0  0  0  0  0  0  0
   -0.8038    0.0810    0.7413 C   0  0  0  0  0  0  0  0  0  0  0  0
    0.6469    0.5774    0.7377 C   0  0  1  0  0  0  0  0  0  0  0  0
    1.1497    1.8158    1.3716 C   0  0  0  0  0  0  0  0  0  0  0  0
    1.6411    0.4847    1.7899 N   0  0  0  0  0  0  0  0  0  0  0  0
    0.8495    0.1029   -0.7042 C   0  0  0  0  0  0  0  0  0  0  0  0
   -1.1251    0.9056   -1.2796 H   0  0  0  0  0  0  0  0  0  0  0  0
   -1.5757    0.7340    1.1536 H   0  0  0  0  0  0  0  0  0  0  0  0
   -0.9002   -0.9160    1.1807 H   0  0  0  0  0  0  0  0  0  0  0  0
    1.8866    2.4320    0.8629 H   0  0  0  0  0  0  0  0  0  0  0  0
    0.4808    2.3606    2.0337 H   0  0  0  0  0  0  0  0  0  0  0  0
    1.2097    0.2061    2.6684 H   0  0  0  0  0  0  0  0  0  0  0  0
    1.3236   -0.8805   -0.7470 H   0  0  0  0  0  0  0  0  0  0  0  0
    1.3465    0.7768   -1.4037 H   0  0  0  0  0  0  0  0  0  0  0  0
  1  2  3  0  0  0  0
  2  3  1  0  0  0  0
  3  9  1  6  0  0  0
  3  8  1  0  0  0  0
  3  4  1  0  0  0  0
  4 10  1  0  0  0  0
  4 11  1  0  0  0  0
  5  8  1  6  0  0  0
  5  4  1  0  0  0  0
  5  6  1  0  0  0  0
  5  7  1  0  0  0  0
  6  7  1  0  0  0  0
  6 13  1  0  0  0  0
  7 14  1  0  0  0  0
 12  6  1  0  0  0  0
 15  8  1  0  0  0  0
 16  8  1  0  0  0  0
M  END
