title
 OpenBabel02282109593D

 18 19  0  0  1  0  0  0  0  0999 V2000
    1.1332    1.4987   -1.0376 O   0  0  0  0  0  0  0  0  0  0  0  0
    1.1820    0.0843   -0.8753 C   0  0  1  0  0  0  0  0  0  0  0  0
    1.3830   -0.3819    0.5905 C   0  0  0  0  0  0  0  0  0  0  0  0
   -0.1435   -0.5085    0.7074 C   0  0  0  0  0  0  0  0  0  0  0  0
   -0.9962   -1.1996    1.7200 C   0  0  0  0  0  0  0  0  0  0  0  0
   -1.0351    0.3087    1.5994 C   0  0  0  0  0  0  0  0  0  0  0  0
   -0.2649   -0.5076   -0.8326 C   0  0  1  0  0  0  0  0  0  0  0  0
   -1.2611    0.2535   -1.4483 O   0  0  0  0  0  0  0  0  0  0  0  0
    0.9223    1.8921   -0.1840 H   0  0  0  0  0  0  0  0  0  0  0  0
    1.8654   -0.2919   -1.6392 H   0  0  0  0  0  0  0  0  0  0  0  0
    1.9019   -1.3439    0.6484 H   0  0  0  0  0  0  0  0  0  0  0  0
    1.8944    0.3265    1.2510 H   0  0  0  0  0  0  0  0  0  0  0  0
   -1.8550   -1.7603    1.3639 H   0  0  0  0  0  0  0  0  0  0  0  0
   -0.5140   -1.6274    2.5936 H   0  0  0  0  0  0  0  0  0  0  0  0
   -0.5843    0.8948    2.3950 H   0  0  0  0  0  0  0  0  0  0  0  0
   -1.9088    0.7570    1.1373 H   0  0  0  0  0  0  0  0  0  0  0  0
   -0.3076   -1.5275   -1.2325 H   0  0  0  0  0  0  0  0  0  0  0  0
   -0.8776    1.1383   -1.5440 H   0  0  0  0  0  0  0  0  0  0  0  0
  1  2  1  0  0  0  0
  1  9  1  0  0  0  0
  2  7  1  6  0  0  0
  2  3  1  0  0  0  0
  3 11  1  0  0  0  0
  3  4  1  0  0  0  0
  3 12  1  0  0  0  0
  4  6  1  0  0  0  0
  4  5  1  0  0  0  0
  5 14  1  0  0  0  0
  6  5  1  0  0  0  0
  6 15  1  0  0  0  0
  7 17  1  6  0  0  0
  7  4  1  0  0  0  0
  8  7  1  0  0  0  0
 10  2  1  0  0  0  0
 13  5  1  0  0  0  0
 16  6  1  0  0  0  0
 18  8  1  0  0  0  0
M  END
