title
 OpenBabel02282109593D

 17 18  0  0  0  0  0  0  0  0999 V2000
   -1.7652   -1.9914   -2.0418 N   0  0  0  0  0  0  0  0  0  0  0  0
   -1.2995   -1.0816   -1.5004 C   0  0  0  0  0  0  0  0  0  0  0  0
   -0.7012    0.0441   -0.8054 C   0  0  0  0  0  0  0  0  0  0  0  0
   -0.7943    0.0758    0.7582 C   0  0  0  0  0  0  0  0  0  0  0  0
    0.6766    0.5099    0.7809 C   0  0  0  0  0  0  0  0  0  0  0  0
    1.1980    1.7805    1.3885 C   0  0  0  0  0  0  0  0  0  0  0  0
    1.6573    0.4347    1.9072 C   0  0  0  0  0  0  0  0  0  0  0  0
    0.8600    0.0855   -0.6816 C   0  0  0  0  0  0  0  0  0  0  0  0
   -1.0818    0.9733   -1.2365 H   0  0  0  0  0  0  0  0  0  0  0  0
   -1.5357    0.7583    1.1794 H   0  0  0  0  0  0  0  0  0  0  0  0
   -0.9508   -0.9238    1.1726 H   0  0  0  0  0  0  0  0  0  0  0  0
    1.9019    2.3729    0.8123 H   0  0  0  0  0  0  0  0  0  0  0  0
    0.5261    2.3649    2.0095 H   0  0  0  0  0  0  0  0  0  0  0  0
    1.2961    0.1107    2.8782 H   0  0  0  0  0  0  0  0  0  0  0  0
    2.6710    0.1188    1.6818 H   0  0  0  0  0  0  0  0  0  0  0  0
    1.2988   -0.9105   -0.7853 H   0  0  0  0  0  0  0  0  0  0  0  0
    1.3749    0.7755   -1.3538 H   0  0  0  0  0  0  0  0  0  0  0  0
  1  2  3  0  0  0  0
  2  3  1  0  0  0  0
  3  8  1  0  0  0  0
  3  4  1  0  0  0  0
  4  5  1  0  0  0  0
  4 11  1  0  0  0  0
  4 10  1  0  0  0  0
  5  6  1  0  0  0  0
  5  7  1  0  0  0  0
  6  7  1  0  0  0  0
  6 13  1  0  0  0  0
  7 14  1  0  0  0  0
  8  5  1  0  0  0  0
  9  3  1  0  0  0  0
 12  6  1  0  0  0  0
 15  7  1  0  0  0  0
 16  8  1  0  0  0  0
 17  8  1  0  0  0  0
M  END
