16
title
C -1.5651395 -2.457621 -1.8176138
C -1.1904948 -1.401508 -1.3808542
C -0.7259371 -0.1427351 -0.8394049
C -0.8379603 0.087530285 0.7099204
C 0.5613937 0.70022196 0.65129733
C 1.0245714 1.9793493 1.191225
O 1.4840245 0.72337717 1.7175536
C 0.82257265 0.09279695 -0.72704947
H -1.8987359 -3.3874907 -2.2065718
H -1.1914995 0.6906392 -1.3743418
H -1.663335 0.7078926 1.0645154
H -0.83543247 -0.8611212 1.2525165
H 1.7725515 2.5586123 0.6509367
H 0.38037926 2.554195 1.8556798
H 1.3626177 -0.85415083 -0.6496035
H 1.2897632 0.7172565 -1.4909954
