title
 OpenBabel02282109593D

 17 18  0  0  0  0  0  0  0  0999 V2000
   -1.6406    2.2688   -1.0936 C   0  0  0  0  0  0  0  0  0  0  0  0
   -1.7002    0.8140   -1.0561 N   0  0  0  0  0  0  0  0  0  0  0  0
   -0.7899    0.1818   -0.4807 C   0  0  0  0  0  0  0  0  0  0  0  0
   -0.4887   -1.2813   -0.2273 C   0  0  0  0  0  0  0  0  0  0  0  0
    0.7422   -0.7233    0.4795 C   0  0  0  0  0  0  0  0  0  0  0  0
    1.3881   -1.0709    1.7727 C   0  0  0  0  0  0  0  0  0  0  0  0
    2.1702   -1.1366    0.4625 C   0  0  0  0  0  0  0  0  0  0  0  0
    0.3513    0.6362    0.1780 O   0  0  0  0  0  0  0  0  0  0  0  0
   -0.7631    2.6954   -0.5936 H   0  0  0  0  0  0  0  0  0  0  0  0
   -1.6457    2.5999   -2.1380 H   0  0  0  0  0  0  0  0  0  0  0  0
   -2.5440    2.6757   -0.6260 H   0  0  0  0  0  0  0  0  0  0  0  0
   -1.2142   -1.7949    0.4067 H   0  0  0  0  0  0  0  0  0  0  0  0
   -0.2993   -1.8720   -1.1258 H   0  0  0  0  0  0  0  0  0  0  0  0
    1.6180   -0.2539    2.4477 H   0  0  0  0  0  0  0  0  0  0  0  0
    1.1062   -1.9989    2.2593 H   0  0  0  0  0  0  0  0  0  0  0  0
    2.4227   -2.1095    0.0538 H   0  0  0  0  0  0  0  0  0  0  0  0
    2.9086   -0.3623    0.2858 H   0  0  0  0  0  0  0  0  0  0  0  0
  1  2  1  0  0  0  0
  1 11  1  0  0  0  0
  1  9  1  0  0  0  0
  2  3  2  0  0  0  0
  3  4  1  0  0  0  0
  3  8  1  0  0  0  0
  4 12  1  0  0  0  0
  4  5  1  0  0  0  0
  5  6  1  0  0  0  0
  6 15  1  0  0  0  0
  6 14  1  0  0  0  0
  7  5  1  0  0  0  0
  7  6  1  0  0  0  0
  8  5  1  0  0  0  0
 10  1  1  0  0  0  0
 13  4  1  0  0  0  0
 16  7  1  0  0  0  0
 17  7  1  0  0  0  0
M  END
