22
title
C 1.9412057 2.6189685 0.40275788
C 1.8784428 1.1055243 0.63168937
C 0.45701787 0.5588606 0.6482976
C -0.35222164 0.5459732 -0.68789095
C -0.8157991 -0.8740241 -0.33857223
C -2.2456503 -1.3101845 -0.19699927
C -1.3515309 -1.9388573 -1.2447312
C 0.25803944 -0.9844484 0.7513881
H 2.97493 2.978047 0.38322502
H 1.475158 2.8950286 -0.5494221
H 1.4151348 3.1609738 1.1966833
H 2.4494858 0.59016544 -0.15289994
H 2.3719354 0.85591847 1.5807542
H -0.122974776 1.0641494 1.4291384
H -1.1265174 1.3077731 -0.81583756
H 0.30706343 0.56916106 -1.5641149
H -2.5172577 -1.9088047 0.6672481
H -3.0253148 -0.6325038 -0.5317125
H -1.5287141 -1.6858349 -2.2856922
H -1.0210468 -2.9610517 -1.086951
H 1.1453086 -1.5332944 0.41402847
H -0.050675053 -1.3849318 1.7214087
