17
title
C -1.6405841 2.2687626 -1.0936053
N -1.7002043 0.8140411 -1.0561223
C -0.7898686 0.18182956 -0.48070088
C -0.4886709 -1.2812577 -0.22729746
C 0.7422125 -0.7233433 0.47951636
C 1.3880727 -1.0708812 1.7727008
C 2.1702056 -1.136625 0.462545
O 0.351345 0.63623905 0.17798147
H -0.7631327 2.6953552 -0.5936477
H -1.645718 2.5998666 -2.1379755
H -2.5439847 2.6757183 -0.62599164
H -1.214183 -1.794907 0.40669057
H -0.29927891 -1.8719853 -1.1258013
H 1.6180212 -0.25385317 2.4477065
H 1.1061678 -1.9988624 2.2592537
H 2.4227433 -2.1095304 0.053848833
H 2.90864 -0.36234018 0.28579172
