title
 OpenBabel02282109593D

 16 17  0  0  0  0  0  0  0  0999 V2000
   -1.8675   -2.1974    0.9103 O   0  0  0  0  0  0  0  0  0  0  0  0
   -1.8548   -0.9917    0.7662 C   0  0  0  0  0  0  0  0  0  0  0  0
   -0.7633   -0.2779    0.4158 N   0  0  0  0  0  0  0  0  0  0  0  0
    0.5608   -0.7513    0.0065 C   0  0  0  0  0  0  0  0  0  0  0  0
    0.8805    0.7075   -0.3706 C   0  0  0  0  0  0  0  0  0  0  0  0
    2.1559    1.4330   -0.2276 C   0  0  0  0  0  0  0  0  0  0  0  0
    1.5565    1.1908   -1.5592 N   0  0  0  0  0  0  0  0  0  0  0  0
   -0.5477    1.1227    0.0255 C   0  0  0  0  0  0  0  0  0  0  0  0
   -2.7428   -0.3443    0.9187 H   0  0  0  0  0  0  0  0  0  0  0  0
    1.1514   -1.1875    0.8191 H   0  0  0  0  0  0  0  0  0  0  0  0
    0.5291   -1.4583   -0.8317 H   0  0  0  0  0  0  0  0  0  0  0  0
    2.1632    2.4738    0.0850 H   0  0  0  0  0  0  0  0  0  0  0  0
    3.0351    0.8640    0.0653 H   0  0  0  0  0  0  0  0  0  0  0  0
    2.0365    0.4294   -2.0337 H   0  0  0  0  0  0  0  0  0  0  0  0
   -1.1627    1.4596   -0.8164 H   0  0  0  0  0  0  0  0  0  0  0  0
   -0.6271    1.8393    0.8505 H   0  0  0  0  0  0  0  0  0  0  0  0
  2  1  2  0  0  0  0
  2  9  1  0  0  0  0
  3  2  1  0  0  0  0
  4  3  1  0  0  0  0
  4 10  1  0  0  0  0
  5  6  1  0  0  0  0
  5  4  1  0  0  0  0
  5  8  1  0  0  0  0
  6 13  1  0  0  0  0
  6 12  1  0  0  0  0
  7  5  1  0  0  0  0
  7  6  1  0  0  0  0
  8  3  1  0  0  0  0
  8 16  1  0  0  0  0
 11  4  1  0  0  0  0
 14  7  1  0  0  0  0
 15  8  1  0  0  0  0
M  END
