title
 OpenBabel02282109593D

 15 16  0  0  0  0  0  0  0  0999 V2000
   -1.7961   -2.1596    1.1373 O   0  0  0  0  0  0  0  0  0  0  0  0
   -1.8384   -0.9871    0.8275 C   0  0  0  0  0  0  0  0  0  0  0  0
   -0.8495   -0.3345    0.1759 N   0  0  0  0  0  0  0  0  0  0  0  0
    0.5164   -0.7872   -0.1132 C   0  0  0  0  0  0  0  0  0  0  0  0
    0.8691    0.6900   -0.3545 C   0  0  0  0  0  0  0  0  0  0  0  0
    2.1112    1.4242   -0.1386 C   0  0  0  0  0  0  0  0  0  0  0  0
    1.6045    1.1534   -1.4586 O   0  0  0  0  0  0  0  0  0  0  0  0
   -0.5914    1.0908   -0.0746 C   0  0  0  0  0  0  0  0  0  0  0  0
   -2.7030   -0.3251    1.0397 H   0  0  0  0  0  0  0  0  0  0  0  0
    1.0057   -1.2802    0.7328 H   0  0  0  0  0  0  0  0  0  0  0  0
    0.5978   -1.4216   -1.0019 H   0  0  0  0  0  0  0  0  0  0  0  0
    2.0782    2.4689    0.1669 H   0  0  0  0  0  0  0  0  0  0  0  0
    3.0182    0.8855    0.1312 H   0  0  0  0  0  0  0  0  0  0  0  0
   -1.1120    1.4981   -0.9486 H   0  0  0  0  0  0  0  0  0  0  0  0
   -0.7542    1.7448    0.7893 H   0  0  0  0  0  0  0  0  0  0  0  0
  2  9  1  0  0  0  0
  2  1  2  0  0  0  0
  3  2  1  0  0  0  0
  4  3  1  0  0  0  0
  4 10  1  0  0  0  0
  5  6  1  0  0  0  0
  5  4  1  0  0  0  0
  5  8  1  0  0  0  0
  6 13  1  0  0  0  0
  6 12  1  0  0  0  0
  7  5  1  0  0  0  0
  7  6  1  0  0  0  0
  8  3  1  0  0  0  0
  8 15  1  0  0  0  0
 11  4  1  0  0  0  0
 14  8  1  0  0  0  0
M  END
