title
 OpenBabel02282109593D

 17 18  0  0  1  0  0  0  0  0999 V2000
    0.3356   -3.2243   -0.5092 O   0  0  0  0  0  0  0  0  0  0  0  0
   -0.2268   -2.1807   -0.2990 C   0  0  0  0  0  0  0  0  0  0  0  0
    0.4385   -0.8403   -0.1783 C   0  0  1  0  0  0  0  0  0  0  0  0
   -0.1709    0.3155   -1.0425 C   0  0  0  0  0  0  0  0  0  0  0  0
   -0.1002    1.2108    0.1985 C   0  0  1  0  0  0  0  0  0  0  0  0
    0.5631    2.5288    0.2902 C   0  0  0  0  0  0  0  0  0  0  0  0
   -0.8913    2.3844    0.5251 N   0  0  0  0  0  0  0  0  0  0  0  0
    0.0897   -0.0081    1.1032 C   0  0  0  0  0  0  0  0  0  0  0  0
   -1.3368   -2.1413   -0.1718 H   0  0  0  0  0  0  0  0  0  0  0  0
    1.5133   -0.9525   -0.3271 H   0  0  0  0  0  0  0  0  0  0  0  0
    0.3881    0.6125   -1.9328 H   0  0  0  0  0  0  0  0  0  0  0  0
   -1.2063    0.0955   -1.3301 H   0  0  0  0  0  0  0  0  0  0  0  0
    1.1412    2.7922    1.1723 H   0  0  0  0  0  0  0  0  0  0  0  0
    0.9019    2.9972   -0.6310 H   0  0  0  0  0  0  0  0  0  0  0  0
   -1.4134    2.7008   -0.2891 H   0  0  0  0  0  0  0  0  0  0  0  0
   -0.8560   -0.3267    1.5552 H   0  0  0  0  0  0  0  0  0  0  0  0
    0.8566    0.0383    1.8786 H   0  0  0  0  0  0  0  0  0  0  0  0
  1  2  2  0  0  0  0
  2  3  1  0  0  0  0
  2  9  1  0  0  0  0
  3 10  1  6  0  0  0
  3  8  1  0  0  0  0
  4  3  1  0  0  0  0
  5  4  1  6  0  0  0
  5  6  1  0  0  0  0
  5  7  1  0  0  0  0
  5  8  1  0  0  0  0
  6  7  1  0  0  0  0
  6 13  1  0  0  0  0
  8 16  1  0  0  0  0
  8 17  1  0  0  0  0
 11  4  1  0  0  0  0
 12  4  1  0  0  0  0
 14  6  1  0  0  0  0
 15  7  1  0  0  0  0
M  END
