16
title
O -1.8674637 -2.197375 0.910285
C -1.854833 -0.9916858 0.7662044
N -0.7632754 -0.27786213 0.41581976
C 0.56077933 -0.75125045 0.0064590103
C 0.88048816 0.707508 -0.37059703
C 2.1559265 1.4330012 -0.22755738
N 1.5564923 1.1907984 -1.5592304
C -0.5476792 1.1226794 0.025537087
H -2.7428374 -0.34434372 0.9187361
H 1.1513698 -1.1875181 0.81905854
H 0.529114 -1.4582952 -0.83165056
H 2.1632245 2.473797 0.08504425
H 3.0350788 0.8640017 0.06530808
H 2.03649 0.4293701 -2.0337133
H -1.1627326 1.4596041 -0.81636256
H -0.62712824 1.8393303 0.85047376
