title
 OpenBabel02282109593D

 19 20  0  0  1  0  0  0  0  0999 V2000
    1.8309    2.4525    0.3187 O   0  0  0  0  0  0  0  0  0  0  0  0
    1.8652    1.0597    0.5962 C   0  0  0  0  0  0  0  0  0  0  0  0
    0.4377    0.5616    0.6622 C   0  0  1  0  0  0  0  0  0  0  0  0
   -0.3850    0.5489   -0.6626 C   0  0  0  0  0  0  0  0  0  0  0  0
   -0.8591   -0.8600   -0.2876 C   0  0  1  0  0  0  0  0  0  0  0  0
   -2.2596   -1.3310   -0.2328 C   0  0  0  0  0  0  0  0  0  0  0  0
   -1.2850   -1.9425   -1.1645 N   0  0  0  0  0  0  0  0  0  0  0  0
    0.2198   -0.9763    0.7939 C   0  0  0  0  0  0  0  0  0  0  0  0
    2.7362    2.7695    0.2511 H   0  0  0  0  0  0  0  0  0  0  0  0
    2.4086    0.5094   -0.1906 H   0  0  0  0  0  0  0  0  0  0  0  0
    2.3758    0.8530    1.5515 H   0  0  0  0  0  0  0  0  0  0  0  0
   -0.0965    1.1086    1.4442 H   0  0  0  0  0  0  0  0  0  0  0  0
   -1.1446    1.3233   -0.7925 H   0  0  0  0  0  0  0  0  0  0  0  0
    0.2691    0.5481   -1.5423 H   0  0  0  0  0  0  0  0  0  0  0  0
   -2.5884   -1.9841    0.5720 H   0  0  0  0  0  0  0  0  0  0  0  0
   -3.0350   -0.6834   -0.6359 H   0  0  0  0  0  0  0  0  0  0  0  0
   -1.4375   -1.5885   -2.1066 H   0  0  0  0  0  0  0  0  0  0  0  0
    1.0831   -1.5520    0.4426 H   0  0  0  0  0  0  0  0  0  0  0  0
   -0.0845   -1.3593    1.7709 H   0  0  0  0  0  0  0  0  0  0  0  0
  1  2  1  0  0  0  0
  2  3  1  0  0  0  0
  2 11  1  0  0  0  0
  3  8  1  0  0  0  0
  3 12  1  1  0  0  0
  4  5  1  0  0  0  0
  4  3  1  0  0  0  0
  5  7  1  6  0  0  0
  5  6  1  0  0  0  0
  5  8  1  0  0  0  0
  6 15  1  0  0  0  0
  7  6  1  0  0  0  0
  8 19  1  0  0  0  0
  9  1  1  0  0  0  0
 10  2  1  0  0  0  0
 13  4  1  0  0  0  0
 14  4  1  0  0  0  0
 16  6  1  0  0  0  0
 17  7  1  0  0  0  0
 18  8  1  0  0  0  0
M  END
