18
title
O 1.8871075 2.137602 0.04784318
C 1.862002 0.7971643 -0.39751032
C 0.47551686 0.42697886 -0.8942029
C 0.117877305 -1.0726793 -0.9731532
C -0.8452206 -0.74748325 0.16310689
C -2.2446382 -1.2008102 0.4048086
C -1.1455317 -1.4887424 1.4225038
O -0.49714667 0.6424179 0.17050973
H 1.1511128 2.2194903 0.66743433
H 2.5933788 0.709051 -1.2092482
H 2.1584334 0.098450676 0.4026046
H 0.21234637 1.0269507 -1.7726485
H -0.35140043 -1.3921978 -1.9050988
H 0.9328583 -1.7559655 -0.72114843
H -2.9718778 -0.43801174 0.66151524
H -2.6349437 -2.022026 -0.18791753
H -0.7837232 -2.5067868 1.5267328
H -1.1578367 -0.9136957 2.342293
