18
title
O 1.8559409 2.4529202 0.30485243
C 1.8798245 1.0616771 0.5874438
C 0.44742632 0.5781857 0.66041493
C -0.37907875 0.56243896 -0.6627106
C -0.8750981 -0.8268634 -0.25961292
C -2.2444236 -1.3421748 -0.2313302
O -1.2668422 -1.8495057 -1.1534419
C 0.2161994 -0.9576361 0.80593395
H 2.7632155 2.761091 0.22383286
H 2.4140825 0.5027134 -0.19924442
H 2.3919413 0.85420215 1.5418788
H -0.079507 1.1341873 1.4409715
H -1.1218985 1.348611 -0.81035227
H 0.26749098 0.5163802 -1.5451534
H -2.5489705 -2.035568 0.55226654
H -3.0517476 -0.76393735 -0.67991334
H 1.0663239 -1.5384359 0.43119776
H -0.06986404 -1.342128 1.787586
