title
 OpenBabel02282109593D

 20 21  0  0  0  0  0  0  0  0999 V2000
   -0.3623    3.0850   -0.0460 C   0  0  0  0  0  0  0  0  0  0  0  0
   -1.0423    1.8515   -0.0002 O   0  0  0  0  0  0  0  0  0  0  0  0
   -0.2711    0.7776   -0.4650 C   0  0  0  0  0  0  0  0  0  0  0  0
    0.8572    0.2102    0.4549 C   0  0  0  0  0  0  0  0  0  0  0  0
    0.3146   -1.1891    0.1325 C   0  0  0  0  0  0  0  0  0  0  0  0
    1.0931   -2.2907   -0.5274 C   0  0  0  0  0  0  0  0  0  0  0  0
    0.5296   -2.4756    0.8658 C   0  0  0  0  0  0  0  0  0  0  0  0
   -0.9935   -0.5858   -0.3978 C   0  0  0  0  0  0  0  0  0  0  0  0
    0.5337    3.0866    0.5931 H   0  0  0  0  0  0  0  0  0  0  0  0
   -0.0522    3.3405   -1.0720 H   0  0  0  0  0  0  0  0  0  0  0  0
   -1.0519    3.8519    0.3150 H   0  0  0  0  0  0  0  0  0  0  0  0
    0.1143    0.9896   -1.4744 H   0  0  0  0  0  0  0  0  0  0  0  0
    1.8955    0.4271    0.1898 H   0  0  0  0  0  0  0  0  0  0  0  0
    0.6794    0.4958    1.4973 H   0  0  0  0  0  0  0  0  0  0  0  0
    0.6247   -2.8329   -1.3431 H   0  0  0  0  0  0  0  0  0  0  0  0
    2.1672   -2.1708   -0.6313 H   0  0  0  0  0  0  0  0  0  0  0  0
    1.2236   -2.4799    1.7007 H   0  0  0  0  0  0  0  0  0  0  0  0
   -0.3177   -3.1429    0.9897 H   0  0  0  0  0  0  0  0  0  0  0  0
   -1.7787   -0.5542    0.3642 H   0  0  0  0  0  0  0  0  0  0  0  0
   -1.4075   -0.9847   -1.3273 H   0  0  0  0  0  0  0  0  0  0  0  0
  1  2  1  0  0  0  0
  1 11  1  0  0  0  0
  1  9  1  0  0  0  0
  3  8  1  0  0  0  0
  3  2  1  0  0  0  0
  3  4  1  0  0  0  0
  4 14  1  0  0  0  0
  5  4  1  0  0  0  0
  5  7  1  0  0  0  0
  6  5  1  0  0  0  0
  6  7  1  0  0  0  0
  7 18  1  0  0  0  0
  7 17  1  0  0  0  0
  8  5  1  0  0  0  0
  8 19  1  0  0  0  0
 10  1  1  0  0  0  0
 12  3  1  0  0  0  0
 13  4  1  0  0  0  0
 15  6  1  0  0  0  0
 16  6  1  0  0  0  0
 20  8  1  0  0  0  0
M  END
