title
 OpenBabel02282109593D

 20 21  0  0  0  0  0  0  0  0999 V2000
    1.8191    2.4559    0.3146 O   0  0  0  0  0  0  0  0  0  0  0  0
    1.8450    1.0649    0.6030 C   0  0  0  0  0  0  0  0  0  0  0  0
    0.4159    0.5690    0.6483 C   0  0  0  0  0  0  0  0  0  0  0  0
   -0.3809    0.5299   -0.6904 C   0  0  0  0  0  0  0  0  0  0  0  0
   -0.8425   -0.8868   -0.3219 C   0  0  0  0  0  0  0  0  0  0  0  0
   -2.2696   -1.3415   -0.2186 C   0  0  0  0  0  0  0  0  0  0  0  0
   -1.3322   -1.9799   -1.2210 C   0  0  0  0  0  0  0  0  0  0  0  0
    0.1981   -0.9663    0.8045 C   0  0  0  0  0  0  0  0  0  0  0  0
    2.7264    2.7676    0.2496 H   0  0  0  0  0  0  0  0  0  0  0  0
    2.4010    0.5080   -0.1704 H   0  0  0  0  0  0  0  0  0  0  0  0
    2.3396    0.8648    1.5685 H   0  0  0  0  0  0  0  0  0  0  0  0
   -0.1309    1.1290    1.4125 H   0  0  0  0  0  0  0  0  0  0  0  0
   -1.1566    1.2877   -0.8253 H   0  0  0  0  0  0  0  0  0  0  0  0
    0.2812    0.5521   -1.5632 H   0  0  0  0  0  0  0  0  0  0  0  0
   -2.5615   -1.9245    0.6497 H   0  0  0  0  0  0  0  0  0  0  0  0
   -3.0462   -0.6818   -0.5935 H   0  0  0  0  0  0  0  0  0  0  0  0
   -1.4765   -1.7519   -2.2727 H   0  0  0  0  0  0  0  0  0  0  0  0
   -0.9931   -2.9934   -1.0291 H   0  0  0  0  0  0  0  0  0  0  0  0
    1.0868   -1.5429    0.5209 H   0  0  0  0  0  0  0  0  0  0  0  0
   -0.1476   -1.3201    1.7798 H   0  0  0  0  0  0  0  0  0  0  0  0
  1  2  1  0  0  0  0
  2  3  1  0  0  0  0
  2 11  1  0  0  0  0
  3  8  1  0  0  0  0
  3 12  1  0  0  0  0
  4  5  1  0  0  0  0
  4  3  1  0  0  0  0
  5  6  1  0  0  0  0
  5  8  1  0  0  0  0
  6 15  1  0  0  0  0
  7 18  1  0  0  0  0
  7  5  1  0  0  0  0
  7  6  1  0  0  0  0
  8 20  1  0  0  0  0
  9  1  1  0  0  0  0
 10  2  1  0  0  0  0
 13  4  1  0  0  0  0
 14  4  1  0  0  0  0
 16  6  1  0  0  0  0
 17  7  1  0  0  0  0
 19  8  1  0  0  0  0
M  END
