title
 OpenBabel02282109593D

 20 21  0  0  1  0  0  0  0  0999 V2000
   -1.3628    2.5563    1.5971 C   0  0  0  0  0  0  0  0  0  0  0  0
   -1.5103    1.0500    1.3610 C   0  0  0  0  0  0  0  0  0  0  0  0
   -0.8192    0.5705    0.0912 C   0  0  1  0  0  0  0  0  0  0  0  0
    0.7443    0.5838    0.0459 C   0  0  0  0  0  0  0  0  0  0  0  0
    0.6711   -0.7923   -0.6161 C   0  0  1  0  0  0  0  0  0  0  0  0
    1.3366   -1.2588   -1.8331 C   0  0  0  0  0  0  0  0  0  0  0  0
    1.6689   -1.7914   -0.5413 O   0  0  0  0  0  0  0  0  0  0  0  0
   -0.7896   -0.9637   -0.1987 C   0  0  0  0  0  0  0  0  0  0  0  0
   -0.3088    2.8437    1.6778 H   0  0  0  0  0  0  0  0  0  0  0  0
   -1.7997    3.1307    0.7726 H   0  0  0  0  0  0  0  0  0  0  0  0
   -1.8631    2.8657    2.5199 H   0  0  0  0  0  0  0  0  0  0  0  0
   -1.1005    0.4999    2.2189 H   0  0  0  0  0  0  0  0  0  0  0  0
   -2.5755    0.7875    1.3113 H   0  0  0  0  0  0  0  0  0  0  0  0
   -1.2208    1.1081   -0.7751 H   0  0  0  0  0  0  0  0  0  0  0  0
    1.2414    1.3887   -0.5005 H   0  0  0  0  0  0  0  0  0  0  0  0
    1.1785    0.5150    1.0496 H   0  0  0  0  0  0  0  0  0  0  0  0
    0.8241   -1.9487   -2.5032 H   0  0  0  0  0  0  0  0  0  0  0  0
    2.1105   -0.6485   -2.2981 H   0  0  0  0  0  0  0  0  0  0  0  0
   -0.8709   -1.5509    0.7225 H   0  0  0  0  0  0  0  0  0  0  0  0
   -1.4903   -1.3623   -0.9363 H   0  0  0  0  0  0  0  0  0  0  0  0
  1  9  1  0  0  0  0
  1 11  1  0  0  0  0
  2  1  1  0  0  0  0
  2 12  1  0  0  0  0
  3 14  1  6  0  0  0
  3  2  1  0  0  0  0
  4  3  1  0  0  0  0
  4 16  1  0  0  0  0
  5  7  1  1  0  0  0
  5  8  1  0  0  0  0
  5  4  1  0  0  0  0
  6  5  1  0  0  0  0
  6  7  1  0  0  0  0
  8  3  1  0  0  0  0
  8 19  1  0  0  0  0
 10  1  1  0  0  0  0
 13  2  1  0  0  0  0
 15  4  1  0  0  0  0
 17  6  1  0  0  0  0
 18  6  1  0  0  0  0
 20  8  1  0  0  0  0
M  END
