20
title
C -1.3627989 2.5563314 1.5971307
C -1.5103263 1.0500476 1.3610204
C -0.81915635 0.5705241 0.091242336
C 0.7442646 0.58376354 0.04590311
C 0.6710782 -0.79227245 -0.6160691
C 1.3365946 -1.2587868 -1.8330903
O 1.668853 -1.7914015 -0.54125226
C -0.7895627 -0.9636589 -0.19871233
H -0.30883828 2.8437254 1.6778129
H -1.7997005 3.1307096 0.7725591
H -1.8631288 2.8657298 2.5198953
H -1.1005099 0.4998926 2.2189329
H -2.575482 0.7875226 1.3113116
H -1.2207592 1.1080881 -0.7751014
H 1.24141 1.3887322 -0.5004653
H 1.1785154 0.51495427 1.049556
H 0.8241255 -1.9486636 -2.5032077
H 2.11047 -0.6484779 -2.298097
H -0.8708558 -1.5508813 0.722483
H -1.4903154 -1.3623189 -0.93628025
