20
title
O 1.8190953 2.4558942 0.31458545
C 1.844991 1.0648854 0.60299605
C 0.41585764 0.5689923 0.64831835
C -0.3809487 0.5298923 -0.69041663
C -0.8424927 -0.8867712 -0.32191923
C -2.2696047 -1.3415271 -0.21857296
C -1.3321935 -1.9799091 -1.2210058
C 0.19814597 -0.96625984 0.80449355
H 2.7263813 2.7676404 0.2495722
H 2.4009566 0.507964 -0.17037223
H 2.3395855 0.8647552 1.5685413
H -0.13085927 1.1289741 1.4124975
H -1.156614 1.2877097 -0.8253073
H 0.28120658 0.5521473 -1.5632008
H -2.56148 -1.9245392 0.6497205
H -3.0462499 -0.6818472 -0.59350735
H -1.4764766 -1.7518929 -2.2727349
H -0.99305356 -2.9934456 -1.0291406
H 1.0868437 -1.5428704 0.52094334
H -0.14756061 -1.3201181 1.7797586
