title
 OpenBabel02282109593D

 20 21  0  0  1  0  0  0  0  0999 V2000
   -0.8652    2.3555    1.7909 C   0  0  0  0  0  0  0  0  0  0  0  0
   -0.5511    0.8590    1.8701 C   0  0  0  0  0  0  0  0  0  0  0  0
    0.4776    0.4273    0.8405 C   0  0  1  0  0  0  0  0  0  0  0  0
    0.6729   -1.0872    0.5944 C   0  0  0  0  0  0  0  0  0  0  0  0
    0.2248   -0.7591   -0.8239 C   0  0  0  0  0  0  0  0  0  0  0  0
    0.7916   -1.1965   -2.1343 C   0  0  0  0  0  0  0  0  0  0  0  0
   -0.6564   -1.5065   -1.7668 C   0  0  0  0  0  0  0  0  0  0  0  0
    0.0080    0.6204   -0.5245 O   0  0  0  0  0  0  0  0  0  0  0  0
    0.0263    2.9592    1.9944 H   0  0  0  0  0  0  0  0  0  0  0  0
   -1.2250    2.6148    0.7913 H   0  0  0  0  0  0  0  0  0  0  0  0
   -1.6336    2.6388    2.5162 H   0  0  0  0  0  0  0  0  0  0  0  0
   -0.1698    0.5989    2.8669 H   0  0  0  0  0  0  0  0  0  0  0  0
   -1.4666    0.2743    1.7161 H   0  0  0  0  0  0  0  0  0  0  0  0
    1.4190    0.9741    0.9912 H   0  0  0  0  0  0  0  0  0  0  0  0
    1.6935   -1.4606    0.6974 H   0  0  0  0  0  0  0  0  0  0  0  0
   -0.0091   -1.7275    1.1599 H   0  0  0  0  0  0  0  0  0  0  0  0
    0.9602   -0.4264   -2.8795 H   0  0  0  0  0  0  0  0  0  0  0  0
    1.5114   -2.0089   -2.1468 H   0  0  0  0  0  0  0  0  0  0  0  0
   -0.9267   -2.5304   -1.5282 H   0  0  0  0  0  0  0  0  0  0  0  0
   -1.4294   -0.9382   -2.2732 H   0  0  0  0  0  0  0  0  0  0  0  0
  1  2  1  0  0  0  0
  1  9  1  0  0  0  0
  1 11  1  0  0  0  0
  2 12  1  0  0  0  0
  3 14  1  1  0  0  0
  3  2  1  0  0  0  0
  4 15  1  0  0  0  0
  4  3  1  0  0  0  0
  4 16  1  0  0  0  0
  5  8  1  0  0  0  0
  5  4  1  0  0  0  0
  6  7  1  0  0  0  0
  6  5  1  0  0  0  0
  7 19  1  0  0  0  0
  7  5  1  0  0  0  0
  8  3  1  0  0  0  0
 10  1  1  0  0  0  0
 13  2  1  0  0  0  0
 17  6  1  0  0  0  0
 18  6  1  0  0  0  0
 20  7  1  0  0  0  0
M  END
