17
title
N 0.07608265 2.4508204 1.0686172
C 0.22184955 1.3416096 0.48546702
C -0.7936416 0.6697353 -0.41700184
C -0.30046475 -0.76607555 -0.455828
C -1.0821246 -1.8885126 0.1764279
C -0.88075715 -1.8420296 -1.3221169
C 1.1946633 -0.6291167 -0.22176641
O 1.3415315 0.5577256 0.575833
H 0.9141631 2.685114 1.604031
H -1.80617 0.7960919 -0.03197982
H -0.75255007 1.138169 -1.4088335
H -0.53885776 -2.639715 0.7406944
H -2.06934 -1.6641695 0.56660223
H -1.7309728 -1.591167 -1.947724
H -0.2022441 -2.5632207 -1.7674536
H 1.6350546 -1.4664159 0.32655162
H 1.7482381 -0.4930626 -1.161007
