title
 OpenBabel02282109593D

 17 18  0  0  0  0  0  0  0  0999 V2000
   -0.4855    2.3460    1.1250 N   0  0  0  0  0  0  0  0  0  0  0  0
   -0.4431    1.1860    0.6305 C   0  0  0  0  0  0  0  0  0  0  0  0
   -1.5483    0.1512    0.6850 C   0  0  0  0  0  0  0  0  0  0  0  0
   -1.1613   -0.8264   -0.4354 C   0  0  0  0  0  0  0  0  0  0  0  0
    0.3483   -0.6664   -0.4663 C   0  0  0  0  0  0  0  0  0  0  0  0
    1.3215   -1.7250   -0.0338 C   0  0  0  0  0  0  0  0  0  0  0  0
    1.2698   -1.2508   -1.4795 C   0  0  0  0  0  0  0  0  0  0  0  0
    0.6275    0.6688   -0.0504 O   0  0  0  0  0  0  0  0  0  0  0  0
    0.3959    2.8366    0.9635 H   0  0  0  0  0  0  0  0  0  0  0  0
   -1.5224   -0.3382    1.6651 H   0  0  0  0  0  0  0  0  0  0  0  0
   -2.5277    0.6157    0.5715 H   0  0  0  0  0  0  0  0  0  0  0  0
   -1.4697   -1.8566   -0.2485 H   0  0  0  0  0  0  0  0  0  0  0  0
   -1.5948   -0.5076   -1.3899 H   0  0  0  0  0  0  0  0  0  0  0  0
    2.1683   -1.4037    0.5617 H   0  0  0  0  0  0  0  0  0  0  0  0
    0.9411   -2.7131    0.2034 H   0  0  0  0  0  0  0  0  0  0  0  0
    0.8516   -1.9118   -2.2314 H   0  0  0  0  0  0  0  0  0  0  0  0
    2.0835   -0.6241   -1.8263 H   0  0  0  0  0  0  0  0  0  0  0  0
  2  3  1  0  0  0  0
  2  1  2  0  0  0  0
  3 10  1  0  0  0  0
  4 12  1  0  0  0  0
  4  3  1  0  0  0  0
  5  4  1  0  0  0  0
  5  8  1  0  0  0  0
  5  6  1  0  0  0  0
  6 15  1  0  0  0  0
  6 14  1  0  0  0  0
  7  5  1  0  0  0  0
  7  6  1  0  0  0  0
  8  2  1  0  0  0  0
  9  1  1  0  0  0  0
 11  3  1  0  0  0  0
 13  4  1  0  0  0  0
 16  7  1  0  0  0  0
 17  7  1  0  0  0  0
M  END
