15
title
N 0.16876867 2.6278095 0.013079939
C 0.3606276 1.374432 0.005215824
O -0.71793187 0.525023 0.007130512
C -0.25886202 -0.81000143 -0.0027904746
C -1.0786086 -1.8284504 0.75135726
C -1.0876676 -1.8203528 -0.7579292
C 1.2107962 -0.74513155 -0.011264591
C 1.5763057 0.54044706 -0.0065685315
H 1.0634233 3.1137776 0.010302044
H -0.55449134 -2.6228328 1.2710308
H -1.9526904 -1.441067 1.2615519
H -1.9677854 -1.4275737 -1.2534095
H -0.5698772 -2.60908 -1.2923496
H 1.8451784 -1.6213987 -0.019777127
H 2.5759308 0.95072573 -0.010377086
