16
title
N 0.2382966 2.649629 0.3050557
C 0.25953093 1.3886427 0.32468572
C -0.9563361 0.48364493 0.32648295
C -0.37450507 -0.8583753 -0.07878621
C -1.1430364 -2.1142795 -0.18238722
N -0.62504023 -1.4531155 -1.3984888
C 1.0764754 -0.7757039 0.36611465
O 1.3952746 0.6269335 0.35240266
H 1.188786 3.0237508 0.32219312
H -1.3732708 0.44811156 1.3402603
H -1.7349747 0.86138463 -0.33851784
H -0.67450535 -3.0666735 0.053065937
H -2.2099648 -2.0759265 0.023816418
H -1.3768526 -0.95705414 -1.8720399
H 1.2208054 -1.1608193 1.3836794
H 1.7467724 -1.295387 -0.32119638
