title
 OpenBabel02282109593D

 15 16  0  0  0  0  0  0  0  0999 V2000
    0.1688    2.6278    0.0131 N   0  0  0  0  0  0  0  0  0  0  0  0
    0.3606    1.3744    0.0052 C   0  0  0  0  0  0  0  0  0  0  0  0
   -0.7179    0.5250    0.0071 O   0  0  0  0  0  0  0  0  0  0  0  0
   -0.2589   -0.8100   -0.0028 C   0  0  0  0  0  0  0  0  0  0  0  0
   -1.0786   -1.8285    0.7514 C   0  0  0  0  0  0  0  0  0  0  0  0
   -1.0877   -1.8204   -0.7579 C   0  0  0  0  0  0  0  0  0  0  0  0
    1.2108   -0.7451   -0.0113 C   0  0  0  0  0  0  0  0  0  0  0  0
    1.5763    0.5404   -0.0066 C   0  0  0  0  0  0  0  0  0  0  0  0
    1.0634    3.1138    0.0103 H   0  0  0  0  0  0  0  0  0  0  0  0
   -0.5545   -2.6228    1.2710 H   0  0  0  0  0  0  0  0  0  0  0  0
   -1.9527   -1.4411    1.2616 H   0  0  0  0  0  0  0  0  0  0  0  0
   -1.9678   -1.4276   -1.2534 H   0  0  0  0  0  0  0  0  0  0  0  0
   -0.5699   -2.6091   -1.2923 H   0  0  0  0  0  0  0  0  0  0  0  0
    1.8452   -1.6214   -0.0198 H   0  0  0  0  0  0  0  0  0  0  0  0
    2.5759    0.9507   -0.0104 H   0  0  0  0  0  0  0  0  0  0  0  0
  2  3  1  0  0  0  0
  2  1  2  0  0  0  0
  4  3  1  0  0  0  0
  4  5  1  0  0  0  0
  5 11  1  0  0  0  0
  5 10  1  0  0  0  0
  6  4  1  0  0  0  0
  6  5  1  0  0  0  0
  7  8  2  0  0  0  0
  7  4  1  0  0  0  0
  8  2  1  0  0  0  0
  9  1  1  0  0  0  0
 12  6  1  0  0  0  0
 13  6  1  0  0  0  0
 14  7  1  0  0  0  0
 15  8  1  0  0  0  0
M  END
