title
 OpenBabel02282109593D

 16 17  0  0  1  0  0  0  0  0999 V2000
    0.2383    2.6496    0.3051 N   0  0  0  0  0  0  0  0  0  0  0  0
    0.2595    1.3886    0.3247 C   0  0  0  0  0  0  0  0  0  0  0  0
   -0.9563    0.4836    0.3265 C   0  0  0  0  0  0  0  0  0  0  0  0
   -0.3745   -0.8584   -0.0788 C   0  0  1  0  0  0  0  0  0  0  0  0
   -1.1430   -2.1143   -0.1824 C   0  0  0  0  0  0  0  0  0  0  0  0
   -0.6250   -1.4531   -1.3985 N   0  0  0  0  0  0  0  0  0  0  0  0
    1.0765   -0.7757    0.3661 C   0  0  0  0  0  0  0  0  0  0  0  0
    1.3953    0.6269    0.3524 O   0  0  0  0  0  0  0  0  0  0  0  0
    1.1888    3.0238    0.3222 H   0  0  0  0  0  0  0  0  0  0  0  0
   -1.3733    0.4481    1.3403 H   0  0  0  0  0  0  0  0  0  0  0  0
   -1.7350    0.8614   -0.3385 H   0  0  0  0  0  0  0  0  0  0  0  0
   -0.6745   -3.0667    0.0531 H   0  0  0  0  0  0  0  0  0  0  0  0
   -2.2100   -2.0759    0.0238 H   0  0  0  0  0  0  0  0  0  0  0  0
   -1.3769   -0.9571   -1.8720 H   0  0  0  0  0  0  0  0  0  0  0  0
    1.2208   -1.1608    1.3837 H   0  0  0  0  0  0  0  0  0  0  0  0
    1.7468   -1.2954   -0.3212 H   0  0  0  0  0  0  0  0  0  0  0  0
  1  9  1  0  0  0  0
  1  2  2  0  0  0  0
  2  3  1  0  0  0  0
  2  8  1  0  0  0  0
  3 10  1  0  0  0  0
  4  6  1  6  0  0  0
  4  3  1  0  0  0  0
  4  7  1  0  0  0  0
  5  4  1  0  0  0  0
  5 13  1  0  0  0  0
  5 12  1  0  0  0  0
  6  5  1  0  0  0  0
  7 15  1  0  0  0  0
  8  7  1  0  0  0  0
 11  3  1  0  0  0  0
 14  6  1  0  0  0  0
 16  7  1  0  0  0  0
M  END
