15
title
O 0.364488 -2.6870878 -0.09186985
C 0.36579674 -1.4808303 -0.027599541
C -0.88648987 -0.5815604 0.040024973
C -0.3324567 0.83737516 0.0015011505
C -1.0049521 1.9554935 -0.7234249
N -0.92520463 1.9714203 0.7420659
C 1.1457912 0.6989274 0.040548358
C 1.5423936 -0.5807388 0.009158512
H -1.5659274 -0.81946886 -0.7825282
H -1.4150525 -0.7927884 0.9765579
H -0.41256756 2.7172313 -1.2235754
H -1.9565864 1.735342 -1.200859
H -1.8152201 1.6833663 1.1423473
H 1.7872199 1.5719671 0.086345084
H 2.5584643 -0.95308673 0.010109295
