title
 OpenBabel02282109593D

 16 17  0  0  0  0  0  0  0  0999 V2000
    0.3628   -2.6845   -0.0203 O   0  0  0  0  0  0  0  0  0  0  0  0
    0.3629   -1.4754   -0.0141 C   0  0  0  0  0  0  0  0  0  0  0  0
   -0.8909   -0.5756    0.0090 C   0  0  0  0  0  0  0  0  0  0  0  0
   -0.3420    0.8468    0.0096 C   0  0  0  0  0  0  0  0  0  0  0  0
   -1.0141    1.9940   -0.7246 C   0  0  0  0  0  0  0  0  0  0  0  0
   -0.9933    1.9853    0.7754 C   0  0  0  0  0  0  0  0  0  0  0  0
    1.1312    0.7063   -0.0116 C   0  0  0  0  0  0  0  0  0  0  0  0
    1.5356   -0.5731   -0.0246 C   0  0  0  0  0  0  0  0  0  0  0  0
   -1.5108   -0.7991   -0.8649 H   0  0  0  0  0  0  0  0  0  0  0  0
   -1.4859   -0.8095    0.8975 H   0  0  0  0  0  0  0  0  0  0  0  0
   -0.3815    2.7046   -1.2460 H   0  0  0  0  0  0  0  0  0  0  0  0
   -1.9490    1.7731   -1.2283 H   0  0  0  0  0  0  0  0  0  0  0  0
   -1.9138    1.7585    1.3023 H   0  0  0  0  0  0  0  0  0  0  0  0
   -0.3463    2.6899    1.2872 H   0  0  0  0  0  0  0  0  0  0  0  0
    1.7833    1.5745   -0.0155 H   0  0  0  0  0  0  0  0  0  0  0  0
    2.5542   -0.9372   -0.0406 H   0  0  0  0  0  0  0  0  0  0  0  0
  1  2  2  0  0  0  0
  2  3  1  0  0  0  0
  3  4  1  0  0  0  0
  3 10  1  0  0  0  0
  4  6  1  0  0  0  0
  5  4  1  0  0  0  0
  5  6  1  0  0  0  0
  6 14  1  0  0  0  0
  6 13  1  0  0  0  0
  7  4  1  0  0  0  0
  8  2  1  0  0  0  0
  8  7  2  0  0  0  0
  9  3  1  0  0  0  0
 11  5  1  0  0  0  0
 12  5  1  0  0  0  0
 15  7  1  0  0  0  0
 16  8  1  0  0  0  0
M  END
