title
 OpenBabel02282109593D

 16 17  0  0  1  0  0  0  0  0999 V2000
    0.3879   -2.6335   -0.2393 O   0  0  0  0  0  0  0  0  0  0  0  0
    0.3427   -1.4239   -0.2354 C   0  0  0  0  0  0  0  0  0  0  0  0
   -0.9137   -0.5417   -0.2528 C   0  0  0  0  0  0  0  0  0  0  0  0
   -0.3946    0.8586    0.0330 C   0  0  1  0  0  0  0  0  0  0  0  0
   -1.2237    2.0790   -0.0439 C   0  0  0  0  0  0  0  0  0  0  0  0
   -0.7590    1.5744    1.2647 N   0  0  0  0  0  0  0  0  0  0  0  0
    1.0986    0.8412   -0.3086 C   0  0  0  0  0  0  0  0  0  0  0  0
    1.4157   -0.5743   -0.2340 N   0  0  0  0  0  0  0  0  0  0  0  0
   -1.3710   -0.6225   -1.2460 H   0  0  0  0  0  0  0  0  0  0  0  0
   -1.6454   -0.9015    0.4749 H   0  0  0  0  0  0  0  0  0  0  0  0
   -0.7818    3.0241   -0.3505 H   0  0  0  0  0  0  0  0  0  0  0  0
   -2.2723    1.9668   -0.3084 H   0  0  0  0  0  0  0  0  0  0  0  0
   -1.5191    1.0912    1.7383 H   0  0  0  0  0  0  0  0  0  0  0  0
    1.2901    1.2479   -1.3124 H   0  0  0  0  0  0  0  0  0  0  0  0
    1.6622    1.4310    0.4201 H   0  0  0  0  0  0  0  0  0  0  0  0
    2.3505   -0.9413   -0.3152 H   0  0  0  0  0  0  0  0  0  0  0  0
  1  2  2  0  0  0  0
  2  8  1  0  0  0  0
  3  2  1  0  0  0  0
  3  4  1  0  0  0  0
  3 10  1  0  0  0  0
  4  7  1  6  0  0  0
  4  6  1  0  0  0  0
  5  4  1  0  0  0  0
  5  6  1  0  0  0  0
  6 13  1  0  0  0  0
  7  8  1  0  0  0  0
  7 15  1  0  0  0  0
  9  3  1  0  0  0  0
 11  5  1  0  0  0  0
 12  5  1  0  0  0  0
 14  7  1  0  0  0  0
 16  8  1  0  0  0  0
M  END
