title
 OpenBabel02282109593D

 17 18  0  0  0  0  0  0  0  0999 V2000
   -0.3069   -2.6177   -0.0465 O   0  0  0  0  0  0  0  0  0  0  0  0
   -0.3620   -1.4094    0.0093 C   0  0  0  0  0  0  0  0  0  0  0  0
   -1.5274   -0.5470    0.5114 C   0  0  0  0  0  0  0  0  0  0  0  0
   -1.1776    0.8805    0.0537 C   0  0  0  0  0  0  0  0  0  0  0  0
    0.3436    0.8473   -0.1099 C   0  0  0  0  0  0  0  0  0  0  0  0
    1.1243    1.9356   -0.7771 C   0  0  0  0  0  0  0  0  0  0  0  0
    1.2745    1.6997    0.7171 C   0  0  0  0  0  0  0  0  0  0  0  0
    0.6327   -0.5395   -0.3568 N   0  0  0  0  0  0  0  0  0  0  0  0
   -2.4757   -0.9237    0.1253 H   0  0  0  0  0  0  0  0  0  0  0  0
   -1.5594   -0.6356    1.6032 H   0  0  0  0  0  0  0  0  0  0  0  0
   -1.6441    1.0892   -0.9151 H   0  0  0  0  0  0  0  0  0  0  0  0
   -1.4977    1.6558    0.7529 H   0  0  0  0  0  0  0  0  0  0  0  0
    1.9526    1.6538   -1.4195 H   0  0  0  0  0  0  0  0  0  0  0  0
    0.5878    2.8184   -1.1104 H   0  0  0  0  0  0  0  0  0  0  0  0
    0.8429    2.4251    1.3992 H   0  0  0  0  0  0  0  0  0  0  0  0
    2.1999    1.2524    1.0652 H   0  0  0  0  0  0  0  0  0  0  0  0
    1.5408   -0.8835   -0.6261 H   0  0  0  0  0  0  0  0  0  0  0  0
  1  2  2  0  0  0  0
  2  3  1  0  0  0  0
  3 10  1  0  0  0  0
  4  3  1  0  0  0  0
  4 12  1  0  0  0  0
  5  4  1  0  0  0  0
  5  7  1  0  0  0  0
  6  5  1  0  0  0  0
  6  7  1  0  0  0  0
  7 16  1  0  0  0  0
  7 15  1  0  0  0  0
  8  5  1  0  0  0  0
  8  2  1  0  0  0  0
  9  3  1  0  0  0  0
 11  4  1  0  0  0  0
 13  6  1  0  0  0  0
 14  6  1  0  0  0  0
 17  8  1  0  0  0  0
M  END
