15
title
O 0.22059111 -2.5906398 0.36510512
C 0.2688959 -1.4222047 0.11912586
C -0.8001864 -0.5481794 -0.5365476
C -0.31913152 0.8602538 -0.25751027
C -0.9428526 2.0899172 -0.78670245
N -1.0330236 1.7658558 0.65183896
C 1.1771896 0.70289826 -0.022379696
O 1.3618355 -0.6600442 0.39673695
H -0.8150008 -0.77860427 -1.6085184
H -1.7869239 -0.78565145 -0.1335393
H -0.33124927 2.9578185 -1.0207666
H -1.8296416 1.984602 -1.406885
H -1.9558916 1.3962498 0.8692484
H 1.7626021 0.8680413 -0.9348316
H 1.5355854 1.3641152 0.76850235
