title
 OpenBabel02282109593D

 18 19  0  0  0  0  0  0  0  0999 V2000
   -0.2914   -2.6401   -0.2572 O   0  0  0  0  0  0  0  0  0  0  0  0
   -0.3003   -1.4567   -0.0407 C   0  0  0  0  0  0  0  0  0  0  0  0
   -1.5506   -0.5834    0.1361 C   0  0  0  0  0  0  0  0  0  0  0  0
   -1.0263    0.7502    0.6941 C   0  0  0  0  0  0  0  0  0  0  0  0
    0.3853    0.8554    0.1150 C   0  0  0  0  0  0  0  0  0  0  0  0
    0.6575    1.7831   -1.0455 C   0  0  0  0  0  0  0  0  0  0  0  0
    1.2433    2.0678    0.3199 C   0  0  0  0  0  0  0  0  0  0  0  0
    0.9385   -0.5608    0.1103 C   0  0  0  0  0  0  0  0  0  0  0  0
   -1.9907   -0.4484   -0.8604 H   0  0  0  0  0  0  0  0  0  0  0  0
   -2.2976   -1.0892    0.7519 H   0  0  0  0  0  0  0  0  0  0  0  0
   -1.6523    1.6067    0.4304 H   0  0  0  0  0  0  0  0  0  0  0  0
   -0.9791    0.7054    1.7898 H   0  0  0  0  0  0  0  0  0  0  0  0
    1.3302    1.4453   -1.8272 H   0  0  0  0  0  0  0  0  0  0  0  0
   -0.1483    2.4199   -1.3964 H   0  0  0  0  0  0  0  0  0  0  0  0
    0.8298    2.8952    0.8884 H   0  0  0  0  0  0  0  0  0  0  0  0
    2.3104    1.9265    0.4572 H   0  0  0  0  0  0  0  0  0  0  0  0
    1.4085   -0.8140    1.0717 H   0  0  0  0  0  0  0  0  0  0  0  0
    1.6736   -0.7712   -0.6706 H   0  0  0  0  0  0  0  0  0  0  0  0
  1  2  2  0  0  0  0
  2  8  1  0  0  0  0
  2  3  1  0  0  0  0
  3  4  1  0  0  0  0
  3 10  1  0  0  0  0
  4 12  1  0  0  0  0
  5  7  1  0  0  0  0
  5  4  1  0  0  0  0
  6  5  1  0  0  0  0
  6  7  1  0  0  0  0
  7 16  1  0  0  0  0
  7 15  1  0  0  0  0
  8  5  1  0  0  0  0
  8 17  1  0  0  0  0
  9  3  1  0  0  0  0
 11  4  1  0  0  0  0
 13  6  1  0  0  0  0
 14  6  1  0  0  0  0
 18  8  1  0  0  0  0
M  END
