title
 OpenBabel02282109593D

 17 18  0  0  0  0  0  0  0  0999 V2000
    0.2793   -2.4912   -0.9157 O   0  0  0  0  0  0  0  0  0  0  0  0
    0.3030   -1.3715   -0.4560 C   0  0  0  0  0  0  0  0  0  0  0  0
   -0.8161   -0.6528    0.3091 C   0  0  0  0  0  0  0  0  0  0  0  0
   -0.3394    0.7891    0.4023 C   0  0  0  0  0  0  0  0  0  0  0  0
   -1.1338    1.9070   -0.2240 C   0  0  0  0  0  0  0  0  0  0  0  0
   -0.9852    1.8214    1.2780 C   0  0  0  0  0  0  0  0  0  0  0  0
    1.1817    0.7394    0.2224 C   0  0  0  0  0  0  0  0  0  0  0  0
    1.3631   -0.5036   -0.5063 N   0  0  0  0  0  0  0  0  0  0  0  0
   -1.7716   -0.7780   -0.2046 H   0  0  0  0  0  0  0  0  0  0  0  0
   -0.9067   -1.1296    1.2934 H   0  0  0  0  0  0  0  0  0  0  0  0
   -0.5957    2.6919   -0.7457 H   0  0  0  0  0  0  0  0  0  0  0  0
   -2.0986    1.6638   -0.6571 H   0  0  0  0  0  0  0  0  0  0  0  0
   -1.8492    1.5261    1.8642 H   0  0  0  0  0  0  0  0  0  0  0  0
   -0.3456    2.5490    1.7684 H   0  0  0  0  0  0  0  0  0  0  0  0
    1.5597    1.5980   -0.3438 H   0  0  0  0  0  0  0  0  0  0  0  0
    1.7038    0.7207    1.1915 H   0  0  0  0  0  0  0  0  0  0  0  0
    2.2558   -0.8208   -0.8496 H   0  0  0  0  0  0  0  0  0  0  0  0
  1  2  2  0  0  0  0
  2  3  1  0  0  0  0
  3  4  1  0  0  0  0
  3 10  1  0  0  0  0
  4  6  1  0  0  0  0
  5  4  1  0  0  0  0
  5  6  1  0  0  0  0
  6 14  1  0  0  0  0
  6 13  1  0  0  0  0
  7  4  1  0  0  0  0
  7 16  1  0  0  0  0
  8  2  1  0  0  0  0
  8  7  1  0  0  0  0
  9  3  1  0  0  0  0
 11  5  1  0  0  0  0
 12  5  1  0  0  0  0
 15  7  1  0  0  0  0
 17  8  1  0  0  0  0
M  END
