title
 OpenBabel02282109593D

 15 16  0  0  0  0  0  0  0  0999 V2000
    0.1713    2.5681   -0.2571 N   0  0  0  0  0  0  0  0  0  0  0  0
    0.2887    1.3348   -0.0504 C   0  0  0  0  0  0  0  0  0  0  0  0
    1.4495    0.6358    0.1243 O   0  0  0  0  0  0  0  0  0  0  0  0
    1.1358   -0.7153    0.4784 C   0  0  0  0  0  0  0  0  0  0  0  0
   -0.3201   -0.8328    0.0736 C   0  0  0  0  0  0  0  0  0  0  0  0
   -0.8573   -1.7937   -0.9425 C   0  0  0  0  0  0  0  0  0  0  0  0
   -1.2722   -1.8843    0.5199 C   0  0  0  0  0  0  0  0  0  0  0  0
   -0.7812    0.5064    0.0314 O   0  0  0  0  0  0  0  0  0  0  0  0
    1.0860    3.0126   -0.2419 H   0  0  0  0  0  0  0  0  0  0  0  0
    1.7983   -1.3899   -0.0685 H   0  0  0  0  0  0  0  0  0  0  0  0
    1.2851   -0.8508    1.5569 H   0  0  0  0  0  0  0  0  0  0  0  0
   -1.5886   -1.4084   -1.6435 H   0  0  0  0  0  0  0  0  0  0  0  0
   -0.1885   -2.5496   -1.3410 H   0  0  0  0  0  0  0  0  0  0  0  0
   -0.8894   -2.7012    1.1230 H   0  0  0  0  0  0  0  0  0  0  0  0
   -2.2746   -1.5605    0.7756 H   0  0  0  0  0  0  0  0  0  0  0  0
  1  9  1  0  0  0  0
  1  2  2  0  0  0  0
  2  8  1  0  0  0  0
  2  3  1  0  0  0  0
  3  4  1  0  0  0  0
  4 11  1  0  0  0  0
  5  4  1  0  0  0  0
  5  7  1  0  0  0  0
  6  5  1  0  0  0  0
  6  7  1  0  0  0  0
  7 15  1  0  0  0  0
  7 14  1  0  0  0  0
  8  5  1  0  0  0  0
 10  4  1  0  0  0  0
 12  6  1  0  0  0  0
 13  6  1  0  0  0  0
M  END
