16
title
O 0.21331279 -2.5747187 0.42645955
C 0.25966865 -1.4126406 0.15089642
C -0.8043515 -0.5514217 -0.5277286
C -0.33040637 0.8602683 -0.24966574
C -0.92407614 2.0962455 -0.85537523
C -1.1249481 1.8051969 0.6147074
C 1.1706095 0.70135134 -0.052528396
O 1.3551178 -0.6447852 0.41555697
H -0.8006937 -0.7928472 -1.5985112
H -1.7935213 -0.7947077 -0.13662039
H -0.25271022 2.9050944 -1.1273068
H -1.7715276 1.9820124 -1.5230417
H -2.109335 1.4884578 0.9432182
H -0.5893047 2.4165308 1.3337942
H 1.7274283 0.8213119 -0.99101794
H 1.5896814 1.3812457 0.693756
