15
title
O -0.29108372 -2.5376523 -0.030493466
C -0.3530952 -1.3410103 -0.026651144
N -1.4549668 -0.5423082 -0.24561633
C -1.1989315 0.8386656 0.11654618
C 0.32666415 0.8324245 0.07938126
C 1.148869 1.7119473 -0.8115831
C 1.2024419 1.8625582 0.70221776
O 0.7258471 -0.5255898 0.19822052
H -2.3619988 -0.9683676 -0.15193667
H -1.6243786 1.5428084 -0.6051343
H -1.583605 1.0884403 1.1163577
H 2.0040941 1.255365 -1.2962264
H 0.6417726 2.4753914 -1.3923438
H 0.73206115 2.7279477 1.1578425
H 2.09302 1.5083202 1.208438
