18
title
C 0.28235543 2.895345 -0.055993766
C 0.23492236 1.4032329 -0.04653094
C -0.8001849 0.5895097 0.15840618
C -0.36441162 -0.81946903 0.072159916
C -0.88278955 -1.9304595 0.94847345
C -1.1775914 -1.9305084 -0.54042494
O 1.0241358 -0.7964671 -0.202786
C 1.4615 0.55610746 -0.2893334
H 0.97840065 3.2763734 0.7023245
H 0.6359306 3.2763135 -1.0227218
H -0.7017063 3.3289695 0.13934611
H -1.8234907 0.8795336 0.3610087
H -0.14482202 -2.6386697 1.3084552
H -1.6880316 -1.7152619 1.643157
H -2.1867976 -1.7153444 -0.8758616
H -0.6324709 -2.6387503 -1.1544132
H 1.9066027 0.7438443 -1.2804478
H 2.250588 0.7438424 0.45750663
