16
title
O -0.28540197 -2.6298373 -0.35982195
C -0.2424465 -1.4641834 -0.07533113
C -1.4426519 -0.5572515 0.22443911
O -0.901546 0.67068094 0.67591834
C 0.384957 0.81080645 0.09536871
C 0.5518592 1.8214451 -1.011077
C 1.1005638 2.0808823 0.38484645
C 0.9980277 -0.57312924 0.049745254
H -2.0352252 -0.43920407 -0.69742745
H -2.0888407 -0.9804413 0.9984988
H 1.2528564 1.6112539 -1.8122028
H -0.3296854 2.3799636 -1.3044782
H 0.5756921 2.8053458 0.9974678
H 2.1736891 2.0459082 0.538554
H 1.5060508 -0.8229204 0.990215
H 1.6948812 -0.7483149 -0.7716095
