19
title
C -0.033058044 2.874456 0.38025424
C -0.010599046 1.379972 0.34736928
C -0.3014316 0.5846653 -0.6867849
C -0.12795404 -0.85240316 -0.35881954
C -0.7768139 -1.9399498 -1.1327491
N 0.67933744 -1.7359815 -1.2361866
C 0.12275738 -0.9023931 1.1532029
C 0.4022837 0.56787 1.5604947
H 0.95391387 3.277061 0.64307225
H -0.32795623 3.299022 -0.5832245
H -0.7297143 3.244068 1.1437284
H -0.60111076 0.9236328 -1.6741824
H -1.0720094 -2.8573906 -0.6283884
H -1.4094881 -1.6685183 -1.9752195
H 0.89919966 -1.2499301 -2.103532
H -0.76950824 -1.2736683 1.667331
H 0.9462523 -1.5798874 1.3878922
H 1.4618975 0.74322957 1.7931788
H -0.15476954 0.8630706 2.4580803
