title
 OpenBabel02282109593D

 16 17  0  0  0  0  0  0  0  0999 V2000
   -0.3239   -2.5804   -0.1712 O   0  0  0  0  0  0  0  0  0  0  0  0
   -0.3501   -1.3766   -0.0550 C   0  0  0  0  0  0  0  0  0  0  0  0
   -1.4441   -0.5429   -0.2529 N   0  0  0  0  0  0  0  0  0  0  0  0
   -1.1632    0.8141    0.1921 C   0  0  0  0  0  0  0  0  0  0  0  0
    0.3651    0.8357    0.1272 C   0  0  0  0  0  0  0  0  0  0  0  0
    1.1206    1.7352   -0.8162 C   0  0  0  0  0  0  0  0  0  0  0  0
    1.1871    1.9496    0.6885 C   0  0  0  0  0  0  0  0  0  0  0  0
    0.7117   -0.5513    0.3090 N   0  0  0  0  0  0  0  0  0  0  0  0
   -2.3562   -0.9537   -0.1347 H   0  0  0  0  0  0  0  0  0  0  0  0
   -1.6128    1.5650   -0.4647 H   0  0  0  0  0  0  0  0  0  0  0  0
   -1.5120    0.9968    1.2199 H   0  0  0  0  0  0  0  0  0  0  0  0
    2.0004    1.3318   -1.3074 H   0  0  0  0  0  0  0  0  0  0  0  0
    0.5610    2.4464   -1.4152 H   0  0  0  0  0  0  0  0  0  0  0  0
    0.6726    2.8072    1.1109 H   0  0  0  0  0  0  0  0  0  0  0  0
    2.1096    1.6913    1.1978 H   0  0  0  0  0  0  0  0  0  0  0  0
    1.6392   -0.8877    0.1022 H   0  0  0  0  0  0  0  0  0  0  0  0
  1  2  2  0  0  0  0
  2  8  1  0  0  0  0
  3  9  1  0  0  0  0
  3  2  1  0  0  0  0
  3  4  1  0  0  0  0
  4 11  1  0  0  0  0
  5  4  1  0  0  0  0
  5  8  1  0  0  0  0
  5  7  1  0  0  0  0
  6  5  1  0  0  0  0
  6  7  1  0  0  0  0
  7 14  1  0  0  0  0
  7 15  1  0  0  0  0
 10  4  1  0  0  0  0
 12  6  1  0  0  0  0
 13  6  1  0  0  0  0
 16  8  1  0  0  0  0
M  END
