title
 OpenBabel02282109593D

 16 17  0  0  1  0  0  0  0  0999 V2000
   -0.2080   -2.6694    0.1021 O   0  0  0  0  0  0  0  0  0  0  0  0
   -0.2792   -1.4716    0.0308 C   0  0  0  0  0  0  0  0  0  0  0  0
   -1.4601   -0.6096    0.5012 C   0  0  0  0  0  0  0  0  0  0  0  0
   -1.2262    0.7724   -0.1326 C   0  0  0  0  0  0  0  0  0  0  0  0
    0.2921    0.8569   -0.2602 C   0  0  1  0  0  0  0  0  0  0  0  0
    1.0223    2.0884   -0.5573 C   0  0  0  0  0  0  0  0  0  0  0  0
    0.9764    1.5738    0.7783 O   0  0  0  0  0  0  0  0  0  0  0  0
    0.7960   -0.5431   -0.5573 C   0  0  0  0  0  0  0  0  0  0  0  0
   -2.4121   -1.0835    0.2538 H   0  0  0  0  0  0  0  0  0  0  0  0
   -1.3995   -0.5524    1.5956 H   0  0  0  0  0  0  0  0  0  0  0  0
   -1.6838    0.8179   -1.1280 H   0  0  0  0  0  0  0  0  0  0  0  0
   -1.6164    1.6031    0.4585 H   0  0  0  0  0  0  0  0  0  0  0  0
    1.9954    2.0382   -1.0450 H   0  0  0  0  0  0  0  0  0  0  0  0
    0.4737    3.0160   -0.7199 H   0  0  0  0  0  0  0  0  0  0  0  0
    1.7804   -0.7439   -0.1290 H   0  0  0  0  0  0  0  0  0  0  0  0
    0.8544   -0.7335   -1.6365 H   0  0  0  0  0  0  0  0  0  0  0  0
  2  1  2  0  0  0  0
  2  3  1  0  0  0  0
  3 10  1  0  0  0  0
  4 12  1  0  0  0  0
  4  3  1  0  0  0  0
  5  4  1  0  0  0  0
  5  7  1  1  0  0  0
  6  5  1  0  0  0  0
  6  7  1  0  0  0  0
  8  5  1  0  0  0  0
  8 15  1  0  0  0  0
  8  2  1  0  0  0  0
  9  3  1  0  0  0  0
 11  4  1  0  0  0  0
 13  6  1  0  0  0  0
 14  6  1  0  0  0  0
 16  8  1  0  0  0  0
M  END
