title
 OpenBabel02282109593D

 17 18  0  0  1  0  0  0  0  0999 V2000
   -0.2038   -2.6627    0.1701 O   0  0  0  0  0  0  0  0  0  0  0  0
   -0.2748   -1.4666    0.0692 C   0  0  0  0  0  0  0  0  0  0  0  0
   -1.4568   -0.5973    0.5273 C   0  0  0  0  0  0  0  0  0  0  0  0
   -1.2183    0.7717   -0.1318 C   0  0  0  0  0  0  0  0  0  0  0  0
    0.3037    0.8585   -0.2480 C   0  0  1  0  0  0  0  0  0  0  0  0
    1.0027    2.0939   -0.6555 C   0  0  0  0  0  0  0  0  0  0  0  0
    1.0856    1.6215    0.7431 N   0  0  0  0  0  0  0  0  0  0  0  0
    0.7925   -0.5489   -0.5442 C   0  0  0  0  0  0  0  0  0  0  0  0
   -2.4094   -1.0732    0.2853 H   0  0  0  0  0  0  0  0  0  0  0  0
   -1.3983   -0.5260    1.6210 H   0  0  0  0  0  0  0  0  0  0  0  0
   -1.6695    0.7913   -1.1314 H   0  0  0  0  0  0  0  0  0  0  0  0
   -1.6395    1.6106    0.4303 H   0  0  0  0  0  0  0  0  0  0  0  0
    1.9345    2.0395   -1.2121 H   0  0  0  0  0  0  0  0  0  0  0  0
    0.4001    2.9732   -0.8730 H   0  0  0  0  0  0  0  0  0  0  0  0
    0.4647    2.1794    1.3256 H   0  0  0  0  0  0  0  0  0  0  0  0
    1.7827   -0.7572   -0.1344 H   0  0  0  0  0  0  0  0  0  0  0  0
    0.8265   -0.7489   -1.6235 H   0  0  0  0  0  0  0  0  0  0  0  0
  2  1  2  0  0  0  0
  2  3  1  0  0  0  0
  3 10  1  0  0  0  0
  4 12  1  0  0  0  0
  4  3  1  0  0  0  0
  5  6  1  6  0  0  0
  5  4  1  0  0  0  0
  5  7  1  0  0  0  0
  6  7  1  0  0  0  0
  7 15  1  0  0  0  0
  8  5  1  0  0  0  0
  8 16  1  0  0  0  0
  8  2  1  0  0  0  0
  9  3  1  0  0  0  0
 11  4  1  0  0  0  0
 13  6  1  0  0  0  0
 14  6  1  0  0  0  0
 17  8  1  0  0  0  0
M  END
