20
title
C 0.32732233 2.8787851 0.015355951
C 0.31037325 1.3845066 -0.0404746
C -0.7471037 0.5772997 0.08085906
C -0.38160685 -0.86089635 0.008369303
C -0.9426687 -1.8581808 1.0052283
C -1.353825 -1.9239357 -0.44331175
C 1.0943253 -0.8737755 -0.42149794
C 1.5871477 0.5810884 -0.20412728
H 0.9646475 3.2386007 0.8341152
H 0.74008465 3.3077822 -0.90716964
H -0.67519504 3.290512 0.16153595
H -1.7685521 0.9086343 0.24206185
H -0.2726858 -2.6245239 1.3823596
H -1.668582 -1.5050035 1.7305659
H -2.362128 -1.6199574 -0.70635134
H -0.9642296 -2.7371523 -1.0482107
H 1.687501 -1.6071491 0.13197301
H 1.1668601 -1.1353517 -1.4828306
H 2.2025392 0.941286 -1.0377729
H 2.2132263 0.6756038 0.6949461
