title
 OpenBabel02282109593D

 17 18  0  0  0  0  0  0  0  0999 V2000
    0.2987    2.7468    0.0372 C   0  0  0  0  0  0  0  0  0  0  0  0
    0.2370    1.2595   -0.0111 C   0  0  0  0  0  0  0  0  0  0  0  0
   -0.7733    0.5293    0.2422 N   0  0  0  0  0  0  0  0  0  0  0  0
   -0.3428   -0.8384    0.0598 C   0  0  0  0  0  0  0  0  0  0  0  0
   -0.9014   -1.9095    0.9565 C   0  0  0  0  0  0  0  0  0  0  0  0
   -1.3125   -1.8450   -0.4967 C   0  0  0  0  0  0  0  0  0  0  0  0
    1.1332   -0.7699   -0.3548 C   0  0  0  0  0  0  0  0  0  0  0  0
    1.4053    0.6462   -0.3687 O   0  0  0  0  0  0  0  0  0  0  0  0
    1.0628    3.0715    0.7506 H   0  0  0  0  0  0  0  0  0  0  0  0
    0.5789    3.1465   -0.9426 H   0  0  0  0  0  0  0  0  0  0  0  0
   -0.6716    3.1447    0.3320 H   0  0  0  0  0  0  0  0  0  0  0  0
   -0.2341   -2.7071    1.2686 H   0  0  0  0  0  0  0  0  0  0  0  0
   -1.6227   -1.5971    1.7027 H   0  0  0  0  0  0  0  0  0  0  0  0
   -2.3101   -1.4894   -0.7270 H   0  0  0  0  0  0  0  0  0  0  0  0
   -0.9256   -2.5987   -1.1758 H   0  0  0  0  0  0  0  0  0  0  0  0
    1.8135   -1.2478    0.3585 H   0  0  0  0  0  0  0  0  0  0  0  0
    1.3286   -1.1714   -1.3551 H   0  0  0  0  0  0  0  0  0  0  0  0
  1 11  1  0  0  0  0
  1  9  1  0  0  0  0
  2  1  1  0  0  0  0
  2  3  2  0  0  0  0
  4  3  1  0  0  0  0
  4  5  1  0  0  0  0
  5 12  1  0  0  0  0
  5 13  1  0  0  0  0
  6  4  1  0  0  0  0
  6  5  1  0  0  0  0
  7  4  1  0  0  0  0
  7 16  1  0  0  0  0
  8  7  1  0  0  0  0
  8  2  1  0  0  0  0
 10  1  1  0  0  0  0
 14  6  1  0  0  0  0
 15  6  1  0  0  0  0
 17  7  1  0  0  0  0
M  END
