18
title
C -0.70410806 2.5256176 0.18956493
C -0.97955626 1.0414203 0.4312051
O -0.5419529 0.2736528 -0.7014246
C 0.34731558 -0.7400384 -0.27998683
C 0.26909783 -2.0809913 -0.96730685
C 1.4407597 -1.1539739 -1.2287958
C 0.5237291 -0.5665107 1.1773094
C -0.23375235 0.44184154 1.5973891
H 0.37048736 2.7039313 0.09092528
H -1.1994187 2.8554435 -0.7280493
H -1.0857221 3.127432 1.0214162
H -2.0676296 0.9003483 0.54774916
H 0.4308187 -2.9794548 -0.38087693
H -0.4764176 -2.172455 -1.7492192
H 1.4641027 -0.6386329 -2.1825361
H 2.4141812 -1.4098743 -0.8234712
H 1.1760235 -1.1934775 1.7714351
H -0.33041385 0.8100215 2.6106308
