title
 OpenBabel02282109593D

 16 17  0  0  0  0  0  0  0  0999 V2000
    0.2792    2.6164   -0.0997 N   0  0  0  0  0  0  0  0  0  0  0  0
    0.2295    1.2503   -0.0319 C   0  0  0  0  0  0  0  0  0  0  0  0
   -0.7925    0.5304    0.2224 N   0  0  0  0  0  0  0  0  0  0  0  0
   -0.3498   -0.8368    0.0809 C   0  0  0  0  0  0  0  0  0  0  0  0
   -0.9416   -1.9074    0.9548 C   0  0  0  0  0  0  0  0  0  0  0  0
   -1.2718   -1.8613   -0.5228 C   0  0  0  0  0  0  0  0  0  0  0  0
    1.1494   -0.7722   -0.2521 C   0  0  0  0  0  0  0  0  0  0  0  0
    1.4149    0.6439   -0.3261 O   0  0  0  0  0  0  0  0  0  0  0  0
    1.1829    3.0214    0.0909 H   0  0  0  0  0  0  0  0  0  0  0  0
   -0.4938    3.0757    0.3559 H   0  0  0  0  0  0  0  0  0  0  0  0
   -0.2884   -2.6985    1.3111 H   0  0  0  0  0  0  0  0  0  0  0  0
   -1.7088   -1.5990    1.6557 H   0  0  0  0  0  0  0  0  0  0  0  0
   -2.2598   -1.5216   -0.8113 H   0  0  0  0  0  0  0  0  0  0  0  0
   -0.8418   -2.6205   -1.1694 H   0  0  0  0  0  0  0  0  0  0  0  0
    1.7896   -1.2033    0.5255 H   0  0  0  0  0  0  0  0  0  0  0  0
    1.4069   -1.2219   -1.2164 H   0  0  0  0  0  0  0  0  0  0  0  0
  1  2  1  0  0  0  0
  1  9  1  0  0  0  0
  1 10  1  0  0  0  0
  2  3  2  0  0  0  0
  4  3  1  0  0  0  0
  4  5  1  0  0  0  0
  5 11  1  0  0  0  0
  5 12  1  0  0  0  0
  6  4  1  0  0  0  0
  6  5  1  0  0  0  0
  7  4  1  0  0  0  0
  7 15  1  0  0  0  0
  8  7  1  0  0  0  0
  8  2  1  0  0  0  0
 13  6  1  0  0  0  0
 14  6  1  0  0  0  0
 16  7  1  0  0  0  0
M  END
