title
 OpenBabel02282109593D

 19 20  0  0  1  0  0  0  0  0999 V2000
   -1.0205    2.6350    0.3044 C   0  0  0  0  0  0  0  0  0  0  0  0
   -1.0358    1.1031    0.3511 C   0  0  1  0  0  0  0  0  0  0  0  0
   -0.3583    0.4272   -0.8742 C   0  0  0  0  0  0  0  0  0  0  0  0
    0.4014   -0.7758   -0.3040 C   0  0  1  0  0  0  0  0  0  0  0  0
    0.2776   -2.1494   -0.8707 C   0  0  0  0  0  0  0  0  0  0  0  0
    1.5372   -1.3963   -1.0082 N   0  0  0  0  0  0  0  0  0  0  0  0
    0.5094   -0.5074    1.1557 C   0  0  0  0  0  0  0  0  0  0  0  0
   -0.2717    0.5088    1.5188 C   0  0  0  0  0  0  0  0  0  0  0  0
    0.0067    3.0128    0.2550 H   0  0  0  0  0  0  0  0  0  0  0  0
   -1.5612    3.0088   -0.5717 H   0  0  0  0  0  0  0  0  0  0  0  0
   -1.4932    3.0633    1.1948 H   0  0  0  0  0  0  0  0  0  0  0  0
   -2.0858    0.7798    0.4147 H   0  0  0  0  0  0  0  0  0  0  0  0
   -1.0690    0.1554   -1.6597 H   0  0  0  0  0  0  0  0  0  0  0  0
    0.3644    1.1281   -1.3123 H   0  0  0  0  0  0  0  0  0  0  0  0
    0.3345   -3.0193   -0.2211 H   0  0  0  0  0  0  0  0  0  0  0  0
   -0.3568   -2.2796   -1.7445 H   0  0  0  0  0  0  0  0  0  0  0  0
    1.6062   -1.0098   -1.9474 H   0  0  0  0  0  0  0  0  0  0  0  0
    1.1363   -1.1080    1.8042 H   0  0  0  0  0  0  0  0  0  0  0  0
   -0.3934    0.8783    2.5318 H   0  0  0  0  0  0  0  0  0  0  0  0
  1  2  1  0  0  0  0
  1 11  1  0  0  0  0
  2 12  1  1  0  0  0
  2  8  1  0  0  0  0
  3  4  1  0  0  0  0
  3  2  1  0  0  0  0
  4  7  1  1  0  0  0
  5  4  1  0  0  0  0
  5 15  1  0  0  0  0
  6  5  1  0  0  0  0
  6  4  1  0  0  0  0
  7  8  2  0  0  0  0
  7 18  1  0  0  0  0
  8 19  1  0  0  0  0
  9  1  1  0  0  0  0
 10  1  1  0  0  0  0
 13  3  1  0  0  0  0
 14  3  1  0  0  0  0
 16  5  1  0  0  0  0
 17  6  1  0  0  0  0
M  END
