title
 OpenBabel02282109593D

 20 21  0  0  0  0  0  0  0  0999 V2000
   -0.6594    2.8249   -0.2939 C   0  0  0  0  0  0  0  0  0  0  0  0
   -0.3243    1.3698   -0.3861 C   0  0  0  0  0  0  0  0  0  0  0  0
   -0.4334    0.5803   -1.4569 C   0  0  0  0  0  0  0  0  0  0  0  0
    0.0265   -0.8321   -1.2019 C   0  0  0  0  0  0  0  0  0  0  0  0
    0.2783   -0.8443    0.3156 C   0  0  0  0  0  0  0  0  0  0  0  0
   -0.3076   -1.9408    1.1699 C   0  0  0  0  0  0  0  0  0  0  0  0
    1.1849   -1.8610    0.9538 C   0  0  0  0  0  0  0  0  0  0  0  0
    0.2383    0.6128    0.7987 C   0  0  0  0  0  0  0  0  0  0  0  0
    0.2195    3.4175   -0.0082 H   0  0  0  0  0  0  0  0  0  0  0  0
   -1.0361    3.2141   -1.2439 H   0  0  0  0  0  0  0  0  0  0  0  0
   -1.4199    3.0101    0.4758 H   0  0  0  0  0  0  0  0  0  0  0  0
   -0.7900    0.9090   -2.4280 H   0  0  0  0  0  0  0  0  0  0  0  0
   -0.7181   -1.5801   -1.5046 H   0  0  0  0  0  0  0  0  0  0  0  0
    0.9388   -1.0614   -1.7728 H   0  0  0  0  0  0  0  0  0  0  0  0
   -0.6968   -1.6750    2.1480 H   0  0  0  0  0  0  0  0  0  0  0  0
   -0.8534   -2.7385    0.6753 H   0  0  0  0  0  0  0  0  0  0  0  0
    1.6493   -2.6055    0.3144 H   0  0  0  0  0  0  0  0  0  0  0  0
    1.8057   -1.5434    1.7861 H   0  0  0  0  0  0  0  0  0  0  0  0
    1.2383    0.9924    1.0592 H   0  0  0  0  0  0  0  0  0  0  0  0
   -0.3771    0.7380    1.7000 H   0  0  0  0  0  0  0  0  0  0  0  0
  1  9  1  0  0  0  0
  1 11  1  0  0  0  0
  2  1  1  0  0  0  0
  2  8  1  0  0  0  0
  3  4  1  0  0  0  0
  3  2  2  0  0  0  0
  4  5  1  0  0  0  0
  5  8  1  0  0  0  0
  5  7  1  0  0  0  0
  5  6  1  0  0  0  0
  6 15  1  0  0  0  0
  7  6  1  0  0  0  0
  7 18  1  0  0  0  0
  8 19  1  0  0  0  0
  8 20  1  0  0  0  0
 10  1  1  0  0  0  0
 12  3  1  0  0  0  0
 13  4  1  0  0  0  0
 14  4  1  0  0  0  0
 16  6  1  0  0  0  0
 17  7  1  0  0  0  0
M  END
