17
title
C -0.4627729 2.6818364 -0.28684473
C -0.29713362 1.2095894 -0.44354945
N -0.49766967 0.5332891 -1.5012274
C -0.20357114 -0.86541057 -1.1642354
C 0.20521355 -0.8237579 0.3126085
C -0.15680744 -1.832201 1.3531847
C 1.2954073 -1.6249716 0.9453519
O 0.11225378 0.55586046 0.6826473
H 0.48344386 3.1400652 0.017798893
H -0.7924294 3.1148736 -1.2305722
H -1.1969031 2.900276 0.4950622
H -1.0890889 -1.4889035 -1.3371898
H 0.5955454 -1.2486622 -1.810245
H -0.4575412 -1.4597049 2.3260598
H -0.66635484 -2.7350829 1.0314368
H 1.7829727 -2.3855655 0.3435764
H 1.9422382 -1.1172593 1.6521181
