title
 OpenBabel02282109593D

 17 18  0  0  0  0  0  0  0  0999 V2000
   -0.4628    2.6818   -0.2868 C   0  0  0  0  0  0  0  0  0  0  0  0
   -0.2971    1.2096   -0.4435 C   0  0  0  0  0  0  0  0  0  0  0  0
   -0.4977    0.5333   -1.5012 N   0  0  0  0  0  0  0  0  0  0  0  0
   -0.2036   -0.8654   -1.1642 C   0  0  0  0  0  0  0  0  0  0  0  0
    0.2052   -0.8238    0.3126 C   0  0  0  0  0  0  0  0  0  0  0  0
   -0.1568   -1.8322    1.3532 C   0  0  0  0  0  0  0  0  0  0  0  0
    1.2954   -1.6250    0.9454 C   0  0  0  0  0  0  0  0  0  0  0  0
    0.1123    0.5559    0.6826 O   0  0  0  0  0  0  0  0  0  0  0  0
    0.4834    3.1401    0.0178 H   0  0  0  0  0  0  0  0  0  0  0  0
   -0.7924    3.1149   -1.2306 H   0  0  0  0  0  0  0  0  0  0  0  0
   -1.1969    2.9003    0.4951 H   0  0  0  0  0  0  0  0  0  0  0  0
   -1.0891   -1.4889   -1.3372 H   0  0  0  0  0  0  0  0  0  0  0  0
    0.5955   -1.2487   -1.8102 H   0  0  0  0  0  0  0  0  0  0  0  0
   -0.4575   -1.4597    2.3261 H   0  0  0  0  0  0  0  0  0  0  0  0
   -0.6664   -2.7351    1.0314 H   0  0  0  0  0  0  0  0  0  0  0  0
    1.7830   -2.3856    0.3436 H   0  0  0  0  0  0  0  0  0  0  0  0
    1.9422   -1.1173    1.6521 H   0  0  0  0  0  0  0  0  0  0  0  0
  1  9  1  0  0  0  0
  1 11  1  0  0  0  0
  2  1  1  0  0  0  0
  2  8  1  0  0  0  0
  3  4  1  0  0  0  0
  3  2  2  0  0  0  0
  4  5  1  0  0  0  0
  5  8  1  0  0  0  0
  5  7  1  0  0  0  0
  5  6  1  0  0  0  0
  6 14  1  0  0  0  0
  7  6  1  0  0  0  0
  7 17  1  0  0  0  0
 10  1  1  0  0  0  0
 12  4  1  0  0  0  0
 13  4  1  0  0  0  0
 15  6  1  0  0  0  0
 16  7  1  0  0  0  0
M  END
