title
 OpenBabel02282109593D

 18 19  0  0  1  0  0  0  0  0999 V2000
   -0.3754    2.8804   -0.3430 C   0  0  0  0  0  0  0  0  0  0  0  0
   -0.2949    1.3878   -0.3920 C   0  0  0  0  0  0  0  0  0  0  0  0
   -0.3506    0.6094   -1.4762 C   0  0  0  0  0  0  0  0  0  0  0  0
   -0.2550   -0.8606   -1.1576 C   0  0  0  0  0  0  0  0  0  0  0  0
    0.0493   -0.8618    0.3452 C   0  0  1  0  0  0  0  0  0  0  0  0
   -0.0148   -2.0572    1.1893 C   0  0  0  0  0  0  0  0  0  0  0  0
    1.2452   -1.5354    0.7585 O   0  0  0  0  0  0  0  0  0  0  0  0
   -0.1517    0.5627    0.8692 C   0  0  0  0  0  0  0  0  0  0  0  0
    0.5254    3.3112    0.1125 H   0  0  0  0  0  0  0  0  0  0  0  0
   -0.4909    3.3109   -1.3415 H   0  0  0  0  0  0  0  0  0  0  0  0
   -1.2223    3.2127    0.2714 H   0  0  0  0  0  0  0  0  0  0  0  0
   -0.4664    0.9779   -2.4902 H   0  0  0  0  0  0  0  0  0  0  0  0
   -1.1897   -1.3910   -1.3872 H   0  0  0  0  0  0  0  0  0  0  0  0
    0.5440   -1.3772   -1.7023 H   0  0  0  0  0  0  0  0  0  0  0  0
   -0.2235   -1.9588    2.2548 H   0  0  0  0  0  0  0  0  0  0  0  0
   -0.2997   -3.0149    0.7531 H   0  0  0  0  0  0  0  0  0  0  0  0
    0.7035    0.8632    1.4868 H   0  0  0  0  0  0  0  0  0  0  0  0
   -1.0451    0.6480    1.5042 H   0  0  0  0  0  0  0  0  0  0  0  0
  1  9  1  0  0  0  0
  1 11  1  0  0  0  0
  2  1  1  0  0  0  0
  2  8  1  0  0  0  0
  3  4  1  0  0  0  0
  3  2  2  0  0  0  0
  4  5  1  0  0  0  0
  5  7  1  6  0  0  0
  5  8  1  0  0  0  0
  5  6  1  0  0  0  0
  6 15  1  0  0  0  0
  7  6  1  0  0  0  0
  8 17  1  0  0  0  0
  8 18  1  0  0  0  0
 10  1  1  0  0  0  0
 12  3  1  0  0  0  0
 13  4  1  0  0  0  0
 14  4  1  0  0  0  0
 16  6  1  0  0  0  0
M  END
