20
title
C -1.0312227 2.6232657 0.30111954
C -1.0427085 1.0906419 0.33931175
C -0.34674236 0.42780262 -0.88552034
C 0.44160262 -0.7618977 -0.31901658
C 0.28620747 -2.1721647 -0.85821295
C 1.5701191 -1.4156823 -1.0791901
C 0.5040335 -0.5129473 1.1455588
C -0.2922254 0.49083138 1.5117869
H -0.004628024 3.0040448 0.26261404
H -1.5645316 2.999956 -0.5784248
H -1.5131785 3.0468297 1.1889833
H -2.09367 0.76679355 0.3905604
H -1.0566128 0.13456291 -1.6643095
H 0.3480052 1.1478183 -1.3354979
H 0.28876033 -2.9948673 -0.15052152
H -0.37665358 -2.3155303 -1.7056525
H 1.7806392 -1.0475676 -2.0786345
H 2.4514043 -1.7245338 -0.5258434
H 1.1141541 -1.1154366 1.8108281
H -0.43494543 0.8403294 2.5289938
