title
 OpenBabel02282109593D

 18 19  0  0  1  0  0  0  0  0999 V2000
   -0.7041    2.5256    0.1896 C   0  0  0  0  0  0  0  0  0  0  0  0
   -0.9796    1.0414    0.4312 C   0  0  1  0  0  0  0  0  0  0  0  0
   -0.5420    0.2737   -0.7014 O   0  0  0  0  0  0  0  0  0  0  0  0
    0.3473   -0.7400   -0.2800 C   0  0  0  0  0  0  0  0  0  0  0  0
    0.2691   -2.0810   -0.9673 C   0  0  0  0  0  0  0  0  0  0  0  0
    1.4408   -1.1540   -1.2288 C   0  0  0  0  0  0  0  0  0  0  0  0
    0.5237   -0.5665    1.1773 C   0  0  0  0  0  0  0  0  0  0  0  0
   -0.2338    0.4418    1.5974 C   0  0  0  0  0  0  0  0  0  0  0  0
    0.3705    2.7039    0.0909 H   0  0  0  0  0  0  0  0  0  0  0  0
   -1.1994    2.8554   -0.7280 H   0  0  0  0  0  0  0  0  0  0  0  0
   -1.0857    3.1274    1.0214 H   0  0  0  0  0  0  0  0  0  0  0  0
   -2.0676    0.9003    0.5477 H   0  0  0  0  0  0  0  0  0  0  0  0
    0.4308   -2.9795   -0.3809 H   0  0  0  0  0  0  0  0  0  0  0  0
   -0.4764   -2.1725   -1.7492 H   0  0  0  0  0  0  0  0  0  0  0  0
    1.4641   -0.6386   -2.1825 H   0  0  0  0  0  0  0  0  0  0  0  0
    2.4142   -1.4099   -0.8235 H   0  0  0  0  0  0  0  0  0  0  0  0
    1.1760   -1.1935    1.7714 H   0  0  0  0  0  0  0  0  0  0  0  0
   -0.3304    0.8100    2.6106 H   0  0  0  0  0  0  0  0  0  0  0  0
  1  2  1  0  0  0  0
  1 11  1  0  0  0  0
  2 12  1  1  0  0  0
  2  8  1  0  0  0  0
  3  4  1  0  0  0  0
  3  2  1  0  0  0  0
  4  7  1  0  0  0  0
  5 13  1  0  0  0  0
  5  4  1  0  0  0  0
  6  5  1  0  0  0  0
  6 16  1  0  0  0  0
  6  4  1  0  0  0  0
  7  8  2  0  0  0  0
  7 17  1  0  0  0  0
  8 18  1  0  0  0  0
  9  1  1  0  0  0  0
 10  1  1  0  0  0  0
 14  5  1  0  0  0  0
 15  6  1  0  0  0  0
M  END
