20
title
C -1.2461202 2.575283 -0.39224562
C -1.0540533 1.0607852 -0.3859679
C -0.22685434 0.5089806 -1.5660739
C 0.13058226 -0.91858524 -1.1212023
C 0.3456834 -0.7904635 0.38834524
C 0.5854612 -1.9442242 1.2609092
O 1.6575176 -1.0706104 0.89687127
C -0.30318385 0.5182371 0.85050887
H -0.2790562 3.0909376 -0.36481163
H -1.7754235 2.905523 -1.2924619
H -1.8256739 2.9090974 0.47509193
H -2.043498 0.5826989 -0.42242637
H -0.7655983 0.54551727 -2.517359
H 0.6864502 1.1071349 -1.6824936
H -0.71076435 -1.5940434 -1.3201565
H 1.0153605 -1.3353909 -1.6082567
H 0.28372842 -1.9054083 2.3077662
H 0.63339645 -2.9469728 0.83465225
H 0.49780136 1.2088579 1.1409719
H -0.95219415 0.38981903 1.7216027
