title
 OpenBabel02282109593D

 20 21  0  0  1  0  0  0  0  0999 V2000
   -1.4050    2.4866   -0.3762 C   0  0  0  0  0  0  0  0  0  0  0  0
   -1.0918    0.9950   -0.3060 C   0  0  1  0  0  0  0  0  0  0  0  0
   -0.2450    0.4599   -1.4687 C   0  0  0  0  0  0  0  0  0  0  0  0
    0.2801   -0.7789   -1.0167 O   0  0  0  0  0  0  0  0  0  0  0  0
    0.4720   -0.6957    0.3863 C   0  0  0  0  0  0  0  0  0  0  0  0
    0.5034   -2.0011    1.1182 C   0  0  0  0  0  0  0  0  0  0  0  0
    1.7786   -1.1900    0.9359 C   0  0  0  0  0  0  0  0  0  0  0  0
   -0.2274    0.5625    0.8957 C   0  0  0  0  0  0  0  0  0  0  0  0
   -0.4837    3.0799   -0.4050 H   0  0  0  0  0  0  0  0  0  0  0  0
   -1.9883    2.7304   -1.2706 H   0  0  0  0  0  0  0  0  0  0  0  0
   -1.9837    2.8124    0.4940 H   0  0  0  0  0  0  0  0  0  0  0  0
   -2.0289    0.4250   -0.2864 H   0  0  0  0  0  0  0  0  0  0  0  0
   -0.8166    0.2711   -2.3823 H   0  0  0  0  0  0  0  0  0  0  0  0
    0.5658    1.1693   -1.7099 H   0  0  0  0  0  0  0  0  0  0  0  0
    0.0574   -2.0554    2.1062 H   0  0  0  0  0  0  0  0  0  0  0  0
    0.3982   -2.8990    0.5194 H   0  0  0  0  0  0  0  0  0  0  0  0
    2.5027   -1.5622    0.2198 H   0  0  0  0  0  0  0  0  0  0  0  0
    2.2040   -0.6887    1.8000 H   0  0  0  0  0  0  0  0  0  0  0  0
    0.5053    1.3450    1.1291 H   0  0  0  0  0  0  0  0  0  0  0  0
   -0.8155    0.3801    1.7989 H   0  0  0  0  0  0  0  0  0  0  0  0
  1  2  1  0  0  0  0
  1 11  1  0  0  0  0
  2 12  1  1  0  0  0
  2  8  1  0  0  0  0
  3  4  1  0  0  0  0
  3  2  1  0  0  0  0
  4  5  1  0  0  0  0
  5  8  1  0  0  0  0
  5  7  1  0  0  0  0
  5  6  1  0  0  0  0
  6 15  1  0  0  0  0
  7  6  1  0  0  0  0
  7 18  1  0  0  0  0
  8 19  1  0  0  0  0
  8 20  1  0  0  0  0
  9  1  1  0  0  0  0
 10  1  1  0  0  0  0
 13  3  1  0  0  0  0
 14  3  1  0  0  0  0
 16  6  1  0  0  0  0
 17  7  1  0  0  0  0
M  END
