20
title
C -1.4049588 2.486604 -0.37617227
C -1.0918092 0.9950298 -0.305961
C -0.24497126 0.45987037 -1.4687241
O 0.28014168 -0.77889645 -1.0167023
C 0.47197124 -0.6956887 0.38628873
C 0.5034185 -2.0010645 1.1182351
C 1.7786078 -1.1899844 0.9359208
C -0.22735994 0.56246144 0.89574414
H -0.48371348 3.0798612 -0.4049927
H -1.9883173 2.7303693 -1.2706405
H -1.9837457 2.8123672 0.4939694
H -2.0289068 0.425033 -0.28635114
H -0.81663185 0.27112505 -2.3822567
H 0.5657734 1.1693047 -1.709939
H 0.057440836 -2.0553746 2.106181
H 0.39820835 -2.8990352 0.5193558
H 2.5027494 -1.562167 0.21983305
H 2.204004 -0.6886687 1.7999538
H 0.50530595 1.3450117 1.1290642
H -0.8155031 0.38014725 1.798922
