19
title
C 0.06475618 2.3257842 0.08180493
C -0.929269 1.1926545 0.34057727
C -0.9613404 0.12899218 -0.77178
C 0.15877827 -0.80122614 -0.33517537
C 0.59968394 -1.988855 -1.0940396
N 1.4737045 -0.79957926 -1.0019724
C 0.15412284 -0.7126187 1.1864911
O -0.5803725 0.4643709 1.5242633
H 1.0623518 1.931618 -0.13751511
H -0.25883034 2.9425478 -0.763991
H 0.13852443 2.9652178 0.9656577
H -1.923549 1.6167428 0.52019244
H -1.921973 -0.39791656 -0.7585478
H -0.8122188 0.54032916 -1.7743798
H 0.9690549 -2.8666995 -0.5694763
H 0.10836782 -2.206256 -2.039642
H 1.4220883 -0.2741189 -1.872075
H -0.34804663 -1.5751332 1.6449538
H 1.1797739 -0.66058517 1.5704522
