title
 OpenBabel02282109593D

 19 20  0  0  1  0  0  0  0  0999 V2000
    0.0648    2.3258    0.0818 C   0  0  0  0  0  0  0  0  0  0  0  0
   -0.9293    1.1927    0.3406 C   0  0  1  0  0  0  0  0  0  0  0  0
   -0.9613    0.1290   -0.7718 C   0  0  0  0  0  0  0  0  0  0  0  0
    0.1588   -0.8012   -0.3352 C   0  0  1  0  0  0  0  0  0  0  0  0
    0.5997   -1.9889   -1.0940 C   0  0  0  0  0  0  0  0  0  0  0  0
    1.4737   -0.7996   -1.0020 N   0  0  0  0  0  0  0  0  0  0  0  0
    0.1541   -0.7126    1.1865 C   0  0  0  0  0  0  0  0  0  0  0  0
   -0.5804    0.4644    1.5243 O   0  0  0  0  0  0  0  0  0  0  0  0
    1.0624    1.9316   -0.1375 H   0  0  0  0  0  0  0  0  0  0  0  0
   -0.2588    2.9425   -0.7640 H   0  0  0  0  0  0  0  0  0  0  0  0
    0.1385    2.9652    0.9657 H   0  0  0  0  0  0  0  0  0  0  0  0
   -1.9235    1.6167    0.5202 H   0  0  0  0  0  0  0  0  0  0  0  0
   -1.9220   -0.3979   -0.7585 H   0  0  0  0  0  0  0  0  0  0  0  0
   -0.8122    0.5403   -1.7744 H   0  0  0  0  0  0  0  0  0  0  0  0
    0.9691   -2.8667   -0.5695 H   0  0  0  0  0  0  0  0  0  0  0  0
    0.1084   -2.2063   -2.0396 H   0  0  0  0  0  0  0  0  0  0  0  0
    1.4221   -0.2741   -1.8721 H   0  0  0  0  0  0  0  0  0  0  0  0
   -0.3480   -1.5751    1.6450 H   0  0  0  0  0  0  0  0  0  0  0  0
    1.1798   -0.6606    1.5705 H   0  0  0  0  0  0  0  0  0  0  0  0
  1  2  1  0  0  0  0
  1 11  1  0  0  0  0
  2 12  1  1  0  0  0
  2  8  1  0  0  0  0
  3 13  1  0  0  0  0
  3  4  1  0  0  0  0
  3  2  1  0  0  0  0
  4  5  1  6  0  0  0
  4  7  1  0  0  0  0
  5  6  1  0  0  0  0
  5 15  1  0  0  0  0
  6  4  1  0  0  0  0
  7  8  1  0  0  0  0
  7 19  1  0  0  0  0
  7 18  1  0  0  0  0
  9  1  1  0  0  0  0
 10  1  1  0  0  0  0
 14  3  1  0  0  0  0
 16  5  1  0  0  0  0
 17  6  1  0  0  0  0
M  END
