18
title
O 0.3871513 2.4555027 0.29819602
C 0.7793574 1.157986 0.7509421
C -0.41214508 0.19816853 1.03393
C -0.41344208 -0.8074783 -0.124832995
C -1.0611902 -2.168464 -0.00948579
C -1.6565694 -1.1392535 -0.9311056
C 0.89755803 -0.6181114 -0.7971406
C 1.57718 0.41744757 -0.29950595
H 0.035763334 2.3479986 -0.5929254
H 1.3521334 1.3589725 1.6617059
H -0.2485982 -0.32464802 1.9823236
H -1.3416237 0.7664043 1.1249942
H -0.54951113 -3.0181937 -0.44986844
H -1.5855547 -2.3948169 0.91345316
H -2.5843341 -0.66092587 -0.63429415
H -1.5512956 -1.283749 -2.0014544
H 1.2293571 -1.2647454 -1.6036999
H 2.5454156 0.7667872 -0.6386275
