title
 OpenBabel02282109593D

 18 19  0  0  1  0  0  0  0  0999 V2000
    0.8437    2.4356   -0.8319 O   0  0  0  0  0  0  0  0  0  0  0  0
    0.8574    1.0255   -0.7066 C   0  0  1  0  0  0  0  0  0  0  0  0
    1.4600    0.4931    0.6083 C   0  0  0  0  0  0  0  0  0  0  0  0
    0.8921   -0.9321    0.7005 C   0  0  0  0  0  0  0  0  0  0  0  0
   -0.5176   -0.8053    0.1124 C   0  0  1  0  0  0  0  0  0  0  0  0
   -1.3831   -1.9636   -0.1302 C   0  0  0  0  0  0  0  0  0  0  0  0
   -1.6230   -1.0920    0.9780 O   0  0  0  0  0  0  0  0  0  0  0  0
   -0.5859    0.5007   -0.6810 C   0  0  0  0  0  0  0  0  0  0  0  0
    1.7553    2.7413   -0.8708 H   0  0  0  0  0  0  0  0  0  0  0  0
    1.3975    0.5717   -1.5546 H   0  0  0  0  0  0  0  0  0  0  0  0
    2.5536    0.5302    0.6272 H   0  0  0  0  0  0  0  0  0  0  0  0
    1.0853    1.1141    1.4304 H   0  0  0  0  0  0  0  0  0  0  0  0
    1.4900   -1.6196    0.0895 H   0  0  0  0  0  0  0  0  0  0  0  0
    0.8575   -1.3345    1.7154 H   0  0  0  0  0  0  0  0  0  0  0  0
   -2.1281   -1.9274   -0.9251 H   0  0  0  0  0  0  0  0  0  0  0  0
   -1.0351   -2.9644    0.1280 H   0  0  0  0  0  0  0  0  0  0  0  0
   -1.2031    1.2198   -0.1316 H   0  0  0  0  0  0  0  0  0  0  0  0
   -1.0169    0.3838   -1.6780 H   0  0  0  0  0  0  0  0  0  0  0  0
  1  2  1  0  0  0  0
  2 10  1  6  0  0  0
  2  8  1  0  0  0  0
  2  3  1  0  0  0  0
  3 11  1  0  0  0  0
  3  4  1  0  0  0  0
  3 12  1  0  0  0  0
  4 14  1  0  0  0  0
  5  4  1  0  0  0  0
  5  7  1  1  0  0  0
  6  5  1  0  0  0  0
  6 16  1  0  0  0  0
  6  7  1  0  0  0  0
  8 17  1  0  0  0  0
  8  5  1  0  0  0  0
  9  1  1  0  0  0  0
 13  4  1  0  0  0  0
 15  6  1  0  0  0  0
 18  8  1  0  0  0  0
M  END
