18
title
C -1.1179794 2.417773 -0.2919187
C -0.94187856 0.9212826 -0.1871557
O -0.5770287 0.3743837 -1.4455003
C 0.26797655 -0.744684 -1.1964341
C 0.5149056 -0.6891353 0.31043506
C 0.24529734 -1.8440406 1.2376224
C 1.6573024 -1.3142624 1.0280179
O 0.118189484 0.60398585 0.6928622
H -0.18307605 2.8748744 -0.62445474
H -1.9063505 2.6475685 -1.0129116
H -1.3977995 2.8316832 0.6802229
H -1.8679621 0.43055096 0.16699106
H -0.21910217 -1.6804693 -1.4999294
H 1.1893549 -0.6220995 -1.7783866
H -0.23312613 -1.6167703 2.1836355
H -0.014387343 -2.8066516 0.8085126
H 2.3585014 -1.9133906 0.45625436
H 2.1019208 -0.7428626 1.8350974
