title
 OpenBabel02282109593D

 16 17  0  0  1  0  0  0  0  0999 V2000
   -0.5878    2.0011   -0.7140 C   0  0  0  0  0  0  0  0  0  0  0  0
   -0.5563    0.5040   -0.7051 C   0  0  2  0  0  0  0  0  0  0  0  0
   -1.4469   -0.3608    0.1347 C   0  0  0  0  0  0  0  0  0  0  0  0
    0.0589   -0.4929    0.3062 C   0  0  1  0  0  0  0  0  0  0  0  0
    0.6335   -1.2485   -0.8976 C   0  0  0  0  0  0  0  0  0  0  0  0
    0.0489   -0.2341   -1.8214 N   0  0  0  0  0  0  0  0  0  0  0  0
    0.7244   -0.2447    1.5384 C   0  0  0  0  0  0  0  0  0  0  0  0
    1.2732   -0.0438    2.5384 N   0  0  0  0  0  0  0  0  0  0  0  0
    0.3831    2.4044   -1.0133 H   0  0  0  0  0  0  0  0  0  0  0  0
   -1.3399    2.3628   -1.4251 H   0  0  0  0  0  0  0  0  0  0  0  0
   -0.8454    2.3929    0.2741 H   0  0  0  0  0  0  0  0  0  0  0  0
   -1.9514    0.1361    0.9569 H   0  0  0  0  0  0  0  0  0  0  0  0
   -1.9951   -1.1927   -0.3027 H   0  0  0  0  0  0  0  0  0  0  0  0
    1.7258   -1.2413   -0.9368 H   0  0  0  0  0  0  0  0  0  0  0  0
    0.2733   -2.2767   -1.0185 H   0  0  0  0  0  0  0  0  0  0  0  0
   -0.6323   -0.6091   -2.4771 H   0  0  0  0  0  0  0  0  0  0  0  0
  1  2  1  0  0  0  0
  1 11  1  0  0  0  0
  2  3  1  0  0  0  0
  2  4  1  1  0  0  0
  3  4  1  0  0  0  0
  3 12  1  0  0  0  0
  4  7  1  1  0  0  0
  5  4  1  0  0  0  0
  6  5  1  0  0  0  0
  6  2  1  0  0  0  0
  7  8  3  0  0  0  0
  9  1  1  0  0  0  0
 10  1  1  0  0  0  0
 13  3  1  0  0  0  0
 14  5  1  0  0  0  0
 15  5  1  0  0  0  0
 16  6  1  0  0  0  0
M  END
