title
 OpenBabel02282109593D

 18 19  0  0  1  0  0  0  0  0999 V2000
    0.8292    2.4056   -0.8362 O   0  0  0  0  0  0  0  0  0  0  0  0
    0.8293    0.9914   -0.7737 C   0  0  1  0  0  0  0  0  0  0  0  0
    1.3738    0.4074    0.5434 C   0  0  0  0  0  0  0  0  0  0  0  0
    0.7757   -0.8725    0.6381 O   0  0  0  0  0  0  0  0  0  0  0  0
   -0.5571   -0.7383    0.1709 C   0  0  0  0  0  0  0  0  0  0  0  0
   -1.3080   -2.0138   -0.0161 C   0  0  0  0  0  0  0  0  0  0  0  0
   -1.6654   -1.0789    1.1300 C   0  0  0  0  0  0  0  0  0  0  0  0
   -0.6161    0.4633   -0.7728 C   0  0  0  0  0  0  0  0  0  0  0  0
    1.7369    2.7024   -0.9533 H   0  0  0  0  0  0  0  0  0  0  0  0
    1.3875    0.5622   -1.6178 H   0  0  0  0  0  0  0  0  0  0  0  0
    2.4595    0.2755    0.5642 H   0  0  0  0  0  0  0  0  0  0  0  0
    1.0759    1.0682    1.3739 H   0  0  0  0  0  0  0  0  0  0  0  0
   -1.9904   -2.0937   -0.8559 H   0  0  0  0  0  0  0  0  0  0  0  0
   -0.7846   -2.9298    0.2353 H   0  0  0  0  0  0  0  0  0  0  0  0
   -1.3746   -1.3874    2.1279 H   0  0  0  0  0  0  0  0  0  0  0  0
   -2.5937   -0.5193    1.0728 H   0  0  0  0  0  0  0  0  0  0  0  0
   -1.2677    1.2517   -0.3845 H   0  0  0  0  0  0  0  0  0  0  0  0
   -0.9627    0.1985   -1.7745 H   0  0  0  0  0  0  0  0  0  0  0  0
  1  2  1  0  0  0  0
  2 10  1  6  0  0  0
  2  8  1  0  0  0  0
  2  3  1  0  0  0  0
  3 11  1  0  0  0  0
  3  4  1  0  0  0  0
  3 12  1  0  0  0  0
  5  4  1  0  0  0  0
  5  7  1  0  0  0  0
  6  5  1  0  0  0  0
  6 14  1  0  0  0  0
  6  7  1  0  0  0  0
  7 15  1  0  0  0  0
  8 17  1  0  0  0  0
  8  5  1  0  0  0  0
  9  1  1  0  0  0  0
 13  6  1  0  0  0  0
 16  7  1  0  0  0  0
 18  8  1  0  0  0  0
M  END
