16
title
C -0.5877688 2.0011103 -0.7139618
C -0.55628246 0.5040206 -0.7050988
C -1.4468806 -0.3607795 0.1346859
C 0.058925886 -0.49288663 0.30617288
C 0.6335004 -1.2485309 -0.8975983
N 0.048936743 -0.23413406 -1.8213755
C 0.7243933 -0.24468987 1.5383761
N 1.2732027 -0.04379104 2.538364
H 0.3831326 2.4043772 -1.013272
H -1.3399147 2.3627787 -1.4251457
H -0.8454002 2.3928897 0.2740759
H -1.9513761 0.13609533 0.9569463
H -1.9951279 -1.1926651 -0.30265054
H 1.7258478 -1.2412664 -0.93679047
H 0.27325782 -2.2766776 -1.0185435
H -0.6323081 -0.6091152 -2.4771383
