18
title
C -0.5912197 2.0176404 -0.659372
C -0.55015314 0.51950836 -0.7193052
C -1.4337236 -0.35888106 0.112077445
C 0.06714529 -0.4869141 0.29580948
C 0.64103794 -1.3162231 -0.8672615
C 0.025624694 -0.3018353 -1.88226
C 0.7138994 -0.23770308 1.5367478
C 1.2833658 -0.022552945 2.5764532
H 0.36082953 2.4547668 -0.9799642
H -1.3780096 2.417229 -1.3110511
H -0.7930099 2.364528 0.35896155
H -1.9496684 0.13518825 0.9286845
H -1.9850588 -1.1842357 -0.335283
H 1.7320051 -1.3146853 -0.8841523
H 0.28820664 -2.3509495 -0.92219067
H -0.7069763 -0.69565916 -2.594647
H 0.79453206 0.23949127 -2.4388316
H 1.7785821 0.16209322 3.4969363
