title
 OpenBabel02282109593D

 18 19  0  0  1  0  0  0  0  0999 V2000
   -1.1180    2.4178   -0.2919 C   0  0  0  0  0  0  0  0  0  0  0  0
   -0.9419    0.9213   -0.1872 C   0  0  1  0  0  0  0  0  0  0  0  0
   -0.5770    0.3744   -1.4455 O   0  0  0  0  0  0  0  0  0  0  0  0
    0.2680   -0.7447   -1.1964 C   0  0  0  0  0  0  0  0  0  0  0  0
    0.5149   -0.6891    0.3104 C   0  0  0  0  0  0  0  0  0  0  0  0
    0.2453   -1.8440    1.2376 C   0  0  0  0  0  0  0  0  0  0  0  0
    1.6573   -1.3143    1.0280 C   0  0  0  0  0  0  0  0  0  0  0  0
    0.1182    0.6040    0.6929 O   0  0  0  0  0  0  0  0  0  0  0  0
   -0.1831    2.8749   -0.6245 H   0  0  0  0  0  0  0  0  0  0  0  0
   -1.9064    2.6476   -1.0129 H   0  0  0  0  0  0  0  0  0  0  0  0
   -1.3978    2.8317    0.6802 H   0  0  0  0  0  0  0  0  0  0  0  0
   -1.8680    0.4306    0.1670 H   0  0  0  0  0  0  0  0  0  0  0  0
   -0.2191   -1.6805   -1.4999 H   0  0  0  0  0  0  0  0  0  0  0  0
    1.1894   -0.6221   -1.7784 H   0  0  0  0  0  0  0  0  0  0  0  0
   -0.2331   -1.6168    2.1836 H   0  0  0  0  0  0  0  0  0  0  0  0
   -0.0144   -2.8067    0.8085 H   0  0  0  0  0  0  0  0  0  0  0  0
    2.3585   -1.9134    0.4563 H   0  0  0  0  0  0  0  0  0  0  0  0
    2.1019   -0.7429    1.8351 H   0  0  0  0  0  0  0  0  0  0  0  0
  1  2  1  0  0  0  0
  1 11  1  0  0  0  0
  2 12  1  1  0  0  0
  2  8  1  0  0  0  0
  3  4  1  0  0  0  0
  3  2  1  0  0  0  0
  4  5  1  0  0  0  0
  5  8  1  0  0  0  0
  5  7  1  0  0  0  0
  5  6  1  0  0  0  0
  6 15  1  0  0  0  0
  7  6  1  0  0  0  0
  7 18  1  0  0  0  0
  9  1  1  0  0  0  0
 10  1  1  0  0  0  0
 13  4  1  0  0  0  0
 14  4  1  0  0  0  0
 16  6  1  0  0  0  0
 17  7  1  0  0  0  0
M  END
