15
title
C -0.31358716 2.0263462 -0.8562507
C -0.4360929 0.54488105 -0.7313479
C -1.6845795 -0.3445325 -0.8883832
C -1.0557495 -1.3605306 0.12551478
C 0.16234498 -0.42877626 0.22491828
O 0.68393135 -0.26591545 -1.1025993
C 1.0472972 -0.23041171 1.3295261
N 1.7314687 -0.0782364 2.249905
H 0.66150737 2.3606374 -0.49368584
H -0.41355968 2.3276832 -1.9048532
H -1.0981785 2.5291808 -0.28319934
H -2.594731 0.12082842 -0.5042551
H -1.8559582 -0.70590955 -1.9042144
H -1.6165981 -1.4308901 1.0588931
H -0.8259455 -2.3600142 -0.24736324
