title
 OpenBabel02282109593D

 15 16  0  0  1  0  0  0  0  0999 V2000
   -0.6272    2.0638   -0.7061 C   0  0  0  0  0  0  0  0  0  0  0  0
   -0.5801    0.5661   -0.7207 C   0  0  2  0  0  0  0  0  0  0  0  0
   -1.4771   -0.3247    0.1056 C   0  0  0  0  0  0  0  0  0  0  0  0
    0.0173   -0.4394    0.2664 C   0  0  1  0  0  0  0  0  0  0  0  0
    0.5678   -1.2516   -0.7695 O   0  0  0  0  0  0  0  0  0  0  0  0
    0.1161   -0.2980   -1.7735 C   0  0  0  0  0  0  0  0  0  0  0  0
    0.7340   -0.2666    1.4876 C   0  0  0  0  0  0  0  0  0  0  0  0
    1.3025   -0.1041    2.4826 N   0  0  0  0  0  0  0  0  0  0  0  0
    0.3395    2.4949   -0.9850 H   0  0  0  0  0  0  0  0  0  0  0  0
   -1.3802    2.4360   -1.4104 H   0  0  0  0  0  0  0  0  0  0  0  0
   -0.8898    2.4387    0.2874 H   0  0  0  0  0  0  0  0  0  0  0  0
   -1.9983    0.1796    0.9129 H   0  0  0  0  0  0  0  0  0  0  0  0
   -1.9982   -1.1707   -0.3339 H   0  0  0  0  0  0  0  0  0  0  0  0
   -0.5098   -0.7684   -2.5393 H   0  0  0  0  0  0  0  0  0  0  0  0
    0.9750    0.1967   -2.2399 H   0  0  0  0  0  0  0  0  0  0  0  0
  1 11  1  0  0  0  0
  2  1  1  0  0  0  0
  2  3  1  0  0  0  0
  2  4  1  1  0  0  0
  3  4  1  0  0  0  0
  3 12  1  0  0  0  0
  4  7  1  1  0  0  0
  5  4  1  0  0  0  0
  6  5  1  0  0  0  0
  6  2  1  0  0  0  0
  7  8  3  0  0  0  0
  9  1  1  0  0  0  0
 10  1  1  0  0  0  0
 13  3  1  0  0  0  0
 14  6  1  0  0  0  0
 15  6  1  0  0  0  0
M  END
