title
 OpenBabel02282109593D

 17 18  0  0  1  0  0  0  0  0999 V2000
   -0.3295    2.0288   -0.8504 C   0  0  0  0  0  0  0  0  0  0  0  0
   -0.3949    0.5346   -0.7834 C   0  0  2  0  0  0  0  0  0  0  0  0
   -1.6627   -0.3314   -0.8842 C   0  0  0  0  0  0  0  0  0  0  0  0
   -1.0366   -1.3398    0.1311 C   0  0  0  0  0  0  0  0  0  0  0  0
    0.2188   -0.4485    0.2078 C   0  0  1  0  0  0  0  0  0  0  0  0
    0.7841   -0.2436   -1.1339 N   0  0  0  0  0  0  0  0  0  0  0  0
    1.0303   -0.2444    1.3612 C   0  0  0  0  0  0  0  0  0  0  0  0
    1.6779   -0.0820    2.3624 C   0  0  0  0  0  0  0  0  0  0  0  0
    0.6581    2.3782   -0.5394 H   0  0  0  0  0  0  0  0  0  0  0  0
   -0.5066    2.3792   -1.8744 H   0  0  0  0  0  0  0  0  0  0  0  0
   -1.0855    2.4851   -0.2032 H   0  0  0  0  0  0  0  0  0  0  0  0
   -2.5526    0.1595   -0.4829 H   0  0  0  0  0  0  0  0  0  0  0  0
   -1.8941   -0.7064   -1.8871 H   0  0  0  0  0  0  0  0  0  0  0  0
   -1.5866   -1.3815    1.0730 H   0  0  0  0  0  0  0  0  0  0  0  0
   -0.8567   -2.3619   -0.2180 H   0  0  0  0  0  0  0  0  0  0  0  0
    0.5830   -1.0284   -1.7533 H   0  0  0  0  0  0  0  0  0  0  0  0
    2.2632    0.0630    3.2361 H   0  0  0  0  0  0  0  0  0  0  0  0
  1  2  1  0  0  0  0
  1  9  1  0  0  0  0
  1 11  1  0  0  0  0
  2  5  1  1  0  0  0
  3  2  1  0  0  0  0
  3 12  1  0  0  0  0
  3  4  1  0  0  0  0
  4  5  1  0  0  0  0
  4 14  1  0  0  0  0
  5  7  1  1  0  0  0
  6  2  1  0  0  0  0
  6  5  1  0  0  0  0
  7  8  3  0  0  0  0
  8 17  1  0  0  0  0
 10  1  1  0  0  0  0
 13  3  1  0  0  0  0
 15  4  1  0  0  0  0
 16  6  1  0  0  0  0
M  END
