15
title
O 0.9488646 1.8775008 -0.040524337
C 0.8974209 0.51079863 -0.0975834
C 0.5989937 -0.2943563 -1.3094273
C -0.3121574 -0.4983704 -0.098187074
C 0.4199466 -1.3497516 0.9486531
C 1.5901067 -0.31381285 0.9782015
C -1.7104416 -0.26278418 -0.166674
N -2.84859 -0.047741286 -0.21014124
H 0.68712604 2.2513826 -0.8882018
H 0.12664455 0.25140947 -2.1222157
H 1.244154 -1.1088582 -1.636143
H -0.11527526 -1.4094893 1.896688
H 0.67753655 -2.3606203 0.61909795
H 2.5932207 -0.67365646 0.7301949
H 1.6284254 0.22660595 1.9255786
