title
 OpenBabel02282109593D

 16 17  0  0  1  0  0  0  0  0999 V2000
   -0.6227    2.0681   -0.6914 C   0  0  0  0  0  0  0  0  0  0  0  0
   -0.5740    0.5707   -0.7092 C   0  0  2  0  0  0  0  0  0  0  0  0
   -1.4728   -0.3227    0.1137 C   0  0  0  0  0  0  0  0  0  0  0  0
    0.0224   -0.4338    0.2831 C   0  0  1  0  0  0  0  0  0  0  0  0
    0.5617   -1.2503   -0.7686 O   0  0  0  0  0  0  0  0  0  0  0  0
    0.1142   -0.2917   -1.7639 C   0  0  0  0  0  0  0  0  0  0  0  0
    0.7393   -0.2775    1.4979 C   0  0  0  0  0  0  0  0  0  0  0  0
    1.3447   -0.1373    2.5285 C   0  0  0  0  0  0  0  0  0  0  0  0
    0.3385    2.5011   -0.9880 H   0  0  0  0  0  0  0  0  0  0  0  0
   -1.3898    2.4480   -1.3768 H   0  0  0  0  0  0  0  0  0  0  0  0
   -0.8621    2.4387    0.3101 H   0  0  0  0  0  0  0  0  0  0  0  0
   -1.9962    0.1786    0.9214 H   0  0  0  0  0  0  0  0  0  0  0  0
   -1.9980   -1.1617   -0.3354 H   0  0  0  0  0  0  0  0  0  0  0  0
   -0.5141   -0.7543   -2.5343 H   0  0  0  0  0  0  0  0  0  0  0  0
    0.9734    0.2031   -2.2324 H   0  0  0  0  0  0  0  0  0  0  0  0
    1.8807   -0.0198    3.4376 H   0  0  0  0  0  0  0  0  0  0  0  0
  1 11  1  0  0  0  0
  2  1  1  0  0  0  0
  2  3  1  0  0  0  0
  2  4  1  1  0  0  0
  3  4  1  0  0  0  0
  3 12  1  0  0  0  0
  4  7  1  1  0  0  0
  5  4  1  0  0  0  0
  6  5  1  0  0  0  0
  6  2  1  0  0  0  0
  7  8  3  0  0  0  0
  8 16  1  0  0  0  0
  9  1  1  0  0  0  0
 10  1  1  0  0  0  0
 13  3  1  0  0  0  0
 14  6  1  0  0  0  0
 15  6  1  0  0  0  0
M  END
