15
title
N 0.8484351 1.9587106 -0.36094567
C 0.89297307 0.55906093 -0.19323023
C 0.55357146 -0.34367216 -1.3446783
C -0.27143466 -0.46509612 -0.0889133
N 0.4950153 -1.2999238 0.868231
C 1.5677356 -0.24775481 0.928631
C -1.6782001 -0.28561163 -0.011507759
N -2.8225107 -0.1351564 0.0896151
H 0.86996275 2.4584901 0.5205435
H 1.5987661 2.301099 -0.9514414
H 0.06490965 0.16816783 -2.166327
H 1.1861743 -1.1862693 -1.6095753
H 0.0060050017 -1.3614732 1.7560036
H 2.5765395 -0.62997866 0.73769623
H 1.5644529 0.3045362 1.8752085
