16
title
C -0.6227092 2.0681384 -0.69136786
C -0.57397264 0.57066274 -0.7092129
C -1.4727955 -0.3227329 0.11366187
C 0.02238126 -0.43379405 0.2831195
O 0.5617446 -1.2502613 -0.7686373
C 0.11418219 -0.29167327 -1.7639186
C 0.7393242 -0.27749833 1.4978625
C 1.3447315 -0.13729343 2.52851
H 0.3385294 2.5010781 -0.9880064
H -1.3897876 2.4480278 -1.3768443
H -0.8621453 2.4386694 0.31006843
H -1.996171 0.17856333 0.92142195
H -1.998046 -1.1617451 -0.3354406
H -0.51406676 -0.7542906 -2.5342612
H 0.97338057 0.20313779 -2.232412
H 1.8807324 -0.019824298 3.4375856
