16
title
C -0.29684457 2.0276327 -0.8582849
C -0.4212064 0.5462934 -0.7261079
C -1.6678559 -0.34034517 -0.9015086
C -1.0461379 -1.3573649 0.114335
C 0.16950376 -0.42055848 0.24315763
O 0.7004581 -0.26336625 -1.0909239
C 1.0358229 -0.2396901 1.3560213
C 1.7362359 -0.10593132 2.325018
H 0.6660958 2.3630745 -0.46501604
H -0.36226848 2.3264966 -1.9107081
H -1.098812 2.5347214 -0.31285024
H -2.5832777 0.122086786 -0.52476245
H -1.8309407 -0.6985948 -1.9204857
H -1.6205958 -1.4390185 1.0389552
H -0.8081282 -2.3537793 -0.263238
H 2.3646693 0.014014061 3.1726382
