title
 OpenBabel02282109593D

 16 17  0  0  1  0  0  0  0  0999 V2000
   -0.3459    2.0266   -0.8533 C   0  0  0  0  0  0  0  0  0  0  0  0
   -0.4069    0.5322   -0.7928 C   0  0  2  0  0  0  0  0  0  0  0  0
   -1.6755   -0.3375   -0.8789 C   0  0  0  0  0  0  0  0  0  0  0  0
   -1.0468   -1.3399    0.1413 C   0  0  0  0  0  0  0  0  0  0  0  0
    0.2100   -0.4531    0.1929 C   0  0  1  0  0  0  0  0  0  0  0  0
    0.7718   -0.2431   -1.1432 N   0  0  0  0  0  0  0  0  0  0  0  0
    1.0362   -0.2340    1.3400 C   0  0  0  0  0  0  0  0  0  0  0  0
    1.6677   -0.0604    2.2939 N   0  0  0  0  0  0  0  0  0  0  0  0
    0.6473    2.3792   -0.5661 H   0  0  0  0  0  0  0  0  0  0  0  0
   -0.5486    2.3754   -1.8727 H   0  0  0  0  0  0  0  0  0  0  0  0
   -1.0890    2.4775   -0.1885 H   0  0  0  0  0  0  0  0  0  0  0  0
   -2.5628    0.1570   -0.4779 H   0  0  0  0  0  0  0  0  0  0  0  0
   -1.9085   -0.7198   -1.8778 H   0  0  0  0  0  0  0  0  0  0  0  0
   -1.5882   -1.3680    1.0883 H   0  0  0  0  0  0  0  0  0  0  0  0
   -0.8717   -2.3654   -0.1976 H   0  0  0  0  0  0  0  0  0  0  0  0
    0.5820   -1.0318   -1.7604 H   0  0  0  0  0  0  0  0  0  0  0  0
  1  2  1  0  0  0  0
  1  9  1  0  0  0  0
  1 11  1  0  0  0  0
  2  5  1  1  0  0  0
  3  2  1  0  0  0  0
  3 12  1  0  0  0  0
  3  4  1  0  0  0  0
  4  5  1  0  0  0  0
  4 14  1  0  0  0  0
  5  7  1  1  0  0  0
  6  2  1  0  0  0  0
  6  5  1  0  0  0  0
  7  8  3  0  0  0  0
 10  1  1  0  0  0  0
 13  3  1  0  0  0  0
 15  4  1  0  0  0  0
 16  6  1  0  0  0  0
M  END
