title
 OpenBabel02282109593D

 16 17  0  0  1  0  0  0  0  0999 V2000
   -0.2968    2.0276   -0.8583 C   0  0  0  0  0  0  0  0  0  0  0  0
   -0.4212    0.5463   -0.7261 C   0  0  2  0  0  0  0  0  0  0  0  0
   -1.6679   -0.3403   -0.9015 C   0  0  0  0  0  0  0  0  0  0  0  0
   -1.0461   -1.3574    0.1143 C   0  0  0  0  0  0  0  0  0  0  0  0
    0.1695   -0.4206    0.2432 C   0  0  1  0  0  0  0  0  0  0  0  0
    0.7005   -0.2634   -1.0909 O   0  0  0  0  0  0  0  0  0  0  0  0
    1.0358   -0.2397    1.3560 C   0  0  0  0  0  0  0  0  0  0  0  0
    1.7362   -0.1059    2.3250 C   0  0  0  0  0  0  0  0  0  0  0  0
    0.6661    2.3631   -0.4650 H   0  0  0  0  0  0  0  0  0  0  0  0
   -0.3623    2.3265   -1.9107 H   0  0  0  0  0  0  0  0  0  0  0  0
   -1.0988    2.5347   -0.3129 H   0  0  0  0  0  0  0  0  0  0  0  0
   -2.5833    0.1221   -0.5248 H   0  0  0  0  0  0  0  0  0  0  0  0
   -1.8309   -0.6986   -1.9205 H   0  0  0  0  0  0  0  0  0  0  0  0
   -1.6206   -1.4390    1.0390 H   0  0  0  0  0  0  0  0  0  0  0  0
   -0.8081   -2.3538   -0.2632 H   0  0  0  0  0  0  0  0  0  0  0  0
    2.3647    0.0140    3.1726 H   0  0  0  0  0  0  0  0  0  0  0  0
  1  2  1  0  0  0  0
  1  9  1  0  0  0  0
  1 11  1  0  0  0  0
  2  5  1  1  0  0  0
  3  2  1  0  0  0  0
  3 12  1  0  0  0  0
  3  4  1  0  0  0  0
  4  5  1  0  0  0  0
  4 14  1  0  0  0  0
  5  7  1  1  0  0  0
  6  2  1  0  0  0  0
  6  5  1  0  0  0  0
  7  8  3  0  0  0  0
  8 16  1  0  0  0  0
 10  1  1  0  0  0  0
 13  3  1  0  0  0  0
 15  4  1  0  0  0  0
M  END
