16
title
O 0.56357133 1.7689471 -0.10463063
C 0.82994366 0.43227515 -0.048256155
C 0.67270625 -0.49762687 -1.1775306
C -0.26049924 -0.74084646 0.0093614785
C 0.5143743 -1.3703347 1.1691216
C 1.5438352 -0.18826798 1.147384
C -1.6467167 -0.32958004 -0.054855485
O -2.0550377 0.50487876 -0.8507613
H -0.21923853 1.8869938 -0.66652024
H 0.16964899 -0.08916643 -2.0477862
H 1.41571 -1.2645934 -1.3878499
H -0.057851143 -1.4076283 2.098808
H 0.92649436 -2.3649225 0.9710565
H 2.5962017 -0.44308612 0.9891052
H 1.458315 0.4469272 2.030291
H -2.320968 -0.7493759 0.7223396
