title
 OpenBabel02282109593D

 14 15  0  0  1  0  0  0  0  0999 V2000
    0.9464    1.9219   -0.0854 O   0  0  0  0  0  0  0  0  0  0  0  0
    0.8909    0.5542   -0.1223 C   0  0  2  0  0  0  0  0  0  0  0  0
    0.6025   -0.2699   -1.3339 C   0  0  0  0  0  0  0  0  0  0  0  0
   -0.2872   -0.4643   -0.1174 C   0  0  1  0  0  0  0  0  0  0  0  0
    0.4403   -1.3419    0.8286 N   0  0  0  0  0  0  0  0  0  0  0  0
    1.5068   -0.2897    0.9887 C   0  0  0  0  0  0  0  0  0  0  0  0
   -1.6968   -0.3040   -0.1232 C   0  0  0  0  0  0  0  0  0  0  0  0
   -2.8464   -0.1593   -0.1030 N   0  0  0  0  0  0  0  0  0  0  0  0
    1.0470    2.2649   -0.9791 H   0  0  0  0  0  0  0  0  0  0  0  0
    0.1254    0.2744   -2.1445 H   0  0  0  0  0  0  0  0  0  0  0  0
    1.2446   -1.0942   -1.6359 H   0  0  0  0  0  0  0  0  0  0  0  0
   -0.0860   -1.4442    1.6911 H   0  0  0  0  0  0  0  0  0  0  0  0
    2.5253   -0.6584    0.8306 H   0  0  0  0  0  0  0  0  0  0  0  0
    1.4476    0.2318    1.9482 H   0  0  0  0  0  0  0  0  0  0  0  0
  2  4  1  1  0  0  0
  2  1  1  0  0  0  0
  2  6  1  0  0  0  0
  3  2  1  0  0  0  0
  3  4  1  0  0  0  0
  4  7  1  1  0  0  0
  4  5  1  0  0  0  0
  5  6  1  0  0  0  0
  5 12  1  0  0  0  0
  6 14  1  0  0  0  0
  7  8  3  0  0  0  0
  9  1  1  0  0  0  0
 10  3  1  0  0  0  0
 11  3  1  0  0  0  0
 13  6  1  0  0  0  0
M  END
