14
title
O 0.83183134 1.9577448 -0.081180565
C 0.8677829 0.58569527 -0.12088485
C 0.6140229 -0.2439398 -1.3497268
C -0.27002004 -0.44111237 -0.13005581
O 0.41515204 -1.2721511 0.81902987
C 1.4680592 -0.28191838 0.9779232
C -1.6832279 -0.3456798 -0.109265566
C -2.8831356 -0.25851116 -0.08972169
H 1.3348147 2.3033547 -0.82603824
H 0.1327838 0.29769492 -2.1584816
H 1.2857147 -1.0458671 -1.6462809
H 2.4664726 -0.7039151 0.8157738
H 1.4092491 0.19245125 1.9635293
H -3.942044 -0.18298303 -0.068177596
