15
title
O 0.87771606 1.9333767 -0.106896974
C 0.8730597 0.5577178 -0.11789371
C 0.6065955 -0.27433485 -1.3349859
C -0.29093674 -0.45969582 -0.12307884
N 0.44334573 -1.340781 0.82506454
C 1.5025221 -0.28212583 0.99066436
C -1.6995012 -0.31570852 -0.124296665
C -2.8972092 -0.19504102 -0.08641443
H 1.2931342 2.2504334 -0.91555256
H 0.1351265 0.26796323 -2.1490529
H 1.2641686 -1.090733 -1.6248924
H -0.09058371 -1.4340677 1.6841881
H 2.5242293 -0.645643 0.8343624
H 1.4405124 0.23513086 1.9527963
H -3.9534185 -0.0898831 -0.06520054
