16
title
C -0.43238857 1.9828655 -0.57702315
C -0.44845828 0.49599344 -0.6931832
C -1.3393359 -0.44550258 0.02059535
C 0.16151524 -0.62251294 0.21534728
C 0.76975137 -1.1243293 -1.0859348
O 0.099293 -0.09890467 -1.8665223
C 0.8226475 -0.42580527 1.5041621
O 0.29950833 0.08045238 2.473754
H 0.5443011 2.3864665 -0.85744345
H -1.1884109 2.4220014 -1.2378627
H -0.66053706 2.2793138 0.45016882
H -1.8302374 -0.05470985 0.90565
H -1.8841162 -1.2020375 -0.5375549
H 1.857114 -0.99336994 -1.1385436
H 0.5000859 -2.1345942 -1.4138901
H 1.8879203 -0.7504461 1.5319717
