title
 OpenBabel02282109593D

 18 19  0  0  1  0  0  0  0  0999 V2000
   -0.4802    1.9735   -0.5010 C   0  0  0  0  0  0  0  0  0  0  0  0
   -0.4579    0.4938   -0.7460 C   0  0  2  0  0  0  0  0  0  0  0  0
   -1.3295   -0.4578   -0.0111 C   0  0  0  0  0  0  0  0  0  0  0  0
    0.1643   -0.6217    0.1841 C   0  0  1  0  0  0  0  0  0  0  0  0
    0.7905   -1.2972   -1.0381 C   0  0  0  0  0  0  0  0  0  0  0  0
    0.1746   -0.1992   -1.9632 C   0  0  0  0  0  0  0  0  0  0  0  0
    0.7985   -0.3603    1.4773 C   0  0  0  0  0  0  0  0  0  0  0  0
    0.2912    0.2702    2.3816 O   0  0  0  0  0  0  0  0  0  0  0  0
    0.4583    2.4453   -0.8112 H   0  0  0  0  0  0  0  0  0  0  0  0
   -1.2940    2.4483   -1.0627 H   0  0  0  0  0  0  0  0  0  0  0  0
   -0.6336    2.1847    0.5614 H   0  0  0  0  0  0  0  0  0  0  0  0
   -1.8383   -0.0534    0.8576 H   0  0  0  0  0  0  0  0  0  0  0  0
   -1.8643   -1.2458   -0.5377 H   0  0  0  0  0  0  0  0  0  0  0  0
    1.8832   -1.2670   -1.0275 H   0  0  0  0  0  0  0  0  0  0  0  0
    0.4734   -2.3284   -1.2239 H   0  0  0  0  0  0  0  0  0  0  0  0
   -0.5313   -0.5410   -2.7273 H   0  0  0  0  0  0  0  0  0  0  0  0
    0.9386    0.4140   -2.4465 H   0  0  0  0  0  0  0  0  0  0  0  0
    1.8351   -0.7589    1.5731 H   0  0  0  0  0  0  0  0  0  0  0  0
  1 11  1  0  0  0  0
  2  1  1  0  0  0  0
  2  3  1  0  0  0  0
  2  4  1  1  0  0  0
  3  4  1  0  0  0  0
  3 12  1  0  0  0  0
  4  7  1  1  0  0  0
  5 14  1  0  0  0  0
  5  4  1  0  0  0  0
  6  5  1  0  0  0  0
  6  2  1  0  0  0  0
  7 18  1  0  0  0  0
  7  8  2  0  0  0  0
  9  1  1  0  0  0  0
 10  1  1  0  0  0  0
 13  3  1  0  0  0  0
 15  5  1  0  0  0  0
 16  6  1  0  0  0  0
 17  6  1  0  0  0  0
M  END
