16
title
C -0.20611618 2.1312182 -0.9003663
C -0.34152764 0.64528877 -0.8087249
C -1.6137516 -0.20622319 -0.9841474
C -1.0131919 -1.2619705 0.005510173
C 0.22710936 -0.37882137 0.13658293
O 0.7605578 -0.16600454 -1.1846727
C 1.1243814 -0.17534953 1.2844158
O 0.9377154 -0.6628672 2.3740423
H 0.78787863 2.4546201 -0.58326936
H -0.35562673 2.457383 -1.936191
H -0.9575458 2.6290545 -0.28035632
H -2.5102491 0.27831525 -0.5911533
H -1.7959516 -0.53718495 -2.009195
H -1.5685245 -1.3369567 0.94132787
H -0.8234084 -2.2603805 -0.3927181
H 1.9918197 0.48490584 1.0677904
