title
 OpenBabel02282109593D

 17 18  0  0  1  0  0  0  0  0999 V2000
   -0.2404    2.1239   -0.9010 C   0  0  0  0  0  0  0  0  0  0  0  0
   -0.3092    0.6263   -0.8728 C   0  0  2  0  0  0  0  0  0  0  0  0
   -1.5941   -0.2164   -0.9772 C   0  0  0  0  0  0  0  0  0  0  0  0
   -0.9903   -1.2506    0.0260 C   0  0  0  0  0  0  0  0  0  0  0  0
    0.2825   -0.4048    0.1072 C   0  0  1  0  0  0  0  0  0  0  0  0
    0.8595   -0.1500   -1.2177 N   0  0  0  0  0  0  0  0  0  0  0  0
    1.1106   -0.1691    1.3001 C   0  0  0  0  0  0  0  0  0  0  0  0
    0.8492   -0.6053    2.3972 O   0  0  0  0  0  0  0  0  0  0  0  0
    0.7659    2.4720   -0.6580 H   0  0  0  0  0  0  0  0  0  0  0  0
   -0.4907    2.4933   -1.9031 H   0  0  0  0  0  0  0  0  0  0  0  0
   -0.9507    2.5661   -0.1956 H   0  0  0  0  0  0  0  0  0  0  0  0
   -2.4730    0.2920   -0.5743 H   0  0  0  0  0  0  0  0  0  0  0  0
   -1.8299   -0.5739   -1.9854 H   0  0  0  0  0  0  0  0  0  0  0  0
   -1.5241   -1.2837    0.9766 H   0  0  0  0  0  0  0  0  0  0  0  0
   -0.8490   -2.2742   -0.3352 H   0  0  0  0  0  0  0  0  0  0  0  0
    0.6717   -0.9161   -1.8631 H   0  0  0  0  0  0  0  0  0  0  0  0
    2.0033    0.4662    1.1133 H   0  0  0  0  0  0  0  0  0  0  0  0
  1  2  1  0  0  0  0
  1  9  1  0  0  0  0
  1 11  1  0  0  0  0
  2  5  1  1  0  0  0
  3  2  1  0  0  0  0
  3 12  1  0  0  0  0
  3  4  1  0  0  0  0
  4  5  1  0  0  0  0
  4 14  1  0  0  0  0
  5  7  1  1  0  0  0
  6  2  1  0  0  0  0
  6  5  1  0  0  0  0
  7  8  2  0  0  0  0
 10  1  1  0  0  0  0
 13  3  1  0  0  0  0
 15  4  1  0  0  0  0
 16  6  1  0  0  0  0
 17  7  1  0  0  0  0
M  END
