title
 OpenBabel02282109593D

 14 15  0  0  1  0  0  0  0  0999 V2000
    0.7316    1.9459   -0.0153 O   0  0  0  0  0  0  0  0  0  0  0  0
    0.8455    0.5855   -0.0290 C   0  0  2  0  0  0  0  0  0  0  0  0
    0.6919   -0.3159   -1.2001 C   0  0  0  0  0  0  0  0  0  0  0  0
   -0.2089   -0.5749   -0.0058 C   0  0  1  0  0  0  0  0  0  0  0  0
    0.4982   -1.2449    1.0323 O   0  0  0  0  0  0  0  0  0  0  0  0
    1.4478   -0.1532    1.1566 C   0  0  0  0  0  0  0  0  0  0  0  0
   -1.6676   -0.5094   -0.0246 C   0  0  0  0  0  0  0  0  0  0  0  0
   -2.3052    0.0082   -0.9168 O   0  0  0  0  0  0  0  0  0  0  0  0
    0.6291    2.2681   -0.9167 H   0  0  0  0  0  0  0  0  0  0  0  0
    0.1453    0.1138   -2.0359 H   0  0  0  0  0  0  0  0  0  0  0  0
    1.4450   -1.0583   -1.4546 H   0  0  0  0  0  0  0  0  0  0  0  0
    2.4875   -0.4876    1.0678 H   0  0  0  0  0  0  0  0  0  0  0  0
    1.3005    0.3855    2.0983 H   0  0  0  0  0  0  0  0  0  0  0  0
   -2.1486   -0.9449    0.8770 H   0  0  0  0  0  0  0  0  0  0  0  0
  2  1  1  0  0  0  0
  2  4  1  1  0  0  0
  2  6  1  0  0  0  0
  3  2  1  0  0  0  0
  3  4  1  0  0  0  0
  4  7  1  6  0  0  0
  4  5  1  0  0  0  0
  5  6  1  0  0  0  0
  6 13  1  0  0  0  0
  7 14  1  0  0  0  0
  8  7  2  0  0  0  0
  9  1  1  0  0  0  0
 10  3  1  0  0  0  0
 11  3  1  0  0  0  0
 12  6  1  0  0  0  0
M  END
