14
title
O 0.73161125 1.9459144 -0.015287002
C 0.84546393 0.58550733 -0.028984664
C 0.6919 -0.31587896 -1.2001078
C -0.2089 -0.57491446 -0.0058419066
O 0.4981548 -1.24493 1.0322521
C 1.4478438 -0.1531895 1.1565609
C -1.6676117 -0.5093967 -0.024557814
O -2.3052151 0.008210403 -0.91675514
H 0.6291261 2.268085 -0.9166802
H 0.14527467 0.11379181 -2.0359008
H 1.4450064 -1.058349 -1.4546078
H 2.4874601 -0.48763588 1.0677905
H 1.3004596 0.38554236 2.098331
H -2.1486363 -0.94493914 0.8770266
