title
 OpenBabel02282109593D

 19 20  0  0  1  0  0  0  0  0999 V2000
   -0.9560    1.8786   -0.3452 C   0  0  0  0  0  0  0  0  0  0  0  0
   -0.5122    0.4888   -0.6842 C   0  0  1  0  0  0  0  0  0  0  0  0
   -0.0019   -0.0230   -2.0403 C   0  0  0  0  0  0  0  0  0  0  0  0
    0.9039   -1.0482   -1.2730 C   0  0  0  0  0  0  0  0  0  0  0  0
    0.3411   -0.4958    0.0435 C   0  0  1  0  0  0  0  0  0  0  0  0
    1.0650   -0.4251    1.3603 C   0  0  0  0  0  0  0  0  0  0  0  0
    0.2997    0.2131    2.3794 O   0  0  0  0  0  0  0  0  0  0  0  0
   -1.1281   -0.7067   -0.0297 N   0  0  0  0  0  0  0  0  0  0  0  0
   -0.2546    2.6209   -0.7421 H   0  0  0  0  0  0  0  0  0  0  0  0
   -1.9428    2.0947   -0.7728 H   0  0  0  0  0  0  0  0  0  0  0  0
   -1.0101    2.0123    0.7391 H   0  0  0  0  0  0  0  0  0  0  0  0
   -0.7662   -0.4452   -2.6975 H   0  0  0  0  0  0  0  0  0  0  0  0
    0.5814    0.7218   -2.5876 H   0  0  0  0  0  0  0  0  0  0  0  0
    0.7091   -2.1083   -1.4542 H   0  0  0  0  0  0  0  0  0  0  0  0
    1.9699   -0.8444   -1.4054 H   0  0  0  0  0  0  0  0  0  0  0  0
    1.3721   -1.4356    1.6717 H   0  0  0  0  0  0  0  0  0  0  0  0
    1.9832    0.1635    1.2450 H   0  0  0  0  0  0  0  0  0  0  0  0
   -0.2343   -0.4581    2.8135 H   0  0  0  0  0  0  0  0  0  0  0  0
   -1.4961   -0.3566    0.8572 H   0  0  0  0  0  0  0  0  0  0  0  0
  1 11  1  0  0  0  0
  2  1  1  0  0  0  0
  2  8  1  0  0  0  0
  2  5  1  1  0  0  0
  3  4  1  0  0  0  0
  3  2  1  0  0  0  0
  4  5  1  0  0  0  0
  5  6  1  1  0  0  0
  6 16  1  0  0  0  0
  6  7  1  0  0  0  0
  7 18  1  0  0  0  0
  8  5  1  0  0  0  0
  8 19  1  0  0  0  0
  9  1  1  0  0  0  0
 10  1  1  0  0  0  0
 12  3  1  0  0  0  0
 13  3  1  0  0  0  0
 14  4  1  0  0  0  0
 15  4  1  0  0  0  0
 17  6  1  0  0  0  0
M  END
