19
title
C -0.95599383 1.8786045 -0.34516835
C -0.51223624 0.488835 -0.6842497
C -0.0019052358 -0.023016838 -2.0402794
C 0.9039241 -1.0482004 -1.273032
C 0.34106395 -0.4958438 0.043536846
C 1.0650153 -0.42509595 1.3603166
O 0.2996991 0.21312857 2.379356
N -1.1281085 -0.706655 -0.029747603
H -0.25463367 2.6209457 -0.7420846
H -1.9427999 2.094707 -0.77282506
H -1.0100905 2.012282 0.73907954
H -0.7662481 -0.44521597 -2.6974564
H 0.5813924 0.7217993 -2.5875864
H 0.7091236 -2.10832 -1.4542325
H 1.9699004 -0.8444462 -1.4054377
H 1.3721285 -1.4355766 1.6716858
H 1.983221 0.1635027 1.244989
H -0.23433065 -0.4580802 2.8135376
H -1.4960833 -0.3565627 0.8571914
