18
title
C -0.87923616 2.1484232 -0.6671249
C -0.47679344 0.7121118 -0.75906706
C -0.02088028 -0.073676124 -2.0031974
C 0.7771205 -1.0345666 -1.0547665
C 0.28427118 -0.1933613 0.13211761
C 0.8728689 -0.024619777 1.4965202
O 0.66187 -1.1745313 2.3026412
O -1.1611826 -0.2380699 0.07654481
H -0.13315278 2.7919183 -1.1442398
H -1.836801 2.3109758 -1.1750668
H -0.9938953 2.4550436 0.37571627
H -0.8311457 -0.5162196 -2.5874567
H 0.63159347 0.5039914 -2.662892
H 0.46785772 -2.0815184 -1.0375547
H 1.857749 -0.9757811 -1.2062936
H 1.9580691 0.105529115 1.4282876
H 0.4525317 0.87853765 1.964549
H -0.28891167 -1.3339882 2.307884
