18
title
C -0.4145224 2.191658 -0.9675109
C -0.35430735 0.70455235 -0.8375502
C 0.8093556 -0.18585809 -1.1571573
C 0.15064971 -0.2646673 0.21819831
C 0.89213145 -0.07883748 1.5050027
O 1.5392375 -1.267888 1.9452174
C -1.2012535 -0.94743943 0.04277464
O -1.5778127 -0.023618065 -1.0148479
H 0.5564834 2.640427 -0.7400001
H -0.6824878 2.4699786 -1.9931114
H -1.1656982 2.6154997 -0.2941843
H 0.6887202 -0.9902661 -1.8782852
H 1.7818849 0.29944304 -1.1642392
H 1.6091144 0.7522387 1.4024279
H 0.20076118 0.1887906 2.31203
H 2.1028695 -1.5680788 1.2240624
H -1.2118007 -1.9912009 -0.291724
H -1.8621651 -0.83122087 0.91021454
