20
title
C -0.3791667 2.2282672 -0.8986396
C -0.4482863 0.72838295 -0.8414617
C 0.71328264 -0.16354565 -1.1890825
C 0.10836421 -0.27305987 0.187704
C 0.9021532 -0.040242292 1.4321282
O 1.6687657 -1.2101958 1.7073901
C -1.1768284 -1.1056551 0.09984305
C -1.7463948 -0.088514425 -0.94225025
H 0.610773 2.596903 -0.61029804
H -0.57896495 2.5915031 -1.9146388
H -1.1173844 2.691905 -0.2335814
H 0.60144395 -0.9768996 -1.9036381
H 1.6813289 0.32770085 -1.2280815
H 1.5552304 0.8379516 1.2964242
H 0.22336082 0.18510033 2.2713974
H 2.0980005 -1.0893186 2.5599623
H -1.0535239 -2.1407235 -0.23366621
H -1.7475679 -1.1080674 1.032399
H -2.6170142 0.45152897 -0.5599964
H -1.9907753 -0.47850713 -1.936363
