15
title
O 0.7482034 1.9068317 -0.06311662
C 0.8501681 0.54525745 -0.03368564
C 0.66394347 -0.37469143 -1.177561
C -0.23518097 -0.6153052 0.020809859
N 0.54840994 -1.3116077 1.0566574
C 1.4897252 -0.14343123 1.1647284
C -1.6803493 -0.45356023 -0.021342378
O -2.2818315 0.09332318 -0.9237857
H 0.54940003 2.1933131 -0.96106386
H 0.12142968 0.048087426 -2.019358
H 1.4010578 -1.1375809 -1.4194705
H 0.0095720915 -1.4118335 1.9125193
H 2.5483391 -0.41077667 1.0756617
H 1.3371781 0.44635713 2.073335
H -2.2137132 -0.8352674 0.88002014
