title
 OpenBabel02282109593D

 18 19  0  0  1  0  0  0  0  0999 V2000
    1.4531    2.1892   -0.5726 O   0  0  0  0  0  0  0  0  0  0  0  0
    1.4562    0.8699   -0.0326 C   0  0  0  0  0  0  0  0  0  0  0  0
    0.0513    0.3678    0.0213 C   0  0  1  0  0  0  0  0  0  0  0  0
   -0.6711   -0.1302   -1.2171 C   0  0  0  0  0  0  0  0  0  0  0  0
   -0.4827   -1.0604   -0.0538 C   0  0  1  0  0  0  0  0  0  0  0  0
    0.2592   -2.2272   -0.1468 O   0  0  0  0  0  0  0  0  0  0  0  0
   -1.5054   -0.7756    1.0506 C   0  0  0  0  0  0  0  0  0  0  0  0
   -0.9927    0.7048    1.0954 C   0  0  0  0  0  0  0  0  0  0  0  0
    2.3526    2.5278   -0.5284 H   0  0  0  0  0  0  0  0  0  0  0  0
    2.0606    0.1855   -0.6490 H   0  0  0  0  0  0  0  0  0  0  0  0
    1.8891    0.8645    0.9810 H   0  0  0  0  0  0  0  0  0  0  0  0
   -1.6510    0.2613   -1.4830 H   0  0  0  0  0  0  0  0  0  0  0  0
   -0.0166   -0.3300   -2.0602 H   0  0  0  0  0  0  0  0  0  0  0  0
   -0.1664   -2.8079   -0.7867 H   0  0  0  0  0  0  0  0  0  0  0  0
   -2.5595   -0.9390    0.8011 H   0  0  0  0  0  0  0  0  0  0  0  0
   -1.2689   -1.3179    1.9689 H   0  0  0  0  0  0  0  0  0  0  0  0
   -0.5476    0.9651    2.0589 H   0  0  0  0  0  0  0  0  0  0  0  0
   -1.7179    1.4772    0.8231 H   0  0  0  0  0  0  0  0  0  0  0  0
  1  9  1  0  0  0  0
  1  2  1  0  0  0  0
  2  3  1  0  0  0  0
  2 11  1  0  0  0  0
  3  5  1  1  0  0  0
  3  8  1  0  0  0  0
  4  5  1  0  0  0  0
  4  3  1  0  0  0  0
  5  6  1  6  0  0  0
  5  7  1  0  0  0  0
  7  8  1  0  0  0  0
  7 16  1  0  0  0  0
  8 17  1  0  0  0  0
 10  2  1  0  0  0  0
 12  4  1  0  0  0  0
 13  4  1  0  0  0  0
 14  6  1  0  0  0  0
 15  7  1  0  0  0  0
 18  8  1  0  0  0  0
M  END
