20
title
C -0.4540426 2.3498077 1.6017919
C -0.7555989 0.87711555 1.2913358
C -0.05355337 0.3723935 0.061444342
C 1.4007148 -0.06710619 0.064997256
C 0.33365884 -1.0409862 -0.35701805
O 0.08726827 -2.2157247 0.33517438
C -0.100693665 -0.78149045 -1.8017586
C -0.45454338 0.688241 -1.3904451
H 0.61647767 2.5033984 1.7730746
H -0.75269794 2.999081 0.77170134
H -0.9913672 2.6833527 2.4951432
H -0.4700251 0.25173014 2.1459818
H -1.8389416 0.7456417 1.1667798
H 2.1168456 0.3387518 -0.6479971
H 1.8047093 -0.25841784 1.0551127
H 0.8648817 -2.7800488 0.2645647
H 0.6577174 -0.9190723 -2.5805898
H -0.9909348 -1.3564475 -2.0668151
H -1.5197937 0.90745944 -1.5017418
H 0.11961494 1.4791204 -1.8839406
