title
 OpenBabel02282109593D

 20 21  0  0  1  0  0  0  0  0999 V2000
   -0.3059    2.3225   -1.5610 C   0  0  0  0  0  0  0  0  0  0  0  0
   -0.7834    0.8868   -1.2977 C   0  0  0  0  0  0  0  0  0  0  0  0
   -0.1929    0.3069   -0.0496 C   0  0  1  0  0  0  0  0  0  0  0  0
   -0.5157    0.6520    1.4174 C   0  0  0  0  0  0  0  0  0  0  0  0
   -0.0422   -0.7893    1.8124 C   0  0  0  0  0  0  0  0  0  0  0  0
    0.2568   -1.0526    0.3255 C   0  0  1  0  0  0  0  0  0  0  0  0
    0.2814   -2.3600   -0.3976 C   0  0  0  0  0  0  0  0  0  0  0  0
    1.2058   -0.0441   -0.0693 O   0  0  0  0  0  0  0  0  0  0  0  0
    0.7830    2.3519   -1.6596 H   0  0  0  0  0  0  0  0  0  0  0  0
   -0.7448    2.7184   -2.4815 H   0  0  0  0  0  0  0  0  0  0  0  0
   -0.5875    2.9911   -0.7409 H   0  0  0  0  0  0  0  0  0  0  0  0
   -1.8775    0.8660   -1.2151 H   0  0  0  0  0  0  0  0  0  0  0  0
   -0.5141    0.2460   -2.1450 H   0  0  0  0  0  0  0  0  0  0  0  0
    0.0533    1.4869    1.8332 H   0  0  0  0  0  0  0  0  0  0  0  0
   -1.5818    0.8097    1.6013 H   0  0  0  0  0  0  0  0  0  0  0  0
    0.8240   -0.8594    2.4751 H   0  0  0  0  0  0  0  0  0  0  0  0
   -0.8543   -1.4053    2.2076 H   0  0  0  0  0  0  0  0  0  0  0  0
   -0.6226   -2.9399   -0.1847 H   0  0  0  0  0  0  0  0  0  0  0  0
    0.3533   -2.2046   -1.4774 H   0  0  0  0  0  0  0  0  0  0  0  0
    1.1450   -2.9583   -0.0846 H   0  0  0  0  0  0  0  0  0  0  0  0
  1  2  1  0  0  0  0
  1 11  1  0  0  0  0
  2 12  1  0  0  0  0
  2  3  1  0  0  0  0
  3  6  1  6  0  0  0
  3  4  1  0  0  0  0
  4 15  1  0  0  0  0
  4  5  1  0  0  0  0
  4 14  1  0  0  0  0
  5 17  1  0  0  0  0
  5 16  1  0  0  0  0
  6  7  1  6  0  0  0
  6  5  1  0  0  0  0
  7 18  1  0  0  0  0
  7 20  1  0  0  0  0
  8  3  1  0  0  0  0
  8  6  1  0  0  0  0
  9  1  1  0  0  0  0
 10  1  1  0  0  0  0
 13  2  1  0  0  0  0
 19  7  1  0  0  0  0
M  END
