18
title
C -0.33809778 2.2826917 1.4288433
O -0.7381726 0.95911795 1.1038724
C -0.043308802 0.41199672 0.053364813
C 1.3984348 -0.05848545 0.1484937
C 0.3000282 -1.0279075 -0.22467226
C -0.004235632 -2.3353984 0.42585748
O 0.0011289652 -0.8829643 -1.6248214
C -0.4528802 0.48237047 -1.4168525
H 0.7315022 2.327359 1.6738716
H -0.53864765 2.981835 0.6051341
H -0.92225426 2.585578 2.3003745
H 2.1455574 0.23226535 -0.58577317
H 1.7541629 -0.15498596 1.1702597
H 0.14805764 -2.2650979 1.5063705
H -1.0406837 -2.6307821 0.23693627
H 0.6526598 -3.122299 0.03877479
H -1.5382589 0.5569782 -1.5508132
H 0.059505634 1.196589 -2.0720394
