title
 OpenBabel02282109593D

 20 21  0  0  1  0  0  0  0  0999 V2000
   -0.4540    2.3498    1.6018 C   0  0  0  0  0  0  0  0  0  0  0  0
   -0.7556    0.8771    1.2913 C   0  0  0  0  0  0  0  0  0  0  0  0
   -0.0536    0.3724    0.0614 C   0  0  1  0  0  0  0  0  0  0  0  0
    1.4007   -0.0671    0.0650 C   0  0  0  0  0  0  0  0  0  0  0  0
    0.3337   -1.0410   -0.3570 C   0  0  1  0  0  0  0  0  0  0  0  0
    0.0873   -2.2157    0.3352 O   0  0  0  0  0  0  0  0  0  0  0  0
   -0.1007   -0.7815   -1.8018 C   0  0  0  0  0  0  0  0  0  0  0  0
   -0.4545    0.6882   -1.3904 C   0  0  0  0  0  0  0  0  0  0  0  0
    0.6165    2.5034    1.7731 H   0  0  0  0  0  0  0  0  0  0  0  0
   -0.7527    2.9991    0.7717 H   0  0  0  0  0  0  0  0  0  0  0  0
   -0.9914    2.6834    2.4951 H   0  0  0  0  0  0  0  0  0  0  0  0
   -0.4700    0.2517    2.1460 H   0  0  0  0  0  0  0  0  0  0  0  0
   -1.8389    0.7456    1.1668 H   0  0  0  0  0  0  0  0  0  0  0  0
    2.1168    0.3388   -0.6480 H   0  0  0  0  0  0  0  0  0  0  0  0
    1.8047   -0.2584    1.0551 H   0  0  0  0  0  0  0  0  0  0  0  0
    0.8649   -2.7800    0.2646 H   0  0  0  0  0  0  0  0  0  0  0  0
    0.6577   -0.9191   -2.5806 H   0  0  0  0  0  0  0  0  0  0  0  0
   -0.9909   -1.3564   -2.0668 H   0  0  0  0  0  0  0  0  0  0  0  0
   -1.5198    0.9075   -1.5017 H   0  0  0  0  0  0  0  0  0  0  0  0
    0.1196    1.4791   -1.8839 H   0  0  0  0  0  0  0  0  0  0  0  0
  1  9  1  0  0  0  0
  1 11  1  0  0  0  0
  2  1  1  0  0  0  0
  2 12  1  0  0  0  0
  3  5  1  1  0  0  0
  3  4  1  0  0  0  0
  3  2  1  0  0  0  0
  4 15  1  0  0  0  0
  5  4  1  0  0  0  0
  5  6  1  1  0  0  0
  7  8  1  0  0  0  0
  7  5  1  0  0  0  0
  8  3  1  0  0  0  0
 10  1  1  0  0  0  0
 13  2  1  0  0  0  0
 14  4  1  0  0  0  0
 16  6  1  0  0  0  0
 17  7  1  0  0  0  0
 18  7  1  0  0  0  0
 19  8  1  0  0  0  0
 20  8  1  0  0  0  0
M  END
