16
title
O 1.4320318 2.27472 -0.38863415
C 1.4441639 0.916029 0.025659932
C 0.094742216 0.28338555 -0.07018881
C -0.5901703 -0.23350833 -1.3122056
C -0.45737335 -1.1212206 -0.09217944
O 0.19935444 -2.3337364 -0.07699316
C -1.4148765 -0.6365788 0.9948206
O -0.900129 0.7193959 0.8735689
H 0.800465 2.7346058 0.1752475
H 2.1416829 0.39214435 -0.6347252
H 1.8160921 0.81792176 1.0566487
H -1.549767 0.17517002 -1.6180624
H 0.08942417 -0.49582288 -2.1178634
H -0.22729203 -2.9207492 -0.7107754
H -2.493345 -0.6935221 0.8058701
H -1.1794975 -1.0553651 1.9796294
