20
title
C -0.30594885 2.3224566 -1.5610371
C -0.78338486 0.88675666 -1.2977406
C -0.19288382 0.3069136 -0.049607877
C -0.5156964 0.65198404 1.4173979
C -0.042210758 -0.7892792 1.8124136
C 0.2567731 -1.0525987 0.32546365
C 0.2813753 -2.359973 -0.39756536
O 1.2057672 -0.044135526 -0.0692575
H 0.78299856 2.351884 -1.6595893
H -0.7448147 2.7183824 -2.4815342
H -0.5875372 2.99111 -0.7409436
H -1.8775446 0.865952 -1.2151096
H -0.51410574 0.24603955 -2.1449583
H 0.05334395 1.4869132 1.8331736
H -1.5818021 0.809671 1.6012868
H 0.8240063 -0.85935247 2.4751053
H -0.854315 -1.4052696 2.207596
H -0.6226486 -2.9399238 -0.18466246
H 0.35333055 -2.2045877 -1.4773555
H 1.1450486 -2.9582632 -0.084617496
