18
title
C -0.4944715 2.374214 1.4835957
C -0.7526345 0.87245524 1.2980014
C -0.005582306 0.30306917 0.13489243
C 1.4409145 -0.1422116 0.1093534
C 0.34323695 -1.0795763 -0.3549253
O 0.08374944 -2.3110425 0.21188268
C -0.18307453 -0.6107097 -1.7077422
O -0.38515556 0.73129404 -1.1860061
H 0.5638647 2.5694757 1.684039
H -0.772933 2.9270778 0.5818054
H -1.0782884 2.7702088 2.3197446
H -0.46212488 0.32006955 2.198973
H -1.8242434 0.6950411 1.1473215
H 2.1429212 0.30312395 -0.5913588
H 1.8465098 -0.40202183 1.0831485
H 0.8619653 -2.868368 0.10131691
H 0.49522474 -0.62754005 -2.5694373
H -1.1402571 -1.0753437 -1.9711285
