title
 OpenBabel02282109593D

 16 17  0  0  1  0  0  0  0  0999 V2000
    1.4320    2.2747   -0.3886 O   0  0  0  0  0  0  0  0  0  0  0  0
    1.4442    0.9160    0.0257 C   0  0  0  0  0  0  0  0  0  0  0  0
    0.0947    0.2834   -0.0702 C   0  0  1  0  0  0  0  0  0  0  0  0
   -0.5902   -0.2335   -1.3122 C   0  0  0  0  0  0  0  0  0  0  0  0
   -0.4574   -1.1212   -0.0922 C   0  0  1  0  0  0  0  0  0  0  0  0
    0.1994   -2.3337   -0.0770 O   0  0  0  0  0  0  0  0  0  0  0  0
   -1.4149   -0.6366    0.9948 C   0  0  0  0  0  0  0  0  0  0  0  0
   -0.9001    0.7194    0.8736 O   0  0  0  0  0  0  0  0  0  0  0  0
    0.8005    2.7346    0.1752 H   0  0  0  0  0  0  0  0  0  0  0  0
    2.1417    0.3921   -0.6347 H   0  0  0  0  0  0  0  0  0  0  0  0
    1.8161    0.8179    1.0566 H   0  0  0  0  0  0  0  0  0  0  0  0
   -1.5498    0.1752   -1.6181 H   0  0  0  0  0  0  0  0  0  0  0  0
    0.0894   -0.4958   -2.1179 H   0  0  0  0  0  0  0  0  0  0  0  0
   -0.2273   -2.9207   -0.7108 H   0  0  0  0  0  0  0  0  0  0  0  0
   -2.4933   -0.6935    0.8059 H   0  0  0  0  0  0  0  0  0  0  0  0
   -1.1795   -1.0554    1.9796 H   0  0  0  0  0  0  0  0  0  0  0  0
  1  2  1  0  0  0  0
  1  9  1  0  0  0  0
  2 11  1  0  0  0  0
  3  5  1  1  0  0  0
  3  2  1  0  0  0  0
  3  8  1  0  0  0  0
  4  5  1  0  0  0  0
  4  3  1  0  0  0  0
  5  6  1  1  0  0  0
  5  7  1  0  0  0  0
  7 16  1  0  0  0  0
  8  7  1  0  0  0  0
 10  2  1  0  0  0  0
 12  4  1  0  0  0  0
 13  4  1  0  0  0  0
 14  6  1  0  0  0  0
 15  7  1  0  0  0  0
M  END
