19
title
C -0.619966 1.8631707 -0.5276166
C -0.39387035 0.35888007 -0.60158163
C -1.6291727 -0.39354575 -1.0824823
O 0.75583863 0.054683626 -1.4486525
C 1.4810604 -0.5767396 -0.37016642
C 0.34439844 -0.27739024 0.5935786
C 0.34271693 0.1124161 2.0157928
N -0.16410254 -1.2107304 1.5861439
H 0.28418368 2.3737035 -0.18634419
H -0.88222986 2.2523944 -1.5168116
H -1.4379512 2.1058183 0.1596212
H -1.9085371 -0.048429817 -2.0828664
H -1.437228 -1.4686512 -1.1317507
H -2.4830568 -0.21985656 -0.41749886
H 1.6588668 -1.6437652 -0.55166537
H 2.4371624 -0.07764107 -0.1688595
H 1.262766 0.08202726 2.5939612
H -0.37042513 0.8662408 2.3412578
H -1.1819401 -1.2155228 1.5852431
