title
 OpenBabel02282109593D

 19 20  0  0  1  0  0  0  0  0999 V2000
   -0.5032    1.8724   -0.6298 C   0  0  0  0  0  0  0  0  0  0  0  0
   -0.3609    0.3542   -0.6327 C   0  0  1  0  0  0  0  0  0  0  0  0
   -1.6182   -0.2797   -0.7844 O   0  0  0  0  0  0  0  0  0  0  0  0
    0.8075   -0.1723   -1.5295 C   0  0  0  0  0  0  0  0  0  0  0  0
    1.6768   -0.3773   -0.2512 C   0  0  0  0  0  0  0  0  0  0  0  0
    0.4020   -0.2144    0.5793 C   0  0  1  0  0  0  0  0  0  0  0  0
    0.1435    0.0207    2.0138 C   0  0  0  0  0  0  0  0  0  0  0  0
   -0.1301   -1.2953    1.4001 N   0  0  0  0  0  0  0  0  0  0  0  0
    0.4593    2.3609   -0.4514 H   0  0  0  0  0  0  0  0  0  0  0  0
   -0.8782    2.2284   -1.5984 H   0  0  0  0  0  0  0  0  0  0  0  0
   -1.2004    2.1936    0.1505 H   0  0  0  0  0  0  0  0  0  0  0  0
   -2.1368    0.2102   -1.4306 H   0  0  0  0  0  0  0  0  0  0  0  0
    0.5278   -1.1220   -1.9901 H   0  0  0  0  0  0  0  0  0  0  0  0
    1.1888    0.5071   -2.2963 H   0  0  0  0  0  0  0  0  0  0  0  0
    2.1777   -1.3412   -0.1478 H   0  0  0  0  0  0  0  0  0  0  0  0
    2.4045    0.4239   -0.0921 H   0  0  0  0  0  0  0  0  0  0  0  0
    0.9662    0.0320    2.7244 H   0  0  0  0  0  0  0  0  0  0  0  0
   -0.6973    0.6556    2.2859 H   0  0  0  0  0  0  0  0  0  0  0  0
   -1.1259   -1.3849    1.2045 H   0  0  0  0  0  0  0  0  0  0  0  0
  1  9  1  0  0  0  0
  1 11  1  0  0  0  0
  2  1  1  0  0  0  0
  2  6  1  1  0  0  0
  3  2  1  0  0  0  0
  4  2  1  0  0  0  0
  4  5  1  0  0  0  0
  5 15  1  0  0  0  0
  5 16  1  0  0  0  0
  6  5  1  6  0  0  0
  6  8  1  0  0  0  0
  6  7  1  0  0  0  0
  7 18  1  0  0  0  0
  7 17  1  0  0  0  0
  8  7  1  0  0  0  0
 10  1  1  0  0  0  0
 12  3  1  0  0  0  0
 13  4  1  0  0  0  0
 14  4  1  0  0  0  0
 19  8  1  0  0  0  0
M  END
