title
 OpenBabel02282109593D

 20 21  0  0  1  0  0  0  0  0999 V2000
   -0.0185    1.8105   -0.8866 C   0  0  0  0  0  0  0  0  0  0  0  0
   -0.3702    0.3485   -0.6249 C   0  0  1  0  0  0  0  0  0  0  0  0
   -1.7709    0.1783   -0.5065 O   0  0  0  0  0  0  0  0  0  0  0  0
    0.3805   -0.6535   -1.5623 C   0  0  0  0  0  0  0  0  0  0  0  0
    1.3793   -0.9553   -0.4067 C   0  0  0  0  0  0  0  0  0  0  0  0
    0.3952   -0.2778    0.5532 C   0  0  0  0  0  0  0  0  0  0  0  0
    0.6134    0.2783    1.9281 C   0  0  0  0  0  0  0  0  0  0  0  0
   -0.2688   -0.9326    1.7265 C   0  0  0  0  0  0  0  0  0  0  0  0
    1.0646    1.9566   -0.9379 H   0  0  0  0  0  0  0  0  0  0  0  0
   -0.4426    2.1457   -1.8422 H   0  0  0  0  0  0  0  0  0  0  0  0
   -0.4135    2.4494   -0.0906 H   0  0  0  0  0  0  0  0  0  0  0  0
   -2.1977    0.7008   -1.1936 H   0  0  0  0  0  0  0  0  0  0  0  0
   -0.2616   -1.5087   -1.7832 H   0  0  0  0  0  0  0  0  0  0  0  0
    0.7913   -0.2554   -2.4942 H   0  0  0  0  0  0  0  0  0  0  0  0
    1.6039   -2.0076   -0.2163 H   0  0  0  0  0  0  0  0  0  0  0  0
    2.3242   -0.4123   -0.5106 H   0  0  0  0  0  0  0  0  0  0  0  0
    1.5878    0.1378    2.3859 H   0  0  0  0  0  0  0  0  0  0  0  0
    0.1336    1.2181    2.1842 H   0  0  0  0  0  0  0  0  0  0  0  0
   -1.3407   -0.8036    1.8242 H   0  0  0  0  0  0  0  0  0  0  0  0
    0.1061   -1.8999    2.0470 H   0  0  0  0  0  0  0  0  0  0  0  0
  1  2  1  0  0  0  0
  1 11  1  0  0  0  0
  2  3  1  1  0  0  0
  2  6  1  0  0  0  0
  4  2  1  0  0  0  0
  4  5  1  0  0  0  0
  5 15  1  0  0  0  0
  5  6  1  0  0  0  0
  6  8  1  0  0  0  0
  6  7  1  0  0  0  0
  7 18  1  0  0  0  0
  7 17  1  0  0  0  0
  8 19  1  0  0  0  0
  8  7  1  0  0  0  0
  8 20  1  0  0  0  0
  9  1  1  0  0  0  0
 10  1  1  0  0  0  0
 12  3  1  0  0  0  0
 13  4  1  0  0  0  0
 14  4  1  0  0  0  0
 16  5  1  0  0  0  0
M  END
