18
title
C -0.5549 1.8729464 -0.6054228
C -0.40535298 0.35847604 -0.6443118
O -1.6298432 -0.28701875 -0.9165525
C 0.83901286 -0.15186611 -1.4248732
O 1.5183779 -0.47465315 -0.18945877
C 0.31968647 -0.25484815 0.55461526
C 0.32045054 0.10259938 2.0004044
C -0.21410753 -1.246162 1.5313472
H 0.39313662 2.351002 -0.34472814
H -0.86718386 2.25767 -1.584816
H -1.305883 2.1656106 0.13513626
H -2.1152725 0.24050145 -1.5591258
H 0.62270415 -1.0453436 -2.022402
H 1.3995713 0.5777163 -2.0196447
H 1.2827102 0.11243045 2.501346
H -0.38369283 0.8485454 2.3556054
H -1.2852668 -1.4146746 1.5424811
H 0.39658713 -2.1204922 1.7287258
