20
title
C -0.59429884 1.8962145 -0.54124475
C -0.4325098 0.38199112 -0.64988184
C -1.7313427 -0.29874703 -1.0747057
C 0.8255014 -0.078788236 -1.4353249
O 1.4131546 -0.6698649 -0.25566718
C 0.29144335 -0.2812998 0.53624827
C 0.46059132 0.16595565 1.9501412
C -0.22507092 -1.1577286 1.6284161
H 0.33930624 2.3737457 -0.22947639
H -0.89232296 2.3258245 -1.504462
H -1.367178 2.1593883 0.18975261
H -2.0614583 0.06888811 -2.0529892
H -1.6070687 -1.3835493 -1.1426322
H -2.5358086 -0.0965281 -0.35853392
H 0.6457154 -0.82589626 -2.2180607
H 1.4499724 0.72670853 -1.8407615
H 1.463792 0.122544184 2.3609245
H -0.14605194 0.9872217 2.3186343
H -1.2973354 -1.2353537 1.7784307
H 0.32851452 -2.0691316 1.8282318
