19
title
C -0.50321466 1.8723774 -0.62978613
C -0.36092472 0.354179 -0.63268477
O -1.6181817 -0.27965504 -0.7844459
C 0.80751276 -0.17231803 -1.5295349
C 1.676826 -0.37727547 -0.25119624
C 0.40195954 -0.21441172 0.57930976
C 0.14352827 0.020738943 2.013791
N -0.13007784 -1.2952917 1.4000803
H 0.45929223 2.3609354 -0.4514375
H -0.8781606 2.2283626 -1.5983816
H -1.2004164 2.1935942 0.1504988
H -2.1368043 0.21019137 -1.4305627
H 0.52779806 -1.1220341 -1.9900762
H 1.188759 0.5070649 -2.296312
H 2.1776934 -1.34119 -0.14778942
H 2.404539 0.42388654 -0.092122786
H 0.96624017 0.031961724 2.7244463
H -0.6972717 0.6556205 2.2859306
H -1.1259333 -1.3849453 1.2045277
