20
title
C -0.018483253 1.8104944 -0.8865615
C -0.3702325 0.34851938 -0.6249021
O -1.770932 0.17828245 -0.506538
C 0.38053176 -0.653499 -1.5622827
C 1.3793068 -0.9552667 -0.40671754
C 0.3952205 -0.27779433 0.5531907
C 0.6133994 0.27827653 1.9281194
C -0.2688421 -0.9326327 1.7265346
H 1.064629 1.9566456 -0.9379446
H -0.44256738 2.145675 -1.8422424
H -0.4135307 2.4494429 -0.09058041
H -2.197694 0.70079833 -1.193596
H -0.26162833 -1.5086979 -1.783248
H 0.79131246 -0.25540963 -2.4941566
H 1.6038609 -2.007641 -0.21631159
H 2.3242314 -0.41225412 -0.5105962
H 1.5878047 0.13775006 2.385859
H 0.13364354 1.218118 2.1841505
H -1.3406683 -0.80363715 1.8241923
H 0.106075466 -1.89987 2.047024
