18
title
C -0.62368405 1.872549 -0.5810883
C -0.39092606 0.36930367 -0.61454016
C -1.6199412 -0.41295877 -1.0558294
O 0.7691323 0.047099914 -1.4496863
C 1.4731733 -0.59544986 -0.36724868
C 0.34795028 -0.23669818 0.59098893
C 0.3401832 0.105348036 2.009781
O -0.23004712 -1.1232953 1.523071
H 0.27611786 2.399191 -0.25161085
H -0.88424265 2.232897 -1.5813842
H -1.44618 2.1254942 0.09637867
H -1.923205 -0.0957894 -2.0584211
H -1.4119203 -1.4853715 -1.0778503
H -2.4543982 -0.24175957 -0.36878514
H 1.6021687 -1.6736739 -0.52620757
H 2.4509778 -0.13700709 -0.17542805
H 1.2496082 -0.0052695605 2.5991268
H -0.37626845 0.83049345 2.3931441
