title
 OpenBabel02282109593D

 16 17  0  0  1  0  0  0  0  0999 V2000
   -0.7111    1.8993   -0.1204 C   0  0  0  0  0  0  0  0  0  0  0  0
   -0.6011    0.3843   -0.1058 C   0  0  1  0  0  0  0  0  0  0  0  0
   -1.8597   -0.2181    0.1653 O   0  0  0  0  0  0  0  0  0  0  0  0
    0.0542   -0.3571   -1.2839 C   0  0  1  0  0  0  0  0  0  0  0  0
    1.4876    0.0037   -1.4055 C   0  0  0  0  0  0  0  0  0  0  0  0
    1.1089   -1.0239   -0.3468 C   0  0  1  0  0  0  0  0  0  0  0  0
    0.4523   -0.3409    0.8035 C   0  0  0  0  0  0  0  0  0  0  0  0
    0.4759   -0.4825    1.9962 O   0  0  0  0  0  0  0  0  0  0  0  0
    0.2268    2.3827   -0.4072 H   0  0  0  0  0  0  0  0  0  0  0  0
   -1.4947    2.2088   -0.8187 H   0  0  0  0  0  0  0  0  0  0  0  0
   -0.9806    2.2601    0.8781 H   0  0  0  0  0  0  0  0  0  0  0  0
   -2.0055   -0.1542    1.1172 H   0  0  0  0  0  0  0  0  0  0  0  0
   -0.5127   -0.8521   -2.0607 H   0  0  0  0  0  0  0  0  0  0  0  0
    2.0162   -0.4234   -2.2513 H   0  0  0  0  0  0  0  0  0  0  0  0
    1.8511    0.9840   -1.1134 H   0  0  0  0  0  0  0  0  0  0  0  0
    1.5249   -2.0234   -0.3541 H   0  0  0  0  0  0  0  0  0  0  0  0
  1  2  1  0  0  0  0
  1 11  1  0  0  0  0
  2  4  1  6  0  0  0
  2  3  1  0  0  0  0
  2  7  1  0  0  0  0
  3 12  1  0  0  0  0
  4  6  1  1  0  0  0
  5  4  1  0  0  0  0
  5 15  1  0  0  0  0
  5  6  1  0  0  0  0
  6 16  1  6  0  0  0
  6  7  1  0  0  0  0
  7  8  2  0  0  0  0
  9  1  1  0  0  0  0
 10  1  1  0  0  0  0
 13  4  1  0  0  0  0
 14  5  1  0  0  0  0
M  END
