title
 OpenBabel02282109593D

 17 18  0  0  1  0  0  0  0  0999 V2000
   -0.8016    1.8354   -0.0647 C   0  0  0  0  0  0  0  0  0  0  0  0
   -0.6297    0.3236   -0.0559 C   0  0  0  0  0  0  0  0  0  0  0  0
   -1.9612   -0.3856    0.2011 C   0  0  0  0  0  0  0  0  0  0  0  0
    0.0157   -0.3042   -1.2904 N   0  0  1  0  0  0  0  0  0  0  0  0
    1.3818    0.1932   -1.3686 C   0  0  0  0  0  0  0  0  0  0  0  0
    1.1052   -0.9190   -0.4124 C   0  0  1  0  0  0  0  0  0  0  0  0
    0.4656   -0.3477    0.8175 C   0  0  0  0  0  0  0  0  0  0  0  0
    0.5965   -0.5214    1.9952 O   0  0  0  0  0  0  0  0  0  0  0  0
    0.1333    2.3772   -0.2230 H   0  0  0  0  0  0  0  0  0  0  0  0
   -1.5056    2.1297   -0.8505 H   0  0  0  0  0  0  0  0  0  0  0  0
   -1.2101    2.1620    0.8964 H   0  0  0  0  0  0  0  0  0  0  0  0
   -2.6989   -0.0779   -0.5462 H   0  0  0  0  0  0  0  0  0  0  0  0
   -1.8471   -1.4712    0.1400 H   0  0  0  0  0  0  0  0  0  0  0  0
   -2.3353   -0.1320    1.1968 H   0  0  0  0  0  0  0  0  0  0  0  0
    1.8924   -0.0817   -2.2868 H   0  0  0  0  0  0  0  0  0  0  0  0
    1.6366    1.1796   -0.9931 H   0  0  0  0  0  0  0  0  0  0  0  0
    1.4922   -1.9221   -0.5509 H   0  0  0  0  0  0  0  0  0  0  0  0
  1  2  1  0  0  0  0
  1 11  1  0  0  0  0
  2  3  1  0  0  0  0
  2  7  1  0  0  0  0
  3 14  1  0  0  0  0
  4  6  1  1  0  0  0
  4  2  1  0  0  0  0
  5  4  1  0  0  0  0
  5 16  1  0  0  0  0
  5  6  1  0  0  0  0
  6 17  1  6  0  0  0
  6  7  1  0  0  0  0
  7  8  2  0  0  0  0
  9  1  1  0  0  0  0
 10  1  1  0  0  0  0
 12  3  1  0  0  0  0
 13  3  1  0  0  0  0
 15  5  1  0  0  0  0
M  END
