title
 OpenBabel02282109593D

 16 17  0  0  1  0  0  0  0  0999 V2000
   -0.7074    1.8542   -0.1508 C   0  0  0  0  0  0  0  0  0  0  0  0
   -0.6777    0.3309   -0.0965 C   0  0  0  0  0  0  0  0  0  0  0  0
   -2.0453   -0.2787    0.2270 C   0  0  0  0  0  0  0  0  0  0  0  0
    0.0555   -0.3874   -1.2554 C   0  0  1  0  0  0  0  0  0  0  0  0
    1.3916    0.0926   -1.2648 O   0  0  0  0  0  0  0  0  0  0  0  0
    1.0772   -0.9994   -0.3683 C   0  0  1  0  0  0  0  0  0  0  0  0
    0.4078   -0.3317    0.8285 C   0  0  0  0  0  0  0  0  0  0  0  0
    0.5330   -0.4063    2.0141 O   0  0  0  0  0  0  0  0  0  0  0  0
    0.2613    2.2509   -0.4626 H   0  0  0  0  0  0  0  0  0  0  0  0
   -1.4722    2.2061   -0.8522 H   0  0  0  0  0  0  0  0  0  0  0  0
   -0.9450    2.2623    0.8368 H   0  0  0  0  0  0  0  0  0  0  0  0
   -2.7904    0.0375   -0.5109 H   0  0  0  0  0  0  0  0  0  0  0  0
   -2.0145   -1.3736    0.2309 H   0  0  0  0  0  0  0  0  0  0  0  0
   -2.3805    0.0499    1.2148 H   0  0  0  0  0  0  0  0  0  0  0  0
   -0.3525   -0.7887   -2.1761 H   0  0  0  0  0  0  0  0  0  0  0  0
    1.6641   -1.9058   -0.4582 H   0  0  0  0  0  0  0  0  0  0  0  0
  1  2  1  0  0  0  0
  1 11  1  0  0  0  0
  2  3  1  0  0  0  0
  2  7  1  0  0  0  0
  3 13  1  0  0  0  0
  3 14  1  0  0  0  0
  4  6  1  1  0  0  0
  4  2  1  0  0  0  0
  5  4  1  0  0  0  0
  5  6  1  0  0  0  0
  6 16  1  6  0  0  0
  6  7  1  0  0  0  0
  7  8  2  0  0  0  0
  9  1  1  0  0  0  0
 10  1  1  0  0  0  0
 12  3  1  0  0  0  0
 15  4  1  0  0  0  0
M  END
