16
title
C -0.7073502 1.8542104 -0.15080468
C -0.67765003 0.33093485 -0.09647987
C -2.0452936 -0.27869564 0.22700529
C 0.055522963 -0.38741493 -1.2553627
O 1.3916198 0.092619084 -1.2647573
C 1.0771565 -0.9994215 -0.36826715
C 0.4077896 -0.3316784 0.8284719
O 0.5330422 -0.40625262 2.014125
H 0.26129872 2.2509499 -0.46262655
H -1.4722172 2.2060566 -0.8522366
H -0.9449579 2.2623398 0.83679473
H -2.7903907 0.037528116 -0.51093614
H -2.0144782 -1.3735985 0.23094057
H -2.3805356 0.04986425 1.2148187
H -0.3525493 -0.7887093 -2.1760936
H 1.6640843 -1.9058014 -0.45815966
