16
title
C -0.7352797 1.891252 -0.14165713
C -0.63168883 0.37505737 -0.10577759
O -1.9013362 -0.22080243 0.11430076
C 0.066391565 -0.3743007 -1.2519844
C 1.5049918 -0.09299865 -1.2938415
N 1.0310562 -1.0828235 -0.28002462
C 0.42538777 -0.29836336 0.77943027
N 0.5694758 -0.31197664 2.0267756
H 0.21372317 2.3655462 -0.4062554
H -1.4961033 2.191563 -0.8678767
H -1.0309787 2.2627306 0.8448235
H -2.0723844 -0.18448067 1.0626338
H -0.4639526 -0.9449146 -2.0039942
H 2.0925465 -0.5633424 -2.0755944
H 1.8966265 0.85943836 -0.9472131
H 1.293328 -0.98126614 2.302877
