14
title
C -0.6834148 1.8817871 -0.15967657
C -0.63361424 0.36851186 -0.096132234
O -1.8918586 -0.22646023 0.16126893
C 0.053830568 -0.39096615 -1.2489895
O 1.3957146 0.063192844 -1.2689182
C 1.0722847 -1.022438 -0.3671316
C 0.4324407 -0.34211507 0.8307914
O 0.501851 -0.46018365 2.0181916
H 0.2777599 2.284278 -0.48797286
H -1.4681761 2.2042034 -0.850844
H -0.9068385 2.2932038 0.83082086
H -2.117275 -0.05030854 1.0825323
H -0.3886279 -0.7888213 -2.1539047
H 1.6346174 -1.9427569 -0.4669163
