title
 OpenBabel02282109593D

 15 16  0  0  1  0  0  0  0  0999 V2000
   -0.7128    1.9156   -0.1446 C   0  0  0  0  0  0  0  0  0  0  0  0
   -0.6301    0.3994   -0.1257 C   0  0  1  0  0  0  0  0  0  0  0  0
   -1.9027   -0.1935    0.0794 O   0  0  0  0  0  0  0  0  0  0  0  0
    0.0749   -0.3550   -1.2581 C   0  0  1  0  0  0  0  0  0  0  0  0
    1.5164   -0.0994   -1.2728 C   0  0  0  0  0  0  0  0  0  0  0  0
    1.0100   -1.1008   -0.2825 N   0  0  0  0  0  0  0  0  0  0  0  0
    0.4111   -0.3188    0.7828 C   0  0  0  0  0  0  0  0  0  0  0  0
    0.5740   -0.3925    1.9609 O   0  0  0  0  0  0  0  0  0  0  0  0
    0.2441    2.3793   -0.3994 H   0  0  0  0  0  0  0  0  0  0  0  0
   -1.4651    2.2350   -0.8717 H   0  0  0  0  0  0  0  0  0  0  0  0
   -1.0084    2.2844    0.8436 H   0  0  0  0  0  0  0  0  0  0  0  0
   -2.1558   -0.0338    0.9961 H   0  0  0  0  0  0  0  0  0  0  0  0
   -0.4527   -0.9125   -2.0211 H   0  0  0  0  0  0  0  0  0  0  0  0
    2.1139   -0.5664   -2.0486 H   0  0  0  0  0  0  0  0  0  0  0  0
    1.9193    0.8400   -0.9037 H   0  0  0  0  0  0  0  0  0  0  0  0
  1  2  1  0  0  0  0
  1 11  1  0  0  0  0
  2  4  1  6  0  0  0
  2  3  1  0  0  0  0
  2  7  1  0  0  0  0
  3 12  1  0  0  0  0
  4 13  1  6  0  0  0
  4  6  1  0  0  0  0
  5  4  1  0  0  0  0
  5 15  1  0  0  0  0
  5  6  1  0  0  0  0
  6  7  1  0  0  0  0
  7  8  2  0  0  0  0
  9  1  1  0  0  0  0
 10  1  1  0  0  0  0
 14  5  1  0  0  0  0
M  END
