title
 OpenBabel02282109593D

 16 17  0  0  1  0  0  0  0  0999 V2000
   -0.7353    1.8913   -0.1417 C   0  0  0  0  0  0  0  0  0  0  0  0
   -0.6317    0.3751   -0.1058 C   0  0  1  0  0  0  0  0  0  0  0  0
   -1.9013   -0.2208    0.1143 O   0  0  0  0  0  0  0  0  0  0  0  0
    0.0664   -0.3743   -1.2520 C   0  0  1  0  0  0  0  0  0  0  0  0
    1.5050   -0.0930   -1.2938 C   0  0  0  0  0  0  0  0  0  0  0  0
    1.0311   -1.0828   -0.2800 N   0  0  0  0  0  0  0  0  0  0  0  0
    0.4254   -0.2984    0.7794 C   0  0  0  0  0  0  0  0  0  0  0  0
    0.5695   -0.3120    2.0268 N   0  0  0  0  0  0  0  0  0  0  0  0
    0.2137    2.3655   -0.4063 H   0  0  0  0  0  0  0  0  0  0  0  0
   -1.4961    2.1916   -0.8679 H   0  0  0  0  0  0  0  0  0  0  0  0
   -1.0310    2.2627    0.8448 H   0  0  0  0  0  0  0  0  0  0  0  0
   -2.0724   -0.1845    1.0626 H   0  0  0  0  0  0  0  0  0  0  0  0
   -0.4640   -0.9449   -2.0040 H   0  0  0  0  0  0  0  0  0  0  0  0
    2.0925   -0.5633   -2.0756 H   0  0  0  0  0  0  0  0  0  0  0  0
    1.8966    0.8594   -0.9472 H   0  0  0  0  0  0  0  0  0  0  0  0
    1.2933   -0.9813    2.3029 H   0  0  0  0  0  0  0  0  0  0  0  0
  1  2  1  0  0  0  0
  1 11  1  0  0  0  0
  2  4  1  6  0  0  0
  2  3  1  0  0  0  0
  2  7  1  0  0  0  0
  3 12  1  0  0  0  0
  4 13  1  6  0  0  0
  4  6  1  0  0  0  0
  5  4  1  0  0  0  0
  5 15  1  0  0  0  0
  5  6  1  0  0  0  0
  6  7  1  0  0  0  0
  7  8  2  0  0  0  0
  8 16  1  0  0  0  0
  9  1  1  0  0  0  0
 10  1  1  0  0  0  0
 14  5  1  0  0  0  0
M  END
