16
title
C -0.71108735 1.8992923 -0.12036122
C -0.60113657 0.3842691 -0.10582137
O -1.8596791 -0.2180581 0.16531257
C 0.054175206 -0.35713917 -1.2839001
C 1.4875896 0.0037370548 -1.4054599
C 1.1088514 -1.0238781 -0.34675053
C 0.45229632 -0.3409282 0.8035284
O 0.47594064 -0.48247993 1.9962267
H 0.22681256 2.382745 -0.40717256
H -1.4946705 2.2087507 -0.8187016
H -0.980601 2.2600718 0.87813795
H -2.0054858 -0.15421613 1.1171612
H -0.5127222 -0.85209525 -2.0606961
H 2.0161955 -0.42339933 -2.2513158
H 1.8510852 0.9839629 -1.1134312
H 1.5248525 -2.0234277 -0.35413942
