17
title
C -0.8016005 1.8354485 -0.064659216
C -0.62973875 0.32355654 -0.05587926
C -1.9612385 -0.38558605 0.20113264
N 0.015679441 -0.30421147 -1.2903556
C 1.3817533 0.19316411 -1.3685598
C 1.1051666 -0.91904527 -0.41238725
C 0.46560892 -0.34772477 0.8175073
O 0.59652525 -0.52136475 1.995188
H 0.133338 2.3772173 -0.22295643
H -1.5055737 2.1296952 -0.8505469
H -1.2101418 2.1619792 0.89635354
H -2.6988645 -0.077892214 -0.54616475
H -1.847103 -1.4711754 0.13995068
H -2.335296 -0.13196385 1.1968188
H 1.8924173 -0.08174583 -2.2868276
H 1.6365799 1.1796163 -0.9930931
H 1.4921831 -1.9220908 -0.5509434
