title
 OpenBabel02282109593D

 20 21  0  0  1  0  0  0  0  0999 V2000
   -0.8914    1.7042   -0.0806 C   0  0  0  0  0  0  0  0  0  0  0  0
   -0.7798    0.1823   -0.0591 C   0  0  0  0  0  0  0  0  0  0  0  0
   -2.1383   -0.4630    0.2195 C   0  0  0  0  0  0  0  0  0  0  0  0
   -0.0739   -0.4952   -1.2507 C   0  0  1  0  0  0  0  0  0  0  0  0
    1.3675   -0.0939   -1.3548 C   0  0  0  0  0  0  0  0  0  0  0  0
    0.9774   -1.1145   -0.3222 C   0  0  1  0  0  0  0  0  0  0  0  0
    0.3442   -0.4328    0.8806 C   0  0  1  0  0  0  0  0  0  0  0  0
    1.2252    0.4457    1.5508 O   0  0  0  0  0  0  0  0  0  0  0  0
    0.0762    2.1864   -0.2343 H   0  0  0  0  0  0  0  0  0  0  0  0
   -1.5663    2.0303   -0.8802 H   0  0  0  0  0  0  0  0  0  0  0  0
   -1.3008    2.0804    0.8654 H   0  0  0  0  0  0  0  0  0  0  0  0
   -2.8683   -0.1930   -0.5523 H   0  0  0  0  0  0  0  0  0  0  0  0
   -2.0631   -1.5557    0.2368 H   0  0  0  0  0  0  0  0  0  0  0  0
   -2.5398   -0.1364    1.1860 H   0  0  0  0  0  0  0  0  0  0  0  0
   -0.5964   -0.9719   -2.0727 H   0  0  0  0  0  0  0  0  0  0  0  0
    1.8962   -0.4964   -2.2131 H   0  0  0  0  0  0  0  0  0  0  0  0
    1.7059    0.8894   -1.0461 H   0  0  0  0  0  0  0  0  0  0  0  0
    1.3884   -2.1163   -0.3234 H   0  0  0  0  0  0  0  0  0  0  0  0
   -0.0953   -1.1538    1.5836 H   0  0  0  0  0  0  0  0  0  0  0  0
    0.7458    0.8557    2.2779 H   0  0  0  0  0  0  0  0  0  0  0  0
  1  2  1  0  0  0  0
  1 11  1  0  0  0  0
  2  3  1  0  0  0  0
  2  7  1  0  0  0  0
  3 13  1  0  0  0  0
  3 14  1  0  0  0  0
  4  6  1  1  0  0  0
  4  2  1  0  0  0  0
  5  4  1  0  0  0  0
  5 17  1  0  0  0  0
  5  6  1  0  0  0  0
  6  7  1  1  0  0  0
  7  8  1  0  0  0  0
  7 19  1  1  0  0  0
  8 20  1  0  0  0  0
  9  1  1  0  0  0  0
 10  1  1  0  0  0  0
 12  3  1  0  0  0  0
 15  4  1  0  0  0  0
 16  5  1  0  0  0  0
 18  6  1  0  0  0  0
M  END
