title
 OpenBabel02282109593D

 19 20  0  0  1  0  0  0  0  0999 V2000
   -0.8407    1.7298   -0.0777 C   0  0  0  0  0  0  0  0  0  0  0  0
   -0.7893    0.2076   -0.0601 C   0  0  0  0  0  0  0  0  0  0  0  0
   -2.1647   -0.4109    0.1860 C   0  0  0  0  0  0  0  0  0  0  0  0
   -0.0660   -0.4789   -1.2336 C   0  0  1  0  0  0  0  0  0  0  0  0
    1.3493   -0.0336   -1.1949 N   0  0  0  0  0  0  0  0  0  0  0  0
    0.8990   -1.1564   -0.3295 C   0  0  1  0  0  0  0  0  0  0  0  0
    0.3105   -0.4512    0.8989 C   0  0  1  0  0  0  0  0  0  0  0  0
    1.1788    0.3902    1.6027 O   0  0  0  0  0  0  0  0  0  0  0  0
    0.1281    2.1546   -0.3492 H   0  0  0  0  0  0  0  0  0  0  0  0
   -1.5817    2.0850   -0.8033 H   0  0  0  0  0  0  0  0  0  0  0  0
   -1.1190    2.1185    0.9072 H   0  0  0  0  0  0  0  0  0  0  0  0
   -2.8769   -0.1178   -0.5940 H   0  0  0  0  0  0  0  0  0  0  0  0
   -2.1164   -1.5058    0.1977 H   0  0  0  0  0  0  0  0  0  0  0  0
   -2.5700   -0.0822    1.1493 H   0  0  0  0  0  0  0  0  0  0  0  0
   -0.5044   -0.8375   -2.1582 H   0  0  0  0  0  0  0  0  0  0  0  0
    1.8280   -0.4362   -1.9985 H   0  0  0  0  0  0  0  0  0  0  0  0
    1.3714   -2.1290   -0.3974 H   0  0  0  0  0  0  0  0  0  0  0  0
   -0.1467   -1.1284    1.6245 H   0  0  0  0  0  0  0  0  0  0  0  0
    1.7172    0.8245    0.9267 H   0  0  0  0  0  0  0  0  0  0  0  0
  1  2  1  0  0  0  0
  1 11  1  0  0  0  0
  2  3  1  0  0  0  0
  2  7  1  0  0  0  0
  3 13  1  0  0  0  0
  3 14  1  0  0  0  0
  4  5  1  0  0  0  0
  4  6  1  1  0  0  0
  4  2  1  0  0  0  0
  5  6  1  0  0  0  0
  6  7  1  1  0  0  0
  7  8  1  0  0  0  0
  7 18  1  1  0  0  0
  9  1  1  0  0  0  0
 10  1  1  0  0  0  0
 12  3  1  0  0  0  0
 15  4  1  0  0  0  0
 16  5  1  0  0  0  0
 17  6  1  0  0  0  0
 19  8  1  0  0  0  0
M  END
