18
title
C -0.88916993 1.7123759 -0.05365397
C -0.74720275 0.1987312 -0.04469126
O -1.9660102 -0.42632288 0.34210762
C -0.104301624 -0.4951778 -1.2600008
C 1.3366071 -0.10031358 -1.414623
C 0.9761174 -1.1169299 -0.36889267
C 0.3815931 -0.4361859 0.85474235
O 1.2797533 0.41521543 1.5307987
H 0.06446565 2.2101915 -0.24031012
H -1.5956217 2.0294242 -0.83084995
H -1.2732198 2.057795 0.9119465
H -2.6378896 -0.18891144 -0.30655858
H -0.66931075 -0.96627253 -2.0563333
H 1.8324736 -0.5044832 -2.2915363
H 1.6878351 0.8843145 -1.1236609
H 1.3789622 -2.1217058 -0.38335127
H -0.09507566 -1.1531739 1.5335468
H 0.8363651 0.75909513 2.3128622
