20
title
C -1.3717479 1.7527409 0.16814849
C -1.03209 0.27439928 0.015715783
C -0.6364224 -0.26120844 -1.36999
C 0.6939301 0.28510997 -1.8049723
C 0.6619547 -0.83697265 -0.8070346
C 0.3135365 -0.3344345 0.597778
C 1.2976484 0.58590317 1.3085583
O 0.05693742 -1.4856652 1.3946209
H -0.6024526 2.40141 -0.26178217
H -2.315152 1.9844524 -0.33866665
H -1.488378 2.030182 1.2220436
H -1.8403896 -0.3369822 0.4280388
H -1.3216078 -0.71059597 -2.0789888
H 1.0063368 -0.0033479629 -2.8037357
H 1.0163184 1.2842478 -1.5236742
H 1.1220698 -1.8003042 -0.9894963
H 1.5691743 1.4529811 0.70098865
H 0.8688838 0.96479636 2.2452888
H 2.2108076 0.034351766 1.552544
H -0.2572097 -1.1835489 2.2540116
