title
 OpenBabel02282109593D

 17 18  0  0  1  0  0  0  0  0999 V2000
   -0.9033    1.7089   -0.0347 C   0  0  0  0  0  0  0  0  0  0  0  0
   -0.7652    0.1993   -0.0352 C   0  0  1  0  0  0  0  0  0  0  0  0
   -1.9748   -0.4569    0.3106 O   0  0  0  0  0  0  0  0  0  0  0  0
   -0.0852   -0.4743   -1.2460 C   0  0  1  0  0  0  0  0  0  0  0  0
    1.3200    0.0078   -1.2558 N   0  0  0  0  0  0  0  0  0  0  0  0
    0.9279   -1.1291   -0.3808 C   0  0  1  0  0  0  0  0  0  0  0  0
    0.3674   -0.4449    0.8724 C   0  0  1  0  0  0  0  0  0  0  0  0
    1.2382    0.3950    1.5719 O   0  0  0  0  0  0  0  0  0  0  0  0
    0.0292    2.1856   -0.3442 H   0  0  0  0  0  0  0  0  0  0  0  0
   -1.6893    2.0243   -0.7331 H   0  0  0  0  0  0  0  0  0  0  0  0
   -1.1661    2.0642    0.9655 H   0  0  0  0  0  0  0  0  0  0  0  0
   -2.6674   -0.1313   -0.2749 H   0  0  0  0  0  0  0  0  0  0  0  0
   -0.5595   -0.8409   -2.1491 H   0  0  0  0  0  0  0  0  0  0  0  0
    1.7785   -0.3766   -2.0800 H   0  0  0  0  0  0  0  0  0  0  0  0
    1.4169   -2.0912   -0.4695 H   0  0  0  0  0  0  0  0  0  0  0  0
   -0.0980   -1.1303    1.5827 H   0  0  0  0  0  0  0  0  0  0  0  0
    1.7679    0.8393    0.8958 H   0  0  0  0  0  0  0  0  0  0  0  0
  1 11  1  0  0  0  0
  2  4  1  6  0  0  0
  2  1  1  0  0  0  0
  2  3  1  0  0  0  0
  4  6  1  1  0  0  0
  5  4  1  0  0  0  0
  5  6  1  0  0  0  0
  6  7  1  1  0  0  0
  7  2  1  6  0  0  0
  7  8  1  0  0  0  0
  7 16  1  0  0  0  0
  9  1  1  0  0  0  0
 10  1  1  0  0  0  0
 12  3  1  0  0  0  0
 13  4  1  0  0  0  0
 14  5  1  0  0  0  0
 15  6  1  0  0  0  0
 17  8  1  0  0  0  0
M  END
