title
 OpenBabel02282109593D

 16 17  0  0  1  0  0  0  0  0999 V2000
   -0.8310    1.7332   -0.0799 C   0  0  0  0  0  0  0  0  0  0  0  0
   -0.7640    0.2180   -0.0543 C   0  0  1  0  0  0  0  0  0  0  0  0
   -2.0346   -0.3870    0.1026 O   0  0  0  0  0  0  0  0  0  0  0  0
   -0.0594   -0.4900   -1.2224 C   0  0  1  0  0  0  0  0  0  0  0  0
    1.3084   -0.0603   -1.2017 O   0  0  0  0  0  0  0  0  0  0  0  0
    0.9125   -1.1429   -0.3343 C   0  0  1  0  0  0  0  0  0  0  0  0
    0.3257   -0.4550    0.9046 C   0  0  1  0  0  0  0  0  0  0  0  0
    1.1919    0.3542    1.6487 O   0  0  0  0  0  0  0  0  0  0  0  0
    0.1330    2.1609   -0.3654 H   0  0  0  0  0  0  0  0  0  0  0  0
   -1.5875    2.0644   -0.7977 H   0  0  0  0  0  0  0  0  0  0  0  0
   -1.0902    2.1250    0.9104 H   0  0  0  0  0  0  0  0  0  0  0  0
   -2.4403   -0.0237    0.8975 H   0  0  0  0  0  0  0  0  0  0  0  0
   -0.4794   -0.8146   -2.1669 H   0  0  0  0  0  0  0  0  0  0  0  0
    1.4549   -2.0759   -0.4342 H   0  0  0  0  0  0  0  0  0  0  0  0
   -0.1744   -1.1425    1.5912 H   0  0  0  0  0  0  0  0  0  0  0  0
    1.7524    0.8119    1.0094 H   0  0  0  0  0  0  0  0  0  0  0  0
  1  2  1  0  0  0  0
  1 11  1  0  0  0  0
  2  4  1  6  0  0  0
  2  3  1  0  0  0  0
  3 12  1  0  0  0  0
  4  5  1  0  0  0  0
  4  6  1  1  0  0  0
  5  6  1  0  0  0  0
  6  7  1  1  0  0  0
  7  2  1  6  0  0  0
  7 15  1  0  0  0  0
  7  8  1  0  0  0  0
  9  1  1  0  0  0  0
 10  1  1  0  0  0  0
 13  4  1  0  0  0  0
 14  6  1  0  0  0  0
 16  8  1  0  0  0  0
M  END
