19
title
C -0.8406717 1.7297633 -0.07774246
C -0.78932744 0.20758909 -0.060106996
C -2.1646504 -0.4109122 0.1860482
C -0.06596325 -0.47885635 -1.2335917
N 1.3493128 -0.03355983 -1.1948547
C 0.8990357 -1.1564226 -0.32953432
C 0.3105257 -0.45118842 0.89894056
O 1.1787763 0.39024156 1.6027321
H 0.12811013 2.1545577 -0.34923276
H -1.5816947 2.0850258 -0.8032665
H -1.1190028 2.1184611 0.90721977
H -2.876875 -0.11784251 -0.5939949
H -2.1164298 -1.5057799 0.19766982
H -2.5699558 -0.08220422 1.1492604
H -0.50438744 -0.8375228 -2.1581638
H 1.8280406 -0.4362245 -1.9984772
H 1.3714058 -2.1290383 -0.3973861
H -0.14671151 -1.1283996 1.624503
H 1.7171757 0.82449 0.9266657
