title
 OpenBabel02282109593D

 22 23  0  0  1  0  0  0  0  0999 V2000
   -1.3543    1.7298    0.2093 C   0  0  0  0  0  0  0  0  0  0  0  0
   -1.0303    0.2497    0.0356 C   0  0  1  0  0  0  0  0  0  0  0  0
   -0.6369   -0.2606   -1.3587 C   0  0  1  0  0  0  0  0  0  0  0  0
    0.6873    0.2993   -1.7982 C   0  0  0  0  0  0  0  0  0  0  0  0
    0.6711   -0.8326   -0.8119 C   0  0  1  0  0  0  0  0  0  0  0  0
    0.3177   -0.3623    0.6143 C   0  0  0  0  0  0  0  0  0  0  0  0
    1.3054    0.5879    1.2916 C   0  0  0  0  0  0  0  0  0  0  0  0
    0.0272   -1.5565    1.5264 C   0  0  0  0  0  0  0  0  0  0  0  0
   -0.5716    2.3778   -0.1956 H   0  0  0  0  0  0  0  0  0  0  0  0
   -2.2872    1.9797   -0.3085 H   0  0  0  0  0  0  0  0  0  0  0  0
   -1.4848    1.9873    1.2664 H   0  0  0  0  0  0  0  0  0  0  0  0
   -1.8689   -0.3371    0.4251 H   0  0  0  0  0  0  0  0  0  0  0  0
   -1.3229   -0.7047   -2.0709 H   0  0  0  0  0  0  0  0  0  0  0  0
    0.9880    0.0248   -2.8048 H   0  0  0  0  0  0  0  0  0  0  0  0
    1.0037    1.2985   -1.5111 H   0  0  0  0  0  0  0  0  0  0  0  0
    1.1366   -1.7867   -1.0357 H   0  0  0  0  0  0  0  0  0  0  0  0
    1.5613    1.4451    0.6636 H   0  0  0  0  0  0  0  0  0  0  0  0
    0.8980    0.9759    2.2324 H   0  0  0  0  0  0  0  0  0  0  0  0
    2.2384    0.0635    1.5283 H   0  0  0  0  0  0  0  0  0  0  0  0
    0.9497   -2.0940    1.7767 H   0  0  0  0  0  0  0  0  0  0  0  0
   -0.4348   -1.2317    2.4660 H   0  0  0  0  0  0  0  0  0  0  0  0
   -0.6518   -2.2671    1.0434 H   0  0  0  0  0  0  0  0  0  0  0  0
  1 11  1  0  0  0  0
  2  3  1  6  0  0  0
  2  1  1  0  0  0  0
  2 12  1  0  0  0  0
  2  6  1  0  0  0  0
  3  5  1  1  0  0  0
  4 15  1  0  0  0  0
  4  3  1  0  0  0  0
  4  5  1  0  0  0  0
  5 16  1  6  0  0  0
  5  6  1  0  0  0  0
  6  7  1  0  0  0  0
  6  8  1  0  0  0  0
  7 19  1  0  0  0  0
  7 18  1  0  0  0  0
  8 20  1  0  0  0  0
  8 21  1  0  0  0  0
  9  1  1  0  0  0  0
 10  1  1  0  0  0  0
 13  3  1  0  0  0  0
 14  4  1  0  0  0  0
 17  7  1  0  0  0  0
 22  8  1  0  0  0  0
M  END
