16
title
C -0.7648692 1.8810937 -0.13380224
C -0.6958397 0.35289747 -0.18092889
O -2.0030549 -0.22490992 -0.13027462
C 0.11318246 -0.16853978 -1.3646894
C 1.112091 -0.97113043 -0.9918574
C 1.1594652 -1.0745951 0.4979047
O 1.3979976 0.2004869 1.1509094
C 0.056137778 -0.25383464 1.0104712
H 0.23670046 2.3046973 -0.02940078
H -1.2127903 2.2770252 -1.0530043
H -1.3803452 2.2009995 0.7120758
H -2.5077083 0.11382684 -0.87735796
H -0.10748043 0.13808218 -2.3826363
H 1.8223534 -1.4576205 -1.6490645
H 1.5688131 -1.9372617 1.0135006
H -0.49541456 -0.46254334 1.9231095
