title
 OpenBabel02282109593D

 22 23  0  0  1  0  0  0  0  0999 V2000
   -0.6325    2.0685   -0.1506 C   0  0  0  0  0  0  0  0  0  0  0  0
   -0.6259    0.5341   -0.1405 C   0  0  0  0  0  0  0  0  0  0  0  0
   -2.0734    0.0080   -0.1458 C   0  0  0  0  0  0  0  0  0  0  0  0
    0.1644   -0.0503   -1.3484 C   0  0  0  0  0  0  0  0  0  0  0  0
    0.7233   -1.4132   -0.8792 C   0  0  0  0  0  0  0  0  0  0  0  0
    0.9138   -1.2534    0.6228 C   0  0  1  0  0  0  0  0  0  0  0  0
    1.6150   -0.0044    1.0994 C   0  0  0  0  0  0  0  0  0  0  0  0
    0.1064   -0.0548    1.0695 C   0  0  1  0  0  0  0  0  0  0  0  0
    0.3848    2.4689   -0.0934 H   0  0  0  0  0  0  0  0  0  0  0  0
   -1.0956    2.4556   -1.0656 H   0  0  0  0  0  0  0  0  0  0  0  0
   -1.1970    2.4685    0.6993 H   0  0  0  0  0  0  0  0  0  0  0  0
   -2.6237    0.3843   -1.0154 H   0  0  0  0  0  0  0  0  0  0  0  0
   -2.1017   -1.0860   -0.1758 H   0  0  0  0  0  0  0  0  0  0  0  0
   -2.6114    0.3290    0.7533 H   0  0  0  0  0  0  0  0  0  0  0  0
   -0.4627   -0.1397   -2.2406 H   0  0  0  0  0  0  0  0  0  0  0  0
    0.9858    0.6235   -1.6136 H   0  0  0  0  0  0  0  0  0  0  0  0
   -0.0001   -2.2146   -1.0705 H   0  0  0  0  0  0  0  0  0  0  0  0
    1.6445   -1.6850   -1.4067 H   0  0  0  0  0  0  0  0  0  0  0  0
    0.9829   -2.1455    1.2359 H   0  0  0  0  0  0  0  0  0  0  0  0
    2.0884   -0.0437    2.0745 H   0  0  0  0  0  0  0  0  0  0  0  0
    2.1466    0.6138    0.3825 H   0  0  0  0  0  0  0  0  0  0  0  0
   -0.4191   -0.0567    2.0197 H   0  0  0  0  0  0  0  0  0  0  0  0
  1  2  1  0  0  0  0
  1  9  1  0  0  0  0
  1 11  1  0  0  0  0
  2  8  1  0  0  0  0
  3  2  1  0  0  0  0
  3 14  1  0  0  0  0
  4  5  1  0  0  0  0
  4  2  1  0  0  0  0
  5  6  1  0  0  0  0
  6  8  1  1  0  0  0
  6  7  1  0  0  0  0
  6 19  1  0  0  0  0
  7 20  1  0  0  0  0
  8  7  1  0  0  0  0
  8 22  1  1  0  0  0
 10  1  1  0  0  0  0
 12  3  1  0  0  0  0
 13  3  1  0  0  0  0
 15  4  1  0  0  0  0
 16  4  1  0  0  0  0
 17  5  1  0  0  0  0
 18  5  1  0  0  0  0
 21  7  1  0  0  0  0
M  END
