title
 OpenBabel02282109593D

 17 18  0  0  1  0  0  0  0  0999 V2000
   -0.7793    1.8875   -0.1377 C   0  0  0  0  0  0  0  0  0  0  0  0
   -0.6862    0.3606   -0.1759 C   0  0  1  0  0  0  0  0  0  0  0  0
   -1.9945   -0.2257   -0.1320 O   0  0  0  0  0  0  0  0  0  0  0  0
    0.1234   -0.1596   -1.3586 C   0  0  0  0  0  0  0  0  0  0  0  0
    1.1115   -0.9757   -0.9873 C   0  0  0  0  0  0  0  0  0  0  0  0
    1.1658   -1.0908    0.4990 C   0  0  1  0  0  0  0  0  0  0  0  0
    1.4542    0.2228    1.1553 N   0  0  0  0  0  0  0  0  0  0  0  0
    0.0634   -0.2434    1.0158 C   0  0  1  0  0  0  0  0  0  0  0  0
    0.2154    2.3277   -0.0399 H   0  0  0  0  0  0  0  0  0  0  0  0
   -1.2392    2.2707   -1.0567 H   0  0  0  0  0  0  0  0  0  0  0  0
   -1.3970    2.2031    0.7085 H   0  0  0  0  0  0  0  0  0  0  0  0
   -2.4836    0.0877   -0.9002 H   0  0  0  0  0  0  0  0  0  0  0  0
   -0.0924    0.1511   -2.3762 H   0  0  0  0  0  0  0  0  0  0  0  0
    1.8172   -1.4625   -1.6501 H   0  0  0  0  0  0  0  0  0  0  0  0
    1.4946   -1.9998    0.9903 H   0  0  0  0  0  0  0  0  0  0  0  0
    1.7539    0.0497    2.1141 H   0  0  0  0  0  0  0  0  0  0  0  0
   -0.5181   -0.5028    1.8935 H   0  0  0  0  0  0  0  0  0  0  0  0
  1  9  1  0  0  0  0
  1 11  1  0  0  0  0
  2  1  1  0  0  0  0
  2  3  1  0  0  0  0
  2  8  1  1  0  0  0
  4  5  2  0  0  0  0
  4  2  1  0  0  0  0
  5  6  1  0  0  0  0
  6 15  1  0  0  0  0
  6  8  1  1  0  0  0
  6  7  1  0  0  0  0
  7 16  1  0  0  0  0
  8  7  1  0  0  0  0
  8 17  1  1  0  0  0
 10  1  1  0  0  0  0
 12  3  1  0  0  0  0
 13  4  1  0  0  0  0
 14  5  1  0  0  0  0
M  END
