title
 OpenBabel02282109593D

 20 21  0  0  1  0  0  0  0  0999 V2000
   -0.5961    2.0628   -0.1219 C   0  0  0  0  0  0  0  0  0  0  0  0
   -0.6447    0.5302   -0.1492 C   0  0  0  0  0  0  0  0  0  0  0  0
   -2.1006    0.0334   -0.1553 C   0  0  0  0  0  0  0  0  0  0  0  0
    0.1568   -0.0560   -1.3526 C   0  0  0  0  0  0  0  0  0  0  0  0
    0.7393   -1.4100   -0.8789 C   0  0  0  0  0  0  0  0  0  0  0  0
    0.8858   -1.2292    0.6181 C   0  0  1  0  0  0  0  0  0  0  0  0
    1.5037    0.0158    0.9846 O   0  0  0  0  0  0  0  0  0  0  0  0
    0.0748   -0.0855    1.0473 C   0  0  1  0  0  0  0  0  0  0  0  0
    0.4360    2.4118   -0.0230 H   0  0  0  0  0  0  0  0  0  0  0  0
   -1.0133    2.4855   -1.0426 H   0  0  0  0  0  0  0  0  0  0  0  0
   -1.1737    2.4648    0.7183 H   0  0  0  0  0  0  0  0  0  0  0  0
   -2.6450    0.4471   -1.0107 H   0  0  0  0  0  0  0  0  0  0  0  0
   -2.1552   -1.0586   -0.2185 H   0  0  0  0  0  0  0  0  0  0  0  0
   -2.6285    0.3407    0.7546 H   0  0  0  0  0  0  0  0  0  0  0  0
   -0.4681   -0.1585   -2.2442 H   0  0  0  0  0  0  0  0  0  0  0  0
    0.9757    0.6221   -1.6032 H   0  0  0  0  0  0  0  0  0  0  0  0
    0.0493   -2.2409   -1.0704 H   0  0  0  0  0  0  0  0  0  0  0  0
    1.6854   -1.6543   -1.3720 H   0  0  0  0  0  0  0  0  0  0  0  0
    1.1166   -2.0694    1.2686 H   0  0  0  0  0  0  0  0  0  0  0  0
   -0.3543   -0.0024    2.0446 H   0  0  0  0  0  0  0  0  0  0  0  0
  1  9  1  0  0  0  0
  1 11  1  0  0  0  0
  2  1  1  0  0  0  0
  2  8  1  0  0  0  0
  3  2  1  0  0  0  0
  3 14  1  0  0  0  0
  4  5  1  0  0  0  0
  4  2  1  0  0  0  0
  5  6  1  0  0  0  0
  6  7  1  0  0  0  0
  6  8  1  1  0  0  0
  6 19  1  0  0  0  0
  7  8  1  0  0  0  0
  8 20  1  1  0  0  0
 10  1  1  0  0  0  0
 12  3  1  0  0  0  0
 13  3  1  0  0  0  0
 15  4  1  0  0  0  0
 16  4  1  0  0  0  0
 17  5  1  0  0  0  0
 18  5  1  0  0  0  0
M  END
