18
title
C -0.7637242 1.8844073 -0.12428483
C -0.7291538 0.34673533 -0.17128327
C -2.154929 -0.23192166 -0.19704096
C 0.08529967 -0.16322447 -1.354934
C 1.0894425 -0.966859 -0.99757063
C 1.1526309 -1.0693216 0.4908738
O 1.4007002 0.20668362 1.1342334
C 0.052324057 -0.24332844 1.0132731
H 0.24834412 2.283939 -0.028141119
H -1.2157226 2.2936223 -1.0342124
H -1.3564608 2.2339392 0.72802126
H -2.6945267 0.0993434 -1.0903736
H -2.138832 -1.3262755 -0.20095345
H -2.7232947 0.10047168 0.67940855
H -0.14455903 0.14464389 -2.3703082
H 1.7935678 -1.4491737 -1.6642742
H 1.570341 -1.9291956 1.0053897
H -0.46041793 -0.4470506 1.9513873
