title
 OpenBabel02282109593D

 19 20  0  0  1  0  0  0  0  0999 V2000
   -0.7746    1.8906   -0.1286 C   0  0  0  0  0  0  0  0  0  0  0  0
   -0.7216    0.3537   -0.1673 C   0  0  0  0  0  0  0  0  0  0  0  0
   -2.1450   -0.2333   -0.2024 C   0  0  0  0  0  0  0  0  0  0  0  0
    0.0947   -0.1573   -1.3500 C   0  0  0  0  0  0  0  0  0  0  0  0
    1.0905   -0.9702   -0.9929 C   0  0  0  0  0  0  0  0  0  0  0  0
    1.1604   -1.0834    0.4932 C   0  0  1  0  0  0  0  0  0  0  0  0
    1.4541    0.2316    1.1400 N   0  0  0  0  0  0  0  0  0  0  0  0
    0.0581   -0.2353    1.0197 C   0  0  1  0  0  0  0  0  0  0  0  0
    0.2323    2.3023   -0.0322 H   0  0  0  0  0  0  0  0  0  0  0  0
   -1.2315    2.2904   -1.0407 H   0  0  0  0  0  0  0  0  0  0  0  0
   -1.3737    2.2370    0.7211 H   0  0  0  0  0  0  0  0  0  0  0  0
   -2.6782    0.0858   -1.1042 H   0  0  0  0  0  0  0  0  0  0  0  0
   -2.1205   -1.3275   -0.1960 H   0  0  0  0  0  0  0  0  0  0  0  0
   -2.7256    0.1028    0.6649 H   0  0  0  0  0  0  0  0  0  0  0  0
   -0.1336    0.1499   -2.3659 H   0  0  0  0  0  0  0  0  0  0  0  0
    1.7915   -1.4519   -1.6641 H   0  0  0  0  0  0  0  0  0  0  0  0
    1.5003   -1.9895    0.9834 H   0  0  0  0  0  0  0  0  0  0  0  0
    1.7630    0.0608    2.0960 H   0  0  0  0  0  0  0  0  0  0  0  0
   -0.4841   -0.4933    1.9247 H   0  0  0  0  0  0  0  0  0  0  0  0
  1  9  1  0  0  0  0
  1 11  1  0  0  0  0
  2  1  1  0  0  0  0
  2  8  1  0  0  0  0
  3 13  1  0  0  0  0
  3  2  1  0  0  0  0
  3 14  1  0  0  0  0
  4  5  2  0  0  0  0
  4  2  1  0  0  0  0
  5  6  1  0  0  0  0
  6 17  1  0  0  0  0
  6  8  1  1  0  0  0
  6  7  1  0  0  0  0
  7 18  1  0  0  0  0
  8  7  1  0  0  0  0
  8 19  1  1  0  0  0
 10  1  1  0  0  0  0
 12  3  1  0  0  0  0
 15  4  1  0  0  0  0
 16  5  1  0  0  0  0
M  END
