title
 OpenBabel02282109593D

 21 22  0  0  1  0  0  0  0  0999 V2000
   -0.6196    2.0802   -0.1596 C   0  0  0  0  0  0  0  0  0  0  0  0
   -0.6292    0.5461   -0.1625 C   0  0  0  0  0  0  0  0  0  0  0  0
   -2.0808    0.0307   -0.1703 C   0  0  0  0  0  0  0  0  0  0  0  0
    0.1697   -0.0534   -1.3529 C   0  0  0  0  0  0  0  0  0  0  0  0
    0.7342   -1.3836   -0.8037 C   0  0  0  0  0  0  0  0  0  0  0  0
    0.8665   -1.2553    0.6615 N   0  0  1  0  0  0  0  0  0  0  0  0
    1.5840   -0.0380    1.0697 C   0  0  0  0  0  0  0  0  0  0  0  0
    0.0990   -0.0531    1.0434 C   0  0  1  0  0  0  0  0  0  0  0  0
    0.4022    2.4717   -0.1314 H   0  0  0  0  0  0  0  0  0  0  0  0
   -1.1089    2.4777   -1.0558 H   0  0  0  0  0  0  0  0  0  0  0  0
   -1.1545    2.4777    0.7102 H   0  0  0  0  0  0  0  0  0  0  0  0
   -2.6233    0.4086   -1.0435 H   0  0  0  0  0  0  0  0  0  0  0  0
   -2.1181   -1.0630   -0.1959 H   0  0  0  0  0  0  0  0  0  0  0  0
   -2.6189    0.3597    0.7256 H   0  0  0  0  0  0  0  0  0  0  0  0
   -0.4573   -0.2034   -2.2363 H   0  0  0  0  0  0  0  0  0  0  0  0
    0.9758    0.6247   -1.6502 H   0  0  0  0  0  0  0  0  0  0  0  0
    0.0404   -2.2097   -0.9940 H   0  0  0  0  0  0  0  0  0  0  0  0
    1.6966   -1.6571   -1.2482 H   0  0  0  0  0  0  0  0  0  0  0  0
    2.1080   -0.1203    2.0176 H   0  0  0  0  0  0  0  0  0  0  0  0
    2.1162    0.5369    0.3153 H   0  0  0  0  0  0  0  0  0  0  0  0
   -0.4505   -0.1112    1.9806 H   0  0  0  0  0  0  0  0  0  0  0  0
  1  9  1  0  0  0  0
  1 11  1  0  0  0  0
  2  1  1  0  0  0  0
  2  8  1  0  0  0  0
  3  2  1  0  0  0  0
  3 14  1  0  0  0  0
  4  5  1  0  0  0  0
  4  2  1  0  0  0  0
  5  6  1  0  0  0  0
  6  8  1  1  0  0  0
  6  7  1  0  0  0  0
  7 19  1  0  0  0  0
  8  7  1  0  0  0  0
  8 21  1  1  0  0  0
 10  1  1  0  0  0  0
 12  3  1  0  0  0  0
 13  3  1  0  0  0  0
 15  4  1  0  0  0  0
 16  4  1  0  0  0  0
 17  5  1  0  0  0  0
 18  5  1  0  0  0  0
 20  7  1  0  0  0  0
M  END
