title
 OpenBabel02282109593D

 19 20  0  0  1  0  0  0  0  0999 V2000
   -0.6522    2.0779   -0.1584 C   0  0  0  0  0  0  0  0  0  0  0  0
   -0.5895    0.5505   -0.1642 C   0  0  1  0  0  0  0  0  0  0  0  0
   -1.9111   -0.0014   -0.1118 O   0  0  0  0  0  0  0  0  0  0  0  0
    0.2012   -0.0499   -1.3539 C   0  0  0  0  0  0  0  0  0  0  0  0
    0.7246   -1.3943   -0.8007 C   0  0  0  0  0  0  0  0  0  0  0  0
    0.8696   -1.2586    0.6631 N   0  0  1  0  0  0  0  0  0  0  0  0
    1.5987   -0.0499    1.0693 C   0  0  0  0  0  0  0  0  0  0  0  0
    0.1145   -0.0518    1.0451 C   0  0  1  0  0  0  0  0  0  0  0  0
    0.3485    2.5184   -0.1268 H   0  0  0  0  0  0  0  0  0  0  0  0
   -1.1527    2.4503   -1.0606 H   0  0  0  0  0  0  0  0  0  0  0  0
   -1.2158    2.4306    0.7103 H   0  0  0  0  0  0  0  0  0  0  0  0
   -2.4153    0.3783   -0.8393 H   0  0  0  0  0  0  0  0  0  0  0  0
   -0.4436   -0.1797   -2.2273 H   0  0  0  0  0  0  0  0  0  0  0  0
    1.0177    0.6146   -1.6524 H   0  0  0  0  0  0  0  0  0  0  0  0
   -0.0080   -2.1878   -0.9753 H   0  0  0  0  0  0  0  0  0  0  0  0
    1.6735   -1.7050   -1.2485 H   0  0  0  0  0  0  0  0  0  0  0  0
    2.1171   -0.1352    2.0198 H   0  0  0  0  0  0  0  0  0  0  0  0
    2.1377    0.5237    0.3188 H   0  0  0  0  0  0  0  0  0  0  0  0
   -0.4611   -0.0948    1.9648 H   0  0  0  0  0  0  0  0  0  0  0  0
  1  9  1  0  0  0  0
  1 11  1  0  0  0  0
  2  1  1  0  0  0  0
  2  3  1  0  0  0  0
  2  8  1  1  0  0  0
  4  5  1  0  0  0  0
  4  2  1  0  0  0  0
  5  6  1  0  0  0  0
  6  8  1  1  0  0  0
  6  7  1  0  0  0  0
  7 17  1  0  0  0  0
  8  7  1  0  0  0  0
  8 19  1  1  0  0  0
 10  1  1  0  0  0  0
 12  3  1  0  0  0  0
 13  4  1  0  0  0  0
 14  4  1  0  0  0  0
 15  5  1  0  0  0  0
 16  5  1  0  0  0  0
 18  7  1  0  0  0  0
M  END
