19
title
C -0.6569485 2.060783 -0.12453771
C -0.59935564 0.53547144 -0.14273514
O -1.9166048 -0.027741829 -0.08179026
C 0.19185798 -0.040965594 -1.3486578
C 0.7217257 -1.4168556 -0.88285583
C 0.90244293 -1.24075 0.6137079
N 1.5834106 0.029285034 0.96595013
C 0.112299666 -0.0714042 1.0583546
H 0.34942427 2.4786272 -0.033120874
H -1.1030682 2.4495695 -1.0483538
H -1.2627884 2.4088695 0.7177293
H -2.4248042 0.34266773 -0.8110042
H -0.44680706 -0.10971264 -2.2345035
H 1.0270938 0.6206554 -1.5883819
H -0.021935182 -2.2014453 -1.0589288
H 1.6445991 -1.7040902 -1.3961631
H 1.0498008 -2.1046298 1.2537144
H 1.9760901 -0.053139366 1.9001962
H -0.37761435 -0.023988107 2.0252874
