20
title
C -0.6799684 2.0651956 -0.1481951
C -0.58416176 0.53956676 -0.14291911
O -1.8987452 -0.036166675 -0.09198234
C 0.2032118 -0.03935749 -1.3477516
C 0.71109194 -1.4193574 -0.8753969
C 0.91223913 -1.2564892 0.6252675
C 1.634329 -0.01903338 1.0979233
C 0.12610133 -0.044839688 1.0703753
H 0.31117123 2.525271 -0.09333927
H -1.1644275 2.425103 -1.0646782
H -1.2707806 2.4102712 0.7054731
H -2.404741 0.33137125 -0.82462615
H -0.43351445 -0.10241986 -2.2354221
H 1.0394149 0.61920094 -1.6047398
H -0.05514454 -2.1813786 -1.0524857
H 1.6172718 -1.7327878 -1.405019
H 0.9615579 -2.1468427 1.2419928
H 2.101594 -0.061236568 2.0757325
H 2.1776955 0.5912881 0.3832742
H -0.42140803 -0.026722677 2.0056944
