18
title
C -0.65315896 2.0589283 -0.121602245
C -0.60908777 0.53342927 -0.1437686
O -1.9259686 -0.023327721 -0.06312346
C 0.17098998 -0.049356356 -1.3546453
C 0.7195842 -1.4165196 -0.88478094
C 0.89930964 -1.2283727 0.6080344
O 1.5379543 0.014605628 0.95545596
C 0.113814466 -0.07495923 1.0514581
H 0.35649252 2.4709675 -0.03760498
H -1.10247 2.4525552 -1.04169
H -1.2482708 2.4101818 0.7267539
H -2.459225 0.38354525 -0.7539946
H -0.48035613 -0.13273956 -2.2291865
H 0.9969131 0.6164681 -1.6153413
H -0.010230194 -2.2164915 -1.0514592
H 1.6465056 -1.6970863 -1.3939606
H 1.131889 -2.0654285 1.2608231
H -0.3160048 0.023756253 2.0449128
