title
 OpenBabel02282109593D

 20 21  0  0  1  0  0  0  0  0999 V2000
   -0.6800    2.0652   -0.1482 C   0  0  0  0  0  0  0  0  0  0  0  0
   -0.5842    0.5396   -0.1429 C   0  0  1  0  0  0  0  0  0  0  0  0
   -1.8987   -0.0362   -0.0920 O   0  0  0  0  0  0  0  0  0  0  0  0
    0.2032   -0.0394   -1.3478 C   0  0  0  0  0  0  0  0  0  0  0  0
    0.7111   -1.4194   -0.8754 C   0  0  0  0  0  0  0  0  0  0  0  0
    0.9122   -1.2565    0.6253 C   0  0  1  0  0  0  0  0  0  0  0  0
    1.6343   -0.0190    1.0979 C   0  0  0  0  0  0  0  0  0  0  0  0
    0.1261   -0.0448    1.0704 C   0  0  1  0  0  0  0  0  0  0  0  0
    0.3112    2.5253   -0.0933 H   0  0  0  0  0  0  0  0  0  0  0  0
   -1.1644    2.4251   -1.0647 H   0  0  0  0  0  0  0  0  0  0  0  0
   -1.2708    2.4103    0.7055 H   0  0  0  0  0  0  0  0  0  0  0  0
   -2.4047    0.3314   -0.8246 H   0  0  0  0  0  0  0  0  0  0  0  0
   -0.4335   -0.1024   -2.2354 H   0  0  0  0  0  0  0  0  0  0  0  0
    1.0394    0.6192   -1.6047 H   0  0  0  0  0  0  0  0  0  0  0  0
   -0.0551   -2.1814   -1.0525 H   0  0  0  0  0  0  0  0  0  0  0  0
    1.6173   -1.7328   -1.4050 H   0  0  0  0  0  0  0  0  0  0  0  0
    0.9616   -2.1468    1.2420 H   0  0  0  0  0  0  0  0  0  0  0  0
    2.1016   -0.0612    2.0757 H   0  0  0  0  0  0  0  0  0  0  0  0
    2.1777    0.5913    0.3833 H   0  0  0  0  0  0  0  0  0  0  0  0
   -0.4214   -0.0267    2.0057 H   0  0  0  0  0  0  0  0  0  0  0  0
  1  2  1  0  0  0  0
  1  9  1  0  0  0  0
  1 11  1  0  0  0  0
  2  3  1  0  0  0  0
  2  8  1  1  0  0  0
  4  5  1  0  0  0  0
  4  2  1  0  0  0  0
  5  6  1  0  0  0  0
  6  8  1  1  0  0  0
  6  7  1  0  0  0  0
  6 17  1  0  0  0  0
  7 18  1  0  0  0  0
  8  7  1  0  0  0  0
  8 20  1  1  0  0  0
 10  1  1  0  0  0  0
 12  3  1  0  0  0  0
 13  4  1  0  0  0  0
 14  4  1  0  0  0  0
 15  5  1  0  0  0  0
 16  5  1  0  0  0  0
 19  7  1  0  0  0  0
M  END
