18
title
C -0.6522919 2.0666733 -0.16890955
C -0.6091352 0.53963816 -0.121162854
O -1.9327487 0.001288069 -0.060682442
C 0.1891196 -0.08118598 -1.3001139
O 0.73751646 -1.3102505 -0.8407844
C 0.88486856 -1.2186186 0.5530953
C 1.61574 -0.0272318 1.1156268
C 0.09699001 -0.05960541 1.085388
H 0.3507386 2.4975054 -0.103277534
H -1.1064003 2.4178948 -1.1043365
H -1.2505338 2.4491782 0.6625412
H -2.4387932 0.37837285 -0.7882187
H -0.45577487 -0.2921896 -2.1587207
H 0.98676616 0.6009316 -1.6302068
H 0.9411672 -2.1924098 1.0233997
H 2.0815947 -0.14342736 2.0881166
H 2.1550684 0.63014936 0.44175595
H -0.46794719 -0.10330807 2.0081127
