19
title
C -0.6521882 2.0778532 -0.15838382
C -0.5894681 0.5504842 -0.16423053
O -1.9110739 -0.001372014 -0.11178368
C 0.20116694 -0.049935494 -1.3539133
C 0.72463673 -1.3943002 -0.80074644
N 0.8695528 -1.2586446 0.6631085
C 1.5987461 -0.04987428 1.0693163
C 0.114546135 -0.051759873 1.0450977
H 0.34847927 2.5184119 -0.126783
H -1.1527455 2.4503133 -1.0606453
H -1.2157682 2.4305775 0.7103469
H -2.4152865 0.37827158 -0.83933824
H -0.44362417 -0.17971095 -2.227328
H 1.0177183 0.6145676 -1.6523638
H -0.008008705 -2.1877697 -0.97530353
H 1.6735108 -1.7050471 -1.2485374
H 2.1170971 -0.13522652 2.019832
H 2.137745 0.52372986 0.3188362
H -0.4611013 -0.094754614 1.9647945
