title
 OpenBabel02282109593D

 20 21  0  0  1  0  0  0  0  0999 V2000
   -0.6583    1.5373   -1.0746 C   0  0  0  0  0  0  0  0  0  0  0  0
   -0.7954    0.0267   -1.0124 C   0  0  0  0  0  0  0  0  0  0  0  0
   -2.0339   -0.5107   -1.7054 C   0  0  0  0  0  0  0  0  0  0  0  0
    0.4609   -0.8145   -1.0752 C   0  0  0  0  0  0  0  0  0  0  0  0
   -0.3165   -0.7239    0.2168 C   0  0  1  0  0  0  0  0  0  0  0  0
    0.2651   -0.0412    1.4158 C   0  0  1  0  0  0  0  0  0  0  0  0
    1.5669   -0.4325    1.9787 C   0  0  0  0  0  0  0  0  0  0  0  0
    1.4238    0.7772    1.2312 O   0  0  0  0  0  0  0  0  0  0  0  0
    0.2454    1.8861   -0.5720 H   0  0  0  0  0  0  0  0  0  0  0  0
   -0.6186    1.8735   -2.1176 H   0  0  0  0  0  0  0  0  0  0  0  0
   -1.5194    2.0299   -0.6064 H   0  0  0  0  0  0  0  0  0  0  0  0
   -2.0355   -0.2414   -2.7684 H   0  0  0  0  0  0  0  0  0  0  0  0
   -2.0921   -1.6020   -1.6389 H   0  0  0  0  0  0  0  0  0  0  0  0
   -2.9475   -0.0990   -1.2597 H   0  0  0  0  0  0  0  0  0  0  0  0
    0.4371   -1.7480   -1.6277 H   0  0  0  0  0  0  0  0  0  0  0  0
    1.4096   -0.2894   -1.1037 H   0  0  0  0  0  0  0  0  0  0  0  0
   -0.9117   -1.5938    0.4891 H   0  0  0  0  0  0  0  0  0  0  0  0
   -0.4621    0.3912    2.1062 H   0  0  0  0  0  0  0  0  0  0  0  0
    1.7642   -0.3012    3.0415 H   0  0  0  0  0  0  0  0  0  0  0  0
    2.1407   -1.2158    1.4863 H   0  0  0  0  0  0  0  0  0  0  0  0
  1  2  1  0  0  0  0
  1 11  1  0  0  0  0
  1  9  1  0  0  0  0
  2  5  1  0  0  0  0
  3 13  1  0  0  0  0
  3 14  1  0  0  0  0
  3  2  1  0  0  0  0
  4  2  1  0  0  0  0
  4  5  1  0  0  0  0
  5 17  1  1  0  0  0
  5  6  1  0  0  0  0
  6  7  1  0  0  0  0
  6 18  1  1  0  0  0
  7 19  1  0  0  0  0
  8  6  1  0  0  0  0
  8  7  1  0  0  0  0
 10  1  1  0  0  0  0
 12  3  1  0  0  0  0
 15  4  1  0  0  0  0
 16  4  1  0  0  0  0
 20  7  1  0  0  0  0
M  END
