19
title
C -0.65704006 1.549029 -1.1151518
C -0.8617373 0.06483225 -0.9020505
C -2.0108926 -0.5414 -1.6794297
O 0.33660603 -0.74808306 -0.9111472
C -0.38858634 -0.6205541 0.3172788
C 0.3379041 0.052458517 1.4458461
C 1.6256275 -0.5180822 1.9166417
N 1.5970302 0.7613684 1.1862628
H 0.13406134 1.9538504 -0.48373932
H -0.40506712 1.7459402 -2.1630726
H -1.5832734 2.0897121 -0.8921592
H -1.8800266 -0.36771405 -2.753086
H -2.0692086 -1.6197419 -1.513014
H -2.962336 -0.088212706 -1.3812135
H -0.927952 -1.5247288 0.6111148
H -0.31055623 0.5367899 2.1740541
H 1.9023118 -0.44785163 2.964618
H 2.0067308 -1.3939643 1.3978078
H 1.8524983 0.5731046 0.21729262
