21
title
C -0.64933866 1.5421213 -1.3230177
C -0.5521625 0.0368041 -1.155635
C -1.8101374 -0.71395606 -1.5473077
C 0.777001 -0.62719697 -1.3274832
N 0.1540728 -0.55111015 -0.007391591
C 0.77018225 0.27776143 0.9889691
C 0.081969604 0.36742488 2.324617
C 1.3585407 -0.42752683 2.1823282
H 0.2922051 2.05141 -1.1076746
H -0.92863405 1.7863187 -2.353576
H -1.420451 1.9594059 -0.6651149
H -2.04234 -0.56377465 -2.6080282
H -1.6911633 -1.7842488 -1.3632901
H -2.6699266 -0.36399063 -0.964056
H 0.8547288 -1.6206313 -1.7640516
H 1.6346245 0.016957862 -1.5206257
H 1.300004 1.1694504 0.6503948
H 0.11052714 1.311176 2.8577514
H -0.8403339 -0.19137482 2.432217
H 1.2753534 -1.507843 2.1944218
H 2.269758 -0.031500082 2.6167107
