22
title
C -0.68818665 1.6223905 -1.263842
C -0.5875848 0.11027682 -1.1892511
C -1.8185139 -0.6070666 -1.7130547
C 0.7569879 -0.54016024 -1.4334328
C 0.15696724 -0.5486643 -0.042747334
C 0.78579116 0.20789795 1.0850656
C 0.1391852 0.21561252 2.4499853
C 1.4267672 -0.53982246 2.2300339
H 0.22400762 2.118082 -0.9226304
H -0.8695862 1.9443966 -2.2962334
H -1.5183332 1.9950039 -0.65185076
H -2.004202 -0.3567549 -2.7648113
H -1.7085769 -1.6941442 -1.6452167
H -2.7129354 -0.3259135 -1.1439372
H 0.79485273 -1.4702122 -1.9918187
H 1.6100501 0.110535026 -1.602637
H -0.2626725 -1.5023681 0.27363938
H 1.2854671 1.1281142 0.7977033
H 0.16858388 1.1293807 3.0334847
H -0.77048576 -0.3621743 2.578358
H 1.3823813 -1.6240627 2.2118642
H 2.3389425 -0.14216039 2.661353
