title
 OpenBabel02282109593D

 19 20  0  0  1  0  0  0  0  0999 V2000
   -0.6570    1.5490   -1.1152 C   0  0  0  0  0  0  0  0  0  0  0  0
   -0.8617    0.0648   -0.9021 C   0  0  0  0  0  0  0  0  0  0  0  0
   -2.0109   -0.5414   -1.6794 C   0  0  0  0  0  0  0  0  0  0  0  0
    0.3366   -0.7481   -0.9111 O   0  0  0  0  0  0  0  0  0  0  0  0
   -0.3886   -0.6206    0.3173 C   0  0  1  0  0  0  0  0  0  0  0  0
    0.3379    0.0525    1.4458 C   0  0  1  0  0  0  0  0  0  0  0  0
    1.6256   -0.5181    1.9166 C   0  0  0  0  0  0  0  0  0  0  0  0
    1.5970    0.7614    1.1863 N   0  0  0  0  0  0  0  0  0  0  0  0
    0.1341    1.9539   -0.4837 H   0  0  0  0  0  0  0  0  0  0  0  0
   -0.4051    1.7459   -2.1631 H   0  0  0  0  0  0  0  0  0  0  0  0
   -1.5833    2.0897   -0.8922 H   0  0  0  0  0  0  0  0  0  0  0  0
   -1.8800   -0.3677   -2.7531 H   0  0  0  0  0  0  0  0  0  0  0  0
   -2.0692   -1.6197   -1.5130 H   0  0  0  0  0  0  0  0  0  0  0  0
   -2.9623   -0.0882   -1.3812 H   0  0  0  0  0  0  0  0  0  0  0  0
   -0.9280   -1.5247    0.6111 H   0  0  0  0  0  0  0  0  0  0  0  0
   -0.3106    0.5368    2.1741 H   0  0  0  0  0  0  0  0  0  0  0  0
    1.9023   -0.4479    2.9646 H   0  0  0  0  0  0  0  0  0  0  0  0
    2.0067   -1.3940    1.3978 H   0  0  0  0  0  0  0  0  0  0  0  0
    1.8525    0.5731    0.2173 H   0  0  0  0  0  0  0  0  0  0  0  0
  1  2  1  0  0  0  0
  1 11  1  0  0  0  0
  1  9  1  0  0  0  0
  2  5  1  0  0  0  0
  3 13  1  0  0  0  0
  3 14  1  0  0  0  0
  3  2  1  0  0  0  0
  4  2  1  0  0  0  0
  4  5  1  0  0  0  0
  5 15  1  1  0  0  0
  5  6  1  0  0  0  0
  6  7  1  0  0  0  0
  6 16  1  1  0  0  0
  7 17  1  0  0  0  0
  8  6  1  0  0  0  0
  8  7  1  0  0  0  0
 10  1  1  0  0  0  0
 12  3  1  0  0  0  0
 18  7  1  0  0  0  0
 19  8  1  0  0  0  0
M  END
