title
 OpenBabel02282109593D

 19 20  0  0  1  0  0  0  0  0999 V2000
   -1.3110    1.6039   -0.7886 C   0  0  0  0  0  0  0  0  0  0  0  0
   -0.9332    0.1442   -0.9520 C   0  0  0  0  0  0  0  0  0  0  0  0
   -2.0830   -0.7524   -1.3697 C   0  0  0  0  0  0  0  0  0  0  0  0
    0.3905   -0.0937   -1.5554 N   0  0  0  0  0  0  0  0  0  0  0  0
    0.1636   -0.4731   -0.1468 C   0  0  1  0  0  0  0  0  0  0  0  0
    0.9665    0.2453    0.8865 C   0  0  1  0  0  0  0  0  0  0  0  0
    0.8399   -0.0788    2.3137 C   0  0  0  0  0  0  0  0  0  0  0  0
    1.9616   -0.5369    1.5603 O   0  0  0  0  0  0  0  0  0  0  0  0
   -0.4375    2.2230   -0.5780 H   0  0  0  0  0  0  0  0  0  0  0  0
   -1.7707    1.9807   -1.7093 H   0  0  0  0  0  0  0  0  0  0  0  0
   -2.0353    1.7330    0.0234 H   0  0  0  0  0  0  0  0  0  0  0  0
   -2.4790   -0.4430   -2.3443 H   0  0  0  0  0  0  0  0  0  0  0  0
   -1.7680   -1.7981   -1.4466 H   0  0  0  0  0  0  0  0  0  0  0  0
   -2.9071   -0.7020   -0.6494 H   0  0  0  0  0  0  0  0  0  0  0  0
    0.3758   -0.9191   -2.1498 H   0  0  0  0  0  0  0  0  0  0  0  0
    0.0527   -1.5333    0.0792 H   0  0  0  0  0  0  0  0  0  0  0  0
    1.3023    1.2427    0.6085 H   0  0  0  0  0  0  0  0  0  0  0  0
    1.0530    0.6824    3.0632 H   0  0  0  0  0  0  0  0  0  0  0  0
    0.1406   -0.8532    2.6287 H   0  0  0  0  0  0  0  0  0  0  0  0
  1  9  1  0  0  0  0
  1 11  1  0  0  0  0
  2  1  1  0  0  0  0
  2  5  1  0  0  0  0
  3  2  1  0  0  0  0
  3 14  1  0  0  0  0
  4  2  1  0  0  0  0
  4  5  1  0  0  0  0
  5 16  1  1  0  0  0
  5  6  1  0  0  0  0
  6 17  1  6  0  0  0
  6  8  1  0  0  0  0
  6  7  1  0  0  0  0
  7 19  1  0  0  0  0
  7 18  1  0  0  0  0
  8  7  1  0  0  0  0
 10  1  1  0  0  0  0
 12  3  1  0  0  0  0
 13  3  1  0  0  0  0
 15  4  1  0  0  0  0
M  END
