20
title
C -0.6583435 1.5372596 -1.0746344
C -0.7954135 0.026727304 -1.0124185
C -2.033946 -0.51072156 -1.705387
C 0.4608648 -0.8145061 -1.0752257
C -0.31646374 -0.72388655 0.2168314
C 0.26507774 -0.041227736 1.4158401
C 1.5668575 -0.4324779 1.9786975
O 1.4238209 0.7771636 1.2311504
H 0.24538518 1.8860555 -0.5719839
H -0.61861247 1.8734722 -2.1175787
H -1.5194156 2.0298762 -0.60644084
H -2.0355499 -0.24137218 -2.7683816
H -2.0921328 -1.601964 -1.6388695
H -2.9474568 -0.09901837 -1.2597036
H 0.43711868 -1.7480444 -1.6276609
H 1.4096307 -0.28941265 -1.1037112
H -0.91171986 -1.5937505 0.48906857
H -0.46210876 0.39121026 2.1061695
H 1.7641937 -0.30124512 3.0415192
H 2.140708 -1.2158257 1.4863486
