title
 OpenBabel02282109593D

 20 21  0  0  1  0  0  0  0  0999 V2000
   -0.6675    1.6333   -1.2694 C   0  0  0  0  0  0  0  0  0  0  0  0
   -0.5560    0.1297   -1.1619 C   0  0  1  0  0  0  0  0  0  0  0  0
   -1.7246   -0.5519   -1.5541 O   0  0  0  0  0  0  0  0  0  0  0  0
    0.7588   -0.5716   -1.4228 C   0  0  0  0  0  0  0  0  0  0  0  0
    0.1576   -0.5463   -0.0248 C   0  0  1  0  0  0  0  0  0  0  0  0
    0.8123    0.1916    1.0987 C   0  0  0  0  0  0  0  0  0  0  0  0
    0.1608    0.2392    2.4603 C   0  0  0  0  0  0  0  0  0  0  0  0
    1.4147   -0.5738    2.2527 C   0  0  0  0  0  0  0  0  0  0  0  0
    0.2420    2.1362   -0.9313 H   0  0  0  0  0  0  0  0  0  0  0  0
   -0.8390    1.9314   -2.3115 H   0  0  0  0  0  0  0  0  0  0  0  0
   -1.5083    1.9992   -0.6715 H   0  0  0  0  0  0  0  0  0  0  0  0
   -1.8325   -0.4247   -2.5037 H   0  0  0  0  0  0  0  0  0  0  0  0
    0.7276   -1.5075   -1.9696 H   0  0  0  0  0  0  0  0  0  0  0  0
    1.6396    0.0368   -1.6057 H   0  0  0  0  0  0  0  0  0  0  0  0
   -0.3206   -1.4757    0.2746 H   0  0  0  0  0  0  0  0  0  0  0  0
    1.3531    1.0865    0.8039 H   0  0  0  0  0  0  0  0  0  0  0  0
    0.2287    1.1567    3.0346 H   0  0  0  0  0  0  0  0  0  0  0  0
   -0.7745   -0.2957    2.5884 H   0  0  0  0  0  0  0  0  0  0  0  0
    1.3226   -1.6550    2.2422 H   0  0  0  0  0  0  0  0  0  0  0  0
    2.3421   -0.2129    2.6838 H   0  0  0  0  0  0  0  0  0  0  0  0
  1  2  1  0  0  0  0
  1  9  1  0  0  0  0
  1 11  1  0  0  0  0
  2  5  1  1  0  0  0
  3  2  1  0  0  0  0
  4  2  1  0  0  0  0
  4  5  1  0  0  0  0
  5 15  1  1  0  0  0
  5  6  1  0  0  0  0
  6  8  1  0  0  0  0
  6  7  1  0  0  0  0
  7 18  1  0  0  0  0
  7 17  1  0  0  0  0
  8  7  1  0  0  0  0
  8 20  1  0  0  0  0
 10  1  1  0  0  0  0
 12  3  1  0  0  0  0
 13  4  1  0  0  0  0
 14  4  1  0  0  0  0
 16  6  1  0  0  0  0
 19  8  1  0  0  0  0
M  END
