title
 OpenBabel02282109593D

 22 23  0  0  1  0  0  0  0  0999 V2000
   -0.6882    1.6224   -1.2638 C   0  0  0  0  0  0  0  0  0  0  0  0
   -0.5876    0.1103   -1.1893 C   0  0  0  0  0  0  0  0  0  0  0  0
   -1.8185   -0.6071   -1.7131 C   0  0  0  0  0  0  0  0  0  0  0  0
    0.7570   -0.5402   -1.4334 C   0  0  0  0  0  0  0  0  0  0  0  0
    0.1570   -0.5487   -0.0427 C   0  0  1  0  0  0  0  0  0  0  0  0
    0.7858    0.2079    1.0851 C   0  0  0  0  0  0  0  0  0  0  0  0
    0.1392    0.2156    2.4500 C   0  0  0  0  0  0  0  0  0  0  0  0
    1.4268   -0.5398    2.2300 C   0  0  0  0  0  0  0  0  0  0  0  0
    0.2240    2.1181   -0.9226 H   0  0  0  0  0  0  0  0  0  0  0  0
   -0.8696    1.9444   -2.2962 H   0  0  0  0  0  0  0  0  0  0  0  0
   -1.5183    1.9950   -0.6519 H   0  0  0  0  0  0  0  0  0  0  0  0
   -2.0042   -0.3568   -2.7648 H   0  0  0  0  0  0  0  0  0  0  0  0
   -1.7086   -1.6941   -1.6452 H   0  0  0  0  0  0  0  0  0  0  0  0
   -2.7129   -0.3259   -1.1439 H   0  0  0  0  0  0  0  0  0  0  0  0
    0.7949   -1.4702   -1.9918 H   0  0  0  0  0  0  0  0  0  0  0  0
    1.6101    0.1105   -1.6026 H   0  0  0  0  0  0  0  0  0  0  0  0
   -0.2627   -1.5024    0.2736 H   0  0  0  0  0  0  0  0  0  0  0  0
    1.2855    1.1281    0.7977 H   0  0  0  0  0  0  0  0  0  0  0  0
    0.1686    1.1294    3.0335 H   0  0  0  0  0  0  0  0  0  0  0  0
   -0.7705   -0.3622    2.5784 H   0  0  0  0  0  0  0  0  0  0  0  0
    1.3824   -1.6241    2.2119 H   0  0  0  0  0  0  0  0  0  0  0  0
    2.3389   -0.1422    2.6614 H   0  0  0  0  0  0  0  0  0  0  0  0
  1  2  1  0  0  0  0
  1  9  1  0  0  0  0
  1 11  1  0  0  0  0
  2  5  1  0  0  0  0
  3 13  1  0  0  0  0
  3  2  1  0  0  0  0
  3 14  1  0  0  0  0
  4  2  1  0  0  0  0
  4  5  1  0  0  0  0
  5 17  1  1  0  0  0
  5  6  1  0  0  0  0
  6  8  1  0  0  0  0
  6  7  1  0  0  0  0
  7 20  1  0  0  0  0
  7 19  1  0  0  0  0
  8  7  1  0  0  0  0
  8 22  1  0  0  0  0
 10  1  1  0  0  0  0
 12  3  1  0  0  0  0
 15  4  1  0  0  0  0
 16  4  1  0  0  0  0
 18  6  1  0  0  0  0
 21  8  1  0  0  0  0
M  END
