18
title
C -0.3825522 1.884337 -0.13486485
C -0.2726061 0.3542002 -0.14936033
C 0.83215284 -0.28591534 -1.0900407
C 1.4614693 -0.97083807 0.12687472
C 1.8869689 0.05559747 1.1354882
C 0.4347561 -0.32518992 1.0541382
C -1.5797999 -0.24323179 -0.38884494
C -2.6648583 -0.727211 -0.5771528
H 0.5905552 2.3471959 0.050306607
H -0.75775677 2.2507558 -1.0953823
H -1.0747565 2.214108 0.6456912
H 0.39652163 -0.9755397 -1.8131759
H 1.4691008 0.43218452 -1.6175976
H 1.8425176 -1.984094 0.14133638
H 2.4037392 -0.33159664 2.008029
H 2.2375288 1.0338255 0.8161439
H -0.09652476 -0.75391936 1.8947976
H -3.621279 -1.1556797 -0.7470003
