16
title
C -0.33658513 1.8811035 -0.09603224
C -0.2690755 0.352851 -0.14846037
C 0.82782096 -0.30132 -1.0979453
C 1.4465537 -0.96712047 0.13247907
N 1.8256549 0.13558331 1.0478281
C 0.43565735 -0.36388394 1.0368243
C -1.5852048 -0.22837165 -0.39536154
N -2.629877 -0.6880055 -0.58198756
H 0.65224123 2.2696333 0.15394235
H -0.6486692 2.2879164 -1.0621903
H -1.0526539 2.2146873 0.6607031
H 0.39095894 -1.0032543 -1.8085233
H 1.4685922 0.41424733 -1.6176368
H 1.9366764 -1.930358 0.18570235
H 2.2841024 -0.2774258 1.8592107
H -0.042130392 -0.7467057 1.9295635
