title
 OpenBabel02282109593D

 15 16  0  0  1  0  0  0  0  0999 V2000
   -0.3363    1.8724   -0.0980 C   0  0  0  0  0  0  0  0  0  0  0  0
   -0.2832    0.3444   -0.1588 C   0  0  1  0  0  0  0  0  0  0  0  0
    0.8137   -0.3086   -1.1072 C   0  0  0  0  0  0  0  0  0  0  0  0
    1.4456   -0.9475    0.1325 C   0  0  1  0  0  0  0  0  0  0  0  0
    1.7785    0.1176    1.0358 O   0  0  0  0  0  0  0  0  0  0  0  0
    0.4409   -0.3637    1.0292 C   0  0  1  0  0  0  0  0  0  0  0  0
   -1.6009   -0.2352   -0.3932 C   0  0  0  0  0  0  0  0  0  0  0  0
   -2.6459   -0.7005   -0.5632 N   0  0  0  0  0  0  0  0  0  0  0  0
    0.6569    2.2510    0.1517 H   0  0  0  0  0  0  0  0  0  0  0  0
   -0.6437    2.2881   -1.0616 H   0  0  0  0  0  0  0  0  0  0  0  0
   -1.0471    2.2104    0.6615 H   0  0  0  0  0  0  0  0  0  0  0  0
    0.3834   -1.0290   -1.8040 H   0  0  0  0  0  0  0  0  0  0  0  0
    1.4462    0.4024   -1.6428 H   0  0  0  0  0  0  0  0  0  0  0  0
    2.0163   -1.8640    0.2141 H   0  0  0  0  0  0  0  0  0  0  0  0
    0.0072   -0.7025    1.9624 H   0  0  0  0  0  0  0  0  0  0  0  0
  1  9  1  0  0  0  0
  1 11  1  0  0  0  0
  2  1  1  0  0  0  0
  2  6  1  1  0  0  0
  3  2  1  0  0  0  0
  3  4  1  0  0  0  0
  4 14  1  0  0  0  0
  4  6  1  1  0  0  0
  4  5  1  0  0  0  0
  6  5  1  0  0  0  0
  6 15  1  1  0  0  0
  7  2  1  0  0  0  0
  8  7  3  0  0  0  0
 10  1  1  0  0  0  0
 12  3  1  0  0  0  0
 13  3  1  0  0  0  0
M  END
