17
title
C -0.3391285 1.8751595 -0.100509904
C -0.28718933 0.3453529 -0.15404242
C 0.81955945 -0.2986572 -1.1017683
C 1.4388812 -0.9641531 0.12783612
N 1.8210225 0.13759707 1.046229
C 0.42812246 -0.3617836 1.0311556
C -1.6010504 -0.23121755 -0.39558676
C -2.691787 -0.7015106 -0.5858872
H 0.65122145 2.2649395 0.1435078
H -0.6567641 2.2822928 -1.0651984
H -1.0515833 2.2120519 0.658694
H 0.38411397 -1.0011756 -1.812552
H 1.4632151 0.41609594 -1.6203315
H 1.9320965 -1.9263713 0.18181087
H 2.2767427 -0.28332928 1.8553997
H -0.04618902 -0.7487655 1.9244975
H -3.6546369 -1.1144509 -0.7578191
