title
 OpenBabel02282109593D

 16 17  0  0  1  0  0  0  0  0999 V2000
   -0.3366    1.8811   -0.0960 C   0  0  0  0  0  0  0  0  0  0  0  0
   -0.2691    0.3529   -0.1485 C   0  0  1  0  0  0  0  0  0  0  0  0
    0.8278   -0.3013   -1.0979 C   0  0  0  0  0  0  0  0  0  0  0  0
    1.4466   -0.9671    0.1325 C   0  0  1  0  0  0  0  0  0  0  0  0
    1.8257    0.1356    1.0478 N   0  0  0  0  0  0  0  0  0  0  0  0
    0.4357   -0.3639    1.0368 C   0  0  1  0  0  0  0  0  0  0  0  0
   -1.5852   -0.2284   -0.3954 C   0  0  0  0  0  0  0  0  0  0  0  0
   -2.6299   -0.6880   -0.5820 N   0  0  0  0  0  0  0  0  0  0  0  0
    0.6522    2.2696    0.1539 H   0  0  0  0  0  0  0  0  0  0  0  0
   -0.6487    2.2879   -1.0622 H   0  0  0  0  0  0  0  0  0  0  0  0
   -1.0527    2.2147    0.6607 H   0  0  0  0  0  0  0  0  0  0  0  0
    0.3910   -1.0033   -1.8085 H   0  0  0  0  0  0  0  0  0  0  0  0
    1.4686    0.4142   -1.6176 H   0  0  0  0  0  0  0  0  0  0  0  0
    1.9367   -1.9304    0.1857 H   0  0  0  0  0  0  0  0  0  0  0  0
    2.2841   -0.2774    1.8592 H   0  0  0  0  0  0  0  0  0  0  0  0
   -0.0421   -0.7467    1.9296 H   0  0  0  0  0  0  0  0  0  0  0  0
  1  9  1  0  0  0  0
  1 11  1  0  0  0  0
  2  1  1  0  0  0  0
  2  6  1  1  0  0  0
  3  2  1  0  0  0  0
  3  4  1  0  0  0  0
  4 14  1  0  0  0  0
  4  6  1  1  0  0  0
  4  5  1  0  0  0  0
  5 15  1  0  0  0  0
  6  5  1  0  0  0  0
  6 16  1  1  0  0  0
  7  2  1  0  0  0  0
  8  7  3  0  0  0  0
 10  1  1  0  0  0  0
 12  3  1  0  0  0  0
 13  3  1  0  0  0  0
M  END
