title
 OpenBabel02282109593D

 18 19  0  0  1  0  0  0  0  0999 V2000
   -0.5867    1.5549   -1.0996 C   0  0  0  0  0  0  0  0  0  0  0  0
   -0.7552    0.0570   -0.9854 C   0  0  1  0  0  0  0  0  0  0  0  0
   -1.9538   -0.4317   -1.5381 O   0  0  0  0  0  0  0  0  0  0  0  0
    0.4459   -0.8603   -1.0502 C   0  0  0  0  0  0  0  0  0  0  0  0
   -0.3354   -0.7055    0.2407 C   0  0  1  0  0  0  0  0  0  0  0  0
    0.2739   -0.0443    1.4364 C   0  0  1  0  0  0  0  0  0  0  0  0
    1.5711   -0.4687    1.9832 C   0  0  0  0  0  0  0  0  0  0  0  0
    1.4519    0.7427    1.2337 O   0  0  0  0  0  0  0  0  0  0  0  0
    0.3284    1.8920   -0.6096 H   0  0  0  0  0  0  0  0  0  0  0  0
   -0.5361    1.8526   -2.1547 H   0  0  0  0  0  0  0  0  0  0  0  0
   -1.4405    2.0707   -0.6479 H   0  0  0  0  0  0  0  0  0  0  0  0
   -1.9242   -0.2694   -2.4878 H   0  0  0  0  0  0  0  0  0  0  0  0
    0.3363   -1.7918   -1.5937 H   0  0  0  0  0  0  0  0  0  0  0  0
    1.4288   -0.4025   -1.0854 H   0  0  0  0  0  0  0  0  0  0  0  0
   -1.0042   -1.5246    0.4917 H   0  0  0  0  0  0  0  0  0  0  0  0
   -0.4356    0.4081    2.1316 H   0  0  0  0  0  0  0  0  0  0  0  0
    1.7842   -0.3401    3.0432 H   0  0  0  0  0  0  0  0  0  0  0  0
    2.1175   -1.2684    1.4862 H   0  0  0  0  0  0  0  0  0  0  0  0
  1  2  1  0  0  0  0
  1 11  1  0  0  0  0
  1  9  1  0  0  0  0
  2  5  1  1  0  0  0
  3  2  1  0  0  0  0
  4  2  1  0  0  0  0
  4  5  1  0  0  0  0
  5 15  1  1  0  0  0
  5  6  1  0  0  0  0
  6  7  1  0  0  0  0
  6 16  1  1  0  0  0
  7 17  1  0  0  0  0
  8  6  1  0  0  0  0
  8  7  1  0  0  0  0
 10  1  1  0  0  0  0
 12  3  1  0  0  0  0
 13  4  1  0  0  0  0
 14  4  1  0  0  0  0
 18  7  1  0  0  0  0
M  END
