title
 OpenBabel02282109593D

 17 18  0  0  1  0  0  0  0  0999 V2000
   -0.3871    1.8905   -0.1326 C   0  0  0  0  0  0  0  0  0  0  0  0
   -0.2548    0.3632   -0.1429 C   0  0  1  0  0  0  0  0  0  0  0  0
    0.8406   -0.2860   -1.0857 C   0  0  0  0  0  0  0  0  0  0  0  0
    1.4679   -0.9730    0.1316 C   0  0  1  0  0  0  0  0  0  0  0  0
    1.8957    0.0538    1.1371 C   0  0  0  0  0  0  0  0  0  0  0  0
    0.4425   -0.3230    1.0597 C   0  0  1  0  0  0  0  0  0  0  0  0
   -1.5621   -0.2446   -0.3869 C   0  0  0  0  0  0  0  0  0  0  0  0
   -2.6004   -0.7183   -0.5739 N   0  0  0  0  0  0  0  0  0  0  0  0
    0.5827    2.3570    0.0558 H   0  0  0  0  0  0  0  0  0  0  0  0
   -0.7605    2.2533   -1.0948 H   0  0  0  0  0  0  0  0  0  0  0  0
   -1.0828    2.2157    0.6463 H   0  0  0  0  0  0  0  0  0  0  0  0
    0.4040   -0.9735   -1.8103 H   0  0  0  0  0  0  0  0  0  0  0  0
    1.4753    0.4332   -1.6128 H   0  0  0  0  0  0  0  0  0  0  0  0
    1.8420   -1.9883    0.1449 H   0  0  0  0  0  0  0  0  0  0  0  0
    2.4082   -0.3325    2.0122 H   0  0  0  0  0  0  0  0  0  0  0  0
    2.2491    1.0305    0.8166 H   0  0  0  0  0  0  0  0  0  0  0  0
   -0.0909   -0.7450    1.9019 H   0  0  0  0  0  0  0  0  0  0  0  0
  1  9  1  0  0  0  0
  1 11  1  0  0  0  0
  2  1  1  0  0  0  0
  2  6  1  1  0  0  0
  3  2  1  0  0  0  0
  3  4  1  0  0  0  0
  4 14  1  0  0  0  0
  4  6  1  1  0  0  0
  4  5  1  0  0  0  0
  5 15  1  0  0  0  0
  6  5  1  0  0  0  0
  6 17  1  1  0  0  0
  7  2  1  0  0  0  0
  8  7  3  0  0  0  0
 10  1  1  0  0  0  0
 12  3  1  0  0  0  0
 13  3  1  0  0  0  0
 16  5  1  0  0  0  0
M  END
