19
title
C -0.5974427 1.6771357 -1.1597979
C -0.5379451 0.16886504 -1.1313689
O -1.7013578 -0.47524285 -1.5917808
C 0.7748874 -0.55174583 -1.3609054
C 0.11721278 -0.5614404 0.0048743705
N 0.7408646 0.19280307 1.0546482
C 0.116067 0.11480052 2.372632
C 1.406052 -0.5782727 2.1013718
H 0.2753296 2.1076155 -0.6654089
H -0.63148135 2.0460737 -2.1924646
H -1.4976552 2.0284388 -0.6451067
H -1.7683159 -0.31351596 -2.5396347
H 0.7509293 -1.4718087 -1.9339871
H 1.6726973 0.047253434 -1.4678844
H -0.37835884 -1.4930722 0.29046145
H 0.09471495 1.0402157 2.941029
H -0.77199453 -0.50577646 2.477386
H 1.3828176 -1.6638482 2.0250273
H 2.3422403 -0.16706443 2.468198
