title
 OpenBabel02282109593D

 17 18  0  0  1  0  0  0  0  0999 V2000
   -0.4169    1.8395   -0.1645 C   0  0  0  0  0  0  0  0  0  0  0  0
   -0.2535    0.3192   -0.1795 C   0  0  1  0  0  0  0  0  0  0  0  0
    0.8389   -0.3111   -1.1156 C   0  0  0  0  0  0  0  0  0  0  0  0
    1.4721   -0.8813    0.1478 C   0  0  1  0  0  0  0  0  0  0  0  0
    1.8070    0.1877    1.1021 C   0  0  0  0  0  0  0  0  0  0  0  0
    0.4093   -0.2918    1.0596 N   0  0  1  0  0  0  0  0  0  0  0  0
   -1.5536   -0.3161   -0.3592 C   0  0  0  0  0  0  0  0  0  0  0  0
   -2.6289   -0.8243   -0.5323 C   0  0  0  0  0  0  0  0  0  0  0  0
    0.5441    2.3539   -0.0906 H   0  0  0  0  0  0  0  0  0  0  0  0
   -0.9064    2.1693   -1.0854 H   0  0  0  0  0  0  0  0  0  0  0  0
   -1.0412    2.1396    0.6818 H   0  0  0  0  0  0  0  0  0  0  0  0
    0.4246   -1.0609   -1.7886 H   0  0  0  0  0  0  0  0  0  0  0  0
    1.4530    0.3894   -1.6895 H   0  0  0  0  0  0  0  0  0  0  0  0
    1.8116   -1.9044    0.2691 H   0  0  0  0  0  0  0  0  0  0  0  0
    2.2979   -0.0937    2.0287 H   0  0  0  0  0  0  0  0  0  0  0  0
    2.0646    1.1805    0.7441 H   0  0  0  0  0  0  0  0  0  0  0  0
   -3.5780   -1.2791   -0.6733 H   0  0  0  0  0  0  0  0  0  0  0  0
  1  9  1  0  0  0  0
  1 11  1  0  0  0  0
  2  1  1  0  0  0  0
  2  6  1  1  0  0  0
  3  2  1  0  0  0  0
  3  4  1  0  0  0  0
  4 14  1  0  0  0  0
  4  6  1  1  0  0  0
  4  5  1  0  0  0  0
  5 15  1  0  0  0  0
  6  5  1  1  0  0  0
  7  2  1  0  0  0  0
  8  7  3  0  0  0  0
 10  1  1  0  0  0  0
 12  3  1  0  0  0  0
 13  3  1  0  0  0  0
 16  5  1  0  0  0  0
 17  8  1  0  0  0  0
M  END
