title
 OpenBabel02282109593D

 16 17  0  0  1  0  0  0  0  0999 V2000
   -0.3673    1.8720   -0.1580 C   0  0  0  0  0  0  0  0  0  0  0  0
   -0.2711    0.3532   -0.0949 C   0  0  1  0  0  0  0  0  0  0  0  0
    0.7680   -0.1783   -0.9927 O   0  0  0  0  0  0  0  0  0  0  0  0
    1.3511   -0.9148    0.0872 C   0  0  1  0  0  0  0  0  0  0  0  0
    1.8992    0.0108    1.1227 C   0  0  0  0  0  0  0  0  0  0  0  0
    0.4197   -0.3205    1.1102 C   0  0  1  0  0  0  0  0  0  0  0  0
   -1.5569   -0.2726   -0.3947 C   0  0  0  0  0  0  0  0  0  0  0  0
   -2.6262   -0.7720   -0.6215 C   0  0  0  0  0  0  0  0  0  0  0  0
    0.5879    2.3318    0.1040 H   0  0  0  0  0  0  0  0  0  0  0  0
   -0.6402    2.1845   -1.1698 H   0  0  0  0  0  0  0  0  0  0  0  0
   -1.1372    2.2287    0.5321 H   0  0  0  0  0  0  0  0  0  0  0  0
    1.6777   -1.9289   -0.1083 H   0  0  0  0  0  0  0  0  0  0  0  0
    2.4432   -0.4621    1.9351 H   0  0  0  0  0  0  0  0  0  0  0  0
    2.2693    0.9887    0.8313 H   0  0  0  0  0  0  0  0  0  0  0  0
   -0.1027   -0.7718    1.9416 H   0  0  0  0  0  0  0  0  0  0  0  0
   -3.5663   -1.2188   -0.8332 H   0  0  0  0  0  0  0  0  0  0  0  0
  1  2  1  0  0  0  0
  1  9  1  0  0  0  0
  1 11  1  0  0  0  0
  2  6  1  1  0  0  0
  3  2  1  0  0  0  0
  3  4  1  0  0  0  0
  4  6  1  1  0  0  0
  4  5  1  0  0  0  0
  5 13  1  0  0  0  0
  6  5  1  0  0  0  0
  6 15  1  1  0  0  0
  7  2  1  0  0  0  0
  8  7  3  0  0  0  0
 10  1  1  0  0  0  0
 12  4  1  0  0  0  0
 14  5  1  0  0  0  0
 16  8  1  0  0  0  0
M  END
