16
title
N 0.18842475 1.792887 -0.15768561
C 0.23898147 0.33443633 -0.14307061
C 0.5295452 -0.30414268 1.2693458
C -0.83839566 -0.99114645 1.2229651
C -1.9260339 0.028906228 1.0608848
C -1.1308846 -0.37888435 -0.14705697
C 1.1294389 -0.21327397 -1.1789331
N 1.8368943 -0.5987306 -2.009403
H 1.12599 2.1737556 -0.057371154
H -0.16249022 2.1201935 -1.0543574
H 1.3728331 -0.99487066 1.2416409
H 0.6796739 0.4298402 2.0659955
H -1.0344774 -2.0007 1.559633
H -2.9378874 -0.36226973 1.0816936
H -1.8123938 1.0282242 1.4687881
H -1.5749881 -0.82723176 -1.0263926
