title
 OpenBabel02282109593D

 16 17  0  0  1  0  0  0  0  0999 V2000
   -0.4033    1.9017   -0.1620 C   0  0  0  0  0  0  0  0  0  0  0  0
   -0.2498    0.3838   -0.1164 C   0  0  1  0  0  0  0  0  0  0  0  0
    0.8363   -0.1738   -1.0160 N   0  0  0  0  0  0  0  0  0  0  0  0
    1.3751   -0.9535    0.1257 C   0  0  1  0  0  0  0  0  0  0  0  0
    1.9143    0.0155    1.1235 C   0  0  0  0  0  0  0  0  0  0  0  0
    0.4310   -0.2814    1.1044 C   0  0  1  0  0  0  0  0  0  0  0  0
   -1.5342   -0.2730   -0.3838 C   0  0  0  0  0  0  0  0  0  0  0  0
   -2.5422   -0.7915   -0.6136 N   0  0  0  0  0  0  0  0  0  0  0  0
    0.5564    2.3755    0.0524 H   0  0  0  0  0  0  0  0  0  0  0  0
   -0.7335    2.2235   -1.1536 H   0  0  0  0  0  0  0  0  0  0  0  0
   -1.1401    2.2368    0.5740 H   0  0  0  0  0  0  0  0  0  0  0  0
    0.4342   -0.7737   -1.7296 H   0  0  0  0  0  0  0  0  0  0  0  0
    1.6863   -1.9853    0.0251 H   0  0  0  0  0  0  0  0  0  0  0  0
    2.4284   -0.4174    1.9758 H   0  0  0  0  0  0  0  0  0  0  0  0
    2.3100    0.9672    0.7823 H   0  0  0  0  0  0  0  0  0  0  0  0
   -0.1048   -0.6636    1.9624 H   0  0  0  0  0  0  0  0  0  0  0  0
  1  2  1  0  0  0  0
  1  9  1  0  0  0  0
  1 11  1  0  0  0  0
  2  6  1  1  0  0  0
  3  2  1  0  0  0  0
  3  4  1  0  0  0  0
  4  6  1  1  0  0  0
  4  5  1  0  0  0  0
  5 14  1  0  0  0  0
  6  5  1  0  0  0  0
  6 16  1  1  0  0  0
  7  2  1  0  0  0  0
  8  7  3  0  0  0  0
 10  1  1  0  0  0  0
 12  3  1  0  0  0  0
 13  4  1  0  0  0  0
 15  5  1  0  0  0  0
M  END
