title
 OpenBabel02282109593D

 15 16  0  0  1  0  0  0  0  0999 V2000
    0.1909    1.8131   -0.1471 N   0  0  0  0  0  0  0  0  0  0  0  0
    0.2430    0.3547   -0.1554 C   0  0  1  0  0  0  0  0  0  0  0  0
    0.4771   -0.3207    1.2362 C   0  0  0  0  0  0  0  0  0  0  0  0
   -0.8304   -1.0571    1.1790 N   0  0  1  0  0  0  0  0  0  0  0  0
   -1.8700   -0.0174    1.0822 C   0  0  0  0  0  0  0  0  0  0  0  0
   -1.1197   -0.3604   -0.1389 C   0  0  1  0  0  0  0  0  0  0  0  0
    1.1346   -0.1801   -1.1956 C   0  0  0  0  0  0  0  0  0  0  0  0
    1.8481   -0.5475   -2.0286 N   0  0  0  0  0  0  0  0  0  0  0  0
    1.1283    2.1895   -0.0272 H   0  0  0  0  0  0  0  0  0  0  0  0
   -0.1425    2.1548   -1.0455 H   0  0  0  0  0  0  0  0  0  0  0  0
    1.3097   -1.0241    1.2472 H   0  0  0  0  0  0  0  0  0  0  0  0
    0.5623    0.3841    2.0683 H   0  0  0  0  0  0  0  0  0  0  0  0
   -2.8739   -0.4209    1.1679 H   0  0  0  0  0  0  0  0  0  0  0  0
   -1.7092    0.9470    1.5553 H   0  0  0  0  0  0  0  0  0  0  0  0
   -1.5440   -0.8853   -0.9875 H   0  0  0  0  0  0  0  0  0  0  0  0
  1  9  1  0  0  0  0
  2  1  1  0  0  0  0
  2  6  1  6  0  0  0
  2  3  1  0  0  0  0
  3 11  1  0  0  0  0
  3 12  1  0  0  0  0
  4  6  1  6  0  0  0
  4  3  1  0  0  0  0
  5 13  1  0  0  0  0
  5  4  1  0  0  0  0
  5 14  1  0  0  0  0
  6 15  1  6  0  0  0
  6  5  1  0  0  0  0
  7  2  1  0  0  0  0
  8  7  3  0  0  0  0
 10  1  1  0  0  0  0
M  END
