title
 OpenBabel02282109593D

 15 16  0  0  1  0  0  0  0  0999 V2000
    0.1672    1.7232   -0.2401 O   0  0  0  0  0  0  0  0  0  0  0  0
    0.2350    0.3191   -0.1417 C   0  0  1  0  0  0  0  0  0  0  0  0
    0.5123   -0.3220    1.2785 C   0  0  0  0  0  0  0  0  0  0  0  0
   -0.8648   -0.9879    1.2137 C   0  0  1  0  0  0  0  0  0  0  0  0
   -1.9246    0.0597    1.0595 C   0  0  0  0  0  0  0  0  0  0  0  0
   -1.1397   -0.3550   -0.1544 C   0  0  1  0  0  0  0  0  0  0  0  0
    1.1389   -0.2275   -1.1659 C   0  0  0  0  0  0  0  0  0  0  0  0
    1.8739   -0.6311   -1.9618 N   0  0  0  0  0  0  0  0  0  0  0  0
    1.0626    2.0802   -0.2128 H   0  0  0  0  0  0  0  0  0  0  0  0
    1.3515   -1.0184    1.2627 H   0  0  0  0  0  0  0  0  0  0  0  0
    0.6576    0.4133    2.0755 H   0  0  0  0  0  0  0  0  0  0  0  0
   -1.0810   -1.9977    1.5352 H   0  0  0  0  0  0  0  0  0  0  0  0
   -2.9479   -0.3006    1.0675 H   0  0  0  0  0  0  0  0  0  0  0  0
   -1.7905    1.0502    1.4831 H   0  0  0  0  0  0  0  0  0  0  0  0
   -1.6023   -0.7725   -1.0387 H   0  0  0  0  0  0  0  0  0  0  0  0
  1  9  1  0  0  0  0
  1  2  1  0  0  0  0
  2  6  1  6  0  0  0
  2  3  1  0  0  0  0
  3 11  1  0  0  0  0
  4  6  1  6  0  0  0
  4  3  1  0  0  0  0
  4 12  1  0  0  0  0
  5 13  1  0  0  0  0
  5  4  1  0  0  0  0
  5 14  1  0  0  0  0
  6 15  1  6  0  0  0
  6  5  1  0  0  0  0
  7  2  1  0  0  0  0
  8  7  3  0  0  0  0
 10  3  1  0  0  0  0
M  END
