15
title
O 0.16720542 1.7232175 -0.24013981
C 0.2349696 0.31913543 -0.14173535
C 0.51227325 -0.32203564 1.2785186
C -0.8647778 -0.9879038 1.2136549
C -1.9246235 0.05970899 1.0595101
C -1.1397105 -0.3550165 -0.15442581
C 1.1388978 -0.22753479 -1.165864
N 1.873898 -0.63107413 -1.9617939
H 1.0625542 2.0802054 -0.21278684
H 1.3515339 -1.0184426 1.2627456
H 0.6576343 0.41333953 2.0755258
H -1.0809969 -1.9977396 1.5351646
H -2.947864 -0.30058584 1.0674895
H -1.7904758 1.0502343 1.4831418
H -1.6022704 -0.77254254 -1.0387063
