18
title
C -0.3003107 1.9748831 0.19005805
C -0.24723925 0.45907468 -0.005022485
C 0.7012844 -0.1460172 -1.0905311
C 1.3862661 -0.9940729 -0.011760328
C 1.9786737 -0.10649422 1.0441576
C 0.49904802 -0.37952098 1.0687336
C -1.6619852 -0.0797683 -0.11793396
O -2.071936 -0.83647704 -0.9595266
H 0.69194317 2.377969 0.40799615
H -0.6755873 2.474976 -0.7096818
H -0.9592409 2.2441955 1.0239451
H 0.13211283 -0.7287102 -1.8159686
H 1.3452258 0.56780154 -1.6137571
H 1.6847247 -2.0283408 -0.12749255
H 2.5416884 -0.61094445 1.8233489
H 2.3674743 0.8753161 0.7851289
H 0.022336628 -0.85436654 1.9192514
H -2.3350585 0.28307396 0.6953184
