title
 OpenBabel02282109593D

 14 15  0  0  1  0  0  0  0  0999 V2000
    0.1883    1.7379   -0.2261 O   0  0  0  0  0  0  0  0  0  0  0  0
    0.2731    0.3350   -0.1590 C   0  0  1  0  0  0  0  0  0  0  0  0
    0.5438   -0.3294    1.2652 C   0  0  0  0  0  0  0  0  0  0  0  0
   -0.8251   -1.0035    1.1416 C   0  0  1  0  0  0  0  0  0  0  0  0
   -1.7886    0.0495    1.0393 O   0  0  0  0  0  0  0  0  0  0  0  0
   -1.1120   -0.3518   -0.1461 C   0  0  1  0  0  0  0  0  0  0  0  0
    1.1453   -0.2139   -1.1918 C   0  0  0  0  0  0  0  0  0  0  0  0
    1.8766   -0.6360   -2.0482 C   0  0  0  0  0  0  0  0  0  0  0  0
    1.0703    2.0824   -0.4028 H   0  0  0  0  0  0  0  0  0  0  0  0
    1.3974   -1.0085    1.2588 H   0  0  0  0  0  0  0  0  0  0  0  0
    0.6199    0.3895    2.0830 H   0  0  0  0  0  0  0  0  0  0  0  0
   -1.1601   -1.9585    1.5261 H   0  0  0  0  0  0  0  0  0  0  0  0
   -1.7059   -0.6503   -1.0017 H   0  0  0  0  0  0  0  0  0  0  0  0
    2.5177   -1.0130   -2.8067 H   0  0  0  0  0  0  0  0  0  0  0  0
  1  2  1  0  0  0  0
  2  6  1  6  0  0  0
  2  3  1  0  0  0  0
  3 11  1  0  0  0  0
  4  6  1  6  0  0  0
  4  3  1  0  0  0  0
  4 12  1  0  0  0  0
  5  4  1  0  0  0  0
  6 13  1  6  0  0  0
  6  5  1  0  0  0  0
  7  2  1  0  0  0  0
  8  7  3  0  0  0  0
  9  1  1  0  0  0  0
 10  3  1  0  0  0  0
 14  8  1  0  0  0  0
M  END
