title
 OpenBabel02282109593D

 14 15  0  0  1  0  0  0  0  0999 V2000
    0.2343    1.6952   -0.2202 O   0  0  0  0  0  0  0  0  0  0  0  0
    0.2630    0.3009   -0.1579 C   0  0  1  0  0  0  0  0  0  0  0  0
    0.5451   -0.3660    1.2622 C   0  0  0  0  0  0  0  0  0  0  0  0
   -0.8676   -0.9432    1.2211 C   0  0  1  0  0  0  0  0  0  0  0  0
   -1.7773    0.2179    1.0406 N   0  0  0  0  0  0  0  0  0  0  0  0
   -1.1231   -0.3974   -0.1354 C   0  0  1  0  0  0  0  0  0  0  0  0
    1.1478   -0.2076   -1.2059 C   0  0  0  0  0  0  0  0  0  0  0  0
    1.8330   -0.6573   -2.0199 N   0  0  0  0  0  0  0  0  0  0  0  0
   -0.5087    1.9472    0.3496 H   0  0  0  0  0  0  0  0  0  0  0  0
    1.3282   -1.1236    1.2130 H   0  0  0  0  0  0  0  0  0  0  0  0
    0.7565    0.3518    2.0575 H   0  0  0  0  0  0  0  0  0  0  0  0
   -1.2247   -1.8620    1.6663 H   0  0  0  0  0  0  0  0  0  0  0  0
   -2.7392   -0.1153    1.0692 H   0  0  0  0  0  0  0  0  0  0  0  0
   -1.6890   -0.7749   -0.9770 H   0  0  0  0  0  0  0  0  0  0  0  0
  1  2  1  0  0  0  0
  1  9  1  0  0  0  0
  2  6  1  6  0  0  0
  2  3  1  0  0  0  0
  3 11  1  0  0  0  0
  4  6  1  6  0  0  0
  4  3  1  0  0  0  0
  4 12  1  0  0  0  0
  5 13  1  0  0  0  0
  5  4  1  0  0  0  0
  6 14  1  6  0  0  0
  6  5  1  0  0  0  0
  7  2  1  0  0  0  0
  8  7  3  0  0  0  0
 10  3  1  0  0  0  0
M  END
