title
 OpenBabel02282109593D

 17 18  0  0  1  0  0  0  0  0999 V2000
   -0.3607    1.9069    0.1159 C   0  0  0  0  0  0  0  0  0  0  0  0
   -0.2208    0.3966   -0.0366 C   0  0  1  0  0  0  0  0  0  0  0  0
    0.7196   -0.2060   -1.1098 C   0  0  0  0  0  0  0  0  0  0  0  0
    1.4267   -0.9154    0.0427 C   0  0  1  0  0  0  0  0  0  0  0  0
    1.9141    0.0487    1.0450 C   0  0  0  0  0  0  0  0  0  0  0  0
    0.4889   -0.3348    1.0926 N   0  0  1  0  0  0  0  0  0  0  0  0
   -1.6173   -0.2147   -0.0604 C   0  0  0  0  0  0  0  0  0  0  0  0
   -2.1100   -0.7961   -0.9904 O   0  0  0  0  0  0  0  0  0  0  0  0
    0.6115    2.3946    0.2202 H   0  0  0  0  0  0  0  0  0  0  0  0
   -0.8552    2.3326   -0.7637 H   0  0  0  0  0  0  0  0  0  0  0  0
   -0.9592    2.1530    0.9999 H   0  0  0  0  0  0  0  0  0  0  0  0
    0.1783   -0.8652   -1.7891 H   0  0  0  0  0  0  0  0  0  0  0  0
    1.3307    0.4919   -1.6886 H   0  0  0  0  0  0  0  0  0  0  0  0
    1.7026   -1.9644    0.0607 H   0  0  0  0  0  0  0  0  0  0  0  0
    2.4676   -0.3373    1.8956 H   0  0  0  0  0  0  0  0  0  0  0  0
    2.2011    1.0523    0.7421 H   0  0  0  0  0  0  0  0  0  0  0  0
   -2.1627   -0.0758    0.8994 H   0  0  0  0  0  0  0  0  0  0  0  0
  1  9  1  0  0  0  0
  1 11  1  0  0  0  0
  2  1  1  0  0  0  0
  2  6  1  1  0  0  0
  3  2  1  0  0  0  0
  3  4  1  0  0  0  0
  4 14  1  0  0  0  0
  4  5  1  0  0  0  0
  4  6  1  1  0  0  0
  5 15  1  0  0  0  0
  6  5  1  1  0  0  0
  7  2  1  0  0  0  0
  7 17  1  0  0  0  0
  8  7  2  0  0  0  0
 10  1  1  0  0  0  0
 12  3  1  0  0  0  0
 13  3  1  0  0  0  0
 16  5  1  0  0  0  0
M  END
