13
title
O 0.17798501 1.741525 -0.23958182
C 0.25846854 0.3486748 -0.14492452
C 0.53637064 -0.32331192 1.2702668
C -0.8298674 -1.004139 1.1431701
O -1.7949064 0.046071347 1.0415171
C -1.1211654 -0.3496312 -0.14321195
C 1.1395106 -0.21598697 -1.1790042
N 1.846476 -0.63832784 -1.9903939
H 1.0688024 2.1096454 -0.21982437
H 1.3943338 -0.99686986 1.2616885
H 0.6095978 0.39326218 2.0902245
H -1.1591905 -1.9615953 1.5253006
H -1.7092582 -0.6446198 -1.0033046
