14
title
O 0.17308506 1.6279366 -0.1681296
C 0.19689244 0.24669622 -0.10295135
C 0.49191955 -0.44103107 1.305702
C -0.8426674 -1.1744381 1.1689194
O -1.8489652 -0.1644683 1.098417
C -1.1636953 -0.50097984 -0.10366097
C 1.1302636 -0.32205844 -1.1452376
O 1.7515129 0.3906982 -1.8968247
H 0.7951492 1.8725573 -0.8730543
H 1.3783207 -1.0806026 1.3098856
H 0.53641766 0.27615285 2.1262074
H -1.1309184 -2.1533082 1.5304118
H -1.7684283 -0.80090845 -0.95225865
H 1.2206714 -1.4263572 -1.1788669
