title
 OpenBabel02282109593D

 20 21  0  0  1  0  0  0  0  0999 V2000
   -0.3120    1.8058    0.0903 C   0  0  0  0  0  0  0  0  0  0  0  0
   -0.2102    0.2829    0.0478 C   0  0  1  0  0  0  0  0  0  0  0  0
   -1.5815   -0.3446   -0.1858 C   0  0  0  0  0  0  0  0  0  0  0  0
   -2.0619    0.0728   -1.4570 O   0  0  0  0  0  0  0  0  0  0  0  0
    0.8556   -0.3506   -0.9224 C   0  0  0  0  0  0  0  0  0  0  0  0
    1.4819   -1.0899    0.2652 C   0  0  1  0  0  0  0  0  0  0  0  0
    1.9555   -0.1011    1.2911 C   0  0  0  0  0  0  0  0  0  0  0  0
    0.4901   -0.4281    1.2249 C   0  0  1  0  0  0  0  0  0  0  0  0
    0.6674    2.2735    0.2249 H   0  0  0  0  0  0  0  0  0  0  0  0
   -0.7469    2.1840   -0.8391 H   0  0  0  0  0  0  0  0  0  0  0  0
   -0.9537    2.1299    0.9185 H   0  0  0  0  0  0  0  0  0  0  0  0
   -1.4933   -1.4416   -0.1362 H   0  0  0  0  0  0  0  0  0  0  0  0
   -2.2674   -0.0311    0.6192 H   0  0  0  0  0  0  0  0  0  0  0  0
   -2.9289   -0.3186   -1.5950 H   0  0  0  0  0  0  0  0  0  0  0  0
    0.3928   -0.9963   -1.6705 H   0  0  0  0  0  0  0  0  0  0  0  0
    1.5160    0.3558   -1.4364 H   0  0  0  0  0  0  0  0  0  0  0  0
    1.8342   -2.1142    0.2552 H   0  0  0  0  0  0  0  0  0  0  0  0
    2.4771   -0.5242    2.1440 H   0  0  0  0  0  0  0  0  0  0  0  0
    2.3303    0.8729    0.9858 H   0  0  0  0  0  0  0  0  0  0  0  0
   -0.0291   -0.8583    2.0754 H   0  0  0  0  0  0  0  0  0  0  0  0
  1  9  1  0  0  0  0
  1 11  1  0  0  0  0
  2  1  1  0  0  0  0
  2  8  1  1  0  0  0
  3 12  1  0  0  0  0
  3  2  1  0  0  0  0
  3 13  1  0  0  0  0
  4  3  1  0  0  0  0
  5  2  1  0  0  0  0
  5  6  1  0  0  0  0
  6  8  1  1  0  0  0
  6  7  1  0  0  0  0
  7 18  1  0  0  0  0
  8  7  1  0  0  0  0
  8 20  1  1  0  0  0
 10  1  1  0  0  0  0
 14  4  1  0  0  0  0
 15  5  1  0  0  0  0
 16  5  1  0  0  0  0
 17  6  1  0  0  0  0
 19  7  1  0  0  0  0
M  END
