title
 OpenBabel02282109593D

 15 16  0  0  1  0  0  0  0  0999 V2000
    0.3662    1.7693    0.2360 O   0  0  0  0  0  0  0  0  0  0  0  0
    0.2863    0.4073   -0.0658 C   0  0  1  0  0  0  0  0  0  0  0  0
    0.4112   -0.6362    1.1138 C   0  0  0  0  0  0  0  0  0  0  0  0
   -1.0365   -1.0443    0.8596 C   0  0  1  0  0  0  0  0  0  0  0  0
   -1.8462    0.2006    0.9631 N   0  0  0  0  0  0  0  0  0  0  0  0
   -1.1530   -0.1328   -0.3036 C   0  0  1  0  0  0  0  0  0  0  0  0
    1.2118    0.1417   -1.2351 C   0  0  0  0  0  0  0  0  0  0  0  0
    1.6631   -0.9384   -1.5171 O   0  0  0  0  0  0  0  0  0  0  0  0
   -0.3866    1.9459    0.8189 H   0  0  0  0  0  0  0  0  0  0  0  0
    1.1243   -1.4197    0.8508 H   0  0  0  0  0  0  0  0  0  0  0  0
    0.6360   -0.2073    2.0925 H   0  0  0  0  0  0  0  0  0  0  0  0
   -1.4949   -2.0119    1.0165 H   0  0  0  0  0  0  0  0  0  0  0  0
   -2.8279   -0.0475    0.8488 H   0  0  0  0  0  0  0  0  0  0  0  0
   -1.6928   -0.2220   -1.2382 H   0  0  0  0  0  0  0  0  0  0  0  0
    1.4254    1.0522   -1.8357 H   0  0  0  0  0  0  0  0  0  0  0  0
  1  9  1  0  0  0  0
  2  6  1  6  0  0  0
  2  1  1  0  0  0  0
  2  3  1  0  0  0  0
  3 11  1  0  0  0  0
  4  6  1  6  0  0  0
  4  5  1  0  0  0  0
  4 12  1  0  0  0  0
  4  3  1  0  0  0  0
  6 14  1  6  0  0  0
  6  5  1  0  0  0  0
  7  2  1  0  0  0  0
  8  7  2  0  0  0  0
 10  3  1  0  0  0  0
 13  5  1  0  0  0  0
 15  7  1  0  0  0  0
M  END
