title
 OpenBabel02282109593D

 19 20  0  0  1  0  0  0  0  0999 V2000
   -0.2656    1.7961    0.1269 C   0  0  0  0  0  0  0  0  0  0  0  0
   -0.2271    0.2747    0.0459 C   0  0  1  0  0  0  0  0  0  0  0  0
   -1.6100   -0.3208   -0.1897 C   0  0  0  0  0  0  0  0  0  0  0  0
   -2.0726    0.1072   -1.4632 O   0  0  0  0  0  0  0  0  0  0  0  0
    0.8342   -0.3653   -0.9367 C   0  0  0  0  0  0  0  0  0  0  0  0
    1.4538   -1.0904    0.2596 C   0  0  1  0  0  0  0  0  0  0  0  0
    1.8991   -0.0281    1.1971 N   0  0  0  0  0  0  0  0  0  0  0  0
    0.4839   -0.4680    1.1989 C   0  0  1  0  0  0  0  0  0  0  0  0
    0.7329    2.1888    0.3304 H   0  0  0  0  0  0  0  0  0  0  0  0
   -0.6331    2.2200   -0.8117 H   0  0  0  0  0  0  0  0  0  0  0  0
   -0.9359    2.1274    0.9297 H   0  0  0  0  0  0  0  0  0  0  0  0
   -1.5518   -1.4206   -0.1388 H   0  0  0  0  0  0  0  0  0  0  0  0
   -2.2916    0.0110    0.6116 H   0  0  0  0  0  0  0  0  0  0  0  0
   -2.9497   -0.2598   -1.6043 H   0  0  0  0  0  0  0  0  0  0  0  0
    0.3657   -1.0216   -1.6718 H   0  0  0  0  0  0  0  0  0  0  0  0
    1.5013    0.3357   -1.4436 H   0  0  0  0  0  0  0  0  0  0  0  0
    1.9134   -2.0710    0.2835 H   0  0  0  0  0  0  0  0  0  0  0  0
    2.3515   -0.4934    1.9839 H   0  0  0  0  0  0  0  0  0  0  0  0
    0.0292   -0.8590    2.1030 H   0  0  0  0  0  0  0  0  0  0  0  0
  1  9  1  0  0  0  0
  1 11  1  0  0  0  0
  2  1  1  0  0  0  0
  2  8  1  1  0  0  0
  3 12  1  0  0  0  0
  3  2  1  0  0  0  0
  3 13  1  0  0  0  0
  4  3  1  0  0  0  0
  5  2  1  0  0  0  0
  5  6  1  0  0  0  0
  6 17  1  0  0  0  0
  6  7  1  0  0  0  0
  6  8  1  1  0  0  0
  7  8  1  0  0  0  0
  7 18  1  0  0  0  0
  8 19  1  1  0  0  0
 10  1  1  0  0  0  0
 14  4  1  0  0  0  0
 15  5  1  0  0  0  0
 16  5  1  0  0  0  0
M  END
