title
 OpenBabel02282109593D

 17 18  0  0  1  0  0  0  0  0999 V2000
   -0.3067    1.9843    0.1940 C   0  0  0  0  0  0  0  0  0  0  0  0
   -0.2538    0.4654    0.0148 C   0  0  1  0  0  0  0  0  0  0  0  0
    0.7007   -0.1728   -1.0277 C   0  0  0  0  0  0  0  0  0  0  0  0
    1.3467   -1.0643    0.0041 N   0  0  1  0  0  0  0  0  0  0  0  0
    1.9748   -0.1498    0.9726 C   0  0  0  0  0  0  0  0  0  0  0  0
    0.5172   -0.3622    1.0630 C   0  0  1  0  0  0  0  0  0  0  0  0
   -1.6753   -0.0625   -0.1006 C   0  0  0  0  0  0  0  0  0  0  0  0
   -2.1059   -0.7455   -0.9916 O   0  0  0  0  0  0  0  0  0  0  0  0
    0.6850    2.3906    0.4069 H   0  0  0  0  0  0  0  0  0  0  0  0
   -0.6838    2.4710   -0.7121 H   0  0  0  0  0  0  0  0  0  0  0  0
   -0.9670    2.2623    1.0238 H   0  0  0  0  0  0  0  0  0  0  0  0
    0.1679   -0.7672   -1.7702 H   0  0  0  0  0  0  0  0  0  0  0  0
    1.4054    0.5038   -1.5214 H   0  0  0  0  0  0  0  0  0  0  0  0
    2.5945   -0.6629    1.7020 H   0  0  0  0  0  0  0  0  0  0  0  0
    2.3786    0.7979    0.6231 H   0  0  0  0  0  0  0  0  0  0  0  0
    0.0587   -0.9073    1.8837 H   0  0  0  0  0  0  0  0  0  0  0  0
   -2.3295    0.2485    0.7483 H   0  0  0  0  0  0  0  0  0  0  0  0
  1  9  1  0  0  0  0
  1 11  1  0  0  0  0
  2  1  1  0  0  0  0
  2  6  1  1  0  0  0
  3  4  1  0  0  0  0
  3  2  1  0  0  0  0
  4  5  1  0  0  0  0
  4  6  1  1  0  0  0
  5  6  1  0  0  0  0
  5 14  1  0  0  0  0
  6 16  1  1  0  0  0
  7  2  1  0  0  0  0
  7 17  1  0  0  0  0
  8  7  2  0  0  0  0
 10  1  1  0  0  0  0
 12  3  1  0  0  0  0
 13  3  1  0  0  0  0
 15  5  1  0  0  0  0
M  END
