15
title
O 0.20194489 1.6398643 -0.13685766
C 0.18636738 0.25147977 -0.10108357
C 0.4162837 -0.46946272 1.2774079
N -0.871213 -1.2308713 1.1672084
C -1.9164245 -0.19698024 1.1382136
C -1.1759257 -0.4535183 -0.110564664
C 1.1133721 -0.31240943 -1.152584
O 1.7568878 0.40382117 -1.8812456
H 0.8252984 1.882089 -0.8417429
H 1.2704126 -1.1496769 1.3054243
H 0.4649426 0.21888497 2.125759
H -2.9198723 -0.6062128 1.1992741
H -1.7629153 0.7326762 1.6805273
H -1.6355293 -0.92259765 -0.97499824
H 1.1731248 -1.4174944 -1.2102063
