16
title
C -0.2091942 1.8031193 -0.18369903
C -0.15069291 0.293124 -0.1297693
O 0.8803226 -0.30511588 -0.98397964
C 1.3663598 -1.0882572 0.109807156
C 1.923208 -0.20867352 1.176638
C 0.42570993 -0.43623528 1.0986801
C -1.4779224 -0.36112276 -0.5064695
O -2.5535395 0.16490798 -0.3954683
H 0.6980075 2.2506876 0.22669165
H -0.32503244 2.1368642 -1.2193116
H -1.0765535 2.1531682 0.38148746
H 1.6397732 -2.118211 -0.08398251
H 2.397088 -0.724202 2.006439
H 2.365889 0.74671835 0.91267246
H -0.15556811 -0.84605545 1.9132609
H -1.3575628 -1.396877 -0.8928923
