title
 OpenBabel02282109593D

 20 21  0  0  1  0  0  0  0  0999 V2000
    1.3551    2.2988    0.2798 C   0  0  0  0  0  0  0  0  0  0  0  0
    1.3154    0.7739    0.4355 C   0  0  0  0  0  0  0  0  0  0  0  0
   -0.0890    0.1792    0.3199 C   0  0  1  0  0  0  0  0  0  0  0  0
   -0.9396    0.6725    1.3480 O   0  0  0  0  0  0  0  0  0  0  0  0
   -0.8067    0.2059   -1.0839 C   0  0  0  0  0  0  0  0  0  0  0  0
   -0.9845   -1.3153   -0.9958 C   0  0  1  0  0  0  0  0  0  0  0  0
    0.3569   -1.9807   -0.8955 C   0  0  0  0  0  0  0  0  0  0  0  0
   -0.2336   -1.3478    0.3343 C   0  0  1  0  0  0  0  0  0  0  0  0
    2.3822    2.6718    0.3306 H   0  0  0  0  0  0  0  0  0  0  0  0
    0.9357    2.6166   -0.6816 H   0  0  0  0  0  0  0  0  0  0  0  0
    0.7947    2.8014    1.0762 H   0  0  0  0  0  0  0  0  0  0  0  0
    1.9616    0.3170   -0.3220 H   0  0  0  0  0  0  0  0  0  0  0  0
    1.7235    0.4908    1.4134 H   0  0  0  0  0  0  0  0  0  0  0  0
   -1.0406    1.6215    1.2199 H   0  0  0  0  0  0  0  0  0  0  0  0
   -1.7465    0.7579   -1.0181 H   0  0  0  0  0  0  0  0  0  0  0  0
   -0.2300    0.5709   -1.9415 H   0  0  0  0  0  0  0  0  0  0  0  0
   -1.8749   -1.8594   -1.2850 H   0  0  0  0  0  0  0  0  0  0  0  0
    0.3431   -3.0661   -0.8960 H   0  0  0  0  0  0  0  0  0  0  0  0
    1.2256   -1.5546   -1.3922 H   0  0  0  0  0  0  0  0  0  0  0  0
   -0.4486   -1.9097    1.2350 H   0  0  0  0  0  0  0  0  0  0  0  0
  1  9  1  0  0  0  0
  1  2  1  0  0  0  0
  1 11  1  0  0  0  0
  2 13  1  0  0  0  0
  3  8  1  1  0  0  0
  3  2  1  0  0  0  0
  3  4  1  0  0  0  0
  5 15  1  0  0  0  0
  5  6  1  0  0  0  0
  5  3  1  0  0  0  0
  6  7  1  0  0  0  0
  6  8  1  1  0  0  0
  7  8  1  0  0  0  0
  8 20  1  1  0  0  0
 10  1  1  0  0  0  0
 12  2  1  0  0  0  0
 14  4  1  0  0  0  0
 16  5  1  0  0  0  0
 17  6  1  0  0  0  0
 18  7  1  0  0  0  0
 19  7  1  0  0  0  0
M  END
