title
 OpenBabel02282109593D

 18 19  0  0  1  0  0  0  0  0999 V2000
   -0.3302    1.8177    0.1371 C   0  0  0  0  0  0  0  0  0  0  0  0
   -0.2469    0.3035    0.1593 C   0  0  1  0  0  0  0  0  0  0  0  0
   -1.5963   -0.3597   -0.1325 C   0  0  0  0  0  0  0  0  0  0  0  0
   -2.0140   -0.0849   -1.4536 O   0  0  0  0  0  0  0  0  0  0  0  0
    0.6971   -0.2213   -0.8526 O   0  0  0  0  0  0  0  0  0  0  0  0
    1.3512   -1.0008    0.1532 C   0  0  1  0  0  0  0  0  0  0  0  0
    2.0097   -0.1208    1.1652 C   0  0  0  0  0  0  0  0  0  0  0  0
    0.5265   -0.4141    1.2718 C   0  0  1  0  0  0  0  0  0  0  0  0
    0.6569    2.2760    0.2245 H   0  0  0  0  0  0  0  0  0  0  0  0
   -0.7916    2.1480   -0.7973 H   0  0  0  0  0  0  0  0  0  0  0  0
   -0.9521    2.1689    0.9676 H   0  0  0  0  0  0  0  0  0  0  0  0
   -1.5084   -1.4425    0.0470 H   0  0  0  0  0  0  0  0  0  0  0  0
   -2.3684    0.0328    0.5387 H   0  0  0  0  0  0  0  0  0  0  0  0
   -1.2698   -0.3417   -2.0136 H   0  0  0  0  0  0  0  0  0  0  0  0
    1.6422   -2.0143   -0.0959 H   0  0  0  0  0  0  0  0  0  0  0  0
    2.6169   -0.6342    1.9047 H   0  0  0  0  0  0  0  0  0  0  0  0
    2.3758    0.8583    0.8723 H   0  0  0  0  0  0  0  0  0  0  0  0
    0.0764   -0.8819    2.1377 H   0  0  0  0  0  0  0  0  0  0  0  0
  1  2  1  0  0  0  0
  1  9  1  0  0  0  0
  1 11  1  0  0  0  0
  2  8  1  1  0  0  0
  3 12  1  0  0  0  0
  3  2  1  0  0  0  0
  3 13  1  0  0  0  0
  4  3  1  0  0  0  0
  5  6  1  0  0  0  0
  5  2  1  0  0  0  0
  6  7  1  0  0  0  0
  6  8  1  1  0  0  0
  7  8  1  0  0  0  0
  7 16  1  0  0  0  0
  8 18  1  1  0  0  0
 10  1  1  0  0  0  0
 14  4  1  0  0  0  0
 15  6  1  0  0  0  0
 17  7  1  0  0  0  0
M  END
