title
 OpenBabel02282109593D

 19 20  0  0  1  0  0  0  0  0999 V2000
   -0.3033    1.8377    0.0762 C   0  0  0  0  0  0  0  0  0  0  0  0
   -0.2199    0.3138    0.0512 C   0  0  1  0  0  0  0  0  0  0  0  0
   -1.5962   -0.3052   -0.1824 C   0  0  0  0  0  0  0  0  0  0  0  0
   -2.0556    0.1083   -1.4614 O   0  0  0  0  0  0  0  0  0  0  0  0
    0.8487   -0.3628   -0.8604 C   0  0  0  0  0  0  0  0  0  0  0  0
    1.4158   -1.1666    0.2833 N   0  0  1  0  0  0  0  0  0  0  0  0
    1.9429   -0.1672    1.2282 C   0  0  0  0  0  0  0  0  0  0  0  0
    0.4865   -0.3975    1.2127 C   0  0  1  0  0  0  0  0  0  0  0  0
    0.6803    2.2958    0.2113 H   0  0  0  0  0  0  0  0  0  0  0  0
   -0.7293    2.2081   -0.8602 H   0  0  0  0  0  0  0  0  0  0  0  0
   -0.9474    2.1783    0.8957 H   0  0  0  0  0  0  0  0  0  0  0  0
   -1.5179   -1.4018   -0.1227 H   0  0  0  0  0  0  0  0  0  0  0  0
   -2.2852    0.0237    0.6137 H   0  0  0  0  0  0  0  0  0  0  0  0
   -2.9083   -0.3041   -1.6249 H   0  0  0  0  0  0  0  0  0  0  0  0
    0.4255   -1.0144   -1.6263 H   0  0  0  0  0  0  0  0  0  0  0  0
    1.5837    0.3028   -1.3254 H   0  0  0  0  0  0  0  0  0  0  0  0
    2.5060   -0.6100    2.0445 H   0  0  0  0  0  0  0  0  0  0  0  0
    2.3647    0.7570    0.8391 H   0  0  0  0  0  0  0  0  0  0  0  0
   -0.0246   -0.8908    2.0362 H   0  0  0  0  0  0  0  0  0  0  0  0
  1  9  1  0  0  0  0
  1 11  1  0  0  0  0
  2  1  1  0  0  0  0
  2  8  1  1  0  0  0
  3 12  1  0  0  0  0
  3  2  1  0  0  0  0
  3 13  1  0  0  0  0
  4  3  1  0  0  0  0
  5  2  1  0  0  0  0
  5  6  1  0  0  0  0
  6  8  1  1  0  0  0
  6  7  1  0  0  0  0
  7 17  1  0  0  0  0
  8  7  1  0  0  0  0
  8 19  1  1  0  0  0
 10  1  1  0  0  0  0
 14  4  1  0  0  0  0
 15  5  1  0  0  0  0
 16  5  1  0  0  0  0
 18  7  1  0  0  0  0
M  END
