20
title
C 1.3551384 2.2988365 0.27977672
C 1.315414 0.7738864 0.43548143
C -0.08897395 0.17921945 0.31990907
O -0.93962806 0.6724764 1.3479567
C -0.8066713 0.2058675 -1.0838562
C -0.98448247 -1.3152878 -0.9958424
C 0.35688 -1.9806838 -0.89552885
C -0.23355027 -1.3478134 0.33430126
H 2.382187 2.67178 0.3306282
H 0.93565583 2.6165624 -0.6815546
H 0.7946877 2.801417 1.0762103
H 1.9615879 0.31699783 -0.32198608
H 1.7235305 0.49084115 1.4134358
H -1.0405998 1.6215007 1.2199244
H -1.7464821 0.7579438 -1.0180948
H -0.23003061 0.57089365 -1.9414563
H -1.8748703 -1.8594346 -1.2850417
H 0.34305727 -3.066127 -0.89597267
H 1.2256231 -1.5545721 -1.3922026
H -0.44855255 -1.9096711 1.2350078
