20
title
C -0.94787794 2.2117584 1.1699787
C -1.0477784 0.70543754 0.9042374
C -0.26420832 0.21565402 -0.31740028
C -0.7731989 0.7940202 -1.6377319
C 1.3165522 0.2803834 -0.21409923
C 1.3455796 -1.2454684 -0.34664243
O 0.5850889 -1.7814364 0.7455976
C -0.120152906 -1.3243864 -0.41146106
H 0.09464018 2.5280416 1.2860305
H -1.38507 2.80261 0.3589033
H -1.4767525 2.4778345 2.090451
H -0.682513 0.15477553 1.7772734
H -2.103569 0.4272601 0.7791983
H -0.6265603 1.8773297 -1.6845819
H -0.24697639 0.35213697 -2.4912257
H -1.8435208 0.593986 -1.7666148
H 1.770155 0.80473214 -1.0589253
H 1.7339163 0.6639423 0.72029334
H 2.108823 -1.8855593 -0.773822
H -0.7775154 -2.0328002 -0.90563685
