19
title
C 1.3990939 2.2622693 0.23659375
C 1.313558 0.7439846 0.4274082
C -0.10661865 0.19325459 0.34323728
O -0.93869364 0.6802284 1.384176
C -0.8377398 0.23081142 -1.0627896
C -0.9765941 -1.2918048 -0.9786876
N 0.40799373 -1.8223372 -0.9002628
C -0.26942873 -1.3357651 0.3255253
H 2.4376686 2.6031957 0.27801147
H 0.9889694 2.570212 -0.73167676
H 0.85648155 2.8048477 1.0201517
H 1.914727 0.23522776 -0.33190566
H 1.726492 0.4713109 1.4067405
H -1.0010971 1.6366097 1.2918049
H -1.7915024 0.7555814 -0.97795826
H -0.27055645 0.60142297 -1.9207073
H -1.7841481 -1.9083848 -1.3532401
H 0.34193277 -2.8398552 -0.8885136
H -0.41262102 -1.9691868 1.1923108
