title
 OpenBabel02282109593D

 19 20  0  0  1  0  0  0  0  0999 V2000
    1.3991    2.2623    0.2366 C   0  0  0  0  0  0  0  0  0  0  0  0
    1.3136    0.7440    0.4274 C   0  0  0  0  0  0  0  0  0  0  0  0
   -0.1066    0.1933    0.3432 C   0  0  1  0  0  0  0  0  0  0  0  0
   -0.9387    0.6802    1.3842 O   0  0  0  0  0  0  0  0  0  0  0  0
   -0.8377    0.2308   -1.0628 C   0  0  0  0  0  0  0  0  0  0  0  0
   -0.9766   -1.2918   -0.9787 C   0  0  1  0  0  0  0  0  0  0  0  0
    0.4080   -1.8223   -0.9003 N   0  0  0  0  0  0  0  0  0  0  0  0
   -0.2694   -1.3358    0.3255 C   0  0  1  0  0  0  0  0  0  0  0  0
    2.4377    2.6032    0.2780 H   0  0  0  0  0  0  0  0  0  0  0  0
    0.9890    2.5702   -0.7317 H   0  0  0  0  0  0  0  0  0  0  0  0
    0.8565    2.8048    1.0202 H   0  0  0  0  0  0  0  0  0  0  0  0
    1.9147    0.2352   -0.3319 H   0  0  0  0  0  0  0  0  0  0  0  0
    1.7265    0.4713    1.4067 H   0  0  0  0  0  0  0  0  0  0  0  0
   -1.0011    1.6366    1.2918 H   0  0  0  0  0  0  0  0  0  0  0  0
   -1.7915    0.7556   -0.9780 H   0  0  0  0  0  0  0  0  0  0  0  0
   -0.2706    0.6014   -1.9207 H   0  0  0  0  0  0  0  0  0  0  0  0
   -1.7841   -1.9084   -1.3532 H   0  0  0  0  0  0  0  0  0  0  0  0
    0.3419   -2.8399   -0.8885 H   0  0  0  0  0  0  0  0  0  0  0  0
   -0.4126   -1.9692    1.1923 H   0  0  0  0  0  0  0  0  0  0  0  0
  1  9  1  0  0  0  0
  1  2  1  0  0  0  0
  1 11  1  0  0  0  0
  2 13  1  0  0  0  0
  3  8  1  1  0  0  0
  3  2  1  0  0  0  0
  3  4  1  0  0  0  0
  5  6  1  0  0  0  0
  5 15  1  0  0  0  0
  5  3  1  0  0  0  0
  6  7  1  0  0  0  0
  6  8  1  1  0  0  0
  7 18  1  0  0  0  0
  7  8  1  0  0  0  0
  8 19  1  1  0  0  0
 10  1  1  0  0  0  0
 12  2  1  0  0  0  0
 14  4  1  0  0  0  0
 16  5  1  0  0  0  0
 17  6  1  0  0  0  0
M  END
