title
 OpenBabel02282109593D

 22 23  0  0  1  0  0  0  0  0999 V2000
    1.3952    2.2816    0.2383 C   0  0  0  0  0  0  0  0  0  0  0  0
    1.2980    0.7677    0.4640 C   0  0  0  0  0  0  0  0  0  0  0  0
   -0.1201    0.1893    0.3621 C   0  0  1  0  0  0  0  0  0  0  0  0
   -1.0464    0.7563    1.4416 C   0  0  0  0  0  0  0  0  0  0  0  0
   -0.8165    0.2260   -1.0527 C   0  0  0  0  0  0  0  0  0  0  0  0
   -0.9742   -1.2980   -1.0029 C   0  0  1  0  0  0  0  0  0  0  0  0
    0.3749   -1.9505   -0.9091 C   0  0  0  0  0  0  0  0  0  0  0  0
   -0.2289   -1.3526    0.3310 C   0  0  1  0  0  0  0  0  0  0  0  0
    2.4393    2.6097    0.2513 H   0  0  0  0  0  0  0  0  0  0  0  0
    0.9718    2.5669   -0.7311 H   0  0  0  0  0  0  0  0  0  0  0  0
    0.8651    2.8470    1.0106 H   0  0  0  0  0  0  0  0  0  0  0  0
    1.9436    0.2626   -0.2636 H   0  0  0  0  0  0  0  0  0  0  0  0
    1.7067    0.5182    1.4530 H   0  0  0  0  0  0  0  0  0  0  0  0
   -1.1906    1.8353    1.3270 H   0  0  0  0  0  0  0  0  0  0  0  0
   -2.0323    0.2823    1.3932 H   0  0  0  0  0  0  0  0  0  0  0  0
   -0.6385    0.5755    2.4435 H   0  0  0  0  0  0  0  0  0  0  0  0
   -1.7617    0.7737   -1.0357 H   0  0  0  0  0  0  0  0  0  0  0  0
   -0.2123    0.6051   -1.8847 H   0  0  0  0  0  0  0  0  0  0  0  0
   -1.8543   -1.8480   -1.3132 H   0  0  0  0  0  0  0  0  0  0  0  0
    0.3721   -3.0358   -0.9384 H   0  0  0  0  0  0  0  0  0  0  0  0
    1.2390   -1.5016   -1.3933 H   0  0  0  0  0  0  0  0  0  0  0  0
   -0.4415   -1.9611    1.2038 H   0  0  0  0  0  0  0  0  0  0  0  0
  1  9  1  0  0  0  0
  1  2  1  0  0  0  0
  1 11  1  0  0  0  0
  2 13  1  0  0  0  0
  3  8  1  1  0  0  0
  3  2  1  0  0  0  0
  3  4  1  0  0  0  0
  4 16  1  0  0  0  0
  5 17  1  0  0  0  0
  5  6  1  0  0  0  0
  5  3  1  0  0  0  0
  6  7  1  0  0  0  0
  6  8  1  1  0  0  0
  7  8  1  0  0  0  0
  8 22  1  1  0  0  0
 10  1  1  0  0  0  0
 12  2  1  0  0  0  0
 14  4  1  0  0  0  0
 15  4  1  0  0  0  0
 18  5  1  0  0  0  0
 19  6  1  0  0  0  0
 20  7  1  0  0  0  0
 21  7  1  0  0  0  0
M  END
