title
 OpenBabel02282109593D

 20 21  0  0  1  0  0  0  0  0999 V2000
    1.3509    2.2246    0.0057 C   0  0  0  0  0  0  0  0  0  0  0  0
    1.2742    0.7807    0.5162 C   0  0  0  0  0  0  0  0  0  0  0  0
   -0.1205    0.1637    0.4160 C   0  0  1  0  0  0  0  0  0  0  0  0
   -1.1368    0.8147    1.3469 C   0  0  0  0  0  0  0  0  0  0  0  0
   -0.6423    0.2036   -0.9638 O   0  0  0  0  0  0  0  0  0  0  0  0
   -0.8864   -1.2017   -0.9267 C   0  0  1  0  0  0  0  0  0  0  0  0
    0.3888   -1.9727   -0.8108 C   0  0  0  0  0  0  0  0  0  0  0  0
   -0.2449   -1.3701    0.4273 C   0  0  1  0  0  0  0  0  0  0  0  0
    2.3850    2.5821    0.0154 H   0  0  0  0  0  0  0  0  0  0  0  0
    0.9780    2.2831   -1.0206 H   0  0  0  0  0  0  0  0  0  0  0  0
    0.7603    2.9113    0.6197 H   0  0  0  0  0  0  0  0  0  0  0  0
    1.9748    0.1632   -0.0548 H   0  0  0  0  0  0  0  0  0  0  0  0
    1.5968    0.7289    1.5642 H   0  0  0  0  0  0  0  0  0  0  0  0
   -1.2545    1.8764    1.1151 H   0  0  0  0  0  0  0  0  0  0  0  0
   -2.1121    0.3326    1.2397 H   0  0  0  0  0  0  0  0  0  0  0  0
   -0.8169    0.7216    2.3909 H   0  0  0  0  0  0  0  0  0  0  0  0
   -1.8122   -1.5690   -1.3542 H   0  0  0  0  0  0  0  0  0  0  0  0
    0.2908   -3.0523   -0.8769 H   0  0  0  0  0  0  0  0  0  0  0  0
    1.3019   -1.5698   -1.2383 H   0  0  0  0  0  0  0  0  0  0  0  0
   -0.5485   -1.9589    1.2831 H   0  0  0  0  0  0  0  0  0  0  0  0
  1  9  1  0  0  0  0
  1  2  1  0  0  0  0
  1 11  1  0  0  0  0
  2 13  1  0  0  0  0
  3  8  1  1  0  0  0
  3  2  1  0  0  0  0
  3  4  1  0  0  0  0
  4 16  1  0  0  0  0
  5  6  1  0  0  0  0
  5  3  1  0  0  0  0
  6  7  1  0  0  0  0
  6  8  1  1  0  0  0
  7  8  1  0  0  0  0
  8 20  1  1  0  0  0
 10  1  1  0  0  0  0
 12  2  1  0  0  0  0
 14  4  1  0  0  0  0
 15  4  1  0  0  0  0
 17  6  1  0  0  0  0
 18  7  1  0  0  0  0
 19  7  1  0  0  0  0
M  END
