21
title
C 1.4323206 2.2472537 0.21564668
C 1.2974552 0.73873615 0.45249963
C -0.13619307 0.2035014 0.3791573
C -1.0440066 0.7737234 1.4696442
C -0.8416479 0.24567828 -1.0396005
C -0.9658192 -1.2783314 -0.9841745
N 0.42223302 -1.8006438 -0.9057615
C -0.26317886 -1.3365573 0.32347384
H 2.4851334 2.5467663 0.21782683
H 1.0099937 2.5375054 -0.75282276
H 0.9240707 2.8338463 0.9875932
H 1.8943357 0.19667852 -0.28744137
H 1.7157049 0.48643735 1.4372602
H -1.1828156 1.8530418 1.3533561
H -2.0348952 0.30727708 1.4387896
H -0.621926 0.59466493 2.4659338
H -1.7999289 0.76953477 -1.0117382
H -0.24183765 0.623433 -1.8716166
H -1.7641122 -1.8974618 -1.3749875
H 0.36100754 -2.8186507 -0.91279685
H -0.4031103 -2.0052593 1.1660582
