title
 OpenBabel02282109593D

 18 19  0  0  1  0  0  0  0  0999 V2000
    1.2340    2.1486    0.2518 C   0  0  0  0  0  0  0  0  0  0  0  0
    1.1244    0.7588    0.4678 O   0  0  0  0  0  0  0  0  0  0  0  0
   -0.1711    0.2229    0.3649 C   0  0  1  0  0  0  0  0  0  0  0  0
   -1.1168    0.7284    1.4542 C   0  0  0  0  0  0  0  0  0  0  0  0
   -0.8433    0.2050   -1.0734 C   0  0  0  0  0  0  0  0  0  0  0  0
   -0.8364   -1.3246   -0.9833 C   0  0  1  0  0  0  0  0  0  0  0  0
    0.5332   -1.7205   -0.8747 O   0  0  0  0  0  0  0  0  0  0  0  0
   -0.1409   -1.3150    0.3142 C   0  0  1  0  0  0  0  0  0  0  0  0
    2.3016    2.3803    0.2309 H   0  0  0  0  0  0  0  0  0  0  0  0
    0.7913    2.4519   -0.7084 H   0  0  0  0  0  0  0  0  0  0  0  0
    0.7656    2.7407    1.0510 H   0  0  0  0  0  0  0  0  0  0  0  0
   -1.3497    1.7897    1.3272 H   0  0  0  0  0  0  0  0  0  0  0  0
   -2.0619    0.1774    1.4311 H   0  0  0  0  0  0  0  0  0  0  0  0
   -0.6604    0.5899    2.4397 H   0  0  0  0  0  0  0  0  0  0  0  0
   -1.8359    0.6608   -1.0902 H   0  0  0  0  0  0  0  0  0  0  0  0
   -0.2323    0.5994   -1.8877 H   0  0  0  0  0  0  0  0  0  0  0  0
   -1.5358   -2.0422   -1.3952 H   0  0  0  0  0  0  0  0  0  0  0  0
   -0.1572   -2.0101    1.1468 H   0  0  0  0  0  0  0  0  0  0  0  0
  1  2  1  0  0  0  0
  1 11  1  0  0  0  0
  3  8  1  1  0  0  0
  3  2  1  0  0  0  0
  3  4  1  0  0  0  0
  4 14  1  0  0  0  0
  5  6  1  0  0  0  0
  5  3  1  0  0  0  0
  6  7  1  0  0  0  0
  6  8  1  1  0  0  0
  7  8  1  0  0  0  0
  8 18  1  1  0  0  0
  9  1  1  0  0  0  0
 10  1  1  0  0  0  0
 12  4  1  0  0  0  0
 13  4  1  0  0  0  0
 15  5  1  0  0  0  0
 16  5  1  0  0  0  0
 17  6  1  0  0  0  0
M  END
