16
title
O 1.2173058 2.116999 0.27611786
C 1.3045442 0.6958305 0.38401157
C -0.12701587 0.18956488 0.32003856
O -0.90282434 0.78600496 1.3322096
C -0.836147 0.19922811 -1.0961864
C -0.97641367 -1.3220783 -0.9724305
O 0.3472937 -1.8575085 -0.8134785
C -0.31899002 -1.3385645 0.3420461
H 2.0796301 2.4946506 0.4690397
H 1.8968686 0.25914097 -0.42834222
H 1.7481 0.40072882 1.3467457
H -0.642428 1.7167772 1.3415338
H -1.7896384 0.7252474 -1.0222006
H -0.2652637 0.5563533 -1.9562185
H -1.7261358 -1.9847695 -1.3881303
H -0.43702427 -1.9829212 1.2057354
