18
title
C 1.2340244 2.1486442 0.2518048
O 1.1243837 0.7587612 0.46783704
C -0.17106149 0.22287695 0.36490393
C -1.1167876 0.72843736 1.4541845
C -0.84325886 0.20501529 -1.0734304
C -0.83643436 -1.3246188 -0.9833061
O 0.53320014 -1.7205496 -0.87472814
C -0.14086577 -1.3150468 0.31424317
H 2.3016384 2.380289 0.23085548
H 0.79134315 2.451933 -0.708438
H 0.7655726 2.740744 1.0509577
H -1.349686 1.7897186 1.327229
H -2.0618978 0.17743687 1.4311144
H -0.66039073 0.5898591 2.4396708
H -1.8358883 0.66081834 -1.0901948
H -0.23232874 0.59941065 -1.8876879
H -1.5358275 -2.0421598 -1.395249
H -0.1572015 -2.010114 1.1468217
