19
title
C -0.8522686 2.1120608 1.0043044
O -0.97148305 0.7231296 0.7821954
C -0.24485603 0.21538557 -0.3225361
C -0.73296213 0.77435935 -1.6560948
C 1.3120366 0.16782905 -0.18783605
N 1.3267835 -1.3339777 -0.29627907
C 0.5532109 -1.810684 0.8643239
C -0.19693133 -1.3093891 -0.29963815
H 0.19909313 2.4320924 1.0615574
H -1.3529662 2.70979 0.22999692
H -1.331037 2.320491 1.9642915
H -0.5181168 1.8430121 -1.7516937
H -0.23898897 0.26049203 -2.485549
H -1.8138722 0.6284231 -1.7515724
H 1.8495744 0.6163093 -1.0260016
H 1.726184 0.54056114 0.7545081
H 0.6061217 -2.8873136 0.9935548
H 0.5615311 -1.232672 1.7847067
H -0.7772776 -1.954114 -0.95243883
