20
title
C 1.0914338 1.5684314 1.4599569
C 0.7277628 0.42271367 0.52917993
C 1.4717085 0.3579059 -0.7847585
C 1.7780386 -0.64272225 0.30601594
C -0.7209537 0.029728903 0.6566769
C -1.805922 0.64338994 -0.21640573
C -1.5142887 -0.8350404 -0.28139246
O -0.89160085 -1.3946905 -1.4040987
H 2.1505928 1.8287977 1.3691136
H 0.5038264 2.4653308 1.2316651
H 0.9019715 1.3054981 2.507911
H 0.9537178 -0.011159721 -1.658391
H 2.1971955 1.1424619 -0.9757289
H 2.7170708 -0.55762136 0.84365606
H 1.4381073 -1.6594027 0.14574842
H -1.0067024 -0.11222191 1.69789
H -2.7343128 0.9875256 0.22697987
H -1.452343 1.2323587 -1.0568459
H -2.2376285 -1.5005366 0.19105819
H -1.5266669 -1.3871213 -2.127679
