title
 OpenBabel02282109593D

 19 20  0  0  1  0  0  0  0  0999 V2000
    1.2341    2.1447    0.2358 C   0  0  0  0  0  0  0  0  0  0  0  0
    1.1286    0.7596    0.4753 O   0  0  0  0  0  0  0  0  0  0  0  0
   -0.1633    0.2136    0.3589 C   0  0  1  0  0  0  0  0  0  0  0  0
   -1.1180    0.7282    1.4372 C   0  0  0  0  0  0  0  0  0  0  0  0
   -0.8304    0.1957   -1.0806 C   0  0  0  0  0  0  0  0  0  0  0  0
   -0.8534   -1.3319   -0.9847 C   0  0  1  0  0  0  0  0  0  0  0  0
    0.5677   -1.7417   -0.9058 N   0  0  0  0  0  0  0  0  0  0  0  0
   -0.1411   -1.3188    0.3230 C   0  0  1  0  0  0  0  0  0  0  0  0
    2.3008    2.3824    0.2259 H   0  0  0  0  0  0  0  0  0  0  0  0
    0.8044    2.4291   -0.7362 H   0  0  0  0  0  0  0  0  0  0  0  0
    0.7515    2.7505    1.0166 H   0  0  0  0  0  0  0  0  0  0  0  0
   -1.3440    1.7903    1.3034 H   0  0  0  0  0  0  0  0  0  0  0  0
   -2.0650    0.1813    1.4053 H   0  0  0  0  0  0  0  0  0  0  0  0
   -0.6725    0.5915    2.4281 H   0  0  0  0  0  0  0  0  0  0  0  0
   -1.8134    0.6707   -1.1014 H   0  0  0  0  0  0  0  0  0  0  0  0
   -0.2076    0.5774   -1.8921 H   0  0  0  0  0  0  0  0  0  0  0  0
   -1.6153   -2.0102   -1.3471 H   0  0  0  0  0  0  0  0  0  0  0  0
    0.5878   -2.7616   -0.8872 H   0  0  0  0  0  0  0  0  0  0  0  0
   -0.2217   -1.9809    1.1775 H   0  0  0  0  0  0  0  0  0  0  0  0
  1  2  1  0  0  0  0
  1 11  1  0  0  0  0
  3  8  1  1  0  0  0
  3  2  1  0  0  0  0
  3  4  1  0  0  0  0
  4 14  1  0  0  0  0
  5  6  1  0  0  0  0
  5  3  1  0  0  0  0
  6  7  1  0  0  0  0
  6  8  1  1  0  0  0
  7 18  1  0  0  0  0
  7  8  1  0  0  0  0
  8 19  1  1  0  0  0
  9  1  1  0  0  0  0
 10  1  1  0  0  0  0
 12  4  1  0  0  0  0
 13  4  1  0  0  0  0
 15  5  1  0  0  0  0
 16  5  1  0  0  0  0
 17  6  1  0  0  0  0
M  END
