title
 OpenBabel02282109593D

 19 20  0  0  1  0  0  0  0  0999 V2000
   -0.9374    2.2695    1.1191 C   0  0  0  0  0  0  0  0  0  0  0  0
   -1.0554    0.7482    0.9690 C   0  0  0  0  0  0  0  0  0  0  0  0
   -0.2663    0.1907   -0.2162 C   0  0  1  0  0  0  0  0  0  0  0  0
   -0.7635    0.6947   -1.4479 O   0  0  0  0  0  0  0  0  0  0  0  0
    1.2954    0.1922   -0.1724 C   0  0  0  0  0  0  0  0  0  0  0  0
    1.3656   -1.2844   -0.4685 N   0  0  1  0  0  0  0  0  0  0  0  0
    0.6939   -1.9393    0.6668 C   0  0  0  0  0  0  0  0  0  0  0  0
   -0.1509   -1.3251   -0.3745 C   0  0  1  0  0  0  0  0  0  0  0  0
    0.1069    2.5824    1.2324 H   0  0  0  0  0  0  0  0  0  0  0  0
   -1.3567    2.7957    0.2543 H   0  0  0  0  0  0  0  0  0  0  0  0
   -1.4838    2.6194    1.9994 H   0  0  0  0  0  0  0  0  0  0  0  0
   -0.7112    0.2661    1.8905 H   0  0  0  0  0  0  0  0  0  0  0  0
   -2.1075    0.4680    0.8370 H   0  0  0  0  0  0  0  0  0  0  0  0
   -0.6120    1.6453   -1.4660 H   0  0  0  0  0  0  0  0  0  0  0  0
    1.7297    0.7618   -0.9963 H   0  0  0  0  0  0  0  0  0  0  0  0
    1.7809    0.4726    0.7695 H   0  0  0  0  0  0  0  0  0  0  0  0
    0.7933   -3.0205    0.6512 H   0  0  0  0  0  0  0  0  0  0  0  0
    0.7691   -1.4961    1.6578 H   0  0  0  0  0  0  0  0  0  0  0  0
   -0.7537   -1.8966   -1.0725 H   0  0  0  0  0  0  0  0  0  0  0  0
  1  9  1  0  0  0  0
  1 11  1  0  0  0  0
  2  1  1  0  0  0  0
  2 12  1  0  0  0  0
  3  8  1  6  0  0  0
  3  5  1  0  0  0  0
  3  2  1  0  0  0  0
  4  3  1  0  0  0  0
  5 16  1  0  0  0  0
  6  8  1  6  0  0  0
  6  5  1  0  0  0  0
  6  7  1  0  0  0  0
  7 18  1  0  0  0  0
  8 19  1  6  0  0  0
  8  7  1  0  0  0  0
 10  1  1  0  0  0  0
 13  2  1  0  0  0  0
 14  4  1  0  0  0  0
 15  5  1  0  0  0  0
 17  7  1  0  0  0  0
M  END
