title
 OpenBabel02282109593D

 20 21  0  0  1  0  0  0  0  0999 V2000
    1.0914    1.5684    1.4600 C   0  0  0  0  0  0  0  0  0  0  0  0
    0.7278    0.4227    0.5292 C   0  0  0  0  0  0  0  0  0  0  0  0
    1.4717    0.3579   -0.7848 C   0  0  0  0  0  0  0  0  0  0  0  0
    1.7780   -0.6427    0.3060 C   0  0  0  0  0  0  0  0  0  0  0  0
   -0.7210    0.0297    0.6567 C   0  0  1  0  0  0  0  0  0  0  0  0
   -1.8059    0.6434   -0.2164 C   0  0  0  0  0  0  0  0  0  0  0  0
   -1.5143   -0.8350   -0.2814 C   0  0  1  0  0  0  0  0  0  0  0  0
   -0.8916   -1.3947   -1.4041 O   0  0  0  0  0  0  0  0  0  0  0  0
    2.1506    1.8288    1.3691 H   0  0  0  0  0  0  0  0  0  0  0  0
    0.5038    2.4653    1.2317 H   0  0  0  0  0  0  0  0  0  0  0  0
    0.9020    1.3055    2.5079 H   0  0  0  0  0  0  0  0  0  0  0  0
    0.9537   -0.0112   -1.6584 H   0  0  0  0  0  0  0  0  0  0  0  0
    2.1972    1.1425   -0.9757 H   0  0  0  0  0  0  0  0  0  0  0  0
    2.7171   -0.5576    0.8437 H   0  0  0  0  0  0  0  0  0  0  0  0
    1.4381   -1.6594    0.1457 H   0  0  0  0  0  0  0  0  0  0  0  0
   -1.0067   -0.1122    1.6979 H   0  0  0  0  0  0  0  0  0  0  0  0
   -2.7343    0.9875    0.2270 H   0  0  0  0  0  0  0  0  0  0  0  0
   -1.4523    1.2324   -1.0568 H   0  0  0  0  0  0  0  0  0  0  0  0
   -2.2376   -1.5005    0.1911 H   0  0  0  0  0  0  0  0  0  0  0  0
   -1.5267   -1.3871   -2.1277 H   0  0  0  0  0  0  0  0  0  0  0  0
  1 11  1  0  0  0  0
  2  5  1  0  0  0  0
  2  1  1  0  0  0  0
  3  4  1  0  0  0  0
  3  2  1  0  0  0  0
  4  2  1  0  0  0  0
  4 14  1  0  0  0  0
  5  7  1  6  0  0  0
  5 16  1  0  0  0  0
  6 17  1  0  0  0  0
  6  5  1  0  0  0  0
  7  6  1  0  0  0  0
  7 19  1  1  0  0  0
  8  7  1  0  0  0  0
  9  1  1  0  0  0  0
 10  1  1  0  0  0  0
 12  3  1  0  0  0  0
 13  3  1  0  0  0  0
 15  4  1  0  0  0  0
 18  6  1  0  0  0  0
 20  8  1  0  0  0  0
M  END
