20
title
C -2.105116 -1.1783549 0.18171251
C -1.2087401 -0.8560287 -0.9893342
N -1.1259104 0.5580457 -1.3740138
C 0.09381601 -0.12245413 -0.9096607
C 0.7761395 0.40541098 0.33182108
C 0.9051951 1.913045 0.39468682
C 0.76150024 -0.3850182 1.5937284
N 1.9849104 -0.32521918 0.7721065
H -2.0188165 -0.42060086 0.9626039
H -3.1496286 -1.205535 -0.14739978
H -1.8655772 -2.157158 0.61139715
H -1.2688996 -1.5799569 -1.8028821
H -1.1133413 0.67055213 -2.3833423
H 0.8120713 -0.38319534 -1.6902181
H -0.082588404 2.380604 0.41730177
H 1.4700528 2.2091217 1.2820874
H 1.4368974 2.2919931 -0.4856094
H 0.8279128 0.12972675 2.5491922
H 0.20703617 -1.316874 1.6226562
H 2.0692828 -1.1920367 0.24361002
