19
title
C -1.3598313 1.265568 -1.561712
C -0.9459458 -0.18603967 -1.5176739
N 0.48731723 -0.51201946 -1.672094
C -0.19256012 -0.82633287 -0.40158713
C 0.35958794 -0.0919439 0.7917266
O 1.0465411 1.0815221 0.46645665
C -0.39626434 -0.06690212 2.0833235
C 0.8704766 -0.8960986 1.967459
H -1.3874912 1.6249571 -2.5962217
H -2.3639736 1.3824476 -1.1397642
H -0.6716072 1.8867496 -0.98828506
H -1.632035 -0.85746866 -2.0344913
H 0.6288432 -1.3404272 -2.2412567
H -0.4309019 -1.8694478 -0.20162652
H 1.4595593 0.8951673 -0.39149582
H -0.34093085 0.85226566 2.6555357
H -1.3513408 -0.5790511 2.1383286
H 0.782956 -1.9779725 1.9493856
H 1.7585984 -0.5148454 2.457798
