title
 OpenBabel02282109593D

 19 20  0  0  1  0  0  0  0  0999 V2000
   -2.1737   -0.9453    0.1721 C   0  0  0  0  0  0  0  0  0  0  0  0
   -1.2281   -0.7835   -0.9890 C   0  0  1  0  0  0  0  0  0  0  0  0
   -0.9790    0.5533   -1.4312 O   0  0  0  0  0  0  0  0  0  0  0  0
    0.1223   -0.1886   -0.9007 C   0  0  1  0  0  0  0  0  0  0  0  0
    0.7802    0.3352    0.3568 C   0  0  1  0  0  0  0  0  0  0  0  0
    0.8189    1.8448    0.4729 C   0  0  0  0  0  0  0  0  0  0  0  0
    0.7988   -0.5134    1.5811 C   0  0  0  0  0  0  0  0  0  0  0  0
    2.0208   -0.3479    0.7726 N   0  0  0  0  0  0  0  0  0  0  0  0
   -1.9474   -0.2372    0.9712 H   0  0  0  0  0  0  0  0  0  0  0  0
   -3.2023   -0.7721   -0.1612 H   0  0  0  0  0  0  0  0  0  0  0  0
   -2.1220   -1.9621    0.5763 H   0  0  0  0  0  0  0  0  0  0  0  0
   -1.3938   -1.4855   -1.8099 H   0  0  0  0  0  0  0  0  0  0  0  0
    0.8414   -0.4826   -1.6718 H   0  0  0  0  0  0  0  0  0  0  0  0
   -0.1933    2.2560    0.5064 H   0  0  0  0  0  0  0  0  0  0  0  0
    1.3607    2.1383    1.3753 H   0  0  0  0  0  0  0  0  0  0  0  0
    1.3303    2.2853   -0.3898 H   0  0  0  0  0  0  0  0  0  0  0  0
    0.8333   -0.0461    2.5622 H   0  0  0  0  0  0  0  0  0  0  0  0
    0.2895   -1.4721    1.5562 H   0  0  0  0  0  0  0  0  0  0  0  0
    2.1661   -1.1814    0.2052 H   0  0  0  0  0  0  0  0  0  0  0  0
  1 11  1  0  0  0  0
  1  9  1  0  0  0  0
  2  4  1  1  0  0  0
  2  1  1  0  0  0  0
  3  2  1  0  0  0  0
  3  4  1  0  0  0  0
  4 13  1  6  0  0  0
  4  5  1  0  0  0  0
  5  6  1  1  0  0  0
  5  8  1  0  0  0  0
  5  7  1  0  0  0  0
  6 14  1  0  0  0  0
  6 15  1  0  0  0  0
  7 17  1  0  0  0  0
  8  7  1  0  0  0  0
 10  1  1  0  0  0  0
 12  2  1  0  0  0  0
 16  6  1  0  0  0  0
 18  7  1  0  0  0  0
 19  8  1  0  0  0  0
M  END
