20
title
C -1.1217439 1.2806796 -1.7404046
C -1.1211805 -0.20104003 -1.4341155
C 0.0927387 -1.0583152 -1.688679
C -0.3567808 -0.80059755 -0.268962
C 0.44201145 0.0049277833 0.73059934
C 1.8072377 0.52801836 0.34025946
C -0.28530714 0.6547154 1.836378
O 0.41443583 -0.57030326 2.0527823
H -0.14341722 1.7380838 -1.5684438
H -1.3860804 1.4595464 -2.7884834
H -1.8488207 1.8161793 -1.1196196
H -2.0771554 -0.6813121 -1.6285458
H -0.035158914 -2.054138 -2.0989213
H 0.98997074 -0.5540222 -2.032378
H -0.85465133 -1.6278093 0.22771685
H 1.753946 1.2340642 -0.49413505
H 2.2677634 1.0361782 1.1907829
H 2.4594853 -0.29771152 0.038281363
H 0.13874085 1.5310947 2.326902
H -1.3720534 0.5854865 1.8765062
