22
title
C -2.3569899 0.20397963 -0.1325982
C -1.4130476 -0.7781884 -0.7903864
C -0.48558465 -0.34959128 -1.8994244
C 0.087728254 -0.75600886 -0.5598853
C 0.7920649 0.20975842 0.37373883
C 1.0123634 1.6332908 -0.10795824
C 0.5817771 0.006034624 1.8615433
C 1.8952945 -0.37727168 1.2293478
H -1.919229 1.2022744 -0.050878927
H -3.2843745 0.297346 -0.70906216
H -2.6265693 -0.11807018 0.8792029
H -1.8341937 -1.7753005 -0.89754575
H -0.33404085 -1.0047673 -2.750824
H -0.47564617 0.7053596 -2.152869
H 0.5364653 -1.7461847 -0.5517618
H 0.07243877 2.1614008 -0.30220717
H 1.5579561 2.211815 0.6442669
H 1.598601 1.6507168 -1.0333714
H 0.555035 0.88109064 2.5029752
H -0.083723046 -0.79249024 2.171648
H 2.1190884 -1.4336234 1.1202644
H 2.764496 0.2388557 1.4354733
