18
title
C -1.2097293 -1.8875061 0.8561922
C -0.7577893 -1.5239749 -0.5346468
O -1.3660771 -0.38729608 -1.1589733
C 0.029130206 -0.32027066 -0.8577811
C 0.48027295 0.7065944 0.16057402
C -0.53172946 1.7492752 0.575357
C 1.626291 0.37758338 1.0268322
O 1.7953641 1.2123297 -0.11880153
H -1.2367154 -1.0183746 1.516472
H -2.2113376 -2.3287876 0.8280254
H -0.5305047 -2.6292894 1.2903715
H -0.6456631 -2.3745513 -1.2104617
H 0.6857422 -0.35439432 -1.7284555
H -1.4091731 1.2898642 1.0368346
H -0.07860537 2.4497163 1.2810181
H -0.87944865 2.3075294 -0.2990008
H 1.7347224 0.87386584 1.9910766
H 2.0893207 -0.6066956 0.96009094
