title
 OpenBabel02282109593D

 20 21  0  0  1  0  0  0  0  0999 V2000
   -2.2760   -0.1310   -0.0462 C   0  0  0  0  0  0  0  0  0  0  0  0
   -1.3036   -1.0033   -0.6861 N   0  0  0  0  0  0  0  0  0  0  0  0
   -0.5570   -0.4888   -1.8254 C   0  0  0  0  0  0  0  0  0  0  0  0
    0.1328   -0.7452   -0.5271 C   0  0  1  0  0  0  0  0  0  0  0  0
    0.7253    0.3505    0.3374 C   0  0  1  0  0  0  0  0  0  0  0  0
    0.7407    1.7755   -0.1803 C   0  0  0  0  0  0  0  0  0  0  0  0
    0.6989    0.1107    1.8106 C   0  0  0  0  0  0  0  0  0  0  0  0
    1.9633    0.0001    1.0684 N   0  0  0  0  0  0  0  0  0  0  0  0
   -2.0252    0.9397   -0.0679 H   0  0  0  0  0  0  0  0  0  0  0  0
   -3.2402   -0.2609   -0.5481 H   0  0  0  0  0  0  0  0  0  0  0  0
   -2.3982   -0.4302    0.9995 H   0  0  0  0  0  0  0  0  0  0  0  0
   -0.4310   -1.1675   -2.6657 H   0  0  0  0  0  0  0  0  0  0  0  0
   -0.7113    0.5513   -2.1086 H   0  0  0  0  0  0  0  0  0  0  0  0
    0.6934   -1.6777   -0.4443 H   0  0  0  0  0  0  0  0  0  0  0  0
   -0.2660    2.1842   -0.3091 H   0  0  0  0  0  0  0  0  0  0  0  0
    1.2810    2.4125    0.5242 H   0  0  0  0  0  0  0  0  0  0  0  0
    1.2536    1.8312   -1.1461 H   0  0  0  0  0  0  0  0  0  0  0  0
    0.6404    0.9521    2.4965 H   0  0  0  0  0  0  0  0  0  0  0  0
    0.2227   -0.7985    2.1692 H   0  0  0  0  0  0  0  0  0  0  0  0
    2.1922   -0.9807    0.9228 H   0  0  0  0  0  0  0  0  0  0  0  0
  1 11  1  0  0  0  0
  2  4  1  0  0  0  0
  2  1  1  0  0  0  0
  3  2  1  0  0  0  0
  3  4  1  0  0  0  0
  4 14  1  6  0  0  0
  4  5  1  0  0  0  0
  5  6  1  6  0  0  0
  5  8  1  0  0  0  0
  5  7  1  0  0  0  0
  6 16  1  0  0  0  0
  7 19  1  0  0  0  0
  7 18  1  0  0  0  0
  8  7  1  0  0  0  0
  9  1  1  0  0  0  0
 10  1  1  0  0  0  0
 12  3  1  0  0  0  0
 13  3  1  0  0  0  0
 15  6  1  0  0  0  0
 17  6  1  0  0  0  0
 20  8  1  0  0  0  0
M  END
