19
title
C -1.2860872 0.94576806 -1.5240465
N -1.0524666 -0.48517716 -1.3480104
C 0.31149524 -0.9664969 -1.5505211
C -0.28830594 -0.9581312 -0.18931545
C 0.23441678 -0.049592588 0.8941512
C -0.7787118 0.38737404 1.9307582
C 1.659139 -0.13624638 1.2601051
O 1.1668879 0.9632438 0.48859808
H -0.46136934 1.5870252 -1.1872106
H -1.4596357 1.1345289 -2.588394
H -2.1958034 1.23059 -0.98480433
H 0.41370076 -1.895864 -2.1052818
H 1.0853347 -0.22399274 -1.7357391
H -0.6747766 -1.8946227 0.21450363
H -1.2268367 -0.48321292 2.4213676
H -0.30685484 1.0132401 2.6922445
H -1.5870242 0.96033233 1.4664135
H 1.9703981 0.11264449 2.273708
H 2.3110535 -0.8250057 0.72554374
