22
title
C 1.2506104 1.7056655 0.58647925
C 1.008293 0.20945917 0.5075807
C -0.43478867 -0.23284532 0.7245671
C -1.4312668 0.31547675 -0.2796742
C -1.6631827 -0.37648702 -1.5996233
C -2.7304344 -0.40668565 -0.53238994
C 1.8624098 -0.58934975 -0.4480318
C 2.0925996 -0.69629264 1.0421914
H 2.3153527 1.9378792 0.48497865
H 0.72079265 2.244294 -0.20681344
H 0.91278416 2.1108062 1.5483023
H -0.47930643 -1.3294795 0.70284766
H -0.74684894 0.06361883 1.7368404
H -1.4961421 1.3998803 -0.30480936
H -1.8322337 0.22975133 -2.4828343
H -1.1189969 -1.2947719 -1.7936038
H -2.89791 -1.3439888 -0.010995967
H -3.6296341 0.18054578 -0.6835005
H 1.4148145 -1.4370509 -0.95550966
H 2.6003232 -0.061081298 -1.0430417
H 2.985265 -0.23866181 1.4561726
H 1.7969987 -1.6150256 1.5388714
