title
 OpenBabel02282109593D

 21 22  0  0  1  0  0  0  0  0999 V2000
   -0.8870    1.0018   -1.8165 C   0  0  0  0  0  0  0  0  0  0  0  0
   -0.9354   -0.4041   -1.4470 N   0  0  0  0  0  0  0  0  0  0  0  0
    0.2931   -1.1800   -1.5446 C   0  0  0  0  0  0  0  0  0  0  0  0
   -0.2911   -0.8637   -0.2075 C   0  0  1  0  0  0  0  0  0  0  0  0
    0.3838    0.0409    0.8032 C   0  0  0  0  0  0  0  0  0  0  0  0
    1.7803    0.5598    0.5033 C   0  0  0  0  0  0  0  0  0  0  0  0
   -0.5303    0.9271    1.6300 C   0  0  0  0  0  0  0  0  0  0  0  0
    0.0993   -0.2880    2.2554 C   0  0  0  0  0  0  0  0  0  0  0  0
    0.0573    1.5137   -1.5797 H   0  0  0  0  0  0  0  0  0  0  0  0
   -1.0523    1.0825   -2.8960 H   0  0  0  0  0  0  0  0  0  0  0  0
   -1.6969    1.5376   -1.3118 H   0  0  0  0  0  0  0  0  0  0  0  0
    0.2019   -2.1766   -1.9710 H   0  0  0  0  0  0  0  0  0  0  0  0
    1.2050   -0.6557   -1.8266 H   0  0  0  0  0  0  0  0  0  0  0  0
   -0.8769   -1.6518    0.2642 H   0  0  0  0  0  0  0  0  0  0  0  0
    1.8123    1.2048   -0.3807 H   0  0  0  0  0  0  0  0  0  0  0  0
    2.1564    1.1485    1.3464 H   0  0  0  0  0  0  0  0  0  0  0  0
    2.4797   -0.2666    0.3357 H   0  0  0  0  0  0  0  0  0  0  0  0
   -0.1633    1.9063    1.9197 H   0  0  0  0  0  0  0  0  0  0  0  0
   -1.5938    0.8954    1.4196 H   0  0  0  0  0  0  0  0  0  0  0  0
   -0.5388   -1.1385    2.4718 H   0  0  0  0  0  0  0  0  0  0  0  0
    0.9011   -0.1427    2.9714 H   0  0  0  0  0  0  0  0  0  0  0  0
  1  9  1  0  0  0  0
  1  2  1  0  0  0  0
  1 11  1  0  0  0  0
  2  4  1  0  0  0  0
  3  2  1  0  0  0  0
  3  4  1  0  0  0  0
  4 14  1  1  0  0  0
  4  5  1  0  0  0  0
  5  7  1  0  0  0  0
  5  8  1  0  0  0  0
  6  5  1  0  0  0  0
  6 16  1  0  0  0  0
  7 18  1  0  0  0  0
  7  8  1  0  0  0  0
  8 20  1  0  0  0  0
  8 21  1  0  0  0  0
 10  1  1  0  0  0  0
 12  3  1  0  0  0  0
 13  3  1  0  0  0  0
 15  6  1  0  0  0  0
 17  6  1  0  0  0  0
 19  7  1  0  0  0  0
M  END
