title
 OpenBabel02282109593D

 22 23  0  0  0  0  0  0  0  0999 V2000
    0.7134    1.8380    0.2638 C   0  0  0  0  0  0  0  0  0  0  0  0
    0.6854    0.3343    0.0396 C   0  0  0  0  0  0  0  0  0  0  0  0
    1.7297   -0.2054   -0.9159 C   0  0  0  0  0  0  0  0  0  0  0  0
    1.8909   -0.4135    0.5706 C   0  0  0  0  0  0  0  0  0  0  0  0
   -0.6847   -0.3347    0.0469 C   0  0  0  0  0  0  0  0  0  0  0  0
   -0.7095   -1.8404    0.2575 C   0  0  0  0  0  0  0  0  0  0  0  0
   -1.8820    0.4081    0.6029 C   0  0  0  0  0  0  0  0  0  0  0  0
   -1.7433    0.2137   -0.8878 C   0  0  0  0  0  0  0  0  0  0  0  0
    1.7309    2.2198    0.1378 H   0  0  0  0  0  0  0  0  0  0  0  0
    0.0766    2.3767   -0.4468 H   0  0  0  0  0  0  0  0  0  0  0  0
    0.3877    2.1013    1.2756 H   0  0  0  0  0  0  0  0  0  0  0  0
    1.4772   -1.0683   -1.5226 H   0  0  0  0  0  0  0  0  0  0  0  0
    2.3802    0.5058   -1.4144 H   0  0  0  0  0  0  0  0  0  0  0  0
    2.6482    0.1633    1.0916 H   0  0  0  0  0  0  0  0  0  0  0  0
    1.7668   -1.4179    0.9561 H   0  0  0  0  0  0  0  0  0  0  0  0
   -0.3685   -2.1131    1.2618 H   0  0  0  0  0  0  0  0  0  0  0  0
   -1.7288   -2.2211    0.1435 H   0  0  0  0  0  0  0  0  0  0  0  0
   -0.0836   -2.3724   -0.4676 H   0  0  0  0  0  0  0  0  0  0  0  0
   -2.6314   -0.1735    1.1299 H   0  0  0  0  0  0  0  0  0  0  0  0
   -1.7521    1.4089    0.9957 H   0  0  0  0  0  0  0  0  0  0  0  0
   -1.4999    1.0822   -1.4902 H   0  0  0  0  0  0  0  0  0  0  0  0
   -2.4013   -0.4929   -1.3829 H   0  0  0  0  0  0  0  0  0  0  0  0
  1 11  1  0  0  0  0
  2  5  1  0  0  0  0
  2  1  1  0  0  0  0
  2  4  1  0  0  0  0
  3  2  1  0  0  0  0
  3  4  1  0  0  0  0
  4 15  1  0  0  0  0
  4 14  1  0  0  0  0
  5  6  1  0  0  0  0
  5  7  1  0  0  0  0
  6 16  1  0  0  0  0
  7 20  1  0  0  0  0
  7 19  1  0  0  0  0
  8  5  1  0  0  0  0
  8  7  1  0  0  0  0
  9  1  1  0  0  0  0
 10  1  1  0  0  0  0
 12  3  1  0  0  0  0
 13  3  1  0  0  0  0
 17  6  1  0  0  0  0
 18  6  1  0  0  0  0
 21  8  1  0  0  0  0
 22  8  1  0  0  0  0
M  END
