21
title
C 0.803883 1.744381 0.9667839
C 0.7053463 0.23706067 0.83059335
C -0.6703268 -0.27817246 0.44767937
N -1.1303431 0.28882006 -0.8174087
C -0.8527963 -0.47773185 -2.025517
C -2.2342815 -0.39701256 -1.4744624
C 1.9127487 -0.5173856 0.32318977
C 1.5131575 -0.61798656 1.7765082
H 1.8205522 2.0512822 1.2314938
H 0.52460796 2.2361927 0.030972783
H 0.12922531 2.1119301 1.7496188
H -0.65903175 -1.3838805 0.42177364
H -1.3966038 0.016304528 1.2172579
H -0.56997097 0.09823178 -2.9020705
H -0.334257 -1.4295815 -1.9204069
H -2.6316502 -1.2951388 -1.0026617
H -2.981889 0.24043028 -1.9384445
H 1.7559205 -1.3869396 -0.30621803
H 2.8020015 0.051890366 0.07394708
H 2.1290414 -0.11417889 2.5140715
H 1.0856564 -1.5536442 2.1231787
