title
 OpenBabel02282109593D

 20 21  0  0  1  0  0  0  0  0999 V2000
    0.7032    1.8728    0.6605 C   0  0  0  0  0  0  0  0  0  0  0  0
    0.6476    0.4570    0.1144 C   0  0  0  0  0  0  0  0  0  0  0  0
    1.5731    0.0935   -1.0187 C   0  0  0  0  0  0  0  0  0  0  0  0
    1.8266   -0.4547    0.3658 C   0  0  0  0  0  0  0  0  0  0  0  0
   -0.7267   -0.1767    0.1372 C   0  0  1  0  0  0  0  0  0  0  0  0
   -1.3594   -0.3607    1.5009 C   0  0  0  0  0  0  0  0  0  0  0  0
   -1.5883   -0.0810   -1.0523 C   0  0  0  0  0  0  0  0  0  0  0  0
   -0.8988   -1.2976   -0.7434 O   0  0  0  0  0  0  0  0  0  0  0  0
    1.7151    2.2795    0.5723 H   0  0  0  0  0  0  0  0  0  0  0  0
    0.0277    2.5377    0.1094 H   0  0  0  0  0  0  0  0  0  0  0  0
    0.4241    1.9152    1.7188 H   0  0  0  0  0  0  0  0  0  0  0  0
    1.2066   -0.6048   -1.7611 H   0  0  0  0  0  0  0  0  0  0  0  0
    2.2344    0.8660   -1.3969 H   0  0  0  0  0  0  0  0  0  0  0  0
    2.6630   -0.0649    0.9366 H   0  0  0  0  0  0  0  0  0  0  0  0
    1.6256   -1.5093    0.5212 H   0  0  0  0  0  0  0  0  0  0  0  0
   -1.5555    0.6019    1.9831 H   0  0  0  0  0  0  0  0  0  0  0  0
   -2.3047   -0.9007    1.4090 H   0  0  0  0  0  0  0  0  0  0  0  0
   -0.6956   -0.9356    2.1551 H   0  0  0  0  0  0  0  0  0  0  0  0
   -2.6716   -0.1228   -0.9457 H   0  0  0  0  0  0  0  0  0  0  0  0
   -1.2264    0.4440   -1.9352 H   0  0  0  0  0  0  0  0  0  0  0  0
  1 11  1  0  0  0  0
  2  5  1  0  0  0  0
  2  4  1  0  0  0  0
  2  1  1  0  0  0  0
  3  2  1  0  0  0  0
  3  4  1  0  0  0  0
  4 15  1  0  0  0  0
  4 14  1  0  0  0  0
  5  6  1  1  0  0  0
  6 16  1  0  0  0  0
  6 18  1  0  0  0  0
  7 19  1  0  0  0  0
  7  8  1  0  0  0  0
  7  5  1  0  0  0  0
  8  5  1  0  0  0  0
  9  1  1  0  0  0  0
 10  1  1  0  0  0  0
 12  3  1  0  0  0  0
 13  3  1  0  0  0  0
 17  6  1  0  0  0  0
 20  7  1  0  0  0  0
M  END
