18
title
O -0.63922864 -0.73366517 1.375659
C -1.024444 -0.16951197 0.15272164
C -2.490507 -0.24887854 -0.12699027
C -1.8560057 1.094456 0.1917387
C -0.0047712056 -0.37139925 -0.95584124
C 1.2440698 0.45233434 -0.7196319
O 1.9417713 0.20038341 0.51647854
C 2.5910325 -0.13076115 -0.7154627
H 0.27736476 -0.47005507 1.5329862
H -2.8215497 -0.43990326 -1.1422677
H -3.0989215 -0.7060147 0.64486516
H -2.0506325 1.5149988 1.1712825
H -1.7591896 1.821958 -0.6081409
H 0.25130573 -1.4361539 -1.0028177
H -0.43316653 -0.08947291 -1.924247
H 1.1528404 1.5161895 -0.9402612
H 2.7111862 -1.1957873 -0.9076484
H 3.4543664 0.48643708 -0.9574923
