title
 OpenBabel02282109593D

 21 22  0  0  0  0  0  0  0  0999 V2000
    0.8039    1.7444    0.9668 C   0  0  0  0  0  0  0  0  0  0  0  0
    0.7053    0.2371    0.8306 C   0  0  0  0  0  0  0  0  0  0  0  0
   -0.6703   -0.2782    0.4477 C   0  0  0  0  0  0  0  0  0  0  0  0
   -1.1303    0.2888   -0.8174 N   0  0  0  0  0  0  0  0  0  0  0  0
   -0.8528   -0.4777   -2.0255 C   0  0  0  0  0  0  0  0  0  0  0  0
   -2.2343   -0.3970   -1.4745 C   0  0  0  0  0  0  0  0  0  0  0  0
    1.9127   -0.5174    0.3232 C   0  0  0  0  0  0  0  0  0  0  0  0
    1.5132   -0.6180    1.7765 C   0  0  0  0  0  0  0  0  0  0  0  0
    1.8206    2.0513    1.2315 H   0  0  0  0  0  0  0  0  0  0  0  0
    0.5246    2.2362    0.0310 H   0  0  0  0  0  0  0  0  0  0  0  0
    0.1292    2.1119    1.7496 H   0  0  0  0  0  0  0  0  0  0  0  0
   -0.6590   -1.3839    0.4218 H   0  0  0  0  0  0  0  0  0  0  0  0
   -1.3966    0.0163    1.2173 H   0  0  0  0  0  0  0  0  0  0  0  0
   -0.5700    0.0982   -2.9021 H   0  0  0  0  0  0  0  0  0  0  0  0
   -0.3343   -1.4296   -1.9204 H   0  0  0  0  0  0  0  0  0  0  0  0
   -2.6317   -1.2951   -1.0027 H   0  0  0  0  0  0  0  0  0  0  0  0
   -2.9819    0.2404   -1.9384 H   0  0  0  0  0  0  0  0  0  0  0  0
    1.7559   -1.3869   -0.3062 H   0  0  0  0  0  0  0  0  0  0  0  0
    2.8020    0.0519    0.0739 H   0  0  0  0  0  0  0  0  0  0  0  0
    2.1290   -0.1142    2.5141 H   0  0  0  0  0  0  0  0  0  0  0  0
    1.0857   -1.5536    2.1232 H   0  0  0  0  0  0  0  0  0  0  0  0
  1  9  1  0  0  0  0
  1 11  1  0  0  0  0
  2  1  1  0  0  0  0
  2  8  1  0  0  0  0
  3  2  1  0  0  0  0
  3 13  1  0  0  0  0
  4  3  1  0  0  0  0
  5 15  1  0  0  0  0
  5  6  1  0  0  0  0
  5  4  1  0  0  0  0
  6 16  1  0  0  0  0
  6  4  1  0  0  0  0
  7  2  1  0  0  0  0
  7  8  1  0  0  0  0
  8 21  1  0  0  0  0
  8 20  1  0  0  0  0
 10  1  1  0  0  0  0
 12  3  1  0  0  0  0
 14  5  1  0  0  0  0
 17  6  1  0  0  0  0
 18  7  1  0  0  0  0
 19  7  1  0  0  0  0
M  END
