18
title
O 0.77261263 1.65939 -0.25444672
C 0.70395637 0.26862842 -0.06350647
C 1.7428577 -0.51101637 -0.8158397
C 1.8265287 -0.38980934 0.6945275
C -0.70396525 -0.26864126 0.06348616
O -0.7726566 -1.6594207 0.2543498
C -1.7428102 0.5110073 0.81590456
C -1.8265452 0.38986573 -0.69446355
H 0.69914186 2.078111 0.60982084
H 1.4801433 -1.4762495 -1.2339877
H 2.4383225 0.07115378 -1.4085652
H 2.594605 0.25918043 1.100931
H 1.5888299 -1.2665329 1.2845749
H -0.69880944 -2.0781226 -0.6098883
H -2.4382644 -0.07118166 1.408623
H -1.4800339 1.4762063 1.2340935
H -1.5888288 1.2665925 -1.2844999
H -2.5946677 -0.25907698 -1.1008562
