title
 OpenBabel02282109593D

 18 19  0  0  1  0  0  0  0  0999 V2000
    0.6480    1.7861   -0.7975 C   0  0  0  0  0  0  0  0  0  0  0  0
    0.6425    0.3962   -0.1996 C   0  0  1  0  0  0  0  0  0  0  0  0
    1.8519   -0.4359   -0.2572 C   0  0  0  0  0  0  0  0  0  0  0  0
    1.4689    0.2236    0.9579 O   0  0  0  0  0  0  0  0  0  0  0  0
   -0.7110   -0.2703   -0.1137 C   0  0  0  0  0  0  0  0  0  0  0  0
   -1.3237   -0.4532   -1.3664 O   0  0  0  0  0  0  0  0  0  0  0  0
   -0.9546   -1.3567    0.8842 C   0  0  0  0  0  0  0  0  0  0  0  0
   -1.5958    0.0047    1.0763 C   0  0  0  0  0  0  0  0  0  0  0  0
    1.6564    2.2057   -0.7861 H   0  0  0  0  0  0  0  0  0  0  0  0
    0.2963    1.7612   -1.8340 H   0  0  0  0  0  0  0  0  0  0  0  0
   -0.0078    2.4529   -0.2269 H   0  0  0  0  0  0  0  0  0  0  0  0
    1.7583   -1.5201   -0.2470 H   0  0  0  0  0  0  0  0  0  0  0  0
    2.7534   -0.0470   -0.7285 H   0  0  0  0  0  0  0  0  0  0  0  0
   -1.7373    0.3787   -1.6205 H   0  0  0  0  0  0  0  0  0  0  0  0
   -1.5921   -2.1698    0.5582 H   0  0  0  0  0  0  0  0  0  0  0  0
   -0.1433   -1.6229    1.5505 H   0  0  0  0  0  0  0  0  0  0  0  0
   -1.2090    0.6369    1.8681 H   0  0  0  0  0  0  0  0  0  0  0  0
   -2.6611    0.0893    0.8907 H   0  0  0  0  0  0  0  0  0  0  0  0
  1  9  1  0  0  0  0
  1 11  1  0  0  0  0
  2  1  1  6  0  0  0
  2  5  1  0  0  0  0
  2  4  1  0  0  0  0
  3 12  1  0  0  0  0
  3  2  1  0  0  0  0
  3  4  1  0  0  0  0
  5  7  1  0  0  0  0
  5  8  1  0  0  0  0
  6  5  1  0  0  0  0
  7  8  1  0  0  0  0
  7 16  1  0  0  0  0
  8 17  1  0  0  0  0
 10  1  1  0  0  0  0
 13  3  1  0  0  0  0
 14  6  1  0  0  0  0
 15  7  1  0  0  0  0
 18  8  1  0  0  0  0
M  END
