18
title
C 0.647965 1.7860917 -0.7975131
C 0.642453 0.39620337 -0.19962575
C 1.8519458 -0.4359012 -0.25715068
O 1.4689308 0.22364172 0.9578777
C -0.7110273 -0.27030805 -0.11372429
O -1.3237149 -0.45315292 -1.3664441
C -0.95459884 -1.3567193 0.8842452
C -1.5957819 0.0046877656 1.076288
H 1.6564327 2.2056885 -0.7861425
H 0.29626226 1.761216 -1.8339524
H -0.007839734 2.4528673 -0.2269383
H 1.7582603 -1.5201311 -0.24695858
H 2.753363 -0.047047578 -0.7285005
H -1.7373384 0.3786503 -1.6205256
H -1.5921022 -2.1698372 0.55819446
H -0.14330488 -1.6229188 1.5505116
H -1.2090404 0.63687384 1.8680819
H -2.6610713 0.08925531 0.89073914
