19
title
C -0.35001448 2.388378 0.14005527
C -0.4906317 0.89877635 0.15461077
C -1.4945298 0.13918528 0.9744199
C -0.02375322 -0.16375872 1.1268679
C 0.56892896 -0.9066721 -0.089251176
C 1.9825207 -1.4075524 -0.077415705
C -0.41362312 -1.207218 -1.150342
N 0.116621114 0.17293057 -1.0423392
H 0.6766212 2.6788888 -0.10423814
H -1.009397 2.832043 -0.61562014
H -0.61205214 2.8152802 1.1129972
H -1.8973637 0.72964495 1.7927145
H -2.210152 -0.57269895 0.57798785
H 0.50613606 -0.0583261 2.0653784
H 2.0645075 -2.3301392 0.50990564
H 2.3281522 -1.6154085 -1.0938276
H 2.656835 -0.66602254 0.3657342
H -0.033953868 -1.707342 -2.0376744
H -1.4552943 -1.4244229 -0.94554335
