20
title
C 0.79590976 1.8507892 -0.16686471
C 0.71032757 0.34034368 -0.042444266
C 1.808559 -0.45055017 -0.721869
C 1.7736094 -0.3450909 0.78443074
C -0.67947936 -0.26490858 0.00047270078
O -0.69782794 -1.6738663 0.00467152
C -1.7602752 0.32398522 0.859283
C -1.868074 0.40062612 -0.65275806
H 1.8402085 2.1740189 -0.12811695
H 0.379549 2.2059538 -1.1156173
H 0.26909056 2.361375 0.64662087
H 1.5761851 -1.4169863 -1.1540469
H 2.5638416 0.10633461 -1.2663708
H 2.5143526 0.2741223 1.2791401
H 1.4816707 -1.2348285 1.3293483
H -0.55703425 -1.9701734 -0.9008532
H -2.398974 -0.38618353 1.3708566
H -1.5598725 1.2364509 1.4083819
H -1.7470502 1.3662755 -1.1291014
H -2.5871274 -0.25461075 -1.1323116
