19
title
C 0.6617203 1.7761899 -0.7944359
C 0.65537715 0.39174414 -0.17732869
C 1.8504689 -0.47304204 -0.34741265
N 1.5403291 0.123878144 0.96852565
C -0.7106347 -0.24681716 -0.08193815
O -1.3409264 -0.4096643 -1.3310045
C -0.97747254 -1.3414571 0.90114117
C -1.5879626 0.03089093 1.1135418
H 1.6793014 2.1734169 -0.86487126
H 0.24703549 1.7538152 -1.8076291
H 0.063131556 2.4744153 -0.19745623
H 1.7317063 -1.5514355 -0.39512533
H 2.6946967 -0.08092893 -0.908717
H 2.1417923 0.9271999 1.1335402
H -1.7430537 0.43098956 -1.5732474
H -1.6357217 -2.1321905 0.56112283
H -0.17134197 -1.6363902 1.5611852
H -1.1836691 0.6414435 1.9134994
H -2.6519248 0.14196728 0.9338901
