19
title
C 0.80527467 1.3012815 -1.3053993
C 0.69911075 0.26936015 -0.19905555
C 1.9089602 -0.50362766 0.18723366
N 1.3800178 0.5479987 1.0758007
C -0.6614487 -0.38206244 -0.0776638
C -1.0603924 -1.3040526 -1.2109662
C -1.2776513 -0.539467 1.2466049
O -1.6982083 0.50947034 0.3647587
H 1.8100721 1.7349426 -1.338485
H 0.60085434 0.86614686 -2.2888541
H 0.082805805 2.1064622 -1.138015
H 1.8121749 -1.5139117 0.5762928
H 2.8305175 -0.31632167 -0.35845703
H 1.9384571 1.3933737 0.98690575
H -0.35299027 -2.1345792 -1.3057592
H -2.0577073 -1.7125854 -1.0321248
H -1.0830027 -0.7709166 -2.1668081
H -2.0068667 -1.3352568 1.3985308
H -0.7281494 -0.21345837 2.124508
