20
title
C -0.6049079 2.4077559 0.102571614
C -0.60511124 0.9075128 0.08078649
C -1.523808 0.056238152 0.91352445
C -0.029623609 -0.08206739 1.0827279
C 0.6936572 -0.8427038 -0.07036666
C 2.1142683 -1.3030624 0.07502445
C -0.25113875 -1.3553171 -1.1223716
C 0.078296326 0.117692865 -1.0770001
H 0.3881714 2.810808 -0.13034163
H -1.3072457 2.8185391 -0.6341424
H -0.89703625 2.7875097 1.0870641
H -2.0040078 0.59584945 1.7259312
H -2.1472116 -0.7309089 0.50358427
H 0.4592149 0.12695447 2.0273302
H 2.1862447 -2.1752367 0.7375202
H 2.5376153 -1.5867329 -0.89404
H 2.7483542 -0.51521516 0.49945003
H 0.2423972 -1.8851683 -1.9332087
H -1.2382345 -1.7468917 -0.9019291
H 0.5613267 0.61998427 -1.9072481
