18
title
C 0.6733821 1.8602839 0.01520299
C 0.674263 0.34783092 -0.035111554
C 1.8132106 -0.34083894 -0.6699505
O 1.6988358 -0.28096572 0.7537685
C -0.6742704 -0.34777048 0.03524043
C -0.67338264 -1.8602614 -0.0142306425
C -1.8134552 0.34115094 0.6693776
O -1.6985956 0.2806038 -0.7542879
H 1.6703837 2.247009 -0.20553415
H -0.035191473 2.2632012 -0.7127787
H 0.39140776 2.2167192 1.0106583
H 1.6983706 -1.3300035 -1.1063495
H 2.613868 0.2598021 -1.099663
H 0.034534577 -2.2628064 0.7145871
H -1.6706253 -2.246766 0.205799
H -0.39054728 -2.2173238 -1.009215
H -2.6142213 -0.25932315 1.0991144
H -1.6987835 1.3305298 1.1053314
