title
 OpenBabel02282109593D

 19 20  0  0  1  0  0  0  0  0999 V2000
    0.8053    1.3013   -1.3054 C   0  0  0  0  0  0  0  0  0  0  0  0
    0.6991    0.2694   -0.1991 C   0  0  1  0  0  0  0  0  0  0  0  0
    1.9090   -0.5036    0.1872 C   0  0  0  0  0  0  0  0  0  0  0  0
    1.3800    0.5480    1.0758 N   0  0  0  0  0  0  0  0  0  0  0  0
   -0.6614   -0.3821   -0.0777 C   0  0  1  0  0  0  0  0  0  0  0  0
   -1.0604   -1.3041   -1.2110 C   0  0  0  0  0  0  0  0  0  0  0  0
   -1.2777   -0.5395    1.2466 C   0  0  0  0  0  0  0  0  0  0  0  0
   -1.6982    0.5095    0.3648 O   0  0  0  0  0  0  0  0  0  0  0  0
    1.8101    1.7349   -1.3385 H   0  0  0  0  0  0  0  0  0  0  0  0
    0.6009    0.8661   -2.2889 H   0  0  0  0  0  0  0  0  0  0  0  0
    0.0828    2.1065   -1.1380 H   0  0  0  0  0  0  0  0  0  0  0  0
    1.8122   -1.5139    0.5763 H   0  0  0  0  0  0  0  0  0  0  0  0
    2.8305   -0.3163   -0.3585 H   0  0  0  0  0  0  0  0  0  0  0  0
    1.9385    1.3934    0.9869 H   0  0  0  0  0  0  0  0  0  0  0  0
   -0.3530   -2.1346   -1.3058 H   0  0  0  0  0  0  0  0  0  0  0  0
   -2.0577   -1.7126   -1.0321 H   0  0  0  0  0  0  0  0  0  0  0  0
   -1.0830   -0.7709   -2.1668 H   0  0  0  0  0  0  0  0  0  0  0  0
   -2.0069   -1.3353    1.3985 H   0  0  0  0  0  0  0  0  0  0  0  0
   -0.7281   -0.2135    2.1245 H   0  0  0  0  0  0  0  0  0  0  0  0
  1 11  1  0  0  0  0
  2  1  1  6  0  0  0
  2  5  1  0  0  0  0
  2  3  1  0  0  0  0
  2  4  1  0  0  0  0
  3 12  1  0  0  0  0
  3  4  1  0  0  0  0
  5  6  1  6  0  0  0
  5  8  1  0  0  0  0
  5  7  1  0  0  0  0
  6 16  1  0  0  0  0
  7 18  1  0  0  0  0
  7 19  1  0  0  0  0
  8  7  1  0  0  0  0
  9  1  1  0  0  0  0
 10  1  1  0  0  0  0
 13  3  1  0  0  0  0
 14  4  1  0  0  0  0
 15  6  1  0  0  0  0
 17  6  1  0  0  0  0
M  END
