20
title
C 0.96026665 1.3175156 1.2319286
C 0.66752404 0.35474202 0.09319593
C 1.3579713 0.5991414 -1.2022717
N 1.757267 -0.53489465 -0.3511056
C -0.6961617 -0.3052681 0.16879399
C -0.8300752 -1.3351477 1.2738063
C -1.8756819 0.503639 -0.24159318
N -1.4418504 -0.6489773 -1.0510126
H 1.9477617 1.7754134 1.112628
H 0.21775056 2.1211188 1.270829
H 0.943407 0.80449873 2.1991947
H 0.9148313 0.31756547 -2.1536503
H 2.0095325 1.4678136 -1.264599
H 2.6176796 -0.3135897 0.14505671
H -0.7084606 -0.8856938 2.2651372
H -1.8141882 -1.8066984 1.2276788
H -0.06863485 -2.1116467 1.1517073
H -2.8285737 0.37989613 0.26667497
H -1.6972816 1.5039042 -0.6301472
H -0.958011 -0.32148206 -1.8815944
