title
 OpenBabel02282109593D

 19 21  0  0  1  0  0  0  0  0999 V2000
   -0.6684    2.4216    0.0898 C   0  0  0  0  0  0  0  0  0  0  0  0
   -0.6142    0.9226    0.0780 C   0  0  2  0  0  0  0  0  0  0  0  0
   -1.5098    0.0213    0.8845 C   0  0  0  0  0  0  0  0  0  0  0  0
   -0.0159   -0.0430    1.0961 C   0  0  1  0  0  0  0  0  0  0  0  0
    0.7284   -0.7816   -0.0620 C   0  0  1  0  0  0  0  0  0  0  0  0
    2.0969   -1.3719    0.0563 C   0  0  0  0  0  0  0  0  0  0  0  0
   -0.2942   -1.3007   -1.0076 N   0  0  0  0  0  0  0  0  0  0  0  0
    0.1211    0.1309   -1.0503 C   0  0  1  0  0  0  0  0  0  0  0  0
    0.3088    2.8617   -0.1443 H   0  0  0  0  0  0  0  0  0  0  0  0
   -1.3867    2.8030   -0.6471 H   0  0  0  0  0  0  0  0  0  0  0  0
   -0.9734    2.7949    1.0728 H   0  0  0  0  0  0  0  0  0  0  0  0
   -2.0487    0.5277    1.6806 H   0  0  0  0  0  0  0  0  0  0  0  0
   -2.0349   -0.8059    0.4245 H   0  0  0  0  0  0  0  0  0  0  0  0
    0.4559    0.1881    2.0437 H   0  0  0  0  0  0  0  0  0  0  0  0
    2.0789   -2.3061    0.6308 H   0  0  0  0  0  0  0  0  0  0  0  0
    2.5190   -1.5906   -0.9309 H   0  0  0  0  0  0  0  0  0  0  0  0
    2.7783   -0.6822    0.5670 H   0  0  0  0  0  0  0  0  0  0  0  0
    0.2111   -1.7727   -1.7581 H   0  0  0  0  0  0  0  0  0  0  0  0
    0.5324    0.5665   -1.9535 H   0  0  0  0  0  0  0  0  0  0  0  0
  1 11  1  0  0  0  0
  2  8  1  6  0  0  0
  2  1  1  0  0  0  0
  2  3  1  0  0  0  0
  2  4  1  0  0  0  0
  3  4  1  0  0  0  0
  3 12  1  0  0  0  0
  4  5  1  6  0  0  0
  4 14  1  0  0  0  0
  5  8  1  6  0  0  0
  5  6  1  0  0  0  0
  6 17  1  0  0  0  0
  6 15  1  0  0  0  0
  7  5  1  0  0  0  0
  8 19  1  6  0  0  0
  8  7  1  0  0  0  0
  9  1  1  0  0  0  0
 10  1  1  0  0  0  0
 13  3  1  0  0  0  0
 16  6  1  0  0  0  0
 18  7  1  0  0  0  0
M  END
