title
 OpenBabel02282109593D

 19 20  0  0  1  0  0  0  0  0999 V2000
    0.6617    1.7762   -0.7944 C   0  0  0  0  0  0  0  0  0  0  0  0
    0.6554    0.3917   -0.1773 C   0  0  1  0  0  0  0  0  0  0  0  0
    1.8505   -0.4730   -0.3474 C   0  0  0  0  0  0  0  0  0  0  0  0
    1.5403    0.1239    0.9685 N   0  0  0  0  0  0  0  0  0  0  0  0
   -0.7106   -0.2468   -0.0819 C   0  0  0  0  0  0  0  0  0  0  0  0
   -1.3409   -0.4097   -1.3310 O   0  0  0  0  0  0  0  0  0  0  0  0
   -0.9775   -1.3415    0.9011 C   0  0  0  0  0  0  0  0  0  0  0  0
   -1.5880    0.0309    1.1135 C   0  0  0  0  0  0  0  0  0  0  0  0
    1.6793    2.1734   -0.8649 H   0  0  0  0  0  0  0  0  0  0  0  0
    0.2470    1.7538   -1.8076 H   0  0  0  0  0  0  0  0  0  0  0  0
    0.0631    2.4744   -0.1975 H   0  0  0  0  0  0  0  0  0  0  0  0
    1.7317   -1.5514   -0.3951 H   0  0  0  0  0  0  0  0  0  0  0  0
    2.6947   -0.0809   -0.9087 H   0  0  0  0  0  0  0  0  0  0  0  0
    2.1418    0.9272    1.1335 H   0  0  0  0  0  0  0  0  0  0  0  0
   -1.7431    0.4310   -1.5732 H   0  0  0  0  0  0  0  0  0  0  0  0
   -1.6357   -2.1322    0.5611 H   0  0  0  0  0  0  0  0  0  0  0  0
   -0.1713   -1.6364    1.5612 H   0  0  0  0  0  0  0  0  0  0  0  0
   -1.1837    0.6414    1.9135 H   0  0  0  0  0  0  0  0  0  0  0  0
   -2.6519    0.1420    0.9339 H   0  0  0  0  0  0  0  0  0  0  0  0
  1 11  1  0  0  0  0
  2  1  1  6  0  0  0
  2  5  1  0  0  0  0
  2  4  1  0  0  0  0
  3  2  1  0  0  0  0
  3  4  1  0  0  0  0
  4 14  1  0  0  0  0
  5  7  1  0  0  0  0
  5  8  1  0  0  0  0
  6  5  1  0  0  0  0
  7  8  1  0  0  0  0
  7 17  1  0  0  0  0
  8 18  1  0  0  0  0
  9  1  1  0  0  0  0
 10  1  1  0  0  0  0
 12  3  1  0  0  0  0
 13  3  1  0  0  0  0
 15  6  1  0  0  0  0
 16  7  1  0  0  0  0
 19  8  1  0  0  0  0
M  END
