18
title
C -0.6370871 2.4701984 -0.023146154
C -0.64289445 0.9819431 0.088135764
C -1.603162 0.12630588 0.8578139
C -0.10680401 -0.01246113 1.0984092
C 0.50315654 -0.6885372 -0.0994387
C 1.8997258 -1.1695453 -0.29847443
C 0.7162734 -2.12356 -0.442884
O -0.103437245 0.23435777 -1.0211847
H 0.3693607 2.8441784 -0.2347003
H -1.298841 2.7964213 -0.8336883
H -0.9930973 2.924679 0.9058668
H -2.143135 0.6299882 1.6541823
H -2.152368 -0.6632673 0.35263315
H 0.36702347 0.13673037 2.0595806
H 2.4043984 -0.8587684 -1.2067834
H 2.5425618 -1.2685071 0.5705445
H 0.5539726 -2.8745437 0.3232333
H 0.45228112 -2.433818 -1.448048
