18
title
C -0.7015596 2.4219084 0.10139651
C -0.55188245 0.93428177 0.089831755
N -1.4597131 0.012486956 0.8116953
C 0.0040243496 -0.018889107 1.0776651
C 0.7247147 -0.80954635 -0.07035234
C 2.0810728 -1.4262968 0.054069996
N -0.31291404 -1.2918147 -1.0114666
C 0.14183453 0.12415757 -1.0612257
H 0.21568081 2.9132216 -0.2431473
H -1.5182734 2.745281 -0.55531824
H -0.9169118 2.787142 1.1115686
H -1.8697252 0.55811334 1.572117
H 0.40670368 0.15276094 2.0688329
H 2.0405133 -2.3683853 0.61415
H 2.5078175 -1.6389483 -0.93228096
H 2.771837 -0.7571001 0.57985455
H 0.18769488 -1.7720455 -1.7616858
H 0.5715435 0.553255 -1.9585848
