title
 OpenBabel02282109593D

 18 20  0  0  1  0  0  0  0  0999 V2000
   -0.7016    2.4219    0.1014 C   0  0  0  0  0  0  0  0  0  0  0  0
   -0.5519    0.9343    0.0898 C   0  0  2  0  0  0  0  0  0  0  0  0
   -1.4597    0.0125    0.8117 N   0  0  0  0  0  0  0  0  0  0  0  0
    0.0040   -0.0189    1.0777 C   0  0  1  0  0  0  0  0  0  0  0  0
    0.7247   -0.8095   -0.0704 C   0  0  1  0  0  0  0  0  0  0  0  0
    2.0811   -1.4263    0.0541 C   0  0  0  0  0  0  0  0  0  0  0  0
   -0.3129   -1.2918   -1.0115 N   0  0  0  0  0  0  0  0  0  0  0  0
    0.1418    0.1242   -1.0612 C   0  0  1  0  0  0  0  0  0  0  0  0
    0.2157    2.9132   -0.2431 H   0  0  0  0  0  0  0  0  0  0  0  0
   -1.5183    2.7453   -0.5553 H   0  0  0  0  0  0  0  0  0  0  0  0
   -0.9169    2.7871    1.1116 H   0  0  0  0  0  0  0  0  0  0  0  0
   -1.8697    0.5581    1.5721 H   0  0  0  0  0  0  0  0  0  0  0  0
    0.4067    0.1528    2.0688 H   0  0  0  0  0  0  0  0  0  0  0  0
    2.0405   -2.3684    0.6141 H   0  0  0  0  0  0  0  0  0  0  0  0
    2.5078   -1.6389   -0.9323 H   0  0  0  0  0  0  0  0  0  0  0  0
    2.7718   -0.7571    0.5799 H   0  0  0  0  0  0  0  0  0  0  0  0
    0.1877   -1.7720   -1.7617 H   0  0  0  0  0  0  0  0  0  0  0  0
    0.5715    0.5533   -1.9586 H   0  0  0  0  0  0  0  0  0  0  0  0
  1 11  1  0  0  0  0
  2  8  1  6  0  0  0
  2  1  1  0  0  0  0
  2  3  1  0  0  0  0
  2  4  1  0  0  0  0
  3  4  1  0  0  0  0
  3 12  1  0  0  0  0
  4  5  1  6  0  0  0
  4 13  1  0  0  0  0
  5  8  1  6  0  0  0
  5  6  1  0  0  0  0
  6 16  1  0  0  0  0
  6 14  1  0  0  0  0
  7  5  1  0  0  0  0
  8 18  1  6  0  0  0
  8  7  1  0  0  0  0
  9  1  1  0  0  0  0
 10  1  1  0  0  0  0
 15  6  1  0  0  0  0
 17  7  1  0  0  0  0
M  END
