20
title
C -0.743723 2.5593774 0.041455034
C -0.6690284 1.0608511 -0.010544292
C -1.5658126 0.16171093 0.79763883
C -0.07283666 0.062946625 0.99306434
C 0.53178066 -0.72665787 -0.14950812
C 1.9080278 -1.3142602 -0.18643446
C 0.69129425 -2.2155561 -0.26132274
C -0.058443684 0.2611462 -1.1789335
H 0.21804182 3.0179203 -0.21663848
H -1.4927078 2.9455805 -0.66137636
H -1.0225645 2.9078894 1.0415734
H -2.1073377 0.65518385 1.599574
H -2.109249 -0.65694964 0.33031413
H 0.40056303 0.25382 1.9501921
H 2.502146 -1.1791916 -1.0852407
H 2.4880378 -1.3187761 0.7314897
H 0.45303324 -2.8255897 0.60430837
H 0.46697298 -2.6859725 -1.2135766
H -0.7678198 -0.1419519 -1.9109899
H 0.7175774 0.8206542 -1.7107807
