18
title
C -0.67825323 2.3964353 0.23322928
C -0.6361707 0.8983573 0.15412588
C -1.4830523 -0.011882333 1.0036455
C 0.020997766 -0.104073375 1.0911797
C 0.685747 -0.79794914 -0.13716346
O 2.025451 -1.142381 -0.123099506
C -0.28395107 -1.3120666 -1.1640421
C 0.0150134 0.17521426 -1.0685378
H 0.2917269 2.8364215 -0.02690837
H -1.4249692 2.8122525 -0.45522326
H -0.9363394 2.7297573 1.2437248
H -1.9439809 0.4834816 1.854624
H -2.095352 -0.8095526 0.5970757
H 0.5732213 0.09316811 2.0019636
H 2.102093 -2.0314426 0.24271688
H 0.21591592 -1.7804854 -2.007333
H -1.2517617 -1.7446983 -0.9335021
H 0.43848872 0.7194749 -1.903064
