title
 OpenBabel02282109593D

 16 18  0  0  1  0  0  0  0  0999 V2000
    0.0597    2.2660   -0.6068 O   0  0  0  0  0  0  0  0  0  0  0  0
    0.1700    0.8884   -0.5896 C   0  0  2  0  0  0  0  0  0  0  0  0
   -0.1409    0.0258   -1.7831 C   0  0  0  0  0  0  0  0  0  0  0  0
   -0.9604   -0.1022   -0.5103 C   0  0  1  0  0  0  0  0  0  0  0  0
   -0.2143   -0.8325    0.6535 C   0  0  1  0  0  0  0  0  0  0  0  0
   -0.8864   -1.2224    1.7964 O   0  0  0  0  0  0  0  0  0  0  0  0
    1.1667   -1.3206    0.3071 C   0  0  0  0  0  0  0  0  0  0  0  0
    0.9187    0.1548    0.5704 C   0  0  1  0  0  0  0  0  0  0  0  0
    0.8270    2.6228   -1.0694 H   0  0  0  0  0  0  0  0  0  0  0  0
   -0.6633    0.5707   -2.5648 H   0  0  0  0  0  0  0  0  0  0  0  0
    0.5054   -0.7620   -2.1554 H   0  0  0  0  0  0  0  0  0  0  0  0
   -2.0257    0.0853   -0.4808 H   0  0  0  0  0  0  0  0  0  0  0  0
   -1.2314   -2.1115    1.6533 H   0  0  0  0  0  0  0  0  0  0  0  0
    1.6530   -1.8196    1.1410 H   0  0  0  0  0  0  0  0  0  0  0  0
    1.4530   -1.7103   -0.6641 H   0  0  0  0  0  0  0  0  0  0  0  0
    1.4072    0.6956    1.3702 H   0  0  0  0  0  0  0  0  0  0  0  0
  1  2  1  0  0  0  0
  2  4  1  1  0  0  0
  3  2  1  0  0  0  0
  3  4  1  0  0  0  0
  4 12  1  0  0  0  0
  4  5  1  1  0  0  0
  5  8  1  1  0  0  0
  5  6  1  0  0  0  0
  7  8  1  0  0  0  0
  7  5  1  0  0  0  0
  7 14  1  0  0  0  0
  8  2  1  6  0  0  0
  8 16  1  0  0  0  0
  9  1  1  0  0  0  0
 10  3  1  0  0  0  0
 11  3  1  0  0  0  0
 13  6  1  0  0  0  0
 15  7  1  0  0  0  0
M  END
