18
title
C 0.40738595 2.5680878 -0.6245763
C 0.24737361 1.089838 -0.48594272
C -1.0513567 0.25360042 -0.57982373
C -0.38663405 -0.76231664 0.3834621
C -1.0301532 -1.4242641 1.5655993
C -0.48757356 -2.2549458 0.42148182
C 0.862238 0.094973855 0.41380295
O 1.3094707 0.24069208 -0.9474337
H 1.4206231 2.8696294 -0.34590054
H 0.23198351 2.8827543 -1.6598902
H -0.30703175 3.0993848 0.012552055
H -1.9212259 0.7507441 -0.1405235
H -1.2939028 -0.1011079 -1.5851301
H -0.48864377 -1.4349507 2.5066364
H -2.1068149 -1.3407432 1.6751872
H -1.2013572 -2.7313704 -0.2427023
H 0.41837934 -2.8291268 0.5856687
H 1.6073599 0.19814861 1.1960039
