title
 OpenBabel02282109593D

 19 21  0  0  1  0  0  0  0  0999 V2000
    0.3704    2.5745   -0.6217 C   0  0  0  0  0  0  0  0  0  0  0  0
    0.2728    1.0817   -0.5358 C   0  0  2  0  0  0  0  0  0  0  0  0
   -1.0337    0.2573   -0.5894 C   0  0  0  0  0  0  0  0  0  0  0  0
   -0.3815   -0.7468    0.3880 C   0  0  0  0  0  0  0  0  0  0  0  0
   -1.0414   -1.4017    1.5609 C   0  0  0  0  0  0  0  0  0  0  0  0
   -0.4947   -2.2448    0.4269 C   0  0  0  0  0  0  0  0  0  0  0  0
    0.8849    0.0873    0.4161 C   0  0  1  0  0  0  0  0  0  0  0  0
    1.4169    0.2651   -0.9374 N   0  0  0  0  0  0  0  0  0  0  0  0
    1.3881    2.9023   -0.3945 H   0  0  0  0  0  0  0  0  0  0  0  0
    0.1226    2.9260   -1.6307 H   0  0  0  0  0  0  0  0  0  0  0  0
   -0.3197    3.0570    0.0787 H   0  0  0  0  0  0  0  0  0  0  0  0
   -1.8876    0.7781   -0.1455 H   0  0  0  0  0  0  0  0  0  0  0  0
   -1.3210   -0.1125   -1.5807 H   0  0  0  0  0  0  0  0  0  0  0  0
   -0.5075   -1.4150    2.5061 H   0  0  0  0  0  0  0  0  0  0  0  0
   -2.1187   -1.3134    1.6618 H   0  0  0  0  0  0  0  0  0  0  0  0
   -1.2075   -2.7219   -0.2383 H   0  0  0  0  0  0  0  0  0  0  0  0
    0.4030   -2.8273    0.6093 H   0  0  0  0  0  0  0  0  0  0  0  0
    1.5549    0.2294    1.2579 H   0  0  0  0  0  0  0  0  0  0  0  0
    1.1613   -0.5083   -1.5500 H   0  0  0  0  0  0  0  0  0  0  0  0
  1  2  1  0  0  0  0
  1  9  1  0  0  0  0
  1 11  1  0  0  0  0
  2  7  1  1  0  0  0
  3  2  1  0  0  0  0
  3 12  1  0  0  0  0
  3  4  1  0  0  0  0
  4  7  1  0  0  0  0
  4  6  1  0  0  0  0
  4  5  1  0  0  0  0
  5 15  1  0  0  0  0
  5 14  1  0  0  0  0
  6 17  1  0  0  0  0
  6  5  1  0  0  0  0
  7 18  1  1  0  0  0
  8  2  1  0  0  0  0
  8  7  1  0  0  0  0
 10  1  1  0  0  0  0
 13  3  1  0  0  0  0
 16  6  1  0  0  0  0
 19  8  1  0  0  0  0
M  END
