16
title
C 0.4111016 2.5766664 -0.6558218
C 0.2490675 1.1001601 -0.5055673
C -1.0475945 0.26179704 -0.5917168
C -0.38696384 -0.7041262 0.42281538
C -1.0033456 -1.4223603 1.5373331
O -0.4509133 -2.112807 0.4056992
C 0.88048905 0.124149404 0.41332406
O 1.2971809 0.23640916 -0.9594514
H 1.4278291 2.877724 -0.3905436
H 0.2239578 2.882862 -1.6911416
H -0.29566753 3.112714 -0.014401851
H -1.9389241 0.7561629 -0.19669089
H -1.2509147 -0.1520926 -1.5814373
H -0.4598683 -1.553481 2.4725938
H -2.0889442 -1.4533504 1.6218983
H 1.6418428 0.23953298 1.1768032
