17
title
C 0.37498522 2.5825882 -0.66679525
C 0.27115956 1.0922233 -0.5560943
C -1.037291 0.26975954 -0.5915819
C -0.38530263 -0.67886764 0.4360912
C -1.0088037 -1.421689 1.5281429
O -0.44030198 -2.0978236 0.3956522
C 0.8936715 0.12490553 0.4270201
N 1.4003545 0.2571379 -0.9422937
H 1.394792 2.9095519 -0.44906628
H 0.12426562 2.9163082 -1.6806042
H -0.31113967 3.0785382 0.027826805
H -1.9070606 0.7950781 -0.18688025
H -1.2987863 -0.16325992 -1.5626479
H -0.47405496 -1.5597272 2.467513
H -2.0949757 -1.4643409 1.6028557
H 1.5802943 0.28484714 1.2508833
H 1.1398497 -0.53443915 -1.5284799
