title
 OpenBabel02282109593D

 18 20  0  0  1  0  0  0  0  0999 V2000
    0.1885    2.4268   -0.5919 O   0  0  0  0  0  0  0  0  0  0  0  0
    0.2979    1.0479   -0.5454 C   0  0  2  0  0  0  0  0  0  0  0  0
    0.0478    0.1766   -1.7441 C   0  0  0  0  0  0  0  0  0  0  0  0
   -0.8431    0.0408   -0.5227 C   0  0  1  0  0  0  0  0  0  0  0  0
   -0.1091   -0.7506    0.5424 C   0  0  0  0  0  0  0  0  0  0  0  0
   -0.7221   -1.4136    1.7355 C   0  0  0  0  0  0  0  0  0  0  0  0
   -0.0206   -2.2431    0.6778 C   0  0  0  0  0  0  0  0  0  0  0  0
    1.0401    0.2837    0.5641 C   0  0  0  0  0  0  0  0  0  0  0  0
    0.9059    2.7684   -1.1369 H   0  0  0  0  0  0  0  0  0  0  0  0
   -0.4128    0.6996   -2.5768 H   0  0  0  0  0  0  0  0  0  0  0  0
    0.7287   -0.6249   -2.0228 H   0  0  0  0  0  0  0  0  0  0  0  0
   -1.9122    0.2099   -0.5702 H   0  0  0  0  0  0  0  0  0  0  0  0
   -0.2345   -1.2921    2.6979 H   0  0  0  0  0  0  0  0  0  0  0  0
   -1.8050   -1.4688    1.7906 H   0  0  0  0  0  0  0  0  0  0  0  0
   -0.6306   -2.8562    0.0220 H   0  0  0  0  0  0  0  0  0  0  0  0
    0.9397   -2.6807    0.9318 H   0  0  0  0  0  0  0  0  0  0  0  0
    2.0501   -0.0729    0.3318 H   0  0  0  0  0  0  0  0  0  0  0  0
    1.0616    0.8562    1.4956 H   0  0  0  0  0  0  0  0  0  0  0  0
  1  2  1  0  0  0  0
  2  4  1  1  0  0  0
  2  8  1  0  0  0  0
  3  2  1  0  0  0  0
  3  4  1  0  0  0  0
  4 12  1  1  0  0  0
  4  5  1  0  0  0  0
  5  8  1  0  0  0  0
  5  7  1  0  0  0  0
  5  6  1  0  0  0  0
  6 14  1  0  0  0  0
  6 13  1  0  0  0  0
  7 16  1  0  0  0  0
  7  6  1  0  0  0  0
  8 18  1  0  0  0  0
  9  1  1  0  0  0  0
 10  3  1  0  0  0  0
 11  3  1  0  0  0  0
 15  7  1  0  0  0  0
 17  8  1  0  0  0  0
M  END
