title
 OpenBabel02282109593D

 17 19  0  0  1  0  0  0  0  0999 V2000
    0.3750    2.5826   -0.6668 C   0  0  0  0  0  0  0  0  0  0  0  0
    0.2712    1.0922   -0.5561 C   0  0  2  0  0  0  0  0  0  0  0  0
   -1.0373    0.2698   -0.5916 C   0  0  0  0  0  0  0  0  0  0  0  0
   -0.3853   -0.6789    0.4361 C   0  0  1  0  0  0  0  0  0  0  0  0
   -1.0088   -1.4217    1.5281 C   0  0  0  0  0  0  0  0  0  0  0  0
   -0.4403   -2.0978    0.3957 O   0  0  0  0  0  0  0  0  0  0  0  0
    0.8937    0.1249    0.4270 C   0  0  1  0  0  0  0  0  0  0  0  0
    1.4004    0.2571   -0.9423 N   0  0  0  0  0  0  0  0  0  0  0  0
    1.3948    2.9096   -0.4491 H   0  0  0  0  0  0  0  0  0  0  0  0
    0.1243    2.9163   -1.6806 H   0  0  0  0  0  0  0  0  0  0  0  0
   -0.3111    3.0785    0.0278 H   0  0  0  0  0  0  0  0  0  0  0  0
   -1.9071    0.7951   -0.1869 H   0  0  0  0  0  0  0  0  0  0  0  0
   -1.2988   -0.1633   -1.5626 H   0  0  0  0  0  0  0  0  0  0  0  0
   -0.4741   -1.5597    2.4675 H   0  0  0  0  0  0  0  0  0  0  0  0
   -2.0950   -1.4643    1.6029 H   0  0  0  0  0  0  0  0  0  0  0  0
    1.5803    0.2848    1.2509 H   0  0  0  0  0  0  0  0  0  0  0  0
    1.1398   -0.5344   -1.5285 H   0  0  0  0  0  0  0  0  0  0  0  0
  1  2  1  0  0  0  0
  1  9  1  0  0  0  0
  1 11  1  0  0  0  0
  2  7  1  1  0  0  0
  3  2  1  0  0  0  0
  3 12  1  0  0  0  0
  3  4  1  0  0  0  0
  4  7  1  1  0  0  0
  4  5  1  0  0  0  0
  5 15  1  0  0  0  0
  5 14  1  0  0  0  0
  6  4  1  0  0  0  0
  6  5  1  0  0  0  0
  7 16  1  1  0  0  0
  8  2  1  0  0  0  0
  8  7  1  0  0  0  0
 10  1  1  0  0  0  0
 13  3  1  0  0  0  0
 17  8  1  0  0  0  0
M  END
