16
title
O 0.20371631 2.4387188 -0.61719275
C 0.30779034 1.0624664 -0.5575303
C 0.06012432 0.16815558 -1.7344538
C -0.85539484 0.070704125 -0.5243118
C -0.14501859 -0.6850719 0.57033646
C -0.7025039 -1.4365414 1.6913034
O -0.015180962 -2.0980694 0.61725235
C 1.04076 0.3034254 0.5642456
H 0.9343619 2.7752397 -1.1475942
H -0.3956881 0.6665471 -2.584148
H 0.7327007 -0.6481412 -1.9855621
H -1.9208916 0.24714431 -0.60119444
H -0.18649264 -1.4404539 2.6511588
H -1.7750975 -1.6224624 1.7415475
H 2.0239007 -0.11387054 0.3248264
H 1.1008694 0.88795996 1.4857563
