18
title
C 0.38164362 2.5769567 -0.6498358
C 0.27578446 1.0864683 -0.54270285
C -1.0371403 0.27108172 -0.57546186
C -0.380562 -0.7100724 0.42141593
C -1.0328181 -1.4160872 1.5398151
N -0.4165069 -2.173543 0.4243673
C 0.8953731 0.1052234 0.4220599
N 1.4053715 0.2531307 -0.9422663
H 1.4037278 2.9005113 -0.4373309
H 0.12598076 2.916202 -1.6609067
H -0.29804605 3.073214 0.051104974
H -1.8938203 0.7994057 -0.14654218
H -1.3202152 -0.12543537 -1.5582421
H -0.52083296 -1.5213704 2.4930212
H -2.1171668 -1.3760526 1.6123756
H -1.1451141 -2.5023942 -0.20540337
H 1.5779215 0.2539837 1.2513058
H 1.143396 -0.5338224 -1.5343448
