18
title
C -0.78310204 2.5682783 0.024853608
C -0.6889475 1.0711137 -0.019425204
C -1.5643921 0.15429398 0.78308845
C -0.07011977 0.09537848 1.003867
C 0.570256 -0.65826154 -0.13098687
C 1.8679415 -1.3270755 -0.17570274
O 0.6428349 -2.0741396 -0.2269619
C -0.06655112 0.270983 -1.1826793
H 0.17238835 3.0378058 -0.23592615
H -1.5367554 2.9386334 -0.6807237
H -1.0675771 2.9174027 1.0228431
H -2.120747 0.6278003 1.5864903
H -2.080255 -0.681383 0.31636778
H 0.37768826 0.29765555 1.9699743
H 2.4520595 -1.319093 -1.0960048
H 2.4491293 -1.4493177 0.7383462
H -0.7700926 -0.19737014 -1.8782781
H 0.6780796 0.835516 -1.7513745
