title
 OpenBabel02282109593D

 18 20  0  0  0  0  0  0  0  0999 V2000
    1.2204    2.0775    0.0934 C   0  0  0  0  0  0  0  0  0  0  0  0
    2.2154    0.9424   -0.1338 C   0  0  0  0  0  0  0  0  0  0  0  0
    0.7727    0.6558    0.1079 C   0  0  0  0  0  0  0  0  0  0  0  0
    0.0921   -0.1600    1.2033 C   0  0  0  0  0  0  0  0  0  0  0  0
   -0.7608   -0.6766    0.0482 C   0  0  0  0  0  0  0  0  0  0  0  0
   -1.2337   -2.0543   -0.2680 C   0  0  0  0  0  0  0  0  0  0  0  0
   -2.2288   -0.9192   -0.0409 C   0  0  0  0  0  0  0  0  0  0  0  0
   -0.0705    0.1224   -0.9208 O   0  0  0  0  0  0  0  0  0  0  0  0
    1.2559    2.6227    1.0313 H   0  0  0  0  0  0  0  0  0  0  0  0
    0.9415    2.6730   -0.7693 H   0  0  0  0  0  0  0  0  0  0  0  0
    2.5835    0.7998   -1.1441 H   0  0  0  0  0  0  0  0  0  0  0  0
    2.9312    0.7116    0.6489 H   0  0  0  0  0  0  0  0  0  0  0  0
    0.7223   -0.9072    1.6917 H   0  0  0  0  0  0  0  0  0  0  0  0
   -0.4429    0.4220    1.9576 H   0  0  0  0  0  0  0  0  0  0  0  0
   -1.0989   -2.3996   -1.2874 H   0  0  0  0  0  0  0  0  0  0  0  0
   -1.1393   -2.8250    0.4905 H   0  0  0  0  0  0  0  0  0  0  0  0
   -2.8146   -0.9139    0.8728 H   0  0  0  0  0  0  0  0  0  0  0  0
   -2.7410   -0.5264   -0.9127 H   0  0  0  0  0  0  0  0  0  0  0  0
  1  3  1  0  0  0  0
  1  9  1  0  0  0  0
  2  1  1  0  0  0  0
  2  3  1  0  0  0  0
  2 12  1  0  0  0  0
  3  4  1  0  0  0  0
  4 13  1  0  0  0  0
  4 14  1  0  0  0  0
  5  4  1  0  0  0  0
  6  7  1  0  0  0  0
  6  5  1  0  0  0  0
  6 16  1  0  0  0  0
  7  5  1  0  0  0  0
  7 17  1  0  0  0  0
  8  5  1  0  0  0  0
  8  3  1  0  0  0  0
 10  1  1  0  0  0  0
 11  2  1  0  0  0  0
 15  6  1  0  0  0  0
 18  7  1  0  0  0  0
M  END
