title
 OpenBabel02282109593D

 14 14  0  0  1  0  0  0  0  0999 V2000
   -0.8522    2.1773    0.1678 C   0  0  0  0  0  0  0  0  0  0  0  0
   -0.6406    0.6736    0.2635 C   0  0  1  0  0  0  0  0  0  0  0  0
    0.2395   -0.0194   -0.8212 C   0  0  1  0  0  0  0  0  0  0  0  0
    1.1634   -0.4763    0.2104 O   0  0  0  0  0  0  0  0  0  0  0  0
    0.4425    0.1769    1.2031 C   0  0  0  0  0  0  0  0  0  0  0  0
    0.6693    0.3026    2.4245 N   0  0  0  0  0  0  0  0  0  0  0  0
   -0.3562   -1.1212   -1.5677 C   0  0  0  0  0  0  0  0  0  0  0  0
   -0.8504   -1.9759   -2.1676 N   0  0  0  0  0  0  0  0  0  0  0  0
    0.0909    2.7010   -0.0152 H   0  0  0  0  0  0  0  0  0  0  0  0
   -1.5500    2.4240   -0.6376 H   0  0  0  0  0  0  0  0  0  0  0  0
   -1.2663    2.5506    1.1080 H   0  0  0  0  0  0  0  0  0  0  0  0
   -1.5864    0.1490    0.4202 H   0  0  0  0  0  0  0  0  0  0  0  0
    0.7413    0.6698   -1.5067 H   0  0  0  0  0  0  0  0  0  0  0  0
    1.5270   -0.1708    2.7116 H   0  0  0  0  0  0  0  0  0  0  0  0
  1  2  1  0  0  0  0
  1 11  1  0  0  0  0
  2  3  1  6  0  0  0
  2 12  1  0  0  0  0
  2  5  1  0  0  0  0
  3 13  1  6  0  0  0
  3  4  1  0  0  0  0
  4  5  1  0  0  0  0
  5  6  2  0  0  0  0
  6 14  1  0  0  0  0
  7  3  1  0  0  0  0
  8  7  3  0  0  0  0
  9  1  1  0  0  0  0
 10  1  1  0  0  0  0
M  END
