17
title
C 1.2801489 2.1904778 -0.0046122423
N 2.1388557 0.984736 0.03679913
C 0.6852289 0.8407185 0.0065302555
C -0.08185576 0.09915215 1.1147763
C -0.7183685 -0.7521563 0.0067630974
C -1.0090052 -2.1851685 -0.013844134
O -2.0576928 -1.204016 0.018287001
C -0.122173235 0.13336068 -1.0988369
H 1.2939965 2.7896914 0.9022518
H 1.2294765 2.7660377 -0.9260832
H 2.5261025 0.8084711 -0.8878817
H 0.5381143 -0.4225393 1.8475722
H -0.81749934 0.72086686 1.6341873
H -0.9225895 -2.744166 -0.9451589
H -0.8938834 -2.774538 0.89512616
H -0.8760151 0.76920646 -1.5735863
H 0.45603165 -0.37567598 -1.8764403
