16
title
C -0.49053377 2.1500165 0.4247264
C -0.43471363 0.6312158 0.39125004
C 0.22524412 -0.11072057 -0.8338854
C 0.98890793 -1.0574626 0.1584646
C 0.586972 -0.09303903 1.2835592
O 0.9863007 0.10038216 2.3946414
C -0.6573111 -0.7170891 -1.8070656
C -1.4057446 -1.2269698 -2.5985284
H 0.49207366 2.5860815 0.21722507
H -1.1986543 2.534707 -0.3154161
H -0.8057251 2.4957933 1.4135357
H -1.4261156 0.19963828 0.5772467
H 0.9342147 0.5603305 -1.3300519
H 0.49931967 -2.0301468 0.2636875
H 2.057513 -1.2110183 -0.004583646
H -2.0611777 -1.675824 -3.3031106
