title
 OpenBabel02282109593D

 15 15  0  0  1  0  0  0  0  0999 V2000
   -0.6178    2.2180    0.2743 C   0  0  0  0  0  0  0  0  0  0  0  0
   -0.5482    0.6992    0.2973 C   0  0  1  0  0  0  0  0  0  0  0  0
    0.1875   -0.0273   -0.8927 C   0  0  1  0  0  0  0  0  0  0  0  0
    1.1269   -0.5480    0.1119 N   0  0  0  0  0  0  0  0  0  0  0  0
    0.5460    0.0667    1.1952 C   0  0  0  0  0  0  0  0  0  0  0  0
    0.8207    0.0957    2.3636 O   0  0  0  0  0  0  0  0  0  0  0  0
   -0.5665   -1.0230   -1.6370 C   0  0  0  0  0  0  0  0  0  0  0  0
   -1.1886   -1.8407   -2.2608 C   0  0  0  0  0  0  0  0  0  0  0  0
    0.3582    2.6577    0.0444 H   0  0  0  0  0  0  0  0  0  0  0  0
   -1.3381    2.5719   -0.4696 H   0  0  0  0  0  0  0  0  0  0  0  0
   -0.9287    2.5904    1.2547 H   0  0  0  0  0  0  0  0  0  0  0  0
   -1.5270    0.2543    0.4920 H   0  0  0  0  0  0  0  0  0  0  0  0
    0.6608    0.6805   -1.5839 H   0  0  0  0  0  0  0  0  0  0  0  0
    1.8948   -1.1984    0.0298 H   0  0  0  0  0  0  0  0  0  0  0  0
   -1.7397   -2.5649   -2.8086 H   0  0  0  0  0  0  0  0  0  0  0  0
  1  2  1  0  0  0  0
  1 11  1  0  0  0  0
  2  3  1  6  0  0  0
  2 12  1  0  0  0  0
  2  5  1  0  0  0  0
  3 13  1  6  0  0  0
  3  4  1  0  0  0  0
  4  5  1  0  0  0  0
  5  6  2  0  0  0  0
  7  3  1  0  0  0  0
  8  7  3  0  0  0  0
  9  1  1  0  0  0  0
 10  1  1  0  0  0  0
 14  4  1  0  0  0  0
 15  8  1  0  0  0  0
M  END
