16
title
C 1.1796426 2.1833296 0.00037808288
O 2.0866468 1.0699762 -0.014345104
C 0.69637096 0.8039634 -0.0023844652
C 0.01247568 -0.0077779936 1.1108966
C -0.6952027 -0.8055108 0.0023648134
C -1.1841422 -2.182851 -0.00033208085
O -2.0866292 -1.0658398 0.014367244
C -0.008925368 0.0041694595 -1.1109502
H 1.1654282 2.76106 0.92396843
H 1.147701 2.770957 -0.9165011
H 0.70835525 -0.57936925 1.7310292
H -0.66935647 0.55530006 1.7539588
H -1.1723012 -2.7606905 -0.9238913
H -1.1545739 -2.7705872 0.91656065
H -0.7029593 0.57405925 -1.7346679
H 0.674821 -0.5606484 -1.7504822
