title
 OpenBabel02282109593D

 17 19  0  0  1  0  0  0  0  0999 V2000
    1.2801    2.1905   -0.0046 C   0  0  0  0  0  0  0  0  0  0  0  0
    2.1389    0.9847    0.0368 N   0  0  0  0  0  0  0  0  0  0  0  0
    0.6852    0.8407    0.0065 C   0  0  1  0  0  0  0  0  0  0  0  0
   -0.0819    0.0992    1.1148 C   0  0  0  0  0  0  0  0  0  0  0  0
   -0.7184   -0.7522    0.0068 C   0  0  1  0  0  0  0  0  0  0  0  0
   -1.0090   -2.1852   -0.0138 C   0  0  0  0  0  0  0  0  0  0  0  0
   -2.0577   -1.2040    0.0183 O   0  0  0  0  0  0  0  0  0  0  0  0
   -0.1222    0.1334   -1.0988 C   0  0  0  0  0  0  0  0  0  0  0  0
    1.2940    2.7897    0.9023 H   0  0  0  0  0  0  0  0  0  0  0  0
    1.2295    2.7660   -0.9261 H   0  0  0  0  0  0  0  0  0  0  0  0
    2.5261    0.8085   -0.8879 H   0  0  0  0  0  0  0  0  0  0  0  0
    0.5381   -0.4225    1.8476 H   0  0  0  0  0  0  0  0  0  0  0  0
   -0.8175    0.7209    1.6342 H   0  0  0  0  0  0  0  0  0  0  0  0
   -0.9226   -2.7442   -0.9452 H   0  0  0  0  0  0  0  0  0  0  0  0
   -0.8939   -2.7745    0.8951 H   0  0  0  0  0  0  0  0  0  0  0  0
   -0.8760    0.7692   -1.5736 H   0  0  0  0  0  0  0  0  0  0  0  0
    0.4560   -0.3757   -1.8764 H   0  0  0  0  0  0  0  0  0  0  0  0
  1  3  1  0  0  0  0
  1  2  1  0  0  0  0
  1  9  1  0  0  0  0
  3  8  1  6  0  0  0
  3  2  1  0  0  0  0
  3  4  1  0  0  0  0
  4 13  1  0  0  0  0
  4 12  1  0  0  0  0
  5  7  1  1  0  0  0
  5  4  1  0  0  0  0
  6  5  1  0  0  0  0
  6  7  1  0  0  0  0
  6 15  1  0  0  0  0
  8  5  1  0  0  0  0
 10  1  1  0  0  0  0
 11  2  1  0  0  0  0
 14  6  1  0  0  0  0
 16  8  1  0  0  0  0
 17  8  1  0  0  0  0
M  END
