title
 OpenBabel02282109593D

 15 15  0  0  1  0  0  0  0  0999 V2000
   -0.8873    2.1579    0.0972 C   0  0  0  0  0  0  0  0  0  0  0  0
   -0.6486    0.6619    0.2386 C   0  0  1  0  0  0  0  0  0  0  0  0
    0.2222   -0.0595   -0.8360 C   0  0  1  0  0  0  0  0  0  0  0  0
    1.1681   -0.4653    0.2189 O   0  0  0  0  0  0  0  0  0  0  0  0
    0.4503    0.2159    1.1825 C   0  0  0  0  0  0  0  0  0  0  0  0
    0.6850    0.3959    2.3993 N   0  0  0  0  0  0  0  0  0  0  0  0
   -0.3529   -1.1782   -1.5496 C   0  0  0  0  0  0  0  0  0  0  0  0
   -0.8500   -2.0939   -2.1482 C   0  0  0  0  0  0  0  0  0  0  0  0
    0.0449    2.6904   -0.1153 H   0  0  0  0  0  0  0  0  0  0  0  0
   -1.5972    2.3672   -0.7089 H   0  0  0  0  0  0  0  0  0  0  0  0
   -1.2966    2.5586    1.0285 H   0  0  0  0  0  0  0  0  0  0  0  0
   -1.5834    0.1274    0.4244 H   0  0  0  0  0  0  0  0  0  0  0  0
    0.7253    0.6300   -1.5216 H   0  0  0  0  0  0  0  0  0  0  0  0
    1.5541   -0.0565    2.6876 H   0  0  0  0  0  0  0  0  0  0  0  0
   -1.2826   -2.9070   -2.6776 H   0  0  0  0  0  0  0  0  0  0  0  0
  1  2  1  0  0  0  0
  1 11  1  0  0  0  0
  2  3  1  6  0  0  0
  2 12  1  0  0  0  0
  2  5  1  0  0  0  0
  3 13  1  6  0  0  0
  3  4  1  0  0  0  0
  4  5  1  0  0  0  0
  5  6  2  0  0  0  0
  6 14  1  0  0  0  0
  7  3  1  0  0  0  0
  8  7  3  0  0  0  0
  9  1  1  0  0  0  0
 10  1  1  0  0  0  0
 15  8  1  0  0  0  0
M  END
