title
 OpenBabel02282109593D

 14 14  0  0  1  0  0  0  0  0999 V2000
    1.0649    1.3903    1.1407 O   0  0  0  0  0  0  0  0  0  0  0  0
    0.7042    0.3036    0.3577 C   0  0  1  0  0  0  0  0  0  0  0  0
   -0.8090   -0.1731    0.2308 C   0  0  1  0  0  0  0  0  0  0  0  0
   -0.5575   -0.4515   -1.2943 C   0  0  0  0  0  0  0  0  0  0  0  0
    0.6661    0.4619   -1.1658 C   0  0  0  0  0  0  0  0  0  0  0  0
    1.2066    1.2481   -1.8908 O   0  0  0  0  0  0  0  0  0  0  0  0
   -1.2400   -1.2676    1.0689 C   0  0  0  0  0  0  0  0  0  0  0  0
   -1.5728   -2.1919    1.7624 C   0  0  0  0  0  0  0  0  0  0  0  0
    1.0584    2.1749    0.5789 H   0  0  0  0  0  0  0  0  0  0  0  0
    1.3039   -0.5684    0.6471 H   0  0  0  0  0  0  0  0  0  0  0  0
   -1.4611    0.6980    0.3471 H   0  0  0  0  0  0  0  0  0  0  0  0
   -0.2849   -1.4939   -1.4789 H   0  0  0  0  0  0  0  0  0  0  0  0
   -1.3256   -0.1423   -2.0039 H   0  0  0  0  0  0  0  0  0  0  0  0
   -1.8735   -3.0025    2.3789 H   0  0  0  0  0  0  0  0  0  0  0  0
  2  3  1  1  0  0  0
  2 10  1  0  0  0  0
  2  1  1  0  0  0  0
  3 11  1  1  0  0  0
  3  7  1  0  0  0  0
  4  5  1  0  0  0  0
  4  3  1  0  0  0  0
  5  2  1  0  0  0  0
  6  5  2  0  0  0  0
  7  8  3  0  0  0  0
  8 14  1  0  0  0  0
  9  1  1  0  0  0  0
 12  4  1  0  0  0  0
 13  4  1  0  0  0  0
M  END
