title
 OpenBabel02282109593D

 13 13  0  0  1  0  0  0  0  0999 V2000
   -0.8791    2.1752    0.1307 C   0  0  0  0  0  0  0  0  0  0  0  0
   -0.6538    0.6735    0.2368 C   0  0  1  0  0  0  0  0  0  0  0  0
    0.2291   -0.0293   -0.8331 C   0  0  1  0  0  0  0  0  0  0  0  0
    1.1645   -0.4573    0.2044 O   0  0  0  0  0  0  0  0  0  0  0  0
    0.4470    0.1962    1.1897 C   0  0  0  0  0  0  0  0  0  0  0  0
    0.7224    0.2946    2.3372 O   0  0  0  0  0  0  0  0  0  0  0  0
   -0.3574   -1.1521   -1.5537 C   0  0  0  0  0  0  0  0  0  0  0  0
   -0.8487   -2.0207   -2.1354 N   0  0  0  0  0  0  0  0  0  0  0  0
    0.0560    2.7071   -0.0687 H   0  0  0  0  0  0  0  0  0  0  0  0
   -1.5879    2.4068   -0.6691 H   0  0  0  0  0  0  0  0  0  0  0  0
   -1.2888    2.5540    1.0709 H   0  0  0  0  0  0  0  0  0  0  0  0
   -1.5908    0.1398    0.4164 H   0  0  0  0  0  0  0  0  0  0  0  0
    0.7243    0.6508   -1.5314 H   0  0  0  0  0  0  0  0  0  0  0  0
  1  2  1  0  0  0  0
  1 11  1  0  0  0  0
  2  3  1  6  0  0  0
  2 12  1  0  0  0  0
  2  5  1  0  0  0  0
  3 13  1  6  0  0  0
  3  4  1  0  0  0  0
  4  5  1  0  0  0  0
  5  6  2  0  0  0  0
  7  3  1  0  0  0  0
  8  7  3  0  0  0  0
  9  1  1  0  0  0  0
 10  1  1  0  0  0  0
M  END
