13
title
N 0.4805523 2.0863278 0.6969978
C 0.5362313 0.687158 0.38716748
C -0.8221872 -0.071312614 0.19220269
O -0.35430524 -0.58167046 -1.0909021
C 0.80194116 0.18520075 -1.0320016
N 1.6832988 0.405503 -1.8893855
C -1.152867 -1.1316807 1.1335169
N -1.4022084 -1.957091 1.9026153
H 1.3707186 2.4148748 1.0509688
H 0.2602818 2.6393633 -0.12478158
H 1.1650819 0.17084748 1.1156944
H -1.6729677 0.60202616 0.057323992
H 1.5056405 -0.08574391 -2.7667954
