title
 OpenBabel02282109593D

 13 13  0  0  1  0  0  0  0  0999 V2000
    0.4407    2.0409    0.8507 N   0  0  0  0  0  0  0  0  0  0  0  0
    0.5128    0.6642    0.4443 C   0  0  1  0  0  0  0  0  0  0  0  0
   -0.8260   -0.1136    0.2427 C   0  0  1  0  0  0  0  0  0  0  0  0
   -0.3859   -0.5023   -1.1105 O   0  0  0  0  0  0  0  0  0  0  0  0
    0.7522    0.2638   -1.0284 C   0  0  0  0  0  0  0  0  0  0  0  0
    1.5379    0.4940   -1.8894 O   0  0  0  0  0  0  0  0  0  0  0  0
   -1.1069   -1.2427    1.0984 C   0  0  0  0  0  0  0  0  0  0  0  0
   -1.3310   -2.1680    1.8311 C   0  0  0  0  0  0  0  0  0  0  0  0
    1.3572    2.3913    1.1040 H   0  0  0  0  0  0  0  0  0  0  0  0
    0.0887    2.6326    0.1049 H   0  0  0  0  0  0  0  0  0  0  0  0
    1.1855    0.1173    1.1089 H   0  0  0  0  0  0  0  0  0  0  0  0
   -1.6863    0.5571    0.1628 H   0  0  0  0  0  0  0  0  0  0  0  0
   -1.5352   -2.9892    2.4736 H   0  0  0  0  0  0  0  0  0  0  0  0
  1  9  1  0  0  0  0
  2  3  1  1  0  0  0
  2  1  1  0  0  0  0
  2 11  1  0  0  0  0
  3 12  1  6  0  0  0
  3  7  1  0  0  0  0
  4  5  1  0  0  0  0
  4  3  1  0  0  0  0
  5  2  1  0  0  0  0
  6  5  2  0  0  0  0
  7  8  3  0  0  0  0
  8 13  1  0  0  0  0
 10  1  1  0  0  0  0
M  END
