14
title
N 0.61547 1.9612064 0.77214366
C 0.59576356 0.5853017 0.36711642
C -0.82221603 -0.10258796 0.18621881
N -0.324111 -0.62255305 -1.0947274
C 0.8034951 0.19981544 -1.1092898
N 1.6520294 0.59273183 -1.9556549
C -1.2276763 -1.1124076 1.1591403
N -1.5430658 -1.9044446 1.9395427
H 1.5071944 2.2004788 1.188183
H 0.48819014 2.574667 -0.026405854
H 1.2178922 -0.014776965 1.0338719
H -1.6064227 0.6570818 0.09545766
H -0.89920795 -0.8820502 -1.8838992
H 1.4822769 0.21252741 -2.8881128
