title
 OpenBabel02282109593D

 13 13  0  0  1  0  0  0  0  0999 V2000
    0.4806    2.0863    0.6970 N   0  0  0  0  0  0  0  0  0  0  0  0
    0.5362    0.6872    0.3872 C   0  0  1  0  0  0  0  0  0  0  0  0
   -0.8222   -0.0713    0.1922 C   0  0  1  0  0  0  0  0  0  0  0  0
   -0.3543   -0.5817   -1.0909 O   0  0  0  0  0  0  0  0  0  0  0  0
    0.8019    0.1852   -1.0320 C   0  0  0  0  0  0  0  0  0  0  0  0
    1.6833    0.4055   -1.8894 N   0  0  0  0  0  0  0  0  0  0  0  0
   -1.1529   -1.1317    1.1335 C   0  0  0  0  0  0  0  0  0  0  0  0
   -1.4022   -1.9571    1.9026 N   0  0  0  0  0  0  0  0  0  0  0  0
    1.3707    2.4149    1.0510 H   0  0  0  0  0  0  0  0  0  0  0  0
    0.2603    2.6394   -0.1248 H   0  0  0  0  0  0  0  0  0  0  0  0
    1.1651    0.1708    1.1157 H   0  0  0  0  0  0  0  0  0  0  0  0
   -1.6730    0.6020    0.0573 H   0  0  0  0  0  0  0  0  0  0  0  0
    1.5056   -0.0857   -2.7668 H   0  0  0  0  0  0  0  0  0  0  0  0
  1  9  1  0  0  0  0
  2  3  1  1  0  0  0
  2  1  1  0  0  0  0
  2 11  1  0  0  0  0
  3 12  1  6  0  0  0
  3  7  1  0  0  0  0
  4  5  1  0  0  0  0
  4  3  1  0  0  0  0
  5  2  1  0  0  0  0
  6  5  2  0  0  0  0
  7  8  3  0  0  0  0
 10  1  1  0  0  0  0
 13  6  1  0  0  0  0
M  END
