title
 OpenBabel02282109593D

 14 14  0  0  1  0  0  0  0  0999 V2000
   -0.9176    2.1537    0.0626 C   0  0  0  0  0  0  0  0  0  0  0  0
   -0.6643    0.6603    0.2122 C   0  0  1  0  0  0  0  0  0  0  0  0
    0.2092   -0.0675   -0.8497 C   0  0  1  0  0  0  0  0  0  0  0  0
    1.1717   -0.4385    0.2071 O   0  0  0  0  0  0  0  0  0  0  0  0
    0.4549    0.2358    1.1659 C   0  0  0  0  0  0  0  0  0  0  0  0
    0.7356    0.3833    2.3105 O   0  0  0  0  0  0  0  0  0  0  0  0
   -0.3535   -1.2110   -1.5320 C   0  0  0  0  0  0  0  0  0  0  0  0
   -0.8407   -2.1471   -2.1061 C   0  0  0  0  0  0  0  0  0  0  0  0
    0.0055    2.6939   -0.1690 H   0  0  0  0  0  0  0  0  0  0  0  0
   -1.6408    2.3490   -0.7345 H   0  0  0  0  0  0  0  0  0  0  0  0
   -1.3193    2.5591    0.9952 H   0  0  0  0  0  0  0  0  0  0  0  0
   -1.5890    0.1168    0.4217 H   0  0  0  0  0  0  0  0  0  0  0  0
    0.7003    0.6137   -1.5509 H   0  0  0  0  0  0  0  0  0  0  0  0
   -1.2635   -2.9790   -2.6141 H   0  0  0  0  0  0  0  0  0  0  0  0
  1  2  1  0  0  0  0
  1 11  1  0  0  0  0
  2  3  1  6  0  0  0
  2 12  1  0  0  0  0
  2  5  1  0  0  0  0
  3 13  1  6  0  0  0
  3  4  1  0  0  0  0
  4  5  1  0  0  0  0
  5  6  2  0  0  0  0
  7  3  1  0  0  0  0
  8  7  3  0  0  0  0
  9  1  1  0  0  0  0
 10  1  1  0  0  0  0
 14  8  1  0  0  0  0
M  END
