14
title
O 1.0649375 1.390316 1.1407444
C 0.7041589 0.30357027 0.3577194
C -0.8089539 -0.17308708 0.23079288
C -0.5575354 -0.451536 -1.2943285
C 0.66609174 0.4619194 -1.1657993
O 1.2066057 1.248105 -1.890751
C -1.2400042 -1.2675697 1.0688804
C -1.5727549 -2.1918683 1.7623749
H 1.0583558 2.1749256 0.57892567
H 1.3039144 -0.5683736 0.6471248
H -1.461119 0.69800997 0.34714875
H -0.28487283 -1.4938936 -1.4788717
H -1.3256322 -0.14228244 -2.003883
H -1.8735299 -3.0024512 2.37892
