13
title
O 0.7810398 1.8015137 0.8167689
C 0.6455161 0.4759989 0.4188722
C -0.83070946 -0.05920473 0.20311968
N -0.3858634 -0.4987497 -1.1300949
C 0.8094071 0.20654622 -1.076833
N 1.6923217 0.63299614 -1.8704923
C -1.3192592 -1.1197244 1.078559
N -1.7055614 -1.9529942 1.7796626
H 1.2216309 2.268103 0.095009744
H 1.2207012 -0.1984537 1.0621327
H -1.5367343 0.7774606 0.19368511
H -0.97706234 -0.65551066 -1.9345886
H 1.5025893 0.4024988 -2.846266
