title
 OpenBabel02282109593D

 13 13  0  0  1  0  0  0  0  0999 V2000
    1.0964    1.4137    1.0976 O   0  0  0  0  0  0  0  0  0  0  0  0
    0.7135    0.3060    0.3637 C   0  0  1  0  0  0  0  0  0  0  0  0
   -0.8189   -0.0963    0.2012 C   0  0  1  0  0  0  0  0  0  0  0  0
   -0.5338   -0.4860   -1.2893 C   0  0  0  0  0  0  0  0  0  0  0  0
    0.7432    0.3587   -1.1718 C   0  0  0  0  0  0  0  0  0  0  0  0
    1.3690    1.0397   -1.9297 O   0  0  0  0  0  0  0  0  0  0  0  0
   -1.3302   -1.1236    1.0852 C   0  0  0  0  0  0  0  0  0  0  0  0
   -1.7169   -1.9583    1.7859 N   0  0  0  0  0  0  0  0  0  0  0  0
    1.1080    2.1793    0.5104 H   0  0  0  0  0  0  0  0  0  0  0  0
    1.2554   -0.5742    0.7315 H   0  0  0  0  0  0  0  0  0  0  0  0
   -1.4420    0.7995    0.2587 H   0  0  0  0  0  0  0  0  0  0  0  0
   -0.3219   -1.5518   -1.4069 H   0  0  0  0  0  0  0  0  0  0  0  0
   -1.2596   -0.1727   -2.0400 H   0  0  0  0  0  0  0  0  0  0  0  0
  2  3  1  1  0  0  0
  2 10  1  0  0  0  0
  2  1  1  0  0  0  0
  3 11  1  1  0  0  0
  3  7  1  0  0  0  0
  4  5  1  0  0  0  0
  4  3  1  0  0  0  0
  5  2  1  0  0  0  0
  6  5  2  0  0  0  0
  7  8  3  0  0  0  0
  9  1  1  0  0  0  0
 12  4  1  0  0  0  0
 13  4  1  0  0  0  0
M  END
