13
title
O 0.49561328 2.0264845 0.46998334
C 0.55646926 0.6339054 0.34579375
C -0.842889 -0.08424369 0.2951776
N -0.4297036 -0.6009189 -1.0248162
C 0.74219453 0.10226377 -1.0983999
O 1.5530912 0.2899154 -1.9660952
C -1.1403582 -1.0847611 1.3041315
C -1.3906815 -1.9060097 2.1448102
H 1.1413126 2.397119 -0.1435655
H 1.2314955 0.17334701 1.0773375
H -1.6439141 0.65936226 0.22783814
H -0.93601996 -1.1447225 -1.7090898
H -1.6106919 -2.631871 2.8885782
