12
title
O 0.51009244 1.9890046 0.6910761
C 0.5757572 0.6168595 0.4388749
C -0.8173184 -0.038651854 0.2212765
O -0.40836477 -0.46519592 -1.1181351
C 0.80455375 0.19267568 -1.0033212
N 1.7206215 0.40274078 -1.8248795
C -1.1865962 -1.1604747 1.0731566
N -1.4749775 -2.0380034 1.766514
H 1.2976325 2.3950064 0.30961046
H 1.2007432 0.07688311 1.1610153
H -1.6219046 0.698245 0.16704592
H 1.5261358 0.009519369 -2.7466316
