title
 OpenBabel02282109593D

 12 12  0  0  1  0  0  0  0  0999 V2000
    0.5101    1.9890    0.6911 O   0  0  0  0  0  0  0  0  0  0  0  0
    0.5758    0.6169    0.4389 C   0  0  1  0  0  0  0  0  0  0  0  0
   -0.8173   -0.0387    0.2213 C   0  0  1  0  0  0  0  0  0  0  0  0
   -0.4084   -0.4652   -1.1181 O   0  0  0  0  0  0  0  0  0  0  0  0
    0.8046    0.1927   -1.0033 C   0  0  0  0  0  0  0  0  0  0  0  0
    1.7206    0.4027   -1.8249 N   0  0  0  0  0  0  0  0  0  0  0  0
   -1.1866   -1.1605    1.0732 C   0  0  0  0  0  0  0  0  0  0  0  0
   -1.4750   -2.0380    1.7665 N   0  0  0  0  0  0  0  0  0  0  0  0
    1.2976    2.3950    0.3096 H   0  0  0  0  0  0  0  0  0  0  0  0
    1.2007    0.0769    1.1610 H   0  0  0  0  0  0  0  0  0  0  0  0
   -1.6219    0.6982    0.1670 H   0  0  0  0  0  0  0  0  0  0  0  0
    1.5261    0.0095   -2.7466 H   0  0  0  0  0  0  0  0  0  0  0  0
  2  3  1  1  0  0  0
  2  1  1  0  0  0  0
  2 10  1  0  0  0  0
  3 11  1  6  0  0  0
  3  7  1  0  0  0  0
  4  5  1  0  0  0  0
  4  3  1  0  0  0  0
  5  2  1  0  0  0  0
  6  5  2  0  0  0  0
  7  8  3  0  0  0  0
  9  1  1  0  0  0  0
 12  6  1  0  0  0  0
M  END
