13
title
O 0.6955653 1.8822048 0.8773267
C 0.58245456 0.5627694 0.45604622
C -0.83711773 -0.07317704 0.22068386
O -0.40284455 -0.4614659 -1.1365478
C 0.77752286 0.23796517 -1.0145466
N 1.6416314 0.5593086 -1.8626662
C -1.2428739 -1.1924598 1.0354363
C -1.5630908 -2.1106348 1.7412462
H 0.6292886 2.4564705 0.10624639
H 1.1828762 -0.066117585 1.1184949
H -1.620249 0.68756115 0.14752707
H 1.4076309 0.21378642 -2.7950904
H -1.8527136 -2.9244986 2.3597558
