14
title
O 0.7160951 1.79478 0.86498964
C 0.62563187 0.47391728 0.42550102
C -0.8281884 -0.12162813 0.23308471
N -0.39175966 -0.4856504 -1.1370724
C 0.76470804 0.2724053 -1.0814995
N 1.6092973 0.7749914 -1.8772808
C -1.2612314 -1.2192177 1.0757475
C -1.6180143 -2.1182783 1.7890104
H 1.155018 2.288602 0.16056503
H 1.2497953 -0.1954421 1.0275985
H -1.555505 0.6980428 0.24781367
H -0.9916284 -0.6358356 -1.9364105
H 1.3987447 0.57666117 -2.8562098
H -1.9312625 -2.9145956 2.4182422
