title
 OpenBabel02282109593D

 15 15  0  0  1  0  0  0  0  0999 V2000
   -1.2483    2.3587   -0.1455 C   0  0  0  0  0  0  0  0  0  0  0  0
   -1.3120    0.8392   -0.0785 C   0  0  1  0  0  0  0  0  0  0  0  0
   -0.7616   -0.0270   -1.2557 C   0  0  0  0  0  0  0  0  0  0  0  0
   -0.0487   -0.9830   -0.2402 C   0  0  1  0  0  0  0  0  0  0  0  0
    1.3148   -1.3984   -0.4910 C   0  0  0  0  0  0  0  0  0  0  0  0
    2.4123   -1.7000   -0.6951 N   0  0  0  0  0  0  0  0  0  0  0  0
   -0.3101    0.1241    0.8389 C   0  0  0  0  0  0  0  0  0  0  0  0
    0.1820    0.3669    1.8948 O   0  0  0  0  0  0  0  0  0  0  0  0
   -0.2437    2.6978   -0.4168 H   0  0  0  0  0  0  0  0  0  0  0  0
   -1.9519    2.7471   -0.8878 H   0  0  0  0  0  0  0  0  0  0  0  0
   -1.4991    2.7951    0.8253 H   0  0  0  0  0  0  0  0  0  0  0  0
   -2.3236    0.5092    0.1923 H   0  0  0  0  0  0  0  0  0  0  0  0
   -1.4954   -0.4990   -1.9082 H   0  0  0  0  0  0  0  0  0  0  0  0
   -0.0364    0.5209   -1.8603 H   0  0  0  0  0  0  0  0  0  0  0  0
   -0.6692   -1.8562   -0.0102 H   0  0  0  0  0  0  0  0  0  0  0  0
  1  2  1  0  0  0  0
  1 11  1  0  0  0  0
  2 12  1  1  0  0  0
  2  7  1  0  0  0  0
  3  4  1  0  0  0  0
  3  2  1  0  0  0  0
  4 15  1  1  0  0  0
  4  7  1  0  0  0  0
  5  4  1  0  0  0  0
  6  5  3  0  0  0  0
  7  8  2  0  0  0  0
  9  1  1  0  0  0  0
 10  1  1  0  0  0  0
 13  3  1  0  0  0  0
 14  3  1  0  0  0  0
M  END
