title
 OpenBabel02282109593D

 14 14  0  0  1  0  0  0  0  0999 V2000
    0.7156    1.6608    1.0675 O   0  0  0  0  0  0  0  0  0  0  0  0
    0.6557    0.3975    0.4988 C   0  0  1  0  0  0  0  0  0  0  0  0
   -0.7433   -0.1622   -0.0207 C   0  0  1  0  0  0  0  0  0  0  0  0
   -0.0260   -0.5301   -1.2561 N   0  0  0  0  0  0  0  0  0  0  0  0
    1.0905    0.2489   -0.9600 C   0  0  0  0  0  0  0  0  0  0  0  0
    2.0507    0.7872   -1.5767 N   0  0  0  0  0  0  0  0  0  0  0  0
   -1.3276   -1.3266    0.7372 C   0  0  0  0  0  0  0  0  0  0  0  0
   -2.3371   -1.2741    1.3897 O   0  0  0  0  0  0  0  0  0  0  0  0
    0.9467    2.2856    0.3699 H   0  0  0  0  0  0  0  0  0  0  0  0
    1.1387   -0.3233    1.1673 H   0  0  0  0  0  0  0  0  0  0  0  0
   -1.4742    0.6457   -0.1224 H   0  0  0  0  0  0  0  0  0  0  0  0
   -0.4490   -0.6243   -2.1699 H   0  0  0  0  0  0  0  0  0  0  0  0
    2.0297    0.6015   -2.5805 H   0  0  0  0  0  0  0  0  0  0  0  0
   -0.7200   -2.2578    0.6568 H   0  0  0  0  0  0  0  0  0  0  0  0
  2  3  1  1  0  0  0
  2  1  1  0  0  0  0
  2 10  1  0  0  0  0
  3 11  1  6  0  0  0
  3  7  1  0  0  0  0
  4  5  1  0  0  0  0
  4  3  1  0  0  0  0
  5  2  1  0  0  0  0
  6  5  2  0  0  0  0
  7  8  2  0  0  0  0
  9  1  1  0  0  0  0
 12  4  1  0  0  0  0
 13  6  1  0  0  0  0
 14  7  1  0  0  0  0
M  END
