14
title
O 0.7156074 1.6607668 1.0675112
C 0.6557353 0.39747164 0.49879625
C -0.7433473 -0.16216215 -0.020706838
N -0.026040947 -0.5300662 -1.2561198
C 1.0904915 0.24893329 -0.9599797
N 2.0507157 0.78722185 -1.5766895
C -1.3276172 -1.3266076 0.7371953
O -2.3371394 -1.2741473 1.3897041
H 0.94667304 2.285627 0.36988407
H 1.1386907 -0.32325593 1.1672876
H -1.4742264 0.6457266 -0.122443624
H -0.4489512 -0.62425536 -2.1698654
H 2.0297468 0.60146177 -2.580523
H -0.72001076 -2.2577872 0.65679455
