title
 OpenBabel02282109593D

 15 15  0  0  1  0  0  0  0  0999 V2000
    0.1225    1.9893   -0.4002 C   0  0  0  0  0  0  0  0  0  0  0  0
    0.1596    0.5482   -0.4574 N   0  0  0  0  0  0  0  0  0  0  0  0
   -0.8895   -0.4601   -0.3933 C   0  0  1  0  0  0  0  0  0  0  0  0
    0.2391   -1.5477   -0.4532 C   0  0  0  0  0  0  0  0  0  0  0  0
    1.2066   -0.3389   -0.5114 C   0  0  0  0  0  0  0  0  0  0  0  0
    2.3961   -0.1853   -0.5787 O   0  0  0  0  0  0  0  0  0  0  0  0
   -1.7203   -0.4765    0.8690 C   0  0  0  0  0  0  0  0  0  0  0  0
   -1.5578    0.2683    1.8007 O   0  0  0  0  0  0  0  0  0  0  0  0
    1.1557    2.3425   -0.4323 H   0  0  0  0  0  0  0  0  0  0  0  0
   -0.4199    2.4097   -1.2556 H   0  0  0  0  0  0  0  0  0  0  0  0
   -0.3484    2.3288    0.5264 H   0  0  0  0  0  0  0  0  0  0  0  0
   -1.5625   -0.4795   -1.2632 H   0  0  0  0  0  0  0  0  0  0  0  0
    0.3465   -2.1609    0.4437 H   0  0  0  0  0  0  0  0  0  0  0  0
    0.2323   -2.1813   -1.3406 H   0  0  0  0  0  0  0  0  0  0  0  0
   -2.5161   -1.2566    0.8762 H   0  0  0  0  0  0  0  0  0  0  0  0
  1 11  1  0  0  0  0
  2  1  1  0  0  0  0
  2  3  1  0  0  0  0
  3 12  1  6  0  0  0
  3  7  1  0  0  0  0
  4  3  1  0  0  0  0
  4 13  1  0  0  0  0
  5  2  1  0  0  0  0
  5  4  1  0  0  0  0
  6  5  2  0  0  0  0
  7 15  1  0  0  0  0
  7  8  2  0  0  0  0
  9  1  1  0  0  0  0
 10  1  1  0  0  0  0
 14  4  1  0  0  0  0
M  END
