title
 OpenBabel02282109593D

 16 16  0  0  1  0  0  0  0  0999 V2000
   -1.3451    2.3015   -0.1320 C   0  0  0  0  0  0  0  0  0  0  0  0
   -1.3382    0.7804   -0.0790 C   0  0  1  0  0  0  0  0  0  0  0  0
   -0.7497   -0.0519   -1.2605 C   0  0  0  0  0  0  0  0  0  0  0  0
    0.0014   -0.9891   -0.2499 C   0  0  1  0  0  0  0  0  0  0  0  0
    1.3693   -1.3761   -0.4969 C   0  0  0  0  0  0  0  0  0  0  0  0
    2.5189   -1.6647   -0.6985 C   0  0  0  0  0  0  0  0  0  0  0  0
   -0.2986    0.1021    0.8274 C   0  0  0  0  0  0  0  0  0  0  0  0
    0.1936    0.3798    1.8776 O   0  0  0  0  0  0  0  0  0  0  0  0
   -0.3584    2.6883   -0.4058 H   0  0  0  0  0  0  0  0  0  0  0  0
   -2.0698    2.6673   -0.8659 H   0  0  0  0  0  0  0  0  0  0  0  0
   -1.6077    2.7178    0.8449 H   0  0  0  0  0  0  0  0  0  0  0  0
   -2.3330    0.4017    0.1910 H   0  0  0  0  0  0  0  0  0  0  0  0
   -1.4621   -0.5427   -1.9235 H   0  0  0  0  0  0  0  0  0  0  0  0
   -0.0416    0.5303   -1.8538 H   0  0  0  0  0  0  0  0  0  0  0  0
   -0.6170   -1.8668   -0.0208 H   0  0  0  0  0  0  0  0  0  0  0  0
    3.5334   -1.9259   -0.8721 H   0  0  0  0  0  0  0  0  0  0  0  0
  1  2  1  0  0  0  0
  1 11  1  0  0  0  0
  2 12  1  1  0  0  0
  2  7  1  0  0  0  0
  3  4  1  0  0  0  0
  3  2  1  0  0  0  0
  4 15  1  1  0  0  0
  4  7  1  0  0  0  0
  5  4  1  0  0  0  0
  6  5  3  0  0  0  0
  7  8  2  0  0  0  0
  9  1  1  0  0  0  0
 10  1  1  0  0  0  0
 13  3  1  0  0  0  0
 14  3  1  0  0  0  0
 16  6  1  0  0  0  0
M  END
