17
title
C -0.9826605 1.406173 -0.5139911
C -0.87366265 -0.1143453 -0.527619
C 0.30615205 -0.6716412 -1.3724011
O 0.74269074 0.19456118 -2.387104
C 1.1582407 -0.8055183 -0.08150644
C -0.17146803 -0.74416375 0.73329526
C -0.1793706 3.5509573e-05 1.9794538
N -0.18216927 0.6052805 2.9651148
H -0.031268306 1.8856654 -0.26863095
H -1.2895548 1.768032 -1.4983677
H -1.7222296 1.7291604 0.22430539
H -1.8479574 -0.554963 -0.7532427
H 0.055552535 -1.6633775 -1.7755417
H 1.4449806 -0.23819354 -2.8824372
H 1.7809021 -1.6923826 0.050194018
H 1.760282 0.091585554 0.07555067
H -0.5567256 -1.7493422 0.92513984
