14
title
C -0.8277062 2.1602228 -0.58209705
C -1.2068535 0.6979178 -0.4282944
O -0.46136555 -0.193755 -1.2976198
C 0.08709581 -0.9890048 -0.215941
C 1.5325577 -1.0185117 -0.15610804
C 2.7318878 -1.0276159 -0.07953434
C -0.65044534 -0.050598055 0.78836036
O -0.7241568 0.04431972 1.970314
H 0.24659307 2.3010726 -0.43742204
H -1.0934898 2.5120966 -1.5828948
H -1.3673995 2.7633061 0.15441485
H -2.2901387 0.55583626 -0.55085975
H -0.32907358 -2.0064058 -0.2161922
H 3.7922444 -1.0421814 -0.017492965
