title
 OpenBabel02282109593D

 13 13  0  0  1  0  0  0  0  0999 V2000
   -0.8285    2.1575   -0.5773 C   0  0  0  0  0  0  0  0  0  0  0  0
   -1.2188    0.7002   -0.4146 C   0  0  1  0  0  0  0  0  0  0  0  0
   -0.4806   -0.2052   -1.2865 O   0  0  0  0  0  0  0  0  0  0  0  0
    0.0723   -0.9858   -0.2148 C   0  0  1  0  0  0  0  0  0  0  0  0
    1.5300   -0.9825   -0.1702 C   0  0  0  0  0  0  0  0  0  0  0  0
    2.6841   -0.9629   -0.1139 N   0  0  0  0  0  0  0  0  0  0  0  0
   -0.6617   -0.0483    0.8016 C   0  0  0  0  0  0  0  0  0  0  0  0
   -0.7348    0.0320    1.9819 O   0  0  0  0  0  0  0  0  0  0  0  0
    0.2464    2.2951   -0.4343 H   0  0  0  0  0  0  0  0  0  0  0  0
   -1.0948    2.5030   -1.5799 H   0  0  0  0  0  0  0  0  0  0  0  0
   -1.3653    2.7670    0.1558 H   0  0  0  0  0  0  0  0  0  0  0  0
   -2.3015    0.5608   -0.5367 H   0  0  0  0  0  0  0  0  0  0  0  0
   -0.3032   -2.0173   -0.2044 H   0  0  0  0  0  0  0  0  0  0  0  0
  1  9  1  0  0  0  0
  1  2  1  0  0  0  0
  1 11  1  0  0  0  0
  2 12  1  6  0  0  0
  2  7  1  0  0  0  0
  3  2  1  0  0  0  0
  3  4  1  0  0  0  0
  4 13  1  1  0  0  0
  4  5  1  0  0  0  0
  4  7  1  0  0  0  0
  5  6  3  0  0  0  0
  7  8  2  0  0  0  0
 10  1  1  0  0  0  0
M  END
