title
 OpenBabel02282109593D

 18 18  0  0  1  0  0  0  0  0999 V2000
   -0.3419    2.1675    0.5448 C   0  0  0  0  0  0  0  0  0  0  0  0
   -0.3274    0.6580    0.4048 C   0  0  1  0  0  0  0  0  0  0  0  0
    0.4144    0.0154   -0.8115 C   0  0  1  0  0  0  0  0  0  0  0  0
    0.9228   -1.0348    0.2168 C   0  0  0  0  0  0  0  0  0  0  0  0
    0.5993   -0.0805    1.2886 N   0  0  0  0  0  0  0  0  0  0  0  0
    0.0977   -0.5989    2.5428 C   0  0  0  0  0  0  0  0  0  0  0  0
   -0.3718   -0.4387   -1.9410 C   0  0  0  0  0  0  0  0  0  0  0  0
   -1.0090   -0.8018   -2.8352 N   0  0  0  0  0  0  0  0  0  0  0  0
    0.6726    2.5707    0.4751 H   0  0  0  0  0  0  0  0  0  0  0  0
   -0.9604    2.6215   -0.2364 H   0  0  0  0  0  0  0  0  0  0  0  0
   -0.7593    2.4617    1.5136 H   0  0  0  0  0  0  0  0  0  0  0  0
   -1.3537    0.2557    0.4588 H   0  0  0  0  0  0  0  0  0  0  0  0
    1.2261    0.6604   -1.1567 H   0  0  0  0  0  0  0  0  0  0  0  0
    0.2861   -1.9337    0.2175 H   0  0  0  0  0  0  0  0  0  0  0  0
    1.9728   -1.3345    0.1533 H   0  0  0  0  0  0  0  0  0  0  0  0
    0.8828   -1.1726    3.0461 H   0  0  0  0  0  0  0  0  0  0  0  0
   -0.1828    0.2294    3.2014 H   0  0  0  0  0  0  0  0  0  0  0  0
   -0.7834   -1.2559    2.4188 H   0  0  0  0  0  0  0  0  0  0  0  0
  1 11  1  0  0  0  0
  2  3  1  6  0  0  0
  2 12  1  0  0  0  0
  2  1  1  0  0  0  0
  2  5  1  0  0  0  0
  3 13  1  6  0  0  0
  3  4  1  0  0  0  0
  4 14  1  0  0  0  0
  4  5  1  0  0  0  0
  5  6  1  0  0  0  0
  6 16  1  0  0  0  0
  6 17  1  0  0  0  0
  7  3  1  0  0  0  0
  8  7  3  0  0  0  0
  9  1  1  0  0  0  0
 10  1  1  0  0  0  0
 15  4  1  0  0  0  0
 18  6  1  0  0  0  0
M  END
