title
 OpenBabel02282109593D

 14 14  0  0  1  0  0  0  0  0999 V2000
    0.7830    2.0363    1.3984 O   0  0  0  0  0  0  0  0  0  0  0  0
    0.6480    0.6636    1.2215 C   0  0  1  0  0  0  0  0  0  0  0  0
   -0.7543   -0.0415    1.2165 C   0  0  0  0  0  0  0  0  0  0  0  0
   -0.2610   -1.0031    0.0771 C   0  0  1  0  0  0  0  0  0  0  0  0
   -1.1496   -1.3695   -0.9978 C   0  0  0  0  0  0  0  0  0  0  0  0
   -1.8875   -1.6477   -1.9049 C   0  0  0  0  0  0  0  0  0  0  0  0
    0.8274    0.0816   -0.1864 C   0  0  0  0  0  0  0  0  0  0  0  0
    1.3361    0.5199   -1.1741 O   0  0  0  0  0  0  0  0  0  0  0  0
    0.6926    2.4577    0.5353 H   0  0  0  0  0  0  0  0  0  0  0  0
    1.3046    0.1552    1.9387 H   0  0  0  0  0  0  0  0  0  0  0  0
   -1.0703   -0.5107    2.1474 H   0  0  0  0  0  0  0  0  0  0  0  0
   -1.5313    0.6310    0.8486 H   0  0  0  0  0  0  0  0  0  0  0  0
    0.2152   -1.8880    0.5162 H   0  0  0  0  0  0  0  0  0  0  0  0
   -2.5372   -1.8980   -2.7067 H   0  0  0  0  0  0  0  0  0  0  0  0
  2  1  1  0  0  0  0
  2 10  1  1  0  0  0
  3  2  1  0  0  0  0
  3 11  1  0  0  0  0
  4 13  1  1  0  0  0
  4  3  1  0  0  0  0
  5  4  1  0  0  0  0
  6  5  3  0  0  0  0
  7  4  1  0  0  0  0
  7  2  1  0  0  0  0
  8  7  2  0  0  0  0
  9  1  1  0  0  0  0
 12  3  1  0  0  0  0
 14  6  1  0  0  0  0
M  END
