title
 OpenBabel02282109593D

 19 19  0  0  1  0  0  0  0  0999 V2000
   -1.3445    2.2793   -0.6071 C   0  0  0  0  0  0  0  0  0  0  0  0
   -1.3073    0.7645   -0.4793 C   0  0  1  0  0  0  0  0  0  0  0  0
   -0.3268   -0.0414   -1.3728 C   0  0  0  0  0  0  0  0  0  0  0  0
   -0.1046   -1.0182   -0.1784 C   0  0  1  0  0  0  0  0  0  0  0  0
    1.2321   -1.5355    0.0553 C   0  0  0  0  0  0  0  0  0  0  0  0
    2.3039   -1.9270    0.2461 N   0  0  0  0  0  0  0  0  0  0  0  0
   -0.6695    0.0906    0.7849 C   0  0  1  0  0  0  0  0  0  0  0  0
    0.3961    0.9017    1.5139 C   0  0  0  0  0  0  0  0  0  0  0  0
   -0.3517    2.7212   -0.4784 H   0  0  0  0  0  0  0  0  0  0  0  0
   -1.7124    2.5731   -1.5963 H   0  0  0  0  0  0  0  0  0  0  0  0
   -2.0104    2.7271    0.1387 H   0  0  0  0  0  0  0  0  0  0  0  0
   -2.3196    0.3656   -0.6107 H   0  0  0  0  0  0  0  0  0  0  0  0
   -0.7065   -0.4767   -2.2990 H   0  0  0  0  0  0  0  0  0  0  0  0
    0.5818    0.5237   -1.5958 H   0  0  0  0  0  0  0  0  0  0  0  0
   -0.8003   -1.8601   -0.2364 H   0  0  0  0  0  0  0  0  0  0  0  0
   -1.3924   -0.2932    1.5099 H   0  0  0  0  0  0  0  0  0  0  0  0
    1.1641    1.2855    0.8350 H   0  0  0  0  0  0  0  0  0  0  0  0
   -0.0548    1.7562    2.0279 H   0  0  0  0  0  0  0  0  0  0  0  0
    0.9035    0.2861    2.2626 H   0  0  0  0  0  0  0  0  0  0  0  0
  1  2  1  0  0  0  0
  1  9  1  0  0  0  0
  1 11  1  0  0  0  0
  2  7  1  1  0  0  0
  3  2  1  0  0  0  0
  3  4  1  0  0  0  0
  4  5  1  0  0  0  0
  4  7  1  1  0  0  0
  5  6  3  0  0  0  0
  7 16  1  1  0  0  0
  7  8  1  0  0  0  0
  8 18  1  0  0  0  0
  8 19  1  0  0  0  0
 10  1  1  0  0  0  0
 12  2  1  0  0  0  0
 13  3  1  0  0  0  0
 14  3  1  0  0  0  0
 15  4  1  0  0  0  0
 17  8  1  0  0  0  0
M  END
