title
 OpenBabel02282109593D

 17 17  0  0  1  0  0  0  0  0999 V2000
   -1.3282    2.2001   -0.5888 C   0  0  0  0  0  0  0  0  0  0  0  0
   -1.3177    0.6922   -0.4287 C   0  0  1  0  0  0  0  0  0  0  0  0
   -0.3429   -0.0411   -1.2777 N   0  0  0  0  0  0  0  0  0  0  0  0
   -0.0925   -1.0237   -0.2072 C   0  0  1  0  0  0  0  0  0  0  0  0
    1.2968   -1.4392   -0.0407 C   0  0  0  0  0  0  0  0  0  0  0  0
    2.3963   -1.7472    0.1421 N   0  0  0  0  0  0  0  0  0  0  0  0
   -0.6574    0.0406    0.8271 C   0  0  1  0  0  0  0  0  0  0  0  0
    0.2777    0.8878    1.5192 N   0  0  0  0  0  0  0  0  0  0  0  0
   -0.3322    2.6247   -0.4472 H   0  0  0  0  0  0  0  0  0  0  0  0
   -1.6743    2.4703   -1.5923 H   0  0  0  0  0  0  0  0  0  0  0  0
   -2.0045    2.6589    0.1389 H   0  0  0  0  0  0  0  0  0  0  0  0
   -2.3424    0.3030   -0.5356 H   0  0  0  0  0  0  0  0  0  0  0  0
   -0.6912   -0.4239   -2.1503 H   0  0  0  0  0  0  0  0  0  0  0  0
   -0.7297   -1.9191   -0.2406 H   0  0  0  0  0  0  0  0  0  0  0  0
   -1.3527   -0.3853    1.5520 H   0  0  0  0  0  0  0  0  0  0  0  0
    0.7317    0.3807    2.2723 H   0  0  0  0  0  0  0  0  0  0  0  0
    1.0136    1.2034    0.8944 H   0  0  0  0  0  0  0  0  0  0  0  0
  1  9  1  0  0  0  0
  1  2  1  0  0  0  0
  1 11  1  0  0  0  0
  2  7  1  1  0  0  0
  3  2  1  0  0  0  0
  3  4  1  0  0  0  0
  4  5  1  0  0  0  0
  4  7  1  1  0  0  0
  5  6  3  0  0  0  0
  7  8  1  0  0  0  0
  7 15  1  1  0  0  0
  8 16  1  0  0  0  0
 10  1  1  0  0  0  0
 12  2  1  0  0  0  0
 13  3  1  0  0  0  0
 14  4  1  0  0  0  0
 17  8  1  0  0  0  0
M  END
