17
title
C -1.3336592 2.274156 -0.51463425
C -1.3158875 0.7569453 -0.44357145
C -0.3665917 -0.038062524 -1.3842283
C -0.12138164 -1.041549 -0.21543299
C 1.2160608 -1.5430138 0.030525945
N 2.287624 -1.9023871 0.2783108
C -0.63354516 0.071248226 0.7743782
O 0.40029562 0.88901097 1.258027
H -0.33303094 2.6803808 -0.3516331
H -1.6892327 2.6073165 -1.4954572
H -1.9981722 2.6996617 0.2444792
H -2.332273 0.35787946 -0.5350006
H -0.7786169 -0.45367754 -2.3050199
H 0.53886545 0.52650285 -1.6141636
H -0.8269002 -1.8761103 -0.25474474
H -1.2840942 -0.2833203 1.5844105
H 1.0061134 0.34997874 1.7800702
