title
 OpenBabel02282109593D

 20 20  0  0  1  0  0  0  0  0999 V2000
   -1.4692    2.2036   -0.5746 C   0  0  0  0  0  0  0  0  0  0  0  0
   -1.3402    0.6922   -0.4611 C   0  0  1  0  0  0  0  0  0  0  0  0
   -0.3206   -0.0481   -1.3659 C   0  0  0  0  0  0  0  0  0  0  0  0
   -0.0359   -1.0269   -0.1843 C   0  0  1  0  0  0  0  0  0  0  0  0
    1.3164   -1.4969    0.0306 C   0  0  0  0  0  0  0  0  0  0  0  0
    2.4467   -1.8694    0.2095 C   0  0  0  0  0  0  0  0  0  0  0  0
   -0.6559    0.0447    0.7911 C   0  0  1  0  0  0  0  0  0  0  0  0
    0.3684    0.9104    1.5158 C   0  0  0  0  0  0  0  0  0  0  0  0
   -0.5035    2.7024   -0.4463 H   0  0  0  0  0  0  0  0  0  0  0  0
   -1.8589    2.4854   -1.5592 H   0  0  0  0  0  0  0  0  0  0  0  0
   -2.1559    2.6056    0.1789 H   0  0  0  0  0  0  0  0  0  0  0  0
   -2.3287    0.2360   -0.5900 H   0  0  0  0  0  0  0  0  0  0  0  0
   -0.6796   -0.4874   -2.2994 H   0  0  0  0  0  0  0  0  0  0  0  0
    0.5554    0.5692   -1.5828 H   0  0  0  0  0  0  0  0  0  0  0  0
   -0.7138   -1.8848   -0.2501 H   0  0  0  0  0  0  0  0  0  0  0  0
    3.4421   -2.2046    0.3641 H   0  0  0  0  0  0  0  0  0  0  0  0
   -1.3516   -0.3781    1.5222 H   0  0  0  0  0  0  0  0  0  0  0  0
    1.1058    1.3412    0.8311 H   0  0  0  0  0  0  0  0  0  0  0  0
   -0.1223    1.7344    2.0440 H   0  0  0  0  0  0  0  0  0  0  0  0
    0.9200    0.3164    2.2505 H   0  0  0  0  0  0  0  0  0  0  0  0
  1  2  1  0  0  0  0
  1  9  1  0  0  0  0
  1 11  1  0  0  0  0
  2  7  1  1  0  0  0
  3  2  1  0  0  0  0
  3  4  1  0  0  0  0
  4  5  1  0  0  0  0
  4  7  1  1  0  0  0
  5  6  3  0  0  0  0
  6 16  1  0  0  0  0
  7  8  1  0  0  0  0
  7 17  1  1  0  0  0
  8 19  1  0  0  0  0
  8 20  1  0  0  0  0
 10  1  1  0  0  0  0
 12  2  1  0  0  0  0
 13  3  1  0  0  0  0
 14  3  1  0  0  0  0
 15  4  1  0  0  0  0
 18  8  1  0  0  0  0
M  END
