title
 OpenBabel02282109593D

 18 18  0  0  1  0  0  0  0  0999 V2000
   -1.0634    2.0387   -0.6772 C   0  0  0  0  0  0  0  0  0  0  0  0
   -1.3378    0.5814   -0.3631 C   0  0  1  0  0  0  0  0  0  0  0  0
   -0.5998   -0.3117   -1.2359 O   0  0  0  0  0  0  0  0  0  0  0  0
   -0.0502   -1.0514   -0.1206 C   0  0  1  0  0  0  0  0  0  0  0  0
    1.4011   -1.1380   -0.1444 C   0  0  0  0  0  0  0  0  0  0  0  0
    2.6007   -1.2201   -0.1519 C   0  0  0  0  0  0  0  0  0  0  0  0
   -0.7240   -0.0812    0.9037 C   0  0  1  0  0  0  0  0  0  0  0  0
    0.1800    0.7407    1.8093 C   0  0  0  0  0  0  0  0  0  0  0  0
    0.0018    2.2719   -0.6060 H   0  0  0  0  0  0  0  0  0  0  0  0
   -1.3907    2.2601   -1.6980 H   0  0  0  0  0  0  0  0  0  0  0  0
   -1.6162    2.6936    0.0051 H   0  0  0  0  0  0  0  0  0  0  0  0
   -2.4158    0.3850   -0.4511 H   0  0  0  0  0  0  0  0  0  0  0  0
   -0.4695   -2.0664   -0.0859 H   0  0  0  0  0  0  0  0  0  0  0  0
    3.6601   -1.2940   -0.1674 H   0  0  0  0  0  0  0  0  0  0  0  0
   -1.4765   -0.5966    1.5055 H   0  0  0  0  0  0  0  0  0  0  0  0
    0.9870    1.2246    1.2543 H   0  0  0  0  0  0  0  0  0  0  0  0
   -0.3941    1.5147    2.3292 H   0  0  0  0  0  0  0  0  0  0  0  0
    0.6431    0.1017    2.5676 H   0  0  0  0  0  0  0  0  0  0  0  0
  1  9  1  0  0  0  0
  1  2  1  0  0  0  0
  1 11  1  0  0  0  0
  2  7  1  1  0  0  0
  3  2  1  0  0  0  0
  3  4  1  0  0  0  0
  4 13  1  0  0  0  0
  4  7  1  1  0  0  0
  5  4  1  0  0  0  0
  6  5  3  0  0  0  0
  7 15  1  1  0  0  0
  7  8  1  0  0  0  0
  8 17  1  0  0  0  0
  8 18  1  0  0  0  0
 10  1  1  0  0  0  0
 12  2  1  0  0  0  0
 14  6  1  0  0  0  0
 16  8  1  0  0  0  0
M  END
