title
 OpenBabel02282109593D

 17 17  0  0  1  0  0  0  0  0999 V2000
   -1.3337    2.2742   -0.5146 C   0  0  0  0  0  0  0  0  0  0  0  0
   -1.3159    0.7569   -0.4436 C   0  0  1  0  0  0  0  0  0  0  0  0
   -0.3666   -0.0381   -1.3842 C   0  0  0  0  0  0  0  0  0  0  0  0
   -0.1214   -1.0415   -0.2154 C   0  0  1  0  0  0  0  0  0  0  0  0
    1.2161   -1.5430    0.0305 C   0  0  0  0  0  0  0  0  0  0  0  0
    2.2876   -1.9024    0.2783 N   0  0  0  0  0  0  0  0  0  0  0  0
   -0.6335    0.0712    0.7744 C   0  0  1  0  0  0  0  0  0  0  0  0
    0.4003    0.8890    1.2580 O   0  0  0  0  0  0  0  0  0  0  0  0
   -0.3330    2.6804   -0.3516 H   0  0  0  0  0  0  0  0  0  0  0  0
   -1.6892    2.6073   -1.4955 H   0  0  0  0  0  0  0  0  0  0  0  0
   -1.9982    2.6997    0.2445 H   0  0  0  0  0  0  0  0  0  0  0  0
   -2.3323    0.3579   -0.5350 H   0  0  0  0  0  0  0  0  0  0  0  0
   -0.7786   -0.4537   -2.3050 H   0  0  0  0  0  0  0  0  0  0  0  0
    0.5389    0.5265   -1.6142 H   0  0  0  0  0  0  0  0  0  0  0  0
   -0.8269   -1.8761   -0.2547 H   0  0  0  0  0  0  0  0  0  0  0  0
   -1.2841   -0.2833    1.5844 H   0  0  0  0  0  0  0  0  0  0  0  0
    1.0061    0.3500    1.7801 H   0  0  0  0  0  0  0  0  0  0  0  0
  1  2  1  0  0  0  0
  1  9  1  0  0  0  0
  1 11  1  0  0  0  0
  2  7  1  1  0  0  0
  3  2  1  0  0  0  0
  3  4  1  0  0  0  0
  4  5  1  0  0  0  0
  4  7  1  1  0  0  0
  5  6  3  0  0  0  0
  7  8  1  0  0  0  0
  7 16  1  1  0  0  0
  8 17  1  0  0  0  0
 10  1  1  0  0  0  0
 12  2  1  0  0  0  0
 13  3  1  0  0  0  0
 14  3  1  0  0  0  0
 15  4  1  0  0  0  0
M  END
