title
 OpenBabel02282109593D

 18 18  0  0  1  0  0  0  0  0999 V2000
   -0.4582    2.0024   -0.5264 C   0  0  0  0  0  0  0  0  0  0  0  0
   -1.2405    0.6920   -0.5063 C   0  0  1  0  0  0  0  0  0  0  0  0
   -0.7062   -0.4048   -1.4726 C   0  0  0  0  0  0  0  0  0  0  0  0
   -0.0225   -1.1444   -0.2719 C   0  0  1  0  0  0  0  0  0  0  0  0
    1.3977   -0.8999   -0.1235 C   0  0  0  0  0  0  0  0  0  0  0  0
    2.5639   -0.6553    0.0545 C   0  0  0  0  0  0  0  0  0  0  0  0
   -0.9007   -0.2547    0.6919 C   0  0  1  0  0  0  0  0  0  0  0  0
   -0.3231    0.2592    1.8536 O   0  0  0  0  0  0  0  0  0  0  0  0
    0.6227    1.8317   -0.4941 H   0  0  0  0  0  0  0  0  0  0  0  0
   -0.6754    2.5648   -1.4405 H   0  0  0  0  0  0  0  0  0  0  0  0
   -0.7258    2.6266    0.3316 H   0  0  0  0  0  0  0  0  0  0  0  0
   -2.3091    0.9052   -0.6050 H   0  0  0  0  0  0  0  0  0  0  0  0
   -1.4972   -1.0134   -1.9160 H   0  0  0  0  0  0  0  0  0  0  0  0
   -0.0331   -0.0691   -2.2636 H   0  0  0  0  0  0  0  0  0  0  0  0
   -0.2203   -2.2182   -0.2079 H   0  0  0  0  0  0  0  0  0  0  0  0
    3.6022   -0.4708    0.1814 H   0  0  0  0  0  0  0  0  0  0  0  0
   -1.7850   -0.8165    1.0061 H   0  0  0  0  0  0  0  0  0  0  0  0
    0.6003    0.4651    1.6580 H   0  0  0  0  0  0  0  0  0  0  0  0
  1  2  1  0  0  0  0
  1  9  1  0  0  0  0
  1 11  1  0  0  0  0
  2  7  1  1  0  0  0
  3  2  1  0  0  0  0
  3  4  1  0  0  0  0
  4 15  1  0  0  0  0
  4  5  1  0  0  0  0
  4  7  1  1  0  0  0
  5  6  3  0  0  0  0
  6 16  1  0  0  0  0
  7 17  1  1  0  0  0
  7  8  1  0  0  0  0
 10  1  1  0  0  0  0
 12  2  1  0  0  0  0
 13  3  1  0  0  0  0
 14  3  1  0  0  0  0
 18  8  1  0  0  0  0
M  END
