title
 OpenBabel02282109593D

 16 16  0  0  1  0  0  0  0  0999 V2000
    1.0997    1.0999   -0.9727 O   0  0  0  0  0  0  0  0  0  0  0  0
    1.1402   -0.3114   -0.8133 C   0  0  1  0  0  0  0  0  0  0  0  0
    1.3444   -0.7854    0.6441 C   0  0  0  0  0  0  0  0  0  0  0  0
   -0.2141   -0.8397    0.8259 C   0  0  1  0  0  0  0  0  0  0  0  0
   -0.7636    0.3762    1.3915 C   0  0  0  0  0  0  0  0  0  0  0  0
   -1.1881    1.4153    1.8290 C   0  0  0  0  0  0  0  0  0  0  0  0
   -0.3003   -0.8976   -0.7623 C   0  0  1  0  0  0  0  0  0  0  0  0
   -1.2888   -0.2074   -1.4443 O   0  0  0  0  0  0  0  0  0  0  0  0
    0.7705    1.4915   -0.1530 H   0  0  0  0  0  0  0  0  0  0  0  0
    1.8165   -0.6882   -1.5835 H   0  0  0  0  0  0  0  0  0  0  0  0
    1.7878   -1.7827    0.6925 H   0  0  0  0  0  0  0  0  0  0  0  0
    1.8957   -0.1135    1.3043 H   0  0  0  0  0  0  0  0  0  0  0  0
   -0.6081   -1.7164    1.3460 H   0  0  0  0  0  0  0  0  0  0  0  0
   -1.5890    2.3111    2.2349 H   0  0  0  0  0  0  0  0  0  0  0  0
   -0.3258   -1.9471   -1.0715 H   0  0  0  0  0  0  0  0  0  0  0  0
   -0.9662    0.7023   -1.5224 H   0  0  0  0  0  0  0  0  0  0  0  0
  1  2  1  0  0  0  0
  1  9  1  0  0  0  0
  2  7  1  6  0  0  0
  2  3  1  0  0  0  0
  3 11  1  0  0  0  0
  3  4  1  0  0  0  0
  3 12  1  0  0  0  0
  4  7  1  6  0  0  0
  4 13  1  0  0  0  0
  4  5  1  0  0  0  0
  5  6  3  0  0  0  0
  6 14  1  0  0  0  0
  7 15  1  6  0  0  0
  8  7  1  0  0  0  0
 10  2  1  0  0  0  0
 16  8  1  0  0  0  0
M  END
