16
title
C -1.5175525 2.2468321 -0.2773193
C -1.4031117 0.72802675 -0.2900431
C -0.58732104 0.060151607 -1.43651
N 0.3293312 -0.47068945 -0.41427544
C 1.4560615 -1.2597402 -0.563526
N 2.1639502 -1.6446592 0.41657704
C -0.3501831 0.12310395 0.6657058
O -0.14838229 0.1427615 1.8426595
H -0.54352695 2.7185314 -0.44350404
H -2.2043033 2.5984118 -1.0534539
H -1.8931161 2.588021 0.6914795
H -2.3815823 0.26071545 -0.14534017
H -1.1125082 -0.714455 -2.002994
H -0.110862955 0.76426286 -2.1262925
H 1.6369771 -1.4943124 -1.6211685
H 2.9405513 -2.212965 0.08250348
