16
title
N 1.2685945 0.86458874 -1.2469492
C 0.9326632 -0.39710787 -0.6535571
C 1.0135698 -0.63083047 0.89318395
O 0.86825603 0.62841934 1.5157567
C -0.30939195 -1.4332927 0.80454636
C -0.5908885 -0.78994817 -0.59431005
C -1.5003524 0.34321508 -0.54711497
N -2.2341197 1.2361828 -0.5059475
H 0.9515428 1.6189483 -0.64449555
H 2.2739637 0.960469 -1.3445457
H 1.4653435 -1.1981437 -1.1736759
H 1.8929913 -1.1669987 1.2744446
H 0.58004296 0.4960471 2.4243324
H -0.14130186 -2.5091894 0.7168602
H -1.0484072 -1.2448968 1.5853502
H -0.92389894 -1.472141 -1.3796163
