16
title
O 1.0996907 1.0998857 -0.9727459
C 1.1401668 -0.31138635 -0.8132641
C 1.3443518 -0.7854164 0.6440817
C -0.2140952 -0.83966166 0.82588756
C -0.76358783 0.3762246 1.3915124
C -1.1880741 1.4152611 1.8289623
C -0.30026576 -0.8976189 -0.76229674
O -1.2888076 -0.2073618 -1.4442858
H 0.7705252 1.491542 -0.15300979
H 1.8164519 -0.68822354 -1.5834541
H 1.7878202 -1.7826822 0.69250727
H 1.8957005 -0.11350551 1.304307
H -0.6081096 -1.7163664 1.3459625
H -1.5890365 2.311143 2.2349052
H -0.32584557 -1.9471202 -1.0715345
H -0.9662285 0.7023048 -1.5224319
