title
 OpenBabel02282109593D

 15 15  0  0  1  0  0  0  0  0999 V2000
   -1.5310    2.2623   -0.2372 C   0  0  0  0  0  0  0  0  0  0  0  0
   -1.4141    0.7435   -0.2684 C   0  0  1  0  0  0  0  0  0  0  0  0
   -0.6136    0.0883   -1.4349 C   0  0  0  0  0  0  0  0  0  0  0  0
    0.3158   -0.4623   -0.4275 N   0  0  0  0  0  0  0  0  0  0  0  0
    1.4426   -1.2512   -0.5726 C   0  0  0  0  0  0  0  0  0  0  0  0
    2.1388   -1.6396    0.3277 O   0  0  0  0  0  0  0  0  0  0  0  0
   -0.3556    0.1283    0.6710 C   0  0  0  0  0  0  0  0  0  0  0  0
   -0.1354    0.1323    1.8425 O   0  0  0  0  0  0  0  0  0  0  0  0
   -0.5593    2.7384   -0.4035 H   0  0  0  0  0  0  0  0  0  0  0  0
   -2.2226    2.6188   -1.0064 H   0  0  0  0  0  0  0  0  0  0  0  0
   -1.9032    2.5915    0.7368 H   0  0  0  0  0  0  0  0  0  0  0  0
   -2.3904    0.2735   -0.1176 H   0  0  0  0  0  0  0  0  0  0  0  0
   -1.1467   -0.6768   -2.0046 H   0  0  0  0  0  0  0  0  0  0  0  0
   -0.1403    0.8000   -2.1173 H   0  0  0  0  0  0  0  0  0  0  0  0
    1.6274   -1.4868   -1.6408 H   0  0  0  0  0  0  0  0  0  0  0  0
  1 11  1  0  0  0  0
  2  1  1  0  0  0  0
  2 12  1  1  0  0  0
  2  7  1  0  0  0  0
  3  4  1  0  0  0  0
  3  2  1  0  0  0  0
  4  7  1  0  0  0  0
  5  4  1  0  0  0  0
  5  6  2  0  0  0  0
  7  8  2  0  0  0  0
  9  1  1  0  0  0  0
 10  1  1  0  0  0  0
 13  3  1  0  0  0  0
 14  3  1  0  0  0  0
 15  5  1  0  0  0  0
M  END
