title
 OpenBabel02282109593D

 16 16  0  0  1  0  0  0  0  0999 V2000
    1.2686    0.8646   -1.2469 N   0  0  0  0  0  0  0  0  0  0  0  0
    0.9327   -0.3971   -0.6536 C   0  0  1  0  0  0  0  0  0  0  0  0
    1.0136   -0.6308    0.8932 C   0  0  1  0  0  0  0  0  0  0  0  0
    0.8683    0.6284    1.5158 O   0  0  0  0  0  0  0  0  0  0  0  0
   -0.3094   -1.4333    0.8045 C   0  0  0  0  0  0  0  0  0  0  0  0
   -0.5909   -0.7899   -0.5943 C   0  0  1  0  0  0  0  0  0  0  0  0
   -1.5004    0.3432   -0.5471 C   0  0  0  0  0  0  0  0  0  0  0  0
   -2.2341    1.2362   -0.5059 N   0  0  0  0  0  0  0  0  0  0  0  0
    0.9515    1.6189   -0.6445 H   0  0  0  0  0  0  0  0  0  0  0  0
    2.2740    0.9605   -1.3445 H   0  0  0  0  0  0  0  0  0  0  0  0
    1.4653   -1.1981   -1.1737 H   0  0  0  0  0  0  0  0  0  0  0  0
    1.8930   -1.1670    1.2744 H   0  0  0  0  0  0  0  0  0  0  0  0
    0.5800    0.4960    2.4243 H   0  0  0  0  0  0  0  0  0  0  0  0
   -0.1413   -2.5092    0.7169 H   0  0  0  0  0  0  0  0  0  0  0  0
   -1.0484   -1.2449    1.5854 H   0  0  0  0  0  0  0  0  0  0  0  0
   -0.9239   -1.4721   -1.3796 H   0  0  0  0  0  0  0  0  0  0  0  0
  1  2  1  0  0  0  0
  1  9  1  0  0  0  0
  2  6  1  6  0  0  0
  3  2  1  6  0  0  0
  3 12  1  0  0  0  0
  3  4  1  0  0  0  0
  4 13  1  0  0  0  0
  5  3  1  0  0  0  0
  5 15  1  0  0  0  0
  6 16  1  6  0  0  0
  6  7  1  0  0  0  0
  6  5  1  0  0  0  0
  7  8  3  0  0  0  0
 10  1  1  0  0  0  0
 11  2  1  0  0  0  0
 14  5  1  0  0  0  0
M  END
