title
 OpenBabel02282109593D

 15 15  0  0  1  0  0  0  0  0999 V2000
    1.1347    1.0459   -1.0308 O   0  0  0  0  0  0  0  0  0  0  0  0
    1.1418   -0.3554   -0.8086 C   0  0  1  0  0  0  0  0  0  0  0  0
    1.3295   -0.7825    0.6659 C   0  0  0  0  0  0  0  0  0  0  0  0
   -0.2285   -0.8284    0.8391 C   0  0  1  0  0  0  0  0  0  0  0  0
   -0.7634    0.4134    1.3668 C   0  0  0  0  0  0  0  0  0  0  0  0
   -1.1450    1.4367    1.7507 N   0  0  0  0  0  0  0  0  0  0  0  0
   -0.3145   -0.9069   -0.7490 C   0  0  1  0  0  0  0  0  0  0  0  0
   -1.2851   -0.1989   -1.4313 O   0  0  0  0  0  0  0  0  0  0  0  0
    0.9061    1.5054   -0.2137 H   0  0  0  0  0  0  0  0  0  0  0  0
    1.8101   -0.7848   -1.5574 H   0  0  0  0  0  0  0  0  0  0  0  0
    1.7633   -1.7807    0.7525 H   0  0  0  0  0  0  0  0  0  0  0  0
    1.8812   -0.0963    1.3109 H   0  0  0  0  0  0  0  0  0  0  0  0
   -0.6427   -1.6766    1.3869 H   0  0  0  0  0  0  0  0  0  0  0  0
   -0.3695   -1.9609   -1.0370 H   0  0  0  0  0  0  0  0  0  0  0  0
   -0.9309    0.6956   -1.5491 H   0  0  0  0  0  0  0  0  0  0  0  0
  1  2  1  0  0  0  0
  1  9  1  0  0  0  0
  2  7  1  6  0  0  0
  2  3  1  0  0  0  0
  3 11  1  0  0  0  0
  3  4  1  0  0  0  0
  3 12  1  0  0  0  0
  4  7  1  6  0  0  0
  4  5  1  0  0  0  0
  4 13  1  0  0  0  0
  5  6  3  0  0  0  0
  7 14  1  6  0  0  0
  8  7  1  0  0  0  0
 10  2  1  0  0  0  0
 15  8  1  0  0  0  0
M  END
