title
 OpenBabel02282109593D

 14 14  0  0  1  0  0  0  0  0999 V2000
    0.9157    1.4679    1.9000 O   0  0  0  0  0  0  0  0  0  0  0  0
    0.5432    0.1832    1.4792 C   0  0  1  0  0  0  0  0  0  0  0  0
   -0.9880    0.0353    1.2248 C   0  0  0  0  0  0  0  0  0  0  0  0
   -0.6599   -0.3032   -0.1767 N   0  0  0  0  0  0  0  0  0  0  0  0
   -1.4082   -0.5858   -1.2864 C   0  0  0  0  0  0  0  0  0  0  0  0
   -0.9347   -0.7773   -2.3843 O   0  0  0  0  0  0  0  0  0  0  0  0
    0.7288   -0.1085   -0.0123 C   0  0  0  0  0  0  0  0  0  0  0  0
    1.7378   -0.1015   -0.7616 N   0  0  0  0  0  0  0  0  0  0  0  0
    1.7965    1.6399    1.5465 H   0  0  0  0  0  0  0  0  0  0  0  0
    0.9524   -0.6024    2.1282 H   0  0  0  0  0  0  0  0  0  0  0  0
   -1.4927   -0.7649    1.7703 H   0  0  0  0  0  0  0  0  0  0  0  0
   -1.5237    0.9808    1.3340 H   0  0  0  0  0  0  0  0  0  0  0  0
   -2.4929   -0.6234   -1.0687 H   0  0  0  0  0  0  0  0  0  0  0  0
    1.4799   -0.2972   -1.7302 H   0  0  0  0  0  0  0  0  0  0  0  0
  2  1  1  0  0  0  0
  2 10  1  1  0  0  0
  3 12  1  0  0  0  0
  3  2  1  0  0  0  0
  3 11  1  0  0  0  0
  4  7  1  0  0  0  0
  4  3  1  0  0  0  0
  5 13  1  0  0  0  0
  5  4  1  0  0  0  0
  6  5  2  0  0  0  0
  7  2  1  0  0  0  0
  8  7  2  0  0  0  0
  9  1  1  0  0  0  0
 14  8  1  0  0  0  0
M  END
