18
title
C -0.35796475 2.0551798 -0.37361306
C -1.1773989 0.7771863 -0.52149606
C -0.64105546 -0.2381372 -1.5734457
C -0.0989315 -1.1550132 -0.4105334
C 1.3918307 -1.0653917 -0.29137108
O 1.9994678 -0.3069267 0.43438965
C -0.9426513 -0.3025402 0.5912165
O -0.39220464 0.059574526 1.8215528
H 0.71079785 1.8477343 -0.26704842
H -0.48880184 2.698591 -1.250152
H -0.6762887 2.614472 0.5111219
H -2.231881 1.0365466 -0.65485334
H -1.4212952 -0.7377448 -2.1504474
H 0.11058908 0.14662497 -2.2681699
H -0.3693061 -2.2118714 -0.50420755
H 1.9531326 -1.7492816 -0.9662809
H -1.8808265 -0.8222984 0.8109488
H 0.54342204 0.25381312 1.6661325
