17
title
C -1.3457472 1.7043494 -0.16558494
C -1.0204806 0.21842141 -0.22118178
C -0.21674743 -0.28599706 -1.4646127
O 0.038448785 0.7435823 -2.38497
C 0.9456445 -0.6744843 -0.49944136
N 0.11541555 -0.21599059 0.6129374
C 0.22187981 -0.5173093 1.9258583
O 1.1723633 -1.0829839 2.4282913
H -0.46000704 2.3077009 -0.37260765
H -2.110079 1.9512372 -0.9082802
H -1.7309579 1.9703878 0.8235487
H -1.9247419 -0.37400535 -0.035452377
H -0.6817012 -1.1522552 -1.9496448
H 0.5543777 0.38269255 -3.1124904
H 1.2051563 -1.7364005 -0.4438492
H 1.8561366 -0.083387636 -0.64553463
H -0.6639621 -0.17984961 2.5031576
