title
 OpenBabel02282109593D

 18 18  0  0  1  0  0  0  0  0999 V2000
   -1.6149    1.1259   -0.6966 C   0  0  0  0  0  0  0  0  0  0  0  0
   -0.9621   -0.2476   -0.6567 C   0  0  1  0  0  0  0  0  0  0  0  0
    0.3352   -0.5103   -1.4667 C   0  0  1  0  0  0  0  0  0  0  0  0
    1.0667    0.6981   -1.5849 O   0  0  0  0  0  0  0  0  0  0  0  0
    0.8316   -1.4118   -0.3048 C   0  0  0  0  0  0  0  0  0  0  0  0
   -0.2294   -0.7626    0.6410 C   0  0  1  0  0  0  0  0  0  0  0  0
    0.3382    0.3296    1.5118 C   0  0  0  0  0  0  0  0  0  0  0  0
    0.0443    0.4924    2.6704 O   0  0  0  0  0  0  0  0  0  0  0  0
   -0.8880    1.9224   -0.5253 H   0  0  0  0  0  0  0  0  0  0  0  0
   -2.0777    1.3041   -1.6729 H   0  0  0  0  0  0  0  0  0  0  0  0
   -2.3976    1.2021    0.0651 H   0  0  0  0  0  0  0  0  0  0  0  0
   -1.6934   -1.0141   -0.9332 H   0  0  0  0  0  0  0  0  0  0  0  0
    0.2123   -0.9866   -2.4483 H   0  0  0  0  0  0  0  0  0  0  0  0
    1.9470    0.4844   -1.9105 H   0  0  0  0  0  0  0  0  0  0  0  0
    0.6232   -2.4710   -0.4735 H   0  0  0  0  0  0  0  0  0  0  0  0
    1.8839   -1.2978   -0.0275 H   0  0  0  0  0  0  0  0  0  0  0  0
   -0.8092   -1.4361    1.2749 H   0  0  0  0  0  0  0  0  0  0  0  0
    1.0704    0.9943    1.0041 H   0  0  0  0  0  0  0  0  0  0  0  0
  1  2  1  0  0  0  0
  1  9  1  0  0  0  0
  1 11  1  0  0  0  0
  2  3  1  6  0  0  0
  3 13  1  6  0  0  0
  3  5  1  0  0  0  0
  4  3  1  0  0  0  0
  5 16  1  0  0  0  0
  5  6  1  0  0  0  0
  6  2  1  6  0  0  0
  6 17  1  0  0  0  0
  6  7  1  0  0  0  0
  7  8  2  0  0  0  0
 10  1  1  0  0  0  0
 12  2  1  0  0  0  0
 14  4  1  0  0  0  0
 15  5  1  0  0  0  0
 18  7  1  0  0  0  0
M  END
