title
 OpenBabel02282109593D

 18 18  0  0  1  0  0  0  0  0999 V2000
   -0.3580    2.0552   -0.3736 C   0  0  0  0  0  0  0  0  0  0  0  0
   -1.1774    0.7772   -0.5215 C   0  0  1  0  0  0  0  0  0  0  0  0
   -0.6411   -0.2381   -1.5734 C   0  0  0  0  0  0  0  0  0  0  0  0
   -0.0989   -1.1550   -0.4105 C   0  0  1  0  0  0  0  0  0  0  0  0
    1.3918   -1.0654   -0.2914 C   0  0  0  0  0  0  0  0  0  0  0  0
    1.9995   -0.3069    0.4344 O   0  0  0  0  0  0  0  0  0  0  0  0
   -0.9427   -0.3025    0.5912 C   0  0  1  0  0  0  0  0  0  0  0  0
   -0.3922    0.0596    1.8216 O   0  0  0  0  0  0  0  0  0  0  0  0
    0.7108    1.8477   -0.2670 H   0  0  0  0  0  0  0  0  0  0  0  0
   -0.4888    2.6986   -1.2502 H   0  0  0  0  0  0  0  0  0  0  0  0
   -0.6763    2.6145    0.5111 H   0  0  0  0  0  0  0  0  0  0  0  0
   -2.2319    1.0365   -0.6549 H   0  0  0  0  0  0  0  0  0  0  0  0
   -1.4213   -0.7377   -2.1504 H   0  0  0  0  0  0  0  0  0  0  0  0
    0.1106    0.1466   -2.2682 H   0  0  0  0  0  0  0  0  0  0  0  0
   -0.3693   -2.2119   -0.5042 H   0  0  0  0  0  0  0  0  0  0  0  0
    1.9531   -1.7493   -0.9663 H   0  0  0  0  0  0  0  0  0  0  0  0
   -1.8808   -0.8223    0.8109 H   0  0  0  0  0  0  0  0  0  0  0  0
    0.5434    0.2538    1.6661 H   0  0  0  0  0  0  0  0  0  0  0  0
  1  9  1  0  0  0  0
  1 11  1  0  0  0  0
  2  1  1  0  0  0  0
  2  7  1  1  0  0  0
  3  2  1  0  0  0  0
  3  4  1  0  0  0  0
  4  5  1  0  0  0  0
  4  7  1  1  0  0  0
  5  6  2  0  0  0  0
  7 17  1  1  0  0  0
  7  8  1  0  0  0  0
 10  1  1  0  0  0  0
 12  2  1  0  0  0  0
 13  3  1  0  0  0  0
 14  3  1  0  0  0  0
 15  4  1  0  0  0  0
 16  5  1  0  0  0  0
 18  8  1  0  0  0  0
M  END
