title
 OpenBabel02282109593D

 14 14  0  0  1  0  0  0  0  0999 V2000
    0.4923    2.1869    1.5471 N   0  0  0  0  0  0  0  0  0  0  0  0
    0.4667    0.7597    1.3295 C   0  0  1  0  0  0  0  0  0  0  0  0
   -0.9364    0.0880    1.2240 C   0  0  0  0  0  0  0  0  0  0  0  0
   -0.5169   -0.4880   -0.0694 N   0  0  0  0  0  0  0  0  0  0  0  0
   -1.1806   -1.3366   -0.9371 C   0  0  0  0  0  0  0  0  0  0  0  0
   -0.7459   -1.7315   -1.9865 O   0  0  0  0  0  0  0  0  0  0  0  0
    0.7410    0.1656   -0.0838 C   0  0  0  0  0  0  0  0  0  0  0  0
    1.6057    0.2349   -0.9020 O   0  0  0  0  0  0  0  0  0  0  0  0
    1.4511    2.5101    1.6271 H   0  0  0  0  0  0  0  0  0  0  0  0
    0.0873    2.6797    0.7558 H   0  0  0  0  0  0  0  0  0  0  0  0
    1.0959    0.2725    2.0799 H   0  0  0  0  0  0  0  0  0  0  0  0
   -1.1718   -0.6544    1.9899 H   0  0  0  0  0  0  0  0  0  0  0  0
   -1.7553    0.8073    1.1349 H   0  0  0  0  0  0  0  0  0  0  0  0
   -2.1775   -1.6156   -0.5390 H   0  0  0  0  0  0  0  0  0  0  0  0
  1  9  1  0  0  0  0
  2  1  1  0  0  0  0
  2 11  1  1  0  0  0
  3  2  1  0  0  0  0
  3 12  1  0  0  0  0
  4  3  1  0  0  0  0
  5 14  1  0  0  0  0
  5  4  1  0  0  0  0
  6  5  2  0  0  0  0
  7  4  1  0  0  0  0
  7  2  1  0  0  0  0
  8  7  2  0  0  0  0
 10  1  1  0  0  0  0
 13  3  1  0  0  0  0
M  END
