14
title
O 0.91568226 1.4678785 1.8999549
C 0.5431934 0.18316846 1.4791509
C -0.98797625 0.035294496 1.2247721
N -0.6599297 -0.30316648 -0.17666571
C -1.4081649 -0.5858172 -1.2864164
O -0.93469423 -0.7772858 -2.3842623
C 0.7287806 -0.1085353 -0.0122669125
N 1.7377678 -0.1015159 -0.7615637
H 1.7964619 1.6398513 1.5464561
H 0.952408 -0.6023845 2.128184
H -1.4927173 -0.7648572 1.7702934
H -1.523668 0.98083293 1.3340042
H -2.492901 -0.6234029 -1.0686983
H 1.4799266 -0.29719898 -1.7302002
