title
 OpenBabel02282109593D

 19 19  0  0  1  0  0  0  0  0999 V2000
   -1.2240    2.4422   -0.3810 C   0  0  0  0  0  0  0  0  0  0  0  0
   -1.1741    0.9255   -0.3364 C   0  0  1  0  0  0  0  0  0  0  0  0
   -0.3364    0.1559   -1.3889 C   0  0  0  0  0  0  0  0  0  0  0  0
    0.1523   -0.7212   -0.1961 C   0  0  1  0  0  0  0  0  0  0  0  0
    1.6368   -1.0006   -0.1421 C   0  0  0  0  0  0  0  0  0  0  0  0
    2.1445   -2.0678   -0.3719 O   0  0  0  0  0  0  0  0  0  0  0  0
   -0.3144    0.3356    0.7144 N   0  0  0  0  0  0  0  0  0  0  0  0
   -0.9032   -0.0451    1.9806 C   0  0  0  0  0  0  0  0  0  0  0  0
   -0.2132    2.8580   -0.4301 H   0  0  0  0  0  0  0  0  0  0  0  0
   -1.7887    2.7847   -1.2550 H   0  0  0  0  0  0  0  0  0  0  0  0
   -1.7151    2.8464    0.5110 H   0  0  0  0  0  0  0  0  0  0  0  0
   -2.1990    0.5164   -0.2947 H   0  0  0  0  0  0  0  0  0  0  0  0
   -0.8651   -0.3627   -2.1876 H   0  0  0  0  0  0  0  0  0  0  0  0
    0.4633    0.7689   -1.8137 H   0  0  0  0  0  0  0  0  0  0  0  0
   -0.4022   -1.6695   -0.1265 H   0  0  0  0  0  0  0  0  0  0  0  0
    2.2404   -0.0978    0.1102 H   0  0  0  0  0  0  0  0  0  0  0  0
   -0.1502   -0.5274    2.6127 H   0  0  0  0  0  0  0  0  0  0  0  0
   -1.2570    0.8472    2.5072 H   0  0  0  0  0  0  0  0  0  0  0  0
   -1.7557   -0.7411    1.8710 H   0  0  0  0  0  0  0  0  0  0  0  0
  1  2  1  0  0  0  0
  1 11  1  0  0  0  0
  2 12  1  1  0  0  0
  2  7  1  0  0  0  0
  3  2  1  0  0  0  0
  3  4  1  0  0  0  0
  4  5  1  0  0  0  0
  4 15  1  1  0  0  0
  4  7  1  0  0  0  0
  5 16  1  0  0  0  0
  6  5  2  0  0  0  0
  7  8  1  0  0  0  0
  8 18  1  0  0  0  0
  8 17  1  0  0  0  0
  9  1  1  0  0  0  0
 10  1  1  0  0  0  0
 13  3  1  0  0  0  0
 14  3  1  0  0  0  0
 19  8  1  0  0  0  0
M  END
