19
title
C -0.76435083 2.3997355 1.4040868
N -0.56132185 0.96126044 1.5077368
C -0.40526867 0.28993994 0.4641086
O -0.38061404 0.6799857 -0.86607575
C -0.09802062 -0.69219315 -1.3076341
C 1.2022464 -0.7757597 -2.0769963
C -0.16360766 -1.1766896 0.17194128
C 1.0416155 -1.8320093 0.83514065
H -0.021720953 2.9117165 2.0259137
H -0.6973619 2.7901332 0.3817351
H -1.7495271 2.6546586 1.8111291
H -0.9329784 -1.0488496 -1.9195828
H 2.040504 -0.38868427 -1.4920514
H 1.4171803 -1.8141117 -2.3505216
H 1.1303942 -0.18979335 -2.9981174
H -1.061472 -1.7735543 0.3597716
H 1.95821 -1.2578094 0.6769274
H 0.8749601 -1.8946075 1.9139806
H 1.2001145 -2.8463345 0.45521736
