title
 OpenBabel02282109593D

 17 17  0  0  1  0  0  0  0  0999 V2000
    1.4476    2.3995    0.6282 C   0  0  0  0  0  0  0  0  0  0  0  0
    1.3909    0.9489    0.7561 N   0  0  0  0  0  0  0  0  0  0  0  0
    0.3209    0.3522    0.5019 C   0  0  0  0  0  0  0  0  0  0  0  0
   -0.9106    0.8060    0.0800 O   0  0  0  0  0  0  0  0  0  0  0  0
   -1.3767   -0.5750   -0.1711 C   0  0  1  0  0  0  0  0  0  0  0  0
   -1.6301   -0.8330   -1.6366 C   0  0  0  0  0  0  0  0  0  0  0  0
   -0.0486   -1.1132    0.4356 C   0  0  1  0  0  0  0  0  0  0  0  0
    0.7507   -1.9219   -0.3883 O   0  0  0  0  0  0  0  0  0  0  0  0
    2.3425    2.6721    0.0596 H   0  0  0  0  0  0  0  0  0  0  0  0
    0.5680    2.8361    0.1410 H   0  0  0  0  0  0  0  0  0  0  0  0
    1.5521    2.8462    1.6235 H   0  0  0  0  0  0  0  0  0  0  0  0
   -2.2623   -0.7656    0.4413 H   0  0  0  0  0  0  0  0  0  0  0  0
   -0.7213   -0.6777   -2.2217 H   0  0  0  0  0  0  0  0  0  0  0  0
   -1.9536   -1.8685   -1.7809 H   0  0  0  0  0  0  0  0  0  0  0  0
   -2.4157   -0.1688   -2.0079 H   0  0  0  0  0  0  0  0  0  0  0  0
   -0.1891   -1.5746    1.4215 H   0  0  0  0  0  0  0  0  0  0  0  0
    1.6271   -1.5203   -0.4073 H   0  0  0  0  0  0  0  0  0  0  0  0
  1  2  1  0  0  0  0
  1 11  1  0  0  0  0
  3  2  2  0  0  0  0
  4  3  1  0  0  0  0
  5  4  1  0  0  0  0
  5  7  1  1  0  0  0
  5 12  1  0  0  0  0
  6  5  1  0  0  0  0
  7  3  1  0  0  0  0
  7 16  1  1  0  0  0
  8  7  1  0  0  0  0
  9  1  1  0  0  0  0
 10  1  1  0  0  0  0
 13  6  1  0  0  0  0
 14  6  1  0  0  0  0
 15  6  1  0  0  0  0
 17  8  1  0  0  0  0
M  END
