title
 OpenBabel02282109593D

 18 18  0  0  1  0  0  0  0  0999 V2000
   -1.3699    2.3389    0.9852 C   0  0  0  0  0  0  0  0  0  0  0  0
   -1.3922    0.8861    0.8767 N   0  0  0  0  0  0  0  0  0  0  0  0
   -0.6093    0.3220    0.0804 C   0  0  0  0  0  0  0  0  0  0  0  0
    0.3514    0.8454   -0.7709 O   0  0  0  0  0  0  0  0  0  0  0  0
    0.8551   -0.4935   -1.1087 C   0  0  1  0  0  0  0  0  0  0  0  0
    2.2748   -0.7080   -0.6345 C   0  0  0  0  0  0  0  0  0  0  0  0
   -0.2982   -1.1278   -0.2739 C   0  0  1  0  0  0  0  0  0  0  0  0
    0.0362   -2.1002    0.7431 N   0  0  0  0  0  0  0  0  0  0  0  0
   -0.5282    2.8118    0.4655 H   0  0  0  0  0  0  0  0  0  0  0  0
   -2.3022    2.7472    0.5780 H   0  0  0  0  0  0  0  0  0  0  0  0
   -1.3360    2.6176    2.0438 H   0  0  0  0  0  0  0  0  0  0  0  0
    0.7703   -0.6483   -2.1885 H   0  0  0  0  0  0  0  0  0  0  0  0
    2.3738   -0.4992    0.4348 H   0  0  0  0  0  0  0  0  0  0  0  0
    2.5725   -1.7459   -0.8093 H   0  0  0  0  0  0  0  0  0  0  0  0
    2.9609   -0.0496   -1.1749 H   0  0  0  0  0  0  0  0  0  0  0  0
   -1.0684   -1.5537   -0.9229 H   0  0  0  0  0  0  0  0  0  0  0  0
    0.4751   -1.6469    1.5386 H   0  0  0  0  0  0  0  0  0  0  0  0
   -0.8107   -2.5307    1.0983 H   0  0  0  0  0  0  0  0  0  0  0  0
  1 11  1  0  0  0  0
  2  1  1  0  0  0  0
  3  2  2  0  0  0  0
  4  3  1  0  0  0  0
  5  4  1  0  0  0  0
  5  6  1  0  0  0  0
  5  7  1  1  0  0  0
  6 13  1  0  0  0  0
  7 16  1  6  0  0  0
  7  3  1  0  0  0  0
  7  8  1  0  0  0  0
  8 18  1  0  0  0  0
  8 17  1  0  0  0  0
  9  1  1  0  0  0  0
 10  1  1  0  0  0  0
 12  5  1  0  0  0  0
 14  6  1  0  0  0  0
 15  6  1  0  0  0  0
M  END
