title
 OpenBabel02282109593D

 18 18  0  0  1  0  0  0  0  0999 V2000
   -0.3002    2.3754   -1.5673 C   0  0  0  0  0  0  0  0  0  0  0  0
   -0.2084    0.9234   -1.5604 N   0  0  0  0  0  0  0  0  0  0  0  0
    0.2875    0.3600   -0.5447 C   0  0  0  0  0  0  0  0  0  0  0  0
    0.8142    0.7346    0.6845 N   0  0  0  0  0  0  0  0  0  0  0  0
    0.6456   -0.6168    1.2783 C   0  0  1  0  0  0  0  0  0  0  0  0
   -0.5107   -0.7680    2.2521 C   0  0  0  0  0  0  0  0  0  0  0  0
    0.3615   -1.1188   -0.1871 C   0  0  1  0  0  0  0  0  0  0  0  0
   -0.8155   -1.8475   -0.4063 O   0  0  0  0  0  0  0  0  0  0  0  0
    0.6447    2.8273   -1.8975 H   0  0  0  0  0  0  0  0  0  0  0  0
   -1.0755    2.6881   -2.2723 H   0  0  0  0  0  0  0  0  0  0  0  0
   -0.5469    2.8059   -0.5832 H   0  0  0  0  0  0  0  0  0  0  0  0
    0.6686    1.6154    1.1589 H   0  0  0  0  0  0  0  0  0  0  0  0
    1.5768   -0.9925    1.7148 H   0  0  0  0  0  0  0  0  0  0  0  0
   -1.4512   -0.4443    1.7990 H   0  0  0  0  0  0  0  0  0  0  0  0
   -0.6238   -1.8161    2.5448 H   0  0  0  0  0  0  0  0  0  0  0  0
   -0.3337   -0.1798    3.1590 H   0  0  0  0  0  0  0  0  0  0  0  0
    1.2267   -1.6361   -0.6198 H   0  0  0  0  0  0  0  0  0  0  0  0
   -1.3242   -1.3451   -1.0552 H   0  0  0  0  0  0  0  0  0  0  0  0
  1  2  1  0  0  0  0
  1 11  1  0  0  0  0
  2  3  2  0  0  0  0
  3  7  1  0  0  0  0
  3  4  1  0  0  0  0
  4 12  1  0  0  0  0
  4  5  1  0  0  0  0
  5  7  1  6  0  0  0
  5 13  1  0  0  0  0
  5  6  1  0  0  0  0
  6 15  1  0  0  0  0
  6 16  1  0  0  0  0
  7 17  1  6  0  0  0
  8  7  1  0  0  0  0
  9  1  1  0  0  0  0
 10  1  1  0  0  0  0
 14  6  1  0  0  0  0
 18  8  1  0  0  0  0
M  END
