18
title
C -0.30017772 2.3753676 -1.5672773
N -0.20836996 0.92337716 -1.5603939
C 0.28747934 0.36003456 -0.54465604
N 0.8142347 0.73458064 0.6844514
C 0.64557236 -0.61684567 1.2782615
C -0.51071775 -0.7680095 2.2520728
C 0.36146224 -1.1188167 -0.18709615
O -0.8154708 -1.8474506 -0.4062777
H 0.64471966 2.8273466 -1.8974726
H -1.0754557 2.6881065 -2.2722554
H -0.54694796 2.8058815 -0.58322215
H 0.6686118 1.6153948 1.1589357
H 1.5768466 -0.99247974 1.7147561
H -1.4512151 -0.4442921 1.7990261
H -0.6237791 -1.816069 2.544809
H -0.33373484 -0.17983916 3.1590455
H 1.226665 -1.6360694 -0.61981535
H -1.3241736 -1.3451291 -1.0552313
