19
title
C -2.0794106 1.6171261 -0.50552195
C -1.4565996 0.22902429 -0.46690175
C -0.13318124 0.038725127 -1.2685465
N 0.52797675 -0.34308365 -0.02206353
C 1.7070148 -0.97878575 0.15225285
O 2.520302 -1.1790179 -0.72812366
C -0.67067736 -0.21210599 0.8243554
C -0.54339486 0.76137775 1.9889598
H -1.3492455 2.400215 -0.2790466
H -2.4815035 1.8220673 -1.503359
H -2.904872 1.7082772 0.20802921
H -2.2074494 -0.5165694 -0.7387421
H -0.1329774 -0.756157 -2.0210693
H 0.27451035 0.9492496 -1.72198
H 1.8579347 -1.2950267 1.2057676
H -1.0158571 -1.1834474 1.2017657
H -0.16815868 1.7345363 1.6619313
H -1.5136641 0.9062127 2.4755511
H 0.14945897 0.3698624 2.7404652
