title
 OpenBabel02282109593D

 18 18  0  0  1  0  0  0  0  0999 V2000
   -1.5799    1.4320    0.7977 C   0  0  0  0  0  0  0  0  0  0  0  0
   -1.0085    0.0234    0.6950 C   0  0  1  0  0  0  0  0  0  0  0  0
   -0.4072   -0.5662   -0.6321 C   0  0  1  0  0  0  0  0  0  0  0  0
    0.0526    0.4707   -1.6424 C   0  0  0  0  0  0  0  0  0  0  0  0
    0.7602   -0.2171   -2.6630 O   0  0  0  0  0  0  0  0  0  0  0  0
    0.7767   -1.1787    0.1797 C   0  0  0  0  0  0  0  0  0  0  0  0
    0.3484   -0.2856    1.3536 C   0  0  0  0  0  0  0  0  0  0  0  0
    0.8918    0.1203    2.3405 O   0  0  0  0  0  0  0  0  0  0  0  0
   -0.8892    2.1823    0.4020 H   0  0  0  0  0  0  0  0  0  0  0  0
   -2.5276    1.5221    0.2575 H   0  0  0  0  0  0  0  0  0  0  0  0
   -1.7641    1.6798    1.8473 H   0  0  0  0  0  0  0  0  0  0  0  0
   -1.7336   -0.6984    1.0945 H   0  0  0  0  0  0  0  0  0  0  0  0
   -1.0433   -1.2955   -1.1375 H   0  0  0  0  0  0  0  0  0  0  0  0
   -0.8162    1.0103   -2.0509 H   0  0  0  0  0  0  0  0  0  0  0  0
    0.6979    1.2167   -1.1486 H   0  0  0  0  0  0  0  0  0  0  0  0
    1.0879    0.4313   -3.2930 H   0  0  0  0  0  0  0  0  0  0  0  0
    0.6474   -2.2409    0.4102 H   0  0  0  0  0  0  0  0  0  0  0  0
    1.7833   -1.0276   -0.2166 H   0  0  0  0  0  0  0  0  0  0  0  0
  1 11  1  0  0  0  0
  2  3  1  6  0  0  0
  2  1  1  0  0  0  0
  2 12  1  0  0  0  0
  2  7  1  0  0  0  0
  3 13  1  6  0  0  0
  3  6  1  0  0  0  0
  4 15  1  0  0  0  0
  4  3  1  0  0  0  0
  5  4  1  0  0  0  0
  6 17  1  0  0  0  0
  6  7  1  0  0  0  0
  7  8  2  0  0  0  0
  9  1  1  0  0  0  0
 10  1  1  0  0  0  0
 14  4  1  0  0  0  0
 16  5  1  0  0  0  0
 18  6  1  0  0  0  0
M  END
