18
title
C 1.4721723 2.5715876 0.14265391
C 1.2571398 1.0611819 0.27203897
C -0.16916843 0.6870486 0.6690771
C -1.2069708 0.7559256 -0.50395423
C -0.96059734 -0.7478755 -0.6715959
O -0.87722784 -1.4882346 -1.612557
C -0.41130218 -0.8732895 0.74809927
O 0.6375414 -1.7642623 0.9752529
H 2.5047898 2.7994864 -0.13847798
H 0.8173429 3.0097687 -0.61832637
H 1.2640338 3.0817692 1.08964
H 1.5144099 0.5698229 -0.67647654
H 1.9439385 0.6461517 1.017838
H -0.4696605 1.2205508 1.5739447
H -2.2232368 0.9796443 -0.16774213
H -0.9693416 1.3769667 -1.369965
H -1.2238826 -1.0693706 1.4611505
H 0.8690549 -2.1547158 0.123232484
