19
title
C 1.5472078 2.3148746 -0.85906625
C 1.4904561 0.79484004 -1.0439309
C 0.094760574 0.19719046 -0.89224845
C -0.021111926 -1.3551805 -0.9661254
C -0.623601 -1.2660227 0.45130157
O -1.1021377 -2.0275984 1.252265
N -0.44124898 0.0956751 0.48009276
C -0.93327767 1.066643 1.424983
H 2.5599754 2.6924257 -1.0285385
H 0.8810102 2.8239033 -1.5645134
H 1.2502028 2.611872 0.15121424
H 1.8522624 0.5388531 -2.0481932
H 2.1637223 0.3001074 -0.3327844
H -0.6080819 0.7092664 -1.5652964
H -0.70623 -1.745501 -1.7206812
H 0.9307023 -1.8877602 -1.0231624
H -1.4813753 0.519947 2.1969242
H -0.12474569 1.6292467 1.905112
H -1.614894 1.77987 0.9447272
