title
 OpenBabel02282109593D

 17 17  0  0  1  0  0  0  0  0999 V2000
    1.2058    2.7147    0.3282 C   0  0  0  0  0  0  0  0  0  0  0  0
    1.1873    1.2165    0.6453 C   0  0  0  0  0  0  0  0  0  0  0  0
   -0.2177    0.6289    0.6544 C   0  0  1  0  0  0  0  0  0  0  0  0
   -0.8932    0.5588   -0.6589 N   0  0  0  0  0  0  0  0  0  0  0  0
   -0.8807   -0.8055   -0.7590 C   0  0  0  0  0  0  0  0  0  0  0  0
   -1.1485   -1.5859   -1.6361 O   0  0  0  0  0  0  0  0  0  0  0  0
   -0.3201   -0.9351    0.6795 C   0  0  1  0  0  0  0  0  0  0  0  0
    0.8892   -1.6358    0.8044 O   0  0  0  0  0  0  0  0  0  0  0  0
    2.2264    3.1076    0.3519 H   0  0  0  0  0  0  0  0  0  0  0  0
    0.8012    2.9183   -0.6697 H   0  0  0  0  0  0  0  0  0  0  0  0
    0.6120    3.2853    1.0510 H   0  0  0  0  0  0  0  0  0  0  0  0
    1.7989    0.6639   -0.0744 H   0  0  0  0  0  0  0  0  0  0  0  0
    1.6329    1.0362    1.6307 H   0  0  0  0  0  0  0  0  0  0  0  0
   -0.8376    1.1212    1.4132 H   0  0  0  0  0  0  0  0  0  0  0  0
   -1.1315    1.2710   -1.3341 H   0  0  0  0  0  0  0  0  0  0  0  0
   -1.0706   -1.2951    1.3958 H   0  0  0  0  0  0  0  0  0  0  0  0
    0.8809   -2.3367    0.1422 H   0  0  0  0  0  0  0  0  0  0  0  0
  1  9  1  0  0  0  0
  1  2  1  0  0  0  0
  1 11  1  0  0  0  0
  2  3  1  0  0  0  0
  2 13  1  0  0  0  0
  3  7  1  1  0  0  0
  3 14  1  0  0  0  0
  4  3  1  0  0  0  0
  5  4  1  0  0  0  0
  5  7  1  0  0  0  0
  6  5  2  0  0  0  0
  7  8  1  0  0  0  0
  7 16  1  1  0  0  0
 10  1  1  0  0  0  0
 12  2  1  0  0  0  0
 15  4  1  0  0  0  0
 17  8  1  0  0  0  0
M  END
