19
title
C 1.2532511 2.6638727 0.22400108
C 1.3731022 1.142209 0.35820112
C 0.05170185 0.4911519 0.7163622
O -0.939449 0.6390633 -0.3652988
C -1.0642821 -0.7269136 -0.49716026
N -1.7394494 -1.4122257 -1.3019952
C -0.109986715 -1.0546813 0.63471276
C 1.075555 -1.9572794 0.31555772
H 2.2118979 3.1100495 -0.05527909
H 0.51885706 2.9244342 -0.5432986
H 0.93188745 3.1213841 1.1660763
H 1.7457654 0.71504974 -0.5791497
H 2.1030576 0.8853922 1.1367123
H -0.35795134 0.92962986 1.6331097
H -2.2686355 -0.8184712 -1.9431226
H -0.65165275 -1.4457979 1.5013881
H 1.6341345 -1.6081395 -0.5566
H 1.76432 -2.0200977 1.1638416
H 0.7157857 -2.9658372 0.09427868
