title
 OpenBabel02282109593D

 18 18  0  0  1  0  0  0  0  0999 V2000
   -0.8924    2.6049    1.0413 C   0  0  0  0  0  0  0  0  0  0  0  0
   -0.9846    1.0761    1.0310 C   0  0  0  0  0  0  0  0  0  0  0  0
   -0.6637    0.4844   -0.3264 C   0  0  1  0  0  0  0  0  0  0  0  0
    0.7492    0.6837   -0.7000 O   0  0  0  0  0  0  0  0  0  0  0  0
    1.0016   -0.6707   -0.6741 C   0  0  0  0  0  0  0  0  0  0  0  0
    2.0768   -1.3094   -0.7741 N   0  0  0  0  0  0  0  0  0  0  0  0
   -0.4557   -1.0550   -0.4312 C   0  0  1  0  0  0  0  0  0  0  0  0
   -0.8456   -1.8895    0.6826 N   0  0  0  0  0  0  0  0  0  0  0  0
    0.1100    2.9331    0.7515 H   0  0  0  0  0  0  0  0  0  0  0  0
   -1.6068    3.0494    0.3398 H   0  0  0  0  0  0  0  0  0  0  0  0
   -1.1078    3.0045    2.0363 H   0  0  0  0  0  0  0  0  0  0  0  0
   -0.3004    0.6577    1.7791 H   0  0  0  0  0  0  0  0  0  0  0  0
   -1.9913    0.7438    1.3101 H   0  0  0  0  0  0  0  0  0  0  0  0
   -1.3033    0.9143   -1.1044 H   0  0  0  0  0  0  0  0  0  0  0  0
    2.8740   -0.6828   -0.9004 H   0  0  0  0  0  0  0  0  0  0  0  0
   -0.9122   -1.4527   -1.3417 H   0  0  0  0  0  0  0  0  0  0  0  0
   -0.7872   -2.8666    0.4170 H   0  0  0  0  0  0  0  0  0  0  0  0
   -0.2052   -1.7702    1.4611 H   0  0  0  0  0  0  0  0  0  0  0  0
  1 11  1  0  0  0  0
  2  1  1  0  0  0  0
  2 13  1  0  0  0  0
  2 12  1  0  0  0  0
  3  7  1  1  0  0  0
  3  2  1  0  0  0  0
  4  5  1  0  0  0  0
  4  3  1  0  0  0  0
  5  7  1  0  0  0  0
  6  5  2  0  0  0  0
  7 16  1  6  0  0  0
  7  8  1  0  0  0  0
  8 18  1  0  0  0  0
  9  1  1  0  0  0  0
 10  1  1  0  0  0  0
 14  3  1  0  0  0  0
 15  6  1  0  0  0  0
 17  8  1  0  0  0  0
M  END
