16
title
C -1.2677698 1.6999099 0.85992515
C -1.0565412 0.20327932 0.6571719
C -0.46005264 -0.37132484 -0.652171
C 0.11862084 0.555128 -1.7036939
O 0.8815003 -0.16984174 -2.6465788
O 0.6384718 -0.9841487 0.12225337
C 0.1825405 -0.43180603 1.2965865
O 0.6835796 -0.49743778 2.3716395
H -0.38404527 2.2831755 0.5892498
H -2.1128576 2.0605628 0.26622882
H -1.4857825 1.8982068 1.9129251
H -1.9533328 -0.34649462 0.9593077
H -1.0460491 -1.1625158 -1.1266667
H -0.69302964 1.0399022 -2.2569814
H 0.71576506 1.3432536 -1.2213072
H 1.5735346 -0.62724406 -2.1545396
