title
 OpenBabel02282109593D

 17 17  0  0  1  0  0  0  0  0999 V2000
    1.3243    2.6054    0.1227 C   0  0  0  0  0  0  0  0  0  0  0  0
    1.3646    1.0938    0.3639 C   0  0  0  0  0  0  0  0  0  0  0  0
    0.0127    0.5297    0.7430 C   0  0  1  0  0  0  0  0  0  0  0  0
   -0.9805    0.6750   -0.3502 O   0  0  0  0  0  0  0  0  0  0  0  0
   -1.0627   -0.6839   -0.5103 C   0  0  0  0  0  0  0  0  0  0  0  0
   -1.6171   -1.3981   -1.3801 N   0  0  0  0  0  0  0  0  0  0  0  0
   -0.1766   -1.0104    0.6747 C   0  0  1  0  0  0  0  0  0  0  0  0
    0.9668   -1.7804    0.4109 O   0  0  0  0  0  0  0  0  0  0  0  0
    2.3104    2.9800   -0.1660 H   0  0  0  0  0  0  0  0  0  0  0  0
    0.6195    2.8508   -0.6769 H   0  0  0  0  0  0  0  0  0  0  0  0
    1.0113    3.1455    1.0230 H   0  0  0  0  0  0  0  0  0  0  0  0
    1.7303    0.5682   -0.5236 H   0  0  0  0  0  0  0  0  0  0  0  0
    2.0633    0.8501    1.1737 H   0  0  0  0  0  0  0  0  0  0  0  0
   -0.3891    0.9990    1.6460 H   0  0  0  0  0  0  0  0  0  0  0  0
   -2.0919   -0.8381   -2.0901 H   0  0  0  0  0  0  0  0  0  0  0  0
   -0.7349   -1.4080    1.5323 H   0  0  0  0  0  0  0  0  0  0  0  0
    0.7454   -2.3750   -0.3151 H   0  0  0  0  0  0  0  0  0  0  0  0
  1  2  1  0  0  0  0
  1 11  1  0  0  0  0
  2  3  1  0  0  0  0
  2 13  1  0  0  0  0
  3  7  1  1  0  0  0
  3 14  1  0  0  0  0
  4  3  1  0  0  0  0
  5  4  1  0  0  0  0
  5  7  1  0  0  0  0
  6  5  2  0  0  0  0
  7 16  1  1  0  0  0
  8  7  1  0  0  0  0
  9  1  1  0  0  0  0
 10  1  1  0  0  0  0
 12  2  1  0  0  0  0
 15  6  1  0  0  0  0
 17  8  1  0  0  0  0
M  END
