title
 OpenBabel02282109593D

 16 16  0  0  1  0  0  0  0  0999 V2000
    0.7238    2.6262   -0.1615 C   0  0  0  0  0  0  0  0  0  0  0  0
    0.6015    1.3138    0.3461 O   0  0  0  0  0  0  0  0  0  0  0  0
   -0.6617    0.7218    0.1425 C   0  0  1  0  0  0  0  0  0  0  0  0
   -0.8154    0.1076   -1.2790 C   0  0  0  0  0  0  0  0  0  0  0  0
   -0.2278   -1.1981   -0.6910 C   0  0  0  0  0  0  0  0  0  0  0  0
    0.3685   -2.1231   -1.1522 O   0  0  0  0  0  0  0  0  0  0  0  0
   -0.5569   -0.7158    0.7511 C   0  0  1  0  0  0  0  0  0  0  0  0
    0.2942   -0.9393    1.8216 O   0  0  0  0  0  0  0  0  0  0  0  0
    1.7282    2.9752    0.0875 H   0  0  0  0  0  0  0  0  0  0  0  0
    0.5966    2.6598   -1.2526 H   0  0  0  0  0  0  0  0  0  0  0  0
   -0.0151    3.3002    0.2961 H   0  0  0  0  0  0  0  0  0  0  0  0
   -1.4685    1.3704    0.5032 H   0  0  0  0  0  0  0  0  0  0  0  0
   -1.8578   -0.0073   -1.5926 H   0  0  0  0  0  0  0  0  0  0  0  0
   -0.2449    0.5688   -2.0871 H   0  0  0  0  0  0  0  0  0  0  0  0
   -1.5552   -1.0849    1.0181 H   0  0  0  0  0  0  0  0  0  0  0  0
    1.0784   -0.3985    1.6612 H   0  0  0  0  0  0  0  0  0  0  0  0
  1  9  1  0  0  0  0
  1 11  1  0  0  0  0
  1  2  1  0  0  0  0
  3  2  1  0  0  0  0
  3 12  1  0  0  0  0
  3  7  1  1  0  0  0
  4  5  1  0  0  0  0
  4  3  1  0  0  0  0
  5  7  1  0  0  0  0
  6  5  2  0  0  0  0
  7 15  1  1  0  0  0
  7  8  1  0  0  0  0
 10  1  1  0  0  0  0
 13  4  1  0  0  0  0
 14  4  1  0  0  0  0
 16  8  1  0  0  0  0
M  END
