16
title
N 1.2488697 1.6590546 0.73364925
C 1.0920705 0.23062113 0.57757866
C -0.32285142 -0.39397052 0.73406386
C -1.5271103 0.52400947 0.690942
O -2.7173085 -0.2120094 0.48661283
O -0.15525472 -1.0702221 -0.5666963
C 1.0431975 -0.42265072 -0.80229056
N 1.7672924 -0.3793328 -1.8241307
H 2.2318149 1.8937509 0.8144112
H 0.9057914 2.1514988 -0.08477275
H 1.8129957 -0.27611077 1.2242181
H -0.437896 -1.1434523 1.5214525
H -1.6258152 1.0433552 1.6487621
H -1.3882966 1.2896546 -0.08845733
H -2.5938158 -0.7194065 -0.32408696
H 1.3769132 -0.9318224 -2.5896056
