18
title
C -0.89435583 2.6271174 1.0271187
C -1.0398786 1.1018058 1.0272417
C -0.6626077 0.48715624 -0.3061083
O 0.77273923 0.66992563 -0.601814
C 0.9852733 -0.68277013 -0.6688526
O 2.0154777 -1.2493776 -0.8484804
C -0.48288977 -1.049203 -0.4341938
C -0.79344475 -1.9903494 0.7235535
H 0.13530095 2.9146621 0.79719675
H -1.547729 3.0878115 0.27824593
H -1.1562083 3.045213 2.0030732
H -0.41414076 0.6692577 1.8155689
H -2.0760026 0.81828105 1.2525253
H -1.2453982 0.93263274 -1.1188807
H -0.92739385 -1.4316436 -1.3584788
H -0.34661865 -1.6514465 1.6616517
H -1.873021 -2.0871491 0.87308884
H -0.39211822 -2.983988 0.5054283
