17
title
C 1.3243124 2.605404 0.12268327
C 1.3645896 1.093776 0.3639437
C 0.012700089 0.52967733 0.7430024
O -0.9805039 0.6749518 -0.35022488
C -1.0627264 -0.68390363 -0.51030385
N -1.6170715 -1.3980904 -1.3801055
C -0.17663537 -1.0104408 0.6747137
O 0.96680766 -1.7803748 0.41092137
H 2.3103917 2.9799664 -0.16597451
H 0.6195257 2.8507812 -0.6769052
H 1.011328 3.1455085 1.023024
H 1.730328 0.5682183 -0.5236104
H 2.0633428 0.85012335 1.1737391
H -0.38910806 0.99896616 1.6460319
H -2.0918736 -0.8381011 -2.090067
H -0.7349485 -1.4079635 1.5323018
H 0.7453758 -2.3749976 -0.31511787
