title
 OpenBabel02282109593D

 18 18  0  0  1  0  0  0  0  0999 V2000
   -0.1739    2.7068    0.6437 C   0  0  0  0  0  0  0  0  0  0  0  0
   -0.6322    1.4022    0.3667 O   0  0  0  0  0  0  0  0  0  0  0  0
    0.1365    0.7270   -0.5969 C   0  0  1  0  0  0  0  0  0  0  0  0
    1.4609    0.1202   -0.0249 C   0  0  0  0  0  0  0  0  0  0  0  0
    0.7231   -1.2292    0.0535 C   0  0  0  0  0  0  0  0  0  0  0  0
    0.9248   -2.2557    0.6332 O   0  0  0  0  0  0  0  0  0  0  0  0
   -0.4364   -0.7101   -0.8158 C   0  0  1  0  0  0  0  0  0  0  0  0
   -1.8688   -1.0433   -0.4260 C   0  0  0  0  0  0  0  0  0  0  0  0
    0.8444    2.7098    1.0598 H   0  0  0  0  0  0  0  0  0  0  0  0
   -0.1774    3.3350   -0.2606 H   0  0  0  0  0  0  0  0  0  0  0  0
   -0.8556    3.1392    1.3796 H   0  0  0  0  0  0  0  0  0  0  0  0
    0.2481    1.3404   -1.5009 H   0  0  0  0  0  0  0  0  0  0  0  0
    2.2892    0.0981   -0.7403 H   0  0  0  0  0  0  0  0  0  0  0  0
    1.8192    0.5275    0.9235 H   0  0  0  0  0  0  0  0  0  0  0  0
   -0.2339   -1.0160   -1.8512 H   0  0  0  0  0  0  0  0  0  0  0  0
   -2.0962   -0.6628    0.5714 H   0  0  0  0  0  0  0  0  0  0  0  0
   -2.5836   -0.6046   -1.1285 H   0  0  0  0  0  0  0  0  0  0  0  0
   -2.0092   -2.1281   -0.4247 H   0  0  0  0  0  0  0  0  0  0  0  0
  1  9  1  0  0  0  0
  1 11  1  0  0  0  0
  2  1  1  0  0  0  0
  3  7  1  6  0  0  0
  3  4  1  0  0  0  0
  3  2  1  0  0  0  0
  4  5  1  0  0  0  0
  4 14  1  0  0  0  0
  5  6  2  0  0  0  0
  7 15  1  6  0  0  0
  7  8  1  0  0  0  0
  7  5  1  0  0  0  0
  8 18  1  0  0  0  0
  8 16  1  0  0  0  0
 10  1  1  0  0  0  0
 12  3  1  0  0  0  0
 13  4  1  0  0  0  0
 17  8  1  0  0  0  0
M  END
