title
 OpenBabel02282109593D

 19 19  0  0  1  0  0  0  0  0999 V2000
   -0.4736    2.4993    1.6898 C   0  0  0  0  0  0  0  0  0  0  0  0
   -0.5660    0.9800    1.5726 C   0  0  0  0  0  0  0  0  0  0  0  0
    0.1371    0.4837    0.4025 N   0  0  0  0  0  0  0  0  0  0  0  0
   -0.4628    0.7448   -0.9273 C   0  0  0  0  0  0  0  0  0  0  0  0
   -0.1430   -0.7125   -1.2863 C   0  0  0  0  0  0  0  0  0  0  0  0
   -0.1061   -1.3558   -2.2915 O   0  0  0  0  0  0  0  0  0  0  0  0
    0.1696   -0.9884    0.1935 C   0  0  1  0  0  0  0  0  0  0  0  0
    1.4569   -1.7103    0.5567 C   0  0  0  0  0  0  0  0  0  0  0  0
    0.5716    2.8178    1.7368 H   0  0  0  0  0  0  0  0  0  0  0  0
   -0.9388    2.9915    0.8291 H   0  0  0  0  0  0  0  0  0  0  0  0
   -0.9879    2.8485    2.5902 H   0  0  0  0  0  0  0  0  0  0  0  0
   -0.1119    0.5148    2.4557 H   0  0  0  0  0  0  0  0  0  0  0  0
   -1.6313    0.6709    1.5636 H   0  0  0  0  0  0  0  0  0  0  0  0
   -1.5526    0.9202   -0.9100 H   0  0  0  0  0  0  0  0  0  0  0  0
    0.0131    1.5302   -1.5229 H   0  0  0  0  0  0  0  0  0  0  0  0
   -0.6994   -1.4956    0.6530 H   0  0  0  0  0  0  0  0  0  0  0  0
    2.3168   -1.2149    0.0985 H   0  0  0  0  0  0  0  0  0  0  0  0
    1.6055   -1.7244    1.6411 H   0  0  0  0  0  0  0  0  0  0  0  0
    1.4183   -2.7456    0.2042 H   0  0  0  0  0  0  0  0  0  0  0  0
  1  9  1  0  0  0  0
  1 11  1  0  0  0  0
  2  1  1  0  0  0  0
  2 12  1  0  0  0  0
  3  2  1  0  0  0  0
  4 14  1  0  0  0  0
  4  3  1  0  0  0  0
  5  4  1  0  0  0  0
  5  7  1  0  0  0  0
  6  5  2  0  0  0  0
  7  3  1  0  0  0  0
  7  8  1  0  0  0  0
  7 16  1  1  0  0  0
  8 18  1  0  0  0  0
 10  1  1  0  0  0  0
 13  2  1  0  0  0  0
 15  4  1  0  0  0  0
 17  8  1  0  0  0  0
 19  8  1  0  0  0  0
M  END
