title
 OpenBabel02282109593D

 17 17  0  0  1  0  0  0  0  0999 V2000
    0.3032    1.9352    0.4124 C   0  0  0  0  0  0  0  0  0  0  0  0
    0.3540    0.5052    0.2385 N   0  0  0  0  0  0  0  0  0  0  0  0
   -0.6758   -0.5471    0.3144 C   0  0  1  0  0  0  0  0  0  0  0  0
   -1.6491   -0.5938   -0.8552 C   0  0  0  0  0  0  0  0  0  0  0  0
   -2.5479    0.5047   -0.8578 O   0  0  0  0  0  0  0  0  0  0  0  0
    0.4862   -1.5833    0.3046 C   0  0  0  0  0  0  0  0  0  0  0  0
    1.4257   -0.3564    0.2894 C   0  0  0  0  0  0  0  0  0  0  0  0
    2.6118   -0.1587    0.3306 O   0  0  0  0  0  0  0  0  0  0  0  0
    1.3246    2.2826    0.5882 H   0  0  0  0  0  0  0  0  0  0  0  0
   -0.0846    2.4549   -0.4730 H   0  0  0  0  0  0  0  0  0  0  0  0
   -0.3199    2.2064    1.2728 H   0  0  0  0  0  0  0  0  0  0  0  0
   -1.2377   -0.5108    1.2563 H   0  0  0  0  0  0  0  0  0  0  0  0
   -1.0869   -0.6616   -1.7990 H   0  0  0  0  0  0  0  0  0  0  0  0
   -2.2668   -1.4951   -0.7701 H   0  0  0  0  0  0  0  0  0  0  0  0
   -2.0738    1.2768   -1.1797 H   0  0  0  0  0  0  0  0  0  0  0  0
    0.5734   -2.2038    1.1976 H   0  0  0  0  0  0  0  0  0  0  0  0
    0.5457   -2.2122   -0.5867 H   0  0  0  0  0  0  0  0  0  0  0  0
  1  9  1  0  0  0  0
  1 11  1  0  0  0  0
  2  7  1  0  0  0  0
  2  3  1  0  0  0  0
  2  1  1  0  0  0  0
  3 12  1  1  0  0  0
  4 14  1  0  0  0  0
  4  3  1  0  0  0  0
  5  4  1  0  0  0  0
  6  3  1  0  0  0  0
  6 16  1  0  0  0  0
  7  6  1  0  0  0  0
  7  8  2  0  0  0  0
 10  1  1  0  0  0  0
 13  4  1  0  0  0  0
 15  5  1  0  0  0  0
 17  6  1  0  0  0  0
M  END
