14
title
O 1.3457137 2.4185863 0.14322305
C 1.3879442 1.0230616 0.36261564
C 0.01927212 0.4984548 0.7514604
O -0.9329316 0.6883605 -0.36869407
C -1.0795226 -0.66375434 -0.54214346
O -1.670948 -1.2391818 -1.3970652
C -0.22172388 -1.0229149 0.6863743
O 0.9254414 -1.7976508 0.46683216
H 0.7214002 2.573136 -0.57509315
H 1.757283 0.47388846 -0.51368535
H 2.0896308 0.8471374 1.1839817
H -0.3662456 1.0077615 1.6368039
H -0.83329934 -1.4013743 1.5168488
H 0.6495398 -2.645496 0.10093171
