title
 OpenBabel02282109593D

 16 16  0  0  1  0  0  0  0  0999 V2000
   -0.8651    2.2363   -0.5641 C   0  0  0  0  0  0  0  0  0  0  0  0
   -1.2291    0.7842   -0.3152 C   0  0  1  0  0  0  0  0  0  0  0  0
   -0.4531   -0.1678   -1.0947 O   0  0  0  0  0  0  0  0  0  0  0  0
    0.0535   -0.8731    0.0702 C   0  0  1  0  0  0  0  0  0  0  0  0
    1.5776   -0.8541    0.1029 C   0  0  0  0  0  0  0  0  0  0  0  0
    2.1005   -1.4664   -1.0569 O   0  0  0  0  0  0  0  0  0  0  0  0
   -0.7046    0.1151    0.9653 C   0  0  0  0  0  0  0  0  0  0  0  0
   -0.8089    0.3082    2.1379 O   0  0  0  0  0  0  0  0  0  0  0  0
    0.2003    2.4118   -0.3919 H   0  0  0  0  0  0  0  0  0  0  0  0
   -1.1009    2.5137   -1.5956 H   0  0  0  0  0  0  0  0  0  0  0  0
   -1.4395    2.8808    0.1083 H   0  0  0  0  0  0  0  0  0  0  0  0
   -2.3058    0.6197   -0.4633 H   0  0  0  0  0  0  0  0  0  0  0  0
   -0.3180   -1.9056    0.1061 H   0  0  0  0  0  0  0  0  0  0  0  0
    1.9326    0.1829    0.2094 H   0  0  0  0  0  0  0  0  0  0  0  0
    1.9367   -1.4234    0.9659 H   0  0  0  0  0  0  0  0  0  0  0  0
    1.6988   -1.0127   -1.8078 H   0  0  0  0  0  0  0  0  0  0  0  0
  1  9  1  0  0  0  0
  1  2  1  0  0  0  0
  1 11  1  0  0  0  0
  2 12  1  6  0  0  0
  2  7  1  0  0  0  0
  3  2  1  0  0  0  0
  3  4  1  0  0  0  0
  4  5  1  0  0  0  0
  4 13  1  1  0  0  0
  4  7  1  0  0  0  0
  5 14  1  0  0  0  0
  5 15  1  0  0  0  0
  6  5  1  0  0  0  0
  7  8  2  0  0  0  0
 10  1  1  0  0  0  0
 16  6  1  0  0  0  0
M  END
