title
 OpenBabel02282109593D

 16 16  0  0  1  0  0  0  0  0999 V2000
    1.3343    2.3836   -0.0183 O   0  0  0  0  0  0  0  0  0  0  0  0
    1.2787    0.9963    0.2775 C   0  0  0  0  0  0  0  0  0  0  0  0
   -0.1441    0.6756    0.6987 C   0  0  1  0  0  0  0  0  0  0  0  0
   -1.1684    0.7811   -0.4799 C   0  0  0  0  0  0  0  0  0  0  0  0
   -0.9922   -0.7321   -0.6360 C   0  0  0  0  0  0  0  0  0  0  0  0
   -0.9700   -1.4978   -1.5598 O   0  0  0  0  0  0  0  0  0  0  0  0
   -0.4272   -0.8700    0.7794 C   0  0  1  0  0  0  0  0  0  0  0  0
    0.6162   -1.7810    0.9734 O   0  0  0  0  0  0  0  0  0  0  0  0
    2.2346    2.5994   -0.2784 H   0  0  0  0  0  0  0  0  0  0  0  0
    1.5553    0.3898   -0.6009 H   0  0  0  0  0  0  0  0  0  0  0  0
    1.9699    0.7222    1.0869 H   0  0  0  0  0  0  0  0  0  0  0  0
   -0.4060    1.2391    1.5952 H   0  0  0  0  0  0  0  0  0  0  0  0
   -2.1750    1.0541   -0.1511 H   0  0  0  0  0  0  0  0  0  0  0  0
   -0.8870    1.3987   -1.3341 H   0  0  0  0  0  0  0  0  0  0  0  0
   -1.2345   -1.0486    1.5043 H   0  0  0  0  0  0  0  0  0  0  0  0
    0.6982   -2.2870    0.1546 H   0  0  0  0  0  0  0  0  0  0  0  0
  1  2  1  0  0  0  0
  2  3  1  0  0  0  0
  2 11  1  0  0  0  0
  3  7  1  1  0  0  0
  3 12  1  0  0  0  0
  4 13  1  0  0  0  0
  4  3  1  0  0  0  0
  5  4  1  0  0  0  0
  5  7  1  0  0  0  0
  6  5  2  0  0  0  0
  7  8  1  0  0  0  0
  7 15  1  1  0  0  0
  9  1  1  0  0  0  0
 10  2  1  0  0  0  0
 14  4  1  0  0  0  0
 16  8  1  0  0  0  0
M  END
