15
title
O 1.0728343 2.5313935 0.19054227
C 1.1837906 1.1753378 0.6028488
C -0.22838083 0.6249225 0.6533726
N -0.89505666 0.54804033 -0.6578974
C -0.8840956 -0.8182076 -0.74062353
O -1.1204749 -1.6128379 -1.6132692
C -0.3580785 -0.931528 0.7152211
O 0.8412125 -1.6478158 0.86791205
H 1.9593954 2.8913257 0.09612219
H 1.7844968 0.58268744 -0.099228516
H 1.6433456 1.0845015 1.598532
H -0.8173564 1.1701666 1.3974173
H -1.0127753 1.2603564 -1.3642426
H -1.122172 -1.2653452 1.4287924
H 0.82402194 -2.366371 0.22463788
