16
title
O 1.3342766 2.3836322 -0.018305797
C 1.2786517 0.9963496 0.27748144
C -0.14413701 0.6756298 0.6986789
C -1.1684266 0.7810756 -0.4799346
C -0.992216 -0.73205346 -0.6359555
O -0.9700111 -1.4978344 -1.5597622
C -0.42721578 -0.87000483 0.7793527
O 0.61620027 -1.7809539 0.97335535
H 2.2346308 2.5994081 -0.27843174
H 1.5552647 0.38981098 -0.6008846
H 1.9699361 0.7222166 1.0868807
H -0.40595278 1.2391297 1.595218
H -2.1750104 1.0541025 -0.15109481
H -0.8869542 1.3986601 -1.3341091
H -1.234485 -1.0485678 1.5042883
H 0.69816697 -2.28702 0.15460919
