16
title
O 0.84299487 2.6613379 0.44291377
C 0.88697875 1.3178535 0.90241265
C -0.40086108 0.5820451 0.5597125
N -0.6353869 0.4731355 -0.9005411
C -0.664133 -0.9180522 -0.9054511
N -0.81609064 -1.8458195 -1.7510297
C -0.37530965 -0.98211694 0.5952555
O 0.8439354 -1.5630586 0.98409104
H 0.90160346 2.6271298 -0.5177173
H 1.7428923 0.77188873 0.4884479
H 1.0105598 1.3612274 1.9890374
H -1.2466882 1.0196 1.1006286
H -1.1962334 1.0880162 -1.4730711
H -0.98787135 -1.4888177 -2.6925912
H -1.2185351 -1.4030154 1.1589946
H 0.98200667 -2.330133 0.4165882
