title
 OpenBabel02282109593D

 14 14  0  0  1  0  0  0  0  0999 V2000
    1.3457    2.4186    0.1432 O   0  0  0  0  0  0  0  0  0  0  0  0
    1.3879    1.0231    0.3626 C   0  0  0  0  0  0  0  0  0  0  0  0
    0.0193    0.4985    0.7515 C   0  0  1  0  0  0  0  0  0  0  0  0
   -0.9329    0.6884   -0.3687 O   0  0  0  0  0  0  0  0  0  0  0  0
   -1.0795   -0.6638   -0.5421 C   0  0  0  0  0  0  0  0  0  0  0  0
   -1.6709   -1.2392   -1.3971 O   0  0  0  0  0  0  0  0  0  0  0  0
   -0.2217   -1.0229    0.6864 C   0  0  1  0  0  0  0  0  0  0  0  0
    0.9254   -1.7977    0.4668 O   0  0  0  0  0  0  0  0  0  0  0  0
    0.7214    2.5731   -0.5751 H   0  0  0  0  0  0  0  0  0  0  0  0
    1.7573    0.4739   -0.5137 H   0  0  0  0  0  0  0  0  0  0  0  0
    2.0896    0.8471    1.1840 H   0  0  0  0  0  0  0  0  0  0  0  0
   -0.3662    1.0078    1.6368 H   0  0  0  0  0  0  0  0  0  0  0  0
   -0.8333   -1.4014    1.5168 H   0  0  0  0  0  0  0  0  0  0  0  0
    0.6495   -2.6455    0.1009 H   0  0  0  0  0  0  0  0  0  0  0  0
  1  2  1  0  0  0  0
  2  3  1  0  0  0  0
  2 11  1  0  0  0  0
  3  7  1  1  0  0  0
  3 12  1  0  0  0  0
  4  3  1  0  0  0  0
  5  4  1  0  0  0  0
  5  7  1  0  0  0  0
  6  5  2  0  0  0  0
  7 13  1  1  0  0  0
  8  7  1  0  0  0  0
  9  1  1  0  0  0  0
 10  2  1  0  0  0  0
 14  8  1  0  0  0  0
M  END
