18
title
C 1.676282 2.367577 -0.7066991
C 1.609012 0.8553849 -0.94731975
C 0.18370546 0.31528217 -0.8998673
C -0.09215437 -1.2235394 -0.9975872
C -1.2025299 -1.0915443 0.10660033
O -1.3563292 -2.0458238 1.1108304
C -0.50315356 0.21856 0.47016218
O -0.28527808 0.70964986 1.5458511
H 2.709741 2.7249167 -0.7434017
H 1.1075149 2.9148269 -1.4668587
H 1.2622932 2.6201408 0.27316812
H 2.051033 0.60706985 -1.9201249
H 2.2097635 0.33527684 -0.19105585
H -0.45874166 0.8555853 -1.6062444
H -0.412668 -1.6135879 -1.9636768
H 0.75430197 -1.8041956 -0.6218094
H -2.1706424 -0.9069416 -0.37742612
H -0.90998816 -1.7043781 1.8962008
