20
title
C 1.592056 2.3634205 -0.7241186
C 1.5340889 0.8528627 -0.9777546
C 0.11543608 0.29505634 -0.8942831
C -0.14161444 -1.2414173 -1.0237529
C -1.1229383 -1.1976424 0.19197257
C -1.0575169 -2.2518473 1.2877909
C -0.5478958 0.19730955 0.49197966
O -0.48780203 0.8636238 1.4878429
H 2.6218312 2.7307556 -0.76954764
H 1.0094342 2.9111304 -1.4735401
H 1.1832714 2.603536 0.26079947
H 1.9508932 0.61872727 -1.9656527
H 2.1646736 0.3315956 -0.24617635
H -0.54864013 0.849554 -1.5712006
H -0.5510038 -1.5908953 -1.9725502
H 0.75845754 -1.8185693 -0.7906442
H -2.1545463 -1.0801342 -0.16502522
H -0.031146048 -2.3821034 1.6461602
H -1.6722401 -1.9553965 2.1429238
H -1.4166309 -3.221391 0.92838794
