title
 OpenBabel02282109593D

 18 18  0  0  1  0  0  0  0  0999 V2000
    1.6763    2.3676   -0.7067 C   0  0  0  0  0  0  0  0  0  0  0  0
    1.6090    0.8554   -0.9473 C   0  0  0  0  0  0  0  0  0  0  0  0
    0.1837    0.3153   -0.8999 C   0  0  1  0  0  0  0  0  0  0  0  0
   -0.0922   -1.2235   -0.9976 C   0  0  0  0  0  0  0  0  0  0  0  0
   -1.2025   -1.0915    0.1066 C   0  0  1  0  0  0  0  0  0  0  0  0
   -1.3563   -2.0458    1.1108 O   0  0  0  0  0  0  0  0  0  0  0  0
   -0.5032    0.2186    0.4702 C   0  0  0  0  0  0  0  0  0  0  0  0
   -0.2853    0.7096    1.5459 O   0  0  0  0  0  0  0  0  0  0  0  0
    2.7097    2.7249   -0.7434 H   0  0  0  0  0  0  0  0  0  0  0  0
    1.1075    2.9148   -1.4669 H   0  0  0  0  0  0  0  0  0  0  0  0
    1.2623    2.6201    0.2732 H   0  0  0  0  0  0  0  0  0  0  0  0
    2.0510    0.6071   -1.9201 H   0  0  0  0  0  0  0  0  0  0  0  0
    2.2098    0.3353   -0.1911 H   0  0  0  0  0  0  0  0  0  0  0  0
   -0.4587    0.8556   -1.6062 H   0  0  0  0  0  0  0  0  0  0  0  0
   -0.4127   -1.6136   -1.9637 H   0  0  0  0  0  0  0  0  0  0  0  0
    0.7543   -1.8042   -0.6218 H   0  0  0  0  0  0  0  0  0  0  0  0
   -2.1706   -0.9069   -0.3774 H   0  0  0  0  0  0  0  0  0  0  0  0
   -0.9100   -1.7044    1.8962 H   0  0  0  0  0  0  0  0  0  0  0  0
  1 11  1  0  0  0  0
  2  3  1  0  0  0  0
  2  1  1  0  0  0  0
  2 13  1  0  0  0  0
  3 14  1  6  0  0  0
  3  7  1  0  0  0  0
  4  3  1  0  0  0  0
  4 16  1  0  0  0  0
  4  5  1  0  0  0  0
  5 17  1  6  0  0  0
  5  7  1  0  0  0  0
  5  6  1  0  0  0  0
  6 18  1  0  0  0  0
  7  8  2  0  0  0  0
  9  1  1  0  0  0  0
 10  1  1  0  0  0  0
 12  2  1  0  0  0  0
 15  4  1  0  0  0  0
M  END
