17
title
C -0.65069693 1.9222254 -2.0191965
C -0.8753271 0.42462304 -1.79137
N -0.12258214 -0.104262754 -0.6758813
C 1.3209201 -0.22880377 -0.42313212
C 0.95564467 -0.83642864 0.9591046
O 1.4373842 -0.09812875 2.0532925
C -0.51603734 -0.5573863 0.5547536
O -1.5907623 -0.65152 1.0940396
H 0.4001519 2.1385083 -2.2363489
H -1.2457829 2.2684476 -2.8696659
H -0.94279194 2.4971967 -1.1358826
H -1.927242 0.22406118 -1.5657549
H -0.6214752 -0.13748659 -2.7002091
H 1.8436452 -0.8913553 -1.1209275
H 1.84871 0.7257042 -0.3378268
H 1.1886814 -1.9067187 1.0436715
H 0.79963416 -0.20078172 2.7690837
