18
title
C -0.76704 2.6038623 1.2140402
C -1.028725 1.1050156 1.0398533
C -0.5431686 0.5870161 -0.30665767
O 0.8967433 0.65546143 -0.48140872
C 1.0415562 -0.76005334 -0.76422584
C 2.0093362 -1.4814389 0.15609777
C -0.4644497 -0.9318251 -0.5124117
O -1.2259523 -1.848772 -0.44945562
H 0.30061364 2.8198962 1.11778
H -1.2991123 3.188532 0.45583266
H -1.0987245 2.9472883 2.1981714
H -0.5325325 0.5409356 1.8380704
H -2.1009765 0.886138 1.1136693
H -1.0642062 1.1011778 -1.1290182
H 1.3091155 -0.925214 -1.8183941
H 1.733307 -1.3401506 1.204581
H 2.003661 -2.5527856 -0.06715716
H 3.0248287 -1.1018217 0.010527129
