16
title
C -0.98229575 2.4399445 -1.0463234
O -1.3897945 1.1546925 -0.60467714
C -0.5876401 0.64058936 0.40857416
C -0.9550255 -0.79094535 0.8936674
C 0.56954074 -1.1635773 0.96669465
O 1.0321699 -2.4088724 0.54593235
C 0.7734746 0.018558225 0.012156366
O 1.48693 0.12964518 -0.9472047
H 0.026393548 2.4153259 -1.4749435
H -1.6939927 2.7509685 -1.8138225
H -1.0041369 3.1697283 -0.2222364
H -0.48236614 1.3435165 1.2513275
H -1.5255485 -0.8698953 1.8181667
H -1.4499748 -1.3384578 0.08870804
H 0.95501053 -0.95317775 1.9721322
H 1.333934 -2.3076837 -0.36598468
