16
title
O 1.6205318 2.1246831 -0.57872814
C 1.5582917 0.7774398 -0.9969872
C 0.11753289 0.26438484 -0.97123957
C -0.19193801 -1.26654 -1.0039433
C -1.2267073 -1.0763912 0.17217703
O -1.3607754 -1.9979596 1.2057588
C -0.5006543 0.24362853 0.42990968
O -0.20713064 0.81631815 1.4490216
H 1.2716901 2.1479433 0.32200727
H 1.966553 0.73788214 -2.0120423
H 2.1842163 0.12528583 -0.36589798
H -0.49855098 0.82769686 -1.6787772
H -0.5907865 -1.6796284 -1.9299216
H 0.66664994 -1.8574646 -0.6732376
H -2.2182224 -0.8927712 -0.2599049
H -0.71565634 -1.7763588 1.8877661
