19
title
C -0.92902035 2.6705887 1.1731156
C -1.1143264 1.1594559 1.0137005
C -0.49755138 0.6260597 -0.27479526
N 0.99438596 0.6414885 -0.34186956
C 1.0767682 -0.7785455 -0.7961778
C 2.0548437 -1.6704749 -0.046823945
C -0.42183036 -0.8984264 -0.46519324
O -1.1888248 -1.8058969 -0.33716115
H 0.13452971 2.9296815 1.1738107
H -1.4107044 3.219422 0.3557028
H -1.3616493 3.0249262 2.1135013
H -0.6558492 0.63741225 1.8611016
H -2.1795454 0.89878047 1.0150886
H -0.9840601 1.0936024 -1.1466794
H 1.3721302 1.3074836 -1.0053805
H 1.2219303 -0.8843721 -1.8832097
H 1.9147282 -1.5695344 1.0326347
H 1.8985839 -2.7173407 -0.32551417
H 3.088781 -1.4012433 -0.28405675
