20
title
C -0.6855364 2.2177618 -0.43485978
C -1.3277205 0.8350593 -0.3526868
C -0.7045443 -0.25145316 -1.2822682
C -0.062405813 -0.9586848 -0.053325403
C 1.4438136 -0.8098191 0.071167566
O 2.0375783 -1.584655 -0.9607194
C -0.9121325 -0.03593493 0.8794985
O -0.31050313 0.57704705 1.998361
H 0.41011453 2.172759 -0.39848348
H -0.9472882 2.7054484 -1.3795005
H -1.0248318 2.8636396 0.38190818
H -2.41175 0.9471546 -0.45169383
H -1.4470018 -0.8650662 -1.7967986
H 0.007837068 0.11440807 -2.0267572
H -0.29640794 -2.0236425 0.034951698
H 1.7416406 0.24902618 -0.02178373
H 1.7637172 -1.1495149 1.0679688
H 2.9930053 -1.5116842 -0.87925255
H -1.7688178 -0.58065283 1.2851751
H 0.36030602 1.19182 1.6856138
