20
title
C -0.96850425 2.0656652 -0.64670664
C -1.334064 0.6575191 -0.21525902
O -0.6525495 -0.35430938 -1.0035726
C -0.016375987 -0.9247821 0.16991913
C 1.4947373 -0.8621977 0.00303072
O 1.8692018 -1.5410053 -1.1809309
C -0.7509883 0.071530566 1.1049086
C 0.043136865 0.96282077 2.0530403
H 0.10866359 2.2434866 -0.58704114
H -1.279494 2.2240498 -1.6842141
H -1.4804847 2.8067622 -0.023200853
H -2.4208632 0.5238495 -0.29833168
H -0.3147268 -1.9740566 0.29182535
H 1.8337499 0.18493079 -0.017133487
H 1.998185 -1.3630234 0.8376484
H 1.3010184 -1.1816642 -1.8743235
H -1.5304224 -0.43994254 1.675797
H 0.8351924 1.5219268 1.5489935
H -0.6160567 1.6894555 2.53963
H 0.5100145 0.36620218 2.8438394
