title
 OpenBabel02282109593D

 18 18  0  0  1  0  0  0  0  0999 V2000
   -0.9238    2.0730   -0.5882 C   0  0  0  0  0  0  0  0  0  0  0  0
   -1.3255    0.6418   -0.2892 C   0  0  1  0  0  0  0  0  0  0  0  0
   -0.5880   -0.3321   -1.0768 O   0  0  0  0  0  0  0  0  0  0  0  0
   -0.0188   -0.9586    0.1041 C   0  0  1  0  0  0  0  0  0  0  0  0
    1.4987   -0.8518    0.0640 C   0  0  0  0  0  0  0  0  0  0  0  0
    1.9865   -1.3954   -1.1450 O   0  0  0  0  0  0  0  0  0  0  0  0
   -0.8184   -0.0066    1.0323 C   0  0  1  0  0  0  0  0  0  0  0  0
   -0.1406    0.7783    1.9773 O   0  0  0  0  0  0  0  0  0  0  0  0
    0.1502    2.2354   -0.4483 H   0  0  0  0  0  0  0  0  0  0  0  0
   -1.1589    2.3154   -1.6288 H   0  0  0  0  0  0  0  0  0  0  0  0
   -1.4686    2.7668    0.0598 H   0  0  0  0  0  0  0  0  0  0  0  0
   -2.4036    0.5161   -0.4507 H   0  0  0  0  0  0  0  0  0  0  0  0
   -0.3104   -2.0147    0.1557 H   0  0  0  0  0  0  0  0  0  0  0  0
    1.8136    0.2003    0.1757 H   0  0  0  0  0  0  0  0  0  0  0  0
    1.9464   -1.4177    0.8874 H   0  0  0  0  0  0  0  0  0  0  0  0
    1.4449   -1.0045   -1.8429 H   0  0  0  0  0  0  0  0  0  0  0  0
   -1.6065   -0.5145    1.5907 H   0  0  0  0  0  0  0  0  0  0  0  0
    0.5463    1.2856    1.5335 H   0  0  0  0  0  0  0  0  0  0  0  0
  1  9  1  0  0  0  0
  1  2  1  0  0  0  0
  1 11  1  0  0  0  0
  2  7  1  1  0  0  0
  3  2  1  0  0  0  0
  3  4  1  0  0  0  0
  4 13  1  0  0  0  0
  4  7  1  1  0  0  0
  5  4  1  0  0  0  0
  5 14  1  0  0  0  0
  5 15  1  0  0  0  0
  6  5  1  0  0  0  0
  7 17  1  1  0  0  0
  7  8  1  0  0  0  0
 10  1  1  0  0  0  0
 12  2  1  0  0  0  0
 16  6  1  0  0  0  0
 18  8  1  0  0  0  0
M  END
