title
 OpenBabel02282109593D

 22 22  0  0  1  0  0  0  0  0999 V2000
   -0.8089    2.5130    1.3469 C   0  0  0  0  0  0  0  0  0  0  0  0
   -0.8515    1.0135    1.0368 C   0  0  0  0  0  0  0  0  0  0  0  0
   -0.5120    0.6988   -0.4210 C   0  0  1  0  0  0  0  0  0  0  0  0
    0.9988    0.7776   -0.8038 C   0  0  0  0  0  0  0  0  0  0  0  0
    1.0729   -0.7775   -0.8975 C   0  0  1  0  0  0  0  0  0  0  0  0
    1.8186   -1.4708    0.2397 C   0  0  0  0  0  0  0  0  0  0  0  0
   -0.4883   -0.8169   -0.8078 C   0  0  1  0  0  0  0  0  0  0  0  0
   -1.1175   -1.7619    0.0256 O   0  0  0  0  0  0  0  0  0  0  0  0
    0.1814    2.9348    1.1442 H   0  0  0  0  0  0  0  0  0  0  0  0
   -1.5323    3.0602    0.7324 H   0  0  0  0  0  0  0  0  0  0  0  0
   -1.0456    2.7099    2.3972 H   0  0  0  0  0  0  0  0  0  0  0  0
   -0.1575    0.4924    1.7113 H   0  0  0  0  0  0  0  0  0  0  0  0
   -1.8503    0.6187    1.2604 H   0  0  0  0  0  0  0  0  0  0  0  0
   -1.1690    1.2961   -1.0631 H   0  0  0  0  0  0  0  0  0  0  0  0
    1.1835    1.2816   -1.7553 H   0  0  0  0  0  0  0  0  0  0  0  0
    1.6515    1.2293   -0.0497 H   0  0  0  0  0  0  0  0  0  0  0  0
    1.4590   -1.1533   -1.8501 H   0  0  0  0  0  0  0  0  0  0  0  0
    1.5196   -1.0944    1.2254 H   0  0  0  0  0  0  0  0  0  0  0  0
    1.6423   -2.5512    0.2262 H   0  0  0  0  0  0  0  0  0  0  0  0
    2.8970   -1.3029    0.1509 H   0  0  0  0  0  0  0  0  0  0  0  0
   -0.9328   -0.9750   -1.7944 H   0  0  0  0  0  0  0  0  0  0  0  0
   -0.7602   -1.6699    0.9143 H   0  0  0  0  0  0  0  0  0  0  0  0
  1 11  1  0  0  0  0
  2 13  1  0  0  0  0
  2  1  1  0  0  0  0
  2 12  1  0  0  0  0
  3  7  1  6  0  0  0
  3  2  1  0  0  0  0
  4  3  1  0  0  0  0
  4 16  1  0  0  0  0
  5  7  1  1  0  0  0
  5  4  1  0  0  0  0
  5  6  1  0  0  0  0
  6 18  1  0  0  0  0
  7 21  1  6  0  0  0
  7  8  1  0  0  0  0
  8 22  1  0  0  0  0
  9  1  1  0  0  0  0
 10  1  1  0  0  0  0
 14  3  1  0  0  0  0
 15  4  1  0  0  0  0
 17  5  1  0  0  0  0
 19  6  1  0  0  0  0
 20  6  1  0  0  0  0
M  END
