title
 OpenBabel02282109593D

 20 20  0  0  1  0  0  0  0  0999 V2000
   -0.9685    2.0657   -0.6467 C   0  0  0  0  0  0  0  0  0  0  0  0
   -1.3341    0.6575   -0.2153 C   0  0  1  0  0  0  0  0  0  0  0  0
   -0.6525   -0.3543   -1.0036 O   0  0  0  0  0  0  0  0  0  0  0  0
   -0.0164   -0.9248    0.1699 C   0  0  1  0  0  0  0  0  0  0  0  0
    1.4947   -0.8622    0.0030 C   0  0  0  0  0  0  0  0  0  0  0  0
    1.8692   -1.5410   -1.1809 O   0  0  0  0  0  0  0  0  0  0  0  0
   -0.7510    0.0715    1.1049 C   0  0  1  0  0  0  0  0  0  0  0  0
    0.0431    0.9628    2.0530 C   0  0  0  0  0  0  0  0  0  0  0  0
    0.1087    2.2435   -0.5870 H   0  0  0  0  0  0  0  0  0  0  0  0
   -1.2795    2.2240   -1.6842 H   0  0  0  0  0  0  0  0  0  0  0  0
   -1.4805    2.8068   -0.0232 H   0  0  0  0  0  0  0  0  0  0  0  0
   -2.4209    0.5238   -0.2983 H   0  0  0  0  0  0  0  0  0  0  0  0
   -0.3147   -1.9741    0.2918 H   0  0  0  0  0  0  0  0  0  0  0  0
    1.8337    0.1849   -0.0171 H   0  0  0  0  0  0  0  0  0  0  0  0
    1.9982   -1.3630    0.8376 H   0  0  0  0  0  0  0  0  0  0  0  0
    1.3010   -1.1817   -1.8743 H   0  0  0  0  0  0  0  0  0  0  0  0
   -1.5304   -0.4399    1.6758 H   0  0  0  0  0  0  0  0  0  0  0  0
    0.8352    1.5219    1.5490 H   0  0  0  0  0  0  0  0  0  0  0  0
   -0.6161    1.6895    2.5396 H   0  0  0  0  0  0  0  0  0  0  0  0
    0.5100    0.3662    2.8438 H   0  0  0  0  0  0  0  0  0  0  0  0
  1  9  1  0  0  0  0
  1  2  1  0  0  0  0
  1 11  1  0  0  0  0
  2  7  1  1  0  0  0
  3  2  1  0  0  0  0
  3  4  1  0  0  0  0
  4 13  1  0  0  0  0
  4  7  1  1  0  0  0
  5  4  1  0  0  0  0
  5 15  1  0  0  0  0
  6  5  1  0  0  0  0
  7 17  1  1  0  0  0
  7  8  1  0  0  0  0
  8 19  1  0  0  0  0
  8 20  1  0  0  0  0
 10  1  1  0  0  0  0
 12  2  1  0  0  0  0
 14  5  1  0  0  0  0
 16  6  1  0  0  0  0
 18  8  1  0  0  0  0
M  END
