title
 OpenBabel02282109593D

 22 22  0  0  1  0  0  0  0  0999 V2000
   -0.7095    2.1851   -0.5788 C   0  0  0  0  0  0  0  0  0  0  0  0
   -1.3443    0.8334   -0.2618 C   0  0  1  0  0  0  0  0  0  0  0  0
   -0.8465   -0.3505   -1.1447 C   0  0  0  0  0  0  0  0  0  0  0  0
   -0.0732   -0.9428    0.0676 C   0  0  1  0  0  0  0  0  0  0  0  0
    1.4381   -0.8119   -0.0232 C   0  0  0  0  0  0  0  0  0  0  0  0
    1.8783   -1.7054   -1.0384 O   0  0  0  0  0  0  0  0  0  0  0  0
   -0.8175    0.0678    1.0031 C   0  0  1  0  0  0  0  0  0  0  0  0
   -0.0599    0.8168    2.0949 C   0  0  0  0  0  0  0  0  0  0  0  0
    0.3828    2.1277   -0.6339 H   0  0  0  0  0  0  0  0  0  0  0  0
   -1.0632    2.5510   -1.5493 H   0  0  0  0  0  0  0  0  0  0  0  0
   -0.9649    2.9397    0.1734 H   0  0  0  0  0  0  0  0  0  0  0  0
   -2.4323    0.9563   -0.2585 H   0  0  0  0  0  0  0  0  0  0  0  0
   -1.6521   -0.9976   -1.4998 H   0  0  0  0  0  0  0  0  0  0  0  0
   -0.2258   -0.0797   -2.0035 H   0  0  0  0  0  0  0  0  0  0  0  0
   -0.2947   -1.9938    0.2771 H   0  0  0  0  0  0  0  0  0  0  0  0
    1.7258    0.2237   -0.2644 H   0  0  0  0  0  0  0  0  0  0  0  0
    1.8964   -1.0588    0.9483 H   0  0  0  0  0  0  0  0  0  0  0  0
    2.8304   -1.6084   -1.1310 H   0  0  0  0  0  0  0  0  0  0  0  0
   -1.6598   -0.4526    1.4713 H   0  0  0  0  0  0  0  0  0  0  0  0
    0.8022    1.3684    1.7078 H   0  0  0  0  0  0  0  0  0  0  0  0
   -0.7141    1.5411    2.5932 H   0  0  0  0  0  0  0  0  0  0  0  0
    0.3065    0.1268    2.8631 H   0  0  0  0  0  0  0  0  0  0  0  0
  1  2  1  0  0  0  0
  1 11  1  0  0  0  0
  2 12  1  0  0  0  0
  2  7  1  1  0  0  0
  3  2  1  0  0  0  0
  3  4  1  0  0  0  0
  4 15  1  0  0  0  0
  4  7  1  1  0  0  0
  5  4  1  0  0  0  0
  5 17  1  0  0  0  0
  6  5  1  0  0  0  0
  7 19  1  1  0  0  0
  7  8  1  0  0  0  0
  8 21  1  0  0  0  0
  8 22  1  0  0  0  0
  9  1  1  0  0  0  0
 10  1  1  0  0  0  0
 13  3  1  0  0  0  0
 14  3  1  0  0  0  0
 16  5  1  0  0  0  0
 18  6  1  0  0  0  0
 20  8  1  0  0  0  0
M  END
