title
 OpenBabel02282109593D

 22 22  0  0  1  0  0  0  0  0999 V2000
    1.3211    2.8188    0.4501 C   0  0  0  0  0  0  0  0  0  0  0  0
    1.3704    1.3012    0.6594 C   0  0  0  0  0  0  0  0  0  0  0  0
   -0.0085    0.6544    0.6096 C   0  0  1  0  0  0  0  0  0  0  0  0
   -0.7837    0.6148   -0.7396 C   0  0  0  0  0  0  0  0  0  0  0  0
   -1.3219   -0.7790   -0.3247 C   0  0  1  0  0  0  0  0  0  0  0  0
   -1.3717   -1.8140   -1.2807 O   0  0  0  0  0  0  0  0  0  0  0  0
   -0.1636   -0.9034    0.7023 C   0  0  1  0  0  0  0  0  0  0  0  0
    1.0216   -1.7272    0.2018 C   0  0  0  0  0  0  0  0  0  0  0  0
    2.3217    3.2601    0.4934 H   0  0  0  0  0  0  0  0  0  0  0  0
    0.8885    3.0714   -0.5241 H   0  0  0  0  0  0  0  0  0  0  0  0
    0.7088    3.3048    1.2182 H   0  0  0  0  0  0  0  0  0  0  0  0
    2.0189    0.8500   -0.1010 H   0  0  0  0  0  0  0  0  0  0  0  0
    1.8383    1.0822    1.6288 H   0  0  0  0  0  0  0  0  0  0  0  0
   -0.6421    1.1179    1.3759 H   0  0  0  0  0  0  0  0  0  0  0  0
   -1.5066    1.4071   -0.9514 H   0  0  0  0  0  0  0  0  0  0  0  0
   -0.1004    0.5184   -1.5899 H   0  0  0  0  0  0  0  0  0  0  0  0
   -2.2862   -0.6802    0.1955 H   0  0  0  0  0  0  0  0  0  0  0  0
   -2.0753   -1.6132   -1.9057 H   0  0  0  0  0  0  0  0  0  0  0  0
   -0.4664   -1.2744    1.6866 H   0  0  0  0  0  0  0  0  0  0  0  0
    1.3612   -1.4088   -0.7877 H   0  0  0  0  0  0  0  0  0  0  0  0
    1.8678   -1.6509    0.8922 H   0  0  0  0  0  0  0  0  0  0  0  0
    0.7414   -2.7810    0.1209 H   0  0  0  0  0  0  0  0  0  0  0  0
  1  9  1  0  0  0  0
  1  2  1  0  0  0  0
  1 11  1  0  0  0  0
  2 13  1  0  0  0  0
  3  2  1  0  0  0  0
  3  7  1  1  0  0  0
  3 14  1  0  0  0  0
  4  5  1  0  0  0  0
  4  3  1  0  0  0  0
  5 17  1  0  0  0  0
  5  7  1  1  0  0  0
  6  5  1  0  0  0  0
  7 19  1  1  0  0  0
  8  7  1  0  0  0  0
  8 21  1  0  0  0  0
 10  1  1  0  0  0  0
 12  2  1  0  0  0  0
 15  4  1  0  0  0  0
 16  4  1  0  0  0  0
 18  6  1  0  0  0  0
 20  8  1  0  0  0  0
 22  8  1  0  0  0  0
M  END
