18
title
C -0.92376477 2.073019 -0.5882498
C -1.3254522 0.6417505 -0.28920436
O -0.5880003 -0.3321233 -1.0767525
C -0.018822579 -0.9585839 0.10412378
C 1.4987106 -0.8517979 0.06399075
O 1.9865324 -1.3954082 -1.1449745
C -0.8184101 -0.006622169 1.0322572
O -0.14062086 0.7783301 1.977282
H 0.15021142 2.2354152 -0.4483125
H -1.1589448 2.3153963 -1.6288282
H -1.4685507 2.7667794 0.059829153
H -2.403584 0.5161384 -0.45071104
H -0.31040588 -2.0146573 0.15572333
H 1.8135703 0.20031157 0.17572582
H 1.9463603 -1.4177155 0.8873538
H 1.4448633 -1.0045341 -1.8429104
H -1.6064804 -0.5144804 1.5906817
H 0.5463468 1.2856113 1.5335051
