14
title
N 0.2751934 2.0524728 0.86042035
C 0.33309844 0.8752483 0.3727139
N 1.4860926 0.15513462 0.104414195
C 1.523703 -1.1321037 -0.42957494
C 0.4286244 -1.8217032 -0.7455839
C -0.9393782 -1.2471316 -0.5435056
C -0.9871722 0.16436327 0.041776
O -2.0360703 0.71756166 0.24345349
H 1.2088153 2.430198 1.0424973
H 2.3620508 0.6069914 0.3157409
H 2.5241473 -1.5249062 -0.5659676
H 0.5244716 -2.8185365 -1.1573083
H -1.5053418 -1.2116909 -1.4852644
H -1.5483646 -1.8784156 0.11914061
