title
 OpenBabel02282109593D

 14 14  0  0  0  0  0  0  0  0999 V2000
    0.2752    2.0525    0.8604 N   0  0  0  0  0  0  0  0  0  0  0  0
    0.3331    0.8752    0.3727 C   0  0  0  0  0  0  0  0  0  0  0  0
    1.4861    0.1551    0.1044 N   0  0  0  0  0  0  0  0  0  0  0  0
    1.5237   -1.1321   -0.4296 C   0  0  0  0  0  0  0  0  0  0  0  0
    0.4286   -1.8217   -0.7456 C   0  0  0  0  0  0  0  0  0  0  0  0
   -0.9394   -1.2471   -0.5435 C   0  0  0  0  0  0  0  0  0  0  0  0
   -0.9872    0.1644    0.0418 C   0  0  0  0  0  0  0  0  0  0  0  0
   -2.0361    0.7176    0.2435 O   0  0  0  0  0  0  0  0  0  0  0  0
    1.2088    2.4302    1.0425 H   0  0  0  0  0  0  0  0  0  0  0  0
    2.3621    0.6070    0.3157 H   0  0  0  0  0  0  0  0  0  0  0  0
    2.5241   -1.5249   -0.5660 H   0  0  0  0  0  0  0  0  0  0  0  0
    0.5245   -2.8185   -1.1573 H   0  0  0  0  0  0  0  0  0  0  0  0
   -1.5053   -1.2117   -1.4853 H   0  0  0  0  0  0  0  0  0  0  0  0
   -1.5484   -1.8784    0.1191 H   0  0  0  0  0  0  0  0  0  0  0  0
  1  9  1  0  0  0  0
  2  1  2  0  0  0  0
  3 10  1  0  0  0  0
  3  2  1  0  0  0  0
  4  3  1  0  0  0  0
  5  6  1  0  0  0  0
  5  4  2  0  0  0  0
  6  7  1  0  0  0  0
  6 14  1  0  0  0  0
  7  8  2  0  0  0  0
  7  2  1  0  0  0  0
 11  4  1  0  0  0  0
 12  5  1  0  0  0  0
 13  6  1  0  0  0  0
M  END
