title
 OpenBabel02282109593D

 18 18  0  0  1  0  0  0  0  0999 V2000
    1.2661    2.6110    0.3953 O   0  0  0  0  0  0  0  0  0  0  0  0
    1.3903    1.2073    0.5910 C   0  0  0  0  0  0  0  0  0  0  0  0
   -0.0123    0.6352    0.6344 C   0  0  1  0  0  0  0  0  0  0  0  0
   -0.8674    0.6465   -0.6644 C   0  0  0  0  0  0  0  0  0  0  0  0
   -1.3751   -0.7741   -0.2916 C   0  0  1  0  0  0  0  0  0  0  0  0
   -1.4704   -1.7606   -1.2842 O   0  0  0  0  0  0  0  0  0  0  0  0
   -0.1811   -0.9027    0.7098 C   0  0  1  0  0  0  0  0  0  0  0  0
    0.9235   -1.5510    0.0881 O   0  0  0  0  0  0  0  0  0  0  0  0
    2.1481    2.9746    0.2760 H   0  0  0  0  0  0  0  0  0  0  0  0
    1.9575    0.7352   -0.2226 H   0  0  0  0  0  0  0  0  0  0  0  0
    1.9158    0.9798    1.5329 H   0  0  0  0  0  0  0  0  0  0  0  0
   -0.5595    1.1033    1.4588 H   0  0  0  0  0  0  0  0  0  0  0  0
   -1.6083    1.4381   -0.7852 H   0  0  0  0  0  0  0  0  0  0  0  0
   -0.2363    0.6172   -1.5584 H   0  0  0  0  0  0  0  0  0  0  0  0
   -2.3398   -0.7481    0.2225 H   0  0  0  0  0  0  0  0  0  0  0  0
   -0.5926   -1.8206   -1.6813 H   0  0  0  0  0  0  0  0  0  0  0  0
   -0.3809   -1.3393    1.6962 H   0  0  0  0  0  0  0  0  0  0  0  0
    0.7406   -2.4965    0.1021 H   0  0  0  0  0  0  0  0  0  0  0  0
  1  2  1  0  0  0  0
  2  3  1  0  0  0  0
  2 11  1  0  0  0  0
  3  7  1  1  0  0  0
  3 12  1  0  0  0  0
  4  5  1  0  0  0  0
  4  3  1  0  0  0  0
  5 15  1  0  0  0  0
  5  7  1  1  0  0  0
  6  5  1  0  0  0  0
  7 17  1  1  0  0  0
  8 18  1  0  0  0  0
  8  7  1  0  0  0  0
  9  1  1  0  0  0  0
 10  2  1  0  0  0  0
 13  4  1  0  0  0  0
 14  4  1  0  0  0  0
 16  6  1  0  0  0  0
M  END
