title
 OpenBabel02282109593D

 14 14  0  0  1  0  0  0  0  0999 V2000
   -0.3453    2.0717    0.7688 N   0  0  0  0  0  0  0  0  0  0  0  0
   -0.3105    0.8806    0.3127 C   0  0  2  0  0  0  0  0  0  0  0  0
   -1.4579    0.2416   -0.0882 N   0  0  0  0  0  0  0  0  0  0  0  0
   -1.5579   -1.0584   -0.6962 C   0  0  0  0  0  0  0  0  0  0  0  0
   -0.2570   -1.7811   -0.7768 C   0  0  0  0  0  0  0  0  0  0  0  0
    0.9063   -1.2649   -0.3667 C   0  0  0  0  0  0  0  0  0  0  0  0
    0.9856    0.0885    0.1966 C   0  0  0  0  0  0  0  0  0  0  0  0
    2.0308    0.5890    0.5600 O   0  0  0  0  0  0  0  0  0  0  0  0
    0.6084    2.3381    1.0192 H   0  0  0  0  0  0  0  0  0  0  0  0
   -2.2958    0.7986   -0.0135 H   0  0  0  0  0  0  0  0  0  0  0  0
   -2.2694   -1.6915   -0.1400 H   0  0  0  0  0  0  0  0  0  0  0  0
   -1.9729   -0.9892   -1.7172 H   0  0  0  0  0  0  0  0  0  0  0  0
   -0.3033   -2.7795   -1.2030 H   0  0  0  0  0  0  0  0  0  0  0  0
    1.8402   -1.8124   -0.4386 H   0  0  0  0  0  0  0  0  0  0  0  0
  1  9  1  0  0  0  0
  2  1  1  1  0  0  0
  3 10  1  0  0  0  0
  3  2  1  0  0  0  0
  4 11  1  0  0  0  0
  4  3  1  0  0  0  0
  5  4  1  0  0  0  0
  5  6  2  0  0  0  0
  6  7  1  0  0  0  0
  7  2  1  0  0  0  0
  7  8  2  0  0  0  0
 12  4  1  0  0  0  0
 13  5  1  0  0  0  0
 14  6  1  0  0  0  0
M  RAD  2   1   2   2   2
M  END
