title
 OpenBabel02282109593D

 18 18  0  0  1  0  0  0  0  0999 V2000
   -0.2779    2.4036   -1.4869 C   0  0  0  0  0  0  0  0  0  0  0  0
   -0.8423    1.4723   -0.5764 O   0  0  0  0  0  0  0  0  0  0  0  0
    0.0974    0.9200    0.3187 C   0  0  1  0  0  0  0  0  0  0  0  0
   -0.5307    0.0458    1.4232 C   0  0  0  0  0  0  0  0  0  0  0  0
    0.5478   -1.0457    1.1317 C   0  0  1  0  0  0  0  0  0  0  0  0
    0.1478   -2.3792    1.0332 O   0  0  0  0  0  0  0  0  0  0  0  0
    0.8588   -0.3346   -0.2234 C   0  0  1  0  0  0  0  0  0  0  0  0
    0.1291   -0.9505   -1.2703 O   0  0  0  0  0  0  0  0  0  0  0  0
    0.4920    1.9420   -2.1201 H   0  0  0  0  0  0  0  0  0  0  0  0
   -1.0905    2.7659   -2.1203 H   0  0  0  0  0  0  0  0  0  0  0  0
    0.1683    3.2548   -0.9539 H   0  0  0  0  0  0  0  0  0  0  0  0
    0.7738    1.6949    0.7009 H   0  0  0  0  0  0  0  0  0  0  0  0
   -0.5871    0.4642    2.4295 H   0  0  0  0  0  0  0  0  0  0  0  0
   -1.5231   -0.2986    1.1210 H   0  0  0  0  0  0  0  0  0  0  0  0
    1.3867   -0.9891    1.8322 H   0  0  0  0  0  0  0  0  0  0  0  0
   -0.2209   -2.4621    0.1408 H   0  0  0  0  0  0  0  0  0  0  0  0
    1.9066   -0.2330   -0.5223 H   0  0  0  0  0  0  0  0  0  0  0  0
   -0.6181   -0.3617   -1.4570 H   0  0  0  0  0  0  0  0  0  0  0  0
  1 11  1  0  0  0  0
  1  2  1  0  0  0  0
  2  3  1  0  0  0  0
  3  7  1  6  0  0  0
  3 12  1  0  0  0  0
  3  4  1  0  0  0  0
  4 13  1  0  0  0  0
  5  7  1  6  0  0  0
  5  4  1  0  0  0  0
  5 15  1  0  0  0  0
  6  5  1  0  0  0  0
  7 17  1  6  0  0  0
  8  7  1  0  0  0  0
  9  1  1  0  0  0  0
 10  1  1  0  0  0  0
 14  4  1  0  0  0  0
 16  6  1  0  0  0  0
 18  8  1  0  0  0  0
M  END
