14
title
O -0.27452955 -2.062995 -0.5586553
C -0.30931973 -0.8740238 -0.37376568
C -1.5905299 -0.06848633 -0.26256907
C -1.5528634 0.9465015 0.89368546
C -0.24562842 1.6783719 0.9804821
C 0.9010766 1.2398372 0.44015276
C 1.0035902 -0.05149961 -0.2626597
O 2.04043 -0.48584688 -0.71259356
H -1.6893293 0.48686314 -1.2065345
H -2.4391289 -0.75238013 -0.18938932
H -2.3736026 1.6650836 0.7913232
H -1.7328093 0.43461847 1.8503109
H -0.24784474 2.615702 1.5327903
H 1.8271443 1.7990546 0.5342302
