title
 OpenBabel02282109593D

 14 14  0  0  0  0  0  0  0  0999 V2000
    0.2675    2.1417    0.5151 N   0  0  0  0  0  0  0  0  0  0  0  0
    0.2994    0.9318    0.1586 C   0  0  0  0  0  0  0  0  0  0  0  0
    1.4758    0.2933   -0.1303 O   0  0  0  0  0  0  0  0  0  0  0  0
    1.4082   -0.9816   -0.7715 C   0  0  0  0  0  0  0  0  0  0  0  0
    0.4385   -1.8922   -0.0431 C   0  0  0  0  0  0  0  0  0  0  0  0
   -0.8473   -1.2225   -0.0010 N   0  0  0  0  0  0  0  0  0  0  0  0
   -1.0055    0.1322    0.1137 C   0  0  0  0  0  0  0  0  0  0  0  0
   -2.0886    0.6652    0.1885 O   0  0  0  0  0  0  0  0  0  0  0  0
    1.2142    2.5293    0.5110 H   0  0  0  0  0  0  0  0  0  0  0  0
    1.0972   -0.8565   -1.8168 H   0  0  0  0  0  0  0  0  0  0  0  0
    2.4242   -1.3807   -0.7494 H   0  0  0  0  0  0  0  0  0  0  0  0
    0.3399   -2.8375   -0.5860 H   0  0  0  0  0  0  0  0  0  0  0  0
    0.8183   -2.1195    0.9634 H   0  0  0  0  0  0  0  0  0  0  0  0
   -1.7001   -1.7572    0.0733 H   0  0  0  0  0  0  0  0  0  0  0  0
  2  1  2  0  0  0  0
  3  2  1  0  0  0  0
  4 11  1  0  0  0  0
  4  3  1  0  0  0  0
  4  5  1  0  0  0  0
  5  6  1  0  0  0  0
  5 13  1  0  0  0  0
  6 14  1  0  0  0  0
  6  7  1  0  0  0  0
  7  2  1  0  0  0  0
  7  8  2  0  0  0  0
  9  1  1  0  0  0  0
 10  4  1  0  0  0  0
 12  5  1  0  0  0  0
M  END
