14
title
N -0.43145227 2.1230197 -0.6308109
C -0.3819077 0.9054509 -0.2629588
N -1.5186044 0.17137006 -0.01181189
C -1.4281554 -1.0499052 0.7625135
C -0.28589815 -1.8672866 0.19210427
O 0.9492898 -1.1328129 0.2197613
C 0.9553368 0.17985174 -0.09573657
O 1.9961925 0.76530325 -0.21192734
H 0.5216649 2.4517896 -0.79008394
H -2.3581262 0.7288761 0.05977776
H -1.2588632 -0.8666649 1.8354924
H -2.3604095 -1.6136428 0.66212344
H -0.10247902 -2.7681706 0.7805366
H -0.5035737 -2.1533284 -0.843225
