title
 OpenBabel02282109593D

 14 14  0  0  0  0  0  0  0  0999 V2000
    0.3379    2.0093    0.8779 N   0  0  0  0  0  0  0  0  0  0  0  0
    0.3102    0.9067    0.2640 C   0  0  0  0  0  0  0  0  0  0  0  0
    1.4307    0.3744   -0.3127 O   0  0  0  0  0  0  0  0  0  0  0  0
    1.3055   -0.8897   -0.9648 C   0  0  0  0  0  0  0  0  0  0  0  0
    0.4312   -1.7954   -0.1314 C   0  0  0  0  0  0  0  0  0  0  0  0
   -0.8768   -1.2307   -0.0369 O   0  0  0  0  0  0  0  0  0  0  0  0
   -0.9744    0.1202    0.1552 C   0  0  0  0  0  0  0  0  0  0  0  0
   -2.0919    0.7025    0.2292 N   0  0  0  0  0  0  0  0  0  0  0  0
    1.2830    2.3988    0.8448 H   0  0  0  0  0  0  0  0  0  0  0  0
    0.8754   -0.7594   -1.9665 H   0  0  0  0  0  0  0  0  0  0  0  0
    2.3190   -1.2858   -1.0637 H   0  0  0  0  0  0  0  0  0  0  0  0
    0.3089   -2.7772   -0.5951 H   0  0  0  0  0  0  0  0  0  0  0  0
    0.8618   -1.9264    0.8701 H   0  0  0  0  0  0  0  0  0  0  0  0
   -2.8450    0.0161    0.1410 H   0  0  0  0  0  0  0  0  0  0  0  0
  2  1  2  0  0  0  0
  3  2  1  0  0  0  0
  4  3  1  0  0  0  0
  4  5  1  0  0  0  0
  5  6  1  0  0  0  0
  5 13  1  0  0  0  0
  6  7  1  0  0  0  0
  7  8  2  0  0  0  0
  7  2  1  0  0  0  0
  9  1  1  0  0  0  0
 10  4  1  0  0  0  0
 11  4  1  0  0  0  0
 12  5  1  0  0  0  0
 14  8  1  0  0  0  0
M  END
