13
title
N -0.4536918 2.0623636 -0.69261646
C -0.3773125 0.8897928 -0.23434149
O -1.5112901 0.25097364 0.14248735
C -1.336223 -0.9630087 0.86859745
C -0.32573104 -1.8400403 0.17030314
O 0.94692653 -1.1752108 0.10989908
C 0.9619054 0.15116072 -0.12759991
O 2.0004644 0.73526925 -0.2636814
H 0.48832577 2.376939 -0.93028605
H -1.0134432 -0.7470041 1.8957803
H -2.316643 -1.4428874 0.9029489
H -0.15407307 -2.770373 0.71605545
H -0.65608263 -2.0790708 -0.84716624
