title
 OpenBabel02282109593D

 15 15  0  0  0  0  0  0  0  0999 V2000
    0.2642    2.0731    0.7757 N   0  0  0  0  0  0  0  0  0  0  0  0
    0.2936    0.9069    0.2854 C   0  0  0  0  0  0  0  0  0  0  0  0
    1.4705    0.2958   -0.0334 O   0  0  0  0  0  0  0  0  0  0  0  0
    1.4848   -0.9351   -0.7695 C   0  0  0  0  0  0  0  0  0  0  0  0
    0.4217   -1.9024   -0.2787 C   0  0  0  0  0  0  0  0  0  0  0  0
   -0.9533   -1.2621   -0.4746 C   0  0  0  0  0  0  0  0  0  0  0  0
   -1.0263    0.1429    0.1047 C   0  0  0  0  0  0  0  0  0  0  0  0
   -2.0698    0.6572    0.4110 O   0  0  0  0  0  0  0  0  0  0  0  0
    1.2159    2.4418    0.8489 H   0  0  0  0  0  0  0  0  0  0  0  0
    1.3444   -0.7176   -1.8381 H   0  0  0  0  0  0  0  0  0  0  0  0
    2.4942   -1.3304   -0.6359 H   0  0  0  0  0  0  0  0  0  0  0  0
    0.4973   -2.8453   -0.8299 H   0  0  0  0  0  0  0  0  0  0  0  0
    0.5977   -2.1279    0.7794 H   0  0  0  0  0  0  0  0  0  0  0  0
   -1.1639   -1.1673   -1.5499 H   0  0  0  0  0  0  0  0  0  0  0  0
   -1.7712   -1.8471   -0.0467 H   0  0  0  0  0  0  0  0  0  0  0  0
  1  9  1  0  0  0  0
  2  1  2  0  0  0  0
  3  2  1  0  0  0  0
  4 11  1  0  0  0  0
  4  5  1  0  0  0  0
  4  3  1  0  0  0  0
  5 13  1  0  0  0  0
  6  5  1  0  0  0  0
  6 15  1  0  0  0  0
  6  7  1  0  0  0  0
  7  2  1  0  0  0  0
  7  8  2  0  0  0  0
 10  4  1  0  0  0  0
 12  5  1  0  0  0  0
 14  6  1  0  0  0  0
M  END
