13
title
O -0.28601894 -2.1437666 0.23855554
C -0.2907611 -0.9389811 0.122709334
N -1.4412258 -0.19610529 0.1784706
C -1.5837342 1.2365493 0.056667376
C -0.29030108 1.9446822 -0.15534084
C 0.89135385 1.3244523 -0.22714682
C 1.0109059 -0.13671939 -0.09900249
O 2.0692246 -0.718216 -0.15978454
H -2.2775562 -0.74460334 0.3252278
H -2.260239 1.4833051 -0.77772933
H -2.0678313 1.6499604 0.9563543
H -0.36070564 3.0245752 -0.25155926
H 1.8185823 1.8666989 -0.3826604
