15
title
N 0.26420692 2.0730689 0.7756516
C 0.29355904 0.906941 0.28536668
O 1.4704851 0.29584858 -0.033446364
C 1.48478 -0.93510836 -0.76954114
C 0.4217059 -1.9024038 -0.27873242
C -0.9532501 -1.2620668 -0.47456247
C -1.026313 0.14293167 0.10468579
O -2.069843 0.6571581 0.41095385
H 1.2159024 2.4418454 0.8488848
H 1.3444195 -0.7176296 -1.8381128
H 2.494235 -1.3304327 -0.6359145
H 0.49726263 -2.845283 -0.8299234
H 0.59770316 -2.1279438 0.7794422
H -1.1638813 -1.1673353 -1.5499083
H -1.7711842 -1.8470767 -0.046720855
