title
 OpenBabel02282109593D

 16 16  0  0  0  0  0  0  0  0999 V2000
    0.2222    2.1720    0.6067 N   0  0  0  0  0  0  0  0  0  0  0  0
    0.3064    0.9459    0.2574 C   0  0  0  0  0  0  0  0  0  0  0  0
    1.4697    0.2290    0.0422 N   0  0  0  0  0  0  0  0  0  0  0  0
    1.5575   -1.0531   -0.6468 C   0  0  0  0  0  0  0  0  0  0  0  0
    0.3587   -1.9261   -0.2938 C   0  0  0  0  0  0  0  0  0  0  0  0
   -0.9355   -1.1712   -0.6123 C   0  0  0  0  0  0  0  0  0  0  0  0
   -1.0080    0.1644    0.1124 C   0  0  0  0  0  0  0  0  0  0  0  0
   -2.0403    0.6091    0.5416 O   0  0  0  0  0  0  0  0  0  0  0  0
    1.1481    2.6037    0.6735 H   0  0  0  0  0  0  0  0  0  0  0  0
    2.3117    0.7870    0.0387 H   0  0  0  0  0  0  0  0  0  0  0  0
    1.6021   -0.9207   -1.7409 H   0  0  0  0  0  0  0  0  0  0  0  0
    2.4912   -1.5379   -0.3438 H   0  0  0  0  0  0  0  0  0  0  0  0
    0.4068   -2.8627   -0.8573 H   0  0  0  0  0  0  0  0  0  0  0  0
    0.3929   -2.1813    0.7716 H   0  0  0  0  0  0  0  0  0  0  0  0
   -0.9723   -0.9554   -1.6909 H   0  0  0  0  0  0  0  0  0  0  0  0
   -1.8349   -1.7400   -0.3659 H   0  0  0  0  0  0  0  0  0  0  0  0
  1  9  1  0  0  0  0
  2  1  2  0  0  0  0
  3  2  1  0  0  0  0
  4 12  1  0  0  0  0
  4  5  1  0  0  0  0
  4  3  1  0  0  0  0
  5 14  1  0  0  0  0
  6 16  1  0  0  0  0
  6  5  1  0  0  0  0
  6  7  1  0  0  0  0
  7  2  1  0  0  0  0
  7  8  2  0  0  0  0
 10  3  1  0  0  0  0
 11  4  1  0  0  0  0
 13  5  1  0  0  0  0
 15  6  1  0  0  0  0
M  END
