title
 OpenBabel02282109593D

 13 13  0  0  0  0  0  0  0  0999 V2000
   -0.2860   -2.1438    0.2386 O   0  0  0  0  0  0  0  0  0  0  0  0
   -0.2908   -0.9390    0.1227 C   0  0  0  0  0  0  0  0  0  0  0  0
   -1.4412   -0.1961    0.1785 N   0  0  0  0  0  0  0  0  0  0  0  0
   -1.5837    1.2365    0.0567 C   0  0  0  0  0  0  0  0  0  0  0  0
   -0.2903    1.9447   -0.1553 C   0  0  0  0  0  0  0  0  0  0  0  0
    0.8914    1.3245   -0.2271 C   0  0  0  0  0  0  0  0  0  0  0  0
    1.0109   -0.1367   -0.0990 C   0  0  0  0  0  0  0  0  0  0  0  0
    2.0692   -0.7182   -0.1598 O   0  0  0  0  0  0  0  0  0  0  0  0
   -2.2776   -0.7446    0.3252 H   0  0  0  0  0  0  0  0  0  0  0  0
   -2.2602    1.4833   -0.7777 H   0  0  0  0  0  0  0  0  0  0  0  0
   -2.0678    1.6500    0.9564 H   0  0  0  0  0  0  0  0  0  0  0  0
   -0.3607    3.0246   -0.2516 H   0  0  0  0  0  0  0  0  0  0  0  0
    1.8186    1.8667   -0.3827 H   0  0  0  0  0  0  0  0  0  0  0  0
  2  3  1  0  0  0  0
  2  1  2  0  0  0  0
  3  9  1  0  0  0  0
  4  3  1  0  0  0  0
  4 11  1  0  0  0  0
  5  4  1  0  0  0  0
  6  5  2  0  0  0  0
  6  7  1  0  0  0  0
  7  2  1  0  0  0  0
  8  7  2  0  0  0  0
 10  4  1  0  0  0  0
 12  5  1  0  0  0  0
 13  6  1  0  0  0  0
M  END
