title
 OpenBabel02282109593D

 15 15  0  0  1  0  0  0  0  0999 V2000
   -0.4031    2.1896   -0.3448 N   0  0  0  0  0  0  0  0  0  0  0  0
   -0.3568    0.9322   -0.1542 C   0  0  1  0  0  0  0  0  0  0  0  0
   -1.5020    0.1674   -0.0502 N   0  0  0  0  0  0  0  0  0  0  0  0
   -1.4587   -1.1113    0.6371 C   0  0  0  0  0  0  0  0  0  0  0  0
   -0.3232   -1.9393    0.0488 C   0  0  0  0  0  0  0  0  0  0  0  0
    0.9069   -1.1633    0.0989 N   0  0  0  0  0  0  0  0  0  0  0  0
    0.9762    0.1859   -0.0839 C   0  0  0  0  0  0  0  0  0  0  0  0
    2.0278    0.7904   -0.1728 O   0  0  0  0  0  0  0  0  0  0  0  0
    0.5575    2.5245   -0.4446 H   0  0  0  0  0  0  0  0  0  0  0  0
   -2.3388    0.7239    0.0593 H   0  0  0  0  0  0  0  0  0  0  0  0
   -1.3080   -1.0027    1.7233 H   0  0  0  0  0  0  0  0  0  0  0  0
   -2.4083   -1.6298    0.4804 H   0  0  0  0  0  0  0  0  0  0  0  0
   -0.1880   -2.8550    0.6317 H   0  0  0  0  0  0  0  0  0  0  0  0
   -0.5712   -2.2254   -0.9830 H   0  0  0  0  0  0  0  0  0  0  0  0
    1.7954   -1.6416    0.0533 H   0  0  0  0  0  0  0  0  0  0  0  0
  2  1  1  6  0  0  0
  2  7  1  0  0  0  0
  2  3  1  0  0  0  0
  3 10  1  0  0  0  0
  3  4  1  0  0  0  0
  4 11  1  0  0  0  0
  5  6  1  0  0  0  0
  5 13  1  0  0  0  0
  5  4  1  0  0  0  0
  7  6  1  0  0  0  0
  8  7  2  0  0  0  0
  9  1  1  0  0  0  0
 12  4  1  0  0  0  0
 14  5  1  0  0  0  0
 15  6  1  0  0  0  0
M  RAD  2   1   2   2   2
M  END
