15
title
O -0.24710688 -2.184869 0.046191778
C -0.31688192 -0.98509383 0.06986309
C -1.627858 -0.22037767 -0.013499966
C -1.4560242 1.1053116 -0.76265556
C -0.38921288 1.9564958 -0.0795744
N 0.8487018 1.2030084 0.074170016
C 0.98876053 -0.15092157 0.21305485
O 2.0557098 -0.6871393 0.41855884
H -2.3810258 -0.8721529 -0.4631095
H -1.9500589 -0.017556896 1.0191426
H -1.1597122 0.91216063 -1.8003126
H -2.4002428 1.6570029 -0.79076904
H -0.17563449 2.8525252 -0.67100865
H -0.760892 2.2981024 0.89920676
H 1.7063419 1.716537 0.22510447
