14
title
O -0.27786106 -2.1296577 0.47772855
C -0.34875455 -0.9604939 0.21340401
C -1.65116 -0.24998716 -0.10685714
C -1.4086677 1.0248514 -0.9165655
C -0.36809447 1.8734502 -0.20634083
O 0.8957707 1.1981996 -0.07443141
C 0.97281986 -0.12479117 0.19509818
O 2.033923 -0.643677 0.38070253
H -2.3217843 -0.9600159 -0.59799397
H -2.1144764 0.0070942384 0.857086
H -1.053078 0.78103197 -1.924444
H -2.3333316 1.5996982 -1.0288138
H -0.13962209 2.787736 -0.7579765
H -0.7178089 2.1604896 0.7943629
