title
 OpenBabel02282109593D

 12 12  0  0  0  0  0  0  0  0999 V2000
   -0.3586   -1.9271    0.8880 O   0  0  0  0  0  0  0  0  0  0  0  0
   -0.3409   -0.8879    0.3033 C   0  0  0  0  0  0  0  0  0  0  0  0
   -1.4731   -0.3456   -0.2003 O   0  0  0  0  0  0  0  0  0  0  0  0
   -1.3606    0.9033   -0.8974 C   0  0  0  0  0  0  0  0  0  0  0  0
   -0.4015    1.8118   -0.1691 C   0  0  0  0  0  0  0  0  0  0  0  0
    0.9054    1.2204   -0.1433 O   0  0  0  0  0  0  0  0  0  0  0  0
    0.9883   -0.1097    0.0884 C   0  0  0  0  0  0  0  0  0  0  0  0
    2.0419   -0.6666    0.1308 O   0  0  0  0  0  0  0  0  0  0  0  0
   -1.0226    0.7242   -1.9251 H   0  0  0  0  0  0  0  0  0  0  0  0
   -2.3670    1.3263   -0.9253 H   0  0  0  0  0  0  0  0  0  0  0  0
   -0.2907    2.7689   -0.6832 H   0  0  0  0  0  0  0  0  0  0  0  0
   -0.7438    1.9975    0.8561 H   0  0  0  0  0  0  0  0  0  0  0  0
  2  1  2  0  0  0  0
  3  2  1  0  0  0  0
  4  3  1  0  0  0  0
  4  5  1  0  0  0  0
  5  6  1  0  0  0  0
  5 12  1  0  0  0  0
  6  7  1  0  0  0  0
  7  8  2  0  0  0  0
  7  2  1  0  0  0  0
  9  4  1  0  0  0  0
 10  4  1  0  0  0  0
 11  5  1  0  0  0  0
M  END
