title
 OpenBabel02282109593D

 20 20  0  0  0  0  0  0  0  0999 V2000
    0.3584    2.3868    0.4372 C   0  0  0  0  0  0  0  0  0  0  0  0
    0.1502    0.9034    0.2852 C   0  0  0  0  0  0  0  0  0  0  0  0
   -0.0821    0.2634   -0.8686 C   0  0  0  0  0  0  0  0  0  0  0  0
   -0.2410    0.8988   -2.2245 C   0  0  0  0  0  0  0  0  0  0  0  0
   -0.2168   -1.2454   -0.9043 C   0  0  0  0  0  0  0  0  0  0  0  0
    0.1740   -1.9111    0.2757 O   0  0  0  0  0  0  0  0  0  0  0  0
   -0.3485   -1.2798    1.4293 C   0  0  0  0  0  0  0  0  0  0  0  0
    0.2332    0.1223    1.5811 C   0  0  0  0  0  0  0  0  0  0  0  0
    1.2989    2.5851    0.9679 H   0  0  0  0  0  0  0  0  0  0  0  0
    0.3974    2.9229   -0.5119 H   0  0  0  0  0  0  0  0  0  0  0  0
   -0.4378    2.8344    1.0469 H   0  0  0  0  0  0  0  0  0  0  0  0
    0.5909    0.6285   -2.8885 H   0  0  0  0  0  0  0  0  0  0  0  0
   -1.1552    0.5365   -2.7132 H   0  0  0  0  0  0  0  0  0  0  0  0
   -0.3003    1.9870   -2.1875 H   0  0  0  0  0  0  0  0  0  0  0  0
   -1.2604   -1.5082   -1.1675 H   0  0  0  0  0  0  0  0  0  0  0  0
    0.4153   -1.6525   -1.7041 H   0  0  0  0  0  0  0  0  0  0  0  0
   -1.4491   -1.2262    1.3710 H   0  0  0  0  0  0  0  0  0  0  0  0
   -0.0875   -1.9185    2.2781 H   0  0  0  0  0  0  0  0  0  0  0  0
    1.2794    0.0609    1.9135 H   0  0  0  0  0  0  0  0  0  0  0  0
   -0.3055    0.6601    2.3736 H   0  0  0  0  0  0  0  0  0  0  0  0
  1  9  1  0  0  0  0
  1 11  1  0  0  0  0
  2  1  1  0  0  0  0
  2  8  1  0  0  0  0
  3  2  2  0  0  0  0
  4 14  1  0  0  0  0
  4  3  1  0  0  0  0
  5  3  1  0  0  0  0
  5  6  1  0  0  0  0
  6  7  1  0  0  0  0
  7  8  1  0  0  0  0
  7 18  1  0  0  0  0
  8 19  1  0  0  0  0
  8 20  1  0  0  0  0
 10  1  1  0  0  0  0
 12  4  1  0  0  0  0
 13  4  1  0  0  0  0
 15  5  1  0  0  0  0
 16  5  1  0  0  0  0
 17  7  1  0  0  0  0
M  END
