title
 OpenBabel02282109593D

 14 14  0  0  0  0  0  0  0  0999 V2000
   -0.2779   -2.1297    0.4777 O   0  0  0  0  0  0  0  0  0  0  0  0
   -0.3488   -0.9605    0.2134 C   0  0  0  0  0  0  0  0  0  0  0  0
   -1.6512   -0.2500   -0.1069 C   0  0  0  0  0  0  0  0  0  0  0  0
   -1.4087    1.0249   -0.9166 C   0  0  0  0  0  0  0  0  0  0  0  0
   -0.3681    1.8735   -0.2063 C   0  0  0  0  0  0  0  0  0  0  0  0
    0.8958    1.1982   -0.0744 O   0  0  0  0  0  0  0  0  0  0  0  0
    0.9728   -0.1248    0.1951 C   0  0  0  0  0  0  0  0  0  0  0  0
    2.0339   -0.6437    0.3807 O   0  0  0  0  0  0  0  0  0  0  0  0
   -2.3218   -0.9600   -0.5980 H   0  0  0  0  0  0  0  0  0  0  0  0
   -2.1145    0.0071    0.8571 H   0  0  0  0  0  0  0  0  0  0  0  0
   -1.0531    0.7810   -1.9244 H   0  0  0  0  0  0  0  0  0  0  0  0
   -2.3333    1.5997   -1.0288 H   0  0  0  0  0  0  0  0  0  0  0  0
   -0.1396    2.7877   -0.7580 H   0  0  0  0  0  0  0  0  0  0  0  0
   -0.7178    2.1605    0.7944 H   0  0  0  0  0  0  0  0  0  0  0  0
  2  1  2  0  0  0  0
  3  2  1  0  0  0  0
  3 10  1  0  0  0  0
  4  5  1  0  0  0  0
  4  3  1  0  0  0  0
  5  6  1  0  0  0  0
  5 14  1  0  0  0  0
  6  7  1  0  0  0  0
  7  2  1  0  0  0  0
  7  8  2  0  0  0  0
  9  3  1  0  0  0  0
 11  4  1  0  0  0  0
 12  4  1  0  0  0  0
 13  5  1  0  0  0  0
M  END
