title
 OpenBabel02282109593D

 14 14  0  0  0  0  0  0  0  0999 V2000
   -0.3253   -2.1550   -0.2502 O   0  0  0  0  0  0  0  0  0  0  0  0
   -0.3293   -0.9516   -0.1360 C   0  0  0  0  0  0  0  0  0  0  0  0
   -1.4760   -0.2103   -0.0183 N   0  0  0  0  0  0  0  0  0  0  0  0
   -1.5150    1.2415   -0.0804 C   0  0  0  0  0  0  0  0  0  0  0  0
   -0.3347    1.7989    0.7035 C   0  0  0  0  0  0  0  0  0  0  0  0
    0.8867    1.1789    0.2168 N   0  0  0  0  0  0  0  0  0  0  0  0
    1.0006   -0.1519   -0.0903 C   0  0  0  0  0  0  0  0  0  0  0  0
    2.0558   -0.6895   -0.3326 O   0  0  0  0  0  0  0  0  0  0  0  0
   -2.3282   -0.7339   -0.1617 H   0  0  0  0  0  0  0  0  0  0  0  0
   -1.4756    1.6046   -1.1177 H   0  0  0  0  0  0  0  0  0  0  0  0
   -2.4519    1.5901    0.3628 H   0  0  0  0  0  0  0  0  0  0  0  0
   -0.2676    2.8799    0.5534 H   0  0  0  0  0  0  0  0  0  0  0  0
   -0.4832    1.6149    1.7776 H   0  0  0  0  0  0  0  0  0  0  0  0
    1.7687    1.6537    0.3502 H   0  0  0  0  0  0  0  0  0  0  0  0
  1  2  2  0  0  0  0
  2  7  1  0  0  0  0
  2  3  1  0  0  0  0
  4  3  1  0  0  0  0
  4 11  1  0  0  0  0
  4  5  1  0  0  0  0
  5 13  1  0  0  0  0
  6 14  1  0  0  0  0
  6  5  1  0  0  0  0
  7  6  1  0  0  0  0
  8  7  2  0  0  0  0
  9  3  1  0  0  0  0
 10  4  1  0  0  0  0
 12  5  1  0  0  0  0
M  END
