22
title
C 0.004519946 2.3692257 0.49409735
C -0.0034938997 0.87340593 0.3001345
C -0.041931182 0.2500475 -0.888066
C -0.13858594 0.9400329 -2.22587
C 6.116722e-06 -1.2625268 -1.0061864
C 0.4306368 -1.979317 0.27636164
C -0.29468587 -1.3783824 1.4807762
C 0.046763662 0.10850786 1.6100941
H 0.83628696 2.6612399 1.1489855
H 0.10342275 2.9358497 -0.43216398
H -0.911973 2.7044053 0.9982616
H -0.3028874 2.0158265 -2.1589956
H 0.7704924 0.77395654 -2.819565
H -0.9657755 0.5164951 -2.8109963
H -0.99348193 -1.6217484 -1.318417
H 0.6717187 -1.5346057 -1.8319836
H 0.23505698 -3.054084 0.19299378
H 1.5141399 -1.8655138 0.41352883
H -1.3780735 -1.4950521 1.3451126
H -0.03417127 -1.9080467 2.4037683
H 1.0501341 0.22372405 2.0500023
H -0.63337225 0.58896625 2.3268523
