title
 OpenBabel02282109593D

 18 18  0  0  0  0  0  0  0  0999 V2000
   -0.0572    2.4038   -0.2818 C   0  0  0  0  0  0  0  0  0  0  0  0
   -0.0651    0.9018   -0.3509 C   0  0  0  0  0  0  0  0  0  0  0  0
   -0.1138    0.2120   -1.5027 C   0  0  0  0  0  0  0  0  0  0  0  0
   -0.0882   -1.2872   -1.6063 C   0  0  0  0  0  0  0  0  0  0  0  0
    0.4746   -1.9403   -0.3392 C   0  0  0  0  0  0  0  0  0  0  0  0
   -0.1743   -1.3352    0.9092 C   0  0  0  0  0  0  0  0  0  0  0  0
   -0.0364    0.1818    0.9532 C   0  0  0  0  0  0  0  0  0  0  0  0
    0.0510    0.7857    2.0050 O   0  0  0  0  0  0  0  0  0  0  0  0
    0.8413    2.7632    0.2300 H   0  0  0  0  0  0  0  0  0  0  0  0
   -0.0956    2.8470   -1.2802 H   0  0  0  0  0  0  0  0  0  0  0  0
   -0.9063    2.7724    0.3030 H   0  0  0  0  0  0  0  0  0  0  0  0
   -0.1788    0.7628   -2.4402 H   0  0  0  0  0  0  0  0  0  0  0  0
   -1.1110   -1.6497   -1.7970 H   0  0  0  0  0  0  0  0  0  0  0  0
    0.4936   -1.5844   -2.4869 H   0  0  0  0  0  0  0  0  0  0  0  0
    0.3246   -3.0244   -0.3646 H   0  0  0  0  0  0  0  0  0  0  0  0
    1.5576   -1.7695   -0.3014 H   0  0  0  0  0  0  0  0  0  0  0  0
   -1.2513   -1.5603    0.9123 H   0  0  0  0  0  0  0  0  0  0  0  0
    0.2371   -1.7407    1.8369 H   0  0  0  0  0  0  0  0  0  0  0  0
  1  9  1  0  0  0  0
  1 11  1  0  0  0  0
  2  1  1  0  0  0  0
  2  7  1  0  0  0  0
  3  2  2  0  0  0  0
  4  3  1  0  0  0  0
  4  5  1  0  0  0  0
  5 16  1  0  0  0  0
  5  6  1  0  0  0  0
  6 17  1  0  0  0  0
  6  7  1  0  0  0  0
  6 18  1  0  0  0  0
  7  8  2  0  0  0  0
 10  1  1  0  0  0  0
 12  3  1  0  0  0  0
 13  4  1  0  0  0  0
 14  4  1  0  0  0  0
 15  5  1  0  0  0  0
M  END
