title
 OpenBabel02282109593D

 16 16  0  0  0  0  0  0  0  0999 V2000
   -0.3099    2.2045    0.1047 N   0  0  0  0  0  0  0  0  0  0  0  0
   -0.3936    0.8414    0.0594 C   0  0  0  0  0  0  0  0  0  0  0  0
   -1.5185    0.2288    0.0386 N   0  0  0  0  0  0  0  0  0  0  0  0
   -1.5472   -1.2255    0.0446 C   0  0  0  0  0  0  0  0  0  0  0  0
   -0.2858   -1.9064   -0.4961 C   0  0  0  0  0  0  0  0  0  0  0  0
    0.9509   -1.3354    0.2065 C   0  0  0  0  0  0  0  0  0  0  0  0
    0.9719    0.1688    0.0751 C   0  0  0  0  0  0  0  0  0  0  0  0
    1.9840    0.8302   -0.0099 O   0  0  0  0  0  0  0  0  0  0  0  0
    0.5896    2.6017   -0.1142 H   0  0  0  0  0  0  0  0  0  0  0  0
   -1.1382    2.7273   -0.1260 H   0  0  0  0  0  0  0  0  0  0  0  0
   -1.7357   -1.5650    1.0762 H   0  0  0  0  0  0  0  0  0  0  0  0
   -2.4224   -1.5436   -0.5335 H   0  0  0  0  0  0  0  0  0  0  0  0
   -0.3446   -2.9912   -0.3583 H   0  0  0  0  0  0  0  0  0  0  0  0
   -0.2097   -1.7229   -1.5754 H   0  0  0  0  0  0  0  0  0  0  0  0
    0.9022   -1.5645    1.2821 H   0  0  0  0  0  0  0  0  0  0  0  0
    1.8961   -1.7370   -0.1677 H   0  0  0  0  0  0  0  0  0  0  0  0
  2  7  1  0  0  0  0
  2  1  1  0  0  0  0
  3  4  1  0  0  0  0
  3  2  2  0  0  0  0
  4 11  1  0  0  0  0
  5 13  1  0  0  0  0
  5  4  1  0  0  0  0
  5  6  1  0  0  0  0
  6 15  1  0  0  0  0
  7  6  1  0  0  0  0
  8  7  2  0  0  0  0
  9  1  1  0  0  0  0
 10  1  1  0  0  0  0
 12  4  1  0  0  0  0
 14  5  1  0  0  0  0
 16  6  1  0  0  0  0
M  END
