title
 OpenBabel02282109593D

 17 17  0  0  0  0  0  0  0  0999 V2000
   -0.3685    2.3864   -0.0040 C   0  0  0  0  0  0  0  0  0  0  0  0
   -0.3944    0.8852    0.0550 C   0  0  0  0  0  0  0  0  0  0  0  0
   -1.5158    0.1703    0.2156 C   0  0  0  0  0  0  0  0  0  0  0  0
   -1.4998   -1.3306    0.2606 C   0  0  0  0  0  0  0  0  0  0  0  0
   -0.2681   -1.8348   -0.4775 C   0  0  0  0  0  0  0  0  0  0  0  0
    0.9213   -1.1736   -0.0335 O   0  0  0  0  0  0  0  0  0  0  0  0
    0.9135    0.1931   -0.0048 C   0  0  0  0  0  0  0  0  0  0  0  0
    2.0012    0.8510    0.0360 N   0  0  0  0  0  0  0  0  0  0  0  0
    0.2573    2.7949    0.7944 H   0  0  0  0  0  0  0  0  0  0  0  0
    0.0722    2.7328   -0.9442 H   0  0  0  0  0  0  0  0  0  0  0  0
   -1.3784    2.7955    0.0847 H   0  0  0  0  0  0  0  0  0  0  0  0
   -2.4691    0.6801    0.3286 H   0  0  0  0  0  0  0  0  0  0  0  0
   -1.4987   -1.6859    1.3009 H   0  0  0  0  0  0  0  0  0  0  0  0
   -2.3994   -1.7464   -0.2079 H   0  0  0  0  0  0  0  0  0  0  0  0
   -0.0889   -2.8989   -0.3074 H   0  0  0  0  0  0  0  0  0  0  0  0
   -0.3879   -1.6714   -1.5574 H   0  0  0  0  0  0  0  0  0  0  0  0
    2.7945    0.2073    0.0031 H   0  0  0  0  0  0  0  0  0  0  0  0
  1  2  1  0  0  0  0
  1 11  1  0  0  0  0
  1  9  1  0  0  0  0
  2  3  2  0  0  0  0
  3  4  1  0  0  0  0
  3 12  1  0  0  0  0
  4 13  1  0  0  0  0
  5 15  1  0  0  0  0
  5  6  1  0  0  0  0
  5  4  1  0  0  0  0
  6  7  1  0  0  0  0
  7  8  2  0  0  0  0
  7  2  1  0  0  0  0
 10  1  1  0  0  0  0
 14  4  1  0  0  0  0
 16  5  1  0  0  0  0
 17  8  1  0  0  0  0
M  END
