title
 OpenBabel02282109593D

 15 15  0  0  0  0  0  0  0  0999 V2000
   -0.3441    2.1868   -0.1541 N   0  0  0  0  0  0  0  0  0  0  0  0
   -0.4131    0.8335    0.0150 C   0  0  0  0  0  0  0  0  0  0  0  0
   -1.5288    0.2162    0.1403 N   0  0  0  0  0  0  0  0  0  0  0  0
   -1.4607   -1.2324    0.2404 C   0  0  0  0  0  0  0  0  0  0  0  0
   -0.2696   -1.8033   -0.5058 C   0  0  0  0  0  0  0  0  0  0  0  0
    0.9514   -1.1830   -0.0556 O   0  0  0  0  0  0  0  0  0  0  0  0
    0.9336    0.1607    0.0591 C   0  0  0  0  0  0  0  0  0  0  0  0
    1.9776    0.8525    0.2663 N   0  0  0  0  0  0  0  0  0  0  0  0
    0.5472    2.6053    0.0661 H   0  0  0  0  0  0  0  0  0  0  0  0
   -1.1794    2.7028    0.0726 H   0  0  0  0  0  0  0  0  0  0  0  0
   -1.4233   -1.5359    1.2975 H   0  0  0  0  0  0  0  0  0  0  0  0
   -2.3811   -1.6617   -0.1728 H   0  0  0  0  0  0  0  0  0  0  0  0
   -0.1343   -2.8730   -0.3314 H   0  0  0  0  0  0  0  0  0  0  0  0
   -0.3746   -1.6298   -1.5845 H   0  0  0  0  0  0  0  0  0  0  0  0
    2.8058    0.2560    0.3054 H   0  0  0  0  0  0  0  0  0  0  0  0
  1  2  1  0  0  0  0
  1  9  1  0  0  0  0
  1 10  1  0  0  0  0
  2  7  1  0  0  0  0
  2  3  2  0  0  0  0
  3  4  1  0  0  0  0
  4 11  1  0  0  0  0
  5 13  1  0  0  0  0
  5  6  1  0  0  0  0
  5  4  1  0  0  0  0
  6  7  1  0  0  0  0
  7  8  2  0  0  0  0
  8 15  1  0  0  0  0
 12  4  1  0  0  0  0
 14  5  1  0  0  0  0
M  END
