title
 OpenBabel02282109593D

 17 17  0  0  0  0  0  0  0  0999 V2000
   -0.3554    2.3702    0.2132 C   0  0  0  0  0  0  0  0  0  0  0  0
   -0.3988    0.8719    0.1319 C   0  0  0  0  0  0  0  0  0  0  0  0
   -1.5193    0.1442    0.2157 C   0  0  0  0  0  0  0  0  0  0  0  0
   -1.5164   -1.3593    0.1542 C   0  0  0  0  0  0  0  0  0  0  0  0
   -0.3017   -1.8615   -0.6257 C   0  0  0  0  0  0  0  0  0  0  0  0
    0.8935   -1.1688   -0.1667 N   0  0  0  0  0  0  0  0  0  0  0  0
    0.9311    0.1930    0.0125 C   0  0  0  0  0  0  0  0  0  0  0  0
    1.9836    0.8036    0.1095 O   0  0  0  0  0  0  0  0  0  0  0  0
    0.2900    2.6919    1.0360 H   0  0  0  0  0  0  0  0  0  0  0  0
    0.0768    2.7994   -0.6971 H   0  0  0  0  0  0  0  0  0  0  0  0
   -1.3559    2.7862    0.3566 H   0  0  0  0  0  0  0  0  0  0  0  0
   -2.4750    0.6413    0.3688 H   0  0  0  0  0  0  0  0  0  0  0  0
   -1.5064   -1.7690    1.1750 H   0  0  0  0  0  0  0  0  0  0  0  0
   -2.4327   -1.7286   -0.3184 H   0  0  0  0  0  0  0  0  0  0  0  0
   -0.1631   -2.9362   -0.4769 H   0  0  0  0  0  0  0  0  0  0  0  0
   -0.4676   -1.6965   -1.7024 H   0  0  0  0  0  0  0  0  0  0  0  0
    1.7953   -1.5729   -0.3745 H   0  0  0  0  0  0  0  0  0  0  0  0
  1 11  1  0  0  0  0
  1  9  1  0  0  0  0
  2  1  1  0  0  0  0
  2  3  2  0  0  0  0
  3 12  1  0  0  0  0
  4  3  1  0  0  0  0
  4 13  1  0  0  0  0
  5 15  1  0  0  0  0
  5  6  1  0  0  0  0
  5  4  1  0  0  0  0
  6  7  1  0  0  0  0
  7  8  2  0  0  0  0
  7  2  1  0  0  0  0
 10  1  1  0  0  0  0
 14  4  1  0  0  0  0
 16  5  1  0  0  0  0
 17  6  1  0  0  0  0
M  END
