title
 OpenBabel02282109593D

 15 15  0  0  0  0  0  0  0  0999 V2000
   -0.3288    2.1785    0.0949 N   0  0  0  0  0  0  0  0  0  0  0  0
   -0.4216    0.8184    0.0968 C   0  0  0  0  0  0  0  0  0  0  0  0
   -1.5399    0.1957    0.1086 N   0  0  0  0  0  0  0  0  0  0  0  0
   -1.4901   -1.2583    0.0835 C   0  0  0  0  0  0  0  0  0  0  0  0
   -0.2852   -1.8221   -0.6684 C   0  0  0  0  0  0  0  0  0  0  0  0
    0.9229   -1.1706   -0.1732 N   0  0  0  0  0  0  0  0  0  0  0  0
    0.9529    0.1584    0.0908 C   0  0  0  0  0  0  0  0  0  0  0  0
    1.9671    0.7899    0.3408 O   0  0  0  0  0  0  0  0  0  0  0  0
    0.5722    2.5468    0.3601 H   0  0  0  0  0  0  0  0  0  0  0  0
   -1.1547    2.6957    0.3483 H   0  0  0  0  0  0  0  0  0  0  0  0
   -1.4892   -1.6400    1.1159 H   0  0  0  0  0  0  0  0  0  0  0  0
   -2.4072   -1.6319   -0.3845 H   0  0  0  0  0  0  0  0  0  0  0  0
   -0.1979   -2.9005   -0.5067 H   0  0  0  0  0  0  0  0  0  0  0  0
   -0.4029   -1.6531   -1.7489 H   0  0  0  0  0  0  0  0  0  0  0  0
    1.8229   -1.6157   -0.2790 H   0  0  0  0  0  0  0  0  0  0  0  0
  1  2  1  0  0  0  0
  1 10  1  0  0  0  0
  1  9  1  0  0  0  0
  2  3  2  0  0  0  0
  4  3  1  0  0  0  0
  4 11  1  0  0  0  0
  5 13  1  0  0  0  0
  5  6  1  0  0  0  0
  5  4  1  0  0  0  0
  6  7  1  0  0  0  0
  7  2  1  0  0  0  0
  7  8  2  0  0  0  0
 12  4  1  0  0  0  0
 14  5  1  0  0  0  0
 15  6  1  0  0  0  0
M  END
