title
 OpenBabel02282109593D

 17 17  0  0  1  0  0  0  0  0999 V2000
   -1.1641    1.8878   -0.3044 C   0  0  0  0  0  0  0  0  0  0  0  0
   -0.9960    0.3509   -0.3483 C   0  0  1  0  0  0  0  0  0  0  0  0
   -0.2807   -0.0849   -1.5941 C   0  0  0  0  0  0  0  0  0  0  0  0
    0.9280   -0.6314   -1.5696 C   0  0  0  0  0  0  0  0  0  0  0  0
    1.6715   -0.8783   -0.2995 C   0  0  0  0  0  0  0  0  0  0  0  0
    1.0121   -0.4385    0.8895 O   0  0  0  0  0  0  0  0  0  0  0  0
   -0.3175   -0.1330    0.9204 C   0  0  0  0  0  0  0  0  0  0  0  0
   -0.9624   -0.1584    2.0100 N   0  0  0  0  0  0  0  0  0  0  0  0
   -0.1893    2.3833   -0.2613 H   0  0  0  0  0  0  0  0  0  0  0  0
   -1.6832    2.2394   -1.2019 H   0  0  0  0  0  0  0  0  0  0  0  0
   -1.7436    2.1745    0.5755 H   0  0  0  0  0  0  0  0  0  0  0  0
   -2.0014   -0.0848   -0.3351 H   0  0  0  0  0  0  0  0  0  0  0  0
   -0.7913    0.0893   -2.5376 H   0  0  0  0  0  0  0  0  0  0  0  0
    1.4382   -0.9327   -2.4800 H   0  0  0  0  0  0  0  0  0  0  0  0
    1.8835   -1.9522   -0.1843 H   0  0  0  0  0  0  0  0  0  0  0  0
    2.6444   -0.3695   -0.3174 H   0  0  0  0  0  0  0  0  0  0  0  0
   -0.3561   -0.4769    2.7687 H   0  0  0  0  0  0  0  0  0  0  0  0
  1  9  1  0  0  0  0
  1 11  1  0  0  0  0
  2 12  1  6  0  0  0
  2  1  1  0  0  0  0
  2  7  1  0  0  0  0
  3  4  2  0  0  0  0
  3  2  1  0  0  0  0
  4  5  1  0  0  0  0
  5 15  1  0  0  0  0
  5  6  1  0  0  0  0
  6  7  1  0  0  0  0
  7  8  2  0  0  0  0
  8 17  1  0  0  0  0
 10  1  1  0  0  0  0
 13  3  1  0  0  0  0
 14  4  1  0  0  0  0
 16  5  1  0  0  0  0
M  END
