17
title
C -1.4108318 1.7768755 -0.27533525
C -0.9875004 0.2948353 -0.33374384
C -0.2366999 -0.030651083 -1.594122
C 0.96792287 -0.5888934 -1.6179634
C 1.716885 -0.9762648 -0.3822804
N 0.9831254 -0.65668637 0.82731986
C -0.24538095 -0.07609796 0.95171595
O -0.73473257 0.13920516 2.0472248
H -0.5360448 2.4336782 -0.31651613
H -2.0602357 2.0237076 -1.1208271
H -1.9471941 1.968777 0.65538347
H -1.9121922 -0.3004732 -0.3078422
H -0.7320928 0.22671497 -2.5278816
H 1.4706439 -0.7973164 -2.5575469
H 1.9397801 -2.0548296 -0.41112134
H 2.6956866 -0.47083998 -0.3713221
H 1.412763 -0.87760884 1.714317
