15
title
N 0.48620692 1.575699 1.6039253
C 0.11600687 0.30095732 0.9962396
C -1.3696798 0.2007151 0.79330325
C -1.8780316 -0.55884314 -0.16832986
C -0.9948117 -1.3230296 -1.1032453
O 0.33733517 -0.80366564 -1.2263334
C 0.8947647 0.0053545316 -0.30056253
O 1.9871228 0.4649072 -0.5026942
H 1.5019568 1.6287532 1.6209223
H 0.19520847 2.329198 0.9844439
H 0.4221652 -0.48927554 1.7021546
H -1.9910375 0.7600878 1.4855293
H -2.9484496 -0.6736187 -0.30745712
H -0.9209543 -2.3779175 -0.8003413
H -1.4004886 -1.3138777 -2.1204937
