title
 OpenBabel02282109593D

 15 15  0  0  1  0  0  0  0  0999 V2000
    0.4862    1.5757    1.6039 N   0  0  0  0  0  0  0  0  0  0  0  0
    0.1160    0.3010    0.9962 C   0  0  1  0  0  0  0  0  0  0  0  0
   -1.3697    0.2007    0.7933 C   0  0  0  0  0  0  0  0  0  0  0  0
   -1.8780   -0.5588   -0.1683 C   0  0  0  0  0  0  0  0  0  0  0  0
   -0.9948   -1.3230   -1.1032 C   0  0  0  0  0  0  0  0  0  0  0  0
    0.3373   -0.8037   -1.2263 O   0  0  0  0  0  0  0  0  0  0  0  0
    0.8948    0.0054   -0.3006 C   0  0  0  0  0  0  0  0  0  0  0  0
    1.9871    0.4649   -0.5027 O   0  0  0  0  0  0  0  0  0  0  0  0
    1.5020    1.6288    1.6209 H   0  0  0  0  0  0  0  0  0  0  0  0
    0.1952    2.3292    0.9844 H   0  0  0  0  0  0  0  0  0  0  0  0
    0.4222   -0.4893    1.7022 H   0  0  0  0  0  0  0  0  0  0  0  0
   -1.9910    0.7601    1.4855 H   0  0  0  0  0  0  0  0  0  0  0  0
   -2.9484   -0.6736   -0.3075 H   0  0  0  0  0  0  0  0  0  0  0  0
   -0.9210   -2.3779   -0.8003 H   0  0  0  0  0  0  0  0  0  0  0  0
   -1.4005   -1.3139   -2.1205 H   0  0  0  0  0  0  0  0  0  0  0  0
  1  9  1  0  0  0  0
  2  1  1  0  0  0  0
  2 11  1  1  0  0  0
  3  2  1  0  0  0  0
  3 12  1  0  0  0  0
  4  3  2  0  0  0  0
  5 14  1  0  0  0  0
  5  4  1  0  0  0  0
  6  5  1  0  0  0  0
  6  7  1  0  0  0  0
  7  2  1  0  0  0  0
  8  7  2  0  0  0  0
 10  1  1  0  0  0  0
 13  4  1  0  0  0  0
 15  5  1  0  0  0  0
M  END
