15
title
O 1.283494 1.22579 -1.2917101
C 0.8082945 0.07425583 -0.64062214
C 1.4008932 -0.063770264 0.7337957
C 0.7324074 -0.63887 1.7266134
C -0.6785826 -1.1308582 1.5749525
N -1.3274289 -0.5859871 0.38945812
C -0.72351557 0.112706296 -0.6013074
O -1.334587 0.73862964 -1.4545023
H 0.5299496 1.5313686 -1.8224126
H 1.0743386 -0.8282185 -1.2264161
H 2.4175448 0.29571545 0.85691875
H 1.186213 -0.7908783 2.7008286
H -0.6931973 -2.2324357 1.5519289
H -1.2657435 -0.8399194 2.4560192
H -2.3365684 -0.55257857 0.3736109
