title
 OpenBabel02282109593D

 16 16  0  0  0  0  0  0  0  0999 V2000
   -0.3812    2.2443    0.0148 C   0  0  0  0  0  0  0  0  0  0  0  0
   -0.3158    0.7970    0.0067 N   0  0  0  0  0  0  0  0  0  0  0  0
   -1.6067    0.1079    0.0101 C   0  0  0  0  0  0  0  0  0  0  0  0
   -1.4634   -1.3836    0.0016 C   0  0  0  0  0  0  0  0  0  0  0  0
   -0.2592   -1.9516   -0.0090 C   0  0  0  0  0  0  0  0  0  0  0  0
    0.9003   -1.1924   -0.0123 N   0  0  0  0  0  0  0  0  0  0  0  0
    0.9188    0.1963   -0.0044 C   0  0  0  0  0  0  0  0  0  0  0  0
    1.9768    0.8037   -0.0080 O   0  0  0  0  0  0  0  0  0  0  0  0
    0.6338    2.6370    0.0100 H   0  0  0  0  0  0  0  0  0  0  0  0
   -0.9218    2.6118   -0.8678 H   0  0  0  0  0  0  0  0  0  0  0  0
   -0.9097    2.6025    0.9086 H   0  0  0  0  0  0  0  0  0  0  0  0
   -2.1832    0.4385    0.8922 H   0  0  0  0  0  0  0  0  0  0  0  0
   -2.1929    0.4477   -0.8621 H   0  0  0  0  0  0  0  0  0  0  0  0
   -2.3619   -1.9857    0.0041 H   0  0  0  0  0  0  0  0  0  0  0  0
   -0.1097   -3.0248   -0.0156 H   0  0  0  0  0  0  0  0  0  0  0  0
    1.8113   -1.6171   -0.0203 H   0  0  0  0  0  0  0  0  0  0  0  0
  1 11  1  0  0  0  0
  2  3  1  0  0  0  0
  2  1  1  0  0  0  0
  3 12  1  0  0  0  0
  4 14  1  0  0  0  0
  4  3  1  0  0  0  0
  5  4  2  0  0  0  0
  6  5  1  0  0  0  0
  6  7  1  0  0  0  0
  7  2  1  0  0  0  0
  8  7  2  0  0  0  0
  9  1  1  0  0  0  0
 10  1  1  0  0  0  0
 13  3  1  0  0  0  0
 15  5  1  0  0  0  0
 16  6  1  0  0  0  0
M  END
