18
title
C -0.7827782 2.2346852 -0.31684247
C -0.65508735 0.71361196 -0.3033067
C 0.042193703 0.15378943 -1.5658457
C 0.31842524 -1.3225533 -1.4691578
C 0.37033457 -1.9822091 -0.3135687
C 0.19938944 -1.3184911 1.0285022
C 0.059559815 0.19830474 0.9413265
O 0.48142987 0.9280218 1.8082027
H 0.20391046 2.7070928 -0.31905735
H -1.3272878 2.5681973 -1.2057801
H -1.3112428 2.5930924 0.569588
H -1.6566198 0.25654596 -0.27610505
H -0.5831374 0.36520046 -2.4417992
H 0.98106855 0.70142025 -1.7385992
H 0.4841823 -1.8563889 -2.4015064
H 0.56754786 -3.0512798 -0.3039905
H -0.6976008 -1.7086164 1.5351905
H 1.0356939 -1.5420552 1.7003772
