14
title
O 0.5968788 1.2854401 1.696274
C 0.123589635 0.17085494 0.9932947
C -1.3638049 0.22636448 0.76428574
C -1.8891265 -0.50383973 -0.21193942
C -0.991405 -1.3205228 -1.0943365
O 0.31458285 -0.7335988 -1.2878165
C 0.8524667 0.05248118 -0.3483201
O 1.880924 0.64800906 -0.5498881
H 1.4186969 1.5400027 1.2478803
H 0.35629937 -0.76028216 1.5486165
H -1.9455669 0.8543748 1.4295298
H -2.955138 -0.543264 -0.40795848
H -0.8506366 -2.3360453 -0.697486
H -1.4007062 -1.4188144 -2.1029196
