title
 OpenBabel02282109593D

 18 18  0  0  1  0  0  0  0  0999 V2000
   -0.7828    2.2347   -0.3168 C   0  0  0  0  0  0  0  0  0  0  0  0
   -0.6551    0.7136   -0.3033 C   0  0  1  0  0  0  0  0  0  0  0  0
    0.0422    0.1538   -1.5658 C   0  0  0  0  0  0  0  0  0  0  0  0
    0.3184   -1.3226   -1.4692 C   0  0  0  0  0  0  0  0  0  0  0  0
    0.3703   -1.9822   -0.3136 C   0  0  0  0  0  0  0  0  0  0  0  0
    0.1994   -1.3185    1.0285 C   0  0  0  0  0  0  0  0  0  0  0  0
    0.0596    0.1983    0.9413 C   0  0  0  0  0  0  0  0  0  0  0  0
    0.4814    0.9280    1.8082 O   0  0  0  0  0  0  0  0  0  0  0  0
    0.2039    2.7071   -0.3191 H   0  0  0  0  0  0  0  0  0  0  0  0
   -1.3273    2.5682   -1.2058 H   0  0  0  0  0  0  0  0  0  0  0  0
   -1.3112    2.5931    0.5696 H   0  0  0  0  0  0  0  0  0  0  0  0
   -1.6566    0.2565   -0.2761 H   0  0  0  0  0  0  0  0  0  0  0  0
   -0.5831    0.3652   -2.4418 H   0  0  0  0  0  0  0  0  0  0  0  0
    0.9811    0.7014   -1.7386 H   0  0  0  0  0  0  0  0  0  0  0  0
    0.4842   -1.8564   -2.4015 H   0  0  0  0  0  0  0  0  0  0  0  0
    0.5675   -3.0513   -0.3040 H   0  0  0  0  0  0  0  0  0  0  0  0
   -0.6976   -1.7086    1.5352 H   0  0  0  0  0  0  0  0  0  0  0  0
    1.0357   -1.5421    1.7004 H   0  0  0  0  0  0  0  0  0  0  0  0
  1  2  1  0  0  0  0
  1 11  1  0  0  0  0
  2 12  1  1  0  0  0
  2  7  1  0  0  0  0
  3  4  1  0  0  0  0
  3  2  1  0  0  0  0
  4  5  2  0  0  0  0
  5 16  1  0  0  0  0
  5  6  1  0  0  0  0
  6 17  1  0  0  0  0
  6 18  1  0  0  0  0
  7  6  1  0  0  0  0
  7  8  2  0  0  0  0
  9  1  1  0  0  0  0
 10  1  1  0  0  0  0
 13  3  1  0  0  0  0
 14  3  1  0  0  0  0
 15  4  1  0  0  0  0
M  END
