title
 OpenBabel02282109593D

 14 14  0  0  1  0  0  0  0  0999 V2000
    0.5969    1.2854    1.6963 O   0  0  0  0  0  0  0  0  0  0  0  0
    0.1236    0.1709    0.9933 C   0  0  1  0  0  0  0  0  0  0  0  0
   -1.3638    0.2264    0.7643 C   0  0  0  0  0  0  0  0  0  0  0  0
   -1.8891   -0.5038   -0.2119 C   0  0  0  0  0  0  0  0  0  0  0  0
   -0.9914   -1.3205   -1.0943 C   0  0  0  0  0  0  0  0  0  0  0  0
    0.3146   -0.7336   -1.2878 O   0  0  0  0  0  0  0  0  0  0  0  0
    0.8525    0.0525   -0.3483 C   0  0  0  0  0  0  0  0  0  0  0  0
    1.8809    0.6480   -0.5499 O   0  0  0  0  0  0  0  0  0  0  0  0
    1.4187    1.5400    1.2479 H   0  0  0  0  0  0  0  0  0  0  0  0
    0.3563   -0.7603    1.5486 H   0  0  0  0  0  0  0  0  0  0  0  0
   -1.9456    0.8544    1.4295 H   0  0  0  0  0  0  0  0  0  0  0  0
   -2.9551   -0.5433   -0.4080 H   0  0  0  0  0  0  0  0  0  0  0  0
   -0.8506   -2.3360   -0.6975 H   0  0  0  0  0  0  0  0  0  0  0  0
   -1.4007   -1.4188   -2.1029 H   0  0  0  0  0  0  0  0  0  0  0  0
  2 10  1  1  0  0  0
  2  1  1  0  0  0  0
  3  2  1  0  0  0  0
  3 11  1  0  0  0  0
  4  3  2  0  0  0  0
  5 13  1  0  0  0  0
  5  4  1  0  0  0  0
  6  5  1  0  0  0  0
  6  7  1  0  0  0  0
  7  2  1  0  0  0  0
  8  7  2  0  0  0  0
  9  1  1  0  0  0  0
 12  4  1  0  0  0  0
 14  5  1  0  0  0  0
M  END
