title
 OpenBabel02282109593D

 22 22  0  0  1  0  0  0  0  0999 V2000
   -0.8183    2.3057   -0.2104 C   0  0  0  0  0  0  0  0  0  0  0  0
   -0.7328    0.7768   -0.1748 C   0  0  1  0  0  0  0  0  0  0  0  0
   -0.1188    0.2104   -1.4678 C   0  0  0  0  0  0  0  0  0  0  0  0
    0.1474   -1.2688   -1.3797 C   0  0  0  0  0  0  0  0  0  0  0  0
    0.1267   -1.9468   -0.2328 C   0  0  0  0  0  0  0  0  0  0  0  0
   -0.1495   -1.3093    1.1058 C   0  0  0  0  0  0  0  0  0  0  0  0
   -0.0019    0.2263    1.0741 C   0  0  1  0  0  0  0  0  0  0  0  0
    1.4768    0.6377    1.1615 C   0  0  0  0  0  0  0  0  0  0  0  0
    0.1698    2.7661   -0.3158 H   0  0  0  0  0  0  0  0  0  0  0  0
   -1.4263    2.6423   -1.0573 H   0  0  0  0  0  0  0  0  0  0  0  0
   -1.2749    2.6997    0.7043 H   0  0  0  0  0  0  0  0  0  0  0  0
   -1.7612    0.3918   -0.1166 H   0  0  0  0  0  0  0  0  0  0  0  0
   -0.7894    0.4177   -2.3126 H   0  0  0  0  0  0  0  0  0  0  0  0
    0.8148    0.7424   -1.7087 H   0  0  0  0  0  0  0  0  0  0  0  0
    0.3665   -1.7874   -2.3106 H   0  0  0  0  0  0  0  0  0  0  0  0
    0.3113   -3.0189   -0.2381 H   0  0  0  0  0  0  0  0  0  0  0  0
   -1.1637   -1.5816    1.4341 H   0  0  0  0  0  0  0  0  0  0  0  0
    0.5232   -1.7338    1.8627 H   0  0  0  0  0  0  0  0  0  0  0  0
   -0.5100    0.6336    1.9584 H   0  0  0  0  0  0  0  0  0  0  0  0
    2.0645    0.2100    0.3433 H   0  0  0  0  0  0  0  0  0  0  0  0
    1.6018    1.7242    1.1366 H   0  0  0  0  0  0  0  0  0  0  0  0
    1.9145    0.2804    2.0995 H   0  0  0  0  0  0  0  0  0  0  0  0
  1  2  1  0  0  0  0
  1 11  1  0  0  0  0
  2 12  1  0  0  0  0
  2  7  1  1  0  0  0
  3  4  1  0  0  0  0
  3  2  1  0  0  0  0
  4  5  2  0  0  0  0
  5  6  1  0  0  0  0
  6 17  1  0  0  0  0
  6 18  1  0  0  0  0
  7  6  1  0  0  0  0
  7  8  1  0  0  0  0
  7 19  1  1  0  0  0
  8 22  1  0  0  0  0
  9  1  1  0  0  0  0
 10  1  1  0  0  0  0
 13  3  1  0  0  0  0
 14  3  1  0  0  0  0
 15  4  1  0  0  0  0
 16  5  1  0  0  0  0
 20  8  1  0  0  0  0
 21  8  1  0  0  0  0
M  END
