13
title
O 0.69315106 0.71409863 1.9760245
C 0.11851233 -0.08094706 0.9794502
C -1.3480481 0.2910067 0.7260407
N -1.8939543 -0.43827128 -0.41271004
C -1.0984259 -0.762849 -1.3282188
O 0.2589095 -0.4709708 -1.4222401
C 0.88825595 0.04197238 -0.32240316
O 1.9801639 0.5264095 -0.41268656
H 1.5672296 0.97308236 1.6500554
H 0.15229812 -1.1514491 1.2534009
H -1.9463048 0.07333548 1.6137902
H -1.4302733 1.3702137 0.54142475
H -1.4101474 -1.3024243 -2.2170312
