14
title
O 0.12318823 1.987155 0.93774223
C 0.103981085 0.59688103 0.77262455
C -1.3259269 0.044318564 0.80295515
N -1.397733 -1.3805933 0.48015687
C -0.54748595 -1.8174448 -0.35084757
N 0.46716452 -1.0627627 -0.9570125
C 0.7815649 0.20866776 -0.5364774
O 1.5483193 0.9454314 -1.1215336
H 0.79887563 2.3142195 0.32432786
H 0.6833933 0.09340704 1.5697205
H -1.7647253 0.2106536 1.7897034
H -1.9420658 0.6033743 0.08390817
H -0.5715974 -2.858368 -0.669885
H 0.9680343 -1.4275584 -1.7553498
