17
title
C -0.8124727 2.225153 -0.24384084
C -0.82202405 0.7114016 -0.14592758
O -0.19103016 0.20586102 -1.3492554
C 0.27843466 -1.0625173 -1.3028927
N 0.36138597 -1.8570925 -0.32123968
C -0.08590325 -1.3752948 0.9869464
C -0.094631575 0.15239339 1.0856328
O 1.2183918 0.6825187 1.2033671
H 0.2122337 2.597447 -0.1848443
H -1.2610753 2.5490744 -1.186326
H -1.3868649 2.6561387 0.5819053
H -1.8548193 0.3361389 -0.13954869
H 0.6280599 -1.3624085 -2.2898164
H -1.0849078 -1.7800764 1.1942731
H 0.58347696 -1.7834755 1.7515156
H -0.62619996 0.4771295 1.9866495
H 1.7716175 0.25677258 0.5386484
