15
title
O 0.117159024 1.9958305 0.90915936
C 0.056491677 0.6039873 0.77159965
C -1.3863847 0.08834622 0.8075469
C -1.4148163 -1.3767345 0.45395494
C -0.5033076 -1.8843014 -0.37698537
N 0.51401603 -1.0900187 -0.93405885
C 0.77303606 0.18577413 -0.5171866
O 1.5445737 0.9382546 -1.085288
H 0.7996024 2.2827199 0.28115082
H 0.6120476 0.10158584 1.5868174
H -1.8079331 0.27151486 1.7999356
H -1.9918216 0.6743854 0.10037935
H -2.1859558 -2.021093 0.8571199
H -0.48389265 -2.9226983 -0.6843558
H 1.0312756 -1.4153666 -1.7371185
