title
 OpenBabel02282109593D

 14 14  0  0  1  0  0  0  0  0999 V2000
    0.1232    1.9872    0.9377 O   0  0  0  0  0  0  0  0  0  0  0  0
    0.1040    0.5969    0.7726 C   0  0  1  0  0  0  0  0  0  0  0  0
   -1.3259    0.0443    0.8030 C   0  0  0  0  0  0  0  0  0  0  0  0
   -1.3977   -1.3806    0.4802 N   0  0  0  0  0  0  0  0  0  0  0  0
   -0.5475   -1.8174   -0.3508 C   0  0  0  0  0  0  0  0  0  0  0  0
    0.4672   -1.0628   -0.9570 N   0  0  0  0  0  0  0  0  0  0  0  0
    0.7816    0.2087   -0.5365 C   0  0  0  0  0  0  0  0  0  0  0  0
    1.5483    0.9454   -1.1215 O   0  0  0  0  0  0  0  0  0  0  0  0
    0.7989    2.3142    0.3243 H   0  0  0  0  0  0  0  0  0  0  0  0
    0.6834    0.0934    1.5697 H   0  0  0  0  0  0  0  0  0  0  0  0
   -1.7647    0.2107    1.7897 H   0  0  0  0  0  0  0  0  0  0  0  0
   -1.9421    0.6034    0.0839 H   0  0  0  0  0  0  0  0  0  0  0  0
   -0.5716   -2.8584   -0.6699 H   0  0  0  0  0  0  0  0  0  0  0  0
    0.9680   -1.4276   -1.7553 H   0  0  0  0  0  0  0  0  0  0  0  0
  2  3  1  0  0  0  0
  2  1  1  0  0  0  0
  2 10  1  1  0  0  0
  3 11  1  0  0  0  0
  4  3  1  0  0  0  0
  5  4  2  0  0  0  0
  6  7  1  0  0  0  0
  6  5  1  0  0  0  0
  7  2  1  0  0  0  0
  8  7  2  0  0  0  0
  9  1  1  0  0  0  0
 12  3  1  0  0  0  0
 13  5  1  0  0  0  0
 14  6  1  0  0  0  0
M  END
