15
title
O 0.040091164 2.042368 0.82411104
C 0.0716927 0.64695084 0.7228166
C -1.3449361 0.057919543 0.73634005
N -1.371862 -1.3866742 0.5103929
C -0.46996954 -1.8542676 -0.24728656
N 0.55352235 -1.1230557 -0.85775256
C 0.8006307 0.19906394 -0.5337429
N 1.5638297 1.023783 -1.131518
H 0.7031941 2.3617778 0.19091785
H 0.6282982 0.20410492 1.5699356
H -1.8225111 0.27947086 1.6941502
H -1.9456298 0.55456984 -0.03901732
H -0.4525644 -2.915662 -0.49251783
H 1.1105853 -1.566525 -1.5727642
H 2.0145972 0.6380821 -1.9611194
