title
 OpenBabel02282109593D

 15 15  0  0  1  0  0  0  0  0999 V2000
    0.0401    2.0424    0.8241 O   0  0  0  0  0  0  0  0  0  0  0  0
    0.0717    0.6470    0.7228 C   0  0  1  0  0  0  0  0  0  0  0  0
   -1.3449    0.0579    0.7363 C   0  0  0  0  0  0  0  0  0  0  0  0
   -1.3719   -1.3867    0.5104 N   0  0  0  0  0  0  0  0  0  0  0  0
   -0.4700   -1.8543   -0.2473 C   0  0  0  0  0  0  0  0  0  0  0  0
    0.5535   -1.1231   -0.8578 N   0  0  0  0  0  0  0  0  0  0  0  0
    0.8006    0.1991   -0.5337 C   0  0  0  0  0  0  0  0  0  0  0  0
    1.5638    1.0238   -1.1315 N   0  0  0  0  0  0  0  0  0  0  0  0
    0.7032    2.3618    0.1909 H   0  0  0  0  0  0  0  0  0  0  0  0
    0.6283    0.2041    1.5699 H   0  0  0  0  0  0  0  0  0  0  0  0
   -1.8225    0.2795    1.6942 H   0  0  0  0  0  0  0  0  0  0  0  0
   -1.9456    0.5546   -0.0390 H   0  0  0  0  0  0  0  0  0  0  0  0
   -0.4526   -2.9157   -0.4925 H   0  0  0  0  0  0  0  0  0  0  0  0
    1.1106   -1.5665   -1.5728 H   0  0  0  0  0  0  0  0  0  0  0  0
    2.0146    0.6381   -1.9611 H   0  0  0  0  0  0  0  0  0  0  0  0
  2  3  1  0  0  0  0
  2  1  1  0  0  0  0
  2 10  1  1  0  0  0
  3 11  1  0  0  0  0
  4  3  1  0  0  0  0
  5  4  2  0  0  0  0
  6  7  1  0  0  0  0
  6  5  1  0  0  0  0
  7  2  1  0  0  0  0
  8  7  2  0  0  0  0
  9  1  1  0  0  0  0
 12  3  1  0  0  0  0
 13  5  1  0  0  0  0
 14  6  1  0  0  0  0
 15  8  1  0  0  0  0
M  END
