title
 OpenBabel02282109593D

 20 20  0  0  1  0  0  0  0  0999 V2000
   -1.1962    1.7292   -0.3629 C   0  0  0  0  0  0  0  0  0  0  0  0
   -1.0404    0.1962   -0.3276 C   0  0  1  0  0  0  0  0  0  0  0  0
   -0.3706   -0.3139   -1.5815 C   0  0  0  0  0  0  0  0  0  0  0  0
    0.8652   -0.8106   -1.6275 C   0  0  0  0  0  0  0  0  0  0  0  0
    1.7607   -0.9351   -0.4223 C   0  0  0  0  0  0  0  0  0  0  0  0
    1.2254   -0.1293    0.7713 C   0  0  0  0  0  0  0  0  0  0  0  0
   -0.2885   -0.3160    0.9143 C   0  0  1  0  0  0  0  0  0  0  0  0
   -0.8140    0.3562    2.0523 O   0  0  0  0  0  0  0  0  0  0  0  0
   -0.2236    2.2291   -0.4011 H   0  0  0  0  0  0  0  0  0  0  0  0
   -1.7546    2.0305   -1.2552 H   0  0  0  0  0  0  0  0  0  0  0  0
   -1.7311    2.0825    0.5204 H   0  0  0  0  0  0  0  0  0  0  0  0
   -2.0545   -0.2245   -0.2858 H   0  0  0  0  0  0  0  0  0  0  0  0
   -0.9544   -0.2434   -2.4971 H   0  0  0  0  0  0  0  0  0  0  0  0
    1.2694   -1.1586   -2.5755 H   0  0  0  0  0  0  0  0  0  0  0  0
    1.8578   -1.9966   -0.1489 H   0  0  0  0  0  0  0  0  0  0  0  0
    2.7772   -0.6083   -0.6747 H   0  0  0  0  0  0  0  0  0  0  0  0
    1.7264   -0.4424    1.6964 H   0  0  0  0  0  0  0  0  0  0  0  0
    1.4443    0.9361    0.6383 H   0  0  0  0  0  0  0  0  0  0  0  0
   -0.4893   -1.3981    0.9949 H   0  0  0  0  0  0  0  0  0  0  0  0
   -0.3339    0.0456    2.8263 H   0  0  0  0  0  0  0  0  0  0  0  0
  1  2  1  0  0  0  0
  1 11  1  0  0  0  0
  2 12  1  0  0  0  0
  2  7  1  1  0  0  0
  3  2  1  0  0  0  0
  4  3  2  0  0  0  0
  4  5  1  0  0  0  0
  5 15  1  0  0  0  0
  5  6  1  0  0  0  0
  6  7  1  0  0  0  0
  6 17  1  0  0  0  0
  7 19  1  1  0  0  0
  7  8  1  0  0  0  0
  8 20  1  0  0  0  0
  9  1  1  0  0  0  0
 10  1  1  0  0  0  0
 13  3  1  0  0  0  0
 14  4  1  0  0  0  0
 16  5  1  0  0  0  0
 18  6  1  0  0  0  0
M  END
