title
 OpenBabel02282109593D

 18 18  0  0  1  0  0  0  0  0999 V2000
    0.5665    2.1582   -0.5222 O   0  0  0  0  0  0  0  0  0  0  0  0
    0.5739    0.7429   -0.5516 C   0  0  1  0  0  0  0  0  0  0  0  0
    1.3348    0.1595    0.6545 C   0  0  0  0  0  0  0  0  0  0  0  0
    1.0578   -1.3052    0.8746 C   0  0  0  0  0  0  0  0  0  0  0  0
    0.0678   -1.9680    0.2744 C   0  0  0  0  0  0  0  0  0  0  0  0
   -0.8872   -1.3254   -0.7011 C   0  0  0  0  0  0  0  0  0  0  0  0
   -0.8622    0.2025   -0.6024 C   0  0  1  0  0  0  0  0  0  0  0  0
   -1.5825    0.6826    0.5396 O   0  0  0  0  0  0  0  0  0  0  0  0
   -0.1276    2.3951    0.1077 H   0  0  0  0  0  0  0  0  0  0  0  0
    1.0879    0.4551   -1.4767 H   0  0  0  0  0  0  0  0  0  0  0  0
    2.4090    0.3339    0.5260 H   0  0  0  0  0  0  0  0  0  0  0  0
    1.0589    0.7320    1.5526 H   0  0  0  0  0  0  0  0  0  0  0  0
    1.7081   -1.8286    1.5719 H   0  0  0  0  0  0  0  0  0  0  0  0
   -0.0737   -3.0265    0.4782 H   0  0  0  0  0  0  0  0  0  0  0  0
   -0.6382   -1.6328   -1.7267 H   0  0  0  0  0  0  0  0  0  0  0  0
   -1.9127   -1.6736   -0.5262 H   0  0  0  0  0  0  0  0  0  0  0  0
   -1.3728    0.6501   -1.4607 H   0  0  0  0  0  0  0  0  0  0  0  0
   -1.3239    0.1373    1.2921 H   0  0  0  0  0  0  0  0  0  0  0  0
  1  9  1  0  0  0  0
  2  7  1  6  0  0  0
  2  1  1  0  0  0  0
  2  3  1  0  0  0  0
  3  4  1  0  0  0  0
  3 12  1  0  0  0  0
  4 13  1  0  0  0  0
  5 14  1  0  0  0  0
  5  4  2  0  0  0  0
  6  7  1  0  0  0  0
  6 16  1  0  0  0  0
  6  5  1  0  0  0  0
  7 17  1  6  0  0  0
  7  8  1  0  0  0  0
  8 18  1  0  0  0  0
 10  2  1  0  0  0  0
 11  3  1  0  0  0  0
 15  6  1  0  0  0  0
M  END
