16
title
C -1.2641842 1.6230416 -0.18514985
C -0.9955808 0.116272904 -0.29642123
O -0.28775197 -0.24201547 -1.4810897
C 1.0769967 0.10984756 -1.5090517
C 1.811386 -0.24664329 -0.2528878
C 1.167952 -0.53104097 0.88487
C -0.29721946 -0.39432088 0.9687937
O -0.9230578 -0.59790987 1.9894241
H -0.33720094 2.1928818 -0.062475648
H -1.7753587 1.9775796 -1.0841324
H -1.8966472 1.8170297 0.684967
H -1.9501742 -0.4119198 -0.37160447
H 1.5096587 -0.4282659 -2.3607273
H 1.2209803 1.1859367 -1.7207371
H 2.8978536 -0.2571163 -0.30560958
H 1.6831194 -0.8135931 1.7973102
