15
title
O 0.17173168 1.9635525 0.94642884
C 0.11755439 0.57920873 0.7664924
C -1.3300697 0.08996854 0.76543486
N -1.342767 -1.343972 0.48743248
C -0.5408311 -1.8266363 -0.496111
C 0.4859838 -1.1278386 -1.0547955
C 0.81352943 0.18482307 -0.5510713
O 1.6020542 0.9795503 -1.046106
H 0.8407761 2.2558925 0.30186978
H 0.6583037 0.04819331 1.5729735
H -1.799574 0.27838624 1.7337812
H -1.8901359 0.6444008 -0.004061372
H -2.1929555 -1.8469756 0.6807254
H -0.7709096 -2.8373103 -0.82128656
H 1.067517 -1.551399 -1.86267
