title
 OpenBabel02282109593D

 16 16  0  0  1  0  0  0  0  0999 V2000
    0.4043    1.4825    1.1055 O   0  0  0  0  0  0  0  0  0  0  0  0
    0.2252    0.0660    1.0629 C   0  0  1  0  0  0  0  0  0  0  0  0
   -1.2708   -0.2127    1.0063 C   0  0  0  0  0  0  0  0  0  0  0  0
   -1.8853    0.2635   -0.3167 C   0  0  0  0  0  0  0  0  0  0  0  0
   -1.0871   -0.1927   -1.5030 C   0  0  0  0  0  0  0  0  0  0  0  0
    0.2063   -0.5390   -1.4336 C   0  0  0  0  0  0  0  0  0  0  0  0
    0.9693   -0.4583   -0.1771 C   0  0  0  0  0  0  0  0  0  0  0  0
    2.1603   -0.7030   -0.1145 O   0  0  0  0  0  0  0  0  0  0  0  0
    1.3537    1.6498    1.0892 H   0  0  0  0  0  0  0  0  0  0  0  0
    0.6775   -0.4086    1.9447 H   0  0  0  0  0  0  0  0  0  0  0  0
   -1.4214   -1.2939    1.1089 H   0  0  0  0  0  0  0  0  0  0  0  0
   -1.7608    0.2695    1.8578 H   0  0  0  0  0  0  0  0  0  0  0  0
   -2.9206   -0.0833   -0.4080 H   0  0  0  0  0  0  0  0  0  0  0  0
   -1.9321    1.3612   -0.3303 H   0  0  0  0  0  0  0  0  0  0  0  0
   -1.5960   -0.2189   -2.4645 H   0  0  0  0  0  0  0  0  0  0  0  0
    0.7644   -0.8596   -2.3078 H   0  0  0  0  0  0  0  0  0  0  0  0
  2  1  1  0  0  0  0
  2 10  1  1  0  0  0
  3  2  1  0  0  0  0
  3 11  1  0  0  0  0
  3 12  1  0  0  0  0
  4  3  1  0  0  0  0
  5  6  2  0  0  0  0
  5  4  1  0  0  0  0
  6  7  1  0  0  0  0
  7  8  2  0  0  0  0
  7  2  1  0  0  0  0
  9  1  1  0  0  0  0
 13  4  1  0  0  0  0
 14  4  1  0  0  0  0
 15  5  1  0  0  0  0
 16  6  1  0  0  0  0
M  END
