17
title
C -1.2633644 1.6181383 -0.1953937
C -1.0199987 0.105454706 -0.30757168
N -0.2988539 -0.233839 -1.5439597
C 1.1171734 0.12853597 -1.5229915
C 1.8252244 -0.1755893 -0.2294253
C 1.160032 -0.45886967 0.8977412
C -0.3163891 -0.3991131 0.9600141
O -0.9349867 -0.68196476 1.9674125
H -0.32495728 2.1735756 -0.09605598
H -1.7823763 1.9762043 -1.0882801
H -1.8730965 1.8320425 0.68595666
H -1.9927644 -0.39435044 -0.3470646
H -0.36550745 -1.2369107 -1.6843985
H 1.6176734 -0.38587105 -2.3514428
H 1.2282891 1.2021017 -1.7427679
H 2.9136944 -0.14393237 -0.23681518
H 1.6665819 -0.70296854 1.8266497
