18
title
C -1.2888052 1.6127219 -0.21508485
C -1.051884 0.09255002 -0.3129634
C -0.27643737 -0.32056752 -1.5758966
C 1.1927499 0.12331575 -1.5371557
C 1.8373731 -0.19209544 -0.21786226
C 1.1431018 -0.44130588 0.90048635
C -0.33382496 -0.37884498 0.95406365
O -0.9448628 -0.6374914 1.9728185
H -0.34802106 2.1706653 -0.16278778
H -1.8461105 1.970759 -1.0867366
H -1.8663373 1.8472018 0.68298095
H -2.0299783 -0.3995214 -0.3086882
H -0.3038467 -1.413547 -1.6629361
H -0.771096 0.079596184 -2.4680643
H 1.7567722 -0.35541087 -2.3463721
H 1.281737 1.2036957 -1.7256527
H 2.9251955 -0.20955484 -0.18855742
H 1.6343623 -0.68308544 1.8381196
