16
title
O 0.4043252 1.4824587 1.1054869
C 0.22518466 0.065987565 1.0629237
C -1.2708488 -0.21269459 1.0063163
C -1.885308 0.26345766 -0.31674448
C -1.0871254 -0.19273281 -1.5029829
C 0.20632355 -0.53896487 -1.4335992
C 0.9692861 -0.45825985 -0.17712657
O 2.1602795 -0.70298433 -0.11445264
H 1.3537198 1.6498142 1.0892313
H 0.6774651 -0.4085817 1.9446567
H -1.4214108 -1.2938944 1.1089008
H -1.7608409 0.26949242 1.8578252
H -2.9205863 -0.08333894 -0.40798905
H -1.9321141 1.3611587 -0.3302926
H -1.5959783 -0.21887329 -2.4644542
H 0.76443815 -0.8596284 -2.3078249
