17
title
C -0.8780684 2.1658027 -0.30621287
C -0.6949234 0.6497547 -0.2760222
C 0.008324444 0.12898959 -1.5340675
N 0.20882833 -1.3132142 -1.4471836
C 0.69073814 -1.8122175 -0.2742222
C 0.67560786 -1.127165 0.89694583
C 0.044245422 0.18031235 0.9973321
O 0.020601988 0.8448339 2.019831
H 0.08183867 2.6727858 -0.4549032
H -1.5526327 2.468106 -1.1134732
H -1.2841226 2.5077999 0.64675367
H -1.6837379 0.16742878 -0.22537309
H -0.5828446 0.35150582 -2.4273365
H 0.9804234 0.64143586 -1.6382023
H 0.48904854 -1.7849417 -2.29182
H 1.0829961 -2.8239174 -0.3304999
H 1.0761113 -1.5713034 1.7989881
