17
title
C -0.3258236 2.2577705 0.18242754
N -0.2723315 0.8198552 -0.008922842
C -1.5314131 0.08908642 0.092730045
C -1.4716715 -1.2569468 -0.62979007
C -0.20140368 -1.9837933 -0.28980768
C 0.8840765 -1.3122337 0.09547934
C 0.9318327 0.17240109 0.16808194
O 1.9881506 0.76471823 0.33474135
H 0.6879184 2.648633 0.108591676
H -0.9585755 2.7178683 -0.5844169
H -0.7344833 2.5202744 1.1690755
H -1.7946975 -0.0731964 1.1513257
H -2.3205206 0.71319693 -0.3384772
H -2.3494327 -1.8528199 -0.35793117
H -1.5239336 -1.1094674 -1.71843
H -0.17660606 -3.064709 -0.4011055
H 1.8268964 -1.7968857 0.32076466
