title
 OpenBabel02282109593D

 17 17  0  0  0  0  0  0  0  0999 V2000
   -0.3258    2.2578    0.1824 C   0  0  0  0  0  0  0  0  0  0  0  0
   -0.2723    0.8199   -0.0089 N   0  0  0  0  0  0  0  0  0  0  0  0
   -1.5314    0.0891    0.0927 C   0  0  0  0  0  0  0  0  0  0  0  0
   -1.4717   -1.2569   -0.6298 C   0  0  0  0  0  0  0  0  0  0  0  0
   -0.2014   -1.9838   -0.2898 C   0  0  0  0  0  0  0  0  0  0  0  0
    0.8841   -1.3122    0.0955 C   0  0  0  0  0  0  0  0  0  0  0  0
    0.9318    0.1724    0.1681 C   0  0  0  0  0  0  0  0  0  0  0  0
    1.9882    0.7647    0.3347 O   0  0  0  0  0  0  0  0  0  0  0  0
    0.6879    2.6486    0.1086 H   0  0  0  0  0  0  0  0  0  0  0  0
   -0.9586    2.7179   -0.5844 H   0  0  0  0  0  0  0  0  0  0  0  0
   -0.7345    2.5203    1.1691 H   0  0  0  0  0  0  0  0  0  0  0  0
   -1.7947   -0.0732    1.1513 H   0  0  0  0  0  0  0  0  0  0  0  0
   -2.3205    0.7132   -0.3385 H   0  0  0  0  0  0  0  0  0  0  0  0
   -2.3494   -1.8528   -0.3579 H   0  0  0  0  0  0  0  0  0  0  0  0
   -1.5239   -1.1095   -1.7184 H   0  0  0  0  0  0  0  0  0  0  0  0
   -0.1766   -3.0647   -0.4011 H   0  0  0  0  0  0  0  0  0  0  0  0
    1.8269   -1.7969    0.3208 H   0  0  0  0  0  0  0  0  0  0  0  0
  1 11  1  0  0  0  0
  2  3  1  0  0  0  0
  2  7  1  0  0  0  0
  2  1  1  0  0  0  0
  3 12  1  0  0  0  0
  4 14  1  0  0  0  0
  4  5  1  0  0  0  0
  4  3  1  0  0  0  0
  5  6  2  0  0  0  0
  6  7  1  0  0  0  0
  6 17  1  0  0  0  0
  7  8  2  0  0  0  0
  9  1  1  0  0  0  0
 10  1  1  0  0  0  0
 13  3  1  0  0  0  0
 15  4  1  0  0  0  0
 16  5  1  0  0  0  0
M  END
