title
 OpenBabel02282109593D

 20 20  0  0  1  0  0  0  0  0999 V2000
   -0.8522    2.1554   -0.3294 C   0  0  0  0  0  0  0  0  0  0  0  0
   -0.7656    0.6223   -0.2558 C   0  0  1  0  0  0  0  0  0  0  0  0
   -0.0790    0.0815   -1.5177 C   0  0  0  0  0  0  0  0  0  0  0  0
    0.1787   -1.3051   -1.4357 O   0  0  0  0  0  0  0  0  0  0  0  0
    1.1142   -1.6073   -0.4198 C   0  0  0  0  0  0  0  0  0  0  0  0
    0.8319   -0.8922    0.8715 C   0  0  0  0  0  0  0  0  0  0  0  0
   -0.0391    0.1132    0.9797 C   0  0  0  0  0  0  0  0  0  0  0  0
   -0.3598    0.7482    2.3067 C   0  0  0  0  0  0  0  0  0  0  0  0
    0.1444    2.6098   -0.2964 H   0  0  0  0  0  0  0  0  0  0  0  0
   -1.3307    2.4662   -1.2644 H   0  0  0  0  0  0  0  0  0  0  0  0
   -1.4391    2.5714    0.4934 H   0  0  0  0  0  0  0  0  0  0  0  0
   -1.7933    0.2287   -0.2316 H   0  0  0  0  0  0  0  0  0  0  0  0
   -0.7152    0.2256   -2.3965 H   0  0  0  0  0  0  0  0  0  0  0  0
    0.8598    0.6382   -1.6873 H   0  0  0  0  0  0  0  0  0  0  0  0
    1.0639   -2.6930   -0.2721 H   0  0  0  0  0  0  0  0  0  0  0  0
    2.1425   -1.3833   -0.7633 H   0  0  0  0  0  0  0  0  0  0  0  0
    1.3696   -1.2520    1.7464 H   0  0  0  0  0  0  0  0  0  0  0  0
    0.1600    0.2396    3.1231 H   0  0  0  0  0  0  0  0  0  0  0  0
   -0.0791    1.8075    2.3359 H   0  0  0  0  0  0  0  0  0  0  0  0
   -1.4372    0.7060    2.5148 H   0  0  0  0  0  0  0  0  0  0  0  0
  1  9  1  0  0  0  0
  1  2  1  0  0  0  0
  1 11  1  0  0  0  0
  2 12  1  1  0  0  0
  2  7  1  0  0  0  0
  3  4  1  0  0  0  0
  3  2  1  0  0  0  0
  4  5  1  0  0  0  0
  5 15  1  0  0  0  0
  5  6  1  0  0  0  0
  6  7  2  0  0  0  0
  6 17  1  0  0  0  0
  7  8  1  0  0  0  0
  8 19  1  0  0  0  0
  8 20  1  0  0  0  0
  8 18  1  0  0  0  0
 10  1  1  0  0  0  0
 13  3  1  0  0  0  0
 14  3  1  0  0  0  0
 16  5  1  0  0  0  0
M  END
