title
 OpenBabel02282109593D

 20 20  0  0  1  0  0  0  0  0999 V2000
   -0.7978    2.2573   -0.1882 C   0  0  0  0  0  0  0  0  0  0  0  0
   -0.7326    0.7287   -0.2014 C   0  0  1  0  0  0  0  0  0  0  0  0
   -0.0382    0.1775   -1.4555 C   0  0  0  0  0  0  0  0  0  0  0  0
   -0.1317   -1.3530   -1.5103 C   0  0  0  0  0  0  0  0  0  0  0  0
    0.1771   -1.9848   -0.1790 C   0  0  0  0  0  0  0  0  0  0  0  0
    0.2011   -1.3094    0.9713 C   0  0  0  0  0  0  0  0  0  0  0  0
   -0.0487    0.1742    1.0674 C   0  0  1  0  0  0  0  0  0  0  0  0
    1.1716    0.8601    1.3845 O   0  0  0  0  0  0  0  0  0  0  0  0
    0.2068    2.6880   -0.1723 H   0  0  0  0  0  0  0  0  0  0  0  0
   -1.3241    2.6329   -1.0719 H   0  0  0  0  0  0  0  0  0  0  0  0
   -1.3254    2.6236    0.6992 H   0  0  0  0  0  0  0  0  0  0  0  0
   -1.7602    0.3354   -0.1907 H   0  0  0  0  0  0  0  0  0  0  0  0
   -0.4736    0.6183   -2.3588 H   0  0  0  0  0  0  0  0  0  0  0  0
    1.0180    0.4815   -1.4434 H   0  0  0  0  0  0  0  0  0  0  0  0
   -1.1422   -1.6556   -1.8255 H   0  0  0  0  0  0  0  0  0  0  0  0
    0.5424   -1.7553   -2.2768 H   0  0  0  0  0  0  0  0  0  0  0  0
    0.3788   -3.0541   -0.1774 H   0  0  0  0  0  0  0  0  0  0  0  0
    0.4531   -1.8152    1.9001 H   0  0  0  0  0  0  0  0  0  0  0  0
   -0.6987    0.3819    1.9268 H   0  0  0  0  0  0  0  0  0  0  0  0
    1.8637    0.4720    0.8391 H   0  0  0  0  0  0  0  0  0  0  0  0
  1  9  1  0  0  0  0
  1 11  1  0  0  0  0
  2 12  1  0  0  0  0
  2  1  1  0  0  0  0
  2  7  1  1  0  0  0
  3 14  1  0  0  0  0
  3  2  1  0  0  0  0
  4  3  1  0  0  0  0
  4  5  1  0  0  0  0
  5 17  1  0  0  0  0
  5  6  2  0  0  0  0
  6  7  1  0  0  0  0
  6 18  1  0  0  0  0
  7  8  1  0  0  0  0
  7 19  1  1  0  0  0
 10  1  1  0  0  0  0
 13  3  1  0  0  0  0
 15  4  1  0  0  0  0
 16  4  1  0  0  0  0
 20  8  1  0  0  0  0
M  END
