20
title
C -0.2438431 2.4483643 -0.21456318
C -0.22964624 0.94606984 -0.30575046
C -0.2227191 0.28782508 -1.4695463
C -0.18651018 -1.2118772 -1.6102726
C 0.23231289 -1.9049793 -0.30835316
C -0.50365853 -1.2838417 0.88199
C -0.18076463 0.21010134 1.0199597
O 1.0837564 0.42951384 1.664543
H 0.5895166 2.8018014 0.40267542
H -0.17395176 2.9171734 -1.1997719
H -1.1629236 2.8050067 0.26878616
H -0.2563829 0.8597605 -2.3958976
H -1.1804371 -1.5703789 -1.9206543
H 0.4891567 -1.4895824 -2.4289763
H 0.042071737 -2.981345 -0.36675638
H 1.3157712 -1.7907661 -0.16662341
H -1.5864937 -1.4008747 0.74174565
H -0.23943393 -1.7822653 1.819738
H -0.90260845 0.6658154 1.7090353
H 1.7696952 0.20559195 1.0262651
