18
title
O 0.21161865 2.101201 0.7578509
C 0.1787178 0.6887391 0.7501869
C -1.2532427 0.14193729 0.75477636
C -1.2496105 -1.3909032 0.833964
C -0.2608258 -1.9987278 -0.12506151
C 0.73137116 -1.3153546 -0.69963014
C 0.96561 0.15054688 -0.46160424
O 0.6452139 0.9289511 -1.6332594
H 0.19723392 2.3566926 -0.17559898
H 0.6873066 0.3512652 1.6637045
H -1.8070872 0.5821093 1.5886002
H -1.7594075 0.46508092 -0.16524327
H -1.0023035 -1.7143912 1.8563613
H -2.251274 -1.7926276 0.6387881
H -0.37227577 -3.0593114 -0.3408327
H 1.4079177 -1.8064125 -1.3945228
H 2.0312407 0.3472499 -0.29907012
H -0.15013617 0.54683334 -2.020492
