title
 OpenBabel02282109593D

 22 22  0  0  1  0  0  0  0  0999 V2000
   -0.8062    2.1716   -0.3528 C   0  0  0  0  0  0  0  0  0  0  0  0
   -0.7538    0.6345   -0.2907 C   0  0  1  0  0  0  0  0  0  0  0  0
   -0.1390    0.0752   -1.5864 C   0  0  0  0  0  0  0  0  0  0  0  0
    0.1776   -1.4173   -1.4793 C   0  0  0  0  0  0  0  0  0  0  0  0
    1.1939   -1.6612   -0.3575 C   0  0  0  0  0  0  0  0  0  0  0  0
    0.8360   -0.8974    0.8897 C   0  0  0  0  0  0  0  0  0  0  0  0
   -0.0348    0.1155    0.9482 C   0  0  0  0  0  0  0  0  0  0  0  0
   -0.3795    0.7626    2.2662 C   0  0  0  0  0  0  0  0  0  0  0  0
    0.2032    2.5985   -0.3444 H   0  0  0  0  0  0  0  0  0  0  0  0
   -1.2977    2.4956   -1.2762 H   0  0  0  0  0  0  0  0  0  0  0  0
   -1.3611    2.6024    0.4848 H   0  0  0  0  0  0  0  0  0  0  0  0
   -1.7970    0.2821   -0.2285 H   0  0  0  0  0  0  0  0  0  0  0  0
   -0.8182    0.2714   -2.4243 H   0  0  0  0  0  0  0  0  0  0  0  0
    0.7884    0.6240   -1.8032 H   0  0  0  0  0  0  0  0  0  0  0  0
   -0.7451   -1.9699   -1.2590 H   0  0  0  0  0  0  0  0  0  0  0  0
    0.5568   -1.8024   -2.4322 H   0  0  0  0  0  0  0  0  0  0  0  0
    1.2590   -2.7321   -0.1260 H   0  0  0  0  0  0  0  0  0  0  0  0
    2.2021   -1.3753   -0.6950 H   0  0  0  0  0  0  0  0  0  0  0  0
    1.3203   -1.2213    1.8097 H   0  0  0  0  0  0  0  0  0  0  0  0
    0.1015    0.2418    3.0985 H   0  0  0  0  0  0  0  0  0  0  0  0
   -0.0711    1.8140    2.3052 H   0  0  0  0  0  0  0  0  0  0  0  0
   -1.4635    0.7508    2.4429 H   0  0  0  0  0  0  0  0  0  0  0  0
  1  9  1  0  0  0  0
  1  2  1  0  0  0  0
  1 11  1  0  0  0  0
  2 12  1  1  0  0  0
  2  7  1  0  0  0  0
  3  4  1  0  0  0  0
  3  2  1  0  0  0  0
  4 15  1  0  0  0  0
  4  5  1  0  0  0  0
  5 17  1  0  0  0  0
  5  6  1  0  0  0  0
  6  7  2  0  0  0  0
  6 19  1  0  0  0  0
  7  8  1  0  0  0  0
  8 21  1  0  0  0  0
  8 22  1  0  0  0  0
  8 20  1  0  0  0  0
 10  1  1  0  0  0  0
 13  3  1  0  0  0  0
 14  3  1  0  0  0  0
 16  4  1  0  0  0  0
 18  5  1  0  0  0  0
M  END
