19
title
C -1.1845493 1.5364729 -0.3687468
C -1.0725355 0.0070902226 -0.29549244
C -0.3378289 -0.55924857 -1.5113858
O 1.0511506 -0.18812361 -1.5102628
C 1.6411796 -0.15223226 -0.2910342
N 1.12847 -0.30188566 0.8540113
C -0.3220162 -0.51541996 0.95303607
C -0.81505084 0.066689335 2.2786436
H -0.20312841 2.0170524 -0.32072118
H -1.6589553 1.8404765 -1.307737
H -1.7901627 1.9304459 0.4510341
H -2.0845432 -0.41761434 -0.29888746
H -0.39958003 -1.6548629 -1.5273521
H -0.74210334 -0.17728882 -2.4525182
H 2.7057972 0.04665404 -0.4053525
H -0.48272058 -1.6027513 0.9976182
H -0.61249423 1.1393508 2.3409202
H -1.8916732 -0.09277084 2.4026556
H -0.2920483 -0.41572958 3.1083322
