20
title
C -0.852202 2.1553605 -0.32941487
C -0.7655873 0.6223154 -0.25575066
C -0.07898438 0.081526116 -1.5176688
O 0.17866254 -1.3051261 -1.4357176
C 1.1142379 -1.6072801 -0.41983545
C 0.8319486 -0.8922124 0.8715248
C -0.03911221 0.113248214 0.9797126
C -0.35979983 0.7481543 2.3067436
H 0.14442682 2.6097825 -0.29641724
H -1.330682 2.4662483 -1.2644418
H -1.439058 2.5713918 0.49335307
H -1.7932982 0.22865494 -0.23157896
H -0.71524733 0.22564168 -2.3964863
H 0.85977834 0.63816285 -1.6873066
H 1.0639025 -2.692974 -0.2721106
H 2.1424873 -1.3832643 -0.7633294
H 1.3696232 -1.2520393 1.7464365
H 0.16001981 0.2395596 3.1230657
H -0.0790956 1.807478 2.33592
H -1.4372084 0.70597667 2.5148056
