20
title
C -0.86331064 2.1766639 -0.21754776
C -0.7309999 0.66501194 -0.108748786
O -0.08609171 0.214691 -1.2989596
C -0.14953972 -1.1882088 -1.4606858
C 0.15397374 -1.9427599 -0.19701514
C 0.2492923 -1.3299417 0.98001707
C 0.040888708 0.1591327 1.1292053
C 1.3837517 0.87667006 1.3582926
H 0.11321698 2.646802 -0.3596278
H -1.4903568 2.4361854 -1.0746835
H -1.3215498 2.5904124 0.6862962
H -1.742042 0.2240587 -0.06533133
H -1.142445 -1.4885737 -1.8467319
H 0.5779936 -1.439684 -2.2423344
H 0.28746715 -3.0175202 -0.2904749
H 0.49797097 -1.892826 1.8767471
H -0.5964065 0.33255765 2.0083957
H 1.9893869 0.8383422 0.4482577
H 1.2426945 1.9244046 1.6398073
H 1.9489332 0.39024118 2.1596868
