title
 OpenBabel02282109593D

 20 20  0  0  1  0  0  0  0  0999 V2000
   -0.2438    2.4484   -0.2146 C   0  0  0  0  0  0  0  0  0  0  0  0
   -0.2296    0.9461   -0.3058 C   0  0  0  0  0  0  0  0  0  0  0  0
   -0.2227    0.2878   -1.4695 C   0  0  0  0  0  0  0  0  0  0  0  0
   -0.1865   -1.2119   -1.6103 C   0  0  0  0  0  0  0  0  0  0  0  0
    0.2323   -1.9050   -0.3084 C   0  0  0  0  0  0  0  0  0  0  0  0
   -0.5037   -1.2838    0.8820 C   0  0  0  0  0  0  0  0  0  0  0  0
   -0.1808    0.2101    1.0200 C   0  0  1  0  0  0  0  0  0  0  0  0
    1.0838    0.4295    1.6645 O   0  0  0  0  0  0  0  0  0  0  0  0
    0.5895    2.8018    0.4027 H   0  0  0  0  0  0  0  0  0  0  0  0
   -0.1740    2.9172   -1.1998 H   0  0  0  0  0  0  0  0  0  0  0  0
   -1.1629    2.8050    0.2688 H   0  0  0  0  0  0  0  0  0  0  0  0
   -0.2564    0.8598   -2.3959 H   0  0  0  0  0  0  0  0  0  0  0  0
   -1.1804   -1.5704   -1.9207 H   0  0  0  0  0  0  0  0  0  0  0  0
    0.4892   -1.4896   -2.4290 H   0  0  0  0  0  0  0  0  0  0  0  0
    0.0421   -2.9813   -0.3668 H   0  0  0  0  0  0  0  0  0  0  0  0
    1.3158   -1.7908   -0.1666 H   0  0  0  0  0  0  0  0  0  0  0  0
   -1.5865   -1.4009    0.7417 H   0  0  0  0  0  0  0  0  0  0  0  0
   -0.2394   -1.7823    1.8197 H   0  0  0  0  0  0  0  0  0  0  0  0
   -0.9026    0.6658    1.7090 H   0  0  0  0  0  0  0  0  0  0  0  0
    1.7697    0.2056    1.0263 H   0  0  0  0  0  0  0  0  0  0  0  0
  1 11  1  0  0  0  0
  1  9  1  0  0  0  0
  2  1  1  0  0  0  0
  2  7  1  0  0  0  0
  3  2  2  0  0  0  0
  4  3  1  0  0  0  0
  4  5  1  0  0  0  0
  5 16  1  0  0  0  0
  5  6  1  0  0  0  0
  6  7  1  0  0  0  0
  6 18  1  0  0  0  0
  7  8  1  0  0  0  0
  7 19  1  1  0  0  0
 10  1  1  0  0  0  0
 12  3  1  0  0  0  0
 13  4  1  0  0  0  0
 14  4  1  0  0  0  0
 15  5  1  0  0  0  0
 17  6  1  0  0  0  0
 20  8  1  0  0  0  0
M  END
