18
title
C -0.822006 2.2766042 -0.30471694
C -0.7260933 0.75219256 -0.28719702
C -0.07695255 0.15713617 -1.5550013
C 0.116740316 -1.3507116 -1.417828
O 0.9308969 -1.6584642 -0.29821068
C 0.34573248 -1.2602346 0.92715317
C -0.02223054 0.22620174 0.963005
O 0.19785717 0.9059878 1.9375745
H 0.17285976 2.7272906 -0.37674606
H -1.4129609 2.6148782 -1.1613251
H -1.2844188 2.6491206 0.61147535
H -1.7435215 0.32974246 -0.22217558
H -0.6956204 0.38172942 -2.4318383
H 0.90159 0.6246614 -1.7194741
H -0.86083966 -1.8570261 -1.3293223
H 0.63167346 -1.76514 -2.28894
H -0.57259417 -1.8431349 1.1308987
H 1.0660257 -1.4655032 1.7212368
