title
 OpenBabel02282109593D

 18 18  0  0  1  0  0  0  0  0999 V2000
   -0.8908    2.2210   -0.2712 C   0  0  0  0  0  0  0  0  0  0  0  0
   -0.7520    0.7015   -0.2366 C   0  0  1  0  0  0  0  0  0  0  0  0
   -0.0312    0.1439   -1.4881 C   0  0  0  0  0  0  0  0  0  0  0  0
    0.1103   -1.2614   -1.4468 O   0  0  0  0  0  0  0  0  0  0  0  0
    0.9147   -1.6811   -0.3631 C   0  0  0  0  0  0  0  0  0  0  0  0
    0.2833   -1.2883    0.9868 C   0  0  0  0  0  0  0  0  0  0  0  0
   -0.0184    0.2025    1.0059 C   0  0  0  0  0  0  0  0  0  0  0  0
    0.3208    0.9311    1.9098 O   0  0  0  0  0  0  0  0  0  0  0  0
    0.0909    2.7032   -0.3048 H   0  0  0  0  0  0  0  0  0  0  0  0
   -1.4628    2.5405   -1.1478 H   0  0  0  0  0  0  0  0  0  0  0  0
   -1.3967    2.5832    0.6261 H   0  0  0  0  0  0  0  0  0  0  0  0
   -1.7454    0.2297   -0.2214 H   0  0  0  0  0  0  0  0  0  0  0  0
   -0.6077    0.3737   -2.3885 H   0  0  0  0  0  0  0  0  0  0  0  0
    0.9560    0.6279   -1.5858 H   0  0  0  0  0  0  0  0  0  0  0  0
    1.0120   -2.7667   -0.4461 H   0  0  0  0  0  0  0  0  0  0  0  0
    1.9234   -1.2425   -0.4427 H   0  0  0  0  0  0  0  0  0  0  0  0
   -0.6595   -1.8379    1.0996 H   0  0  0  0  0  0  0  0  0  0  0  0
    0.9372   -1.5372    1.8263 H   0  0  0  0  0  0  0  0  0  0  0  0
  1  2  1  0  0  0  0
  1 11  1  0  0  0  0
  2 12  1  1  0  0  0
  2  7  1  0  0  0  0
  3  4  1  0  0  0  0
  3  2  1  0  0  0  0
  4  5  1  0  0  0  0
  5  6  1  0  0  0  0
  6  7  1  0  0  0  0
  6 17  1  0  0  0  0
  6 18  1  0  0  0  0
  7  8  2  0  0  0  0
  9  1  1  0  0  0  0
 10  1  1  0  0  0  0
 13  3  1  0  0  0  0
 14  3  1  0  0  0  0
 15  5  1  0  0  0  0
 16  5  1  0  0  0  0
M  END
