19
title
C -0.8420803 2.2550588 -0.29908893
C -0.7218503 0.73251235 -0.28488106
C -0.06049226 0.15891238 -1.5571281
C 0.12780263 -1.3550705 -1.4599451
N 0.950207 -1.6573013 -0.29229143
C 0.30094972 -1.2797084 0.9624253
C -0.010826985 0.21705829 0.9657988
O 0.25159636 0.92038494 1.9127498
H 0.14600606 2.7216778 -0.36046937
H -1.4309145 2.5863883 -1.1600518
H -1.3182106 2.6192515 0.6136238
H -1.7318339 0.29204023 -0.2271294
H -0.6734819 0.40959492 -2.4299352
H 0.92022884 0.62818605 -1.6986126
H -0.8660877 -1.8447367 -1.4232589
H 0.6404886 -1.7303132 -2.3514545
H 1.1916747 -2.6415062 -0.2701971
H -0.6586556 -1.8111523 1.1353791
H 0.95975566 -1.4919204 1.8072984
