title
 OpenBabel02282109593D

 19 19  0  0  1  0  0  0  0  0999 V2000
   -0.9230    2.1753   -0.3080 C   0  0  0  0  0  0  0  0  0  0  0  0
   -0.7612    0.6526   -0.3137 C   0  0  1  0  0  0  0  0  0  0  0  0
   -0.0947    0.1238   -1.5928 C   0  0  0  0  0  0  0  0  0  0  0  0
    0.1747   -1.3775   -1.4833 C   0  0  0  0  0  0  0  0  0  0  0  0
    1.1321   -1.6483   -0.3254 C   0  0  0  0  0  0  0  0  0  0  0  0
    0.6935   -0.9593    0.8811 N   0  0  0  0  0  0  0  0  0  0  0  0
   -0.0563    0.1833    0.9675 C   0  0  0  0  0  0  0  0  0  0  0  0
   -0.1979    0.7612    2.0314 O   0  0  0  0  0  0  0  0  0  0  0  0
    0.0480    2.6721   -0.4092 H   0  0  0  0  0  0  0  0  0  0  0  0
   -1.5560    2.4971   -1.1408 H   0  0  0  0  0  0  0  0  0  0  0  0
   -1.3698    2.5053    0.6307 H   0  0  0  0  0  0  0  0  0  0  0  0
   -1.7645    0.2039   -0.2516 H   0  0  0  0  0  0  0  0  0  0  0  0
   -0.7311    0.3442   -2.4567 H   0  0  0  0  0  0  0  0  0  0  0  0
    0.8525    0.6555   -1.7604 H   0  0  0  0  0  0  0  0  0  0  0  0
   -0.7687   -1.9108   -1.3131 H   0  0  0  0  0  0  0  0  0  0  0  0
    0.6090   -1.7733   -2.4068 H   0  0  0  0  0  0  0  0  0  0  0  0
    1.1895   -2.7223   -0.1151 H   0  0  0  0  0  0  0  0  0  0  0  0
    2.1463   -1.3233   -0.6065 H   0  0  0  0  0  0  0  0  0  0  0  0
    1.1446   -1.1993    1.7528 H   0  0  0  0  0  0  0  0  0  0  0  0
  1 11  1  0  0  0  0
  2  1  1  0  0  0  0
  2 12  1  1  0  0  0
  2  7  1  0  0  0  0
  3  4  1  0  0  0  0
  3  2  1  0  0  0  0
  4 15  1  0  0  0  0
  4  5  1  0  0  0  0
  5 17  1  0  0  0  0
  5  6  1  0  0  0  0
  6  7  1  0  0  0  0
  6 19  1  0  0  0  0
  7  8  2  0  0  0  0
  9  1  1  0  0  0  0
 10  1  1  0  0  0  0
 13  3  1  0  0  0  0
 14  3  1  0  0  0  0
 16  4  1  0  0  0  0
 18  5  1  0  0  0  0
M  END
