18
title
C -0.8908112 2.22102 -0.27118963
C -0.75197625 0.7014549 -0.23656617
C -0.031163745 0.14386944 -1.4881167
O 0.11030621 -1.2613677 -1.4467503
C 0.914732 -1.6811066 -0.3630851
C 0.2833196 -1.2882996 0.9867569
C -0.018363468 0.20251285 1.0058948
O 0.32078052 0.9310926 1.9098212
H 0.090867825 2.7031996 -0.3047982
H -1.462805 2.5405083 -1.147846
H -1.3967341 2.5832424 0.62611616
H -1.7453738 0.22972502 -0.22135144
H -0.6077322 0.3736896 -2.3885336
H 0.9559572 0.627898 -1.5857936
H 1.0120367 -2.7667048 -0.44613248
H 1.9233679 -1.2424706 -0.4426761
H -0.6595361 -1.8378654 1.099643
H 0.93721056 -1.5372488 1.8262824
