20
title
C -0.72795194 2.1142724 -0.37531698
C -0.74471533 0.5898533 -0.25364697
O -0.19198763 0.1013939 -1.4676332
C 0.1180175 -1.2788655 -1.4385818
C 1.2332064 -1.5569662 -0.43212387
C 0.89667404 -0.89081466 0.87414485
C -0.01997357 0.073737435 0.97891504
C -0.41803166 0.6684807 2.3033223
H 0.30143332 2.484798 -0.37697312
H -1.2010819 2.4044673 -1.3169072
H -1.2727153 2.5862496 0.44597912
H -1.8011237 0.26183638 -0.18214643
H -0.77613324 -1.8683127 -1.1749015
H 0.41204953 -1.5483216 -2.4572253
H 1.3492419 -2.6392996 -0.29089445
H 2.193361 -1.191692 -0.82228655
H 1.4117163 -1.239104 1.767191
H 0.06482572 0.14070116 3.1300154
H -0.14869249 1.7286948 2.376712
H -1.5039169 0.6106504 2.4549
