title
 OpenBabel02282109593D

 16 16  0  0  1  0  0  0  0  0999 V2000
   -0.5992    2.1902   -0.3823 C   0  0  0  0  0  0  0  0  0  0  0  0
   -0.7052    0.6730   -0.3035 C   0  0  1  0  0  0  0  0  0  0  0  0
   -0.1742    0.1280   -1.5018 O   0  0  0  0  0  0  0  0  0  0  0  0
    0.0018   -1.2691   -1.4016 C   0  0  0  0  0  0  0  0  0  0  0  0
    1.0583   -1.5537   -0.3554 C   0  0  0  0  0  0  0  0  0  0  0  0
    0.7164   -0.9695    0.9134 O   0  0  0  0  0  0  0  0  0  0  0  0
   -0.0532    0.1400    0.9826 C   0  0  0  0  0  0  0  0  0  0  0  0
   -0.2619    0.6495    2.0499 O   0  0  0  0  0  0  0  0  0  0  0  0
    0.4463    2.4927   -0.4874 H   0  0  0  0  0  0  0  0  0  0  0  0
   -1.1547    2.5520   -1.2506 H   0  0  0  0  0  0  0  0  0  0  0  0
   -1.0065    2.6355    0.5259 H   0  0  0  0  0  0  0  0  0  0  0  0
   -1.7686    0.3857   -0.2139 H   0  0  0  0  0  0  0  0  0  0  0  0
   -0.9459   -1.7699   -1.1437 H   0  0  0  0  0  0  0  0  0  0  0  0
    0.3283   -1.6305   -2.3809 H   0  0  0  0  0  0  0  0  0  0  0  0
    1.1754   -2.6258   -0.1731 H   0  0  0  0  0  0  0  0  0  0  0  0
    2.0224   -1.1418   -0.6748 H   0  0  0  0  0  0  0  0  0  0  0  0
  1  2  1  0  0  0  0
  1 11  1  0  0  0  0
  2 12  1  1  0  0  0
  2  7  1  0  0  0  0
  3  4  1  0  0  0  0
  3  2  1  0  0  0  0
  4 13  1  0  0  0  0
  4  5  1  0  0  0  0
  5 15  1  0  0  0  0
  5  6  1  0  0  0  0
  6  7  1  0  0  0  0
  7  8  2  0  0  0  0
  9  1  1  0  0  0  0
 10  1  1  0  0  0  0
 14  4  1  0  0  0  0
 16  5  1  0  0  0  0
M  END
