17
title
C -0.82430136 2.1267068 -0.3329365
C -0.7624957 0.6073169 -0.2840823
O -0.1353808 0.15175195 -1.4777715
C 0.13262731 -1.2332331 -1.4460399
C 1.1964215 -1.5291518 -0.3964046
N 0.7863485 -0.93062973 0.8640737
C -0.06930149 0.123026595 1.0012634
O -0.3161335 0.62742525 2.081733
H 0.18265039 2.5431368 -0.42685
H -1.4158716 2.4491346 -1.1930696
H -1.2748448 2.5014706 0.58675855
H -1.7885218 0.20014264 -0.23583236
H -0.7847456 -1.8038183 -1.2260959
H 0.48663276 -1.5175875 -2.4404464
H 1.3112949 -2.6120627 -0.2692827
H 2.1627884 -1.1252209 -0.7295285
H 1.2571105 -1.1984398 1.7166637
