title
 OpenBabel02282109593D

 17 17  0  0  1  0  0  0  0  0999 V2000
   -0.8243    2.1267   -0.3329 C   0  0  0  0  0  0  0  0  0  0  0  0
   -0.7625    0.6073   -0.2841 C   0  0  1  0  0  0  0  0  0  0  0  0
   -0.1354    0.1518   -1.4778 O   0  0  0  0  0  0  0  0  0  0  0  0
    0.1326   -1.2332   -1.4460 C   0  0  0  0  0  0  0  0  0  0  0  0
    1.1964   -1.5292   -0.3964 C   0  0  0  0  0  0  0  0  0  0  0  0
    0.7863   -0.9306    0.8641 N   0  0  0  0  0  0  0  0  0  0  0  0
   -0.0693    0.1230    1.0013 C   0  0  0  0  0  0  0  0  0  0  0  0
   -0.3161    0.6274    2.0817 O   0  0  0  0  0  0  0  0  0  0  0  0
    0.1827    2.5431   -0.4269 H   0  0  0  0  0  0  0  0  0  0  0  0
   -1.4159    2.4491   -1.1931 H   0  0  0  0  0  0  0  0  0  0  0  0
   -1.2748    2.5015    0.5868 H   0  0  0  0  0  0  0  0  0  0  0  0
   -1.7885    0.2001   -0.2358 H   0  0  0  0  0  0  0  0  0  0  0  0
   -0.7847   -1.8038   -1.2261 H   0  0  0  0  0  0  0  0  0  0  0  0
    0.4866   -1.5176   -2.4404 H   0  0  0  0  0  0  0  0  0  0  0  0
    1.3113   -2.6121   -0.2693 H   0  0  0  0  0  0  0  0  0  0  0  0
    2.1628   -1.1252   -0.7295 H   0  0  0  0  0  0  0  0  0  0  0  0
    1.2571   -1.1984    1.7167 H   0  0  0  0  0  0  0  0  0  0  0  0
  1  2  1  0  0  0  0
  1 11  1  0  0  0  0
  2 12  1  1  0  0  0
  2  7  1  0  0  0  0
  3  4  1  0  0  0  0
  3  2  1  0  0  0  0
  4 13  1  0  0  0  0
  4  5  1  0  0  0  0
  5 15  1  0  0  0  0
  5  6  1  0  0  0  0
  6  7  1  0  0  0  0
  6 17  1  0  0  0  0
  7  8  2  0  0  0  0
  9  1  1  0  0  0  0
 10  1  1  0  0  0  0
 14  4  1  0  0  0  0
 16  5  1  0  0  0  0
M  END
