title
 OpenBabel02282109593D

 18 18  0  0  1  0  0  0  0  0999 V2000
   -0.7757    2.2052   -0.3684 C   0  0  0  0  0  0  0  0  0  0  0  0
   -0.7041    0.6842   -0.2947 C   0  0  1  0  0  0  0  0  0  0  0  0
   -0.0537    0.1417   -1.4914 N   0  0  0  0  0  0  0  0  0  0  0  0
    0.0100   -1.3109   -1.4372 C   0  0  0  0  0  0  0  0  0  0  0  0
    0.9291   -1.6703   -0.2847 C   0  0  0  0  0  0  0  0  0  0  0  0
    0.4988   -1.0805    0.9506 O   0  0  0  0  0  0  0  0  0  0  0  0
    0.0184    0.1982    0.9564 C   0  0  0  0  0  0  0  0  0  0  0  0
    0.0603    0.9066    2.0040 N   0  0  0  0  0  0  0  0  0  0  0  0
    0.2274    2.6274   -0.4664 H   0  0  0  0  0  0  0  0  0  0  0  0
   -1.3694    2.5103   -1.2374 H   0  0  0  0  0  0  0  0  0  0  0  0
   -1.2348    2.6086    0.5339 H   0  0  0  0  0  0  0  0  0  0  0  0
   -1.7353    0.2857   -0.1942 H   0  0  0  0  0  0  0  0  0  0  0  0
   -0.5625    0.4504   -2.3126 H   0  0  0  0  0  0  0  0  0  0  0  0
   -0.9773   -1.7872   -1.2864 H   0  0  0  0  0  0  0  0  0  0  0  0
    0.4332   -1.7001   -2.3690 H   0  0  0  0  0  0  0  0  0  0  0  0
    0.9520   -2.7478   -0.1035 H   0  0  0  0  0  0  0  0  0  0  0  0
    1.9461   -1.3222   -0.5040 H   0  0  0  0  0  0  0  0  0  0  0  0
    0.5337    0.3927    2.7503 H   0  0  0  0  0  0  0  0  0  0  0  0
  1  2  1  0  0  0  0
  1 11  1  0  0  0  0
  2 12  1  1  0  0  0
  2  7  1  0  0  0  0
  3  4  1  0  0  0  0
  3  2  1  0  0  0  0
  4 14  1  0  0  0  0
  4  5  1  0  0  0  0
  5 16  1  0  0  0  0
  5  6  1  0  0  0  0
  6  7  1  0  0  0  0
  7  8  2  0  0  0  0
  8 18  1  0  0  0  0
  9  1  1  0  0  0  0
 10  1  1  0  0  0  0
 13  3  1  0  0  0  0
 15  4  1  0  0  0  0
 17  5  1  0  0  0  0
M  END
