19
title
C -0.38150355 2.2833016 0.053216413
N -0.29168907 0.83647186 -0.049058307
C -1.56568 0.12552601 0.013550624
C -1.4582115 -1.3437214 -0.38397613
C -0.28394774 -1.9949949 0.34377256
C 1.0059367 -1.2773657 -0.0567695
C 0.94908077 0.24751705 0.0055106203
O 1.9795139 0.89938366 0.060757883
H 0.6275116 2.6905978 0.025845384
H -0.96914804 2.6897945 -0.77874243
H -0.8683835 2.5810802 0.991862
H -1.977574 0.20395726 1.0335358
H -2.2746165 0.64418334 -0.6445019
H -2.4052675 -1.8411684 -0.15162025
H -1.3084712 -1.4237678 -1.4679693
H -0.43672723 -1.9189401 1.4282317
H -0.21547264 -3.062267 0.10941047
H 1.8587496 -1.5768149 0.5570868
H 1.2694228 -1.5335782 -1.0915203
