18
title
C -0.8141206 2.1799207 -0.32854444
C -0.7224209 0.66733694 -0.24495831
O -0.07694756 0.19341883 -1.4253299
C 0.029597115 -1.2180873 -1.486566
C 0.9343937 -1.7454102 -0.37533405
C 0.39691418 -1.2974676 0.9953022
C 0.025972974 0.17890939 1.0086812
O 0.26831836 0.90754384 1.9413905
H 0.18602903 2.616417 -0.3870604
H -1.3785479 2.469717 -1.2179089
H -1.307123 2.5773492 0.56039816
H -1.7394553 0.23052603 -0.19214912
H -0.97137165 -1.6796942 -1.4179103
H 0.4385057 -1.4490583 -2.474342
H 1.0045964 -2.837844 -0.42378616
H 1.9433389 -1.3453026 -0.5261148
H -0.5270508 -1.852329 1.2170534
H 1.096977 -1.4908321 1.8115468
