17
title
C -0.6721325 2.2164438 -0.3585102
C -0.6969596 0.68970245 -0.31907383
N -0.08521767 0.12549427 -1.5203372
C 0.004992828 -1.3229363 -1.4284607
C 0.9984155 -1.6303887 -0.3252313
O 0.65250057 -0.99656534 0.9182431
C -0.028799847 0.1708731 0.9619742
O -0.1615602 0.7294667 2.017268
H 0.35347837 2.5763826 -0.4752013
H -1.263731 2.5819688 -1.204226
H -1.0870134 2.6210506 0.56505585
H -1.7505783 0.36014676 -0.20659687
H -0.61837405 0.4090153 -2.3351433
H -0.9629067 -1.8115244 -1.2084684
H 0.38098425 -1.7336469 -2.370796
H 1.0453525 -2.7004316 -0.106932774
H 1.9952798 -1.2813127 -0.61611825
