16
title
C -0.59918547 2.190203 -0.38230896
C -0.705236 0.6730213 -0.30346212
O -0.17421407 0.12803431 -1.5017544
C 0.0018136532 -1.2691375 -1.4015858
C 1.058262 -1.5536633 -0.35538083
O 0.71636987 -0.9695422 0.9133761
C -0.05317306 0.14004199 0.98263276
O -0.2618873 0.64946145 2.0498586
H 0.44631743 2.492684 -0.4874132
H -1.154737 2.5519698 -1.25063
H -1.0064795 2.6354642 0.52590305
H -1.7685655 0.3857071 -0.21388072
H -0.94592047 -1.7699265 -1.1436737
H 0.32826066 -1.6304922 -2.3809042
H 1.1754278 -2.6258068 -0.17313035
H 2.0224066 -1.1418004 -0.6747815
