16
title
C -0.68604296 2.2332404 -0.35416976
C -0.714602 0.71779954 -0.25967488
O -0.13242461 0.17207405 -1.442831
C 0.028173186 -1.2159457 -1.3758273
O 0.9649968 -1.5918909 -0.4024253
C 0.53666115 -1.2365292 0.90021497
C -0.020633481 0.18385932 1.0012681
O 0.011087216 0.80150485 2.037579
H 0.34318706 2.5834749 -0.4676834
H -1.2661692 2.5649908 -1.2181952
H -1.10347 2.6688113 0.555027
H -1.7629726 0.36777478 -0.18344317
H -0.9456267 -1.7054104 -1.1769248
H 0.4239616 -1.5406579 -2.3394437
H -0.2602581 -1.9187182 1.2501434
H 1.3858753 -1.3379444 1.578793
