15
title
N -0.017046204 2.159522 0.83746946
C 0.066163905 0.7105332 0.7560337
C -1.3233593 0.07421055 0.8206691
O -1.1983978 -1.3275563 0.6253291
C -0.73007375 -1.6053522 -0.64561284
O 0.5600247 -1.0381165 -0.9297675
C 0.8710121 0.1930522 -0.4518353
O 1.7895707 0.8056979 -0.92303574
H 0.9251468 2.53794 0.79148537
H -0.48560664 2.5181584 0.008364005
H 0.62389445 0.35118413 1.6317196
H -1.7805299 0.23276046 1.7981014
H -1.9859202 0.5097908 0.053586762
H -0.6064111 -2.685578 -0.7319287
H -1.4245827 -1.2349062 -1.4168065
