18
title
C -0.3757418 2.2702773 0.23226514
N -0.3103911 0.8399191 0.0061093927
C -1.5702652 0.11326621 0.05217983
C -1.434948 -1.2817614 -0.55155534
C -0.2454214 -1.9948812 0.08242865
N 0.9243099 -1.1513836 -0.07204098
C 0.92719203 0.22460525 0.04945063
O 1.9765004 0.8442526 0.14301686
H 0.6360718 2.668875 0.18409681
H -0.9980602 2.7497659 -0.53330207
H -0.8066266 2.504084 1.2168455
H -1.938781 0.040652078 1.0899273
H -2.3191767 0.69200784 -0.5023969
H -2.35599 -1.8480351 -0.38635665
H -1.2734375 -1.2018192 -1.6316315
H -0.46191537 -2.2137032 1.1412599
H -0.058502536 -2.9536018 -0.41251034
H 1.8370491 -1.5446084 0.0916453
