18
title
O 0.15948391 2.0591898 0.9093845
C 0.11836437 0.6648846 0.7979958
C -1.3286043 0.13128759 0.79418284
C -1.363639 -1.3896451 0.5993343
C -0.6679059 -1.8005433 -0.70610255
C 0.78621864 -1.2802116 -0.76064676
C 0.83263844 0.20428209 -0.47091037
O 1.3663473 1.0217438 -1.1915411
H 0.6826451 2.3568997 0.14703356
H 0.65012383 0.19820814 1.6479087
H -1.8123904 0.42630735 1.7302632
H -1.8728173 0.6318416 -0.016640136
H -0.87009746 -1.8824971 1.4482113
H -2.4003518 -1.742168 0.5972287
H -0.66931105 -2.8889663 -0.82315177
H -1.2245026 -1.3922064 -1.559146
H 1.3784119 -1.793206 0.009644201
H 1.2585434 -1.468118 -1.7277898
