title
 OpenBabel02282109593D

 16 16  0  0  1  0  0  0  0  0999 V2000
    0.1302    2.0906    0.8909 O   0  0  0  0  0  0  0  0  0  0  0  0
    0.1091    0.6959    0.8001 C   0  0  1  0  0  0  0  0  0  0  0  0
   -1.3202    0.1280    0.8172 C   0  0  0  0  0  0  0  0  0  0  0  0
   -1.2833   -1.3764    0.5510 C   0  0  0  0  0  0  0  0  0  0  0  0
   -0.6823   -1.6612   -0.7057 O   0  0  0  0  0  0  0  0  0  0  0  0
    0.6754   -1.2652   -0.7735 C   0  0  0  0  0  0  0  0  0  0  0  0
    0.8344    0.2161   -0.4509 C   0  0  0  0  0  0  0  0  0  0  0  0
    1.4811    0.9871   -1.1246 O   0  0  0  0  0  0  0  0  0  0  0  0
    0.7359    2.3856    0.1923 H   0  0  0  0  0  0  0  0  0  0  0  0
    0.6598    0.2429    1.6486 H   0  0  0  0  0  0  0  0  0  0  0  0
   -1.7927    0.3434    1.7811 H   0  0  0  0  0  0  0  0  0  0  0  0
   -1.9069    0.6260    0.0380 H   0  0  0  0  0  0  0  0  0  0  0  0
   -0.7416   -1.9002    1.3575 H   0  0  0  0  0  0  0  0  0  0  0  0
   -2.2928   -1.7917    0.5008 H   0  0  0  0  0  0  0  0  0  0  0  0
    1.2954   -1.8500   -0.0694 H   0  0  0  0  0  0  0  0  0  0  0  0
    1.0282   -1.4555   -1.7888 H   0  0  0  0  0  0  0  0  0  0  0  0
  2  3  1  0  0  0  0
  2  1  1  0  0  0  0
  2 10  1  1  0  0  0
  3 11  1  0  0  0  0
  4  3  1  0  0  0  0
  4 13  1  0  0  0  0
  5  4  1  0  0  0  0
  6  5  1  0  0  0  0
  6  7  1  0  0  0  0
  6 15  1  0  0  0  0
  7  2  1  0  0  0  0
  8  7  2  0  0  0  0
  9  1  1  0  0  0  0
 12  3  1  0  0  0  0
 14  4  1  0  0  0  0
 16  6  1  0  0  0  0
M  END
