16
title
O 0.13019119 2.090593 0.89090353
C 0.10907626 0.69585454 0.80014193
C -1.3201767 0.1280254 0.817196
C -1.2832522 -1.3764163 0.5510227
O -0.682255 -1.6611851 -0.70565444
C 0.6754288 -1.2651808 -0.77347046
C 0.83435416 0.21612312 -0.45088235
O 1.481142 0.98714185 -1.1245502
H 0.73593867 2.3855894 0.19233426
H 0.6597518 0.24286155 1.6486243
H -1.7926631 0.34343752 1.7811316
H -1.9068557 0.62602144 0.038005196
H -0.74157 -1.9001769 1.357523
H -2.292781 -1.79173 0.50078213
H 1.2953966 -1.8499681 -0.06944821
H 1.0282423 -1.4554745 -1.7888323
