title
 OpenBabel02282109593D

 24 24  0  0  1  0  0  0  0  0999 V2000
   -0.8881    2.2999   -0.1936 C   0  0  0  0  0  0  0  0  0  0  0  0
   -0.7814    0.7716   -0.1545 C   0  0  1  0  0  0  0  0  0  0  0  0
   -0.1761    0.2100   -1.4543 C   0  0  0  0  0  0  0  0  0  0  0  0
   -0.1396   -1.3247   -1.4574 C   0  0  0  0  0  0  0  0  0  0  0  0
    0.5887   -1.8716   -0.2219 C   0  0  0  0  0  0  0  0  0  0  0  0
   -0.0149   -1.3042    1.0718 C   0  0  0  0  0  0  0  0  0  0  0  0
   -0.0376    0.2392    1.0998 C   0  0  1  0  0  0  0  0  0  0  0  0
    1.3696    0.8296    1.2926 C   0  0  0  0  0  0  0  0  0  0  0  0
    0.0870    2.7712   -0.3560 H   0  0  0  0  0  0  0  0  0  0  0  0
   -1.5455    2.6223   -1.0083 H   0  0  0  0  0  0  0  0  0  0  0  0
   -1.2983    2.6962    0.7421 H   0  0  0  0  0  0  0  0  0  0  0  0
   -1.8064    0.3758   -0.0859 H   0  0  0  0  0  0  0  0  0  0  0  0
   -0.7543    0.5742   -2.3123 H   0  0  0  0  0  0  0  0  0  0  0  0
    0.8416    0.6019   -1.5873 H   0  0  0  0  0  0  0  0  0  0  0  0
   -1.1699   -1.7079   -1.4656 H   0  0  0  0  0  0  0  0  0  0  0  0
    0.3343   -1.6919   -2.3750 H   0  0  0  0  0  0  0  0  0  0  0  0
    0.5406   -2.9665   -0.2062 H   0  0  0  0  0  0  0  0  0  0  0  0
    1.6542   -1.6138   -0.2820 H   0  0  0  0  0  0  0  0  0  0  0  0
   -1.0457   -1.6722    1.1679 H   0  0  0  0  0  0  0  0  0  0  0  0
    0.5312   -1.6834    1.9440 H   0  0  0  0  0  0  0  0  0  0  0  0
   -0.6292    0.5425    1.9750 H   0  0  0  0  0  0  0  0  0  0  0  0
    2.0318    0.6251    0.4456 H   0  0  0  0  0  0  0  0  0  0  0  0
    1.3356    1.9143    1.4283 H   0  0  0  0  0  0  0  0  0  0  0  0
    1.8404    0.4030    2.1847 H   0  0  0  0  0  0  0  0  0  0  0  0
  1  2  1  0  0  0  0
  1 11  1  0  0  0  0
  2 12  1  0  0  0  0
  2  7  1  1  0  0  0
  3  2  1  0  0  0  0
  4  3  1  0  0  0  0
  4  5  1  0  0  0  0
  5 17  1  0  0  0  0
  5  6  1  0  0  0  0
  6  7  1  0  0  0  0
  6 19  1  0  0  0  0
  6 20  1  0  0  0  0
  7  8  1  0  0  0  0
  7 21  1  1  0  0  0
  8 23  1  0  0  0  0
  8 24  1  0  0  0  0
  9  1  1  0  0  0  0
 10  1  1  0  0  0  0
 13  3  1  0  0  0  0
 14  3  1  0  0  0  0
 15  4  1  0  0  0  0
 16  4  1  0  0  0  0
 18  5  1  0  0  0  0
 22  8  1  0  0  0  0
M  END
