16
title
O 0.19652534 2.0345082 0.9303647
C 0.17520617 0.64427537 0.8033646
C -1.2788132 0.108043954 0.7592182
O -1.2986025 -1.2925535 0.57275194
C -0.7530768 -1.6752754 -0.6729496
C 0.7385748 -1.2784897 -0.78162414
C 0.87193817 0.19359054 -0.47295544
O 1.4102234 1.0083869 -1.1926675
H 0.7040042 2.3510995 0.16495739
H 0.6797864 0.1601793 1.6558973
H -1.7821305 0.31739974 1.7055606
H -1.8209983 0.63013095 -0.04527219
H -0.86665195 -2.759459 -0.7480511
H -1.317213 -1.2132444 -1.4991478
H 1.3030632 -1.8529342 -0.037861187
H 1.1425309 -1.4896857 -1.7749587
