title
 OpenBabel02282109593D

 14 14  0  0  1  0  0  0  0  0999 V2000
    0.7251    0.8087    1.9352 O   0  0  0  0  0  0  0  0  0  0  0  0
    0.1566   -0.0481    0.9899 C   0  0  1  0  0  0  0  0  0  0  0  0
   -1.3430    0.2679    0.7818 C   0  0  0  0  0  0  0  0  0  0  0  0
   -1.7898   -0.1061   -0.5248 O   0  0  0  0  0  0  0  0  0  0  0  0
   -1.0044   -1.0753   -1.1188 C   0  0  0  0  0  0  0  0  0  0  0  0
    0.3296   -0.5862   -1.3738 O   0  0  0  0  0  0  0  0  0  0  0  0
    0.9057    0.0424   -0.3365 C   0  0  0  0  0  0  0  0  0  0  0  0
    1.9519    0.6282   -0.4408 O   0  0  0  0  0  0  0  0  0  0  0  0
    1.5360    1.1463    1.5216 H   0  0  0  0  0  0  0  0  0  0  0  0
    0.2536   -1.0970    1.3207 H   0  0  0  0  0  0  0  0  0  0  0  0
   -1.9508   -0.2350    1.5437 H   0  0  0  0  0  0  0  0  0  0  0  0
   -1.4828    1.3472    0.8752 H   0  0  0  0  0  0  0  0  0  0  0  0
   -0.9311   -1.9934   -0.5161 H   0  0  0  0  0  0  0  0  0  0  0  0
   -1.4240   -1.2989   -2.0993 H   0  0  0  0  0  0  0  0  0  0  0  0
  2 10  1  1  0  0  0
  2  1  1  0  0  0  0
  3 12  1  0  0  0  0
  3  2  1  0  0  0  0
  3 11  1  0  0  0  0
  4  3  1  0  0  0  0
  5  4  1  0  0  0  0
  5 13  1  0  0  0  0
  6  5  1  0  0  0  0
  6  7  1  0  0  0  0
  7  2  1  0  0  0  0
  8  7  2  0  0  0  0
  9  1  1  0  0  0  0
 14  5  1  0  0  0  0
M  END
