title
 OpenBabel02282109593D

 16 16  0  0  1  0  0  0  0  0999 V2000
    0.1965    2.0345    0.9304 O   0  0  0  0  0  0  0  0  0  0  0  0
    0.1752    0.6443    0.8034 C   0  0  1  0  0  0  0  0  0  0  0  0
   -1.2788    0.1080    0.7592 C   0  0  0  0  0  0  0  0  0  0  0  0
   -1.2986   -1.2926    0.5728 O   0  0  0  0  0  0  0  0  0  0  0  0
   -0.7531   -1.6753   -0.6729 C   0  0  0  0  0  0  0  0  0  0  0  0
    0.7386   -1.2785   -0.7816 C   0  0  0  0  0  0  0  0  0  0  0  0
    0.8719    0.1936   -0.4730 C   0  0  0  0  0  0  0  0  0  0  0  0
    1.4102    1.0084   -1.1927 O   0  0  0  0  0  0  0  0  0  0  0  0
    0.7040    2.3511    0.1650 H   0  0  0  0  0  0  0  0  0  0  0  0
    0.6798    0.1602    1.6559 H   0  0  0  0  0  0  0  0  0  0  0  0
   -1.7821    0.3174    1.7056 H   0  0  0  0  0  0  0  0  0  0  0  0
   -1.8210    0.6301   -0.0453 H   0  0  0  0  0  0  0  0  0  0  0  0
   -0.8667   -2.7595   -0.7481 H   0  0  0  0  0  0  0  0  0  0  0  0
   -1.3172   -1.2132   -1.4991 H   0  0  0  0  0  0  0  0  0  0  0  0
    1.3031   -1.8529   -0.0379 H   0  0  0  0  0  0  0  0  0  0  0  0
    1.1425   -1.4897   -1.7750 H   0  0  0  0  0  0  0  0  0  0  0  0
  2  1  1  0  0  0  0
  2 10  1  1  0  0  0
  3  2  1  0  0  0  0
  3 11  1  0  0  0  0
  4  3  1  0  0  0  0
  5  4  1  0  0  0  0
  6  5  1  0  0  0  0
  6  7  1  0  0  0  0
  6 15  1  0  0  0  0
  7  2  1  0  0  0  0
  8  7  2  0  0  0  0
  9  1  1  0  0  0  0
 12  3  1  0  0  0  0
 13  5  1  0  0  0  0
 14  5  1  0  0  0  0
 16  6  1  0  0  0  0
M  END
