15
title
O 0.11586261 2.0363386 0.9184523
C 0.1212436 0.6435238 0.7897802
C -1.3062596 0.08631272 0.79018354
O -1.2328322 -1.3202664 0.57619894
C -0.7086496 -1.6022589 -0.671983
O 0.6218318 -1.0843233 -0.8704866
C 0.8345979 0.19835146 -0.47591448
N 1.629122 0.9953582 -1.0518632
H 0.78980625 2.3550923 0.2973165
H 0.6557704 0.16422026 1.628196
H -1.793854 0.24610801 1.752884
H -1.9011514 0.57539725 0.0039079837
H -0.62075853 -2.6846893 -0.7688627
H -1.3437482 -1.188572 -1.4723419
H 2.0542746 0.57801116 -1.8797029
