title
 OpenBabel02282109593D

 22 22  0  0  1  0  0  0  0  0999 V2000
   -0.8613    2.2973   -0.1924 C   0  0  0  0  0  0  0  0  0  0  0  0
   -0.7976    0.7678   -0.1995 C   0  0  1  0  0  0  0  0  0  0  0  0
   -0.1113    0.2209   -1.4651 C   0  0  0  0  0  0  0  0  0  0  0  0
   -0.0623   -1.3138   -1.4781 C   0  0  0  0  0  0  0  0  0  0  0  0
    0.6098   -1.8632   -0.2116 C   0  0  0  0  0  0  0  0  0  0  0  0
   -0.0637   -1.3186    1.0577 C   0  0  0  0  0  0  0  0  0  0  0  0
   -0.1133    0.2175    1.0729 C   0  0  1  0  0  0  0  0  0  0  0  0
    1.1828    0.7830    1.2763 O   0  0  0  0  0  0  0  0  0  0  0  0
    0.1441    2.7243   -0.1409 H   0  0  0  0  0  0  0  0  0  0  0  0
   -1.3526    2.6757   -1.0950 H   0  0  0  0  0  0  0  0  0  0  0  0
   -1.4202    2.6657    0.6747 H   0  0  0  0  0  0  0  0  0  0  0  0
   -1.8261    0.3771   -0.1890 H   0  0  0  0  0  0  0  0  0  0  0  0
   -0.6307    0.5936   -2.3553 H   0  0  0  0  0  0  0  0  0  0  0  0
    0.9113    0.6229   -1.5288 H   0  0  0  0  0  0  0  0  0  0  0  0
   -1.0874   -1.7049   -1.5379 H   0  0  0  0  0  0  0  0  0  0  0  0
    0.4592   -1.6711   -2.3733 H   0  0  0  0  0  0  0  0  0  0  0  0
    0.5872   -2.9583   -0.2074 H   0  0  0  0  0  0  0  0  0  0  0  0
    1.6754   -1.5897   -0.2148 H   0  0  0  0  0  0  0  0  0  0  0  0
   -1.0909   -1.7025    1.1142 H   0  0  0  0  0  0  0  0  0  0  0  0
    0.4598   -1.6656    1.9547 H   0  0  0  0  0  0  0  0  0  0  0  0
   -0.6847    0.5488    1.9479 H   0  0  0  0  0  0  0  0  0  0  0  0
    1.7590    0.4775    0.5686 H   0  0  0  0  0  0  0  0  0  0  0  0
  1  9  1  0  0  0  0
  1 11  1  0  0  0  0
  2  1  1  0  0  0  0
  2 12  1  0  0  0  0
  2  7  1  1  0  0  0
  3  2  1  0  0  0  0
  4  3  1  0  0  0  0
  4  5  1  0  0  0  0
  5 17  1  0  0  0  0
  5  6  1  0  0  0  0
  6  7  1  0  0  0  0
  6 19  1  0  0  0  0
  6 20  1  0  0  0  0
  7  8  1  0  0  0  0
  7 21  1  1  0  0  0
 10  1  1  0  0  0  0
 13  3  1  0  0  0  0
 14  3  1  0  0  0  0
 15  4  1  0  0  0  0
 16  4  1  0  0  0  0
 18  5  1  0  0  0  0
 22  8  1  0  0  0  0
M  END
