title
 OpenBabel02282109593D

 20 20  0  0  1  0  0  0  0  0999 V2000
   -0.9081    2.3087   -0.1897 C   0  0  0  0  0  0  0  0  0  0  0  0
   -0.8461    0.7806   -0.1943 C   0  0  1  0  0  0  0  0  0  0  0  0
   -0.1466    0.2269   -1.4494 C   0  0  0  0  0  0  0  0  0  0  0  0
    0.0162   -1.2925   -1.3648 C   0  0  0  0  0  0  0  0  0  0  0  0
    0.6700   -1.6879   -0.1624 O   0  0  0  0  0  0  0  0  0  0  0  0
   -0.0726   -1.2984    0.9865 C   0  0  0  0  0  0  0  0  0  0  0  0
   -0.1365    0.2281    1.0625 C   0  0  1  0  0  0  0  0  0  0  0  0
    1.1796    0.7521    1.2022 O   0  0  0  0  0  0  0  0  0  0  0  0
    0.0993    2.7296   -0.1271 H   0  0  0  0  0  0  0  0  0  0  0  0
   -1.3874    2.6885   -1.0981 H   0  0  0  0  0  0  0  0  0  0  0  0
   -1.4775    2.6778    0.6704 H   0  0  0  0  0  0  0  0  0  0  0  0
   -1.8728    0.3848   -0.1750 H   0  0  0  0  0  0  0  0  0  0  0  0
   -0.7106    0.4886   -2.3522 H   0  0  0  0  0  0  0  0  0  0  0  0
    0.8428    0.6907   -1.5478 H   0  0  0  0  0  0  0  0  0  0  0  0
   -0.9704   -1.7831   -1.4224 H   0  0  0  0  0  0  0  0  0  0  0  0
    0.6306   -1.6762   -2.1844 H   0  0  0  0  0  0  0  0  0  0  0  0
   -1.0854   -1.7327    0.9592 H   0  0  0  0  0  0  0  0  0  0  0  0
    0.4613   -1.7041    1.8505 H   0  0  0  0  0  0  0  0  0  0  0  0
   -0.6870    0.5327    1.9612 H   0  0  0  0  0  0  0  0  0  0  0  0
    1.7475    0.1954    0.6551 H   0  0  0  0  0  0  0  0  0  0  0  0
  1  9  1  0  0  0  0
  1 11  1  0  0  0  0
  2  1  1  0  0  0  0
  2 12  1  0  0  0  0
  2  7  1  1  0  0  0
  3  4  1  0  0  0  0
  3  2  1  0  0  0  0
  4  5  1  0  0  0  0
  5  6  1  0  0  0  0
  6  7  1  0  0  0  0
  6 18  1  0  0  0  0
  7  8  1  0  0  0  0
  7 19  1  1  0  0  0
 10  1  1  0  0  0  0
 13  3  1  0  0  0  0
 14  3  1  0  0  0  0
 15  4  1  0  0  0  0
 16  4  1  0  0  0  0
 17  6  1  0  0  0  0
 20  8  1  0  0  0  0
M  END
