title
 OpenBabel02282109593D

 16 16  0  0  0  0  0  0  0  0999 V2000
    0.0799   -1.7104    1.8380 O   0  0  0  0  0  0  0  0  0  0  0  0
    0.0410   -0.8774    0.9426 C   0  0  0  0  0  0  0  0  0  0  0  0
   -1.2878   -0.4427    0.4460 C   0  0  0  0  0  0  0  0  0  0  0  0
   -1.6066    0.5888   -0.3436 C   0  0  0  0  0  0  0  0  0  0  0  0
   -0.6865    1.5607   -1.0307 C   0  0  0  0  0  0  0  0  0  0  0  0
    0.5696    0.9441   -1.6595 C   0  0  0  0  0  0  0  0  0  0  0  0
    1.5618    0.3691   -0.6859 C   0  0  0  0  0  0  0  0  0  0  0  0
    1.3252   -0.3570    0.4122 C   0  0  0  0  0  0  0  0  0  0  0  0
   -2.0859   -1.0354    0.8847 H   0  0  0  0  0  0  0  0  0  0  0  0
   -2.6681    0.7743   -0.4975 H   0  0  0  0  0  0  0  0  0  0  0  0
   -1.2488    2.0775   -1.8157 H   0  0  0  0  0  0  0  0  0  0  0  0
   -0.3873    2.3408   -0.3156 H   0  0  0  0  0  0  0  0  0  0  0  0
    0.2704    0.1626   -2.3731 H   0  0  0  0  0  0  0  0  0  0  0  0
    1.0719    1.7136   -2.2554 H   0  0  0  0  0  0  0  0  0  0  0  0
    2.6060    0.5546   -0.9312 H   0  0  0  0  0  0  0  0  0  0  0  0
    2.1678   -0.7170    0.9963 H   0  0  0  0  0  0  0  0  0  0  0  0
  2  1  2  0  0  0  0
  3  9  1  0  0  0  0
  3  2  1  0  0  0  0
  4  3  2  0  0  0  0
  5  4  1  0  0  0  0
  5 12  1  0  0  0  0
  6  5  1  0  0  0  0
  6  7  1  0  0  0  0
  7  8  2  0  0  0  0
  8  2  1  0  0  0  0
  8 16  1  0  0  0  0
 10  4  1  0  0  0  0
 11  5  1  0  0  0  0
 13  6  1  0  0  0  0
 14  6  1  0  0  0  0
 15  7  1  0  0  0  0
M  END
