title
 OpenBabel02282109593D

 20 20  0  0  1  0  0  0  0  0999 V2000
   -1.2023    1.5994   -0.3803 C   0  0  0  0  0  0  0  0  0  0  0  0
   -1.0924    0.0703   -0.3332 C   0  0  1  0  0  0  0  0  0  0  0  0
   -0.3211   -0.4708   -1.5492 C   0  0  0  0  0  0  0  0  0  0  0  0
    1.0532   -0.1097   -1.4780 O   0  0  0  0  0  0  0  0  0  0  0  0
    1.6340   -0.5956   -0.2977 C   0  0  0  0  0  0  0  0  0  0  0  0
    1.0209   -0.0945    0.8593 O   0  0  0  0  0  0  0  0  0  0  0  0
   -0.3619   -0.4564    0.9237 C   0  0  1  0  0  0  0  0  0  0  0  0
   -0.9009    0.0448    2.2536 C   0  0  0  0  0  0  0  0  0  0  0  0
   -0.2133    2.0581   -0.3081 H   0  0  0  0  0  0  0  0  0  0  0  0
   -1.6563    1.9210   -1.3233 H   0  0  0  0  0  0  0  0  0  0  0  0
   -1.8223    1.9876    0.4321 H   0  0  0  0  0  0  0  0  0  0  0  0
   -2.0988   -0.3695   -0.3490 H   0  0  0  0  0  0  0  0  0  0  0  0
   -0.4145   -1.5695   -1.5973 H   0  0  0  0  0  0  0  0  0  0  0  0
   -0.7021   -0.0557   -2.4865 H   0  0  0  0  0  0  0  0  0  0  0  0
    1.5912   -1.7031   -0.2913 H   0  0  0  0  0  0  0  0  0  0  0  0
    2.6721   -0.2570   -0.2859 H   0  0  0  0  0  0  0  0  0  0  0  0
   -0.4296   -1.5595    0.9063 H   0  0  0  0  0  0  0  0  0  0  0  0
   -0.7763    1.1265    2.3442 H   0  0  0  0  0  0  0  0  0  0  0  0
   -1.9645   -0.1944    2.3501 H   0  0  0  0  0  0  0  0  0  0  0  0
   -0.3616   -0.4283    3.0786 H   0  0  0  0  0  0  0  0  0  0  0  0
  1  2  1  0  0  0  0
  1  9  1  0  0  0  0
  1 11  1  0  0  0  0
  2  7  1  1  0  0  0
  3  4  1  0  0  0  0
  3  2  1  0  0  0  0
  4  5  1  0  0  0  0
  5 15  1  0  0  0  0
  5 16  1  0  0  0  0
  5  6  1  0  0  0  0
  6  7  1  0  0  0  0
  7 17  1  6  0  0  0
  7  8  1  0  0  0  0
  8 18  1  0  0  0  0
  8 19  1  0  0  0  0
  8 20  1  0  0  0  0
 10  1  1  0  0  0  0
 12  2  1  0  0  0  0
 13  3  1  0  0  0  0
 14  3  1  0  0  0  0
M  END
