title
 OpenBabel02282109593D

 20 20  0  0  1  0  0  0  0  0999 V2000
   -0.8946    2.2284   -0.2006 C   0  0  0  0  0  0  0  0  0  0  0  0
   -0.7976    0.7118   -0.1518 C   0  0  1  0  0  0  0  0  0  0  0  0
   -0.0434    0.2884   -1.2918 O   0  0  0  0  0  0  0  0  0  0  0  0
   -0.0565   -1.1263   -1.4520 C   0  0  0  0  0  0  0  0  0  0  0  0
    0.5829   -1.8380   -0.2578 C   0  0  0  0  0  0  0  0  0  0  0  0
   -0.0613   -1.3646    1.0547 C   0  0  0  0  0  0  0  0  0  0  0  0
   -0.0991    0.1727    1.1098 C   0  0  1  0  0  0  0  0  0  0  0  0
    1.2097    0.7200    1.2178 O   0  0  0  0  0  0  0  0  0  0  0  0
    0.0928    2.6809   -0.0825 H   0  0  0  0  0  0  0  0  0  0  0  0
   -1.3194    2.5493   -1.1550 H   0  0  0  0  0  0  0  0  0  0  0  0
   -1.5350    2.5918    0.6088 H   0  0  0  0  0  0  0  0  0  0  0  0
   -1.8091    0.2743   -0.2086 H   0  0  0  0  0  0  0  0  0  0  0  0
   -1.0965   -1.4702   -1.5850 H   0  0  0  0  0  0  0  0  0  0  0  0
    0.4858   -1.3323   -2.3796 H   0  0  0  0  0  0  0  0  0  0  0  0
    0.4842   -2.9228   -0.3750 H   0  0  0  0  0  0  0  0  0  0  0  0
    1.6565   -1.6166   -0.2403 H   0  0  0  0  0  0  0  0  0  0  0  0
   -1.0884   -1.7473    1.1266 H   0  0  0  0  0  0  0  0  0  0  0  0
    0.4904   -1.7463    1.9190 H   0  0  0  0  0  0  0  0  0  0  0  0
   -0.6427    0.5017    2.0029 H   0  0  0  0  0  0  0  0  0  0  0  0
    1.5730    0.7204    0.3232 H   0  0  0  0  0  0  0  0  0  0  0  0
  1  2  1  0  0  0  0
  1  9  1  0  0  0  0
  1 11  1  0  0  0  0
  2  7  1  1  0  0  0
  3  2  1  0  0  0  0
  4  3  1  0  0  0  0
  4  5  1  0  0  0  0
  5 16  1  0  0  0  0
  5  6  1  0  0  0  0
  6  7  1  0  0  0  0
  6 17  1  0  0  0  0
  6 18  1  0  0  0  0
  7  8  1  0  0  0  0
  7 19  1  1  0  0  0
 10  1  1  0  0  0  0
 12  2  1  0  0  0  0
 13  4  1  0  0  0  0
 14  4  1  0  0  0  0
 15  5  1  0  0  0  0
 20  8  1  0  0  0  0
M  END
