20
title
C -1.2022549 1.5994132 -0.3803439
C -1.0924081 0.070332065 -0.33320275
C -0.32108 -0.4707867 -1.5491844
O 1.0532194 -0.10969293 -1.4780339
C 1.6339914 -0.5955934 -0.29771098
O 1.0208968 -0.0944717 0.85934967
C -0.36185905 -0.45642138 0.9236911
C -0.9008652 0.044752162 2.253579
H -0.21329716 2.0581257 -0.30814698
H -1.6562988 1.9210284 -1.3233362
H -1.8223186 1.9876263 0.432146
H -2.098757 -0.36951277 -0.34902912
H -0.4144633 -1.5694692 -1.5972816
H -0.70214975 -0.055656184 -2.486492
H 1.591231 -1.7030672 -0.29132262
H 2.672076 -0.25698507 -0.2859109
H -0.42961273 -1.559524 0.9063285
H -0.7762637 1.1265181 2.344157
H -1.9645494 -0.19444135 2.3501198
H -0.36157748 -0.42832312 3.0786195
