title
 OpenBabel02282109593D

 18 18  0  0  1  0  0  0  0  0999 V2000
   -0.8931    2.2369   -0.2213 C   0  0  0  0  0  0  0  0  0  0  0  0
   -0.8319    0.7218   -0.1617 C   0  0  1  0  0  0  0  0  0  0  0  0
   -0.1007    0.2672   -1.3102 O   0  0  0  0  0  0  0  0  0  0  0  0
   -0.0218   -1.1324   -1.3533 C   0  0  0  0  0  0  0  0  0  0  0  0
    0.6587   -1.6680   -0.2461 O   0  0  0  0  0  0  0  0  0  0  0  0
   -0.0204   -1.3481    0.9664 C   0  0  0  0  0  0  0  0  0  0  0  0
   -0.1299    0.1754    1.0986 C   0  0  1  0  0  0  0  0  0  0  0  0
    1.1528    0.7521    1.2656 O   0  0  0  0  0  0  0  0  0  0  0  0
    0.1090    2.6576   -0.1161 H   0  0  0  0  0  0  0  0  0  0  0  0
   -1.3206    2.5606   -1.1736 H   0  0  0  0  0  0  0  0  0  0  0  0
   -1.5161    2.6221    0.5918 H   0  0  0  0  0  0  0  0  0  0  0  0
   -1.8515    0.2999   -0.2025 H   0  0  0  0  0  0  0  0  0  0  0  0
   -1.0393   -1.5649   -1.4090 H   0  0  0  0  0  0  0  0  0  0  0  0
    0.5530   -1.3974   -2.2429 H   0  0  0  0  0  0  0  0  0  0  0  0
   -1.0198   -1.8135    0.9798 H   0  0  0  0  0  0  0  0  0  0  0  0
    0.5774   -1.7638    1.7804 H   0  0  0  0  0  0  0  0  0  0  0  0
   -0.7098    0.4351    1.9914 H   0  0  0  0  0  0  0  0  0  0  0  0
    1.6701    0.4722    0.4999 H   0  0  0  0  0  0  0  0  0  0  0  0
  1  2  1  0  0  0  0
  1  9  1  0  0  0  0
  1 11  1  0  0  0  0
  2  7  1  1  0  0  0
  3  2  1  0  0  0  0
  4  3  1  0  0  0  0
  4  5  1  0  0  0  0
  5  6  1  0  0  0  0
  6 15  1  0  0  0  0
  6  7  1  0  0  0  0
  6 16  1  0  0  0  0
  7  8  1  0  0  0  0
  7 17  1  1  0  0  0
 10  1  1  0  0  0  0
 12  2  1  0  0  0  0
 13  4  1  0  0  0  0
 14  4  1  0  0  0  0
 18  8  1  0  0  0  0
M  END
