18
title
C -0.8931 2.236938 -0.22129036
C -0.83190936 0.721787 -0.16174623
O -0.100686006 0.26719946 -1.3102237
C -0.021831684 -1.1323816 -1.3533486
O 0.6586904 -1.6680233 -0.24613811
C -0.02041667 -1.3480709 0.966405
C -0.12991416 0.17538582 1.0985607
O 1.1527867 0.75209445 1.265646
H 0.10899521 2.6575768 -0.116137244
H -1.320561 2.5606315 -1.1736428
H -1.5161366 2.622062 0.591772
H -1.851501 0.29990274 -0.20252371
H -1.0392597 -1.5649486 -1.4090117
H 0.5529595 -1.397371 -2.242947
H -1.019826 -1.8135266 0.97975105
H 0.57736486 -1.7637832 1.7804232
H -0.7097947 0.43511695 1.9913598
H 1.6701257 0.47220922 0.49994925
