20
title
C -0.9332423 2.2054508 -0.24694762
C -0.8049509 0.6931976 -0.15603197
O -0.16029434 0.24157849 -1.3458607
C -0.1176723 -1.175448 -1.3988873
C 0.6181833 -1.7300395 -0.18534048
O 0.04002043 -1.2460729 1.0172501
C -0.038690902 0.18351087 1.0791537
C 1.3391963 0.8240418 1.2726227
H 0.046647154 2.6757164 -0.362386
H -1.5427692 2.4763422 -1.1129621
H -1.4108025 2.6073682 0.6521932
H -1.8110691 0.24154308 -0.11133263
H -1.1420366 -1.5825189 -1.4294776
H 0.3943803 -1.4464334 -2.3276677
H 0.5398683 -2.8213837 -0.1474293
H 1.6848172 -1.4666384 -0.24616587
H -0.6511203 0.3771523 1.9674842
H 1.9222306 0.81771 0.3481615
H 1.2395626 1.86313 1.5990754
H 1.8907028 0.2771935 2.042138
