title
 OpenBabel02282109593D

 20 20  0  0  1  0  0  0  0  0999 V2000
   -0.9332    2.2055   -0.2469 C   0  0  0  0  0  0  0  0  0  0  0  0
   -0.8050    0.6932   -0.1560 C   0  0  1  0  0  0  0  0  0  0  0  0
   -0.1603    0.2416   -1.3459 O   0  0  0  0  0  0  0  0  0  0  0  0
   -0.1177   -1.1754   -1.3989 C   0  0  0  0  0  0  0  0  0  0  0  0
    0.6182   -1.7300   -0.1853 C   0  0  0  0  0  0  0  0  0  0  0  0
    0.0400   -1.2461    1.0173 O   0  0  0  0  0  0  0  0  0  0  0  0
   -0.0387    0.1835    1.0792 C   0  0  1  0  0  0  0  0  0  0  0  0
    1.3392    0.8240    1.2726 C   0  0  0  0  0  0  0  0  0  0  0  0
    0.0466    2.6757   -0.3624 H   0  0  0  0  0  0  0  0  0  0  0  0
   -1.5428    2.4763   -1.1130 H   0  0  0  0  0  0  0  0  0  0  0  0
   -1.4108    2.6074    0.6522 H   0  0  0  0  0  0  0  0  0  0  0  0
   -1.8111    0.2415   -0.1113 H   0  0  0  0  0  0  0  0  0  0  0  0
   -1.1420   -1.5825   -1.4295 H   0  0  0  0  0  0  0  0  0  0  0  0
    0.3944   -1.4464   -2.3277 H   0  0  0  0  0  0  0  0  0  0  0  0
    0.5399   -2.8214   -0.1474 H   0  0  0  0  0  0  0  0  0  0  0  0
    1.6848   -1.4666   -0.2462 H   0  0  0  0  0  0  0  0  0  0  0  0
   -0.6511    0.3772    1.9675 H   0  0  0  0  0  0  0  0  0  0  0  0
    1.9222    0.8177    0.3482 H   0  0  0  0  0  0  0  0  0  0  0  0
    1.2396    1.8631    1.5991 H   0  0  0  0  0  0  0  0  0  0  0  0
    1.8907    0.2772    2.0421 H   0  0  0  0  0  0  0  0  0  0  0  0
  1  2  1  0  0  0  0
  1 11  1  0  0  0  0
  2 12  1  0  0  0  0
  2  7  1  1  0  0  0
  3  2  1  0  0  0  0
  4  3  1  0  0  0  0
  4  5  1  0  0  0  0
  5 15  1  0  0  0  0
  5  6  1  0  0  0  0
  6  7  1  0  0  0  0
  7  8  1  0  0  0  0
  7 17  1  1  0  0  0
  8 19  1  0  0  0  0
  8 20  1  0  0  0  0
  9  1  1  0  0  0  0
 10  1  1  0  0  0  0
 13  4  1  0  0  0  0
 14  4  1  0  0  0  0
 16  5  1  0  0  0  0
 18  8  1  0  0  0  0
M  END
