13
title
O -0.06505336 -1.8747749 -1.5666437
C -0.0009725051 -0.90369856 -0.8669902
O -1.1590562 -0.5197396 -0.20943993
C -1.3959293 0.6871003 0.41382933
N -0.6738283 1.3841141 1.1650076
C 0.6814389 0.9717299 1.5183573
C 1.5676757 0.6446065 0.34775794
C 1.239461 -0.1273149 -0.6910805
H -2.4230676 0.98439944 0.21240431
H 1.1302295 1.7841448 2.095085
H 0.6299605 0.10551896 2.1960888
H 2.5671544 1.0727378 0.36619163
H 1.9645181 -0.3362144 -1.4700933
