title
 OpenBabel02282109593D

 15 15  0  0  0  0  0  0  0  0999 V2000
    0.0379   -2.3477   -0.7723 O   0  0  0  0  0  0  0  0  0  0  0  0
    0.0392   -1.1669   -0.4648 C   0  0  0  0  0  0  0  0  0  0  0  0
   -1.1695   -0.4956   -0.3555 N   0  0  0  0  0  0  0  0  0  0  0  0
   -1.4565    0.8607   -0.1919 C   0  0  0  0  0  0  0  0  0  0  0  0
   -0.7275    1.7707    0.4539 C   0  0  0  0  0  0  0  0  0  0  0  0
    0.5432    1.4891    1.2188 C   0  0  0  0  0  0  0  0  0  0  0  0
    1.5505    0.6658    0.4560 C   0  0  0  0  0  0  0  0  0  0  0  0
    1.3128   -0.4413   -0.2521 C   0  0  0  0  0  0  0  0  0  0  0  0
   -1.9374   -1.0956   -0.6231 H   0  0  0  0  0  0  0  0  0  0  0  0
   -2.3942    1.1503   -0.6565 H   0  0  0  0  0  0  0  0  0  0  0  0
   -1.0908    2.7921    0.4456 H   0  0  0  0  0  0  0  0  0  0  0  0
    1.0057    2.4352    1.5124 H   0  0  0  0  0  0  0  0  0  0  0  0
    0.3043    0.9739    2.1632 H   0  0  0  0  0  0  0  0  0  0  0  0
    2.5843    0.9997    0.5201 H   0  0  0  0  0  0  0  0  0  0  0  0
    2.1444   -0.9759   -0.6997 H   0  0  0  0  0  0  0  0  0  0  0  0
  1  2  2  0  0  0  0
  2  3  1  0  0  0  0
  2  8  1  0  0  0  0
  3  4  1  0  0  0  0
  4  5  2  0  0  0  0
  5  6  1  0  0  0  0
  6 12  1  0  0  0  0
  6 13  1  0  0  0  0
  7 14  1  0  0  0  0
  7  6  1  0  0  0  0
  8  7  2  0  0  0  0
  9  3  1  0  0  0  0
 10  4  1  0  0  0  0
 11  5  1  0  0  0  0
 15  8  1  0  0  0  0
M  END
