14
title
O 0.03529443 -2.374101 -0.7012606
C 0.06674703 -1.1957008 -0.40399894
N -1.1412666 -0.50595385 -0.23438233
C -1.3919537 0.8686667 -0.2003284
N -0.71721387 1.7993449 0.32755178
C 0.45948094 1.4586173 1.12936
C 1.5274405 0.6894749 0.3961627
C 1.3352351 -0.4547749 -0.26534036
H -1.9218866 -1.090133 -0.5076911
H -2.3274784 1.1294352 -0.6983996
H 0.8791017 2.3927653 1.5095153
H 0.13594973 0.87614614 2.0070574
H 2.5347404 1.0977999 0.4313355
H 2.1695096 -0.97715956 -0.72101337
