14
title
O 0.121521086 -2.4174037 -0.116348505
C 0.060347036 -1.2292905 0.07734452
O -1.1552557 -0.62777686 0.118490174
C -1.2676564 0.688198 0.68367034
C -0.7876361 1.7624422 -0.2460853
C 0.49542242 1.8133622 -0.62913764
C 1.497669 0.8595277 -0.18406591
C 1.2959034 -0.41226175 0.21343155
H -2.32793 0.7987057 0.91474086
H -0.70123696 0.7210754 1.6252626
H -1.4975222 2.5076628 -0.58980536
H 0.8383515 2.621974 -1.2686596
H 2.5264423 1.2140425 -0.19656375
H 2.1498864 -1.0203923 0.49198654
