title
 OpenBabel02282109593D

 14 14  0  0  0  0  0  0  0  0999 V2000
    0.1215   -2.4174   -0.1163 O   0  0  0  0  0  0  0  0  0  0  0  0
    0.0603   -1.2293    0.0773 C   0  0  0  0  0  0  0  0  0  0  0  0
   -1.1553   -0.6278    0.1185 O   0  0  0  0  0  0  0  0  0  0  0  0
   -1.2677    0.6882    0.6837 C   0  0  0  0  0  0  0  0  0  0  0  0
   -0.7876    1.7624   -0.2461 C   0  0  0  0  0  0  0  0  0  0  0  0
    0.4954    1.8134   -0.6291 C   0  0  0  0  0  0  0  0  0  0  0  0
    1.4977    0.8595   -0.1841 C   0  0  0  0  0  0  0  0  0  0  0  0
    1.2959   -0.4123    0.2134 C   0  0  0  0  0  0  0  0  0  0  0  0
   -2.3279    0.7987    0.9147 H   0  0  0  0  0  0  0  0  0  0  0  0
   -0.7012    0.7211    1.6253 H   0  0  0  0  0  0  0  0  0  0  0  0
   -1.4975    2.5077   -0.5898 H   0  0  0  0  0  0  0  0  0  0  0  0
    0.8384    2.6220   -1.2687 H   0  0  0  0  0  0  0  0  0  0  0  0
    2.5264    1.2140   -0.1966 H   0  0  0  0  0  0  0  0  0  0  0  0
    2.1499   -1.0204    0.4920 H   0  0  0  0  0  0  0  0  0  0  0  0
  1  2  2  0  0  0  0
  2  3  1  0  0  0  0
  2  8  1  0  0  0  0
  3  4  1  0  0  0  0
  4  9  1  0  0  0  0
  4 10  1  0  0  0  0
  5  4  1  0  0  0  0
  6  5  2  0  0  0  0
  6  7  1  0  0  0  0
  7  8  2  0  0  0  0
  8 14  1  0  0  0  0
 11  5  1  0  0  0  0
 12  6  1  0  0  0  0
 13  7  1  0  0  0  0
M  END
