15
title
O 0.03790128 -2.3476627 -0.77231157
C 0.03917179 -1.1668985 -0.46482682
N -1.1695422 -0.49557775 -0.35550177
C -1.4565196 0.8606865 -0.19190739
C -0.7275163 1.770657 0.45393175
C 0.54324305 1.4890662 1.2188302
C 1.5505306 0.665826 0.4559672
C 1.3127847 -0.44126445 -0.2520826
H -1.9374427 -1.0955673 -0.6230707
H -2.394249 1.150318 -0.65651834
H -1.0907657 2.792059 0.4456296
H 1.0057155 2.4352312 1.5123819
H 0.30429995 0.97388333 2.1632316
H 2.584257 0.9997 0.5201464
H 2.1444402 -0.9758859 -0.6997398
