title
 OpenBabel02282109593D

 15 15  0  0  0  0  0  0  0  0999 V2000
    0.1050   -2.3884    0.3889 O   0  0  0  0  0  0  0  0  0  0  0  0
    0.0275   -1.1794    0.3976 C   0  0  0  0  0  0  0  0  0  0  0  0
   -1.2793   -0.3948    0.3894 C   0  0  0  0  0  0  0  0  0  0  0  0
   -1.4065    0.4594   -0.8437 C   0  0  0  0  0  0  0  0  0  0  0  0
   -0.6068    1.5117   -1.0796 C   0  0  0  0  0  0  0  0  0  0  0  0
    0.5442    1.8592   -0.2750 C   0  0  0  0  0  0  0  0  0  0  0  0
    1.3230    0.9844    0.3954 C   0  0  0  0  0  0  0  0  0  0  0  0
    1.1733   -0.3945    0.4582 N   0  0  0  0  0  0  0  0  0  0  0  0
   -2.0865   -1.1228    0.4656 H   0  0  0  0  0  0  0  0  0  0  0  0
   -1.2934    0.2427    1.2844 H   0  0  0  0  0  0  0  0  0  0  0  0
   -2.1942    0.2091   -1.5473 H   0  0  0  0  0  0  0  0  0  0  0  0
   -0.8138    2.1517   -1.9341 H   0  0  0  0  0  0  0  0  0  0  0  0
    0.8631    2.8966   -0.2584 H   0  0  0  0  0  0  0  0  0  0  0  0
    2.2081    1.3417    0.9130 H   0  0  0  0  0  0  0  0  0  0  0  0
    2.0031   -0.9414    0.6416 H   0  0  0  0  0  0  0  0  0  0  0  0
  1  2  2  0  0  0  0
  2  8  1  0  0  0  0
  3  2  1  0  0  0  0
  3  9  1  0  0  0  0
  3 10  1  0  0  0  0
  4  3  1  0  0  0  0
  5  4  2  0  0  0  0
  5  6  1  0  0  0  0
  6 13  1  0  0  0  0
  6  7  2  0  0  0  0
  7  8  1  0  0  0  0
  7 14  1  0  0  0  0
  8 15  1  0  0  0  0
 11  4  1  0  0  0  0
 12  5  1  0  0  0  0
M  END
