title
 OpenBabel02282109593D

 15 15  0  0  0  0  0  0  0  0999 V2000
    0.0426   -2.3429    0.7774 O   0  0  0  0  0  0  0  0  0  0  0  0
    0.0150   -1.1487    0.5196 C   0  0  0  0  0  0  0  0  0  0  0  0
   -1.1659   -0.4852    0.3127 N   0  0  0  0  0  0  0  0  0  0  0  0
   -1.3273    0.9620    0.3072 C   0  0  0  0  0  0  0  0  0  0  0  0
   -0.7115    1.6067   -0.9096 C   0  0  0  0  0  0  0  0  0  0  0  0
    0.5895    1.4666   -1.1933 C   0  0  0  0  0  0  0  0  0  0  0  0
    1.5327    0.6901   -0.4007 C   0  0  0  0  0  0  0  0  0  0  0  0
    1.2815   -0.3784    0.3801 C   0  0  0  0  0  0  0  0  0  0  0  0
   -1.9839   -1.0663    0.4188 H   0  0  0  0  0  0  0  0  0  0  0  0
   -2.3978    1.1715    0.3510 H   0  0  0  0  0  0  0  0  0  0  0  0
   -0.8773    1.3944    1.2144 H   0  0  0  0  0  0  0  0  0  0  0  0
   -1.3464    2.2108   -1.5504 H   0  0  0  0  0  0  0  0  0  0  0  0
    1.0039    1.9880   -2.0525 H   0  0  0  0  0  0  0  0  0  0  0  0
    2.5732    0.9982   -0.4876 H   0  0  0  0  0  0  0  0  0  0  0  0
    2.1102   -0.8765    0.8727 H   0  0  0  0  0  0  0  0  0  0  0  0
  2  1  2  0  0  0  0
  3  9  1  0  0  0  0
  3  2  1  0  0  0  0
  4  3  1  0  0  0  0
  4 10  1  0  0  0  0
  4 11  1  0  0  0  0
  5  4  1  0  0  0  0
  6  5  2  0  0  0  0
  6  7  1  0  0  0  0
  7  8  2  0  0  0  0
  8  2  1  0  0  0  0
  8 15  1  0  0  0  0
 12  5  1  0  0  0  0
 13  6  1  0  0  0  0
 14  7  1  0  0  0  0
M  END
