title
 OpenBabel02282109593D

 16 16  0  0  0  0  0  0  0  0999 V2000
    0.0867   -2.4490    0.4966 O   0  0  0  0  0  0  0  0  0  0  0  0
    0.0537   -1.2822    0.1483 C   0  0  0  0  0  0  0  0  0  0  0  0
   -1.2827   -0.5844   -0.0711 C   0  0  0  0  0  0  0  0  0  0  0  0
   -1.4104    0.7970    0.5918 C   0  0  0  0  0  0  0  0  0  0  0  0
   -0.6796    1.8950   -0.1272 C   0  0  0  0  0  0  0  0  0  0  0  0
    0.5779    1.8271   -0.5917 C   0  0  0  0  0  0  0  0  0  0  0  0
    1.5167    0.7239   -0.4543 C   0  0  0  0  0  0  0  0  0  0  0  0
    1.3193   -0.5657   -0.1093 C   0  0  0  0  0  0  0  0  0  0  0  0
   -1.4373   -0.4804   -1.1539 H   0  0  0  0  0  0  0  0  0  0  0  0
   -2.0497   -1.2657    0.3050 H   0  0  0  0  0  0  0  0  0  0  0  0
   -2.4711    1.0573    0.6584 H   0  0  0  0  0  0  0  0  0  0  0  0
   -1.0514    0.7384    1.6314 H   0  0  0  0  0  0  0  0  0  0  0  0
   -1.2173    2.8304   -0.2611 H   0  0  0  0  0  0  0  0  0  0  0  0
    0.9857    2.7117   -1.0741 H   0  0  0  0  0  0  0  0  0  0  0  0
    2.5501    1.0043   -0.6525 H   0  0  0  0  0  0  0  0  0  0  0  0
    2.1838   -1.2181   -0.0253 H   0  0  0  0  0  0  0  0  0  0  0  0
  2  1  2  0  0  0  0
  3  2  1  0  0  0  0
  3 10  1  0  0  0  0
  3  4  1  0  0  0  0
  4 11  1  0  0  0  0
  4 12  1  0  0  0  0
  5  4  1  0  0  0  0
  6  7  1  0  0  0  0
  6  5  2  0  0  0  0
  7  8  2  0  0  0  0
  8 16  1  0  0  0  0
  8  2  1  0  0  0  0
  9  3  1  0  0  0  0
 13  5  1  0  0  0  0
 14  6  1  0  0  0  0
 15  7  1  0  0  0  0
M  END
