15
title
O 0.042578086 -2.3428745 0.77743006
C 0.015039677 -1.1487356 0.51955914
N -1.1658736 -0.48524728 0.3127373
C -1.3272593 0.96199656 0.30715388
C -0.71153295 1.606672 -0.9095871
C 0.5894764 1.4666028 -1.1932983
C 1.5327147 0.69005036 -0.40070248
C 1.2815161 -0.37835756 0.38012552
H -1.9839033 -1.0663233 0.41879445
H -2.3977628 1.171479 0.35096195
H -0.877326 1.3944204 1.2144113
H -1.3464234 2.2107549 -1.5503561
H 1.0039163 1.9879885 -2.0524561
H 2.5731761 0.99818444 -0.48757768
H 2.1102204 -0.87647533 0.87273264
