17
title
N -0.093330786 2.4288979 -0.6105431
C -0.045355003 1.1684241 -0.48914576
C -1.3259199 0.3633557 -0.46853542
C -1.4867628 -0.66276866 0.6748222
C -0.58449924 -1.861619 0.5297462
C 0.7399682 -1.7669153 0.43089873
C 1.4706329 -0.45194584 0.51296425
O 1.1561657 0.5056389 -0.51644444
H 0.8586662 2.8015742 -0.6519209
H -2.1380563 1.091783 -0.43471706
H -1.3963078 -0.17136665 -1.4241191
H -1.3044658 -0.16345759 1.6371307
H -2.5315144 -0.98519534 0.69501257
H -1.0558898 -2.8393888 0.47149545
H 1.3447373 -2.6596916 0.30064398
H 1.3021927 0.021768978 1.4914415
H 2.5462008 -0.6062806 0.40746444
