14
title
O 0.044711906 -2.105662 1.1435108
C 0.021890072 -1.1174562 0.4725638
O -1.172989 -0.5878773 0.12421575
C -1.4100527 0.5749618 -0.697081
C -0.69316745 1.8058556 -0.22270226
C 0.63719565 1.823985 -0.24141586
C 1.3736503 0.61279976 -0.73610955
O 1.1917121 -0.5553739 0.09162858
H -1.1457479 0.33862105 -1.7358304
H -2.4929934 0.69666445 -0.6531938
H -1.2768202 2.6376972 0.1574898
H 1.2084379 2.6715488 0.12255052
H 1.0864644 0.36858335 -1.7669305
H 2.4536812 0.76398003 -0.72300607
