18
title
O 0.036906112 -2.348193 0.33880532
C 0.02349967 -1.1571286 0.5586309
C -1.2889068 -0.39960364 0.6957999
C -1.5743152 0.5228539 -0.51819044
C -0.6994631 1.7494136 -0.6099158
C 0.6342776 1.7677633 -0.6280088
C 1.5447016 0.5657652 -0.5605032
C 1.317808 -0.36373678 0.660441
H -2.0819113 -1.1469438 0.78005624
H -1.2761704 0.20766957 1.6083187
H -1.4885242 -0.07809154 -1.4344167
H -2.6215138 0.8337105 -0.4614479
H -1.2219883 2.7011929 -0.6703934
H 1.1285931 2.7335324 -0.70227915
H 1.4506491 -0.03765766 -1.4742872
H 2.5841076 0.90532833 -0.5320739
H 1.3131226 0.2432998 1.5731938
H 2.133064 -1.0889477 0.72288346
