17
title
O -0.023762584 -2.4846811 -0.3192401
C -0.017352553 -1.2700415 -0.21062255
C -1.3511442 -0.5242652 -0.12606768
C -1.39611 0.99312013 -0.3854494
C -0.643368 1.7779255 0.65649426
C 0.6777758 1.6843982 0.7828263
C 1.4986997 0.82677287 -0.15017855
N 1.1750234 -0.6014765 -0.11310331
H -2.0096204 -1.0499835 -0.8236826
H -1.7451724 -0.7335976 0.8760307
H -0.98730224 1.2020316 -1.3836371
H -2.4439218 1.3058925 -0.41415036
H -1.2140955 2.3978705 1.3426713
H 1.2050171 2.2308483 1.5585871
H 1.408227 1.2148278 -1.1774901
H 2.55647 0.9042272 0.1119375
H 1.9537733 -1.2379806 -0.20783074
