17
title
N 0.06648528 2.2946835 0.8962371
C 0.028534021 1.047804 0.68082196
C -1.2983508 0.32570094 0.5921724
C -1.5818511 -0.41841364 -0.6960966
C -0.7897206 -1.3452404 -1.2292434
C 0.54516286 -1.743006 -0.6481809
C 1.4938481 -0.56354654 -0.42537412
O 1.1741478 0.2898789 0.6804609
H 1.0415661 2.5964797 0.966324
H -1.3330345 -0.38662338 1.4305763
H -2.0673375 1.0763015 0.7742958
H -2.525205 -0.18349159 -1.1807699
H -1.104527 -1.8474221 -2.1400476
H 0.41484848 -2.270863 0.30739048
H 1.0507313 -2.4444153 -1.3207326
H 2.4944081 -0.934062 -0.18554375
H 1.5619901 0.039611638 -1.3404741
