title
 OpenBabel02282109593D

 15 15  0  0  0  0  0  0  0  0999 V2000
    0.0324   -2.2927   -0.8190 O   0  0  0  0  0  0  0  0  0  0  0  0
   -0.0106   -1.1350   -0.4910 C   0  0  0  0  0  0  0  0  0  0  0  0
   -1.1741   -0.4522   -0.2353 N   0  0  0  0  0  0  0  0  0  0  0  0
   -1.3556    0.9857   -0.4254 C   0  0  0  0  0  0  0  0  0  0  0  0
   -0.5805    1.8579    0.5259 C   0  0  0  0  0  0  0  0  0  0  0  0
    0.5737    1.5454    1.1032 C   0  0  0  0  0  0  0  0  0  0  0  0
    1.3596    0.2845    0.8847 C   0  0  0  0  0  0  0  0  0  0  0  0
    1.1253   -0.3848   -0.3590 O   0  0  0  0  0  0  0  0  0  0  0  0
   -1.9841   -1.0231   -0.4261 H   0  0  0  0  0  0  0  0  0  0  0  0
   -1.1328    1.2807   -1.4635 H   0  0  0  0  0  0  0  0  0  0  0  0
   -2.4227    1.1795   -0.2791 H   0  0  0  0  0  0  0  0  0  0  0  0
   -1.0273    2.8281    0.7260 H   0  0  0  0  0  0  0  0  0  0  0  0
    1.0305    2.2475    1.7970 H   0  0  0  0  0  0  0  0  0  0  0  0
    2.4270    0.5260    0.8653 H   0  0  0  0  0  0  0  0  0  0  0  0
    1.2103   -0.4220    1.7143 H   0  0  0  0  0  0  0  0  0  0  0  0
  1  2  2  0  0  0  0
  2  8  1  0  0  0  0
  2  3  1  0  0  0  0
  4 11  1  0  0  0  0
  4  3  1  0  0  0  0
  4  5  1  0  0  0  0
  5 12  1  0  0  0  0
  5  6  2  0  0  0  0
  6 13  1  0  0  0  0
  7  6  1  0  0  0  0
  7 15  1  0  0  0  0
  8  7  1  0  0  0  0
  9  3  1  0  0  0  0
 10  4  1  0  0  0  0
 14  7  1  0  0  0  0
M  END
