15
title
N -0.08828861 2.3927193 0.63567865
C -0.022766791 1.1494567 0.42592487
O 1.1686728 0.48140234 0.38323307
C 1.4423231 -0.54526055 -0.585818
C 0.68383247 -1.8284638 -0.37434906
C -0.6457203 -1.8422029 -0.37350714
C -1.4289671 -0.57105386 -0.57228404
O -1.171925 0.43744707 0.41514105
H 0.8560995 2.7689438 0.70652497
H 1.2517352 -0.14561532 -1.5931709
H 2.5178895 -0.70751643 -0.4978326
H 1.2570361 -2.7362745 -0.21286269
H -1.199363 -2.7618365 -0.21087272
H -1.2456094 -0.15294586 -1.5732439
H -2.5013168 -0.75402546 -0.48804408
