15
title
O 0.03265583 -2.3474152 0.85860664
C -0.012514651 -1.1643066 0.61424613
C -1.3198942 -0.40059102 0.54236954
C -1.4524442 0.52847946 -0.6795544
N -0.66075736 1.7500175 -0.59515625
C 0.59609586 1.6702751 -0.5857242
O 1.366435 0.53890336 -0.63803285
C 1.2993019 -0.38896537 0.44882646
H -2.1269686 -1.1373907 0.55694896
H -1.4090493 0.21194468 1.4502617
H -1.1891862 -0.025810136 -1.5910225
H -2.5009978 0.8228189 -0.7713447
H 1.2020808 2.5770018 -0.601304
H 1.5027936 0.1342176 1.3960736
H 2.095158 -1.1140374 0.27634877
