title
 OpenBabel02282109593D

 18 18  0  0  0  0  0  0  0  0999 V2000
    0.0369   -2.3482    0.3388 O   0  0  0  0  0  0  0  0  0  0  0  0
    0.0235   -1.1571    0.5586 C   0  0  0  0  0  0  0  0  0  0  0  0
   -1.2889   -0.3996    0.6958 C   0  0  0  0  0  0  0  0  0  0  0  0
   -1.5743    0.5229   -0.5182 C   0  0  0  0  0  0  0  0  0  0  0  0
   -0.6995    1.7494   -0.6099 C   0  0  0  0  0  0  0  0  0  0  0  0
    0.6343    1.7678   -0.6280 C   0  0  0  0  0  0  0  0  0  0  0  0
    1.5447    0.5658   -0.5605 C   0  0  0  0  0  0  0  0  0  0  0  0
    1.3178   -0.3637    0.6604 C   0  0  0  0  0  0  0  0  0  0  0  0
   -2.0819   -1.1469    0.7801 H   0  0  0  0  0  0  0  0  0  0  0  0
   -1.2762    0.2077    1.6083 H   0  0  0  0  0  0  0  0  0  0  0  0
   -1.4885   -0.0781   -1.4344 H   0  0  0  0  0  0  0  0  0  0  0  0
   -2.6215    0.8337   -0.4614 H   0  0  0  0  0  0  0  0  0  0  0  0
   -1.2220    2.7012   -0.6704 H   0  0  0  0  0  0  0  0  0  0  0  0
    1.1286    2.7335   -0.7023 H   0  0  0  0  0  0  0  0  0  0  0  0
    1.4506   -0.0377   -1.4743 H   0  0  0  0  0  0  0  0  0  0  0  0
    2.5841    0.9053   -0.5321 H   0  0  0  0  0  0  0  0  0  0  0  0
    1.3131    0.2433    1.5732 H   0  0  0  0  0  0  0  0  0  0  0  0
    2.1331   -1.0889    0.7229 H   0  0  0  0  0  0  0  0  0  0  0  0
  1  2  2  0  0  0  0
  2  8  1  0  0  0  0
  2  3  1  0  0  0  0
  3  9  1  0  0  0  0
  3 10  1  0  0  0  0
  4 12  1  0  0  0  0
  4  3  1  0  0  0  0
  5  4  1  0  0  0  0
  6  5  2  0  0  0  0
  6  7  1  0  0  0  0
  7 16  1  0  0  0  0
  7  8  1  0  0  0  0
  8 18  1  0  0  0  0
  8 17  1  0  0  0  0
 11  4  1  0  0  0  0
 13  5  1  0  0  0  0
 14  6  1  0  0  0  0
 15  7  1  0  0  0  0
M  END
