title
 OpenBabel02282109593D

 15 15  0  0  0  0  0  0  0  0999 V2000
    0.0327   -2.3474    0.8586 O   0  0  0  0  0  0  0  0  0  0  0  0
   -0.0125   -1.1643    0.6142 C   0  0  0  0  0  0  0  0  0  0  0  0
   -1.3199   -0.4006    0.5424 C   0  0  0  0  0  0  0  0  0  0  0  0
   -1.4524    0.5285   -0.6796 C   0  0  0  0  0  0  0  0  0  0  0  0
   -0.6608    1.7500   -0.5952 N   0  0  0  0  0  0  0  0  0  0  0  0
    0.5961    1.6703   -0.5857 C   0  0  0  0  0  0  0  0  0  0  0  0
    1.3664    0.5389   -0.6380 O   0  0  0  0  0  0  0  0  0  0  0  0
    1.2993   -0.3890    0.4488 C   0  0  0  0  0  0  0  0  0  0  0  0
   -2.1270   -1.1374    0.5569 H   0  0  0  0  0  0  0  0  0  0  0  0
   -1.4090    0.2119    1.4503 H   0  0  0  0  0  0  0  0  0  0  0  0
   -1.1892   -0.0258   -1.5910 H   0  0  0  0  0  0  0  0  0  0  0  0
   -2.5010    0.8228   -0.7713 H   0  0  0  0  0  0  0  0  0  0  0  0
    1.2021    2.5770   -0.6013 H   0  0  0  0  0  0  0  0  0  0  0  0
    1.5028    0.1342    1.3961 H   0  0  0  0  0  0  0  0  0  0  0  0
    2.0952   -1.1140    0.2763 H   0  0  0  0  0  0  0  0  0  0  0  0
  2  1  2  0  0  0  0
  3  9  1  0  0  0  0
  3  2  1  0  0  0  0
  3 10  1  0  0  0  0
  4  5  1  0  0  0  0
  4  3  1  0  0  0  0
  5  6  2  0  0  0  0
  7  6  1  0  0  0  0
  7  8  1  0  0  0  0
  8  2  1  0  0  0  0
  8 14  1  0  0  0  0
 11  4  1  0  0  0  0
 12  4  1  0  0  0  0
 13  6  1  0  0  0  0
 15  8  1  0  0  0  0
M  END
