title
 OpenBabel02282109593D

 14 14  0  0  0  0  0  0  0  0999 V2000
   -0.0108    1.7611    1.7451 N   0  0  0  0  0  0  0  0  0  0  0  0
    0.0330    1.0405    0.7107 C   0  0  0  0  0  0  0  0  0  0  0  0
   -1.2314    0.7238   -0.0681 C   0  0  0  0  0  0  0  0  0  0  0  0
   -1.5384   -0.6803   -0.3145 N   0  0  0  0  0  0  0  0  0  0  0  0
   -0.6973   -1.5780   -0.5763 C   0  0  0  0  0  0  0  0  0  0  0  0
    0.6567   -1.5239   -0.7495 O   0  0  0  0  0  0  0  0  0  0  0  0
    1.2266   -0.2415   -0.9177 C   0  0  0  0  0  0  0  0  0  0  0  0
    1.2255    0.5200    0.2602 O   0  0  0  0  0  0  0  0  0  0  0  0
    0.9270    1.8916    2.1306 H   0  0  0  0  0  0  0  0  0  0  0  0
   -2.0459    1.1478    0.5207 H   0  0  0  0  0  0  0  0  0  0  0  0
   -1.2280    1.2716   -1.0205 H   0  0  0  0  0  0  0  0  0  0  0  0
   -1.0235   -2.6097   -0.6952 H   0  0  0  0  0  0  0  0  0  0  0  0
    2.2732   -0.4133   -1.1664 H   0  0  0  0  0  0  0  0  0  0  0  0
    0.7219    0.2849   -1.7358 H   0  0  0  0  0  0  0  0  0  0  0  0
  1  9  1  0  0  0  0
  2  1  2  0  0  0  0
  3 10  1  0  0  0  0
  3  2  1  0  0  0  0
  4  3  1  0  0  0  0
  5  4  2  0  0  0  0
  6  5  1  0  0  0  0
  7  6  1  0  0  0  0
  7  8  1  0  0  0  0
  8  2  1  0  0  0  0
 11  3  1  0  0  0  0
 12  5  1  0  0  0  0
 13  7  1  0  0  0  0
 14  7  1  0  0  0  0
M  END
