17
title
O 0.18460785 -1.0870218 -2.1580825
C 0.013244335 -0.8029717 -0.9983656
C -1.3199092 -0.20255111 -0.5311209
N -1.3467808 0.11531092 0.8866786
C -0.6891326 1.3683605 1.2373997
C 0.8047435 1.3360744 1.0686513
C 1.5574547 0.3410387 0.5984888
C 1.079169 -0.9996455 0.07526258
H -1.5414376 0.65445924 -1.1928767
H -2.0822284 -0.96114874 -0.7415135
H -2.3026283 0.13201858 1.2185946
H -1.082285 2.2313511 0.65950525
H -0.920249 1.5869417 2.2887712
H 1.3022186 2.2556283 1.3713106
H 2.6296902 0.5048952 0.5345078
H 0.65168464 -1.5966777 0.88792634
H 1.9048375 -1.5525159 -0.3757156
