15
title
O -0.05880998 -1.7284265 -1.8418641
C -0.059002887 -0.9906054 -0.8880526
C -1.33188 -0.26062733 -0.4577397
C -1.3274761 0.26705378 0.9709744
O -0.55628586 1.4637415 1.1240388
C 0.7612047 1.460381 0.80126506
N 1.5372832 0.5894465 0.32398245
C 1.2072624 -0.77304965 -0.052046675
H -1.4972475 0.57592505 -1.148822
H -2.1660495 -0.9537186 -0.60755414
H -2.3367236 0.5583965 1.2693228
H -0.97811145 -0.49197274 1.681239
H 1.158971 2.4499223 1.0266045
H 1.1199677 -1.4072223 0.84377164
H 2.035648 -1.1839507 -0.6344639
