16
title
O 0.08845248 -2.119209 -1.2224454
C 0.049531568 -1.022846 -0.733411
C -1.2737472 -0.2772473 -0.55623525
C -1.5600247 0.3501289 0.7874367
C -0.79523444 1.3013599 1.3144568
C 0.46734396 1.7613819 0.6305196
C 1.4915324 0.6357224 0.48910666
O 1.2251623 -0.39771974 -0.47283885
H -1.2850983 0.5040333 -1.3315861
H -2.0434763 -1.0001504 -0.8255492
H -2.451112 0.008985289 1.3053149
H -1.0532786 1.7445986 2.271612
H 0.2501045 2.1816201 -0.36169297
H 0.9485612 2.559214 1.2054571
H 2.4516125 1.0444863 0.16087912
H 1.6434858 0.15573908 1.463578
