13
title
O 0.06481417 -1.6293249 -1.8026811
C 0.059121512 -0.98086536 -0.79948395
C -1.1964403 -0.7711952 0.057287462
N -1.550107 0.57935226 0.4575845
C -0.74742365 1.499504 0.76114464
O 0.6130032 1.5100232 0.86153495
C 1.2563965 0.25550044 0.8674123
O 1.22227 -0.38901627 -0.3836327
H -2.013517 -1.1691226 -0.5477472
H -1.130635 -1.4224657 0.94002914
H -1.1248817 2.4940293 0.99123704
H 2.306163 0.46073616 1.071325
H 0.83183104 -0.38080144 1.6519761
