title
 OpenBabel02282109593D

 15 15  0  0  0  0  0  0  0  0999 V2000
   -0.3222   -2.2814   -0.8922 O   0  0  0  0  0  0  0  0  0  0  0  0
   -0.1516   -1.1328   -0.6070 C   0  0  0  0  0  0  0  0  0  0  0  0
   -1.1874   -0.0464   -0.7574 C   0  0  0  0  0  0  0  0  0  0  0  0
   -1.4494    0.6939    0.5645 C   0  0  0  0  0  0  0  0  0  0  0  0
   -0.4364    1.8125    0.8077 C   0  0  0  0  0  0  0  0  0  0  0  0
    0.9738    1.5061    0.7229 N   0  0  0  0  0  0  0  0  0  0  0  0
    1.5323    0.4530    0.3405 C   0  0  0  0  0  0  0  0  0  0  0  0
    1.0830   -0.7842   -0.0979 O   0  0  0  0  0  0  0  0  0  0  0  0
   -0.8548    0.6646   -1.5249 H   0  0  0  0  0  0  0  0  0  0  0  0
   -2.0854   -0.5412   -1.1296 H   0  0  0  0  0  0  0  0  0  0  0  0
   -2.4501    1.1377    0.5383 H   0  0  0  0  0  0  0  0  0  0  0  0
   -1.4474   -0.0183    1.3976 H   0  0  0  0  0  0  0  0  0  0  0  0
   -0.6180    2.6239    0.0889 H   0  0  0  0  0  0  0  0  0  0  0  0
   -0.6048    2.2593    1.7952 H   0  0  0  0  0  0  0  0  0  0  0  0
    2.6192    0.3895    0.3520 H   0  0  0  0  0  0  0  0  0  0  0  0
  1  2  2  0  0  0  0
  2  8  1  0  0  0  0
  3  2  1  0  0  0  0
  3  4  1  0  0  0  0
  4  5  1  0  0  0  0
  4 12  1  0  0  0  0
  5 14  1  0  0  0  0
  6  5  1  0  0  0  0
  7 15  1  0  0  0  0
  7  6  2  0  0  0  0
  8  7  1  0  0  0  0
  9  3  1  0  0  0  0
 10  3  1  0  0  0  0
 11  4  1  0  0  0  0
 13  5  1  0  0  0  0
M  END
