title
 OpenBabel02282109593D

 13 13  0  0  0  0  0  0  0  0999 V2000
    0.0648   -1.6293   -1.8027 O   0  0  0  0  0  0  0  0  0  0  0  0
    0.0591   -0.9809   -0.7995 C   0  0  0  0  0  0  0  0  0  0  0  0
   -1.1964   -0.7712    0.0573 C   0  0  0  0  0  0  0  0  0  0  0  0
   -1.5501    0.5794    0.4576 N   0  0  0  0  0  0  0  0  0  0  0  0
   -0.7474    1.4995    0.7611 C   0  0  0  0  0  0  0  0  0  0  0  0
    0.6130    1.5100    0.8615 O   0  0  0  0  0  0  0  0  0  0  0  0
    1.2564    0.2555    0.8674 C   0  0  0  0  0  0  0  0  0  0  0  0
    1.2223   -0.3890   -0.3836 O   0  0  0  0  0  0  0  0  0  0  0  0
   -2.0135   -1.1691   -0.5477 H   0  0  0  0  0  0  0  0  0  0  0  0
   -1.1306   -1.4225    0.9400 H   0  0  0  0  0  0  0  0  0  0  0  0
   -1.1249    2.4940    0.9912 H   0  0  0  0  0  0  0  0  0  0  0  0
    2.3062    0.4607    1.0713 H   0  0  0  0  0  0  0  0  0  0  0  0
    0.8318   -0.3808    1.6520 H   0  0  0  0  0  0  0  0  0  0  0  0
  1  2  2  0  0  0  0
  2  8  1  0  0  0  0
  2  3  1  0  0  0  0
  3  4  1  0  0  0  0
  3 10  1  0  0  0  0
  4  5  2  0  0  0  0
  5  6  1  0  0  0  0
  5 11  1  0  0  0  0
  6  7  1  0  0  0  0
  7 12  1  0  0  0  0
  7 13  1  0  0  0  0
  8  7  1  0  0  0  0
  9  3  1  0  0  0  0
M  END
