14
title
N -0.010840507 1.7611287 1.7450844
C 0.033045173 1.0404812 0.7106772
C -1.2313633 0.72379494 -0.06806958
N -1.5383757 -0.6802615 -0.31447726
C -0.6972558 -1.5779876 -0.5763433
O 0.65673107 -1.5239097 -0.7495396
C 1.2265552 -0.24148609 -0.917745
O 1.2254903 0.5199581 0.2601882
H 0.9270077 1.8916125 2.130555
H -2.0458817 1.1478251 0.5207153
H -1.227962 1.2715551 -1.0204676
H -1.0234963 -2.609725 -0.69515765
H 2.273188 -0.41326705 -1.1663532
H 0.72193897 0.28490886 -1.7358065
