17
title
O 0.024804445 -2.3240473 -0.71925694
C -0.0024384025 -1.1124547 -0.6221167
C -1.3134152 -0.32623395 -0.5325041
C -1.4965981 0.48152724 0.73587143
C -0.60731643 1.2457155 1.371951
C 0.8150812 1.5467893 0.9812652
C 1.2124323 1.0788428 -0.42227614
N 1.1389123 -0.36048505 -0.60364527
H -1.4015849 0.3185269 -1.4185146
H -2.1049466 -1.0724201 -0.6127547
H -2.486698 0.39900342 1.1773317
H -0.9310179 1.7247771 2.2941852
H 0.9772169 2.6322143 1.0430468
H 1.5004493 1.1044959 1.7190373
H 0.5825524 1.5808638 -1.1671323
H 2.2413092 1.3823992 -0.63312435
H 1.9925427 -0.897781 -0.6166294
