15
title
O 0.006785351 -2.4426363 -0.29665497
C 0.011342111 -1.2531362 -0.10722846
N -1.1569974 -0.5677408 0.20706673
C -1.522587 0.77366936 0.027757032
C -0.7525511 1.8526498 -0.124422446
C 0.74582946 1.8889662 -0.08730913
C 1.3426038 0.6560837 0.5754377
O 1.1498052 -0.5369184 -0.20064196
H -1.9247676 -1.2192564 0.26167646
H -2.601538 0.8882147 0.02069494
H -1.2700158 2.7948754 -0.27003667
H 1.1707448 1.991583 -1.0953078
H 1.080079 2.7735884 0.4715374
H 2.4273775 0.7498411 0.66110265
H 0.92769283 0.5135554 1.5792279
