13
title
O -0.08614281 -2.001378 -1.341557
C -0.1361104 -1.0768578 -0.5956792
O -1.2001586 -0.2745739 -0.51325774
C -1.359083 0.64265823 0.5806726
C -0.42694587 1.835635 0.4585837
N 0.97595835 1.5516286 0.6782001
C 1.4691169 0.40312222 0.5929487
O 0.9213401 -0.82797635 0.26079875
H -2.4014452 0.96127605 0.5165167
H -1.2106645 0.11784342 1.5302901
H -0.5480544 2.2929578 -0.5314182
H -0.7294802 2.5962343 1.1886394
H 2.518633 0.23361447 0.8211714
