title
 OpenBabel02282109593D

 15 15  0  0  0  0  0  0  0  0999 V2000
   -0.0886    1.7648    1.8645 N   0  0  0  0  0  0  0  0  0  0  0  0
   -0.0294    0.9468    0.8905 C   0  0  0  0  0  0  0  0  0  0  0  0
    1.1829    0.4996    0.4441 O   0  0  0  0  0  0  0  0  0  0  0  0
    1.2936   -0.1805   -0.7938 C   0  0  0  0  0  0  0  0  0  0  0  0
    0.7086   -1.4412   -0.7749 O   0  0  0  0  0  0  0  0  0  0  0  0
   -0.6333   -1.4713   -1.2192 C   0  0  0  0  0  0  0  0  0  0  0  0
   -1.5599   -0.4923   -0.5706 C   0  0  0  0  0  0  0  0  0  0  0  0
   -1.2958    0.4981    0.2869 C   0  0  0  0  0  0  0  0  0  0  0  0
    0.8563    1.9886    2.1835 H   0  0  0  0  0  0  0  0  0  0  0  0
    0.8832    0.4391   -1.6046 H   0  0  0  0  0  0  0  0  0  0  0  0
    2.3680   -0.3172   -0.9293 H   0  0  0  0  0  0  0  0  0  0  0  0
   -0.6771   -1.3274   -2.3141 H   0  0  0  0  0  0  0  0  0  0  0  0
   -0.9871   -2.4920   -1.0306 H   0  0  0  0  0  0  0  0  0  0  0  0
   -2.5984   -0.6279   -0.8688 H   0  0  0  0  0  0  0  0  0  0  0  0
   -2.1247    1.0891    0.6607 H   0  0  0  0  0  0  0  0  0  0  0  0
  1  9  1  0  0  0  0
  2  1  2  0  0  0  0
  3  2  1  0  0  0  0
  4  5  1  0  0  0  0
  4  3  1  0  0  0  0
  6 13  1  0  0  0  0
  6  5  1  0  0  0  0
  6  7  1  0  0  0  0
  7  8  2  0  0  0  0
  8 15  1  0  0  0  0
  8  2  1  0  0  0  0
 10  4  1  0  0  0  0
 11  4  1  0  0  0  0
 12  6  1  0  0  0  0
 14  7  1  0  0  0  0
M  END
