15
title
O 0.014910768 -2.494248 -0.19967982
C 0.038668524 -1.2806323 -0.16632222
C -1.2332829 -0.44358957 -0.29221746
O -1.3155822 0.6187371 0.6298742
C -0.7670092 1.8393253 0.18124528
C 0.7168604 1.818601 -0.03919505
C 1.5301483 0.7613629 -0.09353806
N 1.2323503 -0.60252357 -0.028083984
H -1.3204654 -0.0842651 -1.3304571
H -2.0632646 -1.1254888 -0.09606905
H -1.2851388 2.1782436 -0.7350589
H -1.0088128 2.5701165 0.96245015
H 1.1832602 2.792717 -0.15255325
H 2.5944376 0.9298123 -0.22108147
H 2.0191832 -1.2339685 0.020718854
