16
title
O -0.017357733 -2.4932044 -0.10276916
C -0.034186646 -1.2744538 -0.09261994
N -1.1128193 -0.5498589 0.35028115
C -1.4688944 0.7956122 -0.08803332
C -0.61771095 1.8849262 0.5671096
C 0.8352837 1.8044094 0.2005885
C 1.5029157 0.7499279 -0.2764087
N 1.0755427 -0.5556978 -0.5316993
H -1.8765253 -1.166391 0.58097
H -1.3978845 0.8831159 -1.180661
H -2.518251 0.9448675 0.17881311
H -1.0118895 2.8630326 0.26057327
H -0.75173116 1.8318943 1.6563394
H 1.4168458 2.7129877 0.31910092
H 2.5524416 0.8712822 -0.5254369
H 1.7899263 -1.1970596 -0.83902746
