title
 OpenBabel02282109593D

 15 15  0  0  0  0  0  0  0  0999 V2000
    0.0068   -2.4426   -0.2967 O   0  0  0  0  0  0  0  0  0  0  0  0
    0.0113   -1.2531   -0.1072 C   0  0  0  0  0  0  0  0  0  0  0  0
   -1.1570   -0.5677    0.2071 N   0  0  0  0  0  0  0  0  0  0  0  0
   -1.5226    0.7737    0.0278 C   0  0  0  0  0  0  0  0  0  0  0  0
   -0.7526    1.8526   -0.1244 C   0  0  0  0  0  0  0  0  0  0  0  0
    0.7458    1.8890   -0.0873 C   0  0  0  0  0  0  0  0  0  0  0  0
    1.3426    0.6561    0.5754 C   0  0  0  0  0  0  0  0  0  0  0  0
    1.1498   -0.5369   -0.2006 O   0  0  0  0  0  0  0  0  0  0  0  0
   -1.9248   -1.2193    0.2617 H   0  0  0  0  0  0  0  0  0  0  0  0
   -2.6015    0.8882    0.0207 H   0  0  0  0  0  0  0  0  0  0  0  0
   -1.2700    2.7949   -0.2700 H   0  0  0  0  0  0  0  0  0  0  0  0
    1.1707    1.9916   -1.0953 H   0  0  0  0  0  0  0  0  0  0  0  0
    1.0801    2.7736    0.4715 H   0  0  0  0  0  0  0  0  0  0  0  0
    2.4274    0.7498    0.6611 H   0  0  0  0  0  0  0  0  0  0  0  0
    0.9277    0.5136    1.5792 H   0  0  0  0  0  0  0  0  0  0  0  0
  1  2  2  0  0  0  0
  2  3  1  0  0  0  0
  3  9  1  0  0  0  0
  4  3  1  0  0  0  0
  5  6  1  0  0  0  0
  5  4  2  0  0  0  0
  6 13  1  0  0  0  0
  6  7  1  0  0  0  0
  7 14  1  0  0  0  0
  7 15  1  0  0  0  0
  8  2  1  0  0  0  0
  8  7  1  0  0  0  0
 10  4  1  0  0  0  0
 11  5  1  0  0  0  0
 12  6  1  0  0  0  0
M  END
