title
 OpenBabel02282109593D

 15 15  0  0  0  0  0  0  0  0999 V2000
   -0.0340   -2.5006   -0.0481 O   0  0  0  0  0  0  0  0  0  0  0  0
   -0.0751   -1.2848   -0.0679 C   0  0  0  0  0  0  0  0  0  0  0  0
   -1.1987   -0.5659    0.2156 N   0  0  0  0  0  0  0  0  0  0  0  0
   -1.4498    0.8198   -0.1474 C   0  0  0  0  0  0  0  0  0  0  0  0
   -0.5210    1.8081    0.5641 C   0  0  0  0  0  0  0  0  0  0  0  0
    0.8641    1.8111    0.1396 N   0  0  0  0  0  0  0  0  0  0  0  0
    1.4712    0.7710   -0.2499 C   0  0  0  0  0  0  0  0  0  0  0  0
    1.0816   -0.5594   -0.3948 N   0  0  0  0  0  0  0  0  0  0  0  0
   -1.9934   -1.1648    0.3743 H   0  0  0  0  0  0  0  0  0  0  0  0
   -1.3751    0.9687   -1.2338 H   0  0  0  0  0  0  0  0  0  0  0  0
   -2.4822    1.0391    0.1381 H   0  0  0  0  0  0  0  0  0  0  0  0
   -0.9126    2.8201    0.4048 H   0  0  0  0  0  0  0  0  0  0  0  0
   -0.5686    1.6225    1.6456 H   0  0  0  0  0  0  0  0  0  0  0  0
    2.5165    0.8834   -0.5459 H   0  0  0  0  0  0  0  0  0  0  0  0
    1.8215   -1.1986   -0.6473 H   0  0  0  0  0  0  0  0  0  0  0  0
  2  1  2  0  0  0  0
  2  3  1  0  0  0  0
  3  9  1  0  0  0  0
  4 11  1  0  0  0  0
  4  3  1  0  0  0  0
  4  5  1  0  0  0  0
  5 13  1  0  0  0  0
  6  5  1  0  0  0  0
  7  6  2  0  0  0  0
  8  7  1  0  0  0  0
  8  2  1  0  0  0  0
 10  4  1  0  0  0  0
 12  5  1  0  0  0  0
 14  7  1  0  0  0  0
 15  8  1  0  0  0  0
M  END
