15
title
O -0.033978038 -2.500621 -0.048128214
C -0.07512648 -1.2847613 -0.067893505
N -1.1987146 -0.56593245 0.21560352
C -1.4497752 0.8198455 -0.14742711
C -0.5210046 1.8080524 0.5641237
N 0.86413443 1.8110965 0.13957797
C 1.4712336 0.7709623 -0.24989726
N 1.0816375 -0.5594402 -0.39479077
H -1.9934282 -1.1647978 0.3742669
H -1.3751022 0.96869713 -1.2338198
H -2.4822218 1.039066 0.13805312
H -0.91264135 2.8200905 0.40480897
H -0.568641 1.6224943 1.6456493
H 2.5164666 0.88335115 -0.54590833
H 1.821495 -1.1986 -0.64728385
