14
title
O 0.022869432 -2.4374554 -0.35932833
C 0.05342248 -1.2595859 -0.119251855
N -1.1319817 -0.5494417 0.11141704
C -1.484488 0.8018383 0.02086866
N -0.79431593 1.8548979 -0.09034819
C 0.6533176 1.8174757 -0.13019079
C 1.3108854 0.6703893 0.62389666
O 1.2122326 -0.5883758 -0.058285728
H -1.9140612 -1.1888564 0.1018606
H -2.5699794 0.90641105 0.061933443
H 0.99224544 1.797428 -1.1748761
H 1.022706 2.7596104 0.2937616
H 2.385924 0.8432075 0.7088285
H 0.8944142 0.5776485 1.633567
