title
 OpenBabel02282109593D

 16 16  0  0  0  0  0  0  0  0999 V2000
   -0.0174   -2.4932   -0.1028 O   0  0  0  0  0  0  0  0  0  0  0  0
   -0.0342   -1.2745   -0.0926 C   0  0  0  0  0  0  0  0  0  0  0  0
   -1.1128   -0.5499    0.3503 N   0  0  0  0  0  0  0  0  0  0  0  0
   -1.4689    0.7956   -0.0880 C   0  0  0  0  0  0  0  0  0  0  0  0
   -0.6177    1.8849    0.5671 C   0  0  0  0  0  0  0  0  0  0  0  0
    0.8353    1.8044    0.2006 C   0  0  0  0  0  0  0  0  0  0  0  0
    1.5029    0.7499   -0.2764 C   0  0  0  0  0  0  0  0  0  0  0  0
    1.0755   -0.5557   -0.5317 N   0  0  0  0  0  0  0  0  0  0  0  0
   -1.8765   -1.1664    0.5810 H   0  0  0  0  0  0  0  0  0  0  0  0
   -1.3979    0.8831   -1.1807 H   0  0  0  0  0  0  0  0  0  0  0  0
   -2.5183    0.9449    0.1788 H   0  0  0  0  0  0  0  0  0  0  0  0
   -1.0119    2.8630    0.2606 H   0  0  0  0  0  0  0  0  0  0  0  0
   -0.7517    1.8319    1.6563 H   0  0  0  0  0  0  0  0  0  0  0  0
    1.4168    2.7130    0.3191 H   0  0  0  0  0  0  0  0  0  0  0  0
    2.5524    0.8713   -0.5254 H   0  0  0  0  0  0  0  0  0  0  0  0
    1.7899   -1.1971   -0.8390 H   0  0  0  0  0  0  0  0  0  0  0  0
  1  2  2  0  0  0  0
  2  3  1  0  0  0  0
  3  9  1  0  0  0  0
  4 11  1  0  0  0  0
  4  3  1  0  0  0  0
  4  5  1  0  0  0  0
  5 13  1  0  0  0  0
  6 14  1  0  0  0  0
  6  5  1  0  0  0  0
  7  6  2  0  0  0  0
  8  7  1  0  0  0  0
  8  2  1  0  0  0  0
 10  4  1  0  0  0  0
 12  5  1  0  0  0  0
 15  7  1  0  0  0  0
 16  8  1  0  0  0  0
M  END
