title
 OpenBabel02282109593D

 17 17  0  0  0  0  0  0  0  0999 V2000
    0.0899   -2.5192    0.2171 O   0  0  0  0  0  0  0  0  0  0  0  0
    0.0693   -1.3083    0.1158 C   0  0  0  0  0  0  0  0  0  0  0  0
   -1.2722   -0.5658    0.0051 C   0  0  0  0  0  0  0  0  0  0  0  0
   -1.2668    0.6640   -0.9231 C   0  0  0  0  0  0  0  0  0  0  0  0
   -0.6509    1.9214   -0.2685 C   0  0  0  0  0  0  0  0  0  0  0  0
    0.4377    1.6258    0.6820 N   0  0  0  0  0  0  0  0  0  0  0  0
    1.4608    0.7801    0.1625 C   0  0  0  0  0  0  0  0  0  0  0  0
    1.3375   -0.5425   -0.0079 C   0  0  0  0  0  0  0  0  0  0  0  0
   -1.9896   -1.3145   -0.3411 H   0  0  0  0  0  0  0  0  0  0  0  0
   -1.6000   -0.2835    1.0163 H   0  0  0  0  0  0  0  0  0  0  0  0
   -0.7209    0.4118   -1.8382 H   0  0  0  0  0  0  0  0  0  0  0  0
   -2.2931    0.8910   -1.2315 H   0  0  0  0  0  0  0  0  0  0  0  0
   -0.2750    2.6053   -1.0370 H   0  0  0  0  0  0  0  0  0  0  0  0
   -1.4134    2.4664    0.2979 H   0  0  0  0  0  0  0  0  0  0  0  0
    0.0251    1.1708    1.4890 H   0  0  0  0  0  0  0  0  0  0  0  0
    2.3996    1.2799   -0.0737 H   0  0  0  0  0  0  0  0  0  0  0  0
    2.1992   -1.1407   -0.2904 H   0  0  0  0  0  0  0  0  0  0  0  0
  2  1  2  0  0  0  0
  3  2  1  0  0  0  0
  3 10  1  0  0  0  0
  4  5  1  0  0  0  0
  4  3  1  0  0  0  0
  5 14  1  0  0  0  0
  5  6  1  0  0  0  0
  6 15  1  0  0  0  0
  7  6  1  0  0  0  0
  8  2  1  0  0  0  0
  8  7  2  0  0  0  0
  9  3  1  0  0  0  0
 11  4  1  0  0  0  0
 12  4  1  0  0  0  0
 13  5  1  0  0  0  0
 16  7  1  0  0  0  0
 17  8  1  0  0  0  0
M  END
