14
title
O 0.072185166 -1.538011 1.9472021
C 0.034445766 -0.89304656 0.9315045
O -1.179217 -0.5221655 0.44192
C -1.2986078 0.14251046 -0.8060541
O -0.72097474 1.4079659 -0.8007122
C 0.6115771 1.4459727 -1.2667992
C 1.5425404 0.44525868 -0.6611186
C 1.2897558 -0.52262825 0.22439702
H -0.8850571 -0.48452574 -1.608515
H -2.3738623 0.26922113 -0.9399047
H 0.6417141 1.329911 -2.3649828
H 0.975551 2.4589381 -1.0559751
H 2.5681455 0.54695493 -1.0136882
H 2.1149414 -1.1332839 0.5755591
