title
 OpenBabel02282109593D

 16 16  0  0  0  0  0  0  0  0999 V2000
    0.0292   -1.0376    2.2387 O   0  0  0  0  0  0  0  0  0  0  0  0
   -0.0056   -0.6529    1.0961 C   0  0  0  0  0  0  0  0  0  0  0  0
   -1.2152   -0.3779    0.5514 O   0  0  0  0  0  0  0  0  0  0  0  0
   -1.3817   -0.0308   -0.8251 C   0  0  0  0  0  0  0  0  0  0  0  0
   -0.7169    1.2949   -1.1882 C   0  0  0  0  0  0  0  0  0  0  0  0
    0.7446    1.1280   -1.6055 C   0  0  0  0  0  0  0  0  0  0  0  0
    1.5837    0.2371   -0.7417 C   0  0  0  0  0  0  0  0  0  0  0  0
    1.2594   -0.5011    0.3258 C   0  0  0  0  0  0  0  0  0  0  0  0
   -1.0188   -0.8455   -1.4652 H   0  0  0  0  0  0  0  0  0  0  0  0
   -2.4653    0.0332   -0.9453 H   0  0  0  0  0  0  0  0  0  0  0  0
   -1.2704    1.7664   -2.0073 H   0  0  0  0  0  0  0  0  0  0  0  0
   -0.8042    1.9616   -0.3232 H   0  0  0  0  0  0  0  0  0  0  0  0
    0.7918    0.7249   -2.6288 H   0  0  0  0  0  0  0  0  0  0  0  0
    1.2338    2.1093   -1.6726 H   0  0  0  0  0  0  0  0  0  0  0  0
    2.6280    0.1911   -1.0489 H   0  0  0  0  0  0  0  0  0  0  0  0
    2.0516   -1.0535    0.8214 H   0  0  0  0  0  0  0  0  0  0  0  0
  2  1  2  0  0  0  0
  3  2  1  0  0  0  0
  4  3  1  0  0  0  0
  5  4  1  0  0  0  0
  5 12  1  0  0  0  0
  6  5  1  0  0  0  0
  6  7  1  0  0  0  0
  7  8  2  0  0  0  0
  8 16  1  0  0  0  0
  8  2  1  0  0  0  0
  9  4  1  0  0  0  0
 10  4  1  0  0  0  0
 11  5  1  0  0  0  0
 13  6  1  0  0  0  0
 14  6  1  0  0  0  0
 15  7  1  0  0  0  0
M  END
