16
title
O 0.089151025 -1.4882185 2.0937927
C 0.046290327 -0.7586651 1.1204722
C -1.3001437 -0.23278989 0.63752747
C -1.4195056 0.12932144 -0.8395518
O -0.67963696 1.299002 -1.1475902
C 0.6395638 1.0794772 -1.5668548
C 1.5570704 0.32081378 -0.65450287
C 1.3191221 -0.41051972 0.4417257
H -2.0482178 -0.98147404 0.9168358
H -1.5236838 0.66954243 1.2216148
H -1.1153475 -0.7075664 -1.4860219
H -2.4649713 0.35922372 -1.069561
H 0.66082007 0.569806 -2.5504599
H 1.0678275 2.0755098 -1.7373043
H 2.5935628 0.37833822 -0.9887692
H 2.1644835 -0.8810203 0.9371073
