16
title
O 0.029223563 -1.0376152 2.238708
C -0.0055563506 -0.6528779 1.0961225
O -1.215151 -0.37788856 0.5514116
C -1.3817325 -0.03082322 -0.8251122
C -0.71686935 1.2949061 -1.1881669
C 0.7446036 1.1280472 -1.6054881
C 1.583654 0.23712613 -0.74167824
C 1.259375 -0.50106645 0.32576
H -1.0187508 -0.84545326 -1.4651985
H -2.4653406 0.033194553 -0.9452845
H -1.2704376 1.7664237 -2.0073092
H -0.8042021 1.961556 -0.32319355
H 0.7918009 0.7248888 -2.62882
H 1.2337682 2.1093402 -1.6725867
H 2.6280298 0.19111349 -1.0488598
H 2.0516005 -1.0534898 0.8213666
