17
title
O 0.08991771 -2.519224 0.21714796
C 0.06927328 -1.3083184 0.115811646
C -1.2722307 -0.565806 0.005142142
C -1.2667836 0.6640493 -0.9230643
C -0.6508703 1.9213946 -0.26845822
N 0.43769905 1.6258295 0.68199086
C 1.4607776 0.7800953 0.16249122
C 1.337465 -0.542533 -0.007924574
H -1.9896245 -1.3145245 -0.34107703
H -1.6000078 -0.28351548 1.0163442
H -0.72085166 0.41177008 -1.8382422
H -2.2931478 0.890968 -1.2314602
H -0.27495423 2.605274 -1.0369575
H -1.4134425 2.4664018 0.29794285
H 0.025080724 1.1707864 1.4889839
H 2.3995833 1.2798676 -0.07374493
H 2.1992352 -1.1406646 -0.29041472
