title
 OpenBabel02282109593D

 16 16  0  0  0  0  0  0  0  0999 V2000
    0.0892   -1.4882    2.0938 O   0  0  0  0  0  0  0  0  0  0  0  0
    0.0463   -0.7587    1.1205 C   0  0  0  0  0  0  0  0  0  0  0  0
   -1.3001   -0.2328    0.6375 C   0  0  0  0  0  0  0  0  0  0  0  0
   -1.4195    0.1293   -0.8396 C   0  0  0  0  0  0  0  0  0  0  0  0
   -0.6796    1.2990   -1.1476 O   0  0  0  0  0  0  0  0  0  0  0  0
    0.6396    1.0795   -1.5669 C   0  0  0  0  0  0  0  0  0  0  0  0
    1.5571    0.3208   -0.6545 C   0  0  0  0  0  0  0  0  0  0  0  0
    1.3191   -0.4105    0.4417 C   0  0  0  0  0  0  0  0  0  0  0  0
   -2.0482   -0.9815    0.9168 H   0  0  0  0  0  0  0  0  0  0  0  0
   -1.5237    0.6695    1.2216 H   0  0  0  0  0  0  0  0  0  0  0  0
   -1.1153   -0.7076   -1.4860 H   0  0  0  0  0  0  0  0  0  0  0  0
   -2.4650    0.3592   -1.0696 H   0  0  0  0  0  0  0  0  0  0  0  0
    0.6608    0.5698   -2.5505 H   0  0  0  0  0  0  0  0  0  0  0  0
    1.0678    2.0755   -1.7373 H   0  0  0  0  0  0  0  0  0  0  0  0
    2.5936    0.3783   -0.9888 H   0  0  0  0  0  0  0  0  0  0  0  0
    2.1645   -0.8810    0.9371 H   0  0  0  0  0  0  0  0  0  0  0  0
  2  1  2  0  0  0  0
  3  9  1  0  0  0  0
  3  2  1  0  0  0  0
  3 10  1  0  0  0  0
  4  3  1  0  0  0  0
  5  4  1  0  0  0  0
  6  5  1  0  0  0  0
  6  7  1  0  0  0  0
  7  8  2  0  0  0  0
  8 16  1  0  0  0  0
  8  2  1  0  0  0  0
 11  4  1  0  0  0  0
 12  4  1  0  0  0  0
 13  6  1  0  0  0  0
 14  6  1  0  0  0  0
 15  7  1  0  0  0  0
M  END
