title
 OpenBabel02282109593D

 18 18  0  0  0  0  0  0  0  0999 V2000
    0.0879   -1.4934    2.0554 O   0  0  0  0  0  0  0  0  0  0  0  0
    0.0396   -0.7163    1.1296 C   0  0  0  0  0  0  0  0  0  0  0  0
   -1.2894   -0.1385    0.6513 C   0  0  0  0  0  0  0  0  0  0  0  0
   -1.4790   -0.0834   -0.8769 C   0  0  0  0  0  0  0  0  0  0  0  0
   -0.8169    1.1242   -1.5580 C   0  0  0  0  0  0  0  0  0  0  0  0
    0.6107    1.3869   -1.0563 C   0  0  0  0  0  0  0  0  0  0  0  0
    1.3263    0.1778   -0.8507 O   0  0  0  0  0  0  0  0  0  0  0  0
    1.3628   -0.2704    0.4832 C   0  0  0  0  0  0  0  0  0  0  0  0
   -2.0634   -0.7469    1.1260 H   0  0  0  0  0  0  0  0  0  0  0  0
   -1.3833    0.8728    1.0748 H   0  0  0  0  0  0  0  0  0  0  0  0
   -1.0894   -1.0063   -1.3184 H   0  0  0  0  0  0  0  0  0  0  0  0
   -2.5516   -0.0686   -1.0958 H   0  0  0  0  0  0  0  0  0  0  0  0
   -0.8019    0.9536   -2.6399 H   0  0  0  0  0  0  0  0  0  0  0  0
   -1.4127    2.0312   -1.3923 H   0  0  0  0  0  0  0  0  0  0  0  0
    1.1701    1.9743   -1.7928 H   0  0  0  0  0  0  0  0  0  0  0  0
    0.5934    1.9724   -0.1251 H   0  0  0  0  0  0  0  0  0  0  0  0
    1.7856    0.5051    1.1479 H   0  0  0  0  0  0  0  0  0  0  0  0
    2.0405   -1.1269    0.5169 H   0  0  0  0  0  0  0  0  0  0  0  0
  2  1  2  0  0  0  0
  3 10  1  0  0  0  0
  3  9  1  0  0  0  0
  3  2  1  0  0  0  0
  4  3  1  0  0  0  0
  5 14  1  0  0  0  0
  5  6  1  0  0  0  0
  5  4  1  0  0  0  0
  6  7  1  0  0  0  0
  6 16  1  0  0  0  0
  7  8  1  0  0  0  0
  8 18  1  0  0  0  0
  8  2  1  0  0  0  0
  8 17  1  0  0  0  0
 11  4  1  0  0  0  0
 12  4  1  0  0  0  0
 13  5  1  0  0  0  0
 15  6  1  0  0  0  0
M  END
