title
 OpenBabel02282109593D

 19 19  0  0  1  0  0  0  0  0999 V2000
   -0.0292    2.4063    0.8896 N   0  0  0  0  0  0  0  0  0  0  0  0
    0.0209    1.1800    0.5670 C   0  0  2  0  0  0  0  0  0  0  0  0
   -1.2612    0.3795    0.4746 C   0  0  0  0  0  0  0  0  0  0  0  0
   -1.4588   -0.4180   -0.8279 C   0  0  0  0  0  0  0  0  0  0  0  0
   -0.7733   -1.7943   -0.8227 C   0  0  0  0  0  0  0  0  0  0  0  0
    0.6301   -1.7889   -0.1885 C   0  0  0  0  0  0  0  0  0  0  0  0
    1.4530   -0.5358   -0.4868 C   0  0  0  0  0  0  0  0  0  0  0  0
    1.2329    0.5670    0.4039 O   0  0  0  0  0  0  0  0  0  0  0  0
    0.9194    2.7874    0.9250 H   0  0  0  0  0  0  0  0  0  0  0  0
   -1.3123   -0.3014    1.3349 H   0  0  0  0  0  0  0  0  0  0  0  0
   -2.0609    1.1102    0.6020 H   0  0  0  0  0  0  0  0  0  0  0  0
   -2.5315   -0.5551   -0.9982 H   0  0  0  0  0  0  0  0  0  0  0  0
   -1.1006    0.1824   -1.6725 H   0  0  0  0  0  0  0  0  0  0  0  0
   -1.3996   -2.5140   -0.2826 H   0  0  0  0  0  0  0  0  0  0  0  0
   -0.7097   -2.1618   -1.8537 H   0  0  0  0  0  0  0  0  0  0  0  0
    0.5692   -1.8923    0.9008 H   0  0  0  0  0  0  0  0  0  0  0  0
    1.1918   -2.6606   -0.5432 H   0  0  0  0  0  0  0  0  0  0  0  0
    2.5170   -0.7494   -0.3579 H   0  0  0  0  0  0  0  0  0  0  0  0
    1.3087   -0.2042   -1.5243 H   0  0  0  0  0  0  0  0  0  0  0  0
  1  9  1  0  0  0  0
  2  1  1  1  0  0  0
  3  2  1  0  0  0  0
  3 11  1  0  0  0  0
  3 10  1  0  0  0  0
  4  5  1  0  0  0  0
  4  3  1  0  0  0  0
  5 14  1  0  0  0  0
  5  6  1  0  0  0  0
  6 16  1  0  0  0  0
  7 18  1  0  0  0  0
  7  6  1  0  0  0  0
  7  8  1  0  0  0  0
  8  2  1  0  0  0  0
 12  4  1  0  0  0  0
 13  4  1  0  0  0  0
 15  5  1  0  0  0  0
 17  6  1  0  0  0  0
 19  7  1  0  0  0  0
M  RAD  2   1   2   2   2
M  END
