title
 OpenBabel02282109593D

 17 17  0  0  0  0  0  0  0  0999 V2000
   -0.0552    2.4099    0.8938 N   0  0  0  0  0  0  0  0  0  0  0  0
    0.0020    1.1853    0.5723 C   0  0  0  0  0  0  0  0  0  0  0  0
   -1.2649    0.3610    0.4969 C   0  0  0  0  0  0  0  0  0  0  0  0
   -1.4450   -0.4219   -0.8154 C   0  0  0  0  0  0  0  0  0  0  0  0
   -0.6596   -1.7374   -0.8186 C   0  0  0  0  0  0  0  0  0  0  0  0
    0.5960   -1.6470   -0.1445 O   0  0  0  0  0  0  0  0  0  0  0  0
    1.3752   -0.5510   -0.4815 C   0  0  0  0  0  0  0  0  0  0  0  0
    1.2140    0.5744    0.3812 O   0  0  0  0  0  0  0  0  0  0  0  0
    0.8880    2.8044    0.9171 H   0  0  0  0  0  0  0  0  0  0  0  0
   -1.2750   -0.3378    1.3425 H   0  0  0  0  0  0  0  0  0  0  0  0
   -2.0837    1.0669    0.6395 H   0  0  0  0  0  0  0  0  0  0  0  0
   -2.5048   -0.6563   -0.9617 H   0  0  0  0  0  0  0  0  0  0  0  0
   -1.1573    0.2092   -1.6637 H   0  0  0  0  0  0  0  0  0  0  0  0
   -1.2077   -2.5090   -0.2701 H   0  0  0  0  0  0  0  0  0  0  0  0
   -0.5095   -2.0999   -1.8461 H   0  0  0  0  0  0  0  0  0  0  0  0
    2.4214   -0.8318   -0.3445 H   0  0  0  0  0  0  0  0  0  0  0  0
    1.2074   -0.2398   -1.5234 H   0  0  0  0  0  0  0  0  0  0  0  0
  1  9  1  0  0  0  0
  2  1  2  0  0  0  0
  3  2  1  0  0  0  0
  3 11  1  0  0  0  0
  3 10  1  0  0  0  0
  4  3  1  0  0  0  0
  5  4  1  0  0  0  0
  5 14  1  0  0  0  0
  5  6  1  0  0  0  0
  7 16  1  0  0  0  0
  7  6  1  0  0  0  0
  7  8  1  0  0  0  0
  8  2  1  0  0  0  0
 12  4  1  0  0  0  0
 13  4  1  0  0  0  0
 15  5  1  0  0  0  0
 17  7  1  0  0  0  0
M  END
