title
 OpenBabel02282109593D

 18 18  0  0  0  0  0  0  0  0999 V2000
    0.5856   -1.9447    0.7170 O   0  0  0  0  0  0  0  0  0  0  0  0
    0.0899   -0.8581    0.8202 C   0  0  0  0  0  0  0  0  0  0  0  0
   -1.3885   -0.5486    0.7738 C   0  0  0  0  0  0  0  0  0  0  0  0
   -1.6733    0.5899   -0.2378 C   0  0  0  0  0  0  0  0  0  0  0  0
   -0.7500    0.6141   -1.4801 C   0  0  0  0  0  0  0  0  0  0  0  0
    0.6075    1.3179   -1.2635 C   0  0  0  0  0  0  0  0  0  0  0  0
    1.5488    0.6045   -0.2912 C   0  0  0  0  0  0  0  0  0  0  0  0
    0.8373    0.2921    0.9203 O   0  0  0  0  0  0  0  0  0  0  0  0
   -1.9081   -1.4718    0.5063 H   0  0  0  0  0  0  0  0  0  0  0  0
   -1.7296   -0.2549    1.7729 H   0  0  0  0  0  0  0  0  0  0  0  0
   -2.7131    0.4902   -0.5659 H   0  0  0  0  0  0  0  0  0  0  0  0
   -1.5992    1.5563    0.2709 H   0  0  0  0  0  0  0  0  0  0  0  0
   -0.5902   -0.4083   -1.8494 H   0  0  0  0  0  0  0  0  0  0  0  0
   -1.2712    1.1444   -2.2844 H   0  0  0  0  0  0  0  0  0  0  0  0
    1.1241    1.4271   -2.2254 H   0  0  0  0  0  0  0  0  0  0  0  0
    0.4177    2.3323   -0.8912 H   0  0  0  0  0  0  0  0  0  0  0  0
    1.9536   -0.3210   -0.7164 H   0  0  0  0  0  0  0  0  0  0  0  0
    2.3854    1.2455   -0.0035 H   0  0  0  0  0  0  0  0  0  0  0  0
  1  2  2  0  0  0  0
  2  8  1  0  0  0  0
  3  2  1  0  0  0  0
  3 10  1  0  0  0  0
  4 12  1  0  0  0  0
  4  3  1  0  0  0  0
  5  6  1  0  0  0  0
  5  4  1  0  0  0  0
  6 16  1  0  0  0  0
  6  7  1  0  0  0  0
  7 18  1  0  0  0  0
  7  8  1  0  0  0  0
  9  3  1  0  0  0  0
 11  4  1  0  0  0  0
 13  5  1  0  0  0  0
 14  5  1  0  0  0  0
 15  6  1  0  0  0  0
 17  7  1  0  0  0  0
M  END
