17
title
N -0.020253593 2.3453712 1.0188427
C 0.054686144 1.1713245 0.5473587
C -1.2353919 0.3812474 0.37540868
O -1.2994483 -0.3839354 -0.80978537
C -0.8261046 -1.7114098 -0.67217815
C 0.61304086 -1.7708697 -0.1332778
C 1.4255661 -0.5503121 -0.56208575
O 1.2595993 0.5941207 0.28966147
H 0.9174922 2.737869 1.1290549
H -1.388824 -0.2524131 1.2631786
H -2.0424938 1.114629 0.34852403
H -1.5026383 -2.2992918 -0.032457795
H -0.8722285 -2.1319292 -1.6813886
H 0.6319586 -1.8285766 0.9604909
H 1.0999159 -2.6811852 -0.5010396
H 2.4946728 -0.76315874 -0.49165836
H 1.1971891 -0.27178794 -1.5971658
