19
title
N -0.029212253 2.4062724 0.88964075
C 0.020920368 1.1800016 0.56700265
C -1.2612408 0.3794827 0.47457317
C -1.4587752 -0.41796106 -0.8279105
C -0.77325386 -1.794306 -0.82274324
C 0.63009596 -1.7888851 -0.18851468
C 1.4530306 -0.5357849 -0.48676762
O 1.2328547 0.56702733 0.40393123
H 0.9194104 2.7874196 0.9250167
H -1.3122838 -0.3014117 1.3348812
H -2.0609157 1.1102066 0.60204995
H -2.5315256 -0.5551291 -0.998162
H -1.1006236 0.18242662 -1.6724817
H -1.399568 -2.5139737 -0.2825851
H -0.70974845 -2.1618223 -1.8536719
H 0.56921893 -1.8922613 0.9007682
H 1.1918428 -2.660596 -0.54318327
H 2.5170135 -0.74937314 -0.3578646
H 1.3087337 -0.2041622 -1.5242554
