18
title
O 0.08790111 -1.4933892 2.0554473
C 0.039583094 -0.7162949 1.12957
C -1.2894309 -0.1385124 0.6512633
C -1.4790025 -0.083399564 -0.8768944
C -0.8168672 1.1242111 -1.5580248
C 0.6106971 1.3868701 -1.0563109
O 1.3263094 0.1778085 -0.8506847
C 1.3628244 -0.2703723 0.48315576
H -2.0634363 -0.7468885 1.1260335
H -1.3832594 0.8727546 1.0748185
H -1.0893537 -1.0062706 -1.3183559
H -2.5516481 -0.068552524 -1.0957676
H -0.8018525 0.9536226 -2.6398876
H -1.4126858 2.031155 -1.3923424
H 1.1701431 1.9742632 -1.7927631
H 0.5933896 1.9724479 -0.12511268
H 1.7855608 0.5051396 1.147864
H 2.0405304 -1.1269311 0.5168966
