title
 OpenBabel02282109593D

 17 17  0  0  0  0  0  0  0  0999 V2000
   -0.3887    1.9796   -1.2598 N   0  0  0  0  0  0  0  0  0  0  0  0
   -0.0809    1.1036   -0.4064 C   0  0  0  0  0  0  0  0  0  0  0  0
    1.1706    0.5776   -0.2844 O   0  0  0  0  0  0  0  0  0  0  0  0
    1.4112   -0.3232    0.8089 C   0  0  0  0  0  0  0  0  0  0  0  0
    0.8207   -1.7206    0.5521 C   0  0  0  0  0  0  0  0  0  0  0  0
   -0.4960   -1.6637   -0.2384 C   0  0  0  0  0  0  0  0  0  0  0  0
   -1.5114   -0.6660    0.3121 C   0  0  0  0  0  0  0  0  0  0  0  0
   -0.9796    0.6596    0.5052 O   0  0  0  0  0  0  0  0  0  0  0  0
    0.4403    2.2449   -1.7914 H   0  0  0  0  0  0  0  0  0  0  0  0
    2.4988   -0.3654    0.8987 H   0  0  0  0  0  0  0  0  0  0  0  0
    1.0041    0.1095    1.7256 H   0  0  0  0  0  0  0  0  0  0  0  0
    1.5353   -2.3347   -0.0055 H   0  0  0  0  0  0  0  0  0  0  0  0
    0.6694   -2.2124    1.5203 H   0  0  0  0  0  0  0  0  0  0  0  0
   -0.2778   -1.4086   -1.2812 H   0  0  0  0  0  0  0  0  0  0  0  0
   -0.9677   -2.6522   -0.2579 H   0  0  0  0  0  0  0  0  0  0  0  0
   -2.3752   -0.5965   -0.3604 H   0  0  0  0  0  0  0  0  0  0  0  0
   -1.8689   -0.9658    1.3018 H   0  0  0  0  0  0  0  0  0  0  0  0
  1  2  2  0  0  0  0
  2  3  1  0  0  0  0
  2  8  1  0  0  0  0
  3  4  1  0  0  0  0
  4 10  1  0  0  0  0
  4 11  1  0  0  0  0
  5  4  1  0  0  0  0
  5 13  1  0  0  0  0
  6  7  1  0  0  0  0
  6  5  1  0  0  0  0
  7  8  1  0  0  0  0
  7 17  1  0  0  0  0
  9  1  1  0  0  0  0
 12  5  1  0  0  0  0
 14  6  1  0  0  0  0
 15  6  1  0  0  0  0
 16  7  1  0  0  0  0
M  END
