title
 OpenBabel02282109593D

 19 19  0  0  0  0  0  0  0  0999 V2000
    0.1075   -2.3948   -0.6987 O   0  0  0  0  0  0  0  0  0  0  0  0
    0.0473   -1.1829   -0.5868 C   0  0  0  0  0  0  0  0  0  0  0  0
   -1.2801   -0.4457   -0.4432 C   0  0  0  0  0  0  0  0  0  0  0  0
   -1.4617    0.2849    0.9031 C   0  0  0  0  0  0  0  0  0  0  0  0
   -0.7499    1.6410    1.0040 C   0  0  0  0  0  0  0  0  0  0  0  0
    0.7786    1.5952    0.8867 C   0  0  0  0  0  0  0  0  0  0  0  0
    1.2908    1.0286   -0.4459 C   0  0  0  0  0  0  0  0  0  0  0  0
    1.1813   -0.4172   -0.5717 N   0  0  0  0  0  0  0  0  0  0  0  0
   -1.3993    0.2694   -1.2685 H   0  0  0  0  0  0  0  0  0  0  0  0
   -2.0465   -1.2133   -0.5624 H   0  0  0  0  0  0  0  0  0  0  0  0
   -2.5340    0.4500    1.0566 H   0  0  0  0  0  0  0  0  0  0  0  0
   -1.1350   -0.3738    1.7178 H   0  0  0  0  0  0  0  0  0  0  0  0
   -1.1425    2.3030    0.2189 H   0  0  0  0  0  0  0  0  0  0  0  0
   -1.0173    2.1104    1.9580 H   0  0  0  0  0  0  0  0  0  0  0  0
    1.1691    2.6145    0.9946 H   0  0  0  0  0  0  0  0  0  0  0  0
    1.2068    1.0029    1.7051 H   0  0  0  0  0  0  0  0  0  0  0  0
    0.7758    1.5284   -1.2793 H   0  0  0  0  0  0  0  0  0  0  0  0
    2.3523    1.2667   -0.5558 H   0  0  0  0  0  0  0  0  0  0  0  0
    2.0302   -0.9557   -0.6549 H   0  0  0  0  0  0  0  0  0  0  0  0
  1  2  2  0  0  0  0
  2  8  1  0  0  0  0
  2  3  1  0  0  0  0
  3  4  1  0  0  0  0
  4  5  1  0  0  0  0
  4 11  1  0  0  0  0
  4 12  1  0  0  0  0
  5 14  1  0  0  0  0
  6 15  1  0  0  0  0
  6  5  1  0  0  0  0
  6 16  1  0  0  0  0
  7  6  1  0  0  0  0
  8  7  1  0  0  0  0
  9  3  1  0  0  0  0
 10  3  1  0  0  0  0
 13  5  1  0  0  0  0
 17  7  1  0  0  0  0
 18  7  1  0  0  0  0
 19  8  1  0  0  0  0
M  END
