17
title
N -0.3886955 1.9795843 -1.2598442
C -0.08087477 1.1036155 -0.4064374
O 1.1705886 0.57756335 -0.2843516
C 1.4111904 -0.32318348 0.8088528
C 0.8207002 -1.7206123 0.55207014
C -0.49600595 -1.6636655 -0.2384241
C -1.5113884 -0.6660338 0.31209296
O -0.97957796 0.659594 0.5052097
H 0.44032714 2.2448869 -1.791447
H 2.4987633 -0.36543375 0.8986722
H 1.0040687 0.109496355 1.7255683
H 1.5352633 -2.3347297 -0.005474105
H 0.6693579 -2.2124186 1.520329
H -0.2777562 -1.4085755 -1.2811967
H -0.96774256 -2.6522343 -0.25788394
H -2.3751798 -0.5965279 -0.36036265
H -1.8689255 -0.96580416 1.3017628
