title
 OpenBabel02282109593D

 17 17  0  0  0  0  0  0  0  0999 V2000
   -0.0498   -1.2724    2.1333 O   0  0  0  0  0  0  0  0  0  0  0  0
   -0.0148   -0.7934    1.0243 C   0  0  0  0  0  0  0  0  0  0  0  0
   -1.2725   -0.8290    0.1333 C   0  0  0  0  0  0  0  0  0  0  0  0
   -1.3785    0.0457   -1.0262 N   0  0  0  0  0  0  0  0  0  0  0  0
   -0.7985    1.3692   -0.8341 C   0  0  0  0  0  0  0  0  0  0  0  0
    0.7177    1.4132   -1.1385 C   0  0  0  0  0  0  0  0  0  0  0  0
    1.3742    0.2011   -0.8155 O   0  0  0  0  0  0  0  0  0  0  0  0
    1.3019   -0.1613    0.5409 C   0  0  0  0  0  0  0  0  0  0  0  0
   -1.3908   -1.8687   -0.1950 H   0  0  0  0  0  0  0  0  0  0  0  0
   -2.1061   -0.6441    0.8240 H   0  0  0  0  0  0  0  0  0  0  0  0
   -0.9517   -0.3964   -1.8317 H   0  0  0  0  0  0  0  0  0  0  0  0
   -1.3016    2.1053   -1.4739 H   0  0  0  0  0  0  0  0  0  0  0  0
   -0.9984    1.6781    0.1989 H   0  0  0  0  0  0  0  0  0  0  0  0
    0.8799    1.5398   -2.2138 H   0  0  0  0  0  0  0  0  0  0  0  0
    1.1899    2.2663   -0.6251 H   0  0  0  0  0  0  0  0  0  0  0  0
    1.5149    0.6921    1.2062 H   0  0  0  0  0  0  0  0  0  0  0  0
    2.0873   -0.9031    0.7187 H   0  0  0  0  0  0  0  0  0  0  0  0
  2  1  2  0  0  0  0
  3 10  1  0  0  0  0
  3  2  1  0  0  0  0
  4  5  1  0  0  0  0
  4  3  1  0  0  0  0
  5 13  1  0  0  0  0
  6  5  1  0  0  0  0
  6  7  1  0  0  0  0
  6 15  1  0  0  0  0
  7  8  1  0  0  0  0
  8 17  1  0  0  0  0
  8  2  1  0  0  0  0
  8 16  1  0  0  0  0
  9  3  1  0  0  0  0
 11  4  1  0  0  0  0
 12  5  1  0  0  0  0
 14  6  1  0  0  0  0
M  END
