17
title
O -0.049755186 -1.2724085 2.1333458
C -0.014828667 -0.7933991 1.024294
C -1.2725058 -0.82896686 0.13328096
N -1.378486 0.045703396 -1.0261791
C -0.79845315 1.3692079 -0.83408177
C 0.7176645 1.413156 -1.1384568
O 1.3741667 0.20107816 -0.81545603
C 1.3018795 -0.16134991 0.5408544
H -1.3907961 -1.868717 -0.19496587
H -2.1060925 -0.64407694 0.8240254
H -0.95170856 -0.3963617 -1.8317254
H -1.3016087 2.1053467 -1.4739385
H -0.9984137 1.6781192 0.19887307
H 0.8799334 1.5398436 -2.2138052
H 1.1899164 2.2663326 -0.62512076
H 1.5149359 0.6920979 1.206225
H 2.087292 -0.90305555 0.7186656
