16
title
O -0.006326777 -1.0299056 2.2448075
C 0.053141512 -0.6090169 1.1206839
C -1.2413849 -0.4721681 0.30277666
O -1.1264163 -0.3608935 -1.0923285
C -0.839232 0.9466796 -1.5546134
C 0.48689944 1.4832201 -0.9875361
C 1.4573587 0.34570694 -0.6787435
O 1.2513559 -0.25884557 0.61092764
H -1.8095977 -1.3817762 0.5110447
H -1.8080707 0.36763883 0.73599494
H -0.778223 0.8519089 -2.6426084
H -1.6699389 1.6302552 -1.3216264
H 0.94354624 2.1658225 -1.7124474
H 0.3315333 2.0637689 -0.07134214
H 1.4193925 -0.4279219 -1.4521415
H 2.4803262 0.7233219 -0.6180868
