17
title
O 0.15678303 -1.4639951 2.0037282
C 0.10695657 -0.80825967 0.997611
C -1.2627053 -0.39398772 0.4187798
N -1.4053172 -0.038842376 -0.9758642
C -0.88848424 1.269682 -1.3540657
C 0.5125487 1.6006817 -0.7949439
C 1.4216211 0.3772331 -0.75682557
O 1.2731156 -0.45440155 0.405443
H -1.917287 -1.2369576 0.65856296
H -1.6186992 0.44228917 1.0343493
H -1.0483514 -0.76869696 -1.5788193
H -0.8663946 1.3046077 -2.448344
H -1.6007 2.0404139 -1.032359
H 0.9816746 2.377172 -1.4103556
H 0.44869763 2.0123253 0.21908838
H 1.2952716 -0.23681778 -1.6583471
H 2.4699366 0.6825293 -0.71401656
