18
title
O 0.060479514 -2.0167654 1.4770919
C 0.06630215 -0.9035635 1.0019006
C -1.2370402 -0.16112694 0.7220947
C -1.4725481 -0.0026073158 -0.7968452
C -0.7552846 1.2124968 -1.4114186
O 0.49021614 1.5338814 -0.8161297
C 1.4215876 0.4718764 -0.7235744
C 1.374632 -0.20272335 0.6563993
H -2.0380292 -0.7507731 1.1729618
H -1.2152555 0.8261974 1.1979239
H -1.1741887 -0.9276545 -1.3037332
H -2.5448096 0.10859373 -0.9901229
H -0.6350639 1.0603988 -2.496182
H -1.363047 2.1122217 -1.2711958
H 1.2726566 -0.26205763 -1.5287641
H 2.4158444 0.9094877 -0.86515415
H 1.5360483 0.5835695 1.4065849
H 2.1826112 -0.9329268 0.75769484
