title
 OpenBabel02282109593D

 16 16  0  0  0  0  0  0  0  0999 V2000
   -0.0063   -1.0299    2.2448 O   0  0  0  0  0  0  0  0  0  0  0  0
    0.0531   -0.6090    1.1207 C   0  0  0  0  0  0  0  0  0  0  0  0
   -1.2414   -0.4722    0.3028 C   0  0  0  0  0  0  0  0  0  0  0  0
   -1.1264   -0.3609   -1.0923 O   0  0  0  0  0  0  0  0  0  0  0  0
   -0.8392    0.9467   -1.5546 C   0  0  0  0  0  0  0  0  0  0  0  0
    0.4869    1.4832   -0.9875 C   0  0  0  0  0  0  0  0  0  0  0  0
    1.4574    0.3457   -0.6787 C   0  0  0  0  0  0  0  0  0  0  0  0
    1.2514   -0.2588    0.6109 O   0  0  0  0  0  0  0  0  0  0  0  0
   -1.8096   -1.3818    0.5110 H   0  0  0  0  0  0  0  0  0  0  0  0
   -1.8081    0.3676    0.7360 H   0  0  0  0  0  0  0  0  0  0  0  0
   -0.7782    0.8519   -2.6426 H   0  0  0  0  0  0  0  0  0  0  0  0
   -1.6699    1.6303   -1.3216 H   0  0  0  0  0  0  0  0  0  0  0  0
    0.9435    2.1658   -1.7124 H   0  0  0  0  0  0  0  0  0  0  0  0
    0.3315    2.0638   -0.0713 H   0  0  0  0  0  0  0  0  0  0  0  0
    1.4194   -0.4279   -1.4521 H   0  0  0  0  0  0  0  0  0  0  0  0
    2.4803    0.7233   -0.6181 H   0  0  0  0  0  0  0  0  0  0  0  0
  2  1  2  0  0  0  0
  3  9  1  0  0  0  0
  3 10  1  0  0  0  0
  3  2  1  0  0  0  0
  4  3  1  0  0  0  0
  5 12  1  0  0  0  0
  5  4  1  0  0  0  0
  5  6  1  0  0  0  0
  6  7  1  0  0  0  0
  6 14  1  0  0  0  0
  7 16  1  0  0  0  0
  7  8  1  0  0  0  0
  8  2  1  0  0  0  0
 11  5  1  0  0  0  0
 13  6  1  0  0  0  0
 15  7  1  0  0  0  0
M  END
