title
 OpenBabel02282109593D

 16 16  0  0  0  0  0  0  0  0999 V2000
    0.0815   -1.9704    1.4318 O   0  0  0  0  0  0  0  0  0  0  0  0
    0.0655   -0.9163    0.8600 C   0  0  0  0  0  0  0  0  0  0  0  0
   -1.1423    0.0024    0.8152 C   0  0  0  0  0  0  0  0  0  0  0  0
   -1.6649    0.2614   -0.6119 C   0  0  0  0  0  0  0  0  0  0  0  0
   -0.5642    0.8362   -1.5266 C   0  0  0  0  0  0  0  0  0  0  0  0
    0.3931    1.5404   -0.7382 O   0  0  0  0  0  0  0  0  0  0  0  0
    1.4707    0.7660   -0.3234 C   0  0  0  0  0  0  0  0  0  0  0  0
    1.1718   -0.5540    0.1423 O   0  0  0  0  0  0  0  0  0  0  0  0
   -1.9120   -0.4710    1.4262 H   0  0  0  0  0  0  0  0  0  0  0  0
   -0.8801    0.9599    1.2750 H   0  0  0  0  0  0  0  0  0  0  0  0
   -2.0646   -0.6617   -1.0450 H   0  0  0  0  0  0  0  0  0  0  0  0
   -2.4994    0.9658   -0.5395 H   0  0  0  0  0  0  0  0  0  0  0  0
   -0.0710    0.0413   -2.0993 H   0  0  0  0  0  0  0  0  0  0  0  0
   -0.9759    1.5572   -2.2375 H   0  0  0  0  0  0  0  0  0  0  0  0
    2.1744    0.5804   -1.1464 H   0  0  0  0  0  0  0  0  0  0  0  0
    1.9656    1.3312    0.4739 H   0  0  0  0  0  0  0  0  0  0  0  0
  2  1  2  0  0  0  0
  3  2  1  0  0  0  0
  3 10  1  0  0  0  0
  3  9  1  0  0  0  0
  4 12  1  0  0  0  0
  4  3  1  0  0  0  0
  5  6  1  0  0  0  0
  5  4  1  0  0  0  0
  6  7  1  0  0  0  0
  7  8  1  0  0  0  0
  7 16  1  0  0  0  0
  8  2  1  0  0  0  0
 11  4  1  0  0  0  0
 13  5  1  0  0  0  0
 14  5  1  0  0  0  0
 15  7  1  0  0  0  0
M  END
