18
title
O 0.16721347 -2.092288 1.2933311
C 0.10488829 -0.93978614 0.92307365
C -1.2517625 -0.27656895 0.65405107
N -1.4693508 -0.0052937837 -0.76614934
C -0.9082806 1.2246877 -1.3127698
C 0.48921403 1.6641191 -0.79175025
N 1.475275 0.61280566 -0.5967662
C 1.3825545 -0.12927383 0.6560708
H -2.020645 -0.9618686 1.0244812
H -1.3420782 0.66554314 1.2077472
H -1.2019774 -0.81043535 -1.3179969
H -0.8632847 1.0952309 -2.4000869
H -1.6068162 2.054789 -1.131649
H 0.8862938 2.4094744 -1.4935392
H 0.38009688 2.1816635 0.16896416
H 1.5046173 -0.020362552 -1.3884581
H 1.4910662 0.5919052 1.4803637
H 2.2215614 -0.826981 0.72798145
