title
 OpenBabel02282109593D

 17 17  0  0  0  0  0  0  0  0999 V2000
    0.1213   -2.4077   -0.7925 O   0  0  0  0  0  0  0  0  0  0  0  0
    0.0645   -1.2076   -0.5956 C   0  0  0  0  0  0  0  0  0  0  0  0
   -1.2604   -0.4799   -0.3877 C   0  0  0  0  0  0  0  0  0  0  0  0
   -1.3763    0.3350    0.9100 C   0  0  0  0  0  0  0  0  0  0  0  0
   -0.7376    1.5977    0.8639 O   0  0  0  0  0  0  0  0  0  0  0  0
    0.6725    1.5569    0.8811 C   0  0  0  0  0  0  0  0  0  0  0  0
    1.2923    1.0031   -0.4054 C   0  0  0  0  0  0  0  0  0  0  0  0
    1.1992   -0.4424   -0.5403 N   0  0  0  0  0  0  0  0  0  0  0  0
   -1.4514    0.1931   -1.2334 H   0  0  0  0  0  0  0  0  0  0  0  0
   -2.0277   -1.2571   -0.4012 H   0  0  0  0  0  0  0  0  0  0  0  0
   -2.4316    0.5560    1.0943 H   0  0  0  0  0  0  0  0  0  0  0  0
   -1.0029   -0.2549    1.7626 H   0  0  0  0  0  0  0  0  0  0  0  0
    0.9944    2.5958    1.0082 H   0  0  0  0  0  0  0  0  0  0  0  0
    1.0384    0.9716    1.7406 H   0  0  0  0  0  0  0  0  0  0  0  0
    0.8356    1.5182   -1.2623 H   0  0  0  0  0  0  0  0  0  0  0  0
    2.3568    1.2552   -0.4091 H   0  0  0  0  0  0  0  0  0  0  0  0
    2.0440   -0.9632   -0.7211 H   0  0  0  0  0  0  0  0  0  0  0  0
  1  2  2  0  0  0  0
  2  8  1  0  0  0  0
  2  3  1  0  0  0  0
  3  4  1  0  0  0  0
  4 11  1  0  0  0  0
  4 12  1  0  0  0  0
  5  6  1  0  0  0  0
  5  4  1  0  0  0  0
  6 13  1  0  0  0  0
  6 14  1  0  0  0  0
  7  6  1  0  0  0  0
  8  7  1  0  0  0  0
  9  3  1  0  0  0  0
 10  3  1  0  0  0  0
 15  7  1  0  0  0  0
 16  7  1  0  0  0  0
 17  8  1  0  0  0  0
M  END
