title
 OpenBabel02282109593D

 15 15  0  0  0  0  0  0  0  0999 V2000
   -0.0475   -2.3300   -0.9361 O   0  0  0  0  0  0  0  0  0  0  0  0
   -0.0508   -1.2020   -0.5177 C   0  0  0  0  0  0  0  0  0  0  0  0
   -1.1999   -0.4937   -0.2344 N   0  0  0  0  0  0  0  0  0  0  0  0
   -1.3262    0.9582   -0.3585 C   0  0  0  0  0  0  0  0  0  0  0  0
   -0.6214    1.7132    0.7629 C   0  0  0  0  0  0  0  0  0  0  0  0
    0.7892    1.5983    0.6889 O   0  0  0  0  0  0  0  0  0  0  0  0
    1.2603    0.3020    0.8555 C   0  0  0  0  0  0  0  0  0  0  0  0
    1.1189   -0.5311   -0.2943 O   0  0  0  0  0  0  0  0  0  0  0  0
   -2.0161   -1.0284   -0.4919 H   0  0  0  0  0  0  0  0  0  0  0  0
   -0.9435    1.3135   -1.3244 H   0  0  0  0  0  0  0  0  0  0  0  0
   -2.3941    1.1913   -0.3152 H   0  0  0  0  0  0  0  0  0  0  0  0
   -0.8407    2.7815    0.6835 H   0  0  0  0  0  0  0  0  0  0  0  0
   -0.9837    1.3484    1.7363 H   0  0  0  0  0  0  0  0  0  0  0  0
    2.3373    0.3798    1.0074 H   0  0  0  0  0  0  0  0  0  0  0  0
    0.7783   -0.1886    1.7140 H   0  0  0  0  0  0  0  0  0  0  0  0
  1  2  2  0  0  0  0
  2  8  1  0  0  0  0
  2  3  1  0  0  0  0
  4 11  1  0  0  0  0
  4  3  1  0  0  0  0
  4  5  1  0  0  0  0
  5 13  1  0  0  0  0
  6  5  1  0  0  0  0
  6  7  1  0  0  0  0
  7 14  1  0  0  0  0
  7 15  1  0  0  0  0
  8  7  1  0  0  0  0
  9  3  1  0  0  0  0
 10  4  1  0  0  0  0
 12  5  1  0  0  0  0
M  END
