16
title
O 0.27012655 -1.8900526 1.6786292
C 0.14213198 -0.99324477 0.8804004
C -1.2069993 -0.73148394 0.19979733
O -1.487693 0.62571406 -0.062261764
C -0.926063 1.1466701 -1.2533671
C 0.54766893 1.4990063 -1.0938661
O 1.3463678 0.36316252 -0.8154595
C 1.32359 -0.083398834 0.5222364
H -1.2396375 -1.3322855 -0.7248286
H -1.9841594 -1.1072481 0.87055546
H -1.0469525 0.42868614 -2.0793264
H -1.495413 2.0508282 -1.4970244
H 0.9267476 1.9249113 -2.0297828
H 0.6634658 2.2522318 -0.299159
H 1.3207273 0.7652354 1.2270734
H 2.2368453 -0.6588278 0.69524485
