17
title
O -0.012082819 -2.293206 -0.98913544
C -0.020932805 -1.1754236 -0.5390656
N -1.1759552 -0.49698105 -0.2085993
C -1.3514854 0.9522332 -0.34700507
C -0.72875416 1.7580637 0.7944384
C 0.7988772 1.6777519 0.81517726
C 1.3261842 0.2490245 0.8855551
O 1.1407536 -0.4951358 -0.33016095
H -1.9832624 -1.0518047 -0.45149857
H -0.95096534 1.301988 -1.3091543
H -2.4302025 1.1291653 -0.36701515
H -1.0415807 2.8035004 0.69191426
H -1.1353916 1.3915542 1.7449884
H 1.2159914 2.1557376 -0.07993143
H 1.1891376 2.2276647 1.680062
H 2.4089313 0.25320515 1.0354192
H 0.8692753 -0.2963027 1.720268
