title
 OpenBabel02282109593D

 17 17  0  0  0  0  0  0  0  0999 V2000
   -0.0121   -2.2932   -0.9891 O   0  0  0  0  0  0  0  0  0  0  0  0
   -0.0209   -1.1754   -0.5391 C   0  0  0  0  0  0  0  0  0  0  0  0
   -1.1760   -0.4970   -0.2086 N   0  0  0  0  0  0  0  0  0  0  0  0
   -1.3515    0.9522   -0.3470 C   0  0  0  0  0  0  0  0  0  0  0  0
   -0.7288    1.7581    0.7944 C   0  0  0  0  0  0  0  0  0  0  0  0
    0.7989    1.6778    0.8152 C   0  0  0  0  0  0  0  0  0  0  0  0
    1.3262    0.2490    0.8856 C   0  0  0  0  0  0  0  0  0  0  0  0
    1.1408   -0.4951   -0.3302 O   0  0  0  0  0  0  0  0  0  0  0  0
   -1.9833   -1.0518   -0.4515 H   0  0  0  0  0  0  0  0  0  0  0  0
   -0.9510    1.3020   -1.3092 H   0  0  0  0  0  0  0  0  0  0  0  0
   -2.4302    1.1292   -0.3670 H   0  0  0  0  0  0  0  0  0  0  0  0
   -1.0416    2.8035    0.6919 H   0  0  0  0  0  0  0  0  0  0  0  0
   -1.1354    1.3916    1.7450 H   0  0  0  0  0  0  0  0  0  0  0  0
    1.2160    2.1557   -0.0799 H   0  0  0  0  0  0  0  0  0  0  0  0
    1.1891    2.2277    1.6801 H   0  0  0  0  0  0  0  0  0  0  0  0
    2.4089    0.2532    1.0354 H   0  0  0  0  0  0  0  0  0  0  0  0
    0.8693   -0.2963    1.7203 H   0  0  0  0  0  0  0  0  0  0  0  0
  1  2  2  0  0  0  0
  2  8  1  0  0  0  0
  2  3  1  0  0  0  0
  4  3  1  0  0  0  0
  4  5  1  0  0  0  0
  5  6  1  0  0  0  0
  5 13  1  0  0  0  0
  6  7  1  0  0  0  0
  6 15  1  0  0  0  0
  7 16  1  0  0  0  0
  7 17  1  0  0  0  0
  8  7  1  0  0  0  0
  9  3  1  0  0  0  0
 10  4  1  0  0  0  0
 11  4  1  0  0  0  0
 12  5  1  0  0  0  0
 14  6  1  0  0  0  0
M  END
