16
title
O 0.22071761 -1.9115406 -1.3465862
C 0.057251394 -1.0825646 -0.5038595
O -1.1558275 -0.5224553 -0.29932174
C -1.3606313 0.3012373 0.8605316
C -0.8304576 1.7204889 0.64035267
C 0.5136779 1.7032138 -0.10233679
C 1.493373 0.664952 0.43095377
O 1.0370041 -0.70434946 0.36193714
H -2.4406643 0.29641956 1.0211
H -0.8800097 -0.16980727 1.7220685
H -1.5518132 2.3103206 0.06628791
H -0.7268593 2.2052915 1.6182723
H 0.34310406 1.5194932 -1.1689546
H 0.99824876 2.683277 -0.035432838
H 2.4343474 0.7157094 -0.12830445
H 1.7171285 0.84215015 1.4882619
