20
title
C -0.16225018 2.757847 0.034242626
C -0.14628126 1.254141 -0.04937444
C -0.121957906 0.63743037 -1.2439256
C -0.15566 -0.7846236 -1.5735558
C -0.08101547 -1.8751631 -0.79523575
C 0.12093874 -1.9664237 0.68988466
C 0.6917525 -0.72637296 1.3833199
C -0.17468512 0.539943 1.2831461
H 0.72317946 3.1348214 0.56406045
H -0.19278182 3.224129 -0.9538521
H -1.0320336 3.111196 0.60485494
H -0.11407049 1.2850825 -2.1189895
H -0.2803912 -0.97248316 -2.6387002
H -0.17080286 -2.8377342 -1.2958893
H -0.83184457 -2.2483764 1.1647601
H 0.7911598 -2.8140302 0.8906381
H 0.83265305 -0.96709204 2.4434967
H 1.6870586 -0.5091295 0.9786361
H 0.15114535 1.2459683 2.0566418
H -1.2158259 0.29254842 1.539428
