title
 OpenBabel02282109593D

 14 14  0  0  0  0  0  0  0  0999 V2000
    0.2186   -1.8928   -1.3451 O   0  0  0  0  0  0  0  0  0  0  0  0
    0.0342   -1.0849   -0.4904 C   0  0  0  0  0  0  0  0  0  0  0  0
   -1.1907   -0.5585   -0.2643 O   0  0  0  0  0  0  0  0  0  0  0  0
   -1.3500    0.3188    0.8526 C   0  0  0  0  0  0  0  0  0  0  0  0
   -0.7155    1.6824    0.5605 C   0  0  0  0  0  0  0  0  0  0  0  0
    0.5131    1.5489   -0.1441 O   0  0  0  0  0  0  0  0  0  0  0  0
    1.4253    0.6752    0.4195 C   0  0  0  0  0  0  0  0  0  0  0  0
    0.9962   -0.6985    0.4030 O   0  0  0  0  0  0  0  0  0  0  0  0
   -2.4275    0.4252    0.9965 H   0  0  0  0  0  0  0  0  0  0  0  0
   -0.9205   -0.1410    1.7467 H   0  0  0  0  0  0  0  0  0  0  0  0
   -1.3533    2.2744   -0.0995 H   0  0  0  0  0  0  0  0  0  0  0  0
   -0.5742    2.2349    1.5014 H   0  0  0  0  0  0  0  0  0  0  0  0
    2.3364    0.7559   -0.1797 H   0  0  0  0  0  0  0  0  0  0  0  0
    1.6344    0.8969    1.4754 H   0  0  0  0  0  0  0  0  0  0  0  0
  1  2  2  0  0  0  0
  2  3  1  0  0  0  0
  2  8  1  0  0  0  0
  3  4  1  0  0  0  0
  4  9  1  0  0  0  0
  4 10  1  0  0  0  0
  5  4  1  0  0  0  0
  5 12  1  0  0  0  0
  6  7  1  0  0  0  0
  6  5  1  0  0  0  0
  7 14  1  0  0  0  0
  8  7  1  0  0  0  0
 11  5  1  0  0  0  0
 13  7  1  0  0  0  0
M  END
