title
 OpenBabel02282109593D

 20 20  0  0  0  0  0  0  0  0999 V2000
   -0.7666    2.5698    0.2029 C   0  0  0  0  0  0  0  0  0  0  0  0
   -0.1424    1.2291   -0.0774 C   0  0  0  0  0  0  0  0  0  0  0  0
   -0.3605    0.5688   -1.2155 C   0  0  0  0  0  0  0  0  0  0  0  0
    0.2376   -0.7754   -1.5437 C   0  0  0  0  0  0  0  0  0  0  0  0
   -0.2849   -1.9083   -0.6442 C   0  0  0  0  0  0  0  0  0  0  0  0
    0.0666   -1.7861    0.8155 C   0  0  0  0  0  0  0  0  0  0  0  0
    0.5176   -0.7271    1.4892 C   0  0  0  0  0  0  0  0  0  0  0  0
    0.7738    0.6864    1.0081 C   0  0  0  0  0  0  0  0  0  0  0  0
    0.0004    3.3313    0.3978 H   0  0  0  0  0  0  0  0  0  0  0  0
   -1.3810    2.9143   -0.6333 H   0  0  0  0  0  0  0  0  0  0  0  0
   -1.3989    2.5326    1.0998 H   0  0  0  0  0  0  0  0  0  0  0  0
   -1.0232    1.0108   -1.9567 H   0  0  0  0  0  0  0  0  0  0  0  0
    0.0288   -1.0283   -2.5882 H   0  0  0  0  0  0  0  0  0  0  0  0
    1.3319   -0.7370   -1.4499 H   0  0  0  0  0  0  0  0  0  0  0  0
   -1.3770   -1.9863   -0.7509 H   0  0  0  0  0  0  0  0  0  0  0  0
    0.1101   -2.8665   -1.0098 H   0  0  0  0  0  0  0  0  0  0  0  0
   -0.0613   -2.7079    1.3820 H   0  0  0  0  0  0  0  0  0  0  0  0
    0.7463   -0.8782    2.5428 H   0  0  0  0  0  0  0  0  0  0  0  0
    1.8204    0.7697    0.6701 H   0  0  0  0  0  0  0  0  0  0  0  0
    0.7150    1.3483    1.8794 H   0  0  0  0  0  0  0  0  0  0  0  0
  1  9  1  0  0  0  0
  1 11  1  0  0  0  0
  2  1  1  0  0  0  0
  2  8  1  0  0  0  0
  3  2  2  0  0  0  0
  4 14  1  0  0  0  0
  4  3  1  0  0  0  0
  4  5  1  0  0  0  0
  5  6  1  0  0  0  0
  6 17  1  0  0  0  0
  6  7  2  0  0  0  0
  7 18  1  0  0  0  0
  8  7  1  0  0  0  0
  8 20  1  0  0  0  0
 10  1  1  0  0  0  0
 12  3  1  0  0  0  0
 13  4  1  0  0  0  0
 15  5  1  0  0  0  0
 16  5  1  0  0  0  0
 19  8  1  0  0  0  0
M  END
