17
title
C -0.8531958 2.483161 -0.032129355
C -0.45934302 1.0322968 -0.11604132
N -0.5151155 0.4136877 -1.2140782
C -0.32272124 -0.9983794 -1.4471434
C 0.3834217 -1.9145678 -0.48660535
C 0.94868064 -1.6250161 0.6793892
C 1.0010295 -0.273979 1.3267412
O -0.1287247 0.57684577 1.1351168
H 0.00041940456 3.091266 0.2866381
H -1.2158077 2.8318977 -0.99795574
H -1.6334158 2.6105955 0.72556597
H -1.324029 -1.4160336 -1.6428941
H 0.18813011 -1.0963608 -2.4177442
H 0.43617013 -2.9427814 -0.84346926
H 1.4562432 -2.412984 1.2312176
H 1.072905 -0.38638872 2.4128735
H 1.9048523 0.26503074 1.0028738
