20
title
C -0.7666319 2.5697677 0.20288262
C -0.14244622 1.2290788 -0.07736296
C -0.36054003 0.56876457 -1.2154514
C 0.23756646 -0.77538663 -1.5436565
C -0.28490174 -1.9083296 -0.644215
C 0.066572204 -1.7861248 0.8154605
C 0.51760197 -0.72707194 1.4891715
C 0.7737849 0.6864076 1.008143
H 0.0004479443 3.3312669 0.39782557
H -1.3810306 2.914313 -0.6333262
H -1.3989491 2.5326219 1.0998385
H -1.0231591 1.010803 -1.956673
H 0.028811857 -1.0282627 -2.588168
H 1.3319205 -0.7370245 -1.4498911
H -1.377034 -1.9863468 -0.75087774
H 0.11009045 -2.8665476 -1.0097523
H -0.061328933 -2.7078965 1.3819997
H 0.7462665 -0.87821645 2.5428162
H 1.820352 0.7696616 0.6701148
H 0.715003 1.348311 1.8793799
