title
 OpenBabel02282109593D

 22 22  0  0  0  0  0  0  0  0999 V2000
   -0.7185    2.6391   -0.0675 C   0  0  0  0  0  0  0  0  0  0  0  0
   -0.5742    1.1395   -0.0826 C   0  0  0  0  0  0  0  0  0  0  0  0
   -0.6078    0.4468   -1.2245 C   0  0  0  0  0  0  0  0  0  0  0  0
   -0.4731   -1.0520   -1.3572 C   0  0  0  0  0  0  0  0  0  0  0  0
    0.8427   -1.6381   -0.8078 C   0  0  0  0  0  0  0  0  0  0  0  0
    0.9338   -1.6809    0.7233 C   0  0  0  0  0  0  0  0  0  0  0  0
    0.9153   -0.3218    1.4369 C   0  0  0  0  0  0  0  0  0  0  0  0
   -0.3917    0.4790    1.2730 C   0  0  0  0  0  0  0  0  0  0  0  0
    0.1596    3.1174    0.3870 H   0  0  0  0  0  0  0  0  0  0  0  0
   -0.8453    3.0479   -1.0737 H   0  0  0  0  0  0  0  0  0  0  0  0
   -1.5821    2.9467    0.5373 H   0  0  0  0  0  0  0  0  0  0  0  0
   -0.7430    0.9995   -2.1524 H   0  0  0  0  0  0  0  0  0  0  0  0
   -1.3140   -1.5527   -0.8528 H   0  0  0  0  0  0  0  0  0  0  0  0
   -0.5610   -1.3195   -2.4154 H   0  0  0  0  0  0  0  0  0  0  0  0
    0.9514   -2.6626   -1.1854 H   0  0  0  0  0  0  0  0  0  0  0  0
    1.6865   -1.0657   -1.2140 H   0  0  0  0  0  0  0  0  0  0  0  0
    0.1036   -2.2908    1.1088 H   0  0  0  0  0  0  0  0  0  0  0  0
    1.8523   -2.2106    1.0055 H   0  0  0  0  0  0  0  0  0  0  0  0
    1.0799   -0.4977    2.5072 H   0  0  0  0  0  0  0  0  0  0  0  0
    1.7580    0.2908    1.0909 H   0  0  0  0  0  0  0  0  0  0  0  0
   -0.4295    1.2504    2.0498 H   0  0  0  0  0  0  0  0  0  0  0  0
   -1.2409   -0.1908    1.4756 H   0  0  0  0  0  0  0  0  0  0  0  0
  1  9  1  0  0  0  0
  1 11  1  0  0  0  0
  2  1  1  0  0  0  0
  2  8  1  0  0  0  0
  3  2  2  0  0  0  0
  4  3  1  0  0  0  0
  4 13  1  0  0  0  0
  4  5  1  0  0  0  0
  5  6  1  0  0  0  0
  6 18  1  0  0  0  0
  6 17  1  0  0  0  0
  6  7  1  0  0  0  0
  7 19  1  0  0  0  0
  8  7  1  0  0  0  0
  8 22  1  0  0  0  0
  8 21  1  0  0  0  0
 10  1  1  0  0  0  0
 12  3  1  0  0  0  0
 14  4  1  0  0  0  0
 15  5  1  0  0  0  0
 16  5  1  0  0  0  0
 20  7  1  0  0  0  0
M  END
