20
title
C 0.7454522 2.5608363 0.13469268
C 0.09478188 1.2188336 -0.0694586
C 0.03593479 0.6367718 -1.268035
C -0.59239423 -0.70365256 -1.5737054
C -0.24221726 -1.8708763 -0.67600924
C 0.13198371 -1.8828728 0.60370415
C 0.26611853 -0.7311922 1.5661905
C -0.47935116 0.55218023 1.163637
H 1.5654423 2.49624 0.8625691
H 1.1504636 2.964596 -0.7971246
H 0.030925222 3.288721 0.54151994
H 0.45974088 1.1626593 -2.1212492
H -1.6911999 -0.6003917 -1.6084763
H -0.31853947 -0.98558575 -2.596887
H -0.31688955 -2.8367906 -1.1734028
H 0.36068544 -2.8551657 1.0383652
H -0.10531366 -1.0639641 2.5450509
H 1.3306813 -0.5029468 1.7246621
H -0.45774084 1.2523783 2.0057669
H -1.5353048 0.30136558 0.99697703
