title
 OpenBabel02282109593D

 17 17  0  0  0  0  0  0  0  0999 V2000
   -0.8039    2.5670    0.1792 C   0  0  0  0  0  0  0  0  0  0  0  0
   -0.1577    1.2366   -0.0808 C   0  0  0  0  0  0  0  0  0  0  0  0
   -0.2810    0.5827   -1.2372 C   0  0  0  0  0  0  0  0  0  0  0  0
    0.3784   -0.7476   -1.4625 C   0  0  0  0  0  0  0  0  0  0  0  0
   -0.1249   -1.7991   -0.6137 O   0  0  0  0  0  0  0  0  0  0  0  0
   -0.0097   -1.6653    0.7294 C   0  0  0  0  0  0  0  0  0  0  0  0
    0.3298   -0.7124    1.4836 N   0  0  0  0  0  0  0  0  0  0  0  0
    0.6650    0.6412    1.0545 C   0  0  0  0  0  0  0  0  0  0  0  0
   -0.0549    3.3162    0.4669 H   0  0  0  0  0  0  0  0  0  0  0  0
   -1.3388    2.9379   -0.6989 H   0  0  0  0  0  0  0  0  0  0  0  0
   -1.5125    2.5013    1.0145 H   0  0  0  0  0  0  0  0  0  0  0  0
   -0.8795    0.9958   -2.0444 H   0  0  0  0  0  0  0  0  0  0  0  0
    0.1996   -1.1147   -2.4745 H   0  0  0  0  0  0  0  0  0  0  0  0
    1.4659   -0.6841   -1.3187 H   0  0  0  0  0  0  0  0  0  0  0  0
   -0.2857   -2.6179    1.1844 H   0  0  0  0  0  0  0  0  0  0  0  0
    1.7352    0.6873    0.7968 H   0  0  0  0  0  0  0  0  0  0  0  0
    0.5577    1.2787    1.9387 H   0  0  0  0  0  0  0  0  0  0  0  0
  1  9  1  0  0  0  0
  1 11  1  0  0  0  0
  2  1  1  0  0  0  0
  2  8  1  0  0  0  0
  3  2  2  0  0  0  0
  4 14  1  0  0  0  0
  4  3  1  0  0  0  0
  4  5  1  0  0  0  0
  5  6  1  0  0  0  0
  6 15  1  0  0  0  0
  6  7  2  0  0  0  0
  8  7  1  0  0  0  0
  8 17  1  0  0  0  0
 10  1  1  0  0  0  0
 12  3  1  0  0  0  0
 13  4  1  0  0  0  0
 16  8  1  0  0  0  0
M  END
