20
title
C -0.8106439 2.6169176 -0.06659558
C -0.54310703 1.1343509 -0.109640464
C -0.5958939 0.44590613 -1.253028
C -0.40206096 -1.0411476 -1.4393446
C 0.8205474 -1.6581529 -0.7426009
C 0.77263254 -1.6099161 0.7843115
O 0.9030797 -0.30918154 1.321827
C -0.2545955 0.4990113 1.2437876
H 0.06482528 3.1660132 0.30400464
H -1.0717201 3.0115836 -1.0518771
H -1.6353072 2.8518949 0.619873
H -0.8286542 1.001668 -2.1599002
H -1.3049432 -1.5719422 -1.0970706
H -0.33282316 -1.2504896 -2.5121808
H 0.9054819 -2.7106848 -1.0431936
H 1.7327331 -1.1514224 -1.0775768
H -0.16065843 -2.076886 1.1466186
H 1.608884 -2.1839955 1.1979104
H -0.10211049 1.2904977 1.9849693
H -1.1373847 -0.07990322 1.5721813
