title
 OpenBabel02282109593D

 17 17  0  0  0  0  0  0  0  0999 V2000
    0.5868    2.6041    0.1258 C   0  0  0  0  0  0  0  0  0  0  0  0
    0.0403    1.2265   -0.1207 C   0  0  0  0  0  0  0  0  0  0  0  0
    0.1123    0.5953   -1.2931 C   0  0  0  0  0  0  0  0  0  0  0  0
   -0.4247   -0.8017   -1.5239 C   0  0  0  0  0  0  0  0  0  0  0  0
    0.0037   -1.8488   -0.5992 N   0  0  0  0  0  0  0  0  0  0  0  0
    0.2220   -1.7005    0.6332 C   0  0  0  0  0  0  0  0  0  0  0  0
    0.0944   -0.6496    1.4844 O   0  0  0  0  0  0  0  0  0  0  0  0
   -0.6178    0.5180    1.0419 C   0  0  0  0  0  0  0  0  0  0  0  0
    1.3567    2.5886    0.9081 H   0  0  0  0  0  0  0  0  0  0  0  0
    1.0280    3.0290   -0.7793 H   0  0  0  0  0  0  0  0  0  0  0  0
   -0.1981    3.2879    0.4749 H   0  0  0  0  0  0  0  0  0  0  0  0
    0.5861    1.0864   -2.1407 H   0  0  0  0  0  0  0  0  0  0  0  0
   -1.5263   -0.7849   -1.5534 H   0  0  0  0  0  0  0  0  0  0  0  0
   -0.1212   -1.1339   -2.5218 H   0  0  0  0  0  0  0  0  0  0  0  0
    0.5962   -2.5494    1.2072 H   0  0  0  0  0  0  0  0  0  0  0  0
   -0.6602    1.1574    1.9263 H   0  0  0  0  0  0  0  0  0  0  0  0
   -1.6461    0.2258    0.7900 H   0  0  0  0  0  0  0  0  0  0  0  0
  1 11  1  0  0  0  0
  1  9  1  0  0  0  0
  2  1  1  0  0  0  0
  2  8  1  0  0  0  0
  3  2  2  0  0  0  0
  4  3  1  0  0  0  0
  4  5  1  0  0  0  0
  5  6  2  0  0  0  0
  6 15  1  0  0  0  0
  6  7  1  0  0  0  0
  8  7  1  0  0  0  0
  8 16  1  0  0  0  0
 10  1  1  0  0  0  0
 12  3  1  0  0  0  0
 13  4  1  0  0  0  0
 14  4  1  0  0  0  0
 17  8  1  0  0  0  0
M  END
