title
 OpenBabel02282109593D

 18 18  0  0  1  0  0  0  0  0999 V2000
    1.2346    0.3931   -2.1606 O   0  0  0  0  0  0  0  0  0  0  0  0
    0.6098   -0.3564   -1.1039 C   0  0  1  0  0  0  0  0  0  0  0  0
    1.3954   -0.1263    0.1634 C   0  0  0  0  0  0  0  0  0  0  0  0
    1.0164    0.2270    1.3918 C   0  0  0  0  0  0  0  0  0  0  0  0
   -0.3676    0.4267    1.9519 C   0  0  0  0  0  0  0  0  0  0  0  0
   -1.4672   -0.4478    1.3315 C   0  0  0  0  0  0  0  0  0  0  0  0
   -1.7558   -0.1525   -0.1187 C   0  0  0  0  0  0  0  0  0  0  0  0
   -0.8773   -0.1024   -1.1176 C   0  0  0  0  0  0  0  0  0  0  0  0
    1.1796    1.3223   -1.9091 H   0  0  0  0  0  0  0  0  0  0  0  0
    0.7708   -1.3998   -1.4190 H   0  0  0  0  0  0  0  0  0  0  0  0
    2.4631   -0.2306   -0.0218 H   0  0  0  0  0  0  0  0  0  0  0  0
    1.8172    0.3904    2.1120 H   0  0  0  0  0  0  0  0  0  0  0  0
   -0.3304    0.2281    3.0302 H   0  0  0  0  0  0  0  0  0  0  0  0
   -0.6521    1.4847    1.8590 H   0  0  0  0  0  0  0  0  0  0  0  0
   -1.1835   -1.5027    1.4491 H   0  0  0  0  0  0  0  0  0  0  0  0
   -2.3860   -0.3155    1.9122 H   0  0  0  0  0  0  0  0  0  0  0  0
   -2.8006    0.0205   -0.3688 H   0  0  0  0  0  0  0  0  0  0  0  0
   -1.2405    0.1000   -2.1231 H   0  0  0  0  0  0  0  0  0  0  0  0
  1  9  1  0  0  0  0
  1  2  1  0  0  0  0
  2 10  1  6  0  0  0
  2  3  1  0  0  0  0
  3  4  2  0  0  0  0
  4  5  1  0  0  0  0
  4 12  1  0  0  0  0
  5 13  1  0  0  0  0
  6 15  1  0  0  0  0
  6 16  1  0  0  0  0
  6  5  1  0  0  0  0
  7  6  1  0  0  0  0
  8  2  1  0  0  0  0
  8  7  2  0  0  0  0
 11  3  1  0  0  0  0
 14  5  1  0  0  0  0
 17  7  1  0  0  0  0
 18  8  1  0  0  0  0
M  END
