20
title
C -0.77900505 2.6662476 -0.08874619
C -0.53477114 1.1784779 -0.09803811
C -0.58036417 0.47987714 -1.2368596
C -0.40125835 -1.0108215 -1.4007779
C 0.80810285 -1.6258134 -0.68855786
O 0.69775784 -1.6553026 0.7209392
C 0.9008014 -0.41269168 1.3624913
C -0.2831412 0.5561092 1.2641207
H 0.09072761 3.208756 0.305039
H -0.9971741 3.0517354 -1.0881493
H -1.6224157 2.9218833 0.5665147
H -0.8004096 1.0274255 -2.1514223
H -1.2995796 -1.5422705 -1.0532987
H -0.30700597 -1.2430652 -2.4682765
H 0.91060674 -2.6729426 -0.99383515
H 1.7261016 -1.0934004 -0.9872348
H 1.0724641 -0.65574884 2.416916
H 1.8119686 0.07256283 0.9751176
H -0.11396958 1.3538427 1.9978415
H -1.1838477 0.022031324 1.5996952
