title
 OpenBabel02282109593D

 17 17  0  0  1  0  0  0  0  0999 V2000
   -2.0703    1.3164    0.1976 C   0  0  0  0  0  0  0  0  0  0  0  0
   -1.3499   -0.0486    0.1254 C   0  0  1  0  0  0  0  0  0  0  0  0
   -0.7752   -0.2498   -1.2561 C   0  0  0  0  0  0  0  0  0  0  0  0
    0.4936   -0.1664   -1.6414 C   0  0  0  0  0  0  0  0  0  0  0  0
    1.6596    0.1618   -0.7541 C   0  0  0  0  0  0  0  0  0  0  0  0
    1.7244   -0.5173    0.5043 O   0  0  0  0  0  0  0  0  0  0  0  0
    0.7118   -0.4189    1.4028 C   0  0  0  0  0  0  0  0  0  0  0  0
   -0.5238   -0.2013    1.3071 N   0  0  0  0  0  0  0  0  0  0  0  0
   -1.3523    2.1325    0.0719 H   0  0  0  0  0  0  0  0  0  0  0  0
   -2.8268    1.4003   -0.5883 H   0  0  0  0  0  0  0  0  0  0  0  0
   -2.5546    1.4261    1.1709 H   0  0  0  0  0  0  0  0  0  0  0  0
   -2.1341   -0.8115    0.2467 H   0  0  0  0  0  0  0  0  0  0  0  0
   -1.5296   -0.4542   -2.0150 H   0  0  0  0  0  0  0  0  0  0  0  0
    0.7356   -0.3025   -2.6926 H   0  0  0  0  0  0  0  0  0  0  0  0
    2.5966   -0.1073   -1.2478 H   0  0  0  0  0  0  0  0  0  0  0  0
    1.6957    1.2442   -0.5599 H   0  0  0  0  0  0  0  0  0  0  0  0
    1.1297   -0.6028    2.3944 H   0  0  0  0  0  0  0  0  0  0  0  0
  1 11  1  0  0  0  0
  2  1  1  0  0  0  0
  2 12  1  1  0  0  0
  2  8  1  0  0  0  0
  3  2  1  0  0  0  0
  4  3  2  0  0  0  0
  4  5  1  0  0  0  0
  5 16  1  0  0  0  0
  5  6  1  0  0  0  0
  6  7  1  0  0  0  0
  7 17  1  0  0  0  0
  8  7  2  0  0  0  0
  9  1  1  0  0  0  0
 10  1  1  0  0  0  0
 13  3  1  0  0  0  0
 14  4  1  0  0  0  0
 15  5  1  0  0  0  0
M  END
