18
title
C -0.8956526 2.6191373 -0.06379149
C -0.4614267 1.1733104 -0.09271785
C -0.54455465 0.45426658 -1.2145714
C -0.26026312 -1.0046624 -1.462676
O 0.7140185 -1.6375567 -0.65655154
C 0.4762284 -1.600468 0.7190436
O 0.8910261 -0.40627483 1.316201
C -0.027641086 0.66381115 1.2672573
H -0.052765578 3.2809882 0.17253684
H -1.319578 2.9327614 -1.0203865
H -1.652226 2.7898319 0.7136182
H -0.93726945 0.95728093 -2.0981321
H -1.214675 -1.5617331 -1.3969681
H 0.0967032 -1.1291317 -2.4904392
H -0.59135723 -1.7934746 0.9373778
H 1.0954267 -2.3886755 1.1546223
H 0.45580652 1.4779379 1.8182664
H -0.9401285 0.40362272 1.8375419
