title
 OpenBabel02282109593D

 20 20  0  0  1  0  0  0  0  0999 V2000
   -2.2565    1.1223    0.2136 C   0  0  0  0  0  0  0  0  0  0  0  0
   -1.3624   -0.1424    0.1289 C   0  0  1  0  0  0  0  0  0  0  0  0
   -0.7397   -0.2133   -1.2428 C   0  0  0  0  0  0  0  0  0  0  0  0
    0.5142   -0.0009   -1.6389 C   0  0  0  0  0  0  0  0  0  0  0  0
    1.7145    0.3241   -0.7865 C   0  0  0  0  0  0  0  0  0  0  0  0
    1.8896   -0.5676    0.4530 C   0  0  0  0  0  0  0  0  0  0  0  0
    0.8198   -0.4319    1.5046 C   0  0  0  0  0  0  0  0  0  0  0  0
   -0.4911   -0.2429    1.3554 C   0  0  0  0  0  0  0  0  0  0  0  0
   -1.6455    2.0281    0.1588 H   0  0  0  0  0  0  0  0  0  0  0  0
   -2.9760    1.1466   -0.6107 H   0  0  0  0  0  0  0  0  0  0  0  0
   -2.8171    1.1426    1.1540 H   0  0  0  0  0  0  0  0  0  0  0  0
   -2.0574   -0.9967    0.1967 H   0  0  0  0  0  0  0  0  0  0  0  0
   -1.4729   -0.4193   -2.0225 H   0  0  0  0  0  0  0  0  0  0  0  0
    0.7065   -0.0617   -2.7085 H   0  0  0  0  0  0  0  0  0  0  0  0
    2.6163    0.2414   -1.4034 H   0  0  0  0  0  0  0  0  0  0  0  0
    1.6696    1.3722   -0.4605 H   0  0  0  0  0  0  0  0  0  0  0  0
    1.9609   -1.6156    0.1295 H   0  0  0  0  0  0  0  0  0  0  0  0
    2.8570   -0.3348    0.9141 H   0  0  0  0  0  0  0  0  0  0  0  0
    1.1810   -0.5111    2.5289 H   0  0  0  0  0  0  0  0  0  0  0  0
   -1.0758   -0.1735    2.2733 H   0  0  0  0  0  0  0  0  0  0  0  0
  1 11  1  0  0  0  0
  2 12  1  1  0  0  0
  2  1  1  0  0  0  0
  2  8  1  0  0  0  0
  3  2  1  0  0  0  0
  4  3  2  0  0  0  0
  4  5  1  0  0  0  0
  5 16  1  0  0  0  0
  5  6  1  0  0  0  0
  6 18  1  0  0  0  0
  6  7  1  0  0  0  0
  7 19  1  0  0  0  0
  8  7  2  0  0  0  0
  8 20  1  0  0  0  0
  9  1  1  0  0  0  0
 10  1  1  0  0  0  0
 13  3  1  0  0  0  0
 14  4  1  0  0  0  0
 15  5  1  0  0  0  0
 17  6  1  0  0  0  0
M  END
