title
 OpenBabel02282109593D

 19 19  0  0  0  0  0  0  0  0999 V2000
   -0.7115    2.5487   -0.0834 C   0  0  0  0  0  0  0  0  0  0  0  0
   -0.4690    1.0663   -0.1448 C   0  0  0  0  0  0  0  0  0  0  0  0
   -0.5108    0.4374   -1.2395 N   0  0  0  0  0  0  0  0  0  0  0  0
   -0.4520   -1.0146   -1.3311 C   0  0  0  0  0  0  0  0  0  0  0  0
    0.7654   -1.7131   -0.7110 C   0  0  0  0  0  0  0  0  0  0  0  0
    0.7688   -1.6769    0.8170 C   0  0  0  0  0  0  0  0  0  0  0  0
    0.8609   -0.2646    1.3785 C   0  0  0  0  0  0  0  0  0  0  0  0
   -0.2802    0.5599    1.1231 O   0  0  0  0  0  0  0  0  0  0  0  0
    0.1713    3.0655    0.3093 H   0  0  0  0  0  0  0  0  0  0  0  0
   -0.9559    2.9332   -1.0728 H   0  0  0  0  0  0  0  0  0  0  0  0
   -1.5338    2.7579    0.6092 H   0  0  0  0  0  0  0  0  0  0  0  0
   -1.3647   -1.4331   -0.8788 H   0  0  0  0  0  0  0  0  0  0  0  0
   -0.4929   -1.2653   -2.3963 H   0  0  0  0  0  0  0  0  0  0  0  0
    0.7710   -2.7549   -1.0532 H   0  0  0  0  0  0  0  0  0  0  0  0
    1.6819   -1.2493   -1.0990 H   0  0  0  0  0  0  0  0  0  0  0  0
   -0.1389   -2.1555    1.2064 H   0  0  0  0  0  0  0  0  0  0  0  0
    1.6218   -2.2461    1.2077 H   0  0  0  0  0  0  0  0  0  0  0  0
    0.9393   -0.2920    2.4691 H   0  0  0  0  0  0  0  0  0  0  0  0
    1.7581    0.2367    0.9878 H   0  0  0  0  0  0  0  0  0  0  0  0
  1  9  1  0  0  0  0
  1 11  1  0  0  0  0
  2  1  1  0  0  0  0
  2  8  1  0  0  0  0
  3  2  2  0  0  0  0
  4  3  1  0  0  0  0
  4 12  1  0  0  0  0
  4  5  1  0  0  0  0
  5  6  1  0  0  0  0
  6 16  1  0  0  0  0
  6 17  1  0  0  0  0
  6  7  1  0  0  0  0
  7 18  1  0  0  0  0
  8  7  1  0  0  0  0
 10  1  1  0  0  0  0
 13  4  1  0  0  0  0
 14  5  1  0  0  0  0
 15  5  1  0  0  0  0
 19  7  1  0  0  0  0
M  END
