title
 OpenBabel02282109593D

 18 18  0  0  1  0  0  0  0  0999 V2000
   -1.7116    1.2540    0.0235 C   0  0  0  0  0  0  0  0  0  0  0  0
   -1.3663   -0.2500    0.0120 C   0  0  1  0  0  0  0  0  0  0  0  0
   -0.6095   -0.6660   -1.2307 C   0  0  0  0  0  0  0  0  0  0  0  0
    0.6494   -0.2975   -1.5386 C   0  0  0  0  0  0  0  0  0  0  0  0
    1.5916    0.3939   -0.6922 C   0  0  0  0  0  0  0  0  0  0  0  0
    1.6048    0.3865    0.6653 C   0  0  0  0  0  0  0  0  0  0  0  0
    0.6793   -0.3142    1.5223 C   0  0  0  0  0  0  0  0  0  0  0  0
   -0.5855   -0.6794    1.2351 C   0  0  0  0  0  0  0  0  0  0  0  0
   -0.8061    1.8645    0.0180 H   0  0  0  0  0  0  0  0  0  0  0  0
   -2.3069    1.5157   -0.8576 H   0  0  0  0  0  0  0  0  0  0  0  0
   -2.2896    1.5060    0.9189 H   0  0  0  0  0  0  0  0  0  0  0  0
   -2.3147   -0.7980    0.0183 H   0  0  0  0  0  0  0  0  0  0  0  0
   -1.1494   -1.2835   -1.9451 H   0  0  0  0  0  0  0  0  0  0  0  0
    1.0230   -0.5719   -2.5237 H   0  0  0  0  0  0  0  0  0  0  0  0
    2.4275    0.8717   -1.1980 H   0  0  0  0  0  0  0  0  0  0  0  0
    2.4505    0.8588    1.1598 H   0  0  0  0  0  0  0  0  0  0  0  0
    1.0720   -0.5992    2.4969 H   0  0  0  0  0  0  0  0  0  0  0  0
   -1.1114   -1.3047    1.9531 H   0  0  0  0  0  0  0  0  0  0  0  0
  1 11  1  0  0  0  0
  2 12  1  1  0  0  0
  2  1  1  0  0  0  0
  2  8  1  0  0  0  0
  3  2  1  0  0  0  0
  4  3  2  0  0  0  0
  4  5  1  0  0  0  0
  5  6  2  0  0  0  0
  6 16  1  0  0  0  0
  6  7  1  0  0  0  0
  7 17  1  0  0  0  0
  8  7  2  0  0  0  0
  8 18  1  0  0  0  0
  9  1  1  0  0  0  0
 10  1  1  0  0  0  0
 13  3  1  0  0  0  0
 14  4  1  0  0  0  0
 15  5  1  0  0  0  0
M  END
