17
title
C -2.070283 1.3163614 0.19758634
C -1.3498659 -0.0486475 0.12535818
C -0.7752406 -0.24983372 -1.2560503
C 0.49362642 -0.16641793 -1.6414365
C 1.6595657 0.16177857 -0.75411445
O 1.724427 -0.5172608 0.5043049
C 0.7118284 -0.41891935 1.402819
N -0.52376336 -0.2012557 1.3070738
H -1.3522643 2.1324573 0.07191701
H -2.8268347 1.4003407 -0.5882951
H -2.5545514 1.4261459 1.1708913
H -2.1340945 -0.81147164 0.24673413
H -1.529593 -0.45418102 -2.0150197
H 0.73560303 -0.3025204 -2.6925652
H 2.5965877 -0.10728196 -1.2477533
H 1.6957023 1.2441541 -0.559916
H 1.1296687 -0.60279334 2.3944411
