title
 OpenBabel02282109593D

 17 17  0  0  0  0  0  0  0  0999 V2000
   -0.1527    2.5680    0.7246 C   0  0  0  0  0  0  0  0  0  0  0  0
   -0.1773    1.0911    0.4479 C   0  0  0  0  0  0  0  0  0  0  0  0
   -1.2414    0.4176    0.5547 N   0  0  0  0  0  0  0  0  0  0  0  0
   -1.2934   -1.0322    0.4758 C   0  0  0  0  0  0  0  0  0  0  0  0
   -0.5834   -1.7069   -0.6943 C   0  0  0  0  0  0  0  0  0  0  0  0
    0.8295   -1.5826   -0.6207 O   0  0  0  0  0  0  0  0  0  0  0  0
    1.2792   -0.3017   -0.8941 C   0  0  0  0  0  0  0  0  0  0  0  0
    1.0927    0.6461    0.1489 O   0  0  0  0  0  0  0  0  0  0  0  0
    0.5899    2.7842    1.4999 H   0  0  0  0  0  0  0  0  0  0  0  0
    0.1531    3.1204   -0.1703 H   0  0  0  0  0  0  0  0  0  0  0  0
   -1.1354    2.9052    1.0511 H   0  0  0  0  0  0  0  0  0  0  0  0
   -0.8807   -1.4481    1.4062 H   0  0  0  0  0  0  0  0  0  0  0  0
   -2.3496   -1.3245    0.4399 H   0  0  0  0  0  0  0  0  0  0  0  0
   -0.7954   -2.7802   -0.6809 H   0  0  0  0  0  0  0  0  0  0  0  0
   -0.9466   -1.2925   -1.6483 H   0  0  0  0  0  0  0  0  0  0  0  0
    2.3611   -0.3620   -1.0229 H   0  0  0  0  0  0  0  0  0  0  0  0
    0.7993    0.0895   -1.8069 H   0  0  0  0  0  0  0  0  0  0  0  0
  1 11  1  0  0  0  0
  1  9  1  0  0  0  0
  2  3  2  0  0  0  0
  2  1  1  0  0  0  0
  4  3  1  0  0  0  0
  4 12  1  0  0  0  0
  5 14  1  0  0  0  0
  5  6  1  0  0  0  0
  5  4  1  0  0  0  0
  7  6  1  0  0  0  0
  7  8  1  0  0  0  0
  8  2  1  0  0  0  0
 10  1  1  0  0  0  0
 13  4  1  0  0  0  0
 15  5  1  0  0  0  0
 16  7  1  0  0  0  0
 17  7  1  0  0  0  0
M  END
