17
title
C -0.15273331 2.567983 0.72458225
C -0.17733566 1.091114 0.44789192
N -1.2414383 0.4176377 0.55468655
C -1.2933646 -1.0321909 0.47580352
C -0.58340585 -1.7068821 -0.6943107
O 0.8294775 -1.5826114 -0.6207207
C 1.2792373 -0.3016525 -0.89406806
O 1.0926533 0.64614516 0.14886728
H 0.58987373 2.7842371 1.4998692
H 0.15307209 3.1203585 -0.1703358
H -1.1353647 2.905154 1.0511076
H -0.880728 -1.4480642 1.406173
H -2.3496263 -1.3245441 0.43991813
H -0.79535204 -2.7802231 -0.6809127
H -0.9465587 -1.2925161 -1.648349
H 2.3610923 -0.36197978 -1.0229064
H 0.79931164 0.08945817 -1.8068626
