20
title
C -0.75760967 2.6694784 -0.078004465
C -0.53814805 1.1787534 -0.06502809
C -0.584362 0.46317372 -1.1923454
C -0.40219197 -1.0328885 -1.3190339
O 0.7857011 -1.5631262 -0.7539425
C 0.7669998 -1.6969861 0.65164405
C 0.915415 -0.37817225 1.4122849
C -0.28903314 0.5703906 1.3046254
H 0.12465804 3.201471 0.30180994
H -0.9753873 3.0431066 -1.0818112
H -1.5913489 2.9483736 0.57997787
H -0.7910884 0.98593456 -2.1242208
H -1.2759627 -1.5588051 -0.89192814
H -0.35971254 -1.2990776 -2.3795218
H -0.1587943 -2.2086759 0.9712333
H 1.606762 -2.3566277 0.895859
H 1.0755945 -0.62239593 2.4706378
H 1.8200227 0.12951104 1.0584633
H -0.15913312 1.3802671 2.0308998
H -1.1940756 0.031474866 1.6257092
