title
 OpenBabel02282109593D

 18 18  0  0  1  0  0  0  0  0999 V2000
    0.4466    2.4090    0.6796 O   0  0  0  0  0  0  0  0  0  0  0  0
    0.4069    0.9952    0.4981 C   0  0  1  0  0  0  0  0  0  0  0  0
   -1.0654    0.5790    0.6291 C   0  0  0  0  0  0  0  0  0  0  0  0
   -1.2691   -0.8973    0.9776 C   0  0  0  0  0  0  0  0  0  0  0  0
   -0.6647   -1.9317    0.0699 C   0  0  0  0  0  0  0  0  0  0  0  0
    0.2199   -1.7929   -0.9302 C   0  0  0  0  0  0  0  0  0  0  0  0
    0.9057   -0.5983   -1.4174 C   0  0  0  0  0  0  0  0  0  0  0  0
    1.0054    0.6003   -0.8288 C   0  0  0  0  0  0  0  0  0  0  0  0
    1.3641    2.6915    0.6113 H   0  0  0  0  0  0  0  0  0  0  0  0
    0.9734    0.5005    1.3078 H   0  0  0  0  0  0  0  0  0  0  0  0
   -1.5087    1.1925    1.4197 H   0  0  0  0  0  0  0  0  0  0  0  0
   -1.5858    0.8270   -0.3013 H   0  0  0  0  0  0  0  0  0  0  0  0
   -0.9120   -1.0893    2.0011 H   0  0  0  0  0  0  0  0  0  0  0  0
   -2.3506   -1.0872    1.0273 H   0  0  0  0  0  0  0  0  0  0  0  0
   -1.0202   -2.9425    0.2650 H   0  0  0  0  0  0  0  0  0  0  0  0
    0.4794   -2.7012   -1.4706 H   0  0  0  0  0  0  0  0  0  0  0  0
    1.4156   -0.7272   -2.3696 H   0  0  0  0  0  0  0  0  0  0  0  0
    1.5530    1.3895   -1.3404 H   0  0  0  0  0  0  0  0  0  0  0  0
  2  3  1  0  0  0  0
  2  1  1  0  0  0  0
  2 10  1  1  0  0  0
  3  4  1  0  0  0  0
  3 11  1  0  0  0  0
  4 14  1  0  0  0  0
  4 13  1  0  0  0  0
  5 15  1  0  0  0  0
  5  4  1  0  0  0  0
  6  5  2  0  0  0  0
  7  6  1  0  0  0  0
  7  8  2  0  0  0  0
  8  2  1  0  0  0  0
  9  1  1  0  0  0  0
 12  3  1  0  0  0  0
 16  6  1  0  0  0  0
 17  7  1  0  0  0  0
 18  8  1  0  0  0  0
M  END
