title
 OpenBabel02282109593D

 20 20  0  0  1  0  0  0  0  0999 V2000
   -1.0263    2.4418    0.0835 C   0  0  0  0  0  0  0  0  0  0  0  0
   -0.6807    0.9575    0.0037 C   0  0  1  0  0  0  0  0  0  0  0  0
   -0.0032    0.5954   -1.3234 C   0  0  0  0  0  0  0  0  0  0  0  0
    0.0564   -0.9025   -1.6450 C   0  0  0  0  0  0  0  0  0  0  0  0
    0.6932   -1.8201   -0.6322 C   0  0  0  0  0  0  0  0  0  0  0  0
    0.7394   -1.7134    0.6959 C   0  0  0  0  0  0  0  0  0  0  0  0
    0.1873   -0.6314    1.5914 C   0  0  0  0  0  0  0  0  0  0  0  0
    0.1874    0.6881    1.0988 O   0  0  0  0  0  0  0  0  0  0  0  0
   -0.1225    3.0486   -0.0328 H   0  0  0  0  0  0  0  0  0  0  0  0
   -1.7340    2.7210   -0.7027 H   0  0  0  0  0  0  0  0  0  0  0  0
   -1.4701    2.6760    1.0547 H   0  0  0  0  0  0  0  0  0  0  0  0
   -1.6060    0.3658    0.1202 H   0  0  0  0  0  0  0  0  0  0  0  0
   -0.5315    1.0980   -2.1431 H   0  0  0  0  0  0  0  0  0  0  0  0
    1.0104    1.0123   -1.2913 H   0  0  0  0  0  0  0  0  0  0  0  0
   -0.9676   -1.2655   -1.8307 H   0  0  0  0  0  0  0  0  0  0  0  0
    0.5758   -1.0294   -2.6026 H   0  0  0  0  0  0  0  0  0  0  0  0
    1.1277   -2.7211   -1.0628 H   0  0  0  0  0  0  0  0  0  0  0  0
    1.1967   -2.5337    1.2480 H   0  0  0  0  0  0  0  0  0  0  0  0
   -0.8356   -0.9189    1.9035 H   0  0  0  0  0  0  0  0  0  0  0  0
    0.7874   -0.5929    2.5075 H   0  0  0  0  0  0  0  0  0  0  0  0
  1 11  1  0  0  0  0
  2  1  1  0  0  0  0
  2 12  1  1  0  0  0
  2  8  1  0  0  0  0
  3 14  1  0  0  0  0
  3  2  1  0  0  0  0
  4  3  1  0  0  0  0
  4  5  1  0  0  0  0
  5  6  2  0  0  0  0
  6 18  1  0  0  0  0
  6  7  1  0  0  0  0
  7 19  1  0  0  0  0
  7 20  1  0  0  0  0
  8  7  1  0  0  0  0
  9  1  1  0  0  0  0
 10  1  1  0  0  0  0
 13  3  1  0  0  0  0
 15  4  1  0  0  0  0
 16  4  1  0  0  0  0
 17  5  1  0  0  0  0
M  END
