18
title
C -0.9364411 2.4343934 0.122278884
C -0.642752 0.93768996 0.14913692
O 0.01786205 0.6218909 -1.081897
C -0.1896716 -0.67947555 -1.5679646
C 0.2630739 -1.8151525 -0.69557726
C 0.70935106 -1.7842659 0.5689968
C 0.7879269 -0.64965594 1.4836421
C 0.19577232 0.54282135 1.3411908
H -0.0023339714 2.9992902 0.045034178
H -1.56277 2.6851666 -0.73694223
H -1.4529854 2.7416742 1.0367794
H -1.5962398 0.38395095 0.18596856
H -1.2498698 -0.84068084 -1.84249
H 0.372224 -0.72134614 -2.5113146
H 0.24039271 -2.7786148 -1.2034984
H 1.0441436 -2.7296474 0.9910512
H 1.3645625 -0.8259444 2.3888934
H 0.32804516 1.293753 2.1161697
