title
 OpenBabel02282109593D

 17 17  0  0  1  0  0  0  0  0999 V2000
   -1.5101    2.1217    0.2607 C   0  0  0  0  0  0  0  0  0  0  0  0
   -0.8056    0.7744    0.2400 C   0  0  1  0  0  0  0  0  0  0  0  0
   -0.3998    0.5633   -1.1333 O   0  0  0  0  0  0  0  0  0  0  0  0
    0.1427   -0.6256   -1.4967 C   0  0  0  0  0  0  0  0  0  0  0  0
    0.6132   -1.6038   -0.8546 N   0  0  0  0  0  0  0  0  0  0  0  0
    0.7782   -1.6982    0.5910 C   0  0  0  0  0  0  0  0  0  0  0  0
    1.0589   -0.4216    1.3553 C   0  0  0  0  0  0  0  0  0  0  0  0
    0.3584    0.6974    1.1958 C   0  0  0  0  0  0  0  0  0  0  0  0
   -0.8119    2.9197   -0.0099 H   0  0  0  0  0  0  0  0  0  0  0  0
   -2.3417    2.1328   -0.4475 H   0  0  0  0  0  0  0  0  0  0  0  0
   -1.8989    2.3254    1.2629 H   0  0  0  0  0  0  0  0  0  0  0  0
   -1.5279   -0.0183    0.4834 H   0  0  0  0  0  0  0  0  0  0  0  0
    0.1411   -0.6726   -2.5870 H   0  0  0  0  0  0  0  0  0  0  0  0
   -0.1047   -2.2021    1.0169 H   0  0  0  0  0  0  0  0  0  0  0  0
    1.6059   -2.3958    0.7576 H   0  0  0  0  0  0  0  0  0  0  0  0
    1.8865   -0.4454    2.0604 H   0  0  0  0  0  0  0  0  0  0  0  0
    0.6089    1.5960    1.7531 H   0  0  0  0  0  0  0  0  0  0  0  0
  1 11  1  0  0  0  0
  2  1  1  0  0  0  0
  2 12  1  1  0  0  0
  2  8  1  0  0  0  0
  3  2  1  0  0  0  0
  4  3  1  0  0  0  0
  4  5  2  0  0  0  0
  5  6  1  0  0  0  0
  6 15  1  0  0  0  0
  6 14  1  0  0  0  0
  6  7  1  0  0  0  0
  7 16  1  0  0  0  0
  8  7  2  0  0  0  0
  8 17  1  0  0  0  0
  9  1  1  0  0  0  0
 10  1  1  0  0  0  0
 13  4  1  0  0  0  0
M  END
