title
 OpenBabel02282109593D

 20 20  0  0  1  0  0  0  0  0999 V2000
   -0.7974    2.5865    0.1393 C   0  0  0  0  0  0  0  0  0  0  0  0
   -0.6793    1.0529    0.1093 C   0  0  1  0  0  0  0  0  0  0  0  0
   -0.0629    0.5864   -1.2252 C   0  0  0  0  0  0  0  0  0  0  0  0
   -0.2587   -0.8922   -1.5756 C   0  0  0  0  0  0  0  0  0  0  0  0
    0.3738   -1.9061   -0.6656 C   0  0  0  0  0  0  0  0  0  0  0  0
    0.7871   -1.7609    0.6022 C   0  0  0  0  0  0  0  0  0  0  0  0
    0.7035   -0.6066    1.4935 C   0  0  0  0  0  0  0  0  0  0  0  0
    0.0837    0.5696    1.3190 C   0  0  0  0  0  0  0  0  0  0  0  0
    0.1895    3.0558    0.0544 H   0  0  0  0  0  0  0  0  0  0  0  0
   -1.4154    2.9516   -0.6867 H   0  0  0  0  0  0  0  0  0  0  0  0
   -1.2492    2.9298    1.0757 H   0  0  0  0  0  0  0  0  0  0  0  0
   -1.7011    0.6454    0.1667 H   0  0  0  0  0  0  0  0  0  0  0  0
   -0.5056    1.1797   -2.0344 H   0  0  0  0  0  0  0  0  0  0  0  0
    1.0083    0.8213   -1.2190 H   0  0  0  0  0  0  0  0  0  0  0  0
   -1.3340   -1.1129   -1.6609 H   0  0  0  0  0  0  0  0  0  0  0  0
    0.1366   -1.0570   -2.5876 H   0  0  0  0  0  0  0  0  0  0  0  0
    0.5135   -2.8873   -1.1162 H   0  0  0  0  0  0  0  0  0  0  0  0
    1.2431   -2.6359    1.0616 H   0  0  0  0  0  0  0  0  0  0  0  0
    1.1958   -0.7548    2.4527 H   0  0  0  0  0  0  0  0  0  0  0  0
    0.1313    1.2771    2.1452 H   0  0  0  0  0  0  0  0  0  0  0  0
  1 11  1  0  0  0  0
  2  1  1  0  0  0  0
  2 12  1  1  0  0  0
  2  8  1  0  0  0  0
  3 14  1  0  0  0  0
  3  2  1  0  0  0  0
  4  3  1  0  0  0  0
  4  5  1  0  0  0  0
  5  6  2  0  0  0  0
  6 18  1  0  0  0  0
  6  7  1  0  0  0  0
  7 19  1  0  0  0  0
  8  7  2  0  0  0  0
  8 20  1  0  0  0  0
  9  1  1  0  0  0  0
 10  1  1  0  0  0  0
 13  3  1  0  0  0  0
 15  4  1  0  0  0  0
 16  4  1  0  0  0  0
 17  5  1  0  0  0  0
M  END
