20
title
C -1.0263386 2.4417713 0.08354214
C -0.6806715 0.95748496 0.0037004577
C -0.00324306 0.5954432 -1.3233948
C 0.05636528 -0.9024636 -1.6449502
C 0.69322217 -1.8201176 -0.6322056
C 0.7393936 -1.7133571 0.69593036
C 0.18728498 -0.63140017 1.5914237
O 0.18739417 0.68807065 1.0988044
H -0.122487515 3.0486205 -0.03275551
H -1.7339962 2.721016 -0.7027357
H -1.4700588 2.6759782 1.0546569
H -1.6059685 0.36580774 0.12015077
H -0.53146726 1.0980009 -2.143093
H 1.0103575 1.0122566 -1.2912604
H -0.9676461 -1.2654959 -1.8307047
H 0.5758122 -1.0293907 -2.6025786
H 1.1276867 -2.7211075 -1.062846
H 1.196697 -2.5337193 1.2479596
H -0.83564126 -0.9189382 1.9035001
H 0.78736556 -0.5928853 2.5075245
