17
title
C -1.5101221 2.1216927 0.26071525
C -0.8056275 0.7743963 0.24004653
O -0.39978945 0.56328213 -1.1332792
C 0.1426968 -0.6256206 -1.4966542
N 0.61319536 -1.603751 -0.8546383
C 0.77824074 -1.6982107 0.5910131
C 1.058862 -0.42155778 1.3553307
C 0.35837966 0.69736606 1.1957521
H -0.8119098 2.9197204 -0.009905206
H -2.341684 2.132824 -0.44751057
H -1.8988941 2.3253694 1.2628914
H -1.5278677 -0.018339995 0.48336756
H 0.14107484 -0.6726111 -2.5870028
H -0.10473276 -2.2020574 1.0168796
H 1.6059262 -2.395765 0.7576105
H 1.8865215 -0.44542634 2.0604334
H 0.608908 1.5960386 1.7531167
