22
title
C -0.8309073 2.609863 0.050113097
C -0.70542943 1.0793676 0.03659543
C -0.07313482 0.6148848 -1.287696
C -0.097175635 -0.902947 -1.5502065
C 0.8578985 -1.7205261 -0.71364933
C 0.9163116 -1.7274925 0.6177706
C 0.038538 -0.91913277 1.543244
C 0.040205203 0.6013682 1.2955029
H 0.15676871 3.0847669 0.00928405
H -1.406764 2.9702578 -0.8088484
H -1.3291914 2.9609914 0.9599107
H -1.7233641 0.66029763 0.079067096
H -0.61135 1.107571 -2.107688
H 0.9636959 0.9732978 -1.3405586
H -1.1254703 -1.2670299 -1.4020134
H 0.12562117 -1.0741581 -2.6086507
H 1.5476592 -2.3602688 -1.2600054
H 1.650976 -2.3725893 1.0949117
H -0.99895144 -1.2821125 1.4818648
H 0.3530827 -1.1012946 2.5762658
H 1.0778477 0.9596767 1.2610914
H -0.42389807 1.0852255 2.1645777
