20
title
C -1.3036908 2.3840497 0.14828971
C -0.8365804 0.92033863 0.123219974
C -0.3229029 0.5465415 -1.2833458
C -0.085487045 -0.92144054 -1.5274699
C 0.46708772 -1.8245511 -0.7188757
C 1.0678602 -1.67256 0.650581
C 0.9661326 -0.37988856 1.4116104
C 0.18276533 0.67945904 1.2150909
H -0.47181147 3.0644774 -0.068491824
H -2.0862367 2.562973 -0.59568363
H -1.7054962 2.652486 1.1306987
H -1.7130909 0.28735027 0.3232343
H -1.054521 0.9013788 -2.019449
H 0.5963071 1.1157777 -1.4820077
H -0.4129139 -1.2792413 -2.5020227
H 0.54355377 -2.8429284 -1.09858
H 0.6643241 -2.4718473 1.2954983
H 2.135518 -1.9358261 0.5698355
H 1.6222502 -0.34968403 2.2808106
H 0.27130112 1.4890954 1.9385617
