title
 OpenBabel02282109593D

 22 22  0  0  1  0  0  0  0  0999 V2000
   -0.8309    2.6099    0.0501 C   0  0  0  0  0  0  0  0  0  0  0  0
   -0.7054    1.0794    0.0366 C   0  0  1  0  0  0  0  0  0  0  0  0
   -0.0731    0.6149   -1.2877 C   0  0  0  0  0  0  0  0  0  0  0  0
   -0.0972   -0.9029   -1.5502 C   0  0  0  0  0  0  0  0  0  0  0  0
    0.8579   -1.7205   -0.7136 C   0  0  0  0  0  0  0  0  0  0  0  0
    0.9163   -1.7275    0.6178 C   0  0  0  0  0  0  0  0  0  0  0  0
    0.0385   -0.9191    1.5432 C   0  0  0  0  0  0  0  0  0  0  0  0
    0.0402    0.6014    1.2955 C   0  0  0  0  0  0  0  0  0  0  0  0
    0.1568    3.0848    0.0093 H   0  0  0  0  0  0  0  0  0  0  0  0
   -1.4068    2.9703   -0.8088 H   0  0  0  0  0  0  0  0  0  0  0  0
   -1.3292    2.9610    0.9599 H   0  0  0  0  0  0  0  0  0  0  0  0
   -1.7234    0.6603    0.0791 H   0  0  0  0  0  0  0  0  0  0  0  0
   -0.6113    1.1076   -2.1077 H   0  0  0  0  0  0  0  0  0  0  0  0
    0.9637    0.9733   -1.3406 H   0  0  0  0  0  0  0  0  0  0  0  0
   -1.1255   -1.2670   -1.4020 H   0  0  0  0  0  0  0  0  0  0  0  0
    0.1256   -1.0742   -2.6087 H   0  0  0  0  0  0  0  0  0  0  0  0
    1.5477   -2.3603   -1.2600 H   0  0  0  0  0  0  0  0  0  0  0  0
    1.6510   -2.3726    1.0949 H   0  0  0  0  0  0  0  0  0  0  0  0
   -0.9990   -1.2821    1.4819 H   0  0  0  0  0  0  0  0  0  0  0  0
    0.3531   -1.1013    2.5763 H   0  0  0  0  0  0  0  0  0  0  0  0
    1.0778    0.9597    1.2611 H   0  0  0  0  0  0  0  0  0  0  0  0
   -0.4239    1.0852    2.1646 H   0  0  0  0  0  0  0  0  0  0  0  0
  1 11  1  0  0  0  0
  2  1  1  0  0  0  0
  2 12  1  1  0  0  0
  2  8  1  0  0  0  0
  3  2  1  0  0  0  0
  4 15  1  0  0  0  0
  4  3  1  0  0  0  0
  4  5  1  0  0  0  0
  5  6  2  0  0  0  0
  6 18  1  0  0  0  0
  6  7  1  0  0  0  0
  7 20  1  0  0  0  0
  8  7  1  0  0  0  0
  8 22  1  0  0  0  0
  9  1  1  0  0  0  0
 10  1  1  0  0  0  0
 13  3  1  0  0  0  0
 14  3  1  0  0  0  0
 16  4  1  0  0  0  0
 17  5  1  0  0  0  0
 19  7  1  0  0  0  0
 21  8  1  0  0  0  0
M  END
