18
title
O 0.8177832 1.7347667 0.96504796
C 0.74404883 0.3159679 1.1264253
C -0.70612 -0.14823298 1.3378903
C -1.6305408 0.20974647 0.19983849
C -1.4799562 -0.15172653 -1.0737107
C -0.38477147 -1.0007058 -1.6672912
C 1.0134448 -0.9287896 -1.1098793
C 1.4855051 -0.39421794 0.01727823
H 0.38817605 1.9329394 0.12448672
H 1.2883388 0.12928943 2.0597541
H -0.7067791 -1.2335074 1.5062441
H -1.0702478 0.31493816 2.259688
H -2.5011501 0.808921 0.4555603
H -2.2449145 0.1555881 -1.7842667
H -0.71079457 -2.0560236 -1.6595037
H -0.31162035 -0.7646973 -2.7377687
H 1.7461017 -1.3893687 -1.772315
H 2.5628755 -0.43374565 0.16562888
