title
 OpenBabel02282109593D

 18 18  0  0  1  0  0  0  0  0999 V2000
   -1.0815    2.3169    0.0539 C   0  0  0  0  0  0  0  0  0  0  0  0
   -0.6588    0.8594    0.0298 C   0  0  1  0  0  0  0  0  0  0  0  0
    0.0592    0.6483   -1.1604 O   0  0  0  0  0  0  0  0  0  0  0  0
    0.1199   -0.6796   -1.6338 C   0  0  0  0  0  0  0  0  0  0  0  0
    0.6484   -1.7346   -0.7005 C   0  0  0  0  0  0  0  0  0  0  0  0
    0.6992   -1.7419    0.6301 C   0  0  0  0  0  0  0  0  0  0  0  0
    0.2437   -0.6973    1.6124 C   0  0  0  0  0  0  0  0  0  0  0  0
    0.1476    0.6356    1.1596 O   0  0  0  0  0  0  0  0  0  0  0  0
   -0.1902    2.9487    0.0231 H   0  0  0  0  0  0  0  0  0  0  0  0
   -1.7058    2.5431   -0.8134 H   0  0  0  0  0  0  0  0  0  0  0  0
   -1.6375    2.5335    0.9687 H   0  0  0  0  0  0  0  0  0  0  0  0
   -1.5372    0.1873    0.0596 H   0  0  0  0  0  0  0  0  0  0  0  0
   -0.8801   -1.0031   -1.9821 H   0  0  0  0  0  0  0  0  0  0  0  0
    0.7531   -0.6374   -2.5272 H   0  0  0  0  0  0  0  0  0  0  0  0
    0.9794   -2.6317   -1.2224 H   0  0  0  0  0  0  0  0  0  0  0  0
    1.0685   -2.6445    1.1155 H   0  0  0  0  0  0  0  0  0  0  0  0
   -0.7269   -1.0252    2.0324 H   0  0  0  0  0  0  0  0  0  0  0  0
    0.9432   -0.6646    2.4553 H   0  0  0  0  0  0  0  0  0  0  0  0
  1 11  1  0  0  0  0
  2  1  1  0  0  0  0
  2 12  1  1  0  0  0
  2  8  1  0  0  0  0
  3  2  1  0  0  0  0
  4  3  1  0  0  0  0
  4  5  1  0  0  0  0
  5  6  2  0  0  0  0
  6 16  1  0  0  0  0
  6  7  1  0  0  0  0
  7 17  1  0  0  0  0
  7 18  1  0  0  0  0
  8  7  1  0  0  0  0
  9  1  1  0  0  0  0
 10  1  1  0  0  0  0
 13  4  1  0  0  0  0
 14  4  1  0  0  0  0
 15  5  1  0  0  0  0
M  END
