title
 OpenBabel02282109593D

 19 19  0  0  1  0  0  0  0  0999 V2000
   -0.9422    2.5660    0.0318 C   0  0  0  0  0  0  0  0  0  0  0  0
   -0.7254    1.0462   -0.0051 C   0  0  1  0  0  0  0  0  0  0  0  0
   -0.0605    0.6098   -1.3142 C   0  0  0  0  0  0  0  0  0  0  0  0
   -0.0246   -0.9061   -1.5347 C   0  0  0  0  0  0  0  0  0  0  0  0
    0.7579   -1.7335   -0.6327 N   0  0  0  0  0  0  0  0  0  0  0  0
    0.7665   -1.6406    0.6229 C   0  0  0  0  0  0  0  0  0  0  0  0
    0.1773   -0.7676    1.4881 O   0  0  0  0  0  0  0  0  0  0  0  0
    0.1112    0.6325    1.2050 C   0  0  0  0  0  0  0  0  0  0  0  0
    0.0122    3.1031   -0.0224 H   0  0  0  0  0  0  0  0  0  0  0  0
   -1.5521    2.8923   -0.8157 H   0  0  0  0  0  0  0  0  0  0  0  0
   -1.4494    2.8780    0.9506 H   0  0  0  0  0  0  0  0  0  0  0  0
   -1.7025    0.5497    0.0788 H   0  0  0  0  0  0  0  0  0  0  0  0
   -0.5988    1.0527   -2.1617 H   0  0  0  0  0  0  0  0  0  0  0  0
    0.9625    1.0097   -1.3528 H   0  0  0  0  0  0  0  0  0  0  0  0
   -1.0574   -1.2877   -1.5174 H   0  0  0  0  0  0  0  0  0  0  0  0
    0.3483   -1.0995   -2.5465 H   0  0  0  0  0  0  0  0  0  0  0  0
    1.2877   -2.4056    1.2013 H   0  0  0  0  0  0  0  0  0  0  0  0
    1.1354    1.0164    1.0875 H   0  0  0  0  0  0  0  0  0  0  0  0
   -0.3065    1.0646    2.1185 H   0  0  0  0  0  0  0  0  0  0  0  0
  1 11  1  0  0  0  0
  2  1  1  0  0  0  0
  2 12  1  1  0  0  0
  2  8  1  0  0  0  0
  3  2  1  0  0  0  0
  4 15  1  0  0  0  0
  4  3  1  0  0  0  0
  4  5  1  0  0  0  0
  5  6  2  0  0  0  0
  6 17  1  0  0  0  0
  6  7  1  0  0  0  0
  8  7  1  0  0  0  0
  8 19  1  0  0  0  0
  9  1  1  0  0  0  0
 10  1  1  0  0  0  0
 13  3  1  0  0  0  0
 14  3  1  0  0  0  0
 16  4  1  0  0  0  0
 18  8  1  0  0  0  0
M  END
