title
 OpenBabel02282109593D

 19 19  0  0  1  0  0  0  0  0999 V2000
   -0.6585    2.5839   -0.1043 C   0  0  0  0  0  0  0  0  0  0  0  0
   -0.5978    1.0625   -0.1653 C   0  0  1  0  0  0  0  0  0  0  0  0
    0.2602    0.5501   -1.3194 C   0  0  0  0  0  0  0  0  0  0  0  0
    0.1462   -0.9582   -1.5345 C   0  0  0  0  0  0  0  0  0  0  0  0
    0.8022   -1.7927   -0.4304 C   0  0  0  0  0  0  0  0  0  0  0  0
    0.2746   -1.7082    0.9198 N   0  0  0  0  0  0  0  0  0  0  0  0
   -0.0634   -0.6523    1.5171 C   0  0  0  0  0  0  0  0  0  0  0  0
   -0.1341    0.6540    1.1367 O   0  0  0  0  0  0  0  0  0  0  0  0
    0.3470    3.0038   -0.0016 H   0  0  0  0  0  0  0  0  0  0  0  0
   -1.1107    2.9845   -1.0160 H   0  0  0  0  0  0  0  0  0  0  0  0
   -1.2542    2.9075    0.7526 H   0  0  0  0  0  0  0  0  0  0  0  0
   -1.6150    0.6600   -0.2861 H   0  0  0  0  0  0  0  0  0  0  0  0
   -0.0643    1.0746   -2.2262 H   0  0  0  0  0  0  0  0  0  0  0  0
    1.3056    0.8367   -1.1439 H   0  0  0  0  0  0  0  0  0  0  0  0
   -0.9121   -1.2378   -1.6230 H   0  0  0  0  0  0  0  0  0  0  0  0
    0.6209   -1.2311   -2.4847 H   0  0  0  0  0  0  0  0  0  0  0  0
    0.7669   -2.8484   -0.7213 H   0  0  0  0  0  0  0  0  0  0  0  0
    1.8706   -1.5301   -0.3813 H   0  0  0  0  0  0  0  0  0  0  0  0
   -0.3180   -0.7144    2.5770 H   0  0  0  0  0  0  0  0  0  0  0  0
  1  9  1  0  0  0  0
  1 11  1  0  0  0  0
  2 12  1  6  0  0  0
  2  1  1  0  0  0  0
  2  8  1  0  0  0  0
  3 14  1  0  0  0  0
  3  2  1  0  0  0  0
  4  3  1  0  0  0  0
  4  5  1  0  0  0  0
  5 18  1  0  0  0  0
  5  6  1  0  0  0  0
  6  7  2  0  0  0  0
  7 19  1  0  0  0  0
  8  7  1  0  0  0  0
 10  1  1  0  0  0  0
 13  3  1  0  0  0  0
 15  4  1  0  0  0  0
 16  4  1  0  0  0  0
 17  5  1  0  0  0  0
M  END
