title
 OpenBabel02282109593D

 22 22  0  0  1  0  0  0  0  0999 V2000
   -0.5527    2.6796   -0.0770 C   0  0  0  0  0  0  0  0  0  0  0  0
   -0.5515    1.1441   -0.0577 C   0  0  1  0  0  0  0  0  0  0  0  0
    0.1808    0.6060   -1.3003 C   0  0  0  0  0  0  0  0  0  0  0  0
    0.0914   -0.9040   -1.5571 C   0  0  0  0  0  0  0  0  0  0  0  0
    0.8083   -1.7926   -0.5239 C   0  0  0  0  0  0  0  0  0  0  0  0
    0.1437   -1.8613    0.8304 C   0  0  0  0  0  0  0  0  0  0  0  0
   -0.1828   -0.8199    1.5955 C   0  0  0  0  0  0  0  0  0  0  0  0
    0.0521    0.6369    1.2719 C   0  0  0  0  0  0  0  0  0  0  0  0
    0.4691    3.0739   -0.0181 H   0  0  0  0  0  0  0  0  0  0  0  0
   -1.0031    3.0655   -0.9975 H   0  0  0  0  0  0  0  0  0  0  0  0
   -1.1146    3.0890    0.7690 H   0  0  0  0  0  0  0  0  0  0  0  0
   -1.5946    0.8006   -0.1019 H   0  0  0  0  0  0  0  0  0  0  0  0
   -0.2170    1.1254   -2.1817 H   0  0  0  0  0  0  0  0  0  0  0  0
    1.2404    0.8967   -1.2356 H   0  0  0  0  0  0  0  0  0  0  0  0
   -0.9620   -1.2056   -1.6201 H   0  0  0  0  0  0  0  0  0  0  0  0
    0.5297   -1.1055   -2.5427 H   0  0  0  0  0  0  0  0  0  0  0  0
    0.8894   -2.8062   -0.9306 H   0  0  0  0  0  0  0  0  0  0  0  0
    1.8431   -1.4335   -0.4120 H   0  0  0  0  0  0  0  0  0  0  0  0
   -0.0780   -2.8583    1.2053 H   0  0  0  0  0  0  0  0  0  0  0  0
   -0.6548   -1.0223    2.5546 H   0  0  0  0  0  0  0  0  0  0  0  0
    1.1337    0.8454    1.2578 H   0  0  0  0  0  0  0  0  0  0  0  0
   -0.3530    1.2447    2.0884 H   0  0  0  0  0  0  0  0  0  0  0  0
  1  2  1  0  0  0  0
  1  9  1  0  0  0  0
  1 11  1  0  0  0  0
  2 12  1  6  0  0  0
  2  8  1  0  0  0  0
  3 14  1  0  0  0  0
  3  2  1  0  0  0  0
  4  3  1  0  0  0  0
  4  5  1  0  0  0  0
  5 18  1  0  0  0  0
  5  6  1  0  0  0  0
  6 19  1  0  0  0  0
  6  7  2  0  0  0  0
  7 20  1  0  0  0  0
  8  7  1  0  0  0  0
  8 22  1  0  0  0  0
 10  1  1  0  0  0  0
 13  3  1  0  0  0  0
 15  4  1  0  0  0  0
 16  4  1  0  0  0  0
 17  5  1  0  0  0  0
 21  8  1  0  0  0  0
M  END
