title
 OpenBabel02282109593D

 20 20  0  0  1  0  0  0  0  0999 V2000
    0.2650    2.4677   -0.6838 O   0  0  0  0  0  0  0  0  0  0  0  0
    0.3134    1.0445   -0.6088 C   0  0  1  0  0  0  0  0  0  0  0  0
    1.1453    0.5982    0.5997 C   0  0  0  0  0  0  0  0  0  0  0  0
    1.4002   -0.9183    0.6944 C   0  0  0  0  0  0  0  0  0  0  0  0
    0.2002   -1.7483    1.0842 C   0  0  0  0  0  0  0  0  0  0  0  0
   -0.9815   -1.7534    0.4672 C   0  0  0  0  0  0  0  0  0  0  0  0
   -1.3560   -0.9292   -0.7419 C   0  0  0  0  0  0  0  0  0  0  0  0
   -1.1457    0.5884   -0.5953 C   0  0  0  0  0  0  0  0  0  0  0  0
    1.1684    2.7979   -0.6458 H   0  0  0  0  0  0  0  0  0  0  0  0
    0.7899    0.6384   -1.5204 H   0  0  0  0  0  0  0  0  0  0  0  0
    2.1199    1.1034    0.5343 H   0  0  0  0  0  0  0  0  0  0  0  0
    0.6639    0.9578    1.5166 H   0  0  0  0  0  0  0  0  0  0  0  0
    1.7974   -1.2677   -0.2709 H   0  0  0  0  0  0  0  0  0  0  0  0
    2.2008   -1.0895    1.4207 H   0  0  0  0  0  0  0  0  0  0  0  0
    0.3306   -2.4009    1.9446 H   0  0  0  0  0  0  0  0  0  0  0  0
   -1.7562   -2.4107    0.8560 H   0  0  0  0  0  0  0  0  0  0  0  0
   -0.7939   -1.2809   -1.6204 H   0  0  0  0  0  0  0  0  0  0  0  0
   -2.4097   -1.1076   -0.9779 H   0  0  0  0  0  0  0  0  0  0  0  0
   -1.6205    0.9447    0.3262 H   0  0  0  0  0  0  0  0  0  0  0  0
   -1.6430    1.1004   -1.4264 H   0  0  0  0  0  0  0  0  0  0  0  0
  1  9  1  0  0  0  0
  1  2  1  0  0  0  0
  2 10  1  6  0  0  0
  2  8  1  0  0  0  0
  2  3  1  0  0  0  0
  3  4  1  0  0  0  0
  3 12  1  0  0  0  0
  4  5  1  0  0  0  0
  4 14  1  0  0  0  0
  5 15  1  0  0  0  0
  6 16  1  0  0  0  0
  6  5  2  0  0  0  0
  7  8  1  0  0  0  0
  7  6  1  0  0  0  0
  8 19  1  0  0  0  0
 11  3  1  0  0  0  0
 13  4  1  0  0  0  0
 17  7  1  0  0  0  0
 18  7  1  0  0  0  0
 20  8  1  0  0  0  0
M  END
