title
 OpenBabel02282109593D

 17 17  0  0  1  0  0  0  0  0999 V2000
    0.3594    2.4293    0.7517 O   0  0  0  0  0  0  0  0  0  0  0  0
    0.3395    1.0120    0.6291 C   0  0  1  0  0  0  0  0  0  0  0  0
   -1.1164    0.5794    0.7106 C   0  0  0  0  0  0  0  0  0  0  0  0
   -1.3057   -0.9387    0.7809 C   0  0  0  0  0  0  0  0  0  0  0  0
   -0.8999   -1.7582   -0.3493 N   0  0  0  0  0  0  0  0  0  0  0  0
    0.1802   -1.6532   -0.9864 C   0  0  0  0  0  0  0  0  0  0  0  0
    1.2158   -0.7659   -0.9082 O   0  0  0  0  0  0  0  0  0  0  0  0
    0.9743    0.6259   -0.7096 C   0  0  0  0  0  0  0  0  0  0  0  0
    1.2765    2.7181    0.8032 H   0  0  0  0  0  0  0  0  0  0  0  0
    0.9099    0.5358    1.4438 H   0  0  0  0  0  0  0  0  0  0  0  0
   -1.5596    1.0259    1.6074 H   0  0  0  0  0  0  0  0  0  0  0  0
   -1.6576    0.9891   -0.1514 H   0  0  0  0  0  0  0  0  0  0  0  0
   -0.7781   -1.3218    1.6679 H   0  0  0  0  0  0  0  0  0  0  0  0
   -2.3672   -1.1428    0.9547 H   0  0  0  0  0  0  0  0  0  0  0  0
    0.4293   -2.4128   -1.7292 H   0  0  0  0  0  0  0  0  0  0  0  0
    0.3460    1.0132   -1.5228 H   0  0  0  0  0  0  0  0  0  0  0  0
    1.9632    1.0880   -0.7951 H   0  0  0  0  0  0  0  0  0  0  0  0
  1  9  1  0  0  0  0
  2  3  1  0  0  0  0
  2  1  1  0  0  0  0
  2 10  1  1  0  0  0
  3  4  1  0  0  0  0
  3 11  1  0  0  0  0
  4 14  1  0  0  0  0
  4 13  1  0  0  0  0
  5  4  1  0  0  0  0
  6  7  1  0  0  0  0
  6  5  2  0  0  0  0
  7  8  1  0  0  0  0
  8  2  1  0  0  0  0
 12  3  1  0  0  0  0
 15  6  1  0  0  0  0
 16  8  1  0  0  0  0
 17  8  1  0  0  0  0
M  END
