title
 OpenBabel02282109593D

 20 20  0  0  1  0  0  0  0  0999 V2000
   -0.5495    2.6013    0.1677 C   0  0  0  0  0  0  0  0  0  0  0  0
   -0.5464    1.0785    0.0664 C   0  0  1  0  0  0  0  0  0  0  0  0
   -0.1086    0.6077   -1.3295 C   0  0  0  0  0  0  0  0  0  0  0  0
   -0.1779   -0.8760   -1.6016 C   0  0  0  0  0  0  0  0  0  0  0  0
    0.1885   -1.8754   -0.7977 C   0  0  0  0  0  0  0  0  0  0  0  0
    0.7620   -1.7702    0.5940 C   0  0  0  0  0  0  0  0  0  0  0  0
    0.1179   -0.7235    1.5069 C   0  0  0  0  0  0  0  0  0  0  0  0
    0.3189    0.6128    1.0940 O   0  0  0  0  0  0  0  0  0  0  0  0
    0.4549    2.9966   -0.0147 H   0  0  0  0  0  0  0  0  0  0  0  0
   -1.2334    3.0416   -0.5639 H   0  0  0  0  0  0  0  0  0  0  0  0
   -0.8600    2.9110    1.1687 H   0  0  0  0  0  0  0  0  0  0  0  0
   -1.5636    0.6979    0.2592 H   0  0  0  0  0  0  0  0  0  0  0  0
   -0.7275    1.1304   -2.0682 H   0  0  0  0  0  0  0  0  0  0  0  0
    0.9200    0.9640   -1.4918 H   0  0  0  0  0  0  0  0  0  0  0  0
   -0.5382   -1.1440   -2.5929 H   0  0  0  0  0  0  0  0  0  0  0  0
    0.1019   -2.8868   -1.1900 H   0  0  0  0  0  0  0  0  0  0  0  0
    0.6779   -2.7427    1.0946 H   0  0  0  0  0  0  0  0  0  0  0  0
    1.8390   -1.5546    0.5335 H   0  0  0  0  0  0  0  0  0  0  0  0
   -0.9595   -0.9324    1.6076 H   0  0  0  0  0  0  0  0  0  0  0  0
    0.5676   -0.7960    2.5036 H   0  0  0  0  0  0  0  0  0  0  0  0
  1 11  1  0  0  0  0
  2  1  1  0  0  0  0
  2 12  1  1  0  0  0
  2  8  1  0  0  0  0
  3  2  1  0  0  0  0
  4  3  1  0  0  0  0
  4  5  2  0  0  0  0
  5  6  1  0  0  0  0
  6 17  1  0  0  0  0
  6  7  1  0  0  0  0
  7 19  1  0  0  0  0
  7 20  1  0  0  0  0
  8  7  1  0  0  0  0
  9  1  1  0  0  0  0
 10  1  1  0  0  0  0
 13  3  1  0  0  0  0
 14  3  1  0  0  0  0
 15  4  1  0  0  0  0
 16  5  1  0  0  0  0
 18  6  1  0  0  0  0
M  END
