title
 OpenBabel02282109593D

 17 17  0  0  1  0  0  0  0  0999 V2000
   -0.5032    2.6194    0.1399 C   0  0  0  0  0  0  0  0  0  0  0  0
   -0.5463    1.0992    0.0553 C   0  0  1  0  0  0  0  0  0  0  0  0
   -0.0660    0.5887   -1.3070 C   0  0  0  0  0  0  0  0  0  0  0  0
   -0.0738   -0.8384   -1.5635 N   0  0  0  0  0  0  0  0  0  0  0  0
    0.2521   -1.7374   -0.7440 C   0  0  0  0  0  0  0  0  0  0  0  0
    0.5992   -1.6994    0.5744 O   0  0  0  0  0  0  0  0  0  0  0  0
    0.0286   -0.7219    1.4416 C   0  0  0  0  0  0  0  0  0  0  0  0
    0.2801    0.5940    1.1065 O   0  0  0  0  0  0  0  0  0  0  0  0
    0.5187    2.9818   -0.0072 H   0  0  0  0  0  0  0  0  0  0  0  0
   -1.1443    3.0671   -0.6246 H   0  0  0  0  0  0  0  0  0  0  0  0
   -0.8464    2.9541    1.1219 H   0  0  0  0  0  0  0  0  0  0  0  0
   -1.5767    0.7448    0.2238 H   0  0  0  0  0  0  0  0  0  0  0  0
   -0.6757    1.0663   -2.0830 H   0  0  0  0  0  0  0  0  0  0  0  0
    0.9632    0.9471   -1.4553 H   0  0  0  0  0  0  0  0  0  0  0  0
    0.3360   -2.7664   -1.0954 H   0  0  0  0  0  0  0  0  0  0  0  0
   -1.0565   -0.9096    1.4936 H   0  0  0  0  0  0  0  0  0  0  0  0
    0.4983   -0.9115    2.4081 H   0  0  0  0  0  0  0  0  0  0  0  0
  1 11  1  0  0  0  0
  2  1  1  0  0  0  0
  2 12  1  1  0  0  0
  2  8  1  0  0  0  0
  3  2  1  0  0  0  0
  4  3  1  0  0  0  0
  4  5  2  0  0  0  0
  5  6  1  0  0  0  0
  6  7  1  0  0  0  0
  7 16  1  0  0  0  0
  7 17  1  0  0  0  0
  8  7  1  0  0  0  0
  9  1  1  0  0  0  0
 10  1  1  0  0  0  0
 13  3  1  0  0  0  0
 14  3  1  0  0  0  0
 15  5  1  0  0  0  0
M  END
