17
title
C -0.50321853 2.6193943 0.13994484
C -0.5462514 1.099191 0.05528119
C -0.06598776 0.58870065 -1.3070476
N -0.07380565 -0.838364 -1.5634545
C 0.2520983 -1.7374192 -0.74398863
O 0.5991535 -1.6993636 0.57439244
C 0.02855591 -0.72188973 1.4416467
O 0.28014627 0.59402764 1.106461
H 0.51873434 2.9817944 -0.007222527
H -1.1442801 3.0671432 -0.62456244
H -0.846381 2.954086 1.1219052
H -1.5767384 0.7448257 0.22378491
H -0.67570525 1.0663437 -2.082985
H 0.96320367 0.9470722 -1.455279
H 0.33595565 -2.7663815 -1.0954121
H -1.0565097 -0.9096358 1.4936377
H 0.49829194 -0.91145015 2.4081302
