20
title
C -1.8158168 1.3727344 0.19216628
C -1.405771 -0.114458084 0.17862836
C -0.77425736 -0.50129706 -1.1652294
O 0.41795623 0.1919758 -1.481181
C 1.5834382 -0.3444276 -0.88724494
C 1.8013403 0.073005326 0.5680703
C 0.750865 -0.3605735 1.5619583
C -0.5707774 -0.4456284 1.396873
H -0.9406855 2.0075283 0.03140223
H -2.5396779 1.5834218 -0.6027771
H -2.2699492 1.6492997 1.148118
H -2.326027 -0.7125505 0.2452353
H -0.5946278 -1.5878065 -1.19006
H -1.4805012 -0.2591995 -1.9684241
H 1.5690775 -1.4442039 -0.9585352
H 2.42231 0.018844722 -1.4913943
H 2.7752306 -0.325844 0.87972164
H 1.9046946 1.167542 0.6044424
H 1.1359861 -0.5909767 2.5538332
H -1.154238 -0.73240083 2.2707186
