17
title
C -0.14395481 2.6854885 0.05310868
C -0.44756523 1.1833918 0.012295632
C 0.1329723 0.56270546 -1.2607678
O -0.24693882 -0.7946982 -1.4329906
C 0.473212 -1.674963 -0.6482746
O 0.07308375 -1.7464447 0.717881
C 0.1316868 -0.63817054 1.5108179
N -0.028548663 0.5883752 1.2744795
H 0.9368641 2.8608963 0.08002022
H -0.5561188 3.1983893 -0.8216484
H -0.5750541 3.126295 0.95420367
H -1.5381228 1.0477076 -0.044962082
H -0.2482389 1.0971684 -2.135724
H 1.2317097 0.6476295 -1.2549
H 0.30052483 -2.6801424 -1.0357332
H 1.547026 -1.4262764 -0.6729907
H 0.31367785 -0.95733744 2.5377913
