18
title
O 0.21641049 2.5268629 -0.35503423
C 0.30219126 1.1068275 -0.4377488
C 0.82596254 0.5246638 0.88152945
O 1.2850006 -0.80053174 0.72927487
C 0.30531612 -1.8073697 0.8570416
C -0.8005894 -1.8403156 -0.16848123
C -1.3666259 -0.84446275 -0.85092515
C -1.101326 0.63710344 -0.8099408
H 1.1085466 2.8749776 -0.25879756
H 1.0072575 0.7976583 -1.2247047
H 1.6934495 1.1142652 1.2047552
H 0.060373902 0.6023059 1.6704096
H 0.86023796 -2.7507553 0.8099991
H -0.14910044 -1.7633197 1.865378
H -1.2077205 -2.839593 -0.31783766
H -2.1859984 -1.1191711 -1.512743
H -1.7993171 1.1025993 -0.09659374
H -1.3520478 1.075798 -1.7820911
