title
 OpenBabel02282109593D

 17 17  0  0  1  0  0  0  0  0999 V2000
   -0.6404    2.5083   -0.1234 C   0  0  0  0  0  0  0  0  0  0  0  0
   -0.5972    0.9942   -0.1377 C   0  0  1  0  0  0  0  0  0  0  0  0
    0.2629    0.5799   -1.1471 O   0  0  0  0  0  0  0  0  0  0  0  0
    0.1242   -0.7882   -1.4987 C   0  0  0  0  0  0  0  0  0  0  0  0
    0.8107   -1.7175   -0.5038 C   0  0  0  0  0  0  0  0  0  0  0  0
    0.3238   -1.7346    0.8623 N   0  0  0  0  0  0  0  0  0  0  0  0
   -0.0456   -0.7210    1.5133 C   0  0  0  0  0  0  0  0  0  0  0  0
   -0.1884    0.5923    1.1782 O   0  0  0  0  0  0  0  0  0  0  0  0
    0.3680    2.9000    0.0306 H   0  0  0  0  0  0  0  0  0  0  0  0
   -1.0220    2.8750   -1.0787 H   0  0  0  0  0  0  0  0  0  0  0  0
   -1.2860    2.8596    0.6838 H   0  0  0  0  0  0  0  0  0  0  0  0
   -1.5959    0.5561   -0.3051 H   0  0  0  0  0  0  0  0  0  0  0  0
   -0.9429   -1.0451   -1.5882 H   0  0  0  0  0  0  0  0  0  0  0  0
    0.5876   -0.9017   -2.4839 H   0  0  0  0  0  0  0  0  0  0  0  0
    0.7507   -2.7401   -0.8966 H   0  0  0  0  0  0  0  0  0  0  0  0
    1.8786   -1.4581   -0.4737 H   0  0  0  0  0  0  0  0  0  0  0  0
   -0.2691   -0.8333    2.5750 H   0  0  0  0  0  0  0  0  0  0  0  0
  1  9  1  0  0  0  0
  1 11  1  0  0  0  0
  2 12  1  6  0  0  0
  2  1  1  0  0  0  0
  2  8  1  0  0  0  0
  3  2  1  0  0  0  0
  4  3  1  0  0  0  0
  4  5  1  0  0  0  0
  5 16  1  0  0  0  0
  5  6  1  0  0  0  0
  6  7  2  0  0  0  0
  7 17  1  0  0  0  0
  8  7  1  0  0  0  0
 10  1  1  0  0  0  0
 13  4  1  0  0  0  0
 14  4  1  0  0  0  0
 15  5  1  0  0  0  0
M  END
