20
title
C -0.06576952 2.665009 -0.032934215
C -0.38610685 1.1727624 0.015983354
O 0.21832645 0.60232776 -1.1370959
C -0.24510919 -0.6784701 -1.5123438
C 0.381041 -1.8181424 -0.70875263
C -0.10238533 -1.9261289 0.7441039
C 0.17435145 -0.73648125 1.6320416
C 0.055567652 0.55683225 1.3316972
H 1.015173 2.8209872 0.037833065
H -0.41614324 3.0952895 -0.97386605
H -0.54724824 3.1908712 0.79686844
H -1.4820349 1.046764 -0.071450375
H -1.3463994 -0.7225228 -1.4428563
H 0.020234227 -0.7899017 -2.569557
H 0.15831155 -2.7616723 -1.2238637
H 1.4692124 -1.6891422 -0.72782874
H -1.1865455 -2.1220632 0.7433115
H 0.3503713 -2.814552 1.1981086
H 0.47836024 -0.9811738 2.6482084
H 0.26646888 1.2779053 2.1195002
