20
title
C 0.07289536 2.7552028 0.0771966
C -0.419676 1.299034 0.0055560586
C 0.119643524 0.6206456 -1.2627506
C -0.27180004 -0.8432422 -1.4547021
O 0.5041684 -1.7195828 -0.6602676
C 0.055108864 -1.9036582 0.66152567
C 0.04538398 -0.70520455 1.5769945
C -0.14001213 0.58836955 1.3113111
H 1.1626278 2.7927306 0.18520491
H -0.19434585 3.306167 -0.830115
H -0.36569026 3.2813993 0.93120515
H -1.5182387 1.3377187 -0.09329094
H -0.23264018 1.1926923 -2.1312172
H 1.2155279 0.67128855 -1.2726357
H -1.3480473 -0.9939366 -1.263275
H -0.079492554 -1.1383762 -2.4921236
H -0.9596969 -2.3479805 0.65820235
H 0.7206602 -2.6642501 1.0850618
H 0.159496 -0.98069674 2.625211
H -0.14626132 1.2554691 2.1731515
