title
 OpenBabel02282109593D

 19 19  0  0  1  0  0  0  0  0999 V2000
   -0.1385    2.7101    0.0471 C   0  0  0  0  0  0  0  0  0  0  0  0
   -0.4150    1.2039   -0.0307 C   0  0  1  0  0  0  0  0  0  0  0  0
    0.1762    0.6042   -1.3160 C   0  0  0  0  0  0  0  0  0  0  0  0
   -0.2148   -0.8528   -1.5558 C   0  0  0  0  0  0  0  0  0  0  0  0
    0.4495   -1.8176   -0.5856 C   0  0  0  0  0  0  0  0  0  0  0  0
   -0.0032   -1.7545    0.7701 O   0  0  0  0  0  0  0  0  0  0  0  0
    0.1173   -0.6147    1.5070 C   0  0  0  0  0  0  0  0  0  0  0  0
    0.0044    0.6086    1.2331 N   0  0  0  0  0  0  0  0  0  0  0  0
    0.9397    2.8999    0.0816 H   0  0  0  0  0  0  0  0  0  0  0  0
   -0.5533    3.2338   -0.8201 H   0  0  0  0  0  0  0  0  0  0  0  0
   -0.5795    3.1275    0.9552 H   0  0  0  0  0  0  0  0  0  0  0  0
   -1.5074    1.0649   -0.0846 H   0  0  0  0  0  0  0  0  0  0  0  0
   -0.1631    1.2162   -2.1599 H   0  0  0  0  0  0  0  0  0  0  0  0
    1.2710    0.6944   -1.2856 H   0  0  0  0  0  0  0  0  0  0  0  0
   -1.3046   -0.9725   -1.5023 H   0  0  0  0  0  0  0  0  0  0  0  0
    0.0872   -1.1562   -2.5661 H   0  0  0  0  0  0  0  0  0  0  0  0
    0.2581   -2.8528   -0.8802 H   0  0  0  0  0  0  0  0  0  0  0  0
    1.5375   -1.6586   -0.5954 H   0  0  0  0  0  0  0  0  0  0  0  0
    0.3046   -0.9001    2.5441 H   0  0  0  0  0  0  0  0  0  0  0  0
  1  9  1  0  0  0  0
  1 11  1  0  0  0  0
  2 12  1  6  0  0  0
  2  1  1  0  0  0  0
  2  8  1  0  0  0  0
  3 14  1  0  0  0  0
  3  2  1  0  0  0  0
  4 15  1  0  0  0  0
  4  3  1  0  0  0  0
  4  5  1  0  0  0  0
  5  6  1  0  0  0  0
  6  7  1  0  0  0  0
  7 19  1  0  0  0  0
  8  7  2  0  0  0  0
 10  1  1  0  0  0  0
 13  3  1  0  0  0  0
 16  4  1  0  0  0  0
 17  5  1  0  0  0  0
 18  5  1  0  0  0  0
M  END
