title
 OpenBabel02282109593D

 17 17  0  0  1  0  0  0  0  0999 V2000
    0.0590    2.5481    0.4406 O   0  0  0  0  0  0  0  0  0  0  0  0
    0.1827    1.1326    0.5002 C   0  0  1  0  0  0  0  0  0  0  0  0
   -1.2255    0.5630    0.4075 C   0  0  0  0  0  0  0  0  0  0  0  0
   -1.2813   -0.9181    0.7421 C   0  0  0  0  0  0  0  0  0  0  0  0
   -0.7117   -1.8094   -0.2225 O   0  0  0  0  0  0  0  0  0  0  0  0
    0.5938   -1.7289   -0.5997 C   0  0  0  0  0  0  0  0  0  0  0  0
    1.3964   -0.7693   -0.7490 N   0  0  0  0  0  0  0  0  0  0  0  0
    1.0909    0.6417   -0.6366 C   0  0  0  0  0  0  0  0  0  0  0  0
    0.9427    2.9286    0.4779 H   0  0  0  0  0  0  0  0  0  0  0  0
    0.6221    0.8250    1.4651 H   0  0  0  0  0  0  0  0  0  0  0  0
   -1.8607    1.0940    1.1255 H   0  0  0  0  0  0  0  0  0  0  0  0
   -1.6406    0.7456   -0.5908 H   0  0  0  0  0  0  0  0  0  0  0  0
   -0.7933   -1.1003    1.7102 H   0  0  0  0  0  0  0  0  0  0  0  0
   -2.3193   -1.2486    0.8229 H   0  0  0  0  0  0  0  0  0  0  0  0
    0.9351   -2.7347   -0.8509 H   0  0  0  0  0  0  0  0  0  0  0  0
    0.6383    0.9744   -1.5824 H   0  0  0  0  0  0  0  0  0  0  0  0
    2.0492    1.1729   -0.5575 H   0  0  0  0  0  0  0  0  0  0  0  0
  1  9  1  0  0  0  0
  1  2  1  0  0  0  0
  2 10  1  1  0  0  0
  3  2  1  0  0  0  0
  3  4  1  0  0  0  0
  3 11  1  0  0  0  0
  4 14  1  0  0  0  0
  4 13  1  0  0  0  0
  5  4  1  0  0  0  0
  6  5  1  0  0  0  0
  7  8  1  0  0  0  0
  7  6  2  0  0  0  0
  8 17  1  0  0  0  0
  8  2  1  0  0  0  0
 12  3  1  0  0  0  0
 15  6  1  0  0  0  0
 16  8  1  0  0  0  0
M  END
