title
 OpenBabel02282109593D

 20 20  0  0  1  0  0  0  0  0999 V2000
   -1.8158    1.3727    0.1922 C   0  0  0  0  0  0  0  0  0  0  0  0
   -1.4058   -0.1145    0.1786 C   0  0  1  0  0  0  0  0  0  0  0  0
   -0.7743   -0.5013   -1.1652 C   0  0  0  0  0  0  0  0  0  0  0  0
    0.4180    0.1920   -1.4812 O   0  0  0  0  0  0  0  0  0  0  0  0
    1.5834   -0.3444   -0.8872 C   0  0  0  0  0  0  0  0  0  0  0  0
    1.8013    0.0730    0.5681 C   0  0  0  0  0  0  0  0  0  0  0  0
    0.7509   -0.3606    1.5620 C   0  0  0  0  0  0  0  0  0  0  0  0
   -0.5708   -0.4456    1.3969 C   0  0  0  0  0  0  0  0  0  0  0  0
   -0.9407    2.0075    0.0314 H   0  0  0  0  0  0  0  0  0  0  0  0
   -2.5397    1.5834   -0.6028 H   0  0  0  0  0  0  0  0  0  0  0  0
   -2.2699    1.6493    1.1481 H   0  0  0  0  0  0  0  0  0  0  0  0
   -2.3260   -0.7126    0.2452 H   0  0  0  0  0  0  0  0  0  0  0  0
   -0.5946   -1.5878   -1.1901 H   0  0  0  0  0  0  0  0  0  0  0  0
   -1.4805   -0.2592   -1.9684 H   0  0  0  0  0  0  0  0  0  0  0  0
    1.5691   -1.4442   -0.9585 H   0  0  0  0  0  0  0  0  0  0  0  0
    2.4223    0.0188   -1.4914 H   0  0  0  0  0  0  0  0  0  0  0  0
    2.7752   -0.3258    0.8797 H   0  0  0  0  0  0  0  0  0  0  0  0
    1.9047    1.1675    0.6044 H   0  0  0  0  0  0  0  0  0  0  0  0
    1.1360   -0.5910    2.5538 H   0  0  0  0  0  0  0  0  0  0  0  0
   -1.1542   -0.7324    2.2707 H   0  0  0  0  0  0  0  0  0  0  0  0
  1 11  1  0  0  0  0
  2  1  1  0  0  0  0
  2 12  1  1  0  0  0
  2  8  1  0  0  0  0
  3  2  1  0  0  0  0
  4  3  1  0  0  0  0
  4  5  1  0  0  0  0
  5  6  1  0  0  0  0
  6 18  1  0  0  0  0
  6 17  1  0  0  0  0
  6  7  1  0  0  0  0
  7 19  1  0  0  0  0
  8  7  2  0  0  0  0
  8 20  1  0  0  0  0
  9  1  1  0  0  0  0
 10  1  1  0  0  0  0
 13  3  1  0  0  0  0
 14  3  1  0  0  0  0
 15  5  1  0  0  0  0
 16  5  1  0  0  0  0
M  END
