18
title
C 0.15767512 2.650964 0.037500314
C -0.45331413 1.2493399 0.042767935
O 0.012370831 0.61690474 -1.141223
C -0.3776385 -0.708577 -1.3459945
O 0.48645607 -1.6297246 -0.7444002
C 0.23406336 -1.9146196 0.6150102
C 0.1135929 -0.7563687 1.5662318
C -0.16939607 0.52496606 1.3368508
H 1.2459941 2.5878448 0.12423156
H -0.08773226 3.159514 -0.89786935
H -0.22720203 3.2447827 0.8713568
H -1.5537508 1.3538339 -0.028625173
H -1.4194586 -0.8689634 -1.0129366
H -0.30029735 -0.8848881 -2.4220169
H -0.68563026 -2.5240154 0.7078718
H 1.0599202 -2.5605724 0.9339642
H 0.22071871 -1.0632561 2.6063614
H -0.27148896 1.1709461 2.2078507
