22
title
C -0.23180522 2.7075706 0.087229565
C -0.37068632 1.178597 0.03412758
C 0.2309168 0.6285368 -1.2738478
C -0.2549993 -0.76004195 -1.7301722
C -0.35127985 -1.8603216 -0.64747685
C 0.5634311 -1.7057167 0.5721303
O 0.049872577 -0.7906686 1.5250876
C 0.30355865 0.57535714 1.2800179
H 0.8216934 3.009512 0.040568184
H -0.7455786 3.1772056 -0.75716203
H -0.6547374 3.1196175 1.0093652
H -1.438939 0.9254381 0.078413
H 0.024139645 1.3341914 -2.0878441
H 1.3245548 0.62215793 -1.167244
H -1.2401848 -0.65451705 -2.1999843
H 0.41580606 -1.0958105 -2.5300808
H -1.3719711 -1.9128877 -0.25219452
H -0.15425773 -2.8343983 -1.1114719
H 0.6241884 -2.6648867 1.0979155
H 1.5895765 -1.4277579 0.27987385
H 1.3923097 0.7555776 1.2122172
H -0.05715683 1.092718 2.175803
