20
title
C 0.15057458 2.7026694 0.03590791
C -0.33240208 1.2586519 -0.030954156
C 0.17460687 0.52971464 -1.2872299
C -0.47039723 -0.84853446 -1.4979082
C 0.12127523 -1.9715244 -0.63249636
O 0.5339497 -1.5900525 0.67479074
C -0.27784705 -0.68891275 1.3748014
O 0.08997892 0.6488693 1.1858686
H 1.2444483 2.7393382 0.03918089
H -0.21464957 3.274407 -0.82220125
H -0.20855737 3.178792 0.951808
H -1.4374505 1.249492 -0.060255937
H -0.05936874 1.1639347 -2.1505244
H 1.266614 0.4457309 -1.235883
H -1.5497626 -0.7617767 -1.321609
H -0.36592555 -1.1580676 -2.544449
H -0.59576666 -2.8052168 -0.5730449
H 1.0309492 -2.361167 -1.1015968
H -1.3445524 -0.8394153 1.1321704
H -0.11219001 -0.88952875 2.436681
