title
 OpenBabel02282109593D

 24 24  0  0  0  0  0  0  0  0999 V2000
   -0.2646    2.7188    0.0684 C   0  0  0  0  0  0  0  0  0  0  0  0
   -0.3370    1.1842    0.0607 C   0  0  0  0  0  0  0  0  0  0  0  0
    0.3115    0.6259   -1.2251 C   0  0  0  0  0  0  0  0  0  0  0  0
   -0.2064   -0.7344   -1.7307 C   0  0  0  0  0  0  0  0  0  0  0  0
   -0.4791   -1.8175   -0.6675 C   0  0  0  0  0  0  0  0  0  0  0  0
    0.4934   -1.8564    0.5235 C   0  0  0  0  0  0  0  0  0  0  0  0
    0.1336   -0.8609    1.6391 C   0  0  0  0  0  0  0  0  0  0  0  0
    0.3416    0.6284    1.3293 C   0  0  0  0  0  0  0  0  0  0  0  0
    0.7774    3.0603    0.0363 H   0  0  0  0  0  0  0  0  0  0  0  0
   -0.7784    3.1456   -0.7994 H   0  0  0  0  0  0  0  0  0  0  0  0
   -0.7221    3.1378    0.9709 H   0  0  0  0  0  0  0  0  0  0  0  0
   -1.3998    0.9005    0.0760 H   0  0  0  0  0  0  0  0  0  0  0  0
    0.1823    1.3504   -2.0385 H   0  0  0  0  0  0  0  0  0  0  0  0
    1.3954    0.5679   -1.0578 H   0  0  0  0  0  0  0  0  0  0  0  0
   -1.1313   -0.5766   -2.2996 H   0  0  0  0  0  0  0  0  0  0  0  0
    0.5227   -1.1185   -2.4552 H   0  0  0  0  0  0  0  0  0  0  0  0
   -1.4944   -1.6929   -0.2691 H   0  0  0  0  0  0  0  0  0  0  0  0
   -0.4812   -2.7910   -1.1716 H   0  0  0  0  0  0  0  0  0  0  0  0
    0.4770   -2.8641    0.9556 H   0  0  0  0  0  0  0  0  0  0  0  0
    1.5248   -1.6925    0.1827 H   0  0  0  0  0  0  0  0  0  0  0  0
   -0.9179   -1.0260    1.9139 H   0  0  0  0  0  0  0  0  0  0  0  0
    0.7179   -1.1025    2.5360 H   0  0  0  0  0  0  0  0  0  0  0  0
    1.4193    0.8337    1.2500 H   0  0  0  0  0  0  0  0  0  0  0  0
   -0.0075    1.2022    2.1975 H   0  0  0  0  0  0  0  0  0  0  0  0
  1 11  1  0  0  0  0
  2  1  1  0  0  0  0
  2 12  1  0  0  0  0
  2  8  1  0  0  0  0
  3 14  1  0  0  0  0
  3  2  1  0  0  0  0
  4  3  1  0  0  0  0
  4  5  1  0  0  0  0
  5 17  1  0  0  0  0
  5  6  1  0  0  0  0
  6 19  1  0  0  0  0
  6  7  1  0  0  0  0
  7 21  1  0  0  0  0
  7 22  1  0  0  0  0
  8  7  1  0  0  0  0
  8 24  1  0  0  0  0
  9  1  1  0  0  0  0
 10  1  1  0  0  0  0
 13  3  1  0  0  0  0
 15  4  1  0  0  0  0
 16  4  1  0  0  0  0
 18  5  1  0  0  0  0
 20  6  1  0  0  0  0
 23  8  1  0  0  0  0
M  END
