title
 OpenBabel02282109593D

 20 20  0  0  1  0  0  0  0  0999 V2000
    0.1506    2.7027    0.0359 C   0  0  0  0  0  0  0  0  0  0  0  0
   -0.3324    1.2587   -0.0310 C   0  0  1  0  0  0  0  0  0  0  0  0
    0.1746    0.5297   -1.2872 C   0  0  0  0  0  0  0  0  0  0  0  0
   -0.4704   -0.8485   -1.4979 C   0  0  0  0  0  0  0  0  0  0  0  0
    0.1213   -1.9715   -0.6325 C   0  0  0  0  0  0  0  0  0  0  0  0
    0.5339   -1.5901    0.6748 O   0  0  0  0  0  0  0  0  0  0  0  0
   -0.2778   -0.6889    1.3748 C   0  0  0  0  0  0  0  0  0  0  0  0
    0.0900    0.6489    1.1859 O   0  0  0  0  0  0  0  0  0  0  0  0
    1.2444    2.7393    0.0392 H   0  0  0  0  0  0  0  0  0  0  0  0
   -0.2146    3.2744   -0.8222 H   0  0  0  0  0  0  0  0  0  0  0  0
   -0.2086    3.1788    0.9518 H   0  0  0  0  0  0  0  0  0  0  0  0
   -1.4375    1.2495   -0.0603 H   0  0  0  0  0  0  0  0  0  0  0  0
   -0.0594    1.1639   -2.1505 H   0  0  0  0  0  0  0  0  0  0  0  0
    1.2666    0.4457   -1.2359 H   0  0  0  0  0  0  0  0  0  0  0  0
   -1.5498   -0.7618   -1.3216 H   0  0  0  0  0  0  0  0  0  0  0  0
   -0.3659   -1.1581   -2.5444 H   0  0  0  0  0  0  0  0  0  0  0  0
   -0.5958   -2.8052   -0.5730 H   0  0  0  0  0  0  0  0  0  0  0  0
    1.0309   -2.3612   -1.1016 H   0  0  0  0  0  0  0  0  0  0  0  0
   -1.3446   -0.8394    1.1322 H   0  0  0  0  0  0  0  0  0  0  0  0
   -0.1122   -0.8895    2.4367 H   0  0  0  0  0  0  0  0  0  0  0  0
  1  9  1  0  0  0  0
  1 11  1  0  0  0  0
  2 12  1  6  0  0  0
  2  1  1  0  0  0  0
  2  8  1  0  0  0  0
  3 14  1  0  0  0  0
  3  2  1  0  0  0  0
  4 15  1  0  0  0  0
  4  3  1  0  0  0  0
  4  5  1  0  0  0  0
  5 17  1  0  0  0  0
  5  6  1  0  0  0  0
  6  7  1  0  0  0  0
  7 20  1  0  0  0  0
  8  7  1  0  0  0  0
 10  1  1  0  0  0  0
 13  3  1  0  0  0  0
 16  4  1  0  0  0  0
 18  5  1  0  0  0  0
 19  7  1  0  0  0  0
M  END
