title
 OpenBabel02282109593D

 18 18  0  0  1  0  0  0  0  0999 V2000
   -0.0909    2.6007   -0.0660 O   0  0  0  0  0  0  0  0  0  0  0  0
    0.1643    1.2414    0.2768 C   0  0  1  0  0  0  0  0  0  0  0  0
   -1.2051    0.5741    0.4120 C   0  0  0  0  0  0  0  0  0  0  0  0
   -1.1632   -0.8546    0.9517 C   0  0  0  0  0  0  0  0  0  0  0  0
   -0.6874   -1.8086    0.0220 O   0  0  0  0  0  0  0  0  0  0  0  0
    0.7158   -1.8604   -0.1365 C   0  0  0  0  0  0  0  0  0  0  0  0
    1.3455   -0.7064   -0.8865 C   0  0  0  0  0  0  0  0  0  0  0  0
    1.0963    0.5918   -0.7251 C   0  0  0  0  0  0  0  0  0  0  0  0
    0.7516    3.0647   -0.0995 H   0  0  0  0  0  0  0  0  0  0  0  0
    0.6523    1.1978    1.2694 H   0  0  0  0  0  0  0  0  0  0  0  0
   -1.8019    1.1910    1.0939 H   0  0  0  0  0  0  0  0  0  0  0  0
   -1.7067    0.5784   -0.5611 H   0  0  0  0  0  0  0  0  0  0  0  0
   -0.5666   -0.8970    1.8801 H   0  0  0  0  0  0  0  0  0  0  0  0
   -2.1796   -1.1737    1.2035 H   0  0  0  0  0  0  0  0  0  0  0  0
    1.2014   -1.9678    0.8516 H   0  0  0  0  0  0  0  0  0  0  0  0
    0.9085   -2.7882   -0.6839 H   0  0  0  0  0  0  0  0  0  0  0  0
    2.0937   -0.9940   -1.6221 H   0  0  0  0  0  0  0  0  0  0  0  0
    1.6375    1.3005   -1.3507 H   0  0  0  0  0  0  0  0  0  0  0  0
  1  2  1  0  0  0  0
  2  3  1  0  0  0  0
  2 10  1  1  0  0  0
  3  4  1  0  0  0  0
  3 11  1  0  0  0  0
  4 14  1  0  0  0  0
  4 13  1  0  0  0  0
  5  4  1  0  0  0  0
  6  5  1  0  0  0  0
  6 15  1  0  0  0  0
  7  8  2  0  0  0  0
  7  6  1  0  0  0  0
  8  2  1  0  0  0  0
  9  1  1  0  0  0  0
 12  3  1  0  0  0  0
 16  6  1  0  0  0  0
 17  7  1  0  0  0  0
 18  8  1  0  0  0  0
M  END
