title
 OpenBabel02282109593D

 18 18  0  0  1  0  0  0  0  0999 V2000
    0.1297    2.5437    0.2263 O   0  0  0  0  0  0  0  0  0  0  0  0
    0.2242    1.1264    0.3344 C   0  0  1  0  0  0  0  0  0  0  0  0
   -1.2139    0.6115    0.4229 C   0  0  0  0  0  0  0  0  0  0  0  0
   -1.3476   -0.8200    0.9599 C   0  0  0  0  0  0  0  0  0  0  0  0
   -0.3057   -1.7205    0.5939 O   0  0  0  0  0  0  0  0  0  0  0  0
    0.1759   -1.6618   -0.7185 C   0  0  0  0  0  0  0  0  0  0  0  0
    1.2729   -0.7972   -0.8592 O   0  0  0  0  0  0  0  0  0  0  0  0
    0.9592    0.5800   -0.9045 C   0  0  0  0  0  0  0  0  0  0  0  0
    1.0223    2.9042    0.2134 H   0  0  0  0  0  0  0  0  0  0  0  0
    0.7819    0.8340    1.2373 H   0  0  0  0  0  0  0  0  0  0  0  0
   -1.7759    1.2787    1.0847 H   0  0  0  0  0  0  0  0  0  0  0  0
   -1.6754    0.7053   -0.5669 H   0  0  0  0  0  0  0  0  0  0  0  0
   -1.3238   -0.8112    2.0541 H   0  0  0  0  0  0  0  0  0  0  0  0
   -2.3227   -1.2320    0.6589 H   0  0  0  0  0  0  0  0  0  0  0  0
    0.5591   -2.6579   -0.9531 H   0  0  0  0  0  0  0  0  0  0  0  0
   -0.6251   -1.3931   -1.4292 H   0  0  0  0  0  0  0  0  0  0  0  0
    0.3537    0.8191   -1.7946 H   0  0  0  0  0  0  0  0  0  0  0  0
    1.9218    1.0935   -1.0101 H   0  0  0  0  0  0  0  0  0  0  0  0
  1  2  1  0  0  0  0
  2  3  1  0  0  0  0
  2 10  1  1  0  0  0
  3  4  1  0  0  0  0
  3 11  1  0  0  0  0
  4 13  1  0  0  0  0
  5  4  1  0  0  0  0
  6  5  1  0  0  0  0
  7  6  1  0  0  0  0
  8  7  1  0  0  0  0
  8  2  1  0  0  0  0
  9  1  1  0  0  0  0
 12  3  1  0  0  0  0
 14  4  1  0  0  0  0
 15  6  1  0  0  0  0
 16  6  1  0  0  0  0
 17  8  1  0  0  0  0
 18  8  1  0  0  0  0
M  END
