20
title
O -0.23327187 2.5990767 -0.18031141
C 0.13856319 1.2921311 0.24852487
C -1.169776 0.5321784 0.4929694
C -0.9593475 -0.7946405 1.2383324
C -0.55720645 -1.9796349 0.34213793
O 0.2523142 -1.6536433 -0.77344793
C 1.38569 -0.84387845 -0.5161079
C 1.0764745 0.63378286 -0.77096087
H 0.56951267 3.0776613 -0.41026282
H 0.668082 1.3563664 1.2166852
H -1.8087957 1.1918552 1.0886977
H -1.6827354 0.36924863 -0.46171552
H -0.20958593 -0.6436022 2.0250962
H -1.8791313 -1.0815164 1.7606018
H -0.06841453 -2.7534668 0.9574168
H -1.4522107 -2.43257 -0.09761554
H 1.7714101 -1.0044531 0.50227827
H 2.167016 -1.1734236 -1.2105573
H 0.62030035 0.7164116 -1.7645458
H 2.0223198 1.1944603 -0.79946953
