title
 OpenBabel02282109593D

 22 22  0  0  0  0  0  0  0  0999 V2000
   -0.0694    2.5714   -0.1592 O   0  0  0  0  0  0  0  0  0  0  0  0
    0.1020    1.1592   -0.2900 C   0  0  0  0  0  0  0  0  0  0  0  0
    0.9157    0.6009    0.8902 C   0  0  0  0  0  0  0  0  0  0  0  0
    1.6206   -0.7519    0.6647 C   0  0  0  0  0  0  0  0  0  0  0  0
    0.8455   -1.8272   -0.1252 C   0  0  0  0  0  0  0  0  0  0  0  0
   -0.6728   -1.8875    0.1145 C   0  0  0  0  0  0  0  0  0  0  0  0
   -1.4656   -0.8785   -0.7332 C   0  0  0  0  0  0  0  0  0  0  0  0
   -1.3226    0.5988   -0.3487 C   0  0  0  0  0  0  0  0  0  0  0  0
    0.8016    2.9668   -0.0547 H   0  0  0  0  0  0  0  0  0  0  0  0
    0.6251    0.9361   -1.2367 H   0  0  0  0  0  0  0  0  0  0  0  0
    1.6856    1.3371    1.1574 H   0  0  0  0  0  0  0  0  0  0  0  0
    0.2503    0.5443    1.7603 H   0  0  0  0  0  0  0  0  0  0  0  0
    2.5747   -0.5781    0.1519 H   0  0  0  0  0  0  0  0  0  0  0  0
    1.8854   -1.1529    1.6505 H   0  0  0  0  0  0  0  0  0  0  0  0
    1.0107   -1.6807   -1.2005 H   0  0  0  0  0  0  0  0  0  0  0  0
    1.2925   -2.8003    0.1087 H   0  0  0  0  0  0  0  0  0  0  0  0
   -1.0259   -2.8933   -0.1418 H   0  0  0  0  0  0  0  0  0  0  0  0
   -0.8995   -1.7515    1.1808 H   0  0  0  0  0  0  0  0  0  0  0  0
   -1.1716   -1.0108   -1.7840 H   0  0  0  0  0  0  0  0  0  0  0  0
   -2.5315   -1.1320   -0.6873 H   0  0  0  0  0  0  0  0  0  0  0  0
   -1.7829    0.7749    0.6325 H   0  0  0  0  0  0  0  0  0  0  0  0
   -1.8844    1.2092   -1.0642 H   0  0  0  0  0  0  0  0  0  0  0  0
  1  9  1  0  0  0  0
  2  1  1  0  0  0  0
  2  3  1  0  0  0  0
  3 11  1  0  0  0  0
  3 12  1  0  0  0  0
  4  3  1  0  0  0  0
  4 14  1  0  0  0  0
  5 16  1  0  0  0  0
  5  6  1  0  0  0  0
  5  4  1  0  0  0  0
  6 18  1  0  0  0  0
  7 20  1  0  0  0  0
  7  8  1  0  0  0  0
  7  6  1  0  0  0  0
  8  2  1  0  0  0  0
  8 21  1  0  0  0  0
 10  2  1  0  0  0  0
 13  4  1  0  0  0  0
 15  5  1  0  0  0  0
 17  6  1  0  0  0  0
 19  7  1  0  0  0  0
 22  8  1  0  0  0  0
M  END
