18
title
O -0.23205498 2.5253162 0.27508947
C 0.05898324 1.236341 -0.25100353
C 1.0581117 0.49239594 0.6528038
O 1.555547 -0.6740032 0.03139853
C 0.79501694 -1.8601757 0.17060271
C -0.72776306 -1.6790799 0.21766922
O -1.2246277 -0.81046265 -0.7791491
C -1.3006333 0.540592 -0.37279138
H 0.558707 3.0680544 0.19911644
H 0.51387334 1.2986047 -1.2509212
H 1.926318 1.1431086 0.8168101
H 0.6149133 0.29501337 1.6405137
H 1.0646728 -2.4734254 -0.6955655
H 1.0941242 -2.4125485 1.0781368
H -1.1846194 -2.6633205 0.057631698
H -1.0484774 -1.3320576 1.2113924
H -1.8198372 0.62894356 0.5959165
H -1.9032451 1.0592571 -1.1231258
