title
 OpenBabel02282109593D

 20 20  0  0  0  0  0  0  0  0999 V2000
   -0.2456    2.5615    0.0376 C   0  0  0  0  0  0  0  0  0  0  0  0
   -0.3338    1.0463    0.0586 C   0  0  0  0  0  0  0  0  0  0  0  0
    0.2925    0.5622   -1.1068 O   0  0  0  0  0  0  0  0  0  0  0  0
   -0.1969   -0.6458   -1.6716 C   0  0  0  0  0  0  0  0  0  0  0  0
   -0.4463   -1.7898   -0.6727 C   0  0  0  0  0  0  0  0  0  0  0  0
    0.4981   -1.7837    0.5380 C   0  0  0  0  0  0  0  0  0  0  0  0
    0.1135   -0.7380    1.5923 C   0  0  0  0  0  0  0  0  0  0  0  0
    0.3334    0.6100    1.2186 O   0  0  0  0  0  0  0  0  0  0  0  0
    0.8054    2.8583   -0.0080 H   0  0  0  0  0  0  0  0  0  0  0  0
   -0.7622    2.9560   -0.8403 H   0  0  0  0  0  0  0  0  0  0  0  0
   -0.6932    2.9803    0.9417 H   0  0  0  0  0  0  0  0  0  0  0  0
   -1.3870    0.7120    0.0863 H   0  0  0  0  0  0  0  0  0  0  0  0
   -1.1153   -0.4527   -2.2481 H   0  0  0  0  0  0  0  0  0  0  0  0
    0.5771   -0.9401   -2.3879 H   0  0  0  0  0  0  0  0  0  0  0  0
   -1.4805   -1.7554   -0.3078 H   0  0  0  0  0  0  0  0  0  0  0  0
   -0.3559   -2.7340   -1.2226 H   0  0  0  0  0  0  0  0  0  0  0  0
    0.4595   -2.7651    1.0267 H   0  0  0  0  0  0  0  0  0  0  0  0
    1.5348   -1.6193    0.2236 H   0  0  0  0  0  0  0  0  0  0  0  0
   -0.9460   -0.8830    1.8682 H   0  0  0  0  0  0  0  0  0  0  0  0
    0.7109   -0.8826    2.4978 H   0  0  0  0  0  0  0  0  0  0  0  0
  1  2  1  0  0  0  0
  1 11  1  0  0  0  0
  2 12  1  0  0  0  0
  2  8  1  0  0  0  0
  3  2  1  0  0  0  0
  4  3  1  0  0  0  0
  4  5  1  0  0  0  0
  5 15  1  0  0  0  0
  5  6  1  0  0  0  0
  6 17  1  0  0  0  0
  6  7  1  0  0  0  0
  7 19  1  0  0  0  0
  7 20  1  0  0  0  0
  8  7  1  0  0  0  0
  9  1  1  0  0  0  0
 10  1  1  0  0  0  0
 13  4  1  0  0  0  0
 14  4  1  0  0  0  0
 16  5  1  0  0  0  0
 18  6  1  0  0  0  0
M  END
