20
title
O 0.032025944 2.555297 0.09234926
C 0.18292867 1.1506846 0.28842342
C -1.2332207 0.5906832 0.43108916
C -1.3507464 -0.7929651 1.0957918
C -0.3317698 -1.8730316 0.65943605
C 0.26619565 -1.7317729 -0.7446768
O 1.3249279 -0.7862348 -0.79345906
C 0.9399448 0.5629599 -0.91655564
H 0.9093191 2.9423616 0.0049579297
H 0.76087385 0.94632477 1.2049466
H -1.8115096 1.3128521 1.0164874
H -1.6927117 0.5756063 -0.56511843
H -1.2776854 -0.6740754 2.1829858
H -2.3670113 -1.1580734 0.90852135
H 0.5203467 -1.8873632 1.3484569
H -0.80394226 -2.859533 0.7396535
H 0.71982753 -2.6839771 -1.0391815
H -0.5034879 -1.4884307 -1.4948267
H 0.3233986 0.7219334 -1.8175739
H 1.8762566 1.1185526 -1.0547743
