22
title
O -0.069402225 2.5714211 -0.15918471
C 0.1019739 1.1592084 -0.28996316
C 0.9156887 0.6009043 0.8902057
C 1.6206175 -0.7518786 0.6647013
C 0.8454965 -1.8271605 -0.1251831
C -0.672791 -1.8875059 0.11453057
C -1.4655507 -0.8785174 -0.7332374
C -1.3226498 0.5987543 -0.34869352
H 0.8016227 2.9667726 -0.054732017
H 0.6250695 0.93608034 -1.2367147
H 1.685611 1.3371395 1.157403
H 0.2502673 0.5443106 1.7602578
H 2.5746508 -0.57807803 0.15191737
H 1.8853912 -1.1528605 1.650479
H 1.0106559 -1.6806957 -1.2005169
H 1.292538 -2.8002508 0.108725466
H -1.0259465 -2.893331 -0.14176832
H -0.8994762 -1.7515336 1.1807806
H -1.1715933 -1.0107626 -1.7839757
H -2.5314505 -1.1320242 -0.68734926
H -1.782861 0.774925 0.6324949
H -1.8844224 1.2091832 -1.0642078
