title
 OpenBabel02282109593D

 17 17  0  0  0  0  0  0  0  0999 V2000
    0.5448    2.5254    0.0459 C   0  0  0  0  0  0  0  0  0  0  0  0
    0.4338    1.0379    0.0086 C   0  0  0  0  0  0  0  0  0  0  0  0
   -0.6504    0.2491    0.0389 C   0  0  0  0  0  0  0  0  0  0  0  0
   -2.1020    0.5858    0.1194 C   0  0  0  0  0  0  0  0  0  0  0  0
   -0.2032   -1.1537   -0.0232 C   0  0  0  0  0  0  0  0  0  0  0  0
   -0.9499   -2.1773   -0.0161 N   0  0  0  0  0  0  0  0  0  0  0  0
    1.1681   -1.1775   -0.0908 O   0  0  0  0  0  0  0  0  0  0  0  0
    1.6567    0.1633   -0.0762 C   0  0  0  0  0  0  0  0  0  0  0  0
    1.1386    2.8556    0.9076 H   0  0  0  0  0  0  0  0  0  0  0  0
    1.0535    2.9059   -0.8489 H   0  0  0  0  0  0  0  0  0  0  0  0
   -0.4341    3.0054    0.1071 H   0  0  0  0  0  0  0  0  0  0  0  0
   -2.6367    0.1757   -0.7436 H   0  0  0  0  0  0  0  0  0  0  0  0
   -2.5514    0.1247    1.0051 H   0  0  0  0  0  0  0  0  0  0  0  0
   -2.2744    1.6638    0.1593 H   0  0  0  0  0  0  0  0  0  0  0  0
   -0.3925   -3.0309   -0.0678 H   0  0  0  0  0  0  0  0  0  0  0  0
    2.2437    0.3442   -0.9878 H   0  0  0  0  0  0  0  0  0  0  0  0
    2.3302    0.2934    0.7827 H   0  0  0  0  0  0  0  0  0  0  0  0
  1 11  1  0  0  0  0
  1  9  1  0  0  0  0
  2  3  2  0  0  0  0
  2  1  1  0  0  0  0
  3  4  1  0  0  0  0
  4 14  1  0  0  0  0
  4 13  1  0  0  0  0
  5  6  2  0  0  0  0
  5  3  1  0  0  0  0
  7  8  1  0  0  0  0
  7  5  1  0  0  0  0
  8  2  1  0  0  0  0
  8 17  1  0  0  0  0
 10  1  1  0  0  0  0
 12  4  1  0  0  0  0
 15  6  1  0  0  0  0
 16  8  1  0  0  0  0
M  END
