title
 OpenBabel02282109593D

 17 17  0  0  0  0  0  0  0  0999 V2000
    0.0153    2.1727    0.0150 C   0  0  0  0  0  0  0  0  0  0  0  0
   -0.0136    0.6760    0.0050 C   0  0  0  0  0  0  0  0  0  0  0  0
   -1.1010   -0.1381    0.0204 C   0  0  0  0  0  0  0  0  0  0  0  0
   -2.4081    0.2402    0.0917 N   0  0  0  0  0  0  0  0  0  0  0  0
   -0.7462   -1.6075    0.0064 C   0  0  0  0  0  0  0  0  0  0  0  0
    0.7919   -1.6167   -0.0270 C   0  0  0  0  0  0  0  0  0  0  0  0
    1.2016   -0.1320   -0.0283 C   0  0  0  0  0  0  0  0  0  0  0  0
    2.3482    0.2717   -0.0582 O   0  0  0  0  0  0  0  0  0  0  0  0
    1.0523    2.5043   -0.0859 H   0  0  0  0  0  0  0  0  0  0  0  0
   -0.5619    2.6084   -0.8115 H   0  0  0  0  0  0  0  0  0  0  0  0
   -0.3833    2.5918    0.9476 H   0  0  0  0  0  0  0  0  0  0  0  0
   -2.6412    1.2034   -0.0897 H   0  0  0  0  0  0  0  0  0  0  0  0
   -3.1186   -0.4271   -0.1603 H   0  0  0  0  0  0  0  0  0  0  0  0
   -1.1562   -2.1089    0.8914 H   0  0  0  0  0  0  0  0  0  0  0  0
   -1.1918   -2.1036   -0.8655 H   0  0  0  0  0  0  0  0  0  0  0  0
    1.2330   -2.1167    0.8399 H   0  0  0  0  0  0  0  0  0  0  0  0
    1.1964   -2.1081   -0.9164 H   0  0  0  0  0  0  0  0  0  0  0  0
  1 11  1  0  0  0  0
  2  1  1  0  0  0  0
  2  3  2  0  0  0  0
  3  4  1  0  0  0  0
  5  3  1  0  0  0  0
  5 14  1  0  0  0  0
  6  5  1  0  0  0  0
  6 16  1  0  0  0  0
  7  6  1  0  0  0  0
  7  2  1  0  0  0  0
  8  7  2  0  0  0  0
  9  1  1  0  0  0  0
 10  1  1  0  0  0  0
 12  4  1  0  0  0  0
 13  4  1  0  0  0  0
 15  5  1  0  0  0  0
 17  6  1  0  0  0  0
M  END
