18
title
C -0.12983799 2.483749 0.65336496
C -0.047224645 0.9983478 0.5151471
C -0.02759161 0.26889318 -0.61747664
C -0.080540694 0.7010903 -2.0476704
C 0.06177059 -1.1735612 -0.2870329
O 0.09835156 -2.0849378 -1.0845004
C 0.09958144 -1.30763 1.2399251
C 0.026797587 0.13663179 1.7607704
H 0.7385761 2.868782 1.203098
H -0.17841206 2.995728 -0.30961365
H -1.0141081 2.768087 1.238012
H 0.80682224 0.34928405 -2.5852573
H -0.94036615 0.24621421 -2.5516024
H -0.14663911 1.7855074 -2.159975
H -0.7373858 -1.9288715 1.5718505
H 1.0146123 -1.8281189 1.5373142
H 0.89961344 0.41173375 2.3666787
H -0.8473906 0.3112989 2.401006
