17
title
C 0.5520478 2.5238142 -0.21992856
C 0.45210785 1.0375949 -0.105562285
C -0.6321633 0.25804755 0.02381258
C -2.083048 0.5986549 0.09687206
C -0.20281447 -1.1752659 0.09873086
O -0.9082626 -2.1573179 0.2175677
N 1.1694419 -1.1554254 0.004724353
C 1.6996847 0.1784799 -0.12731992
H 1.15783 2.943822 0.59286517
H 1.0399376 2.8170102 -1.158018
H -0.42975783 3.0008209 -0.18836576
H -2.2634006 1.6740794 0.0314484
H -2.6331983 0.10265104 -0.7102195
H -2.5158887 0.22835557 1.032613
H 1.7205565 -1.9955724 0.029003024
H 2.261661 0.31541392 -1.0636983
H 2.3800175 0.44261637 0.69654524
