title
 OpenBabel02282109593D

 18 18  0  0  0  0  0  0  0  0999 V2000
   -0.1298    2.4837    0.6534 C   0  0  0  0  0  0  0  0  0  0  0  0
   -0.0472    0.9983    0.5151 C   0  0  0  0  0  0  0  0  0  0  0  0
   -0.0276    0.2689   -0.6175 C   0  0  0  0  0  0  0  0  0  0  0  0
   -0.0805    0.7011   -2.0477 C   0  0  0  0  0  0  0  0  0  0  0  0
    0.0618   -1.1736   -0.2870 C   0  0  0  0  0  0  0  0  0  0  0  0
    0.0984   -2.0849   -1.0845 O   0  0  0  0  0  0  0  0  0  0  0  0
    0.0996   -1.3076    1.2399 C   0  0  0  0  0  0  0  0  0  0  0  0
    0.0268    0.1366    1.7608 C   0  0  0  0  0  0  0  0  0  0  0  0
    0.7386    2.8688    1.2031 H   0  0  0  0  0  0  0  0  0  0  0  0
   -0.1784    2.9957   -0.3096 H   0  0  0  0  0  0  0  0  0  0  0  0
   -1.0141    2.7681    1.2380 H   0  0  0  0  0  0  0  0  0  0  0  0
    0.8068    0.3493   -2.5853 H   0  0  0  0  0  0  0  0  0  0  0  0
   -0.9404    0.2462   -2.5516 H   0  0  0  0  0  0  0  0  0  0  0  0
   -0.1466    1.7855   -2.1600 H   0  0  0  0  0  0  0  0  0  0  0  0
   -0.7374   -1.9289    1.5719 H   0  0  0  0  0  0  0  0  0  0  0  0
    1.0146   -1.8281    1.5373 H   0  0  0  0  0  0  0  0  0  0  0  0
    0.8996    0.4117    2.3667 H   0  0  0  0  0  0  0  0  0  0  0  0
   -0.8474    0.3113    2.4010 H   0  0  0  0  0  0  0  0  0  0  0  0
  1  9  1  0  0  0  0
  1 11  1  0  0  0  0
  2  1  1  0  0  0  0
  2  8  1  0  0  0  0
  3  5  1  0  0  0  0
  3  2  2  0  0  0  0
  4  3  1  0  0  0  0
  5  7  1  0  0  0  0
  6  5  2  0  0  0  0
  7 16  1  0  0  0  0
  7 15  1  0  0  0  0
  7  8  1  0  0  0  0
  8 17  1  0  0  0  0
  8 18  1  0  0  0  0
 10  1  1  0  0  0  0
 12  4  1  0  0  0  0
 13  4  1  0  0  0  0
 14  4  1  0  0  0  0
M  END
