14
title
C -0.09324377 2.5640032 -0.44591406
C -0.064180166 1.0722288 -0.49002025
C -0.11837029 0.24775514 -1.5595194
N -0.0024028546 -1.1019405 -1.2258657
C 0.03491388 -1.2370714 0.16305415
N 0.04759993 -2.275184 0.8895151
C 0.053126905 0.21405366 0.6981314
O 0.1487849 0.53058445 1.861009
H 0.8254766 2.9632704 -0.0019242938
H -0.20475805 2.9932437 -1.4455601
H -0.9208747 2.9211779 0.17646573
H -0.2116815 0.51892626 -2.603706
H -0.26837757 -1.847454 -1.8471204
H 0.027855748 -3.1330378 0.33114365
