title
 OpenBabel02282109593D

 16 16  0  0  0  0  0  0  0  0999 V2000
    0.5470    2.5268   -0.2538 C   0  0  0  0  0  0  0  0  0  0  0  0
    0.4327    1.0455   -0.1181 C   0  0  0  0  0  0  0  0  0  0  0  0
   -0.6499    0.2681    0.0179 C   0  0  0  0  0  0  0  0  0  0  0  0
   -2.1044    0.5952    0.0816 C   0  0  0  0  0  0  0  0  0  0  0  0
   -0.1997   -1.1444    0.1119 C   0  0  0  0  0  0  0  0  0  0  0  0
   -0.8571   -2.1398    0.2399 O   0  0  0  0  0  0  0  0  0  0  0  0
    1.1708   -1.1693    0.0273 O   0  0  0  0  0  0  0  0  0  0  0  0
    1.6525    0.1615   -0.1186 C   0  0  0  0  0  0  0  0  0  0  0  0
    1.1549    2.9494    0.5557 H   0  0  0  0  0  0  0  0  0  0  0  0
    1.0440    2.7977   -1.1935 H   0  0  0  0  0  0  0  0  0  0  0  0
   -0.4298    3.0145   -0.2342 H   0  0  0  0  0  0  0  0  0  0  0  0
   -2.2904    1.6685    0.0011 H   0  0  0  0  0  0  0  0  0  0  0  0
   -2.6471    0.0859   -0.7219 H   0  0  0  0  0  0  0  0  0  0  0  0
   -2.5370    0.2358    1.0214 H   0  0  0  0  0  0  0  0  0  0  0  0
    2.2242    0.2376   -1.0533 H   0  0  0  0  0  0  0  0  0  0  0  0
    2.3359    0.3905    0.7100 H   0  0  0  0  0  0  0  0  0  0  0  0
  1 11  1  0  0  0  0
  1  2  1  0  0  0  0
  1  9  1  0  0  0  0
  2  3  2  0  0  0  0
  3  4  1  0  0  0  0
  3  5  1  0  0  0  0
  4 14  1  0  0  0  0
  5  6  2  0  0  0  0
  7  5  1  0  0  0  0
  8  2  1  0  0  0  0
  8  7  1  0  0  0  0
  8 16  1  0  0  0  0
 10  1  1  0  0  0  0
 12  4  1  0  0  0  0
 13  4  1  0  0  0  0
 15  8  1  0  0  0  0
M  END
