title
 OpenBabel02282109593D

 17 17  0  0  0  0  0  0  0  0999 V2000
    0.5520    2.5238   -0.2199 C   0  0  0  0  0  0  0  0  0  0  0  0
    0.4521    1.0376   -0.1056 C   0  0  0  0  0  0  0  0  0  0  0  0
   -0.6322    0.2580    0.0238 C   0  0  0  0  0  0  0  0  0  0  0  0
   -2.0830    0.5987    0.0969 C   0  0  0  0  0  0  0  0  0  0  0  0
   -0.2028   -1.1753    0.0987 C   0  0  0  0  0  0  0  0  0  0  0  0
   -0.9083   -2.1573    0.2176 O   0  0  0  0  0  0  0  0  0  0  0  0
    1.1694   -1.1554    0.0047 N   0  0  0  0  0  0  0  0  0  0  0  0
    1.6997    0.1785   -0.1273 C   0  0  0  0  0  0  0  0  0  0  0  0
    1.1578    2.9438    0.5929 H   0  0  0  0  0  0  0  0  0  0  0  0
    1.0399    2.8170   -1.1580 H   0  0  0  0  0  0  0  0  0  0  0  0
   -0.4298    3.0008   -0.1884 H   0  0  0  0  0  0  0  0  0  0  0  0
   -2.2634    1.6741    0.0314 H   0  0  0  0  0  0  0  0  0  0  0  0
   -2.6332    0.1027   -0.7102 H   0  0  0  0  0  0  0  0  0  0  0  0
   -2.5159    0.2284    1.0326 H   0  0  0  0  0  0  0  0  0  0  0  0
    1.7206   -1.9956    0.0290 H   0  0  0  0  0  0  0  0  0  0  0  0
    2.2617    0.3154   -1.0637 H   0  0  0  0  0  0  0  0  0  0  0  0
    2.3800    0.4426    0.6965 H   0  0  0  0  0  0  0  0  0  0  0  0
  1 11  1  0  0  0  0
  1  2  1  0  0  0  0
  1  9  1  0  0  0  0
  2  3  2  0  0  0  0
  3  4  1  0  0  0  0
  3  5  1  0  0  0  0
  4 14  1  0  0  0  0
  5  6  2  0  0  0  0
  7 15  1  0  0  0  0
  7  5  1  0  0  0  0
  8  2  1  0  0  0  0
  8  7  1  0  0  0  0
  8 17  1  0  0  0  0
 10  1  1  0  0  0  0
 12  4  1  0  0  0  0
 13  4  1  0  0  0  0
 16  8  1  0  0  0  0
M  END
