16
title
C -0.0028746324 2.197756 -0.0015062704
C -0.042843882 0.7040599 -0.0034239735
C -1.1018834 -0.12854615 -0.027129065
N -2.449821 0.14672014 0.015591961
C -0.61091584 -1.5522531 -0.010742099
O 0.80679494 -1.4510027 0.008025424
C 1.1666363 -0.1143293 0.020671602
N 2.3652985 0.2984783 0.03851367
H 0.8679427 2.5461607 -0.5631936
H -0.902665 2.6328175 -0.4519158
H 0.08833393 2.6031437 1.0133517
H -2.7084208 1.1006753 -0.19195333
H -3.055763 -0.5221312 -0.43734133
H -0.95710665 -2.0988626 0.8769953
H -0.9267672 -2.1176815 -0.8997831
H 3.0161538 -0.4871042 0.03830916
