title
 OpenBabel02282109593D

 16 16  0  0  0  0  0  0  0  0999 V2000
   -0.0132    2.1845    0.0194 C   0  0  0  0  0  0  0  0  0  0  0  0
   -0.0496    0.6900   -0.0004 C   0  0  0  0  0  0  0  0  0  0  0  0
   -1.1078   -0.1458    0.0242 C   0  0  0  0  0  0  0  0  0  0  0  0
   -2.4474    0.1520    0.1193 N   0  0  0  0  0  0  0  0  0  0  0  0
   -0.6492   -1.5874    0.0108 C   0  0  0  0  0  0  0  0  0  0  0  0
    0.7816   -1.4530   -0.1469 N   0  0  0  0  0  0  0  0  0  0  0  0
    1.1848   -0.1238   -0.0342 C   0  0  0  0  0  0  0  0  0  0  0  0
    2.3379    0.2570    0.0121 O   0  0  0  0  0  0  0  0  0  0  0  0
    1.0270    2.5117   -0.0596 H   0  0  0  0  0  0  0  0  0  0  0  0
   -0.5731    2.6279   -0.8146 H   0  0  0  0  0  0  0  0  0  0  0  0
   -0.4270    2.5993    0.9469 H   0  0  0  0  0  0  0  0  0  0  0  0
   -2.7083    1.0959   -0.1250 H   0  0  0  0  0  0  0  0  0  0  0  0
   -3.0905   -0.5368   -0.2417 H   0  0  0  0  0  0  0  0  0  0  0  0
   -0.9313   -2.0939    0.9456 H   0  0  0  0  0  0  0  0  0  0  0  0
   -1.1089   -2.1480   -0.8171 H   0  0  0  0  0  0  0  0  0  0  0  0
    1.4196   -2.1835    0.1223 H   0  0  0  0  0  0  0  0  0  0  0  0
  1 11  1  0  0  0  0
  2  1  1  0  0  0  0
  2  3  2  0  0  0  0
  3  4  1  0  0  0  0
  5  3  1  0  0  0  0
  5 14  1  0  0  0  0
  6  7  1  0  0  0  0
  6  5  1  0  0  0  0
  6 16  1  0  0  0  0
  7  2  1  0  0  0  0
  7  8  2  0  0  0  0
  9  1  1  0  0  0  0
 10  1  1  0  0  0  0
 12  4  1  0  0  0  0
 13  4  1  0  0  0  0
 15  5  1  0  0  0  0
M  END
