title
 OpenBabel02282109593D

 16 16  0  0  0  0  0  0  0  0999 V2000
   -0.0029    2.1978   -0.0015 C   0  0  0  0  0  0  0  0  0  0  0  0
   -0.0428    0.7041   -0.0034 C   0  0  0  0  0  0  0  0  0  0  0  0
   -1.1019   -0.1285   -0.0271 C   0  0  0  0  0  0  0  0  0  0  0  0
   -2.4498    0.1467    0.0156 N   0  0  0  0  0  0  0  0  0  0  0  0
   -0.6109   -1.5523   -0.0107 C   0  0  0  0  0  0  0  0  0  0  0  0
    0.8068   -1.4510    0.0080 O   0  0  0  0  0  0  0  0  0  0  0  0
    1.1666   -0.1143    0.0207 C   0  0  0  0  0  0  0  0  0  0  0  0
    2.3653    0.2985    0.0385 N   0  0  0  0  0  0  0  0  0  0  0  0
    0.8679    2.5462   -0.5632 H   0  0  0  0  0  0  0  0  0  0  0  0
   -0.9027    2.6328   -0.4519 H   0  0  0  0  0  0  0  0  0  0  0  0
    0.0883    2.6031    1.0134 H   0  0  0  0  0  0  0  0  0  0  0  0
   -2.7084    1.1007   -0.1920 H   0  0  0  0  0  0  0  0  0  0  0  0
   -3.0558   -0.5221   -0.4373 H   0  0  0  0  0  0  0  0  0  0  0  0
   -0.9571   -2.0989    0.8770 H   0  0  0  0  0  0  0  0  0  0  0  0
   -0.9268   -2.1177   -0.8998 H   0  0  0  0  0  0  0  0  0  0  0  0
    3.0162   -0.4871    0.0383 H   0  0  0  0  0  0  0  0  0  0  0  0
  1 11  1  0  0  0  0
  2  1  1  0  0  0  0
  2  7  1  0  0  0  0
  3  5  1  0  0  0  0
  3  2  2  0  0  0  0
  3  4  1  0  0  0  0
  5  6  1  0  0  0  0
  5 14  1  0  0  0  0
  6  7  1  0  0  0  0
  7  8  2  0  0  0  0
  9  1  1  0  0  0  0
 10  1  1  0  0  0  0
 12  4  1  0  0  0  0
 13  4  1  0  0  0  0
 15  5  1  0  0  0  0
 16  8  1  0  0  0  0
M  END
