title
 OpenBabel02282109593D

 14 14  0  0  0  0  0  0  0  0999 V2000
   -0.0932    2.5640   -0.4459 C   0  0  0  0  0  0  0  0  0  0  0  0
   -0.0642    1.0722   -0.4900 C   0  0  0  0  0  0  0  0  0  0  0  0
   -0.1184    0.2478   -1.5595 C   0  0  0  0  0  0  0  0  0  0  0  0
   -0.0024   -1.1019   -1.2259 N   0  0  0  0  0  0  0  0  0  0  0  0
    0.0349   -1.2371    0.1631 C   0  0  0  0  0  0  0  0  0  0  0  0
    0.0476   -2.2752    0.8895 N   0  0  0  0  0  0  0  0  0  0  0  0
    0.0531    0.2141    0.6981 C   0  0  0  0  0  0  0  0  0  0  0  0
    0.1488    0.5306    1.8610 O   0  0  0  0  0  0  0  0  0  0  0  0
    0.8255    2.9633   -0.0019 H   0  0  0  0  0  0  0  0  0  0  0  0
   -0.2048    2.9932   -1.4456 H   0  0  0  0  0  0  0  0  0  0  0  0
   -0.9209    2.9212    0.1765 H   0  0  0  0  0  0  0  0  0  0  0  0
   -0.2117    0.5189   -2.6037 H   0  0  0  0  0  0  0  0  0  0  0  0
   -0.2684   -1.8475   -1.8471 H   0  0  0  0  0  0  0  0  0  0  0  0
    0.0279   -3.1330    0.3311 H   0  0  0  0  0  0  0  0  0  0  0  0
  1  9  1  0  0  0  0
  1 11  1  0  0  0  0
  2  1  1  0  0  0  0
  2  7  1  0  0  0  0
  3  4  1  0  0  0  0
  3  2  2  0  0  0  0
  4  5  1  0  0  0  0
  5  7  1  0  0  0  0
  5  6  2  0  0  0  0
  7  8  2  0  0  0  0
 10  1  1  0  0  0  0
 12  3  1  0  0  0  0
 13  4  1  0  0  0  0
 14  6  1  0  0  0  0
M  END
