15
title
C -0.14569347 2.586668 -0.42716777
C -0.18417375 1.0975802 -0.484865
C -0.29350805 0.30257484 -1.5545005
N -0.32103446 -1.0701071 -1.2034109
C -0.108594306 -1.2131177 0.14643297
O 0.13630265 -2.2264879 0.7625053
C -0.1790475 0.21029535 0.7394066
O 0.8946228 0.444114 1.6239899
H 0.7569635 2.930104 0.09091112
H -0.15521528 3.0251875 -1.4291693
H -1.0014305 2.9916582 0.1282269
H -0.38573432 0.5771424 -2.5963273
H -0.1697043 -1.8265494 -1.8518924
H -1.1476026 0.30456337 1.2664487
H 1.0562743 -0.3985782 2.07072
