12
title
O 0.5756705 1.5952308 -0.95840496
C 0.4035138 0.24127479 -0.67257845
C 0.96851236 -0.18164395 0.6865983
O 1.9615694 0.29001835 1.1873282
C 0.03136729 -1.1793453 1.2665303
C -1.1152508 -1.1892002 0.56613064
C -1.0633258 -0.21204479 -0.56748843
O -1.9881362 0.13836472 -1.2514796
H 1.380765 1.8677142 -0.4960614
H 0.87362933 -0.409021 -1.4357615
H 0.26676294 -1.7564428 2.1525786
H -1.999714 -1.7821646 0.7668443
