title
 OpenBabel02282109593D

 16 16  0  0  1  0  0  0  0  0999 V2000
   -0.1343    2.5161   -0.4846 C   0  0  0  0  0  0  0  0  0  0  0  0
   -0.2259    1.0275   -0.5444 C   0  0  0  0  0  0  0  0  0  0  0  0
   -0.3004    0.2457   -1.6284 C   0  0  0  0  0  0  0  0  0  0  0  0
   -0.3527   -1.2298   -1.3084 C   0  0  0  0  0  0  0  0  0  0  0  0
   -0.0230   -1.2157    0.1827 C   0  0  0  0  0  0  0  0  0  0  0  0
    0.4820   -2.0867    0.8436 O   0  0  0  0  0  0  0  0  0  0  0  0
   -0.2887    0.1981    0.7207 C   0  0  1  0  0  0  0  0  0  0  0  0
    0.6377    0.5654    1.7154 O   0  0  0  0  0  0  0  0  0  0  0  0
    0.7413    2.8171    0.1009 H   0  0  0  0  0  0  0  0  0  0  0  0
   -0.0599    2.9554   -1.4829 H   0  0  0  0  0  0  0  0  0  0  0  0
   -1.0094    2.9463    0.0190 H   0  0  0  0  0  0  0  0  0  0  0  0
   -0.3219    0.6164   -2.6476 H   0  0  0  0  0  0  0  0  0  0  0  0
   -1.3459   -1.6735   -1.4709 H   0  0  0  0  0  0  0  0  0  0  0  0
    0.3614   -1.8488   -1.8623 H   0  0  0  0  0  0  0  0  0  0  0  0
   -1.3174    0.2253    1.1319 H   0  0  0  0  0  0  0  0  0  0  0  0
    0.9673   -0.2660    2.0862 H   0  0  0  0  0  0  0  0  0  0  0  0
  1 11  1  0  0  0  0
  1  9  1  0  0  0  0
  2  1  1  0  0  0  0
  2  7  1  0  0  0  0
  3  4  1  0  0  0  0
  3  2  2  0  0  0  0
  4  5  1  0  0  0  0
  5  7  1  0  0  0  0
  5  6  2  0  0  0  0
  7 15  1  1  0  0  0
  7  8  1  0  0  0  0
  8 16  1  0  0  0  0
 10  1  1  0  0  0  0
 12  3  1  0  0  0  0
 13  4  1  0  0  0  0
 14  4  1  0  0  0  0
M  END
