17
title
C -0.026544813 2.048872 -0.06513182
N -0.008520791 0.6017917 -0.046678767
C -0.029083405 -0.18544777 -1.194169
N -0.06581698 0.30155683 -2.3693461
C 0.0025453102 -1.6107613 -0.6458835
N 0.039471198 -1.4939228 0.8138834
C 0.030949209 -0.2374974 1.0694561
C 0.060046103 0.3411126 2.445515
H 0.87127125 2.4681582 0.40180784
H -0.05774947 2.3533778 -1.112519
H -0.90849644 2.4465811 0.44857243
H -0.07513294 -0.44009662 -3.0669274
H -0.8803026 -2.1766562 -0.96676004
H 0.88072276 -2.1553996 -1.013013
H 0.08890463 -0.47317767 3.1691222
H 0.9385812 0.9799066 2.5874143
H -0.82505023 0.9585332 2.6337016
