13
title
C -0.023462385 2.059391 0.0050733257
N -0.0066288756 0.6105452 0.0015658997
C 0.087130085 -0.1755175 -1.145967
O 0.16630864 0.23990533 -2.2764728
C 0.067762114 -1.6019914 -0.6713334
C -0.03089192 -1.6082842 0.65767187
C -0.08291673 -0.18738955 1.1449422
O -0.1718976 0.21068352 2.2809026
H 0.89523774 2.457161 -0.43435898
H -0.87510645 2.4368348 -0.5672651
H -0.10511684 2.382145 1.0437945
H 0.12829489 -2.430817 -1.3619548
H -0.07245534 -2.443268 1.3422585
