14
title
C -0.050472096 2.0502481 0.011494559
N -0.023256173 0.60267043 0.003223543
C -1.1506307 -0.21074621 0.005926191
N -2.3361423 0.2569474 0.015790649
C -0.6469884 -1.6106902 -0.004663144
C 0.6877752 -1.5886642 -0.012665864
C 1.1428459 -0.15966545 -0.008143881
O 2.2733526 0.27058634 -0.0124967545
H 0.98512775 2.3928175 0.004091292
H -0.5758038 2.4314272 -0.86849326
H -0.5597285 2.4219203 0.90494174
H -3.0165184 -0.50265634 0.01589854
H -1.3093054 -2.46574 -0.0051086443
H 1.3874946 -2.4115455 -0.021252226
