title
 OpenBabel02282109593D

 14 14  0  0  1  0  0  0  0  0999 V2000
   -0.5195    2.3188    0.1386 N   0  0  0  0  0  0  0  0  0  0  0  0
   -0.5580    0.9583    0.2130 C   0  0  2  0  0  0  0  0  0  0  0  0
   -1.6335    0.2563    0.2752 N   0  0  0  0  0  0  0  0  0  0  0  0
   -1.2809   -1.1646    0.3391 C   0  0  0  0  0  0  0  0  0  0  0  0
    0.2089   -1.2134    0.0034 C   0  0  0  0  0  0  0  0  0  0  0  0
    0.8609   -2.0774   -0.5223 O   0  0  0  0  0  0  0  0  0  0  0  0
    0.7431    0.1882    0.3115 C   0  0  1  0  0  0  0  0  0  0  0  0
    1.7648    0.6125   -0.5520 O   0  0  0  0  0  0  0  0  0  0  0  0
    0.3179    2.7092   -0.2666 H   0  0  0  0  0  0  0  0  0  0  0  0
   -1.3827    2.7683   -0.1300 H   0  0  0  0  0  0  0  0  0  0  0  0
   -1.4628   -1.5894    1.3377 H   0  0  0  0  0  0  0  0  0  0  0  0
   -1.8660   -1.7602   -0.3699 H   0  0  0  0  0  0  0  0  0  0  0  0
    1.0860    0.2042    1.3625 H   0  0  0  0  0  0  0  0  0  0  0  0
    2.1178   -0.1903   -0.9636 H   0  0  0  0  0  0  0  0  0  0  0  0
  1  2  1  0  0  0  0
  2  3  1  0  0  0  0
  2  7  1  1  0  0  0
  3  4  1  0  0  0  0
  4 11  1  0  0  0  0
  5  7  1  0  0  0  0
  5  4  1  0  0  0  0
  6  5  2  0  0  0  0
  7 13  1  1  0  0  0
  8  7  1  0  0  0  0
  9  1  1  0  0  0  0
 10  1  1  0  0  0  0
 12  4  1  0  0  0  0
 14  8  1  0  0  0  0
M  RAD  2   2   2   3   2
M  END
