14
title
N -0.5194534 2.3188062 0.13862957
C -0.5579961 0.9583285 0.21301968
N -1.633495 0.25633353 0.275154
C -1.2808539 -1.164631 0.33909747
C 0.20890011 -1.2134424 0.003441805
O 0.8608897 -2.0773766 -0.5222674
C 0.74305296 0.18818404 0.3114703
O 1.7647895 0.61249715 -0.5520195
H 0.3179224 2.7092426 -0.26655325
H -1.3827437 2.768281 -0.13002862
H -1.4628257 -1.5894159 1.3376648
H -1.8659718 -1.7601966 -0.36992085
H 1.0860018 0.20419396 1.362454
H 2.1177616 -0.19033329 -0.96361583
