16
title
C -1.3931224 1.6365091 0.012533579
C -0.80384463 0.23294602 -0.008371111
C 0.08496254 -0.11454372 -1.201871
O 0.0295155 0.39678282 -2.289259
C 1.0853599 -1.2006379 -0.7791127
C 1.0579196 -1.2359847 0.7618197
C 0.044507734 -0.16742194 1.1979009
O -0.04697091 0.2964411 2.3039775
H -0.5989314 2.3875883 0.04305906
H -1.9884033 1.8119951 -0.886002
H -2.0194895 1.7724851 0.8966667
H -1.6149487 -0.5175938 -0.03861696
H 0.7755942 -2.150451 -1.2282152
H 2.0663443 -0.9630529 -1.1980343
H 0.73026687 -2.2043862 1.155144
H 2.0236185 -1.0214577 1.2261533
