15
title
C -0.087041214 2.0678017 0.020482177
N -0.052295648 0.6213396 -0.00052089844
C -1.1722162 -0.18236452 0.02791495
N -2.3564613 0.27614412 0.0818477
C -0.6572276 -1.6216322 -0.025070982
N 0.7778182 -1.4415065 0.067809545
C 1.1406401 -0.11458438 -0.030732136
O 2.256362 0.3415423 -0.112149835
H 0.94442374 2.418007 -0.02849377
H -0.65610564 2.4462993 -0.83303386
H -0.5657956 2.4262843 0.93634295
H -3.0388122 -0.4805439 0.0924755
H -1.06192 -2.2089431 0.80687773
H -0.96905607 -2.098575 -0.9637129
H 1.4422034 -2.1419132 -0.21453702
