title
 OpenBabel02282109593D

 15 15  0  0  1  0  0  0  0  0999 V2000
   -1.0314    1.8508   -0.0150 C   0  0  0  0  0  0  0  0  0  0  0  0
   -0.7713    0.3444   -0.0273 C   0  0  1  0  0  0  0  0  0  0  0  0
    0.0353   -0.1613   -1.2172 C   0  0  0  0  0  0  0  0  0  0  0  0
   -0.0747    0.1760   -2.3648 O   0  0  0  0  0  0  0  0  0  0  0  0
    1.0649   -1.1812   -0.7004 C   0  0  0  0  0  0  0  0  0  0  0  0
    0.9495   -1.0533    0.7363 N   0  0  0  0  0  0  0  0  0  0  0  0
   -0.0013   -0.1758    1.1917 C   0  0  0  0  0  0  0  0  0  0  0  0
   -0.1922    0.1205    2.3494 O   0  0  0  0  0  0  0  0  0  0  0  0
   -0.0916    2.4105   -0.0154 H   0  0  0  0  0  0  0  0  0  0  0  0
   -1.6024    2.1428   -0.8989 H   0  0  0  0  0  0  0  0  0  0  0  0
   -1.5871    2.1207    0.8853 H   0  0  0  0  0  0  0  0  0  0  0  0
   -1.7332   -0.1895   -0.0446 H   0  0  0  0  0  0  0  0  0  0  0  0
    0.8114   -2.1853   -1.0674 H   0  0  0  0  0  0  0  0  0  0  0  0
    2.0615   -0.9276   -1.0813 H   0  0  0  0  0  0  0  0  0  0  0  0
    1.5694   -1.5061    1.3895 H   0  0  0  0  0  0  0  0  0  0  0  0
  1 11  1  0  0  0  0
  2 12  1  6  0  0  0
  2  1  1  0  0  0  0
  2  7  1  0  0  0  0
  3  5  1  0  0  0  0
  3  2  1  0  0  0  0
  4  3  2  0  0  0  0
  5  6  1  0  0  0  0
  6  7  1  0  0  0  0
  6 15  1  0  0  0  0
  7  8  2  0  0  0  0
  9  1  1  0  0  0  0
 10  1  1  0  0  0  0
 13  5  1  0  0  0  0
 14  5  1  0  0  0  0
M  END
