15
title
C -1.0782607 1.8452362 -0.016816212
C -0.78512114 0.34484112 0.018016456
C -0.016663365 -0.19628629 -1.1667172
N -0.22420429 0.10648593 -2.371428
O 0.95012975 -1.0819901 -0.7507698
C 1.0556548 -1.1302211 0.67103225
C 0.04451836 -0.11715731 1.2086501
O -0.05154168 0.23667718 2.3521845
H -0.15107547 2.4208694 -0.0838136
H -1.6897165 2.0843356 -0.88849247
H -1.6034582 2.1421 0.89393187
H -1.7355986 -0.2070896 0.0766931
H 0.4256153 -0.38518494 -2.987587
H 0.82664263 -2.1398396 1.0326203
H 2.073385 -0.87208694 0.98215884
