title
 OpenBabel02282109593D

 14 14  0  0  1  0  0  0  0  0999 V2000
   -1.0506    1.8643   -0.0180 C   0  0  0  0  0  0  0  0  0  0  0  0
   -0.7766    0.3606   -0.0430 C   0  0  1  0  0  0  0  0  0  0  0  0
    0.0411   -0.1425   -1.2203 C   0  0  0  0  0  0  0  0  0  0  0  0
   -0.0269    0.2023   -2.3684 O   0  0  0  0  0  0  0  0  0  0  0  0
    1.0121   -1.1819   -0.6578 C   0  0  0  0  0  0  0  0  0  0  0  0
    0.9309   -1.0757    0.7650 O   0  0  0  0  0  0  0  0  0  0  0  0
   -0.0133   -0.1700    1.1651 C   0  0  0  0  0  0  0  0  0  0  0  0
   -0.1671    0.1141    2.3146 O   0  0  0  0  0  0  0  0  0  0  0  0
   -0.1160    2.4313    0.0091 H   0  0  0  0  0  0  0  0  0  0  0  0
   -1.6018    2.1567   -0.9142 H   0  0  0  0  0  0  0  0  0  0  0  0
   -1.6324    2.1225    0.8688 H   0  0  0  0  0  0  0  0  0  0  0  0
   -1.7319   -0.1860   -0.0676 H   0  0  0  0  0  0  0  0  0  0  0  0
    0.7290   -2.1927   -0.9738 H   0  0  0  0  0  0  0  0  0  0  0  0
    2.0372   -0.9870   -0.9867 H   0  0  0  0  0  0  0  0  0  0  0  0
  1  9  1  0  0  0  0
  1 11  1  0  0  0  0
  2 12  1  6  0  0  0
  2  1  1  0  0  0  0
  2  7  1  0  0  0  0
  3  5  1  0  0  0  0
  3  2  1  0  0  0  0
  4  3  2  0  0  0  0
  5  6  1  0  0  0  0
  6  7  1  0  0  0  0
  7  8  2  0  0  0  0
 10  1  1  0  0  0  0
 13  5  1  0  0  0  0
 14  5  1  0  0  0  0
M  END
