title
 OpenBabel02282109593D

 15 15  0  0  0  0  0  0  0  0999 V2000
   -0.0362    2.0686    0.0217 C   0  0  0  0  0  0  0  0  0  0  0  0
   -0.0112    0.6199    0.0179 N   0  0  0  0  0  0  0  0  0  0  0  0
    0.0375   -0.1390   -1.1563 C   0  0  0  0  0  0  0  0  0  0  0  0
   -0.0185    0.3985   -2.3071 N   0  0  0  0  0  0  0  0  0  0  0  0
    0.1807   -1.4669   -0.7643 N   0  0  0  0  0  0  0  0  0  0  0  0
   -0.0112   -1.6083    0.6702 C   0  0  0  0  0  0  0  0  0  0  0  0
   -0.0355   -0.1570    1.1549 C   0  0  0  0  0  0  0  0  0  0  0  0
   -0.0722    0.2336    2.2971 O   0  0  0  0  0  0  0  0  0  0  0  0
    0.8485    2.4637   -0.4835 H   0  0  0  0  0  0  0  0  0  0  0  0
   -0.9227    2.4350   -0.5017 H   0  0  0  0  0  0  0  0  0  0  0  0
   -0.0524    2.3884    1.0641 H   0  0  0  0  0  0  0  0  0  0  0  0
    0.0495   -0.2992   -3.0454 H   0  0  0  0  0  0  0  0  0  0  0  0
   -0.1794   -2.1710   -1.3878 H   0  0  0  0  0  0  0  0  0  0  0  0
   -0.9572   -2.0946    0.9411 H   0  0  0  0  0  0  0  0  0  0  0  0
    0.8033   -2.1535    1.1580 H   0  0  0  0  0  0  0  0  0  0  0  0
  1 11  1  0  0  0  0
  2  1  1  0  0  0  0
  2  7  1  0  0  0  0
  3  5  1  0  0  0  0
  3  2  1  0  0  0  0
  4  3  2  0  0  0  0
  5  6  1  0  0  0  0
  6 14  1  0  0  0  0
  6  7  1  0  0  0  0
  6 15  1  0  0  0  0
  7  8  2  0  0  0  0
  9  1  1  0  0  0  0
 10  1  1  0  0  0  0
 12  4  1  0  0  0  0
 13  5  1  0  0  0  0
M  END
