title
 OpenBabel02282109593D

 14 14  0  0  0  0  0  0  0  0999 V2000
   -0.0737    2.0744    0.0295 C   0  0  0  0  0  0  0  0  0  0  0  0
   -0.0446    0.6255    0.0131 N   0  0  0  0  0  0  0  0  0  0  0  0
   -1.1634   -0.1758    0.0540 C   0  0  0  0  0  0  0  0  0  0  0  0
   -2.3103    0.1946    0.1143 O   0  0  0  0  0  0  0  0  0  0  0  0
   -0.6502   -1.6201    0.0029 C   0  0  0  0  0  0  0  0  0  0  0  0
    0.7850   -1.4382    0.0167 N   0  0  0  0  0  0  0  0  0  0  0  0
    1.1534   -0.1193   -0.0570 C   0  0  0  0  0  0  0  0  0  0  0  0
    2.2644    0.3427   -0.1534 O   0  0  0  0  0  0  0  0  0  0  0  0
    0.9530    2.4215   -0.0903 H   0  0  0  0  0  0  0  0  0  0  0  0
   -0.6959    2.4490   -0.7871 H   0  0  0  0  0  0  0  0  0  0  0  0
   -0.4831    2.4412    0.9748 H   0  0  0  0  0  0  0  0  0  0  0  0
   -1.0231   -2.1794    0.8677 H   0  0  0  0  0  0  0  0  0  0  0  0
   -1.0199   -2.1082   -0.9070 H   0  0  0  0  0  0  0  0  0  0  0  0
    1.4553   -2.1543   -0.2038 H   0  0  0  0  0  0  0  0  0  0  0  0
  1 11  1  0  0  0  0
  2  1  1  0  0  0  0
  2  3  1  0  0  0  0
  3  4  2  0  0  0  0
  5  6  1  0  0  0  0
  5  3  1  0  0  0  0
  5 12  1  0  0  0  0
  7  2  1  0  0  0  0
  7  6  1  0  0  0  0
  8  7  2  0  0  0  0
  9  1  1  0  0  0  0
 10  1  1  0  0  0  0
 13  5  1  0  0  0  0
 14  6  1  0  0  0  0
M  END
