14
title
C -0.029276181 2.086567 0.041347433
N -0.008943069 0.6369028 0.03392069
C 0.030349249 -0.120147906 -1.1325302
N 0.052900165 0.37191924 -2.292771
O 0.03956306 -1.4436157 -0.79652405
C 0.005390868 -1.5792806 0.6264158
C -0.027279476 -0.15232316 1.1614408
O -0.061528374 0.21233174 2.3107538
H 0.86469024 2.4793959 -0.4487476
H -0.9080913 2.4547522 -0.49327585
H -0.059866007 2.4031355 1.0846009
H 0.080268815 -0.3636624 -2.9957185
H -0.8865094 -2.1354694 0.9307284
H 0.89535254 -2.1115897 0.9757872
