14
title
C -0.09317019 2.0809045 0.0127233565
N -0.060968667 0.6316245 0.003944842
C -1.1799176 -0.17406987 0.006703803
N -2.367615 0.27233255 0.017196704
C -0.621271 -1.5880393 -0.0053358776
O 0.79907936 -1.4300169 -0.013546389
C 1.117707 -0.10368852 -0.007750867
O 2.2375972 0.31682214 -0.012772143
H 0.9388064 2.4316113 0.0054264595
H -0.62630093 2.4511728 -0.86682254
H -0.6100951 2.4411087 0.9060508
H -3.0455365 -0.48879012 0.017158955
H -0.921033 -2.1507504 0.8844869
H -0.9325173 -2.1400776 -0.89790183
