title
 OpenBabel02282109593D

 13 13  0  0  0  0  0  0  0  0999 V2000
   -0.0827    2.0888    0.0119 C   0  0  0  0  0  0  0  0  0  0  0  0
   -0.0536    0.6373    0.0039 N   0  0  0  0  0  0  0  0  0  0  0  0
   -1.1714   -0.1692    0.0066 C   0  0  0  0  0  0  0  0  0  0  0  0
   -2.3221    0.1866    0.0158 O   0  0  0  0  0  0  0  0  0  0  0  0
   -0.6126   -1.5864   -0.0047 C   0  0  0  0  0  0  0  0  0  0  0  0
    0.8089   -1.4271   -0.0129 O   0  0  0  0  0  0  0  0  0  0  0  0
    1.1297   -0.1065   -0.0078 C   0  0  0  0  0  0  0  0  0  0  0  0
    2.2464    0.3186   -0.0127 O   0  0  0  0  0  0  0  0  0  0  0  0
    0.9497    2.4380    0.0029 H   0  0  0  0  0  0  0  0  0  0  0  0
   -0.6129    2.4600   -0.8685 H   0  0  0  0  0  0  0  0  0  0  0  0
   -0.5939    2.4510    0.9072 H   0  0  0  0  0  0  0  0  0  0  0  0
   -0.9208   -2.1420    0.8855 H   0  0  0  0  0  0  0  0  0  0  0  0
   -0.9321   -2.1322   -0.8971 H   0  0  0  0  0  0  0  0  0  0  0  0
  1 11  1  0  0  0  0
  2  3  1  0  0  0  0
  2  1  1  0  0  0  0
  3  4  2  0  0  0  0
  5  3  1  0  0  0  0
  5 12  1  0  0  0  0
  6  7  1  0  0  0  0
  6  5  1  0  0  0  0
  7  2  1  0  0  0  0
  8  7  2  0  0  0  0
  9  1  1  0  0  0  0
 10  1  1  0  0  0  0
 13  5  1  0  0  0  0
M  END
