15
title
C -0.03620279 2.068586 0.02169846
N -0.011213598 0.6198834 0.017859323
C 0.0374639 -0.13904421 -1.156339
N -0.018479662 0.3985208 -2.3071413
N 0.1807163 -1.4669236 -0.76430136
C -0.011240159 -1.6083218 0.6701983
C -0.035481878 -0.15702032 1.1548823
O -0.07223209 0.2335717 2.2971396
H 0.84853554 2.463725 -0.4834735
H -0.9227183 2.4350448 -0.50170815
H -0.052417006 2.3883545 1.064133
H 0.049537543 -0.29923508 -3.0454056
H -0.1794374 -2.1709654 -1.387847
H -0.95722663 -2.0946426 0.9410948
H 0.80330217 -2.153536 1.157974
