title
 OpenBabel02282109593D

 14 14  0  0  0  0  0  0  0  0999 V2000
   -0.0293    2.0866    0.0413 C   0  0  0  0  0  0  0  0  0  0  0  0
   -0.0089    0.6369    0.0339 N   0  0  0  0  0  0  0  0  0  0  0  0
    0.0303   -0.1201   -1.1325 C   0  0  0  0  0  0  0  0  0  0  0  0
    0.0529    0.3719   -2.2928 N   0  0  0  0  0  0  0  0  0  0  0  0
    0.0396   -1.4436   -0.7965 O   0  0  0  0  0  0  0  0  0  0  0  0
    0.0054   -1.5793    0.6264 C   0  0  0  0  0  0  0  0  0  0  0  0
   -0.0273   -0.1523    1.1614 C   0  0  0  0  0  0  0  0  0  0  0  0
   -0.0615    0.2123    2.3108 O   0  0  0  0  0  0  0  0  0  0  0  0
    0.8647    2.4794   -0.4487 H   0  0  0  0  0  0  0  0  0  0  0  0
   -0.9081    2.4548   -0.4933 H   0  0  0  0  0  0  0  0  0  0  0  0
   -0.0599    2.4031    1.0846 H   0  0  0  0  0  0  0  0  0  0  0  0
    0.0803   -0.3637   -2.9957 H   0  0  0  0  0  0  0  0  0  0  0  0
   -0.8865   -2.1355    0.9307 H   0  0  0  0  0  0  0  0  0  0  0  0
    0.8954   -2.1116    0.9758 H   0  0  0  0  0  0  0  0  0  0  0  0
  1 11  1  0  0  0  0
  2  1  1  0  0  0  0
  2  7  1  0  0  0  0
  3  5  1  0  0  0  0
  3  2  1  0  0  0  0
  4  3  2  0  0  0  0
  5  6  1  0  0  0  0
  6 13  1  0  0  0  0
  6 14  1  0  0  0  0
  6  7  1  0  0  0  0
  7  8  2  0  0  0  0
  9  1  1  0  0  0  0
 10  1  1  0  0  0  0
 12  4  1  0  0  0  0
M  END
