title
 OpenBabel02282109593D

 13 13  0  0  0  0  0  0  0  0999 V2000
   -0.0240    2.4472   -0.4596 C   0  0  0  0  0  0  0  0  0  0  0  0
   -0.0031    0.9993   -0.4662 N   0  0  0  0  0  0  0  0  0  0  0  0
    0.0428    0.1807   -1.5896 C   0  0  0  0  0  0  0  0  0  0  0  0
    0.0559   -1.1419   -1.3080 C   0  0  0  0  0  0  0  0  0  0  0  0
    0.0152   -1.2739    0.1462 C   0  0  0  0  0  0  0  0  0  0  0  0
    0.0105   -2.2426    0.8644 O   0  0  0  0  0  0  0  0  0  0  0  0
   -0.0238    0.2091    0.6797 C   0  0  0  0  0  0  0  0  0  0  0  0
   -0.0615    0.6005    1.8161 O   0  0  0  0  0  0  0  0  0  0  0  0
    0.8787    2.8608   -0.9216 H   0  0  0  0  0  0  0  0  0  0  0  0
   -0.9035    2.8346   -0.9847 H   0  0  0  0  0  0  0  0  0  0  0  0
   -0.0655    2.7616    0.5847 H   0  0  0  0  0  0  0  0  0  0  0  0
    0.0639    0.6517   -2.5647 H   0  0  0  0  0  0  0  0  0  0  0  0
    0.0899   -1.9516   -2.0187 H   0  0  0  0  0  0  0  0  0  0  0  0
  1 11  1  0  0  0  0
  2  1  1  0  0  0  0
  2  7  1  0  0  0  0
  3  4  2  0  0  0  0
  3  2  1  0  0  0  0
  4  5  1  0  0  0  0
  5  7  1  0  0  0  0
  5  6  2  0  0  0  0
  7  8  2  0  0  0  0
  9  1  1  0  0  0  0
 10  1  1  0  0  0  0
 12  3  1  0  0  0  0
 13  4  1  0  0  0  0
M  END
