13
title
C -0.024014974 2.447218 -0.4595977
N -0.0030602815 0.99934167 -0.4661928
C 0.042787235 0.18067011 -1.5896047
C 0.055948682 -1.1418837 -1.3080225
C 0.015203346 -1.2739166 0.14617394
O 0.010528751 -2.2425842 0.8644366
C -0.023770235 0.20909068 0.6797427
O -0.061517473 0.6005473 1.8160886
H 0.8787203 2.860753 -0.92155904
H -0.9034517 2.8346424 -0.9846798
H -0.065464884 2.7616072 0.58468413
H 0.06389478 0.6516866 -2.5647469
H 0.08985068 -1.9515513 -2.0186746
