title
 OpenBabel02282109593D

 12 12  0  0  1  0  0  0  0  0999 V2000
    1.2402    1.8603   -0.7057 O   0  0  0  0  0  0  0  0  0  0  0  0
    1.0203    0.4788   -0.5621 C   0  0  1  0  0  0  0  0  0  0  0  0
    1.4574   -0.0475    0.7830 C   0  0  0  0  0  0  0  0  0  0  0  0
    0.5577   -0.8629    1.3592 C   0  0  0  0  0  0  0  0  0  0  0  0
   -0.6867   -0.9284    0.5667 C   0  0  0  0  0  0  0  0  0  0  0  0
   -1.6760   -1.5952    0.7349 O   0  0  0  0  0  0  0  0  0  0  0  0
   -0.4681    0.1055   -0.5709 C   0  0  0  0  0  0  0  0  0  0  0  0
   -1.3026    0.6185   -1.2646 O   0  0  0  0  0  0  0  0  0  0  0  0
    0.5495    2.1885   -1.2973 H   0  0  0  0  0  0  0  0  0  0  0  0
    1.5291   -0.0890   -1.3627 H   0  0  0  0  0  0  0  0  0  0  0  0
    2.4255    0.2150    1.1954 H   0  0  0  0  0  0  0  0  0  0  0  0
    0.6795   -1.3906    2.2966 H   0  0  0  0  0  0  0  0  0  0  0  0
  1  2  1  0  0  0  0
  2 10  1  6  0  0  0
  2  3  1  0  0  0  0
  3 11  1  0  0  0  0
  3  4  2  0  0  0  0
  4 12  1  0  0  0  0
  5  6  2  0  0  0  0
  5  4  1  0  0  0  0
  7  2  1  0  0  0  0
  7  5  1  0  0  0  0
  8  7  2  0  0  0  0
  9  1  1  0  0  0  0
M  END
