12
title
O 1.2402081 1.8603293 -0.7057199
C 1.0203482 0.4787558 -0.562148
C 1.4573596 -0.047526024 0.7830458
C 0.5577154 -0.8628882 1.3591968
C -0.6866909 -0.9284109 0.5666731
O -1.6760496 -1.5952115 0.73485833
C -0.46808302 0.10548202 -0.57089967
O -1.3026069 0.6185364 -1.2646219
H 0.54946625 2.1885164 -1.297257
H 1.5290728 -0.08904984 -1.3627173
H 2.4254766 0.21502109 1.1954482
H 0.67947197 -1.3906127 2.296615
