18
title
C -1.1870499 1.9395009 -0.62782615
C -1.18867 0.41100267 -0.43980643
C -0.5229658 -0.27649364 -1.6114963
C 0.5863252 -0.9479722 -1.2845362
C 0.8280694 -0.84425735 0.1722561
O 1.7879157 -1.2482911 0.7883464
C -0.39057785 -0.1247593 0.7852557
C 0.0062591503 0.8536541 1.8905991
H -0.16900283 2.3301573 -0.71858346
H -1.7299402 2.212113 -1.5387777
H -1.6724724 2.4411988 0.21381645
H -2.2379959 0.09347035 -0.37885547
H -0.91994286 -0.17812349 -2.6177065
H 1.2513885 -1.4820181 -1.9511503
H -0.98360324 -0.9282601 1.2438608
H 0.5680695 1.7056633 1.4976264
H -0.86846507 1.239159 2.422613
H 0.6498727 0.33667186 2.607087
