title
 OpenBabel02282109593D

 14 14  0  0  1  0  0  0  0  0999 V2000
   -1.1676    2.1080   -0.4865 C   0  0  0  0  0  0  0  0  0  0  0  0
   -1.0451    0.5766   -0.5119 C   0  0  1  0  0  0  0  0  0  0  0  0
   -0.2382    0.0191   -1.6613 C   0  0  0  0  0  0  0  0  0  0  0  0
    0.7915   -0.7612   -1.2941 C   0  0  0  0  0  0  0  0  0  0  0  0
    0.8677   -0.8675    0.1739 C   0  0  0  0  0  0  0  0  0  0  0  0
    1.6396   -1.4883    0.8617 O   0  0  0  0  0  0  0  0  0  0  0  0
   -0.2958    0.0235    0.7059 C   0  0  0  0  0  0  0  0  0  0  0  0
   -0.5297    0.2468    1.8614 O   0  0  0  0  0  0  0  0  0  0  0  0
   -0.1813    2.5817   -0.5013 H   0  0  0  0  0  0  0  0  0  0  0  0
   -1.7331    2.4695   -1.3504 H   0  0  0  0  0  0  0  0  0  0  0  0
   -1.6834    2.4202    0.4248 H   0  0  0  0  0  0  0  0  0  0  0  0
   -2.0575    0.1479   -0.5176 H   0  0  0  0  0  0  0  0  0  0  0  0
   -0.4935    0.2533   -2.6906 H   0  0  0  0  0  0  0  0  0  0  0  0
    1.4891   -1.2581   -1.9560 H   0  0  0  0  0  0  0  0  0  0  0  0
  1 11  1  0  0  0  0
  2 12  1  6  0  0  0
  2  1  1  0  0  0  0
  2  7  1  0  0  0  0
  3  4  2  0  0  0  0
  3  2  1  0  0  0  0
  4  5  1  0  0  0  0
  5  7  1  0  0  0  0
  5  6  2  0  0  0  0
  7  8  2  0  0  0  0
  9  1  1  0  0  0  0
 10  1  1  0  0  0  0
 13  3  1  0  0  0  0
 14  4  1  0  0  0  0
M  END
