13
title
O 0.60116994 1.5322115 1.1112792
C 0.360326 0.21866009 0.7259257
C -1.1053809 -0.16696629 0.5232311
O -2.0743015 0.27295423 1.070016
C -1.112802 -1.2498679 -0.578965
N 0.18365136 -1.0687242 -1.2176095
C 0.9865609 -0.14011124 -0.6254844
O 2.0063314 0.35263985 -1.0573564
H 1.3941573 1.8020399 0.62333226
H 0.75780815 -0.51197165 1.4599186
H -1.2324609 -2.2462213 -0.1333599
H -1.9504097 -1.0785772 -1.2623887
H 0.39803344 -1.4166238 -2.1397092
