title
 OpenBabel02282109593D

 18 18  0  0  1  0  0  0  0  0999 V2000
   -1.1870    1.9395   -0.6278 C   0  0  0  0  0  0  0  0  0  0  0  0
   -1.1887    0.4110   -0.4398 C   0  0  1  0  0  0  0  0  0  0  0  0
   -0.5230   -0.2765   -1.6115 C   0  0  0  0  0  0  0  0  0  0  0  0
    0.5863   -0.9480   -1.2845 C   0  0  0  0  0  0  0  0  0  0  0  0
    0.8281   -0.8443    0.1723 C   0  0  0  0  0  0  0  0  0  0  0  0
    1.7879   -1.2483    0.7883 O   0  0  0  0  0  0  0  0  0  0  0  0
   -0.3906   -0.1248    0.7853 C   0  0  1  0  0  0  0  0  0  0  0  0
    0.0063    0.8537    1.8906 C   0  0  0  0  0  0  0  0  0  0  0  0
   -0.1690    2.3302   -0.7186 H   0  0  0  0  0  0  0  0  0  0  0  0
   -1.7299    2.2121   -1.5388 H   0  0  0  0  0  0  0  0  0  0  0  0
   -1.6725    2.4412    0.2138 H   0  0  0  0  0  0  0  0  0  0  0  0
   -2.2380    0.0935   -0.3789 H   0  0  0  0  0  0  0  0  0  0  0  0
   -0.9199   -0.1781   -2.6177 H   0  0  0  0  0  0  0  0  0  0  0  0
    1.2514   -1.4820   -1.9512 H   0  0  0  0  0  0  0  0  0  0  0  0
   -0.9836   -0.9283    1.2439 H   0  0  0  0  0  0  0  0  0  0  0  0
    0.5681    1.7057    1.4976 H   0  0  0  0  0  0  0  0  0  0  0  0
   -0.8685    1.2392    2.4226 H   0  0  0  0  0  0  0  0  0  0  0  0
    0.6499    0.3367    2.6071 H   0  0  0  0  0  0  0  0  0  0  0  0
  1  2  1  0  0  0  0
  1 11  1  0  0  0  0
  2 12  1  0  0  0  0
  2  7  1  1  0  0  0
  3  4  2  0  0  0  0
  3  2  1  0  0  0  0
  4  5  1  0  0  0  0
  5  7  1  0  0  0  0
  5  6  2  0  0  0  0
  7 15  1  1  0  0  0
  7  8  1  0  0  0  0
  8 17  1  0  0  0  0
  8 18  1  0  0  0  0
  9  1  1  0  0  0  0
 10  1  1  0  0  0  0
 13  3  1  0  0  0  0
 14  4  1  0  0  0  0
 16  8  1  0  0  0  0
M  END
