17
title
C -1.202198 2.0695777 -0.49232408
C -1.0280174 0.5474642 -0.6052915
C -0.15595227 0.06209616 -1.7366145
C 0.8430395 -0.66297036 -1.2250701
N 0.7665348 -0.74393016 0.1758341
C 1.7048787 -1.4191319 1.0424812
C -0.32527435 -0.028314939 0.6385271
O -0.63582575 0.11333109 1.8022505
H -0.23099262 2.5732079 -0.4795003
H -1.7770076 2.4593968 -1.3372753
H -1.7282498 2.312105 0.4348732
H -2.0245066 0.08615477 -0.6515923
H -0.32148492 0.2682816 -2.7831736
H 1.6536094 -1.1698132 -1.7307887
H 1.7415732 -2.4939115 0.83171743
H 2.71497 -1.006168 0.93882865
H 1.3607875 -1.2672111 2.0671368
