15
title
C -0.15624698 2.4462745 -0.41702113
N -0.21986066 1.0020975 -0.45176375
C -0.17310566 0.20429018 -1.6088469
C -0.12071122 -1.1013002 -1.3276676
C -0.16347063 -1.2685912 0.1719296
O 0.83406115 -2.0788152 0.75651526
C -0.145213 0.20445368 0.67882586
O -0.06312774 0.5969869 1.8189739
H 0.75088793 2.8213954 -0.90549415
H -1.0291709 2.8934267 -0.90461093
H -0.1420367 2.741467 0.63365126
H -0.19453646 0.6948359 -2.5731225
H -0.10195336 -1.9136341 -2.037615
H -1.1152797 -1.7118905 0.4926746
H 1.6919519 -1.7115791 0.51623714
