title
 OpenBabel02282109593D

 15 15  0  0  1  0  0  0  0  0999 V2000
   -0.1562    2.4463   -0.4170 C   0  0  0  0  0  0  0  0  0  0  0  0
   -0.2199    1.0021   -0.4518 N   0  0  0  0  0  0  0  0  0  0  0  0
   -0.1731    0.2043   -1.6088 C   0  0  0  0  0  0  0  0  0  0  0  0
   -0.1207   -1.1013   -1.3277 C   0  0  0  0  0  0  0  0  0  0  0  0
   -0.1635   -1.2686    0.1719 C   0  0  1  0  0  0  0  0  0  0  0  0
    0.8341   -2.0788    0.7565 O   0  0  0  0  0  0  0  0  0  0  0  0
   -0.1452    0.2045    0.6788 C   0  0  0  0  0  0  0  0  0  0  0  0
   -0.0631    0.5970    1.8190 O   0  0  0  0  0  0  0  0  0  0  0  0
    0.7509    2.8214   -0.9055 H   0  0  0  0  0  0  0  0  0  0  0  0
   -1.0292    2.8934   -0.9046 H   0  0  0  0  0  0  0  0  0  0  0  0
   -0.1420    2.7415    0.6337 H   0  0  0  0  0  0  0  0  0  0  0  0
   -0.1945    0.6948   -2.5731 H   0  0  0  0  0  0  0  0  0  0  0  0
   -0.1020   -1.9136   -2.0376 H   0  0  0  0  0  0  0  0  0  0  0  0
   -1.1153   -1.7119    0.4927 H   0  0  0  0  0  0  0  0  0  0  0  0
    1.6920   -1.7116    0.5162 H   0  0  0  0  0  0  0  0  0  0  0  0
  1 11  1  0  0  0  0
  2  1  1  0  0  0  0
  2  7  1  0  0  0  0
  3  4  2  0  0  0  0
  3  2  1  0  0  0  0
  4  5  1  0  0  0  0
  5 14  1  1  0  0  0
  5  7  1  0  0  0  0
  5  6  1  0  0  0  0
  7  8  2  0  0  0  0
  9  1  1  0  0  0  0
 10  1  1  0  0  0  0
 12  3  1  0  0  0  0
 13  4  1  0  0  0  0
 15  6  1  0  0  0  0
M  END
