22
title
C -1.4645464 2.0473561 -0.45343193
C -1.1469213 0.5488283 -0.4192151
C -0.31746155 0.04770468 -1.5843568
C 0.50045764 -0.93617344 -1.2191665
C 0.36028683 -1.2641977 0.25373405
C 1.6565863 -1.7070663 0.9401139
C -0.34228164 0.017515764 0.8138001
C 0.64899576 1.0482881 1.3706796
H -0.55801356 2.6576374 -0.50095123
H -2.0691628 2.2861567 -1.3350589
H -2.0348036 2.3562486 0.4292078
H -2.112385 0.016678289 -0.43963587
H -0.43600392 0.43238494 -2.5923636
H 1.161363 -1.4890945 -1.8791596
H -0.3524068 -2.1004057 0.34617162
H 2.4488435 -0.95932233 0.8415704
H 1.50029 -1.8961272 2.007582
H 2.0235083 -2.6369348 0.49226773
H -1.0314878 -0.25579125 1.6210881
H 1.3717667 1.3676625 0.61232996
H 0.12793995 1.9395814 1.7313381
H 1.2103192 0.63758534 2.214609
