18
title
C -1.4479033 1.8741473 -0.4703461
C -1.1650847 0.36537772 -0.48721853
C -0.37001854 -0.15213531 -1.6598341
C 0.6883824 -0.87680995 -1.2932249
C 0.82889915 -0.9999083 0.20346372
C 2.1951554 -0.62031144 0.7916022
C -0.30275428 -0.08335838 0.7092436
O -0.4618231 0.2622619 1.85168
H -0.5228321 2.4468024 -0.58958703
H -2.1279163 2.154811 -1.2801086
H -1.9028308 2.1556385 0.4828336
H -2.128697 -0.16248333 -0.40874392
H -0.6561658 0.054763746 -2.685493
H 1.387991 -1.3448509 -1.9774388
H 0.58907294 -2.023368 0.5326447
H 2.5015182 0.37595993 0.45769486
H 2.1397233 -0.6121161 1.8832116
H 2.9660692 -1.3333774 0.4847953
