title
 OpenBabel02282109593D

 20 20  0  0  1  0  0  0  0  0999 V2000
   -1.3638    2.0583   -0.4485 C   0  0  0  0  0  0  0  0  0  0  0  0
   -1.1649    0.5394   -0.4316 C   0  0  1  0  0  0  0  0  0  0  0  0
   -0.3772   -0.0128   -1.6005 C   0  0  0  0  0  0  0  0  0  0  0  0
    0.4481   -0.9868   -1.2270 C   0  0  0  0  0  0  0  0  0  0  0  0
    0.3651   -1.2664    0.2593 C   0  0  1  0  0  0  0  0  0  0  0  0
    1.7011   -1.5823    0.9388 C   0  0  0  0  0  0  0  0  0  0  0  0
   -0.3663   -0.0046    0.7959 C   0  0  1  0  0  0  0  0  0  0  0  0
    0.6253    0.9116    1.2423 O   0  0  0  0  0  0  0  0  0  0  0  0
   -0.4023    2.5790   -0.4670 H   0  0  0  0  0  0  0  0  0  0  0  0
   -1.9279    2.3631   -1.3356 H   0  0  0  0  0  0  0  0  0  0  0  0
   -1.9290    2.4007    0.4271 H   0  0  0  0  0  0  0  0  0  0  0  0
   -2.1611    0.0690   -0.4191 H   0  0  0  0  0  0  0  0  0  0  0  0
   -0.5165    0.3444   -2.6157 H   0  0  0  0  0  0  0  0  0  0  0  0
    1.0914   -1.5586   -1.8877 H   0  0  0  0  0  0  0  0  0  0  0  0
   -0.3043   -2.1271    0.4148 H   0  0  0  0  0  0  0  0  0  0  0  0
    2.4065   -0.7581    0.8188 H   0  0  0  0  0  0  0  0  0  0  0  0
    1.5678   -1.7570    2.0109 H   0  0  0  0  0  0  0  0  0  0  0  0
    2.1419   -2.4853    0.5031 H   0  0  0  0  0  0  0  0  0  0  0  0
   -1.0395   -0.2570    1.6280 H   0  0  0  0  0  0  0  0  0  0  0  0
    0.1775    1.6732    1.6216 H   0  0  0  0  0  0  0  0  0  0  0  0
  1  2  1  0  0  0  0
  1 11  1  0  0  0  0
  2 12  1  0  0  0  0
  2  7  1  1  0  0  0
  3  4  2  0  0  0  0
  3  2  1  0  0  0  0
  4  5  1  0  0  0  0
  5 15  1  0  0  0  0
  5  7  1  1  0  0  0
  5  6  1  0  0  0  0
  6 17  1  0  0  0  0
  7  8  1  0  0  0  0
  7 19  1  1  0  0  0
  8 20  1  0  0  0  0
  9  1  1  0  0  0  0
 10  1  1  0  0  0  0
 13  3  1  0  0  0  0
 14  4  1  0  0  0  0
 16  6  1  0  0  0  0
 18  6  1  0  0  0  0
M  END
