20
title
C -1.3637649 2.0582995 -0.4484511
C -1.1649083 0.5394257 -0.43159848
C -0.37717265 -0.012762593 -1.6004821
C 0.448142 -0.98677593 -1.2269641
C 0.36514705 -1.2663823 0.25931722
C 1.7011429 -1.5822951 0.93877155
C -0.3663444 -0.0045918096 0.7958738
O 0.6252888 0.9116052 1.2423434
H -0.4023407 2.5790026 -0.46697292
H -1.927903 2.3630707 -1.3355709
H -1.9289613 2.400673 0.4270501
H -2.161072 0.06898825 -0.4190685
H -0.51647645 0.34439275 -2.6156864
H 1.0914272 -1.5586356 -1.8876684
H -0.3042941 -2.1271243 0.41482604
H 2.4065053 -0.7580885 0.81880134
H 1.5678464 -1.757038 2.010915
H 2.1419048 -2.4852753 0.5031186
H -1.0395103 -0.2570259 1.6280367
H 0.17747812 1.673195 1.621618
