title
 OpenBabel02282109593D

 18 18  0  0  1  0  0  0  0  0999 V2000
   -0.4684    2.4118   -0.4401 C   0  0  0  0  0  0  0  0  0  0  0  0
   -0.4397    0.9200   -0.4978 C   0  0  0  0  0  0  0  0  0  0  0  0
   -0.4477    0.1226   -1.5703 C   0  0  0  0  0  0  0  0  0  0  0  0
   -0.4471   -1.3455   -1.1959 C   0  0  0  0  0  0  0  0  0  0  0  0
    0.0129   -1.3088    0.2739 C   0  0  1  0  0  0  0  0  0  0  0  0
    1.4372   -1.3958    0.3850 O   0  0  0  0  0  0  0  0  0  0  0  0
   -0.4470    0.0875    0.7813 C   0  0  1  0  0  0  0  0  0  0  0  0
    0.3678    0.5846    1.8202 O   0  0  0  0  0  0  0  0  0  0  0  0
    0.3402    2.7823    0.1988 H   0  0  0  0  0  0  0  0  0  0  0  0
   -0.3762    2.8619   -1.4321 H   0  0  0  0  0  0  0  0  0  0  0  0
   -1.4035    2.7675    0.0120 H   0  0  0  0  0  0  0  0  0  0  0  0
   -0.4944    0.4649   -2.5992 H   0  0  0  0  0  0  0  0  0  0  0  0
   -1.4511   -1.7837   -1.2825 H   0  0  0  0  0  0  0  0  0  0  0  0
    0.2187   -1.9675   -1.8050 H   0  0  0  0  0  0  0  0  0  0  0  0
   -0.3725   -2.1302    0.8811 H   0  0  0  0  0  0  0  0  0  0  0  0
    1.8080   -0.8377   -0.3102 H   0  0  0  0  0  0  0  0  0  0  0  0
   -1.4729    0.0314    1.1760 H   0  0  0  0  0  0  0  0  0  0  0  0
    1.2081    0.1119    1.7234 H   0  0  0  0  0  0  0  0  0  0  0  0
  1 11  1  0  0  0  0
  1  9  1  0  0  0  0
  2  1  1  0  0  0  0
  2  7  1  0  0  0  0
  3  4  1  0  0  0  0
  3  2  2  0  0  0  0
  4  5  1  0  0  0  0
  5  6  1  0  0  0  0
  5  7  1  1  0  0  0
  5 15  1  0  0  0  0
  7 17  1  1  0  0  0
  7  8  1  0  0  0  0
 10  1  1  0  0  0  0
 12  3  1  0  0  0  0
 13  4  1  0  0  0  0
 14  4  1  0  0  0  0
 16  6  1  0  0  0  0
 18  8  1  0  0  0  0
M  END
