title
 OpenBabel02282109593D

 16 16  0  0  1  0  0  0  0  0999 V2000
    0.4780    1.8188    0.0276 O   0  0  0  0  0  0  0  0  0  0  0  0
    0.8573    0.6328   -0.6858 C   0  0  1  0  0  0  0  0  0  0  0  0
    1.7477   -0.2711    0.1310 C   0  0  0  0  0  0  0  0  0  0  0  0
    1.0450   -1.2501    0.7045 C   0  0  0  0  0  0  0  0  0  0  0  0
   -0.4182   -1.1642    0.3425 C   0  0  1  0  0  0  0  0  0  0  0  0
   -1.1232   -0.4959    1.3890 O   0  0  0  0  0  0  0  0  0  0  0  0
   -0.3912   -0.2579   -0.9204 C   0  0  1  0  0  0  0  0  0  0  0  0
   -1.5750    0.4966   -1.0599 O   0  0  0  0  0  0  0  0  0  0  0  0
    0.2059    1.5205    0.9080 H   0  0  0  0  0  0  0  0  0  0  0  0
    1.3068    0.9910   -1.6155 H   0  0  0  0  0  0  0  0  0  0  0  0
    2.8076   -0.0858    0.2612 H   0  0  0  0  0  0  0  0  0  0  0  0
    1.4376   -2.0022    1.3790 H   0  0  0  0  0  0  0  0  0  0  0  0
   -0.8726   -2.1454    0.1466 H   0  0  0  0  0  0  0  0  0  0  0  0
   -1.9138   -0.1426    0.9526 H   0  0  0  0  0  0  0  0  0  0  0  0
   -0.2490   -0.8750   -1.8145 H   0  0  0  0  0  0  0  0  0  0  0  0
   -1.3315    1.3931   -0.7768 H   0  0  0  0  0  0  0  0  0  0  0  0
  1  9  1  0  0  0  0
  2  7  1  6  0  0  0
  2  1  1  0  0  0  0
  2  3  1  0  0  0  0
  3 11  1  0  0  0  0
  3  4  2  0  0  0  0
  4 12  1  0  0  0  0
  5  7  1  6  0  0  0
  5  4  1  0  0  0  0
  5  6  1  0  0  0  0
  7 15  1  6  0  0  0
  8  7  1  0  0  0  0
  8 16  1  0  0  0  0
 10  2  1  0  0  0  0
 13  5  1  0  0  0  0
 14  6  1  0  0  0  0
M  END
