18
title
C -1.2647797 2.066756 -0.4996222
C -1.0534418 0.55168384 -0.5505365
C -0.26964524 0.01884312 -1.7702076
C 0.8161634 -0.83976805 -1.1725767
C 0.83581173 -0.83571637 0.16812144
C 1.7615505 -1.5331298 1.1102744
C -0.25502923 0.04340935 0.6628608
O -0.47813448 0.3223324 1.8205563
H -0.3112791 2.5986276 -0.5909376
H -1.9192278 2.4049332 -1.3086201
H -1.7146865 2.3468347 0.456564
H -2.0336404 0.06076062 -0.4985083
H -0.89729255 -0.5529368 -2.4643714
H 0.16496219 0.83585304 -2.3618608
H 1.5138291 -1.3912296 -1.7962186
H 2.5270712 -2.1058831 0.5808582
H 2.2540128 -0.80956125 1.7688192
H 1.2057735 -2.2129223 1.7655882
