20
title
C -0.5386385 2.022055 -0.6278077
C -1.1094779 0.620254 -0.3486257
C -0.83519554 -0.33326554 -1.4912817
C 0.036272008 -1.2903752 -1.1712065
C 0.54389626 -1.1303352 0.24151577
O 1.9012264 -0.67717516 0.26549804
C -0.48947802 -0.1444748 0.86535376
C 0.05894347 0.6984965 2.0137944
H 0.54729694 1.994235 -0.76724213
H -0.97579885 2.4428272 -1.539588
H -0.7540312 2.7111907 0.19416036
H -2.190683 0.73527414 -0.1958728
H -1.2895961 -0.20387095 -2.4691443
H 0.41412672 -2.0570383 -1.8386776
H 0.56898457 -2.0700822 0.80352503
H 1.9966289 -0.021593684 -0.43367144
H -1.2924651 -0.77951324 1.2599758
H 0.91984206 1.294993 1.7035763
H -0.70638096 1.374611 2.4094868
H 0.39311394 0.05615491 2.8348713
