16
title
C -1.4814068 2.0180123 -0.46004748
C -1.0216749 0.5636156 -0.47178885
C -0.19014512 0.106506534 -1.6943226
C 0.5453164 -1.1713859 -1.2365164
C 0.8182593 -0.94868374 0.24368235
O 1.6171334 -1.5011902 0.949345
C -0.14786892 0.18307753 0.7169465
O -0.15515219 0.6565779 1.8212643
H -0.62808645 2.6957557 -0.5663406
H -2.1783304 2.2181919 -1.2789568
H -1.9758079 2.2526977 0.486019
H -1.9029661 -0.0955941 -0.3995204
H -0.8080211 -0.055255286 -2.5802193
H 0.5394773 0.88532746 -1.946259
H -0.10849278 -2.0499306 -1.3263274
H 1.4632738 -1.3958544 -1.7837338
