15
title
C -1.3664995 2.085255 -0.4247992
C -1.0114843 0.6019882 -0.4455729
C -0.17655092 0.10930836 -1.6336436
O 0.6346126 -0.985338 -1.143825
C 0.76735574 -0.926937 0.2084997
N 1.5129607 -1.6539322 0.92076063
C -0.16330957 0.15021864 0.7406194
O -0.20964563 0.5579947 1.8678002
H -0.4694193 2.704288 -0.52652514
H -2.0536494 2.3424966 -1.2357512
H -1.8397603 2.3377414 0.52726966
H -1.9304432 -0.000102339916 -0.39086238
H -0.76693165 -0.2739787 -2.4675183
H 0.48970836 0.8970528 -2.0062783
H 2.0429466 -2.3096006 0.34162256
