15
title
C -1.3426557 2.0945833 -0.46005183
C -1.0147761 0.6039994 -0.48270845
C -0.19230582 0.10522697 -1.6928418
N 0.6788402 -0.9195893 -1.13033
C 0.79548687 -0.9355906 0.23020169
O 1.5210564 -1.6268228 0.904807
C -0.20690931 0.13370259 0.7239709
O -0.3049017 0.5150045 1.8573891
H -0.43155828 2.697753 -0.5270317
H -1.9965953 2.3703666 -1.2924696
H -1.8433701 2.3490105 0.47721532
H -1.9491708 0.025955776 -0.44334552
H -0.8234396 -0.31003496 -2.484597
H 0.39133933 0.9271811 -2.1292048
H 1.2854552 -1.4892114 -1.6999638
