title
 OpenBabel02282109593D

 15 15  0  0  1  0  0  0  0  0999 V2000
   -1.3427    2.0946   -0.4601 C   0  0  0  0  0  0  0  0  0  0  0  0
   -1.0148    0.6040   -0.4827 C   0  0  1  0  0  0  0  0  0  0  0  0
   -0.1923    0.1052   -1.6928 C   0  0  0  0  0  0  0  0  0  0  0  0
    0.6788   -0.9196   -1.1303 N   0  0  0  0  0  0  0  0  0  0  0  0
    0.7955   -0.9356    0.2302 C   0  0  0  0  0  0  0  0  0  0  0  0
    1.5211   -1.6268    0.9048 O   0  0  0  0  0  0  0  0  0  0  0  0
   -0.2069    0.1337    0.7240 C   0  0  0  0  0  0  0  0  0  0  0  0
   -0.3049    0.5150    1.8574 O   0  0  0  0  0  0  0  0  0  0  0  0
   -0.4316    2.6978   -0.5270 H   0  0  0  0  0  0  0  0  0  0  0  0
   -1.9966    2.3704   -1.2925 H   0  0  0  0  0  0  0  0  0  0  0  0
   -1.8434    2.3490    0.4772 H   0  0  0  0  0  0  0  0  0  0  0  0
   -1.9492    0.0260   -0.4433 H   0  0  0  0  0  0  0  0  0  0  0  0
   -0.8234   -0.3100   -2.4846 H   0  0  0  0  0  0  0  0  0  0  0  0
    0.3913    0.9272   -2.1292 H   0  0  0  0  0  0  0  0  0  0  0  0
    1.2855   -1.4892   -1.7000 H   0  0  0  0  0  0  0  0  0  0  0  0
  1 11  1  0  0  0  0
  2  1  1  0  0  0  0
  2 12  1  1  0  0  0
  2  7  1  0  0  0  0
  3  4  1  0  0  0  0
  3  2  1  0  0  0  0
  4  5  1  0  0  0  0
  5  7  1  0  0  0  0
  5  6  2  0  0  0  0
  7  8  2  0  0  0  0
  9  1  1  0  0  0  0
 10  1  1  0  0  0  0
 13  3  1  0  0  0  0
 14  3  1  0  0  0  0
 15  4  1  0  0  0  0
M  END
