title
 OpenBabel02282109593D

 20 20  0  0  1  0  0  0  0  0999 V2000
   -1.0406    1.8277   -0.1203 C   0  0  0  0  0  0  0  0  0  0  0  0
   -0.8528    0.3089   -0.0951 C   0  0  1  0  0  0  0  0  0  0  0  0
   -0.0602   -0.2628   -1.3075 C   0  0  1  0  0  0  0  0  0  0  0  0
    0.9566    0.6254   -1.7551 O   0  0  0  0  0  0  0  0  0  0  0  0
    0.5476   -1.5779   -0.7670 C   0  0  0  0  0  0  0  0  0  0  0  0
    0.6775   -1.2910    0.7105 C   0  0  0  0  0  0  0  0  0  0  0  0
   -0.0822   -0.2595    1.0935 C   0  0  0  0  0  0  0  0  0  0  0  0
   -0.2527    0.2622    2.4860 C   0  0  0  0  0  0  0  0  0  0  0  0
   -0.0811    2.3514   -0.1207 H   0  0  0  0  0  0  0  0  0  0  0  0
   -1.5790    2.1350   -1.0221 H   0  0  0  0  0  0  0  0  0  0  0  0
   -1.6173    2.1678    0.7456 H   0  0  0  0  0  0  0  0  0  0  0  0
   -1.8532   -0.1541   -0.0996 H   0  0  0  0  0  0  0  0  0  0  0  0
   -0.7014   -0.4158   -2.1797 H   0  0  0  0  0  0  0  0  0  0  0  0
    1.5845    0.7252   -1.0298 H   0  0  0  0  0  0  0  0  0  0  0  0
   -0.1211   -2.4325   -0.9460 H   0  0  0  0  0  0  0  0  0  0  0  0
    1.4927   -1.8039   -1.2724 H   0  0  0  0  0  0  0  0  0  0  0  0
    1.2825   -1.8938    1.3804 H   0  0  0  0  0  0  0  0  0  0  0  0
    0.3579   -0.2965    3.2007 H   0  0  0  0  0  0  0  0  0  0  0  0
    0.0223    1.3214    2.5585 H   0  0  0  0  0  0  0  0  0  0  0  0
   -1.3000    0.1931    2.8089 H   0  0  0  0  0  0  0  0  0  0  0  0
  1  2  1  0  0  0  0
  1 11  1  0  0  0  0
  2  3  1  6  0  0  0
  2  7  1  0  0  0  0
  3 13  1  6  0  0  0
  3  5  1  0  0  0  0
  4  3  1  0  0  0  0
  4 14  1  0  0  0  0
  5  6  1  0  0  0  0
  6  7  2  0  0  0  0
  6 17  1  0  0  0  0
  7  8  1  0  0  0  0
  8 19  1  0  0  0  0
  8 20  1  0  0  0  0
  8 18  1  0  0  0  0
  9  1  1  0  0  0  0
 10  1  1  0  0  0  0
 12  2  1  0  0  0  0
 15  5  1  0  0  0  0
 16  5  1  0  0  0  0
M  END
