16
title
C -1.4153326 2.029767 -0.45404294
C -1.0199674 0.5571032 -0.48328546
C -0.17974617 0.09437302 -1.688781
N 0.642215 -0.9810376 -1.1362305
C 0.82181823 -0.9161973 0.22826682
N 1.6041629 -1.5463568 1.0114783
C -0.17920996 0.12297228 0.72093767
O -0.27815098 0.5338421 1.844258
H -0.53476137 2.6747117 -0.5393767
H -2.0989926 2.2756538 -1.271859
H -1.9063404 2.2612553 0.49427867
H -1.9250047 -0.06589812 -0.4385607
H -0.7938442 -0.2728595 -2.5165339
H 0.43380392 0.92477405 -2.0688102
H 1.315583 -1.4569281 -1.7157401
H 2.2120116 -2.1906235 0.49948525
