title
 OpenBabel02282109593D

 14 14  0  0  1  0  0  0  0  0999 V2000
   -0.8764    2.0678   -0.6249 C   0  0  0  0  0  0  0  0  0  0  0  0
   -1.0734    0.5676   -0.3867 C   0  0  1  0  0  0  0  0  0  0  0  0
   -0.6354   -0.2238   -1.5003 O   0  0  0  0  0  0  0  0  0  0  0  0
    0.6727   -0.7425   -1.2849 C   0  0  0  0  0  0  0  0  0  0  0  0
    0.8761   -0.7909    0.2171 C   0  0  0  0  0  0  0  0  0  0  0  0
    1.7364   -1.3393    0.8477 O   0  0  0  0  0  0  0  0  0  0  0  0
   -0.2733    0.0738    0.8071 C   0  0  0  0  0  0  0  0  0  0  0  0
   -0.4414    0.3134    1.9709 O   0  0  0  0  0  0  0  0  0  0  0  0
    0.1811    2.3130   -0.7665 H   0  0  0  0  0  0  0  0  0  0  0  0
   -1.4238    2.3738   -1.5196 H   0  0  0  0  0  0  0  0  0  0  0  0
   -1.2486    2.6314    0.2353 H   0  0  0  0  0  0  0  0  0  0  0  0
   -2.1362    0.3506   -0.2337 H   0  0  0  0  0  0  0  0  0  0  0  0
    0.7425   -1.7373   -1.7348 H   0  0  0  0  0  0  0  0  0  0  0  0
    1.4489   -0.1076   -1.7429 H   0  0  0  0  0  0  0  0  0  0  0  0
  1  2  1  0  0  0  0
  1 11  1  0  0  0  0
  2 12  1  1  0  0  0
  2  7  1  0  0  0  0
  3  4  1  0  0  0  0
  3  2  1  0  0  0  0
  4  5  1  0  0  0  0
  5  7  1  0  0  0  0
  5  6  2  0  0  0  0
  7  8  2  0  0  0  0
  9  1  1  0  0  0  0
 10  1  1  0  0  0  0
 13  4  1  0  0  0  0
 14  4  1  0  0  0  0
M  END
