title
 OpenBabel02282109593D

 15 15  0  0  1  0  0  0  0  0999 V2000
   -1.3665    2.0853   -0.4248 C   0  0  0  0  0  0  0  0  0  0  0  0
   -1.0115    0.6020   -0.4456 C   0  0  1  0  0  0  0  0  0  0  0  0
   -0.1766    0.1093   -1.6336 C   0  0  0  0  0  0  0  0  0  0  0  0
    0.6346   -0.9853   -1.1438 O   0  0  0  0  0  0  0  0  0  0  0  0
    0.7674   -0.9269    0.2085 C   0  0  0  0  0  0  0  0  0  0  0  0
    1.5130   -1.6539    0.9208 N   0  0  0  0  0  0  0  0  0  0  0  0
   -0.1633    0.1502    0.7406 C   0  0  0  0  0  0  0  0  0  0  0  0
   -0.2096    0.5580    1.8678 O   0  0  0  0  0  0  0  0  0  0  0  0
   -0.4694    2.7043   -0.5265 H   0  0  0  0  0  0  0  0  0  0  0  0
   -2.0536    2.3425   -1.2358 H   0  0  0  0  0  0  0  0  0  0  0  0
   -1.8398    2.3377    0.5273 H   0  0  0  0  0  0  0  0  0  0  0  0
   -1.9304   -0.0001   -0.3909 H   0  0  0  0  0  0  0  0  0  0  0  0
   -0.7669   -0.2740   -2.4675 H   0  0  0  0  0  0  0  0  0  0  0  0
    0.4897    0.8971   -2.0063 H   0  0  0  0  0  0  0  0  0  0  0  0
    2.0429   -2.3096    0.3416 H   0  0  0  0  0  0  0  0  0  0  0  0
  1 11  1  0  0  0  0
  2  1  1  0  0  0  0
  2 12  1  1  0  0  0
  2  7  1  0  0  0  0
  3  4  1  0  0  0  0
  3  2  1  0  0  0  0
  4  5  1  0  0  0  0
  5  7  1  0  0  0  0
  5  6  2  0  0  0  0
  7  8  2  0  0  0  0
  9  1  1  0  0  0  0
 10  1  1  0  0  0  0
 13  3  1  0  0  0  0
 14  3  1  0  0  0  0
 15  6  1  0  0  0  0
M  END
