14
title
C -1.3150623 2.1309812 -0.47559744
C -1.003475 0.6372249 -0.4560611
C -0.17930634 0.09274252 -1.634472
O 0.63025093 -0.9932063 -1.1241367
C 0.7400428 -0.9502887 0.22484991
O 1.4257447 -1.6863177 0.86663395
C -0.17914905 0.18351282 0.7350597
O -0.19808657 0.5945024 1.8605987
H -0.3978701 2.72105 -0.5674626
H -1.9727497 2.3879328 -1.3106445
H -1.8066487 2.419609 0.45661655
H -1.9405485 0.06396864 -0.39499542
H -0.7834909 -0.30999756 -2.448785
H 0.4925953 0.857467 -2.0399017
