18
title
C -0.77039325 1.7734594 0.11014255
C -0.8351878 0.23734125 0.023710415
C -0.09202684 -0.35605752 -1.188253
O -0.2070831 0.49646145 -2.3114746
C 1.35569 -0.5701159 -0.6924638
C 1.1809101 -1.0528305 0.7537156
C -0.11159284 -0.3775913 1.2320533
O -0.49086538 -0.3193354 2.3730624
H 0.26092964 2.1398327 0.11215548
H -1.2807258 2.2220225 -0.7438403
H -1.249604 2.1033895 1.0352931
H -1.886227 -0.065482385 0.046899296
H -0.5311644 -1.3420612 -1.4145689
H 0.27091247 0.093869686 -3.043374
H 1.9143107 -1.2687392 -1.3224827
H 1.8788688 0.3919962 -0.7192591
H 1.0200077 -2.1380699 0.80035144
H 2.0130901 -0.82773346 1.4245898
