17
title
C -1.088387 1.8462261 -0.085757844
C -0.8687077 0.33752674 -0.10056797
C -0.105321445 -0.25192627 -1.2996734
O 0.91125655 0.66648275 -1.6655298
C 0.4937425 -1.5610235 -0.72369844
N 0.6573063 -1.2453868 0.6798715
C -0.07712606 -0.17562729 1.1145822
O -0.1134719 0.25649247 2.2455058
H -0.14762601 2.3767292 -0.23987062
H -1.7882522 2.1530623 -0.8685198
H -1.4948773 2.1372347 0.88598746
H -1.8415558 -0.17227349 -0.049327917
H -0.7652044 -0.46248716 -2.1515405
H 1.389516 0.30483887 -2.4176972
H -0.1861634 -2.4111698 -0.8848006
H 1.4505178 -1.7975886 -1.2029296
H 1.1981825 -1.7977972 1.3249644
