12
title
O 0.27841184 1.8149354 1.5410115
C 0.12382886 0.48919934 1.1350071
C -1.3382533 0.061896745 0.9216842
O -1.2940168 -0.9906415 -0.07490699
C -0.1738433 -0.9207206 -0.8365602
O 0.046764858 -1.6154455 -1.7799771
C 0.70507306 0.1906752 -0.23122172
O 1.614757 0.7676455 -0.75927526
H 1.0387853 2.1684403 1.0572484
H 0.5940883 -0.21672079 1.8443369
H -1.8208874 -0.35072556 1.8071473
H -1.9232659 0.9043966 0.5407756
