title
 OpenBabel02282109593D

 13 13  0  0  1  0  0  0  0  0999 V2000
    0.3546    1.7891    1.5215 O   0  0  0  0  0  0  0  0  0  0  0  0
    0.1319    0.4688    1.1286 C   0  0  1  0  0  0  0  0  0  0  0  0
   -1.3431    0.1050    0.9139 C   0  0  0  0  0  0  0  0  0  0  0  0
   -1.3261   -0.9683   -0.0611 O   0  0  0  0  0  0  0  0  0  0  0  0
   -0.2086   -0.9033   -0.8395 C   0  0  0  0  0  0  0  0  0  0  0  0
    0.0431   -1.5977   -1.8609 N   0  0  0  0  0  0  0  0  0  0  0  0
    0.7042    0.1451   -0.2443 C   0  0  0  0  0  0  0  0  0  0  0  0
    1.6456    0.6974   -0.7463 O   0  0  0  0  0  0  0  0  0  0  0  0
    1.1197    2.0985    1.0143 H   0  0  0  0  0  0  0  0  0  0  0  0
    0.5739   -0.2512    1.8412 H   0  0  0  0  0  0  0  0  0  0  0  0
   -1.8522   -0.2716    1.8008 H   0  0  0  0  0  0  0  0  0  0  0  0
   -1.8874    0.9667    0.5127 H   0  0  0  0  0  0  0  0  0  0  0  0
   -0.7267   -2.2384   -2.0688 H   0  0  0  0  0  0  0  0  0  0  0  0
  2  1  1  0  0  0  0
  2 10  1  1  0  0  0
  3  2  1  0  0  0  0
  3 11  1  0  0  0  0
  4  3  1  0  0  0  0
  5  7  1  0  0  0  0
  5  4  1  0  0  0  0
  6  5  2  0  0  0  0
  7  2  1  0  0  0  0
  8  7  2  0  0  0  0
  9  1  1  0  0  0  0
 12  3  1  0  0  0  0
 13  6  1  0  0  0  0
M  END
