14
title
O 0.35999915 1.7157538 1.5872715
C 0.110625595 0.4129082 1.1525204
C -1.3787084 0.072469875 0.9597984
N -1.318591 -0.9658123 -0.07102619
C -0.2175438 -0.8883313 -0.89944935
N 0.08195879 -1.4846681 -1.9835715
C 0.6864407 0.13128056 -0.23278378
O 1.632297 0.7096616 -0.6977985
H 1.1175787 2.0280347 1.0699972
H 0.5488442 -0.33494213 1.8376282
H -1.8539363 -0.30680123 1.8675737
H -1.9134642 0.9736496 0.6316217
H -2.1510932 -1.4515107 -0.36434698
H -0.662829 -2.1160505 -2.2882419
