13
title
O 0.35455653 1.7890662 1.5215493
C 0.13192013 0.46881893 1.128574
C -1.3430526 0.10499435 0.9138764
O -1.3261081 -0.9683499 -0.06110533
C -0.20856114 -0.9033287 -0.83946663
N 0.043140143 -1.5976981 -1.8609407
C 0.70422953 0.14506726 -0.24426837
O 1.6456046 0.6973732 -0.7462676
H 1.1196783 2.0984755 1.0142742
H 0.5738604 -0.2511809 1.8411759
H -1.8522341 -0.271595 1.8007561
H -1.8873906 0.9666673 0.5127414
H -0.7267299 -2.2383523 -2.0687928
