title
 OpenBabel02282109593D

 18 18  0  0  1  0  0  0  0  0999 V2000
   -0.7704    1.7735    0.1101 C   0  0  0  0  0  0  0  0  0  0  0  0
   -0.8352    0.2373    0.0237 C   0  0  1  0  0  0  0  0  0  0  0  0
   -0.0920   -0.3561   -1.1883 C   0  0  1  0  0  0  0  0  0  0  0  0
   -0.2071    0.4965   -2.3115 O   0  0  0  0  0  0  0  0  0  0  0  0
    1.3557   -0.5701   -0.6925 C   0  0  0  0  0  0  0  0  0  0  0  0
    1.1809   -1.0528    0.7537 C   0  0  0  0  0  0  0  0  0  0  0  0
   -0.1116   -0.3776    1.2321 C   0  0  0  0  0  0  0  0  0  0  0  0
   -0.4909   -0.3193    2.3731 O   0  0  0  0  0  0  0  0  0  0  0  0
    0.2609    2.1398    0.1122 H   0  0  0  0  0  0  0  0  0  0  0  0
   -1.2807    2.2220   -0.7438 H   0  0  0  0  0  0  0  0  0  0  0  0
   -1.2496    2.1034    1.0353 H   0  0  0  0  0  0  0  0  0  0  0  0
   -1.8862   -0.0655    0.0469 H   0  0  0  0  0  0  0  0  0  0  0  0
   -0.5312   -1.3421   -1.4146 H   0  0  0  0  0  0  0  0  0  0  0  0
    0.2709    0.0939   -3.0434 H   0  0  0  0  0  0  0  0  0  0  0  0
    1.9143   -1.2687   -1.3225 H   0  0  0  0  0  0  0  0  0  0  0  0
    1.8789    0.3920   -0.7193 H   0  0  0  0  0  0  0  0  0  0  0  0
    1.0200   -2.1381    0.8004 H   0  0  0  0  0  0  0  0  0  0  0  0
    2.0131   -0.8277    1.4246 H   0  0  0  0  0  0  0  0  0  0  0  0
  1  9  1  0  0  0  0
  1 11  1  0  0  0  0
  2  3  1  6  0  0  0
  2 12  1  0  0  0  0
  2  1  1  0  0  0  0
  2  7  1  0  0  0  0
  3 13  1  6  0  0  0
  3  5  1  0  0  0  0
  4  3  1  0  0  0  0
  5  6  1  0  0  0  0
  6 17  1  0  0  0  0
  6  7  1  0  0  0  0
  6 18  1  0  0  0  0
  7  8  2  0  0  0  0
 10  1  1  0  0  0  0
 14  4  1  0  0  0  0
 15  5  1  0  0  0  0
 16  5  1  0  0  0  0
M  END
