13
title
O 0.31513888 1.7823199 1.5527117
C 0.103239805 0.46318945 1.1481819
C -1.3827646 0.0903321 0.9564423
N -1.3235847 -0.91595 -0.101648666
C -0.1943953 -0.91898733 -0.87425864
O 0.04093609 -1.5880995 -1.8508831
C 0.7026562 0.14738093 -0.21416256
O 1.650206 0.7075893 -0.695917
H 1.0869788 2.095759 1.0587859
H 0.5465774 -0.25715148 1.8598274
H -1.840197 -0.31812114 1.8607547
H -1.9410983 0.9839391 0.65320307
H -2.1135583 -1.4914516 -0.35063002
