16
title
C -0.54410285 2.4086227 0.042064145
N -0.49022746 0.96833533 0.09367562
C -1.6942314 0.16314228 -0.06531973
C -1.2162989 -1.2931368 0.07760973
C 0.30148342 -1.2043085 -0.018026123
O 1.0902203 -2.1086144 -0.1003224
C 0.68018585 0.26427293 0.012329095
N 1.8562448 0.7584787 -0.024601595
H 0.45561907 2.7941172 0.24710165
H -0.86436373 2.7677653 -0.9465929
H -1.2473614 2.7925317 0.79038
H -2.4372466 0.43861586 0.6924451
H -2.156091 0.33883917 -1.0485313
H -1.4759341 -1.7142174 1.0545005
H -1.6176537 -1.9657261 -0.6831147
H 2.5241117 -0.014027581 -0.05349197
