title
 OpenBabel02282110003D

 17 17  0  0  1  0  0  0  0  0999 V2000
   -0.4044    2.0346   -0.5293 C   0  0  0  0  0  0  0  0  0  0  0  0
   -1.0747    0.6606   -0.4574 C   0  0  1  0  0  0  0  0  0  0  0  0
   -0.6648   -0.2674   -1.6155 C   0  0  0  0  0  0  0  0  0  0  0  0
    0.5668   -0.9072   -1.1929 O   0  0  0  0  0  0  0  0  0  0  0  0
    0.6806   -0.8114    0.1519 C   0  0  0  0  0  0  0  0  0  0  0  0
    1.6716   -1.1405    0.8615 N   0  0  0  0  0  0  0  0  0  0  0  0
   -0.5697   -0.1816    0.7340 C   0  0  1  0  0  0  0  0  0  0  0  0
   -0.3127    0.5247    1.9141 O   0  0  0  0  0  0  0  0  0  0  0  0
    0.6824    1.9429   -0.6296 H   0  0  0  0  0  0  0  0  0  0  0  0
   -0.7771    2.6001   -1.3888 H   0  0  0  0  0  0  0  0  0  0  0  0
   -0.6044    2.6031    0.3807 H   0  0  0  0  0  0  0  0  0  0  0  0
   -2.1615    0.7764   -0.4291 H   0  0  0  0  0  0  0  0  0  0  0  0
   -1.4108   -1.0466   -1.8103 H   0  0  0  0  0  0  0  0  0  0  0  0
   -0.4533    0.2612   -2.5475 H   0  0  0  0  0  0  0  0  0  0  0  0
    2.4418   -1.5143    0.3078 H   0  0  0  0  0  0  0  0  0  0  0  0
   -1.2954   -0.9932    0.9206 H   0  0  0  0  0  0  0  0  0  0  0  0
    0.5414    0.1931    2.2316 H   0  0  0  0  0  0  0  0  0  0  0  0
  1  2  1  0  0  0  0
  1 11  1  0  0  0  0
  2 12  1  0  0  0  0
  2  7  1  1  0  0  0
  3  4  1  0  0  0  0
  3  2  1  0  0  0  0
  4  5  1  0  0  0  0
  5  7  1  0  0  0  0
  5  6  2  0  0  0  0
  7 16  1  1  0  0  0
  7  8  1  0  0  0  0
  8 17  1  0  0  0  0
  9  1  1  0  0  0  0
 10  1  1  0  0  0  0
 13  3  1  0  0  0  0
 14  3  1  0  0  0  0
 15  6  1  0  0  0  0
M  END
