title
 OpenBabel02282109593D

 19 19  0  0  1  0  0  0  0  0999 V2000
   -1.9988    1.4892   -0.6042 C   0  0  0  0  0  0  0  0  0  0  0  0
   -1.1193    0.2420   -0.5778 C   0  0  1  0  0  0  0  0  0  0  0  0
    0.0478    0.2785   -1.5939 C   0  0  0  0  0  0  0  0  0  0  0  0
    0.9939   -0.6571   -1.0163 N   0  0  0  0  0  0  0  0  0  0  0  0
    0.8291   -0.8833    0.3244 C   0  0  0  0  0  0  0  0  0  0  0  0
    1.5617   -1.5429    1.0300 O   0  0  0  0  0  0  0  0  0  0  0  0
   -0.4227   -0.1053    0.7634 C   0  0  1  0  0  0  0  0  0  0  0  0
    0.0155    1.0872    1.6283 C   0  0  0  0  0  0  0  0  0  0  0  0
   -1.4303    2.3931   -0.3651 H   0  0  0  0  0  0  0  0  0  0  0  0
   -2.4419    1.6292   -1.5963 H   0  0  0  0  0  0  0  0  0  0  0  0
   -2.8202    1.4099    0.1151 H   0  0  0  0  0  0  0  0  0  0  0  0
   -1.7393   -0.6223   -0.8451 H   0  0  0  0  0  0  0  0  0  0  0  0
   -0.2695   -0.0339   -2.5943 H   0  0  0  0  0  0  0  0  0  0  0  0
    0.4716    1.2908   -1.6810 H   0  0  0  0  0  0  0  0  0  0  0  0
    1.8387   -0.9552   -1.4781 H   0  0  0  0  0  0  0  0  0  0  0  0
   -1.0448   -0.7658    1.3740 H   0  0  0  0  0  0  0  0  0  0  0  0
    0.6367    1.7931    1.0659 H   0  0  0  0  0  0  0  0  0  0  0  0
   -0.8477    1.6339    2.0181 H   0  0  0  0  0  0  0  0  0  0  0  0
    0.6063    0.7243    2.4734 H   0  0  0  0  0  0  0  0  0  0  0  0
  1  2  1  0  0  0  0
  1  9  1  0  0  0  0
  1 11  1  0  0  0  0
  2  7  1  1  0  0  0
  3  4  1  0  0  0  0
  3  2  1  0  0  0  0
  4  5  1  0  0  0  0
  5  7  1  0  0  0  0
  5  6  2  0  0  0  0
  7 16  1  1  0  0  0
  7  8  1  0  0  0  0
  8 18  1  0  0  0  0
  8 19  1  0  0  0  0
 10  1  1  0  0  0  0
 12  2  1  0  0  0  0
 13  3  1  0  0  0  0
 14  3  1  0  0  0  0
 15  4  1  0  0  0  0
 17  8  1  0  0  0  0
M  END
