18
title
C -0.9078463 2.043813 -0.54054636
C -1.0601833 0.5170087 -0.52579653
C -0.34605476 -0.16800368 -1.7197013
N 0.94419485 -0.51094687 -1.1389403
C 0.822668 -0.67297775 0.24071562
O 1.6342065 -1.1891726 0.980507
N -0.39074335 -0.12057048 0.6001755
C -0.75456786 0.08082476 1.9803028
H 0.14779608 2.3244565 -0.6085352
H -1.4372518 2.4690723 -1.3993292
H -1.3268156 2.4939625 0.3640989
H -2.1269605 0.26191822 -0.52021694
H -0.904519 -1.0553889 -2.0503364
H -0.2417819 0.5108644 -2.571153
H 1.5464702 -1.1744009 -1.6006018
H -0.065118924 -0.5101633 2.586121
H -0.6776157 1.1318877 2.2898057
H -1.7806225 -0.25831032 2.166764
