title
 OpenBabel02282109593D

 19 19  0  0  1  0  0  0  0  0999 V2000
   -0.4874    2.1741   -0.6838 C   0  0  0  0  0  0  0  0  0  0  0  0
   -0.9345    0.7169   -0.5081 C   0  0  1  0  0  0  0  0  0  0  0  0
   -0.5452   -0.1936   -1.7024 C   0  0  0  0  0  0  0  0  0  0  0  0
    0.7420   -0.8980   -1.2487 C   0  0  0  0  0  0  0  0  0  0  0  0
    0.6818   -0.8522    0.2778 C   0  0  0  0  0  0  0  0  0  0  0  0
    1.3661   -1.4837    1.0575 O   0  0  0  0  0  0  0  0  0  0  0  0
   -0.2854    0.0580    0.6202 N   0  0  0  0  0  0  0  0  0  0  0  0
   -0.5767    0.3849    1.9962 C   0  0  0  0  0  0  0  0  0  0  0  0
    0.5868    2.2328   -0.8887 H   0  0  0  0  0  0  0  0  0  0  0  0
   -1.0231    2.6354   -1.5196 H   0  0  0  0  0  0  0  0  0  0  0  0
   -0.6941    2.7676    0.2119 H   0  0  0  0  0  0  0  0  0  0  0  0
   -2.0215    0.7041   -0.3521 H   0  0  0  0  0  0  0  0  0  0  0  0
   -1.3350   -0.9305   -1.8736 H   0  0  0  0  0  0  0  0  0  0  0  0
   -0.4258    0.3813   -2.6235 H   0  0  0  0  0  0  0  0  0  0  0  0
    0.8335   -1.9298   -1.5923 H   0  0  0  0  0  0  0  0  0  0  0  0
    1.6468   -0.3700   -1.5700 H   0  0  0  0  0  0  0  0  0  0  0  0
    0.0118   -0.2883    2.6222 H   0  0  0  0  0  0  0  0  0  0  0  0
   -0.3069    1.4201    2.2393 H   0  0  0  0  0  0  0  0  0  0  0  0
   -1.6431    0.2476    2.2138 H   0  0  0  0  0  0  0  0  0  0  0  0
  1  2  1  0  0  0  0
  1 11  1  0  0  0  0
  2 12  1  1  0  0  0
  2  7  1  0  0  0  0
  3  4  1  0  0  0  0
  3  2  1  0  0  0  0
  4  5  1  0  0  0  0
  5  7  1  0  0  0  0
  5  6  2  0  0  0  0
  7  8  1  0  0  0  0
  8 19  1  0  0  0  0
  8 18  1  0  0  0  0
  8 17  1  0  0  0  0
  9  1  1  0  0  0  0
 10  1  1  0  0  0  0
 13  3  1  0  0  0  0
 14  3  1  0  0  0  0
 15  4  1  0  0  0  0
 16  4  1  0  0  0  0
M  END
