title
 OpenBabel02282109593D

 16 16  0  0  1  0  0  0  0  0999 V2000
   -1.4809    1.5762   -0.0530 C   0  0  0  0  0  0  0  0  0  0  0  0
   -0.9363    0.1524   -0.0902 C   0  0  1  0  0  0  0  0  0  0  0  0
   -0.0908   -0.2572   -1.3017 C   0  0  1  0  0  0  0  0  0  0  0  0
    0.7231    0.8466   -1.6566 O   0  0  0  0  0  0  0  0  0  0  0  0
    0.7339   -1.4123   -0.7063 C   0  0  0  0  0  0  0  0  0  0  0  0
    0.9181   -1.0925    0.6783 O   0  0  0  0  0  0  0  0  0  0  0  0
   -0.0077   -0.1752    1.0815 C   0  0  0  0  0  0  0  0  0  0  0  0
   -0.0458    0.2486    2.1986 O   0  0  0  0  0  0  0  0  0  0  0  0
   -0.6815    2.2990   -0.2214 H   0  0  0  0  0  0  0  0  0  0  0  0
   -2.2464    1.7230   -0.8201 H   0  0  0  0  0  0  0  0  0  0  0  0
   -1.9226    1.7692    0.9275 H   0  0  0  0  0  0  0  0  0  0  0  0
   -1.7673   -0.5634   -0.0122 H   0  0  0  0  0  0  0  0  0  0  0  0
   -0.6990   -0.5937   -2.1518 H   0  0  0  0  0  0  0  0  0  0  0  0
    1.2962    0.5849   -2.3838 H   0  0  0  0  0  0  0  0  0  0  0  0
    0.2077   -2.3714   -0.7921 H   0  0  0  0  0  0  0  0  0  0  0  0
    1.7211   -1.5061   -1.1673 H   0  0  0  0  0  0  0  0  0  0  0  0
  1 11  1  0  0  0  0
  2  3  1  6  0  0  0
  2  1  1  0  0  0  0
  2 12  1  0  0  0  0
  2  7  1  0  0  0  0
  3 13  1  6  0  0  0
  3  5  1  0  0  0  0
  4  3  1  0  0  0  0
  5  6  1  0  0  0  0
  6  7  1  0  0  0  0
  7  8  2  0  0  0  0
  9  1  1  0  0  0  0
 10  1  1  0  0  0  0
 14  4  1  0  0  0  0
 15  5  1  0  0  0  0
 16  5  1  0  0  0  0
M  END
