17
title
C -0.40438527 2.0345943 -0.5293299
C -1.0746924 0.6605568 -0.45743042
C -0.66481954 -0.26743576 -1.615535
O 0.5668388 -0.9071572 -1.1929485
C 0.6806069 -0.8113799 0.15188892
N 1.6715686 -1.1404923 0.86148214
C -0.56970996 -0.18156919 0.7340362
O -0.31270158 0.5246704 1.9140506
H 0.682363 1.9428974 -0.629562
H -0.7770689 2.6000926 -1.3888457
H -0.6044475 2.6031108 0.38070816
H -2.161489 0.7764123 -0.4291061
H -1.410827 -1.0466275 -1.8102565
H -0.45333266 0.26124656 -2.5475395
H 2.4418104 -1.5142688 0.30777752
H -1.2953634 -0.99322736 0.9206028
H 0.54141265 0.19308671 2.2315693
