16
title
C -1.4809281 1.5761676 -0.053013213
C -0.93625486 0.15240538 -0.090192966
C -0.090773255 -0.25722274 -1.3017031
O 0.72308636 0.84656703 -1.6565961
C 0.7339467 -1.4122657 -0.7062855
O 0.9181005 -1.0924817 0.67826617
C -0.0077189496 -0.17518206 1.0814787
O -0.045786053 0.24855493 2.1985674
H -0.68148565 2.299017 -0.22138755
H -2.2463574 1.7229517 -0.8200849
H -1.922581 1.769152 0.9274722
H -1.7672665 -0.5634096 -0.012211566
H -0.6989815 -0.5937228 -2.1517982
H 1.2961501 0.5849392 -2.3838396
H 0.20771334 -2.3714037 -0.7921046
H 1.7210685 -1.5060503 -1.1672932
