title
 OpenBabel02282109593D

 17 17  0  0  1  0  0  0  0  0999 V2000
   -1.2671    1.6639   -0.5602 C   0  0  0  0  0  0  0  0  0  0  0  0
   -1.2167    0.1339   -0.5832 C   0  0  1  0  0  0  0  0  0  0  0  0
   -0.3277   -0.4064   -1.7390 C   0  0  0  0  0  0  0  0  0  0  0  0
    0.9952   -0.4912   -1.1284 N   0  0  0  0  0  0  0  0  0  0  0  0
    0.9765   -0.4480    0.2271 C   0  0  0  0  0  0  0  0  0  0  0  0
    1.9146   -0.3942    0.9985 O   0  0  0  0  0  0  0  0  0  0  0  0
   -0.4962   -0.4473    0.6522 C   0  0  1  0  0  0  0  0  0  0  0  0
   -0.6710    0.2624    1.8475 O   0  0  0  0  0  0  0  0  0  0  0  0
   -0.2603    2.0949   -0.5489 H   0  0  0  0  0  0  0  0  0  0  0  0
   -1.7892    2.0435   -1.4440 H   0  0  0  0  0  0  0  0  0  0  0  0
   -1.7853    2.0158    0.3335 H   0  0  0  0  0  0  0  0  0  0  0  0
   -2.2309   -0.2637   -0.6735 H   0  0  0  0  0  0  0  0  0  0  0  0
   -0.6702   -1.3897   -2.0882 H   0  0  0  0  0  0  0  0  0  0  0  0
   -0.3190    0.2712   -2.5984 H   0  0  0  0  0  0  0  0  0  0  0  0
    1.8564   -0.5370   -1.6490 H   0  0  0  0  0  0  0  0  0  0  0  0
   -0.7964   -1.5029    0.7797 H   0  0  0  0  0  0  0  0  0  0  0  0
    0.2047    0.2724    2.2645 H   0  0  0  0  0  0  0  0  0  0  0  0
  1  9  1  0  0  0  0
  1 11  1  0  0  0  0
  2  1  1  0  0  0  0
  2  7  1  1  0  0  0
  3  4  1  0  0  0  0
  3  2  1  0  0  0  0
  4  5  1  0  0  0  0
  5  7  1  0  0  0  0
  5  6  2  0  0  0  0
  7 16  1  1  0  0  0
  7  8  1  0  0  0  0
  8 17  1  0  0  0  0
 10  1  1  0  0  0  0
 12  2  1  0  0  0  0
 13  3  1  0  0  0  0
 14  3  1  0  0  0  0
 15  4  1  0  0  0  0
M  END
