19
title
C -0.48741275 2.1741323 -0.6837732
C -0.93445235 0.7168722 -0.5081469
C -0.5452229 -0.19356461 -1.7024046
C 0.74198484 -0.8980321 -1.2487376
C 0.68179595 -0.8522299 0.27783576
O 1.3661002 -1.4836996 1.0574961
N -0.28542325 0.057988748 0.6202017
C -0.5767236 0.38494512 1.9962422
H 0.586792 2.2328382 -0.8887295
H -1.0230588 2.6354446 -1.5196167
H -0.6941345 2.7676156 0.21193267
H -2.0214853 0.70406455 -0.35209358
H -1.3350209 -0.93052334 -1.8736322
H -0.42577514 0.3813068 -2.623461
H 0.833472 -1.929826 -1.592316
H 1.6468004 -0.37004068 -1.5699912
H 0.011760094 -0.2882578 2.6222374
H -0.30686554 1.4201016 2.239279
H -1.6431389 0.24764608 2.2137759
