title
 OpenBabel02282109593D

 20 20  0  0  1  0  0  0  0  0999 V2000
   -1.3067    2.1495   -0.5120 C   0  0  0  0  0  0  0  0  0  0  0  0
   -0.9942    0.6562   -0.4392 C   0  0  1  0  0  0  0  0  0  0  0  0
   -0.1434    0.1285   -1.6191 C   0  0  0  0  0  0  0  0  0  0  0  0
    0.3170   -1.2606   -1.1584 C   0  0  0  0  0  0  0  0  0  0  0  0
    0.4358   -1.1418    0.3646 C   0  0  0  0  0  0  0  0  0  0  0  0
    0.9841   -1.9296    1.0926 O   0  0  0  0  0  0  0  0  0  0  0  0
   -0.2335    0.1678    0.8203 C   0  0  1  0  0  0  0  0  0  0  0  0
    0.8519    1.1180    1.3590 C   0  0  0  0  0  0  0  0  0  0  0  0
   -0.3937    2.7531   -0.5298 H   0  0  0  0  0  0  0  0  0  0  0  0
   -1.8713    2.3801   -1.4218 H   0  0  0  0  0  0  0  0  0  0  0  0
   -1.9082    2.4774    0.3425 H   0  0  0  0  0  0  0  0  0  0  0  0
   -1.9486    0.1113   -0.4634 H   0  0  0  0  0  0  0  0  0  0  0  0
   -0.7045    0.1114   -2.5574 H   0  0  0  0  0  0  0  0  0  0  0  0
    0.7233    0.7828   -1.7750 H   0  0  0  0  0  0  0  0  0  0  0  0
   -0.4476   -2.0207   -1.3689 H   0  0  0  0  0  0  0  0  0  0  0  0
    1.2509   -1.6199   -1.5968 H   0  0  0  0  0  0  0  0  0  0  0  0
   -0.9184   -0.0624    1.6434 H   0  0  0  0  0  0  0  0  0  0  0  0
    1.5675    1.4076    0.5820 H   0  0  0  0  0  0  0  0  0  0  0  0
    0.4096    2.0315    1.7655 H   0  0  0  0  0  0  0  0  0  0  0  0
    1.4088    0.6179    2.1558 H   0  0  0  0  0  0  0  0  0  0  0  0
  1  2  1  0  0  0  0
  1 11  1  0  0  0  0
  2  7  1  1  0  0  0
  3  4  1  0  0  0  0
  3  2  1  0  0  0  0
  4  5  1  0  0  0  0
  5  7  1  0  0  0  0
  5  6  2  0  0  0  0
  7  8  1  0  0  0  0
  7 17  1  1  0  0  0
  8 19  1  0  0  0  0
  8 20  1  0  0  0  0
  9  1  1  0  0  0  0
 10  1  1  0  0  0  0
 12  2  1  0  0  0  0
 13  3  1  0  0  0  0
 14  3  1  0  0  0  0
 15  4  1  0  0  0  0
 16  4  1  0  0  0  0
 18  8  1  0  0  0  0
M  END
