16
title
C -0.40237838 1.9395447 -0.7258809
C -1.0805564 0.63893014 -0.3121829
O -1.0382504 -0.36926502 -1.3460968
C 0.1921491 -1.0706662 -1.2737635
C 0.6983356 -0.845211 0.14220013
O 1.7731513 -1.1120018 0.6163682
C -0.39127237 -0.06634425 0.87226474
O 0.12774879 0.7571509 1.874958
H 0.6645346 1.795011 -0.92754614
H -0.8741062 2.3342047 -1.6293108
H -0.48863524 2.6771114 0.07576861
H -2.1420755 0.8130374 -0.121333756
H 0.022960717 -2.1325965 -1.4849008
H 0.9375916 -0.6979492 -1.9919646
H -1.0993317 -0.8082197 1.2829258
H 1.00878 0.4078244 2.0781996
