title
 OpenBabel02282110003D

 17 17  0  0  1  0  0  0  0  0999 V2000
   -0.9522    2.0568   -0.5546 C   0  0  0  0  0  0  0  0  0  0  0  0
   -1.0502    0.5270   -0.5437 C   0  0  1  0  0  0  0  0  0  0  0  0
   -0.2657   -0.1485   -1.6929 C   0  0  0  0  0  0  0  0  0  0  0  0
    0.9439   -0.6321   -1.1016 O   0  0  0  0  0  0  0  0  0  0  0  0
    0.8038   -0.6720    0.2597 C   0  0  0  0  0  0  0  0  0  0  0  0
    1.6257   -1.1497    0.9953 O   0  0  0  0  0  0  0  0  0  0  0  0
   -0.3936   -0.0912    0.5945 N   0  0  0  0  0  0  0  0  0  0  0  0
   -0.7951    0.0880    1.9694 C   0  0  0  0  0  0  0  0  0  0  0  0
    0.0948    2.3768   -0.5641 H   0  0  0  0  0  0  0  0  0  0  0  0
   -1.4460    2.4597   -1.4447 H   0  0  0  0  0  0  0  0  0  0  0  0
   -1.4382    2.4948    0.3220 H   0  0  0  0  0  0  0  0  0  0  0  0
   -2.1069    0.2327   -0.5763 H   0  0  0  0  0  0  0  0  0  0  0  0
   -0.8154   -0.9949   -2.1193 H   0  0  0  0  0  0  0  0  0  0  0  0
   -0.0069    0.5487   -2.4932 H   0  0  0  0  0  0  0  0  0  0  0  0
   -0.1080   -0.4918    2.5878 H   0  0  0  0  0  0  0  0  0  0  0  0
   -0.7468    1.1383    2.2830 H   0  0  0  0  0  0  0  0  0  0  0  0
   -1.8178   -0.2743    2.1272 H   0  0  0  0  0  0  0  0  0  0  0  0
  1  2  1  0  0  0  0
  1 11  1  0  0  0  0
  2 12  1  6  0  0  0
  2  7  1  0  0  0  0
  3  4  1  0  0  0  0
  3  2  1  0  0  0  0
  4  5  1  0  0  0  0
  5  7  1  0  0  0  0
  5  6  2  0  0  0  0
  7  8  1  0  0  0  0
  8 17  1  0  0  0  0
  8 16  1  0  0  0  0
  8 15  1  0  0  0  0
  9  1  1  0  0  0  0
 10  1  1  0  0  0  0
 13  3  1  0  0  0  0
 14  3  1  0  0  0  0
M  END
