title
 OpenBabel02282110003D

 16 16  0  0  1  0  0  0  0  0999 V2000
   -0.8978    1.9035   -0.4757 C   0  0  0  0  0  0  0  0  0  0  0  0
   -1.1905    0.4014   -0.5065 C   0  0  1  0  0  0  0  0  0  0  0  0
   -0.4776   -0.3218   -1.6680 C   0  0  0  0  0  0  0  0  0  0  0  0
    0.8476   -0.6508   -1.1799 O   0  0  0  0  0  0  0  0  0  0  0  0
    0.8516   -0.6204    0.1672 C   0  0  0  0  0  0  0  0  0  0  0  0
    1.8311   -0.7582    0.8469 O   0  0  0  0  0  0  0  0  0  0  0  0
   -0.5607   -0.3490    0.6801 C   0  0  1  0  0  0  0  0  0  0  0  0
   -0.5426    0.3351    1.9005 O   0  0  0  0  0  0  0  0  0  0  0  0
    0.1793    2.1014   -0.4969 H   0  0  0  0  0  0  0  0  0  0  0  0
   -1.3489    2.3988   -1.3407 H   0  0  0  0  0  0  0  0  0  0  0  0
   -1.2980    2.3522    0.4352 H   0  0  0  0  0  0  0  0  0  0  0  0
   -2.2691    0.2323   -0.5612 H   0  0  0  0  0  0  0  0  0  0  0  0
   -0.9804   -1.2524   -1.9533 H   0  0  0  0  0  0  0  0  0  0  0  0
   -0.3492    0.3000   -2.5560 H   0  0  0  0  0  0  0  0  0  0  0  0
   -1.0569   -1.3306    0.7864 H   0  0  0  0  0  0  0  0  0  0  0  0
    0.3281    0.1638    2.2884 H   0  0  0  0  0  0  0  0  0  0  0  0
  1 11  1  0  0  0  0
  2  1  1  0  0  0  0
  2  7  1  1  0  0  0
  3  4  1  0  0  0  0
  3  2  1  0  0  0  0
  4  5  1  0  0  0  0
  5  7  1  0  0  0  0
  5  6  2  0  0  0  0
  7 15  1  1  0  0  0
  7  8  1  0  0  0  0
  8 16  1  0  0  0  0
  9  1  1  0  0  0  0
 10  1  1  0  0  0  0
 12  2  1  0  0  0  0
 13  3  1  0  0  0  0
 14  3  1  0  0  0  0
M  END
