title
 OpenBabel02282110003D

 15 15  0  0  1  0  0  0  0  0999 V2000
    1.0366    1.5764   -0.5680 O   0  0  0  0  0  0  0  0  0  0  0  0
    1.1179    0.1775   -0.7150 C   0  0  1  0  0  0  0  0  0  0  0  0
    1.6539   -0.4316    0.6011 C   0  0  0  0  0  0  0  0  0  0  0  0
    0.4437   -0.6533    1.3888 N   0  0  0  0  0  0  0  0  0  0  0  0
   -0.7018   -0.5237    0.6772 C   0  0  0  0  0  0  0  0  0  0  0  0
   -1.8486   -0.4636    1.0752 O   0  0  0  0  0  0  0  0  0  0  0  0
   -0.3009   -0.4146   -0.7994 C   0  0  1  0  0  0  0  0  0  0  0  0
   -1.1983    0.4191   -1.4902 O   0  0  0  0  0  0  0  0  0  0  0  0
    0.2290    1.8375   -1.0353 H   0  0  0  0  0  0  0  0  0  0  0  0
    1.7512   -0.0980   -1.5683 H   0  0  0  0  0  0  0  0  0  0  0  0
    2.1958   -1.3682    0.4198 H   0  0  0  0  0  0  0  0  0  0  0  0
    2.3267    0.2764    1.0914 H   0  0  0  0  0  0  0  0  0  0  0  0
    0.4333   -0.6840    2.3958 H   0  0  0  0  0  0  0  0  0  0  0  0
   -0.2734   -1.4226   -1.2414 H   0  0  0  0  0  0  0  0  0  0  0  0
   -2.0006    0.4329   -0.9428 H   0  0  0  0  0  0  0  0  0  0  0  0
  2  7  1  6  0  0  0
  2  1  1  0  0  0  0
  2  3  1  0  0  0  0
  3 12  1  0  0  0  0
  3  4  1  0  0  0  0
  4 13  1  0  0  0  0
  5  6  2  0  0  0  0
  5  4  1  0  0  0  0
  7 14  1  6  0  0  0
  7  5  1  0  0  0  0
  8 15  1  0  0  0  0
  8  7  1  0  0  0  0
  9  1  1  0  0  0  0
 10  2  1  0  0  0  0
 11  3  1  0  0  0  0
M  END
