17
title
C -0.33046928 1.9719819 -0.68116945
C -1.0652425 0.6648549 -0.39015612
N -0.9316128 -0.30301616 -1.5118339
C 0.3140928 -1.0580659 -1.3038657
C 0.68717396 -0.8439976 0.16069242
O 1.7224511 -1.1000555 0.7235591
C -0.4692529 -0.09542278 0.81817645
O -0.048895277 0.66528934 1.9124197
H 0.7357415 1.8019367 -0.8684909
H -0.7557286 2.450941 -1.5663259
H -0.4090511 2.6481135 0.17318127
H -2.1279597 0.8734588 -0.24338982
H -1.7199407 -0.93912435 -1.4963776
H 0.20129324 -2.1217113 -1.5356865
H 1.1312069 -0.6821517 -1.9329251
H -1.207503 -0.8611686 1.1258454
H 0.8263049 0.3226922 2.1521685
