title
 OpenBabel02282110003D

 15 15  0  0  1  0  0  0  0  0999 V2000
    0.7028    1.3862    1.2850 N   0  0  0  0  0  0  0  0  0  0  0  0
    0.5875    0.0358    0.7624 C   0  0  1  0  0  0  0  0  0  0  0  0
   -0.8317   -0.5546    0.8968 C   0  0  1  0  0  0  0  0  0  0  0  0
   -1.7846    0.4666    0.7560 O   0  0  0  0  0  0  0  0  0  0  0  0
   -0.8818   -1.4835   -0.3220 C   0  0  0  0  0  0  0  0  0  0  0  0
   -0.0262   -0.8823   -1.3196 O   0  0  0  0  0  0  0  0  0  0  0  0
    0.7775    0.0408   -0.7584 C   0  0  0  0  0  0  0  0  0  0  0  0
    1.5174    0.7513   -1.3788 O   0  0  0  0  0  0  0  0  0  0  0  0
    1.1282    1.4009    2.2040 H   0  0  0  0  0  0  0  0  0  0  0  0
    1.2861    1.9308    0.6547 H   0  0  0  0  0  0  0  0  0  0  0  0
    1.3256   -0.6695    1.1744 H   0  0  0  0  0  0  0  0  0  0  0  0
   -0.9764   -1.1175    1.8300 H   0  0  0  0  0  0  0  0  0  0  0  0
   -1.3263    1.2752    1.0480 H   0  0  0  0  0  0  0  0  0  0  0  0
   -0.5057   -2.4869   -0.0948 H   0  0  0  0  0  0  0  0  0  0  0  0
   -1.8873   -1.5493   -0.7395 H   0  0  0  0  0  0  0  0  0  0  0  0
  1  9  1  0  0  0  0
  2  3  1  1  0  0  0
  2 11  1  0  0  0  0
  2  1  1  0  0  0  0
  3 12  1  1  0  0  0
  4  3  1  0  0  0  0
  4 13  1  0  0  0  0
  5 14  1  0  0  0  0
  5  3  1  0  0  0  0
  6  7  1  0  0  0  0
  6  5  1  0  0  0  0
  7  2  1  0  0  0  0
  8  7  2  0  0  0  0
 10  1  1  0  0  0  0
 15  5  1  0  0  0  0
M  END
