16
title
O 0.29847518 1.9708452 1.3273759
C 0.16473927 0.59108406 1.0999305
C -1.2939357 0.08718593 0.97048193
C -1.1492324 -1.3024226 0.32919207
C 0.051856916 -1.1556199 -0.5997561
O 0.32215464 -1.8320625 -1.5597781
C 0.8425404 0.10712481 -0.19379088
O 0.60498196 1.1035508 -1.1867994
H 0.2246525 2.3962042 0.46355453
H 0.6405172 0.08438713 1.9490224
H -1.811632 0.07845224 1.9314076
H -1.8390131 0.7594121 0.29921582
H -0.89218575 -2.0600939 1.0830773
H -2.0251172 -1.6707258 -0.2090461
H 1.9152604 -0.095144205 -0.08561465
H 0.8262454 0.7198906 -2.0432768
