title
 OpenBabel02282110003D

 16 16  0  0  1  0  0  0  0  0999 V2000
   -0.4024    1.9395   -0.7259 C   0  0  0  0  0  0  0  0  0  0  0  0
   -1.0806    0.6389   -0.3122 C   0  0  1  0  0  0  0  0  0  0  0  0
   -1.0383   -0.3693   -1.3461 O   0  0  0  0  0  0  0  0  0  0  0  0
    0.1921   -1.0707   -1.2738 C   0  0  0  0  0  0  0  0  0  0  0  0
    0.6983   -0.8452    0.1422 C   0  0  0  0  0  0  0  0  0  0  0  0
    1.7732   -1.1120    0.6164 O   0  0  0  0  0  0  0  0  0  0  0  0
   -0.3913   -0.0663    0.8723 C   0  0  1  0  0  0  0  0  0  0  0  0
    0.1277    0.7572    1.8750 O   0  0  0  0  0  0  0  0  0  0  0  0
    0.6645    1.7950   -0.9275 H   0  0  0  0  0  0  0  0  0  0  0  0
   -0.8741    2.3342   -1.6293 H   0  0  0  0  0  0  0  0  0  0  0  0
   -0.4886    2.6771    0.0758 H   0  0  0  0  0  0  0  0  0  0  0  0
   -2.1421    0.8130   -0.1213 H   0  0  0  0  0  0  0  0  0  0  0  0
    0.0230   -2.1326   -1.4849 H   0  0  0  0  0  0  0  0  0  0  0  0
    0.9376   -0.6979   -1.9920 H   0  0  0  0  0  0  0  0  0  0  0  0
   -1.0993   -0.8082    1.2829 H   0  0  0  0  0  0  0  0  0  0  0  0
    1.0088    0.4078    2.0782 H   0  0  0  0  0  0  0  0  0  0  0  0
  1  2  1  0  0  0  0
  1 11  1  0  0  0  0
  2 12  1  0  0  0  0
  2  7  1  1  0  0  0
  3  4  1  0  0  0  0
  3  2  1  0  0  0  0
  4  5  1  0  0  0  0
  5  6  2  0  0  0  0
  5  7  1  0  0  0  0
  7 15  1  1  0  0  0
  7  8  1  0  0  0  0
  8 16  1  0  0  0  0
  9  1  1  0  0  0  0
 10  1  1  0  0  0  0
 13  4  1  0  0  0  0
 14  4  1  0  0  0  0
M  END
