19
title
C -0.22162229 2.1319437 0.033590104
C -0.5909091 0.64341164 -0.0456063
N -0.07930433 -0.006932074 -1.2615318
C -1.0300719 -0.9337025 -1.8657365
C 1.193324 -0.65386754 -0.87823033
C 1.0203488 -1.1348245 0.5727515
C 0.025563544 -0.12325137 1.1453253
O -0.22789672 0.06799457 2.3060763
H 0.86135036 2.2741747 -0.038763396
H -0.68878984 2.6793184 -0.7887615
H -0.5589683 2.5505066 0.9858591
H -1.6807784 0.5476725 0.008115438
H -1.9363136 -0.39117074 -2.1512055
H -0.59700876 -1.3569363 -2.777245
H -1.3340664 -1.7738376 -1.2131643
H 1.4324424 -1.4556861 -1.5797204
H 2.004354 0.082220264 -0.936605
H 0.55686253 -2.1281106 0.61694556
H 1.9339497 -1.1734774 1.1698368
