title
 OpenBabel02282110003D

 20 20  0  0  1  0  0  0  0  0999 V2000
   -0.7941    2.1768   -0.6503 C   0  0  0  0  0  0  0  0  0  0  0  0
   -0.9219    0.6588   -0.5135 C   0  0  1  0  0  0  0  0  0  0  0  0
   -0.3219    0.0273   -1.6474 O   0  0  0  0  0  0  0  0  0  0  0  0
    0.6117   -0.9534   -1.2212 C   0  0  0  0  0  0  0  0  0  0  0  0
    0.6579   -0.8563    0.2818 C   0  0  0  0  0  0  0  0  0  0  0  0
    1.5783   -1.7237    1.0783 C   0  0  0  0  0  0  0  0  0  0  0  0
   -0.2225    0.0614    0.6888 C   0  0  0  0  0  0  0  0  0  0  0  0
   -0.5704    0.4906    2.0785 C   0  0  0  0  0  0  0  0  0  0  0  0
    0.2579    2.4775   -0.6252 H   0  0  0  0  0  0  0  0  0  0  0  0
   -1.2245    2.5006   -1.6021 H   0  0  0  0  0  0  0  0  0  0  0  0
   -1.3274    2.6899    0.1568 H   0  0  0  0  0  0  0  0  0  0  0  0
   -1.9976    0.4041   -0.4914 H   0  0  0  0  0  0  0  0  0  0  0  0
    0.2943   -1.9572   -1.5542 H   0  0  0  0  0  0  0  0  0  0  0  0
    1.5921   -0.7614   -1.6874 H   0  0  0  0  0  0  0  0  0  0  0  0
    1.3788   -2.7870    0.8925 H   0  0  0  0  0  0  0  0  0  0  0  0
    2.6253   -1.5500    0.7984 H   0  0  0  0  0  0  0  0  0  0  0  0
    1.4866   -1.5486    2.1529 H   0  0  0  0  0  0  0  0  0  0  0  0
   -0.0215   -0.0769    2.8339 H   0  0  0  0  0  0  0  0  0  0  0  0
   -0.3534    1.5540    2.2371 H   0  0  0  0  0  0  0  0  0  0  0  0
   -1.6426    0.3586    2.2737 H   0  0  0  0  0  0  0  0  0  0  0  0
  1  9  1  0  0  0  0
  1  2  1  0  0  0  0
  1 11  1  0  0  0  0
  2 12  1  1  0  0  0
  2  7  1  0  0  0  0
  3  4  1  0  0  0  0
  3  2  1  0  0  0  0
  4  5  1  0  0  0  0
  5  7  2  0  0  0  0
  5  6  1  0  0  0  0
  6 17  1  0  0  0  0
  7  8  1  0  0  0  0
  8 19  1  0  0  0  0
  8 20  1  0  0  0  0
  8 18  1  0  0  0  0
 10  1  1  0  0  0  0
 13  4  1  0  0  0  0
 14  4  1  0  0  0  0
 15  6  1  0  0  0  0
 16  6  1  0  0  0  0
M  END
