19
title
C -1.1832869 2.15985 -0.54499876
C -0.9580786 0.6508381 -0.55974746
C -0.16310796 0.086770006 -1.7496272
C 0.5470633 -1.1541799 -1.1721492
N 0.6740934 -0.83604676 0.238887
C 1.452993 -1.6370001 1.1516428
C -0.16698298 0.16012046 0.66055167
O -0.27428636 0.56209534 1.8024446
H -0.23623595 2.6979556 -0.6604758
H -1.8509482 2.4701412 -1.3544768
H -1.6233718 2.4597375 0.40945032
H -1.933373 0.14611891 -0.49850628
H -0.7831748 -0.15594482 -2.6151848
H 0.58464867 0.8203006 -2.0701942
H -0.044018593 -2.0720332 -1.3189284
H 1.531159 -1.3255197 -1.6236321
H 2.511654 -1.6439817 0.86555266
H 1.348818 -1.1988777 2.1459105
H 1.0982841 -2.676239 1.1777228
