title
 OpenBabel02282110003D

 18 18  0  0  1  0  0  0  0  0999 V2000
   -1.4556    1.9562   -0.4027 C   0  0  0  0  0  0  0  0  0  0  0  0
   -1.0582    0.4880   -0.5048 C   0  0  1  0  0  0  0  0  0  0  0  0
   -0.0520    0.0979   -1.5931 C   0  0  0  0  0  0  0  0  0  0  0  0
    0.5589   -1.1128   -1.1408 O   0  0  0  0  0  0  0  0  0  0  0  0
    0.6959   -1.0594    0.2752 C   0  0  1  0  0  0  0  0  0  0  0  0
    2.1044   -0.6633    0.7257 C   0  0  0  0  0  0  0  0  0  0  0  0
   -0.3546   -0.0455    0.7459 C   0  0  0  0  0  0  0  0  0  0  0  0
   -0.5557    0.2865    1.8851 O   0  0  0  0  0  0  0  0  0  0  0  0
   -0.5706    2.5994   -0.3570 H   0  0  0  0  0  0  0  0  0  0  0  0
   -2.0579    2.2680   -1.2608 H   0  0  0  0  0  0  0  0  0  0  0  0
   -2.0353    2.1230    0.5090 H   0  0  0  0  0  0  0  0  0  0  0  0
   -1.9558   -0.1363   -0.6263 H   0  0  0  0  0  0  0  0  0  0  0  0
   -0.5046   -0.1079   -2.5658 H   0  0  0  0  0  0  0  0  0  0  0  0
    0.6985    0.8944   -1.7258 H   0  0  0  0  0  0  0  0  0  0  0  0
    0.4481   -2.0509    0.6743 H   0  0  0  0  0  0  0  0  0  0  0  0
    2.3885    0.3140    0.3230 H   0  0  0  0  0  0  0  0  0  0  0  0
    2.1385   -0.6078    1.8173 H   0  0  0  0  0  0  0  0  0  0  0  0
    2.8312   -1.4024    0.3800 H   0  0  0  0  0  0  0  0  0  0  0  0
  1  9  1  0  0  0  0
  1 11  1  0  0  0  0
  2 12  1  6  0  0  0
  2  1  1  0  0  0  0
  2  7  1  0  0  0  0
  3  4  1  0  0  0  0
  3  2  1  0  0  0  0
  4  5  1  0  0  0  0
  5 15  1  1  0  0  0
  5  6  1  0  0  0  0
  5  7  1  0  0  0  0
  6 17  1  0  0  0  0
  7  8  2  0  0  0  0
 10  1  1  0  0  0  0
 13  3  1  0  0  0  0
 14  3  1  0  0  0  0
 16  6  1  0  0  0  0
 18  6  1  0  0  0  0
M  END
