20
title
C -1.2465253 1.9187871 -0.4933909
C -1.1882781 0.3822676 -0.51916975
C -0.44955066 -0.20507124 -1.7411282
C 0.9960774 -0.45097396 -1.2541716
C 0.82920635 -0.92654854 0.19836317
C 2.0412562 -0.81999785 1.1182412
C -0.38467476 -0.12782407 0.6908101
O -0.652721 0.096813895 1.8447422
H -0.2513261 2.358991 -0.62024933
H -1.8841598 2.2940707 -1.2993714
H -1.6478894 2.2644331 0.46279103
H -2.2114139 0.00030394818 -0.43355557
H -0.90371287 -1.1583323 -2.0343254
H -0.4928082 0.45302752 -2.6134322
H 1.5365824 -1.165807 -1.8801553
H 1.5679983 0.48575705 -1.2680525
H 0.48576328 -1.9742795 0.17628787
H 2.4455154 0.19797936 1.1129692
H 1.757212 -1.0582327 2.1466734
H 2.838496 -1.5015537 0.80728984
