17
title
C -1.2970047 1.9519186 -0.5082672
C -1.1639856 0.4240054 -0.52566594
N -0.41190526 -0.07155611 -1.6984224
C 0.938749 -0.45414686 -1.2348514
C 0.731034 -1.0055671 0.18494053
O 1.8458267 -1.0096031 1.0271771
C -0.3690571 -0.07298865 0.68672955
O -0.47441074 0.2707278 1.8384321
H -0.3150235 2.4275417 -0.5881128
H -1.9047157 2.2844117 -1.3529202
H -1.7623273 2.2781835 0.4258518
H -2.1676528 -0.017438434 -0.49891537
H -0.8740003 -0.8865808 -2.0838547
H 1.3910545 -1.1685554 -1.9244448
H 1.5900952 0.42718574 -1.1872501
H 0.2863057 -2.0160186 0.099774145
H 1.5382153 -0.65450287 1.875411
