16
title
C -1.2739433 1.933895 -0.5037598
C -1.1584929 0.40863624 -0.49251848
O -0.4525421 -0.105798535 -1.6231372
C 0.8891501 -0.4252735 -1.2378885
C 0.7436649 -0.9973062 0.1761596
O 1.8910142 -0.9586896 0.97276276
C -0.3660656 -0.095646076 0.7098543
O -0.48019323 0.22170106 1.8669186
H -0.28602508 2.4026728 -0.5358506
H -1.8407847 2.2588089 -1.3792473
H -1.7850889 2.271314 0.40223283
H -2.161321 -0.03767478 -0.49260166
H 1.2814444 -1.1309842 -1.971503
H 1.5385808 0.46259296 -1.2125638
H 0.33191147 -2.0196278 0.09934037
H 1.6014029 -0.6525196 1.8453243
