14
title
O 0.8811637 1.7414242 -0.26193994
C 1.0595541 0.41638553 -0.70262295
C 1.6533929 -0.41860512 0.4400341
O 0.5306619 -0.8467413 1.2504578
C -0.6153063 -0.6805245 0.56814045
O -1.7148395 -0.8099437 1.030371
C -0.30429748 -0.26557592 -0.8695334
O -1.292433 0.5924005 -1.3780944
H 0.06117084 2.048563 -0.6751236
H 1.6843132 0.3676667 -1.6041087
H 2.1828887 -1.3043172 0.07470452
H 2.3127255 0.17581531 1.0733223
H -0.20514898 -1.1752396 -1.4828218
H -2.081871 0.43980762 -0.83645445
