title
 OpenBabel02282110003D

 22 22  0  0  1  0  0  0  0  0999 V2000
   -1.0906    2.1720   -0.6061 C   0  0  0  0  0  0  0  0  0  0  0  0
   -0.9357    0.6467   -0.5734 C   0  0  1  0  0  0  0  0  0  0  0  0
   -0.1299    0.0870   -1.7704 C   0  0  0  0  0  0  0  0  0  0  0  0
    0.6329   -1.1326   -1.2146 C   0  0  0  0  0  0  0  0  0  0  0  0
    0.6701   -0.8771    0.2789 C   0  0  0  0  0  0  0  0  0  0  0  0
    1.5481   -1.7152    1.1557 C   0  0  0  0  0  0  0  0  0  0  0  0
   -0.1845    0.0936    0.6320 C   0  0  0  0  0  0  0  0  0  0  0  0
   -0.4961    0.5889    2.0114 C   0  0  0  0  0  0  0  0  0  0  0  0
   -0.1126    2.6656   -0.5655 H   0  0  0  0  0  0  0  0  0  0  0  0
   -1.5874    2.4908   -1.5288 H   0  0  0  0  0  0  0  0  0  0  0  0
   -1.6889    2.5405    0.2334 H   0  0  0  0  0  0  0  0  0  0  0  0
   -1.9502    0.2137   -0.5737 H   0  0  0  0  0  0  0  0  0  0  0  0
   -0.7599   -0.1513   -2.6320 H   0  0  0  0  0  0  0  0  0  0  0  0
    0.5888    0.8478   -2.0971 H   0  0  0  0  0  0  0  0  0  0  0  0
    0.1076   -2.0767   -1.4254 H   0  0  0  0  0  0  0  0  0  0  0  0
    1.6339   -1.2418   -1.6506 H   0  0  0  0  0  0  0  0  0  0  0  0
    1.3018   -2.7806    1.0532 H   0  0  0  0  0  0  0  0  0  0  0  0
    2.6027   -1.6150    0.8668 H   0  0  0  0  0  0  0  0  0  0  0  0
    1.4661   -1.4544    2.2136 H   0  0  0  0  0  0  0  0  0  0  0  0
    0.0630    0.0557    2.7839 H   0  0  0  0  0  0  0  0  0  0  0  0
   -0.2708    1.6574    2.1164 H   0  0  0  0  0  0  0  0  0  0  0  0
   -1.5655    0.4762    2.2360 H   0  0  0  0  0  0  0  0  0  0  0  0
  1  2  1  0  0  0  0
  1  9  1  0  0  0  0
  1 11  1  0  0  0  0
  2 12  1  6  0  0  0
  2  7  1  0  0  0  0
  3  4  1  0  0  0  0
  3  2  1  0  0  0  0
  4  5  1  0  0  0  0
  5  7  2  0  0  0  0
  5  6  1  0  0  0  0
  6 19  1  0  0  0  0
  7  8  1  0  0  0  0
  8 21  1  0  0  0  0
  8 22  1  0  0  0  0
  8 20  1  0  0  0  0
 10  1  1  0  0  0  0
 13  3  1  0  0  0  0
 14  3  1  0  0  0  0
 15  4  1  0  0  0  0
 16  4  1  0  0  0  0
 17  6  1  0  0  0  0
 18  6  1  0  0  0  0
M  END
