title
 OpenBabel02282110003D

 22 22  0  0  1  0  0  0  0  0999 V2000
   -0.6798    1.8376   -0.5348 C   0  0  0  0  0  0  0  0  0  0  0  0
   -1.1460    0.3782   -0.4337 C   0  0  1  0  0  0  0  0  0  0  0  0
   -0.6967   -0.4745   -1.6437 C   0  0  0  0  0  0  0  0  0  0  0  0
    0.6711   -1.0989   -1.2488 C   0  0  0  0  0  0  0  0  0  0  0  0
    0.8453   -0.8557    0.2738 C   0  0  1  0  0  0  0  0  0  0  0  0
    1.7759    0.1920    0.5525 O   0  0  0  0  0  0  0  0  0  0  0  0
   -0.5490   -0.4128    0.7601 C   0  0  1  0  0  0  0  0  0  0  0  0
   -0.5702    0.2706    2.1262 C   0  0  0  0  0  0  0  0  0  0  0  0
    0.4092    1.9053   -0.5924 H   0  0  0  0  0  0  0  0  0  0  0  0
   -1.1066    2.3102   -1.4261 H   0  0  0  0  0  0  0  0  0  0  0  0
   -1.0026    2.4212    0.3332 H   0  0  0  0  0  0  0  0  0  0  0  0
   -2.2401    0.3781   -0.3593 H   0  0  0  0  0  0  0  0  0  0  0  0
   -1.4267   -1.2707   -1.8247 H   0  0  0  0  0  0  0  0  0  0  0  0
   -0.6370    0.1125   -2.5648 H   0  0  0  0  0  0  0  0  0  0  0  0
    0.7034   -2.1664   -1.4869 H   0  0  0  0  0  0  0  0  0  0  0  0
    1.5028   -0.6299   -1.7843 H   0  0  0  0  0  0  0  0  0  0  0  0
    1.1671   -1.7697    0.7944 H   0  0  0  0  0  0  0  0  0  0  0  0
    2.6355   -0.0822    0.2192 H   0  0  0  0  0  0  0  0  0  0  0  0
   -1.1373   -1.3392    0.8332 H   0  0  0  0  0  0  0  0  0  0  0  0
    0.0640    1.1588    2.1386 H   0  0  0  0  0  0  0  0  0  0  0  0
   -1.5893    0.5680    2.3960 H   0  0  0  0  0  0  0  0  0  0  0  0
   -0.2050   -0.4063    2.9061 H   0  0  0  0  0  0  0  0  0  0  0  0
  1  2  1  0  0  0  0
  1 11  1  0  0  0  0
  2 12  1  0  0  0  0
  2  7  1  1  0  0  0
  3  4  1  0  0  0  0
  3  2  1  0  0  0  0
  4  5  1  0  0  0  0
  5  6  1  0  0  0  0
  5  7  1  1  0  0  0
  5 17  1  0  0  0  0
  7 19  1  1  0  0  0
  7  8  1  0  0  0  0
  8 20  1  0  0  0  0
  8 21  1  0  0  0  0
  8 22  1  0  0  0  0
  9  1  1  0  0  0  0
 10  1  1  0  0  0  0
 13  3  1  0  0  0  0
 14  3  1  0  0  0  0
 15  4  1  0  0  0  0
 16  4  1  0  0  0  0
 18  6  1  0  0  0  0
M  END
