24
title
C -2.123989 1.4320581 -0.50101024
C -1.1994693 0.2156586 -0.49792463
C -0.14442852 0.21641104 -1.6333083
C 1.0358107 -0.6483019 -1.114536
C 0.6228925 -1.1195109 0.30309185
C 1.7990551 -1.4421949 1.2233584
C -0.36819485 -0.029608272 0.78831387
C 0.31714472 1.2317995 1.3316939
H -1.5613583 2.3680532 -0.4207413
H -2.7018557 1.4779092 -1.4306343
H -2.8381908 1.397703 0.32942417
H -1.8262635 -0.67740554 -0.6296222
H -0.5652483 -0.16293567 -2.5693166
H 0.18704006 1.2406615 -1.8382907
H 1.2558131 -1.4971532 -1.7688719
H 1.9557879 -0.05522772 -1.0608406
H 0.031208728 -2.038299 0.18682702
H 2.4632547 -0.58061445 1.3482621
H 1.4594388 -1.750984 2.2184443
H 2.4004657 -2.2603624 0.8120917
H -1.0112032 -0.43111807 1.5819442
H 0.9809096 1.6944988 0.59281766
H -0.4198332 1.9841727 1.6277084
H 0.9190235 1.0032526 2.2161906
