17
title
C -0.54090315 2.4352212 0.16159469
N -0.5184431 0.9917885 0.14003153
C -1.7238548 0.17232195 0.1856202
C -1.2195685 -1.2308885 -0.21913682
C 0.24284886 -1.2187222 0.23245662
O 1.0933205 -2.0217195 -0.5427603
C 0.6259095 0.25941965 0.11777818
O 1.7694551 0.66548073 0.010102715
H 0.49050334 2.7840884 0.08407512
H -1.1208975 2.8312082 -0.68060654
H -0.98171884 2.8143706 1.0921679
H -2.1656287 0.17670718 1.1928747
H -2.4792252 0.56343323 -0.5049022
H -1.8139445 -2.0327861 0.22145808
H -1.237712 -1.3411647 -1.3073934
H 0.31179097 -1.490693 1.3013228
H 1.9292454 -1.5336679 -0.58991826
