22
title
C -2.0752318 1.4735737 -0.46220985
C -1.2324647 0.19934192 -0.4683798
C -0.2285455 0.10026928 -1.6463588
C 0.9753607 -0.72581345 -1.1156304
C 0.6112159 -1.1235887 0.33664465
C 1.8092175 -1.3542254 1.254926
C -0.34960145 -0.009910753 0.77997243
O 0.43498832 1.1419295 1.0825082
H -1.4394145 2.3649364 -0.4129005
H -2.6715283 1.5551678 -1.3767359
H -2.7705228 1.4985092 0.38539284
H -1.912537 -0.6624396 -0.5115464
H -0.6942353 -0.35292527 -2.5263846
H 0.09701638 1.1018701 -1.9440613
H 1.1865716 -1.6056774 -1.7303351
H 1.8836384 -0.11567322 -1.112374
H 0.0117329825 -2.0434399 0.3025859
H 2.394016 -0.43716887 1.3613857
H 1.4921539 -1.6690365 2.255215
H 2.4630544 -2.135188 0.85224247
H -0.9439703 -0.3051218 1.6585608
H -0.16085108 1.8442386 1.3583926
