20
title
C -1.422499 1.8470004 -0.3085032
C -1.1353922 0.36049047 -0.5124528
C -0.14671089 0.058924537 -1.663773
C 0.5349597 -1.2568467 -1.2469006
C 0.7548996 -1.0807489 0.25565663
O 1.906259 -0.27589595 0.54721564
C -0.53447074 -0.35869676 0.7542941
O -0.25992873 0.48984492 1.845093
H -0.5087937 2.3965206 -0.061213657
H -1.8484658 2.2866564 -1.2168303
H -2.1246777 2.0066657 0.5136859
H -2.081686 -0.14142343 -0.74894273
H -0.6346161 -0.0046890997 -2.6402175
H 0.59376884 0.86829525 -1.7477006
H -0.14515437 -2.1003494 -1.4152671
H 1.4664305 -1.4745035 -1.777925
H 0.92895377 -2.0203059 0.7855343
H 2.0034564 0.38066584 -0.15129621
H -1.2503929 -1.1118089 1.1049204
H 0.6967777 0.6407471 1.815114
