18
title
C -0.5962162 2.3913264 0.0076392633
N -0.557046 0.96287966 -0.19207212
C -1.71567 0.12628895 0.056604255
C -1.1340685 -1.2888838 -0.12389176
N 0.26782632 -1.0808545 0.18519604
C 1.2466716 -2.1259768 0.00784585
C 0.61634386 0.25143915 0.014459624
O 1.7410536 0.71029615 0.04109051
H 0.42298448 2.7683218 -0.09276301
H -1.2347254 2.87088 -0.74235356
H -0.97674596 2.6573029 1.0058166
H -2.1022687 0.27104926 1.0786219
H -2.5295298 0.3363542 -0.6445256
H -1.5964823 -2.0196176 0.54713804
H -1.2674843 -1.6458088 -1.1581733
H 1.2014006 -2.5658205 -1.0003164
H 2.2337103 -1.6844858 0.15555315
H 1.0958323 -2.927438 0.7393258
