title
 OpenBabel02282110003D

 17 18  0  0  1  0  0  0  0  0999 V2000
   -0.5123    2.0049    0.1486 C   0  0  0  0  0  0  0  0  0  0  0  0
   -0.3612    0.5027    0.0799 C   0  0  2  0  0  0  0  0  0  0  0  0
   -1.6018   -0.3974    0.3252 C   0  0  0  0  0  0  0  0  0  0  0  0
   -0.7376   -1.1706    1.3533 C   0  0  0  0  0  0  0  0  0  0  0  0
    0.4238   -0.2371    1.1685 N   0  0  1  0  0  0  0  0  0  0  0  0
    1.4071   -0.7524    0.1677 C   0  0  0  0  0  0  0  0  0  0  0  0
    0.6299   -0.0523   -0.9630 C   0  0  0  0  0  0  0  0  0  0  0  0
    0.7508    0.0557   -2.1469 O   0  0  0  0  0  0  0  0  0  0  0  0
    0.4625    2.5017    0.1720 H   0  0  0  0  0  0  0  0  0  0  0  0
   -1.0564    2.3641   -0.7316 H   0  0  0  0  0  0  0  0  0  0  0  0
   -1.0677    2.2972    1.0452 H   0  0  0  0  0  0  0  0  0  0  0  0
   -2.4397    0.1504    0.7626 H   0  0  0  0  0  0  0  0  0  0  0  0
   -1.9666   -0.9589   -0.5373 H   0  0  0  0  0  0  0  0  0  0  0  0
   -1.1122   -1.1560    2.3801 H   0  0  0  0  0  0  0  0  0  0  0  0
   -0.5119   -2.2089    1.0859 H   0  0  0  0  0  0  0  0  0  0  0  0
    2.4126   -0.3436    0.3193 H   0  0  0  0  0  0  0  0  0  0  0  0
    1.4852   -1.8432    0.0948 H   0  0  0  0  0  0  0  0  0  0  0  0
  1  9  1  0  0  0  0
  1 11  1  0  0  0  0
  2  1  1  0  0  0  0
  2  3  1  0  0  0  0
  2  5  1  1  0  0  0
  3 12  1  0  0  0  0
  3  4  1  0  0  0  0
  4 14  1  0  0  0  0
  5  6  1  6  0  0  0
  5  4  1  0  0  0  0
  6 16  1  0  0  0  0
  7  2  1  0  0  0  0
  7  6  1  0  0  0  0
  8  7  2  0  0  0  0
 10  1  1  0  0  0  0
 13  3  1  0  0  0  0
 15  4  1  0  0  0  0
 17  6  1  0  0  0  0
M  END
