17
title
C -0.33993757 2.102669 0.024376249
C -0.28745648 0.595704 0.080414295
C -1.605399 -0.22087555 0.29842997
C -0.92345816 -1.0476991 1.4282329
C 0.40416873 -0.27643993 1.193583
N 1.2621056 -0.8224249 0.14079675
C 0.64629465 -0.15130202 -0.9000537
O 0.7877995 -0.19412474 -2.0931337
H 0.66207206 2.540828 0.07724519
H -0.7939773 2.4271183 -0.91833067
H -0.9375582 2.5134625 0.8451603
H -2.4239907 0.405605 0.6608963
H -1.9580646 -0.7739216 -0.57468235
H -1.3549461 -0.8611666 2.414684
H -0.8606545 -2.1277099 1.2762167
H 0.9378693 0.13668104 2.0509305
H 1.7791499 -1.6916432 0.11305866
