title
 OpenBabel02282110003D

 16 17  0  0  1  0  0  0  0  0999 V2000
   -0.4938    2.0561    0.1334 C   0  0  0  0  0  0  0  0  0  0  0  0
   -0.3061    0.5634    0.1071 C   0  0  2  0  0  0  0  0  0  0  0  0
   -1.5178   -0.3065    0.2389 N   0  0  0  0  0  0  0  0  0  0  0  0
   -0.8945   -1.0727    1.3573 C   0  0  0  0  0  0  0  0  0  0  0  0
    0.4407   -0.3502    1.1214 C   0  0  1  0  0  0  0  0  0  0  0  0
    1.2232   -0.9198    0.0300 O   0  0  0  0  0  0  0  0  0  0  0  0
    0.6484   -0.0641   -0.9012 C   0  0  0  0  0  0  0  0  0  0  0  0
    0.8897    0.1015   -2.1177 N   0  0  0  0  0  0  0  0  0  0  0  0
    0.4684    2.5752    0.1074 H   0  0  0  0  0  0  0  0  0  0  0  0
   -1.0643    2.3713   -0.7467 H   0  0  0  0  0  0  0  0  0  0  0  0
   -1.0369    2.3713    1.0307 H   0  0  0  0  0  0  0  0  0  0  0  0
   -2.3380    0.2184    0.5197 H   0  0  0  0  0  0  0  0  0  0  0  0
   -1.3133   -0.8487    2.3459 H   0  0  0  0  0  0  0  0  0  0  0  0
   -0.8829   -2.1566    1.2086 H   0  0  0  0  0  0  0  0  0  0  0  0
    1.0744   -0.0432    1.9522 H   0  0  0  0  0  0  0  0  0  0  0  0
    1.6181   -0.5339   -2.4488 H   0  0  0  0  0  0  0  0  0  0  0  0
  1 11  1  0  0  0  0
  2  1  1  0  0  0  0
  2  3  1  0  0  0  0
  2  5  1  1  0  0  0
  3 12  1  0  0  0  0
  3  4  1  0  0  0  0
  4 13  1  0  0  0  0
  5  4  1  0  0  0  0
  5 15  1  1  0  0  0
  6  5  1  0  0  0  0
  7  6  1  0  0  0  0
  7  2  1  0  0  0  0
  8  7  2  0  0  0  0
  9  1  1  0  0  0  0
 10  1  1  0  0  0  0
 14  4  1  0  0  0  0
 16  8  1  0  0  0  0
M  END
