15
title
C -0.51230305 2.0615883 0.17733411
C -0.31830168 0.5707843 0.1337126
N -1.5183837 -0.31526443 0.22733024
C -0.8969183 -1.1000262 1.3345572
C 0.4320042 -0.35584232 1.1273224
O 1.230877 -0.8950813 0.032249372
C 0.64987785 -0.049445435 -0.89637065
O 0.91027206 0.048546866 -2.049516
H 0.4472649 2.5868375 0.1736053
H -1.0741919 2.387781 -0.7044174
H -1.0685753 2.3612204 1.0716828
H -2.352212 0.18916784 0.50554216
H -1.3279626 -0.898772 2.3221517
H -0.87273824 -2.1797953 1.1626518
H 1.0565017 -0.059026405 1.9675144
