15
title
C -0.52398866 2.0492108 0.10146755
C -0.28786802 0.5687921 0.11226141
O -1.4986576 -0.22507218 0.24233353
C -0.9119964 -1.0569092 1.2736653
C 0.431164 -0.33939192 1.1438175
O 1.2570816 -0.8999602 0.08322066
C 0.67573994 -0.078853995 -0.87687725
N 0.9077689 0.0457904 -2.0994983
H 0.42439643 2.5937161 0.08820122
H -1.0814039 2.3183396 -0.80108255
H -1.105882 2.3551853 0.9747342
H -1.4173802 -0.90873 2.2354758
H -0.90174615 -2.1198483 1.0127723
H 1.0172905 -0.039890025 2.0100665
H 1.6361831 -0.5963314 -2.4171739
