title
 OpenBabel02282110003D

 15 16  0  0  1  0  0  0  0  0999 V2000
   -0.5123    2.0616    0.1773 C   0  0  0  0  0  0  0  0  0  0  0  0
   -0.3183    0.5708    0.1337 C   0  0  2  0  0  0  0  0  0  0  0  0
   -1.5184   -0.3153    0.2273 N   0  0  0  0  0  0  0  0  0  0  0  0
   -0.8969   -1.1000    1.3346 C   0  0  0  0  0  0  0  0  0  0  0  0
    0.4320   -0.3558    1.1273 C   0  0  1  0  0  0  0  0  0  0  0  0
    1.2309   -0.8951    0.0322 O   0  0  0  0  0  0  0  0  0  0  0  0
    0.6499   -0.0494   -0.8964 C   0  0  0  0  0  0  0  0  0  0  0  0
    0.9103    0.0485   -2.0495 O   0  0  0  0  0  0  0  0  0  0  0  0
    0.4473    2.5868    0.1736 H   0  0  0  0  0  0  0  0  0  0  0  0
   -1.0742    2.3878   -0.7044 H   0  0  0  0  0  0  0  0  0  0  0  0
   -1.0686    2.3612    1.0717 H   0  0  0  0  0  0  0  0  0  0  0  0
   -2.3522    0.1892    0.5055 H   0  0  0  0  0  0  0  0  0  0  0  0
   -1.3280   -0.8988    2.3222 H   0  0  0  0  0  0  0  0  0  0  0  0
   -0.8727   -2.1798    1.1627 H   0  0  0  0  0  0  0  0  0  0  0  0
    1.0565   -0.0590    1.9675 H   0  0  0  0  0  0  0  0  0  0  0  0
  1 11  1  0  0  0  0
  2  1  1  0  0  0  0
  2  3  1  0  0  0  0
  2  5  1  1  0  0  0
  3 12  1  0  0  0  0
  3  4  1  0  0  0  0
  4 13  1  0  0  0  0
  5  4  1  0  0  0  0
  5 15  1  1  0  0  0
  6  5  1  0  0  0  0
  7  6  1  0  0  0  0
  7  2  1  0  0  0  0
  8  7  2  0  0  0  0
  9  1  1  0  0  0  0
 10  1  1  0  0  0  0
 14  4  1  0  0  0  0
M  END
