title
 OpenBabel02282110003D

 16 17  0  0  1  0  0  0  0  0999 V2000
    0.4655    1.7162   -0.7341 O   0  0  0  0  0  0  0  0  0  0  0  0
    0.1856    0.4127   -0.3711 C   0  0  2  0  0  0  0  0  0  0  0  0
    0.5062   -0.6388   -1.4715 C   0  0  0  0  0  0  0  0  0  0  0  0
   -0.9405   -1.2076   -1.4108 C   0  0  0  0  0  0  0  0  0  0  0  0
   -1.2532   -0.3228   -0.1891 C   0  0  1  0  0  0  0  0  0  0  0  0
   -0.7541   -0.9151    1.1611 C   0  0  0  0  0  0  0  0  0  0  0  0
    0.4568    0.0277    1.0721 C   0  0  0  0  0  0  0  0  0  0  0  0
    1.1324    0.5804    1.8992 O   0  0  0  0  0  0  0  0  0  0  0  0
    0.6631    2.2075    0.0742 H   0  0  0  0  0  0  0  0  0  0  0  0
    0.7447   -0.1303   -2.4073 H   0  0  0  0  0  0  0  0  0  0  0  0
    1.3180   -1.3316   -1.2374 H   0  0  0  0  0  0  0  0  0  0  0  0
   -1.5254   -0.9393   -2.2935 H   0  0  0  0  0  0  0  0  0  0  0  0
   -1.0376   -2.2844   -1.2481 H   0  0  0  0  0  0  0  0  0  0  0  0
   -2.1909    0.2287   -0.1430 H   0  0  0  0  0  0  0  0  0  0  0  0
   -1.3760   -0.7141    2.0368 H   0  0  0  0  0  0  0  0  0  0  0  0
   -0.5170   -1.9826    1.1372 H   0  0  0  0  0  0  0  0  0  0  0  0
  1  2  1  0  0  0  0
  1  9  1  0  0  0  0
  2  5  1  6  0  0  0
  2  7  1  0  0  0  0
  3  4  1  0  0  0  0
  3 11  1  0  0  0  0
  3  2  1  0  0  0  0
  4 13  1  0  0  0  0
  4  5  1  0  0  0  0
  5 14  1  6  0  0  0
  5  6  1  0  0  0  0
  6 15  1  0  0  0  0
  7  6  1  0  0  0  0
  7  8  2  0  0  0  0
 10  3  1  0  0  0  0
 12  4  1  0  0  0  0
 16  6  1  0  0  0  0
M  END
