16
title
O 0.46546084 1.7161726 -0.73414195
C 0.185563 0.41265073 -0.37113017
C 0.5061599 -0.6388185 -1.471532
C -0.94047576 -1.2075555 -1.4108167
C -1.2532139 -0.3228189 -0.18908863
C -0.75413233 -0.9151406 1.1611016
C 0.45679125 0.02772105 1.0720831
O 1.1323898 0.58036053 1.8991925
H 0.66312134 2.2075465 0.074190564
H 0.7446592 -0.13027099 -2.407284
H 1.3180158 -1.3316385 -1.2374098
H -1.5254387 -0.9393313 -2.29346
H -1.0375896 -2.2843797 -1.248096
H -2.1908813 0.22870255 -0.14300546
H -1.375994 -0.71408474 2.0367982
H -0.5170491 -1.9825826 1.1371692
