18
title
C -0.44431624 2.2063367 -0.033329118
C -0.26946512 0.70961416 0.055123944
C -1.4622772 -0.19202635 0.37888375
O -0.6504739 -1.022405 1.2472377
C 0.4535962 -0.082021624 1.1910741
C 1.5474555 -0.56250685 0.22980618
C 0.7310375 0.028354498 -0.9637433
O 0.20342515 -0.8803944 -1.8979532
H 0.52244896 2.7210777 -0.065370776
H -0.9899002 2.4790506 -0.94483626
H -1.0041149 2.5991054 0.82235384
H -2.258592 0.3148696 0.9414489
H -1.9112407 -0.7549359 -0.44766495
H 0.7160391 0.31491753 2.1760445
H 2.508173 -0.059759766 0.37691367
H 1.7110447 -1.6436158 0.21162112
H 1.280296 0.7701729 -1.5499495
H -0.10406791 -1.6548725 -1.4138383
