15
title
O 0.37900576 1.935245 -0.20943187
C 0.14470437 0.57510185 -0.25267223
C 0.49696603 -0.12547013 -1.5946172
C -0.86498165 -0.88852483 -1.5781589
C -1.2236667 -0.21853283 -0.2429617
O -0.7226121 -1.002047 0.89398503
C 0.42790025 -0.24924394 0.98233485
N 1.3281838 -0.20316014 1.8548677
H 0.57139564 2.1786208 0.70390886
H 0.5529283 0.6200964 -2.39025
H 1.4130745 -0.7186045 -1.59845
H -1.5287781 -0.60367376 -2.3973837
H -0.81511754 -1.9771935 -1.5222276
H -2.2145452 0.18497592 -0.04033655
H 1.1615452 -0.869299 2.6109595
