title
 OpenBabel02282110003D

 18 19  0  0  1  0  0  0  0  0999 V2000
   -0.4443    2.2063   -0.0333 C   0  0  0  0  0  0  0  0  0  0  0  0
   -0.2695    0.7096    0.0551 C   0  0  2  0  0  0  0  0  0  0  0  0
   -1.4623   -0.1920    0.3789 C   0  0  0  0  0  0  0  0  0  0  0  0
   -0.6505   -1.0224    1.2472 O   0  0  0  0  0  0  0  0  0  0  0  0
    0.4536   -0.0820    1.1911 C   0  0  1  0  0  0  0  0  0  0  0  0
    1.5475   -0.5625    0.2298 C   0  0  0  0  0  0  0  0  0  0  0  0
    0.7310    0.0284   -0.9637 C   0  0  1  0  0  0  0  0  0  0  0  0
    0.2034   -0.8804   -1.8980 O   0  0  0  0  0  0  0  0  0  0  0  0
    0.5224    2.7211   -0.0654 H   0  0  0  0  0  0  0  0  0  0  0  0
   -0.9899    2.4791   -0.9448 H   0  0  0  0  0  0  0  0  0  0  0  0
   -1.0041    2.5991    0.8224 H   0  0  0  0  0  0  0  0  0  0  0  0
   -2.2586    0.3149    0.9414 H   0  0  0  0  0  0  0  0  0  0  0  0
   -1.9112   -0.7549   -0.4477 H   0  0  0  0  0  0  0  0  0  0  0  0
    0.7160    0.3149    2.1760 H   0  0  0  0  0  0  0  0  0  0  0  0
    2.5082   -0.0598    0.3769 H   0  0  0  0  0  0  0  0  0  0  0  0
    1.7110   -1.6436    0.2116 H   0  0  0  0  0  0  0  0  0  0  0  0
    1.2803    0.7702   -1.5499 H   0  0  0  0  0  0  0  0  0  0  0  0
   -0.1041   -1.6549   -1.4138 H   0  0  0  0  0  0  0  0  0  0  0  0
  1  2  1  0  0  0  0
  1 11  1  0  0  0  0
  2  7  1  6  0  0  0
  2  3  1  0  0  0  0
  3 12  1  0  0  0  0
  3  4  1  0  0  0  0
  5  2  1  6  0  0  0
  5  4  1  0  0  0  0
  5 14  1  0  0  0  0
  6 15  1  0  0  0  0
  6  5  1  0  0  0  0
  7 17  1  6  0  0  0
  7  6  1  0  0  0  0
  8 18  1  0  0  0  0
  8  7  1  0  0  0  0
  9  1  1  0  0  0  0
 10  1  1  0  0  0  0
 13  3  1  0  0  0  0
 16  6  1  0  0  0  0
M  END
