title
 OpenBabel02282110003D

 18 19  0  0  1  0  0  0  0  0999 V2000
   -0.6866    2.0585    0.0412 C   0  0  0  0  0  0  0  0  0  0  0  0
   -0.2169    0.6319    0.0996 C   0  0  2  0  0  0  0  0  0  0  0  0
   -1.3171   -0.3238    0.1754 O   0  0  0  0  0  0  0  0  0  0  0  0
   -0.7621   -0.9334    1.3727 C   0  0  0  0  0  0  0  0  0  0  0  0
    0.5203   -0.1006    1.2682 C   0  0  1  0  0  0  0  0  0  0  0  0
    1.5441   -0.6770    0.2543 C   0  0  0  0  0  0  0  0  0  0  0  0
    0.8332    0.0894   -0.9157 C   0  0  1  0  0  0  0  0  0  0  0  0
    0.2993   -0.6458   -1.9778 O   0  0  0  0  0  0  0  0  0  0  0  0
    0.1658    2.7455    0.0483 H   0  0  0  0  0  0  0  0  0  0  0  0
   -1.2515    2.2275   -0.8825 H   0  0  0  0  0  0  0  0  0  0  0  0
   -1.3368    2.2982    0.8880 H   0  0  0  0  0  0  0  0  0  0  0  0
   -1.3895   -0.7113    2.2447 H   0  0  0  0  0  0  0  0  0  0  0  0
   -0.6563   -2.0203    1.2733 H   0  0  0  0  0  0  0  0  0  0  0  0
    0.8919    0.3933    2.1647 H   0  0  0  0  0  0  0  0  0  0  0  0
    2.5743   -0.3561    0.4253 H   0  0  0  0  0  0  0  0  0  0  0  0
    1.5304   -1.7656    0.1503 H   0  0  0  0  0  0  0  0  0  0  0  0
    1.4643    0.8771   -1.3399 H   0  0  0  0  0  0  0  0  0  0  0  0
   -0.5175   -1.0337   -1.6285 H   0  0  0  0  0  0  0  0  0  0  0  0
  1  9  1  0  0  0  0
  1  2  1  0  0  0  0
  1 11  1  0  0  0  0
  2  7  1  6  0  0  0
  2  3  1  0  0  0  0
  3  4  1  0  0  0  0
  4 12  1  0  0  0  0
  5  2  1  6  0  0  0
  5  4  1  0  0  0  0
  5 14  1  0  0  0  0
  6 15  1  0  0  0  0
  6  5  1  0  0  0  0
  7 17  1  6  0  0  0
  7  6  1  0  0  0  0
  8 18  1  0  0  0  0
  8  7  1  0  0  0  0
 10  1  1  0  0  0  0
 13  4  1  0  0  0  0
 16  6  1  0  0  0  0
M  END
