15
title
O 0.5093526 1.7781367 -0.5955793
C 0.18122967 0.45905903 -0.34120825
C 0.39133742 -0.4975628 -1.5426114
N -0.9293476 -1.161047 -1.3393295
C -1.2532057 -0.26225677 -0.20714794
C -0.81377184 -0.89180267 1.1425184
C 0.48282892 -0.06798042 1.0582798
O 1.2734202 0.32629207 1.8724766
H 0.8280762 2.1642876 0.23099495
H 0.45359534 0.10405974 -2.4546976
H 1.2492666 -1.1761512 -1.5038294
H -1.5433139 -1.0140159 -2.1322658
H -2.2072127 0.26336998 -0.23075752
H -1.4091657 -0.61180604 2.0165017
H -0.6997244 -1.9773456 1.1095048
