22
title
C -0.8670518 2.0849223 -0.754718
C -0.90556777 0.5665697 -0.6533447
C -0.030064013 -0.29062283 -1.6173186
C 0.39747825 -1.2027165 -0.43114802
C 1.786781 -0.8805343 0.15786132
C 1.162326 0.29555115 0.9660709
C -0.27476308 -0.17718375 0.5616536
C -1.1882232 -0.5752826 1.7012504
H 0.15703002 2.4716275 -0.71852535
H -1.3083061 2.4222567 -1.6994746
H -1.4302772 2.5561144 0.059071504
H -1.9489434 0.23628864 -0.73431236
H -0.5721224 -0.7835808 -2.4279652
H 0.80799776 0.25941873 -2.0597842
H 0.09169189 -2.248947 -0.49577898
H 2.1621206 -1.675508 0.8086237
H 2.5737307 -0.6284151 -0.5600288
H 1.3549942 0.26648337 2.041789
H 1.4344348 1.2914791 0.607967
H -1.514033 0.3039977 2.2720304
H -2.0874074 -1.0835968 1.3341709
H -0.6850735 -1.2511779 2.4026575
