title
 OpenBabel02282110003D

 15 16  0  0  1  0  0  0  0  0999 V2000
    0.5094    1.7781   -0.5956 O   0  0  0  0  0  0  0  0  0  0  0  0
    0.1812    0.4591   -0.3412 C   0  0  2  0  0  0  0  0  0  0  0  0
    0.3913   -0.4976   -1.5426 C   0  0  0  0  0  0  0  0  0  0  0  0
   -0.9293   -1.1610   -1.3393 N   0  0  0  0  0  0  0  0  0  0  0  0
   -1.2532   -0.2623   -0.2071 C   0  0  1  0  0  0  0  0  0  0  0  0
   -0.8138   -0.8918    1.1425 C   0  0  0  0  0  0  0  0  0  0  0  0
    0.4828   -0.0680    1.0583 C   0  0  0  0  0  0  0  0  0  0  0  0
    1.2734    0.3263    1.8725 O   0  0  0  0  0  0  0  0  0  0  0  0
    0.8281    2.1643    0.2310 H   0  0  0  0  0  0  0  0  0  0  0  0
    0.4536    0.1041   -2.4547 H   0  0  0  0  0  0  0  0  0  0  0  0
    1.2493   -1.1762   -1.5038 H   0  0  0  0  0  0  0  0  0  0  0  0
   -1.5433   -1.0140   -2.1323 H   0  0  0  0  0  0  0  0  0  0  0  0
   -2.2072    0.2634   -0.2308 H   0  0  0  0  0  0  0  0  0  0  0  0
   -1.4092   -0.6118    2.0165 H   0  0  0  0  0  0  0  0  0  0  0  0
   -0.6997   -1.9773    1.1095 H   0  0  0  0  0  0  0  0  0  0  0  0
  1  2  1  0  0  0  0
  1  9  1  0  0  0  0
  2  5  1  1  0  0  0
  2  7  1  0  0  0  0
  3 11  1  0  0  0  0
  3  4  1  0  0  0  0
  3  2  1  0  0  0  0
  4  5  1  0  0  0  0
  5 13  1  6  0  0  0
  5  6  1  0  0  0  0
  6 14  1  0  0  0  0
  7  6  1  0  0  0  0
  7  8  2  0  0  0  0
 10  3  1  0  0  0  0
 12  4  1  0  0  0  0
 15  6  1  0  0  0  0
M  END
