title
 OpenBabel02282110003D

 20 21  0  0  1  0  0  0  0  0999 V2000
   -0.7737    2.1226   -0.8026 C   0  0  0  0  0  0  0  0  0  0  0  0
   -0.8829    0.6117   -0.6615 C   0  0  1  0  0  0  0  0  0  0  0  0
   -0.0702   -0.3179   -1.6169 C   0  0  0  0  0  0  0  0  0  0  0  0
    0.3320   -1.2240   -0.4144 C   0  0  1  0  0  0  0  0  0  0  0  0
    1.7497   -0.9576    0.1395 C   0  0  0  0  0  0  0  0  0  0  0  0
    1.1987    0.2539    0.9544 C   0  0  0  0  0  0  0  0  0  0  0  0
   -0.2580   -0.1398    0.5459 C   0  0  1  0  0  0  0  0  0  0  0  0
   -1.1097   -0.5243    1.5918 O   0  0  0  0  0  0  0  0  0  0  0  0
    0.2693    2.4575   -0.7977 H   0  0  0  0  0  0  0  0  0  0  0  0
   -1.2199    2.4611   -1.7443 H   0  0  0  0  0  0  0  0  0  0  0  0
   -1.2947    2.6414    0.0110 H   0  0  0  0  0  0  0  0  0  0  0  0
   -1.9372    0.3133   -0.6892 H   0  0  0  0  0  0  0  0  0  0  0  0
   -0.6542   -0.8020   -2.4024 H   0  0  0  0  0  0  0  0  0  0  0  0
    0.7871    0.1761   -2.0863 H   0  0  0  0  0  0  0  0  0  0  0  0
   -0.0415   -2.2479   -0.4316 H   0  0  0  0  0  0  0  0  0  0  0  0
    2.1128   -1.7610    0.7852 H   0  0  0  0  0  0  0  0  0  0  0  0
    2.5216   -0.7367   -0.6033 H   0  0  0  0  0  0  0  0  0  0  0  0
    1.3612    0.1790    2.0321 H   0  0  0  0  0  0  0  0  0  0  0  0
    1.5355    1.2386    0.6202 H   0  0  0  0  0  0  0  0  0  0  0  0
   -1.2638    0.2444    2.1527 H   0  0  0  0  0  0  0  0  0  0  0  0
  1  9  1  0  0  0  0
  1  2  1  0  0  0  0
  1 11  1  0  0  0  0
  2  7  1  1  0  0  0
  3  2  1  0  0  0  0
  3  4  1  0  0  0  0
  4  5  1  0  0  0  0
  4  7  1  1  0  0  0
  5 16  1  0  0  0  0
  5  6  1  0  0  0  0
  6 18  1  0  0  0  0
  7  6  1  0  0  0  0
  7  8  1  1  0  0  0
  8 20  1  0  0  0  0
 10  1  1  0  0  0  0
 12  2  1  0  0  0  0
 13  3  1  0  0  0  0
 14  3  1  0  0  0  0
 15  4  1  0  0  0  0
 17  5  1  0  0  0  0
 19  6  1  0  0  0  0
M  END
