20
title
C -0.7736962 2.122584 -0.8025824
C -0.8829358 0.6117397 -0.6615008
C -0.07016552 -0.3178944 -1.616909
C 0.33199775 -1.2240238 -0.41441977
C 1.7496563 -0.957611 0.1394993
C 1.1986536 0.25389805 0.95436966
C -0.2580397 -0.13981368 0.5458777
O -1.1096749 -0.5242501 1.5917931
H 0.26930583 2.4574535 -0.79771566
H -1.2199396 2.461119 -1.7442614
H -1.2946934 2.6414227 0.010967975
H -1.9371905 0.31334752 -0.6892139
H -0.6541672 -0.8019858 -2.40239
H 0.78714645 0.17611046 -2.0862586
H -0.04145683 -2.2478614 -0.43164116
H 2.1128182 -1.7609948 0.7852458
H 2.5215998 -0.7367324 -0.6033232
H 1.3612372 0.17896311 2.0321279
H 1.5355355 1.2385659 0.62024474
H -1.2638146 0.24437477 2.1527443
