14
title
O 0.39909956 1.9389671 -0.29405898
C 0.13964516 0.58439267 -0.27312747
C 0.48088425 -0.16447881 -1.5913502
C -0.8949976 -0.90020645 -1.5518138
C -1.2311984 -0.19371322 -0.2293049
O -0.73064744 -0.9570563 0.9182669
C 0.43701842 -0.23385373 0.98854244
O 1.2790332 -0.28067896 1.8272471
H 0.39319998 2.2798274 0.6076433
H 0.5523413 0.5572118 -2.407365
H 1.3859982 -0.77379215 -1.5767516
H -1.5559682 -0.6160761 -2.3731515
H -0.8675276 -1.9882048 -1.475237
H -2.2128885 0.22882448 -0.024101527
