17
title
C -0.098079994 2.244715 0.51403725
C -0.013415117 0.7469152 0.5387408
C -0.8958144 -0.13199748 1.3806856
C 0.59560025 -0.22307588 1.5584761
C 1.1949304 -1.085287 0.44567114
C 0.5928921 -0.08917625 -0.6143032
C -0.32583234 -0.6213779 -1.6123661
N -1.0689405 -1.0531378 -2.3864484
H 0.856589 2.6979804 0.22310558
H -0.8603376 2.5856123 -0.19655338
H -0.36764053 2.6357763 1.5001104
H -1.4269315 0.39086795 2.1697109
H -1.4536464 -0.95573276 0.94079083
H 1.0780954 0.0031943778 2.5014915
H 2.2855775 -1.0830631 0.4148644
H 0.8380916 -2.117106 0.38807344
H 1.3892134 0.45899984 -1.1247622
