title
 OpenBabel02282110003D

 18 19  0  0  1  0  0  0  0  0999 V2000
   -0.1029    2.2428    0.4887 C   0  0  0  0  0  0  0  0  0  0  0  0
   -0.0129    0.7454    0.5243 C   0  0  2  0  0  0  0  0  0  0  0  0
   -0.8844   -0.1243    1.3853 C   0  0  0  0  0  0  0  0  0  0  0  0
    0.6106   -0.2091    1.5472 C   0  0  1  0  0  0  0  0  0  0  0  0
    1.2001   -1.0807    0.4372 C   0  0  0  0  0  0  0  0  0  0  0  0
    0.5786   -0.1020   -0.6321 C   0  0  1  0  0  0  0  0  0  0  0  0
   -0.3349   -0.6401   -1.6232 C   0  0  0  0  0  0  0  0  0  0  0  0
   -1.1042   -1.0973   -2.4276 C   0  0  0  0  0  0  0  0  0  0  0  0
    0.8475    2.6964    0.1832 H   0  0  0  0  0  0  0  0  0  0  0  0
   -0.8721    2.5749   -0.2189 H   0  0  0  0  0  0  0  0  0  0  0  0
   -0.3641    2.6450    1.4731 H   0  0  0  0  0  0  0  0  0  0  0  0
   -1.4083    0.4024    2.1771 H   0  0  0  0  0  0  0  0  0  0  0  0
   -1.4423   -0.9534    0.9562 H   0  0  0  0  0  0  0  0  0  0  0  0
    1.0996    0.0281    2.4848 H   0  0  0  0  0  0  0  0  0  0  0  0
    2.2911   -1.0774    0.3985 H   0  0  0  0  0  0  0  0  0  0  0  0
    0.8451   -2.1144    0.3964 H   0  0  0  0  0  0  0  0  0  0  0  0
    1.3792    0.4531   -1.1317 H   0  0  0  0  0  0  0  0  0  0  0  0
   -1.7790   -1.4960   -3.1439 H   0  0  0  0  0  0  0  0  0  0  0  0
  1  2  1  0  0  0  0
  1 11  1  0  0  0  0
  2  6  1  6  0  0  0
  2  3  1  0  0  0  0
  3  4  1  0  0  0  0
  3 12  1  0  0  0  0
  4  2  1  6  0  0  0
  4 14  1  0  0  0  0
  5  4  1  0  0  0  0
  6 17  1  6  0  0  0
  6  5  1  0  0  0  0
  7  6  1  0  0  0  0
  8  7  3  0  0  0  0
  9  1  1  0  0  0  0
 10  1  1  0  0  0  0
 13  3  1  0  0  0  0
 15  5  1  0  0  0  0
 16  5  1  0  0  0  0
 18  8  1  0  0  0  0
M  END
