16
title
O 1.4240432 1.3497663 -0.9860369
C 1.1345549 0.08164831 -0.45550334
C 1.2409701 -0.15822496 1.0869384
C -0.2214688 -0.64867175 1.1008806
O -1.1367005 0.4420973 1.3539125
C -1.3919348 0.6383809 -0.057857767
C -0.34496725 -0.42459708 -0.43470228
O -0.7033349 -1.4388878 -1.3199512
H 1.05404 2.0162442 -0.39746463
H 1.7475045 -0.6289475 -1.0187469
H 1.9889504 -0.9048071 1.3642411
H 1.3940823 0.7423743 1.6873605
H -0.48954844 -1.5670526 1.6259761
H -2.409647 0.33689645 -0.33411446
H -1.2181519 1.6729978 -0.38072985
H -0.43526757 -1.1757014 -2.2076783
