title
 OpenBabel02282110003D

 18 19  0  0  1  0  0  0  0  0999 V2000
   -1.5969    1.4844   -0.6320 C   0  0  0  0  0  0  0  0  0  0  0  0
   -0.9699    0.1073   -0.6620 C   0  0  1  0  0  0  0  0  0  0  0  0
    0.1815    0.0153   -1.5454 O   0  0  0  0  0  0  0  0  0  0  0  0
    0.9926   -0.6116   -0.5345 C   0  0  1  0  0  0  0  0  0  0  0  0
    1.8550    0.4136    0.2389 C   0  0  0  0  0  0  0  0  0  0  0  0
    0.7253    0.5632    1.3077 C   0  0  0  0  0  0  0  0  0  0  0  0
   -0.1544   -0.4462    0.5250 C   0  0  1  0  0  0  0  0  0  0  0  0
   -0.8409   -1.4399    1.2178 O   0  0  0  0  0  0  0  0  0  0  0  0
   -0.8716    2.2535   -0.3517 H   0  0  0  0  0  0  0  0  0  0  0  0
   -1.9893    1.7377   -1.6219 H   0  0  0  0  0  0  0  0  0  0  0  0
   -2.4298    1.5067    0.0789 H   0  0  0  0  0  0  0  0  0  0  0  0
   -1.7199   -0.6436   -0.9477 H   0  0  0  0  0  0  0  0  0  0  0  0
    1.4378   -1.5531   -0.8663 H   0  0  0  0  0  0  0  0  0  0  0  0
    2.7854    0.0052    0.6418 H   0  0  0  0  0  0  0  0  0  0  0  0
    2.0810    1.3067   -0.3461 H   0  0  0  0  0  0  0  0  0  0  0  0
    1.0178    0.1627    2.2844 H   0  0  0  0  0  0  0  0  0  0  0  0
    0.3094    1.5606    1.4698 H   0  0  0  0  0  0  0  0  0  0  0  0
   -0.3041   -1.7265    1.9638 H   0  0  0  0  0  0  0  0  0  0  0  0
  1  9  1  0  0  0  0
  1 11  1  0  0  0  0
  2  1  1  0  0  0  0
  2  7  1  1  0  0  0
  3  2  1  0  0  0  0
  3  4  1  0  0  0  0
  4  5  1  0  0  0  0
  4  7  1  1  0  0  0
  5 14  1  0  0  0  0
  5  6  1  0  0  0  0
  6 17  1  0  0  0  0
  6 16  1  0  0  0  0
  7  8  1  1  0  0  0
  7  6  1  0  0  0  0
  8 18  1  0  0  0  0
 10  1  1  0  0  0  0
 12  2  1  0  0  0  0
 13  4  1  0  0  0  0
 15  5  1  0  0  0  0
M  END
