18
title
C -1.5912877 1.5306975 -0.75301456
C -0.9606123 0.14649828 -0.77988243
C 0.33647692 -0.0887529 -1.6259357
C 1.0347575 -0.7009244 -0.3911384
O 1.792183 0.2812369 0.34945968
C 0.68944097 0.56478536 1.2358749
C -0.23906678 -0.40524098 0.47720435
O -1.0186247 -1.3004465 1.2031759
H -0.8546353 2.3084977 -0.5251736
H -2.0298681 1.7735287 -1.7267828
H -2.3894 1.5886734 -0.0049744407
H -1.717792 -0.5961818 -1.0499649
H 0.20377219 -0.7719345 -2.4681675
H 0.83638704 0.8179618 -1.9751005
H 1.5532719 -1.6589504 -0.47972324
H 0.9032259 0.23647931 2.2653348
H 0.42333877 1.6281923 1.2584443
H -0.50432533 -1.6258051 1.9504435
