title
 OpenBabel02282110003D

 20 21  0  0  1  0  0  0  0  0999 V2000
   -1.5798    1.5378   -0.7322 C   0  0  0  0  0  0  0  0  0  0  0  0
   -0.9684    0.1441   -0.7817 C   0  0  1  0  0  0  0  0  0  0  0  0
    0.3369   -0.0666   -1.6192 C   0  0  0  0  0  0  0  0  0  0  0  0
    1.0321   -0.6596   -0.3750 C   0  0  1  0  0  0  0  0  0  0  0  0
    1.7558    0.3342    0.3792 O   0  0  0  0  0  0  0  0  0  0  0  0
    0.6316    0.5514    1.2617 C   0  0  0  0  0  0  0  0  0  0  0  0
   -0.2529   -0.4457    0.4839 C   0  0  1  0  0  0  0  0  0  0  0  0
   -0.9784   -1.5134    1.2715 C   0  0  0  0  0  0  0  0  0  0  0  0
   -0.8353    2.3016   -0.4857 H   0  0  0  0  0  0  0  0  0  0  0  0
   -2.0074    1.8040   -1.7051 H   0  0  0  0  0  0  0  0  0  0  0  0
   -2.3842    1.5990    0.0100 H   0  0  0  0  0  0  0  0  0  0  0  0
   -1.7384   -0.5662   -1.1024 H   0  0  0  0  0  0  0  0  0  0  0  0
    0.2251   -0.7583   -2.4585 H   0  0  0  0  0  0  0  0  0  0  0  0
    0.8219    0.8468   -1.9733 H   0  0  0  0  0  0  0  0  0  0  0  0
    1.5844   -1.5998   -0.4664 H   0  0  0  0  0  0  0  0  0  0  0  0
    0.8622    0.2294    2.2867 H   0  0  0  0  0  0  0  0  0  0  0  0
    0.3168    1.6014    1.2887 H   0  0  0  0  0  0  0  0  0  0  0  0
   -1.8324   -1.0895    1.8147 H   0  0  0  0  0  0  0  0  0  0  0  0
   -1.3665   -2.2992    0.6142 H   0  0  0  0  0  0  0  0  0  0  0  0
   -0.3197   -1.9867    2.0080 H   0  0  0  0  0  0  0  0  0  0  0  0
  1  9  1  0  0  0  0
  1 11  1  0  0  0  0
  2  1  1  0  0  0  0
  2  7  1  1  0  0  0
  3  2  1  0  0  0  0
  3  4  1  0  0  0  0
  4  5  1  0  0  0  0
  4  7  1  1  0  0  0
  5  6  1  0  0  0  0
  6 17  1  0  0  0  0
  6 16  1  0  0  0  0
  7  6  1  0  0  0  0
  7  8  1  1  0  0  0
  8 18  1  0  0  0  0
  8 20  1  0  0  0  0
 10  1  1  0  0  0  0
 12  2  1  0  0  0  0
 13  3  1  0  0  0  0
 14  3  1  0  0  0  0
 15  4  1  0  0  0  0
 19  8  1  0  0  0  0
M  END
