title
 OpenBabel02282110003D

 16 17  0  0  1  0  0  0  0  0999 V2000
    1.4240    1.3498   -0.9860 O   0  0  0  0  0  0  0  0  0  0  0  0
    1.1346    0.0816   -0.4555 C   0  0  1  0  0  0  0  0  0  0  0  0
    1.2410   -0.1582    1.0869 C   0  0  0  0  0  0  0  0  0  0  0  0
   -0.2215   -0.6487    1.1009 C   0  0  1  0  0  0  0  0  0  0  0  0
   -1.1367    0.4421    1.3539 O   0  0  0  0  0  0  0  0  0  0  0  0
   -1.3919    0.6384   -0.0579 C   0  0  0  0  0  0  0  0  0  0  0  0
   -0.3450   -0.4246   -0.4347 C   0  0  1  0  0  0  0  0  0  0  0  0
   -0.7033   -1.4389   -1.3200 O   0  0  0  0  0  0  0  0  0  0  0  0
    1.0540    2.0162   -0.3975 H   0  0  0  0  0  0  0  0  0  0  0  0
    1.7475   -0.6289   -1.0187 H   0  0  0  0  0  0  0  0  0  0  0  0
    1.9890   -0.9048    1.3642 H   0  0  0  0  0  0  0  0  0  0  0  0
    1.3941    0.7424    1.6874 H   0  0  0  0  0  0  0  0  0  0  0  0
   -0.4895   -1.5671    1.6260 H   0  0  0  0  0  0  0  0  0  0  0  0
   -2.4096    0.3369   -0.3341 H   0  0  0  0  0  0  0  0  0  0  0  0
   -1.2182    1.6730   -0.3807 H   0  0  0  0  0  0  0  0  0  0  0  0
   -0.4353   -1.1757   -2.2077 H   0  0  0  0  0  0  0  0  0  0  0  0
  1  2  1  0  0  0  0
  1  9  1  0  0  0  0
  2  7  1  6  0  0  0
  2  3  1  0  0  0  0
  3  4  1  0  0  0  0
  3 11  1  0  0  0  0
  3 12  1  0  0  0  0
  4  7  1  6  0  0  0
  4  5  1  0  0  0  0
  4 13  1  0  0  0  0
  6  5  1  0  0  0  0
  7  8  1  6  0  0  0
  7  6  1  0  0  0  0
 10  2  1  0  0  0  0
 14  6  1  0  0  0  0
 15  6  1  0  0  0  0
 16  8  1  0  0  0  0
M  END
