title
 OpenBabel02282110003D

 16 17  0  0  1  0  0  0  0  0999 V2000
   -0.1220    2.2857    0.4732 C   0  0  0  0  0  0  0  0  0  0  0  0
   -0.0604    0.7890    0.5153 C   0  0  2  0  0  0  0  0  0  0  0  0
   -0.9405   -0.0965    1.3767 C   0  0  0  0  0  0  0  0  0  0  0  0
    0.5498   -0.2059    1.4740 C   0  0  1  0  0  0  0  0  0  0  0  0
    1.0608   -1.0409    0.4293 O   0  0  0  0  0  0  0  0  0  0  0  0
    0.5815   -0.0921   -0.5737 C   0  0  1  0  0  0  0  0  0  0  0  0
   -0.2604   -0.6782   -1.6022 C   0  0  0  0  0  0  0  0  0  0  0  0
   -0.9636   -1.1448   -2.4583 C   0  0  0  0  0  0  0  0  0  0  0  0
    0.8350    2.7189    0.1611 H   0  0  0  0  0  0  0  0  0  0  0  0
   -0.8917    2.6305   -0.2274 H   0  0  0  0  0  0  0  0  0  0  0  0
   -0.3685    2.6941    1.4582 H   0  0  0  0  0  0  0  0  0  0  0  0
   -1.4268    0.4286    2.1939 H   0  0  0  0  0  0  0  0  0  0  0  0
   -1.5107   -0.9137    0.9444 H   0  0  0  0  0  0  0  0  0  0  0  0
    1.1474   -0.0982    2.3717 H   0  0  0  0  0  0  0  0  0  0  0  0
    1.4452    0.4096   -1.0293 H   0  0  0  0  0  0  0  0  0  0  0  0
   -1.5823   -1.5619   -3.2141 H   0  0  0  0  0  0  0  0  0  0  0  0
  1  2  1  0  0  0  0
  1 11  1  0  0  0  0
  2  6  1  6  0  0  0
  2  3  1  0  0  0  0
  3  4  1  0  0  0  0
  3 12  1  0  0  0  0
  4  2  1  6  0  0  0
  4 14  1  0  0  0  0
  5  4  1  0  0  0  0
  6 15  1  6  0  0  0
  6  5  1  0  0  0  0
  7  6  1  0  0  0  0
  8  7  3  0  0  0  0
  9  1  1  0  0  0  0
 10  1  1  0  0  0  0
 13  3  1  0  0  0  0
 16  8  1  0  0  0  0
M  END
