title
 OpenBabel02282110003D

 15 16  0  0  1  0  0  0  0  0999 V2000
   -0.2151    2.1513   -0.4314 N   0  0  0  0  0  0  0  0  0  0  0  0
   -0.4298    0.7570   -0.3361 C   0  0  2  0  0  0  0  0  0  0  0  0
   -0.7231   -0.1452   -1.5043 C   0  0  0  0  0  0  0  0  0  0  0  0
   -1.6177   -0.2192   -0.3017 C   0  0  1  0  0  0  0  0  0  0  0  0
   -0.9567   -1.0878    0.6970 N   0  0  0  0  0  0  0  0  0  0  0  0
    0.1621   -0.0881    0.8161 C   0  0  1  0  0  0  0  0  0  0  0  0
    1.5074   -0.6384    0.6442 C   0  0  0  0  0  0  0  0  0  0  0  0
    2.5737   -1.0558    0.4876 N   0  0  0  0  0  0  0  0  0  0  0  0
   -0.2550    2.4946   -1.3814 H   0  0  0  0  0  0  0  0  0  0  0  0
   -0.8367    2.7000    0.1504 H   0  0  0  0  0  0  0  0  0  0  0  0
   -1.1467    0.3766   -2.3578 H   0  0  0  0  0  0  0  0  0  0  0  0
   -0.0753   -0.9827   -1.7502 H   0  0  0  0  0  0  0  0  0  0  0  0
   -2.6908   -0.0744   -0.3257 H   0  0  0  0  0  0  0  0  0  0  0  0
   -1.4792   -1.1160    1.5669 H   0  0  0  0  0  0  0  0  0  0  0  0
    0.1245    0.4726    1.7558 H   0  0  0  0  0  0  0  0  0  0  0  0
  1  2  1  0  0  0  0
  1 10  1  0  0  0  0
  2  4  1  1  0  0  0
  3  2  1  0  0  0  0
  3  4  1  0  0  0  0
  4 13  1  1  0  0  0
  4  5  1  0  0  0  0
  5  6  1  0  0  0  0
  5 14  1  0  0  0  0
  6  2  1  6  0  0  0
  6 15  1  0  0  0  0
  7  6  1  0  0  0  0
  8  7  3  0  0  0  0
  9  1  1  0  0  0  0
 11  3  1  0  0  0  0
 12  3  1  0  0  0  0
M  END
