16
title
C 0.09265865 2.2128894 0.6047467
C 0.007997595 0.7196309 0.5252507
C -0.83529687 -0.12511706 1.392966
N 0.632079 -0.22260273 1.5443573
C 1.0785288 -1.1062529 0.41872573
C 0.54685104 -0.1075809 -0.6590034
C -0.4062654 -0.5738183 -1.6548198
N -1.1765782 -0.9608661 -2.4257822
H 1.0869658 2.5718346 0.31829393
H -0.64220595 2.6767118 -0.063089825
H -0.11073592 2.5531552 1.6236868
H -1.3153182 0.36177397 2.235915
H -1.3839695 -0.97103775 0.98364156
H 2.1647818 -1.2011013 0.40749106
H 0.62258226 -2.0999892 0.42317805
H 1.3713357 0.40291658 -1.1624291
