title
 OpenBabel02282110003D

 16 17  0  0  1  0  0  0  0  0999 V2000
    0.0927    2.2129    0.6047 C   0  0  0  0  0  0  0  0  0  0  0  0
    0.0080    0.7196    0.5253 C   0  0  2  0  0  0  0  0  0  0  0  0
   -0.8353   -0.1251    1.3930 C   0  0  0  0  0  0  0  0  0  0  0  0
    0.6321   -0.2226    1.5444 N   0  0  1  0  0  0  0  0  0  0  0  0
    1.0785   -1.1063    0.4187 C   0  0  0  0  0  0  0  0  0  0  0  0
    0.5469   -0.1076   -0.6590 C   0  0  1  0  0  0  0  0  0  0  0  0
   -0.4063   -0.5738   -1.6548 C   0  0  0  0  0  0  0  0  0  0  0  0
   -1.1766   -0.9609   -2.4258 N   0  0  0  0  0  0  0  0  0  0  0  0
    1.0870    2.5718    0.3183 H   0  0  0  0  0  0  0  0  0  0  0  0
   -0.6422    2.6767   -0.0631 H   0  0  0  0  0  0  0  0  0  0  0  0
   -0.1107    2.5532    1.6237 H   0  0  0  0  0  0  0  0  0  0  0  0
   -1.3153    0.3618    2.2359 H   0  0  0  0  0  0  0  0  0  0  0  0
   -1.3840   -0.9710    0.9836 H   0  0  0  0  0  0  0  0  0  0  0  0
    2.1648   -1.2011    0.4075 H   0  0  0  0  0  0  0  0  0  0  0  0
    0.6226   -2.1000    0.4232 H   0  0  0  0  0  0  0  0  0  0  0  0
    1.3713    0.4029   -1.1624 H   0  0  0  0  0  0  0  0  0  0  0  0
  1 11  1  0  0  0  0
  2  6  1  6  0  0  0
  2  1  1  0  0  0  0
  2  3  1  0  0  0  0
  3  4  1  0  0  0  0
  3 12  1  0  0  0  0
  4  2  1  6  0  0  0
  5 15  1  0  0  0  0
  5  4  1  0  0  0  0
  6 16  1  6  0  0  0
  6  5  1  0  0  0  0
  7  6  1  0  0  0  0
  8  7  3  0  0  0  0
  9  1  1  0  0  0  0
 10  1  1  0  0  0  0
 13  3  1  0  0  0  0
 14  5  1  0  0  0  0
M  END
