15
title
C -0.12431217 2.2870486 0.50518197
C -0.06416453 0.78991747 0.5299176
C -0.95803094 -0.11156615 1.3618051
C 0.526993 -0.22185303 1.4881234
O 1.0581526 -1.0398467 0.43263584
C 0.6045428 -0.07737347 -0.5497236
C -0.24372657 -0.65938026 -1.5934685
N -0.9265599 -1.0955635 -2.417408
H 0.83815074 2.7238154 0.21700698
H -0.8821816 2.6407373 -0.20310536
H -0.38841277 2.6797411 1.4915851
H -1.4597924 0.4045821 2.1748843
H -1.5220603 -0.9234752 0.9113152
H 1.1141139 -0.13073207 2.3937488
H 1.4630488 0.421276 -1.0154929
