16
title
C -0.18174945 2.2103102 0.49200392
C 0.072606966 0.7398893 0.51318824
O -0.7801113 -0.09427012 1.2992737
C 0.63660306 -0.19122173 1.5067192
C 1.1752704 -1.1383532 0.43096292
C 0.6069494 -0.14008297 -0.65612316
C -0.35297003 -0.622512 -1.6271591
C -1.1539059 -1.0177985 -2.4322686
H 0.68609536 2.7521408 0.102679744
H -1.0396843 2.4402266 -0.1494645
H -0.40138823 2.571929 1.4999123
H 1.0025078 -0.01707108 2.5122688
H 2.2643325 -1.2093725 0.39644745
H 0.7333943 -2.1359386 0.43522674
H 1.4361944 0.36834747 -1.1594629
H -1.8654627 -1.3702469 -3.1370728
