15
title
N -0.21514809 2.1513257 -0.431449
C -0.42984304 0.75703895 -0.33606794
C -0.72306484 -0.1451796 -1.5043436
C -1.6177223 -0.21924338 -0.30167586
N -0.9567415 -1.0877988 0.69702053
C 0.16212584 -0.08806417 0.81606317
C 1.5073756 -0.6383718 0.64422816
N 2.5737426 -1.0558449 0.48760492
H -0.2549972 2.4946442 -1.3813596
H -0.8367493 2.7000434 0.15043145
H -1.1467177 0.37664062 -2.3577929
H -0.07530452 -0.9826722 -1.7502147
H -2.6907547 -0.07436911 -0.32571977
H -1.4792353 -1.1159772 1.5669357
H 0.12453176 0.47263172 1.7557647
