title
 OpenBabel02282110003D

 17 18  0  0  1  0  0  0  0  0999 V2000
    0.2073    2.1692    0.4960 C   0  0  0  0  0  0  0  0  0  0  0  0
    0.0663    0.6779    0.4699 C   0  0  2  0  0  0  0  0  0  0  0  0
   -0.8908   -0.0795    1.2995 C   0  0  0  0  0  0  0  0  0  0  0  0
    0.5479   -0.2327    1.5999 N   0  0  1  0  0  0  0  0  0  0  0  0
    1.0592   -1.1965    0.5699 C   0  0  0  0  0  0  0  0  0  0  0  0
    0.6729   -0.2299   -0.5995 C   0  0  1  0  0  0  0  0  0  0  0  0
   -0.1920   -0.7437   -1.7194 C   0  0  0  0  0  0  0  0  0  0  0  0
   -1.3258   -0.3953   -1.9349 O   0  0  0  0  0  0  0  0  0  0  0  0
    1.2375    2.4762    0.2845 H   0  0  0  0  0  0  0  0  0  0  0  0
   -0.4451    2.6260   -0.2568 H   0  0  0  0  0  0  0  0  0  0  0  0
   -0.0706    2.5678    1.4758 H   0  0  0  0  0  0  0  0  0  0  0  0
   -1.4224    0.4750    2.0667 H   0  0  0  0  0  0  0  0  0  0  0  0
   -1.4417   -0.9217    0.8883 H   0  0  0  0  0  0  0  0  0  0  0  0
    2.1343   -1.3445    0.6789 H   0  0  0  0  0  0  0  0  0  0  0  0
    0.5573   -2.1701    0.5900 H   0  0  0  0  0  0  0  0  0  0  0  0
    1.5823    0.1924   -1.0431 H   0  0  0  0  0  0  0  0  0  0  0  0
    0.3013   -1.5127   -2.3601 H   0  0  0  0  0  0  0  0  0  0  0  0
  1 11  1  0  0  0  0
  2  6  1  6  0  0  0
  2  1  1  0  0  0  0
  2  3  1  0  0  0  0
  3  4  1  0  0  0  0
  3 12  1  0  0  0  0
  4  2  1  6  0  0  0
  5 15  1  0  0  0  0
  5 14  1  0  0  0  0
  5  4  1  0  0  0  0
  6 16  1  6  0  0  0
  6  5  1  0  0  0  0
  7  6  1  0  0  0  0
  8  7  2  0  0  0  0
  9  1  1  0  0  0  0
 10  1  1  0  0  0  0
 13  3  1  0  0  0  0
 17  7  1  0  0  0  0
M  END
