title
 OpenBabel02282110003D

 15 16  0  0  1  0  0  0  0  0999 V2000
   -0.3461    2.1176   -0.2634 O   0  0  0  0  0  0  0  0  0  0  0  0
   -0.4199    0.7422   -0.2796 C   0  0  2  0  0  0  0  0  0  0  0  0
   -0.7956   -0.0736   -1.4886 C   0  0  0  0  0  0  0  0  0  0  0  0
   -1.6110   -0.1847   -0.2242 C   0  0  1  0  0  0  0  0  0  0  0  0
   -0.9185   -1.1315    0.6803 N   0  0  0  0  0  0  0  0  0  0  0  0
    0.2369   -0.1533    0.7963 C   0  0  1  0  0  0  0  0  0  0  0  0
    1.5639   -0.6938    0.5555 C   0  0  0  0  0  0  0  0  0  0  0  0
    2.6702   -1.1122    0.3385 C   0  0  0  0  0  0  0  0  0  0  0  0
    0.3314    2.3937   -0.8915 H   0  0  0  0  0  0  0  0  0  0  0  0
   -1.2622    0.5153   -2.2724 H   0  0  0  0  0  0  0  0  0  0  0  0
   -0.1920   -0.9149   -1.8183 H   0  0  0  0  0  0  0  0  0  0  0  0
   -2.6761    0.0010   -0.1717 H   0  0  0  0  0  0  0  0  0  0  0  0
   -1.3946   -1.1851    1.5762 H   0  0  0  0  0  0  0  0  0  0  0  0
    0.2109    0.3782    1.7539 H   0  0  0  0  0  0  0  0  0  0  0  0
    3.6435   -1.4938    0.1520 H   0  0  0  0  0  0  0  0  0  0  0  0
  2  1  1  0  0  0  0
  2  4  1  1  0  0  0
  3  2  1  0  0  0  0
  3  4  1  0  0  0  0
  4 12  1  1  0  0  0
  4  5  1  0  0  0  0
  5  6  1  0  0  0  0
  5 13  1  0  0  0  0
  6  2  1  6  0  0  0
  6 14  1  0  0  0  0
  7  6  1  0  0  0  0
  8  7  3  0  0  0  0
  9  1  1  0  0  0  0
 10  3  1  0  0  0  0
 11  3  1  0  0  0  0
 15  8  1  0  0  0  0
M  END
