18
title
C -0.21616802 2.1807482 0.64851546
C -0.115308955 0.6823121 0.6648403
C -0.9847939 -0.19061622 1.5368983
C 0.507348 -0.27118972 1.6905831
C 1.0881733 -1.1390241 0.5697407
C 0.5029193 -0.13933262 -0.49427852
C -0.42431286 -0.6748944 -1.5511384
O -0.27610457 -0.5153473 -2.737577
H 0.7305247 2.6413639 0.3442413
H -0.9897576 2.5211089 -0.050281726
H -0.47422823 2.566791 1.6401194
H -1.5048261 0.34860593 2.3228152
H -1.546274 -1.0345603 1.1445674
H 1.003077 -0.037347887 2.625101
H 2.1783936 -1.1603096 0.5328621
H 0.71822715 -2.1694999 0.5271132
H 1.2993134 0.41579074 -0.9955614
H -1.296216 -1.2505991 -1.1635507
