title
 OpenBabel02282110003D

 14 15  0  0  1  0  0  0  0  0999 V2000
   -0.3888    2.1133   -0.2792 O   0  0  0  0  0  0  0  0  0  0  0  0
   -0.4378    0.7407   -0.2943 C   0  0  2  0  0  0  0  0  0  0  0  0
   -0.7774   -0.0944   -1.5012 C   0  0  0  0  0  0  0  0  0  0  0  0
   -1.6103   -0.2155   -0.2514 C   0  0  1  0  0  0  0  0  0  0  0  0
   -0.9074   -1.1378    0.6728 N   0  0  0  0  0  0  0  0  0  0  0  0
    0.2085   -0.1347    0.8039 C   0  0  1  0  0  0  0  0  0  0  0  0
    1.5538   -0.6598    0.5707 C   0  0  0  0  0  0  0  0  0  0  0  0
    2.6241   -1.0428    0.3614 N   0  0  0  0  0  0  0  0  0  0  0  0
    0.2675    2.4076   -0.9216 H   0  0  0  0  0  0  0  0  0  0  0  0
   -1.2426    0.4817   -2.2950 H   0  0  0  0  0  0  0  0  0  0  0  0
   -0.1520   -0.9242   -1.8193 H   0  0  0  0  0  0  0  0  0  0  0  0
   -2.6795   -0.0544   -0.2115 H   0  0  0  0  0  0  0  0  0  0  0  0
   -1.3961   -1.2150    1.5595 H   0  0  0  0  0  0  0  0  0  0  0  0
    0.1856    0.3987    1.7590 H   0  0  0  0  0  0  0  0  0  0  0  0
  2  1  1  0  0  0  0
  2  4  1  1  0  0  0
  3  2  1  0  0  0  0
  3  4  1  0  0  0  0
  4 12  1  1  0  0  0
  4  5  1  0  0  0  0
  5  6  1  0  0  0  0
  5 13  1  0  0  0  0
  6  2  1  6  0  0  0
  6 14  1  0  0  0  0
  7  6  1  0  0  0  0
  8  7  3  0  0  0  0
  9  1  1  0  0  0  0
 10  3  1  0  0  0  0
 11  3  1  0  0  0  0
M  END
