title
 OpenBabel02282110003D

 17 18  0  0  1  0  0  0  0  0999 V2000
   -0.4585    2.1488    0.7852 C   0  0  0  0  0  0  0  0  0  0  0  0
   -0.3855    0.6557    0.6754 C   0  0  2  0  0  0  0  0  0  0  0  0
   -1.3792   -0.3256    1.2425 C   0  0  0  0  0  0  0  0  0  0  0  0
    0.0731   -0.4275    1.6494 C   0  0  1  0  0  0  0  0  0  0  0  0
    0.9005   -1.0546    0.5175 C   0  0  0  0  0  0  0  0  0  0  0  0
    0.3922   -0.0019   -0.3807 N   0  0  0  0  0  0  0  0  0  0  0  0
    0.1703   -0.0839   -1.7173 C   0  0  0  0  0  0  0  0  0  0  0  0
    0.6404   -0.9345   -2.4444 O   0  0  0  0  0  0  0  0  0  0  0  0
    0.5366    2.5972    0.7031 H   0  0  0  0  0  0  0  0  0  0  0  0
   -1.0915    2.5791    0.0010 H   0  0  0  0  0  0  0  0  0  0  0  0
   -0.8900    2.4354    1.7487 H   0  0  0  0  0  0  0  0  0  0  0  0
   -2.0394    0.0741    2.0061 H   0  0  0  0  0  0  0  0  0  0  0  0
   -1.8282   -1.0834    0.6056 H   0  0  0  0  0  0  0  0  0  0  0  0
    0.4031   -0.3157    2.6728 H   0  0  0  0  0  0  0  0  0  0  0  0
    1.9823   -0.9838    0.6632 H   0  0  0  0  0  0  0  0  0  0  0  0
    0.6402   -2.0710    0.2063 H   0  0  0  0  0  0  0  0  0  0  0  0
   -0.4656    0.7486   -2.0833 H   0  0  0  0  0  0  0  0  0  0  0  0
  1 11  1  0  0  0  0
  2  1  1  0  0  0  0
  2  3  1  0  0  0  0
  2  4  1  1  0  0  0
  3  4  1  0  0  0  0
  3 12  1  0  0  0  0
  4 14  1  1  0  0  0
  5 15  1  0  0  0  0
  5  4  1  0  0  0  0
  6  5  1  0  0  0  0
  6  2  1  0  0  0  0
  7  6  1  0  0  0  0
  8  7  2  0  0  0  0
  9  1  1  0  0  0  0
 10  1  1  0  0  0  0
 13  3  1  0  0  0  0
 16  5  1  0  0  0  0
 17  7  1  0  0  0  0
M  END
