title
 OpenBabel02282110003D

 16 17  0  0  1  0  0  0  0  0999 V2000
   -0.4212    2.0993   -0.2374 O   0  0  0  0  0  0  0  0  0  0  0  0
   -0.4377    0.7198   -0.2495 C   0  0  2  0  0  0  0  0  0  0  0  0
   -0.7751   -0.0899   -1.4658 C   0  0  0  0  0  0  0  0  0  0  0  0
   -1.6443   -0.2013   -0.2287 C   0  0  1  0  0  0  0  0  0  0  0  0
   -0.9637   -1.1179    0.7913 C   0  0  0  0  0  0  0  0  0  0  0  0
    0.2775   -0.1416    0.8192 C   0  0  1  0  0  0  0  0  0  0  0  0
    1.5956   -0.6647    0.5142 C   0  0  0  0  0  0  0  0  0  0  0  0
    2.6799   -1.1031    0.2311 C   0  0  0  0  0  0  0  0  0  0  0  0
    0.3021    2.3991   -0.7996 H   0  0  0  0  0  0  0  0  0  0  0  0
   -1.2137    0.4938   -2.2689 H   0  0  0  0  0  0  0  0  0  0  0  0
   -0.1506   -0.9202   -1.7872 H   0  0  0  0  0  0  0  0  0  0  0  0
   -2.6962    0.0528   -0.2499 H   0  0  0  0  0  0  0  0  0  0  0  0
   -1.4666   -1.1638    1.7588 H   0  0  0  0  0  0  0  0  0  0  0  0
   -0.7476   -2.1332    0.4487 H   0  0  0  0  0  0  0  0  0  0  0  0
    0.2929    0.4059    1.7661 H   0  0  0  0  0  0  0  0  0  0  0  0
    3.6400   -1.4892   -0.0066 H   0  0  0  0  0  0  0  0  0  0  0  0
  2  1  1  0  0  0  0
  2  4  1  1  0  0  0
  3  2  1  0  0  0  0
  3  4  1  0  0  0  0
  4 12  1  1  0  0  0
  4  5  1  0  0  0  0
  5  6  1  0  0  0  0
  5 13  1  0  0  0  0
  6  2  1  6  0  0  0
  6 15  1  0  0  0  0
  7  6  1  0  0  0  0
  8  7  3  0  0  0  0
  9  1  1  0  0  0  0
 10  3  1  0  0  0  0
 11  3  1  0  0  0  0
 14  5  1  0  0  0  0
 16  8  1  0  0  0  0
M  END
