15
title
O -0.3460723 2.1176362 -0.26343048
C -0.41986123 0.7422034 -0.27959403
C -0.79563415 -0.0736285 -1.4886364
C -1.6110078 -0.18469538 -0.224159
N -0.91851616 -1.1315395 0.68026376
C 0.23693366 -0.1533223 0.79626626
C 1.5639058 -0.69384915 0.555503
C 2.6701813 -1.1122365 0.3385038
H 0.3314355 2.393682 -0.8914623
H -1.2622393 0.5153175 -2.272445
H -0.19203565 -0.9148838 -1.8182646
H -2.67608 0.0009726139 -0.17168288
H -1.3945543 -1.1851141 1.5762422
H 0.21088608 0.37824506 1.7539197
H 3.6434677 -1.4937932 0.1519563
