14
title
O -0.4072732 2.1435394 -0.23721024
C -0.40962085 0.770056 -0.2840757
C -0.73096913 -0.057350855 -1.5071747
C -1.5476642 -0.20868574 -0.24822852
O -0.88380075 -1.0717926 0.67952627
C 0.22914495 -0.12712954 0.7962152
C 1.5380207 -0.706774 0.5629953
C 2.630295 -1.1653475 0.35778657
H 0.27296638 2.468713 -0.83782125
H -1.2211727 0.5140462 -2.2901587
H -0.081160866 -0.86220396 -1.8384868
H -2.6220162 -0.10082178 -0.17052762
H 0.18346985 0.3640399 1.7755135
H 3.5935202 -1.5778717 0.18362026
