17
title
C 0.20725824 2.1692 0.49604976
C 0.066307396 0.6778886 0.4698641
C -0.89080924 -0.07945527 1.2995317
N 0.54794633 -0.23270465 1.5998666
C 1.0591532 -1.1965069 0.56994617
C 0.6728591 -0.22987337 -0.59948176
C -0.19195607 -0.74374884 -1.7193826
O -1.3257899 -0.395307 -1.9348744
H 1.237528 2.4762135 0.2844672
H -0.44509605 2.6259727 -0.25683016
H -0.07064475 2.5678027 1.4758191
H -1.4224296 0.47502428 2.0666723
H -1.4417136 -0.92170006 0.8882682
H 2.1343024 -1.3445325 0.67889607
H 0.557277 -2.1701016 0.5900101
H 1.5823487 0.19235127 -1.0431144
H 0.30129176 -1.512747 -2.3600638
