14
title
O -0.38883463 2.1132536 -0.2792425
C -0.43776846 0.7406977 -0.29425755
C -0.77737135 -0.094438225 -1.5011519
C -1.6102947 -0.2155141 -0.25138158
N -0.90735424 -1.1378131 0.6727856
C 0.20852521 -0.13474086 0.8039295
C 1.5538222 -0.6597779 0.57065094
N 2.6241374 -1.0428067 0.36139864
H 0.26750496 2.407606 -0.9215642
H -1.2426251 0.48172435 -2.2950127
H -0.15204749 -0.92416656 -1.8192989
H -2.6794996 -0.054383013 -0.21145892
H -1.396081 -1.2150038 1.5594761
H 0.1856052 0.39874575 1.7589945
