title
 OpenBabel02282110003D

 15 16  0  0  1  0  0  0  0  0999 V2000
   -0.4497    2.0960   -0.2451 O   0  0  0  0  0  0  0  0  0  0  0  0
   -0.4533    0.7202   -0.2588 C   0  0  2  0  0  0  0  0  0  0  0  0
   -0.7690   -0.1021   -1.4724 C   0  0  0  0  0  0  0  0  0  0  0  0
   -1.6468   -0.2218   -0.2439 C   0  0  1  0  0  0  0  0  0  0  0  0
   -0.9626   -1.1249    0.7861 C   0  0  0  0  0  0  0  0  0  0  0  0
    0.2569   -0.1272    0.8233 C   0  0  1  0  0  0  0  0  0  0  0  0
    1.5851   -0.6384    0.5162 C   0  0  0  0  0  0  0  0  0  0  0  0
    2.6310   -1.0466    0.2380 N   0  0  0  0  0  0  0  0  0  0  0  0
    0.2409    2.4098   -0.8401 H   0  0  0  0  0  0  0  0  0  0  0  0
   -1.2082    0.4735   -2.2808 H   0  0  0  0  0  0  0  0  0  0  0  0
   -0.1309   -0.9242   -1.7887 H   0  0  0  0  0  0  0  0  0  0  0  0
   -2.7018    0.0168   -0.2720 H   0  0  0  0  0  0  0  0  0  0  0  0
   -1.4702   -1.1727    1.7504 H   0  0  0  0  0  0  0  0  0  0  0  0
   -0.7276   -2.1382    0.4511 H   0  0  0  0  0  0  0  0  0  0  0  0
    0.2823    0.4169    1.7701 H   0  0  0  0  0  0  0  0  0  0  0  0
  2  1  1  0  0  0  0
  2  4  1  1  0  0  0
  3  2  1  0  0  0  0
  3  4  1  0  0  0  0
  4 12  1  1  0  0  0
  4  5  1  0  0  0  0
  5  6  1  0  0  0  0
  5 13  1  0  0  0  0
  6  2  1  6  0  0  0
  6 15  1  0  0  0  0
  7  6  1  0  0  0  0
  8  7  3  0  0  0  0
  9  1  1  0  0  0  0
 10  3  1  0  0  0  0
 11  3  1  0  0  0  0
 14  5  1  0  0  0  0
M  END
