16
title
C -0.1150384 2.2487404 0.18497445
C -0.11913773 0.77976364 0.48156843
C -1.1099895 0.08484411 1.4059781
C 0.35804188 -0.052191313 1.65263
O 0.9175472 -1.0684202 0.80859596
C 0.59944516 -0.2890131 -0.36681467
C -0.22810817 -1.018523 -1.4016434
O -0.32709095 -0.64382917 -2.5422654
H 0.88852894 2.6004002 -0.077892914
H -0.7822921 2.4835615 -0.652028
H -0.45780903 2.8222017 1.0518314
H -1.6296656 0.77015203 2.0694733
H -1.6920186 -0.7791739 1.1011337
H 0.88467634 0.19212234 2.5677109
H 1.5075905 0.1072281 -0.83693093
H -0.76514786 -1.9152015 -1.0217723
