title
 OpenBabel02282110003D

 13 14  0  0  1  0  0  0  0  0999 V2000
   -0.4381    2.1400   -0.2519 O   0  0  0  0  0  0  0  0  0  0  0  0
   -0.4233    0.7707   -0.2945 C   0  0  2  0  0  0  0  0  0  0  0  0
   -0.7130   -0.0752   -1.5136 C   0  0  0  0  0  0  0  0  0  0  0  0
   -1.5485   -0.2293   -0.2713 C   0  0  1  0  0  0  0  0  0  0  0  0
   -0.8800   -1.0732    0.6788 O   0  0  0  0  0  0  0  0  0  0  0  0
    0.1988   -0.1119    0.8058 C   0  0  1  0  0  0  0  0  0  0  0  0
    1.5250   -0.6823    0.5710 C   0  0  0  0  0  0  0  0  0  0  0  0
    2.5802   -1.1046    0.3613 N   0  0  0  0  0  0  0  0  0  0  0  0
    0.2248    2.4780   -0.8650 H   0  0  0  0  0  0  0  0  0  0  0  0
   -1.1988    0.4846   -2.3075 H   0  0  0  0  0  0  0  0  0  0  0  0
   -0.0475   -0.8723   -1.8329 H   0  0  0  0  0  0  0  0  0  0  0  0
   -2.6250   -0.1425   -0.2048 H   0  0  0  0  0  0  0  0  0  0  0  0
    0.1640    0.3779    1.7848 H   0  0  0  0  0  0  0  0  0  0  0  0
  2  4  1  1  0  0  0
  2  1  1  0  0  0  0
  3  2  1  0  0  0  0
  3  4  1  0  0  0  0
  4 12  1  1  0  0  0
  4  5  1  0  0  0  0
  5  6  1  0  0  0  0
  6  2  1  6  0  0  0
  6 13  1  0  0  0  0
  7  6  1  0  0  0  0
  8  7  3  0  0  0  0
  9  1  1  0  0  0  0
 10  3  1  0  0  0  0
 11  3  1  0  0  0  0
M  END
