title
 OpenBabel02282110003D

 16 17  0  0  1  0  0  0  0  0999 V2000
   -0.6700    2.5144   -1.1373 C   0  0  0  0  0  0  0  0  0  0  0  0
   -0.5492    1.0669   -1.2457 N   0  0  0  0  0  0  0  0  0  0  0  0
   -0.1555    0.4099   -0.2594 C   0  0  0  0  0  0  0  0  0  0  0  0
    0.2616    0.8337    1.0146 O   0  0  0  0  0  0  0  0  0  0  0  0
    0.7127   -0.5107    1.3192 C   0  0  1  0  0  0  0  0  0  0  0  0
   -0.4578   -1.4264    1.3379 C   0  0  0  0  0  0  0  0  0  0  0  0
    0.1724   -1.0337   -0.0029 C   0  0  1  0  0  0  0  0  0  0  0  0
    0.6632   -2.0159   -0.8953 N   0  0  0  0  0  0  0  0  0  0  0  0
   -0.1508    2.9801   -1.9816 H   0  0  0  0  0  0  0  0  0  0  0  0
   -1.7265    2.7937   -1.2191 H   0  0  0  0  0  0  0  0  0  0  0  0
   -0.2706    2.9258   -0.2031 H   0  0  0  0  0  0  0  0  0  0  0  0
    1.6672   -0.6216    1.8135 H   0  0  0  0  0  0  0  0  0  0  0  0
   -0.2422   -2.4555    1.6086 H   0  0  0  0  0  0  0  0  0  0  0  0
   -1.4332   -1.0507    1.6306 H   0  0  0  0  0  0  0  0  0  0  0  0
   -0.1003   -2.4689   -1.3882 H   0  0  0  0  0  0  0  0  0  0  0  0
    1.2641   -1.5942   -1.5967 H   0  0  0  0  0  0  0  0  0  0  0  0
  1 11  1  0  0  0  0
  2  1  1  0  0  0  0
  2  3  2  0  0  0  0
  3  7  1  0  0  0  0
  3  4  1  0  0  0  0
  4  5  1  0  0  0  0
  5  7  1  6  0  0  0
  5  6  1  0  0  0  0
  5 12  1  0  0  0  0
  6 13  1  0  0  0  0
  6 14  1  0  0  0  0
  7  8  1  6  0  0  0
  7  6  1  0  0  0  0
  9  1  1  0  0  0  0
 10  1  1  0  0  0  0
 15  8  1  0  0  0  0
 16  8  1  0  0  0  0
M  END
