title
 OpenBabel02282110003D

 15 16  0  0  1  0  0  0  0  0999 V2000
   -0.7497    2.5023    1.1242 C   0  0  0  0  0  0  0  0  0  0  0  0
   -0.8030    1.0467    1.1115 N   0  0  0  0  0  0  0  0  0  0  0  0
   -0.1388    0.4160    0.2637 C   0  0  0  0  0  0  0  0  0  0  0  0
    0.6708    0.8655   -0.7925 O   0  0  0  0  0  0  0  0  0  0  0  0
    0.7349   -0.4815   -1.3329 C   0  0  1  0  0  0  0  0  0  0  0  0
    1.4404   -1.3647   -0.3528 C   0  0  0  0  0  0  0  0  0  0  0  0
   -0.0183   -1.0256   -0.1201 C   0  0  1  0  0  0  0  0  0  0  0  0
   -0.9431   -2.0114    0.0907 O   0  0  0  0  0  0  0  0  0  0  0  0
   -0.2250    2.9353    0.2649 H   0  0  0  0  0  0  0  0  0  0  0  0
   -1.7710    2.8954    1.1546 H   0  0  0  0  0  0  0  0  0  0  0  0
   -0.2520    2.8338    2.0423 H   0  0  0  0  0  0  0  0  0  0  0  0
    0.6340   -0.5997   -2.4022 H   0  0  0  0  0  0  0  0  0  0  0  0
    1.5725   -2.3923   -0.6806 H   0  0  0  0  0  0  0  0  0  0  0  0
    2.2294   -0.9678    0.2793 H   0  0  0  0  0  0  0  0  0  0  0  0
   -1.8206   -1.6177    0.0138 H   0  0  0  0  0  0  0  0  0  0  0  0
  1 10  1  0  0  0  0
  1 11  1  0  0  0  0
  2  1  1  0  0  0  0
  3  2  2  0  0  0  0
  4  3  1  0  0  0  0
  5  4  1  0  0  0  0
  5  6  1  0  0  0  0
  5  7  1  1  0  0  0
  6  7  1  0  0  0  0
  6 14  1  0  0  0  0
  7  8  1  6  0  0  0
  7  3  1  0  0  0  0
  9  1  1  0  0  0  0
 12  5  1  0  0  0  0
 13  6  1  0  0  0  0
 15  8  1  0  0  0  0
M  END
