16
title
O -0.415015 2.035471 -0.09046594
C -0.44335023 0.65880996 -0.18429326
C -0.66424644 -0.06528 -1.4816467
C -1.6577308 -0.24457131 -0.35634872
C -1.0948124 -1.2428765 0.66477305
C 0.13012657 -0.27342257 0.88572353
C 1.5290332 -0.79957503 0.7109104
O 2.3217008 -0.37046507 -0.09121681
H 0.38844183 2.3431206 -0.5258282
H -1.0071216 0.58495736 -2.2800367
H -0.022546973 -0.8816206 -1.8032022
H -2.701428 0.021692835 -0.46205488
H -1.7034081 -1.3590204 1.5627757
H -0.854607 -2.234452 0.26758158
H 0.05956814 0.17534946 1.8839778
H 1.804301 -1.6399149 1.3912046
