16
title
C -0.22743954 2.168593 0.712613
C 0.0022189317 0.6944661 0.6620747
O -0.892048 -0.16839842 1.378869
C 0.5159419 -0.29018468 1.6307031
C 1.0883088 -1.180905 0.5238569
C 0.5515209 -0.14030497 -0.5338426
C -0.476596 -0.623103 -1.5214642
O -0.3770084 -0.51181924 -2.718553
H 0.65986943 2.7111006 0.37197793
H -1.0651644 2.454295 0.06683617
H -0.46215177 2.4798396 1.7339526
H 0.8417672 -0.173905 2.6579463
H 2.1784587 -1.2370979 0.51251704
H 0.6687241 -2.1891582 0.4794992
H 1.3607285 0.3632316 -1.066608
H -1.3645933 -1.1016043 -1.0556235
