14
title
O -0.38404256 2.2423196 -0.2868388
C -0.37759635 0.869437 -0.27643424
C -0.6787658 -0.0199214 -1.463933
C -1.5097543 -0.12096194 -0.2118045
O -0.85314095 -0.9301441 0.7677699
C 0.23976661 0.0025517559 0.8557579
C 1.6079813 -0.5536252 0.567539
O 1.832553 -1.6288036 0.07511162
H 0.22432686 2.5506575 -0.9675404
H -1.1647899 0.50887644 -2.2788303
H -0.022544334 -0.8381746 -1.7456217
H -2.5853221 -0.014479258 -0.1520943
H 0.2300529 0.53911513 1.8137207
H 2.4283998 0.16473438 0.8067445
