17
title
C -0.19670461 2.1811764 0.7053609
C -0.029476529 0.6946222 0.6682148
N -0.9335431 -0.22567275 1.4050287
C 0.5313808 -0.2816216 1.6430858
C 1.095264 -1.1610482 0.52587545
C 0.52083975 -0.13144192 -0.5247407
C -0.4876727 -0.6377888 -1.5217382
O -0.36500487 -0.5406841 -2.7188618
H 0.6978631 2.6871057 0.3274537
H -1.0455822 2.5016673 0.09018486
H -0.3735948 2.529322 1.7291558
H -1.3441974 0.31344151 2.1674273
H 0.9327557 -0.124216944 2.6369636
H 2.1852036 -1.1970086 0.4904815
H 0.691317 -2.1759138 0.48605496
H 1.3182997 0.39010435 -1.0579128
H -1.3790157 -1.1176336 -1.066559
