20
title
C -0.29771107 2.334578 0.66115165
C -0.19562078 0.8350446 0.66870207
C -1.0379646 -0.033975977 1.5685974
C 0.45886344 -0.109691575 1.6863421
C 1.0219009 -0.9815945 0.55773956
C 0.39826924 0.0039110603 -0.48510104
C -0.5304257 -0.53961724 -1.5550673
O 0.2550258 -1.3181497 -2.4498987
H 0.6407525 2.7962282 0.33222806
H -1.0901606 2.6817064 -0.013649704
H -0.52758294 2.7204032 1.6600388
H -1.5418298 0.502751 2.367091
H -1.6031106 -0.88253313 1.1892849
H 0.97143763 0.14103483 2.6079981
H 2.1121762 -1.0041745 0.51209104
H 0.652977 -2.0125349 0.52534884
H 1.1940383 0.567094 -0.9840391
H -1.3259202 -1.1485921 -1.0983142
H -1.0209427 0.29732308 -2.0800133
H -0.33275083 -1.7136358 -3.0999837
