16
title
C -0.6699554 2.5144408 -1.1372722
N -0.5491964 1.0668875 -1.2457476
C -0.15552382 0.4098545 -0.25944072
O 0.26163632 0.83369267 1.0146251
C 0.71271133 -0.5107086 1.3191977
C -0.45778292 -1.4263841 1.3378699
C 0.17236562 -1.0336813 -0.0029380976
N 0.6631956 -2.015901 -0.895268
H -0.15075873 2.9800968 -1.9815766
H -1.7264885 2.7937474 -1.2191181
H -0.2706134 2.925787 -0.20311648
H 1.6672459 -0.62163854 1.8135426
H -0.24215846 -2.4554775 1.6085722
H -1.4331787 -1.0507213 1.6305997
H -0.100312285 -2.4688616 -1.388152
H 1.2640973 -1.5941607 -1.5966796
