17
title
C -0.66510063 2.4996982 -1.1259587
N -0.55864656 1.0511942 -1.2309059
C -0.13827288 0.39694634 -0.25384933
O 0.31528676 0.8280281 1.0048925
C 0.72219193 -0.52984506 1.3105313
C -0.4805611 -1.4037563 1.3523537
C 0.16200417 -1.0471469 0.0023352986
C 0.6280483 -2.0475407 -1.0120875
H -0.1452598 2.957818 -1.9740894
H -1.7193935 2.7881265 -1.2047666
H -0.25784945 2.9116824 -0.19540955
H 1.674229 -0.664782 1.8056642
H -0.31333342 -2.433916 1.6543871
H -1.4367985 -0.982673 1.6472605
H -0.19637567 -2.3462632 -1.6676252
H 1.4200433 -1.6306211 -1.6415468
H 1.0128939 -2.9490895 -0.5259399
