title
 OpenBabel02282110003D

 17 18  0  0  1  0  0  0  0  0999 V2000
   -0.6651    2.4997   -1.1260 C   0  0  0  0  0  0  0  0  0  0  0  0
   -0.5586    1.0512   -1.2309 N   0  0  0  0  0  0  0  0  0  0  0  0
   -0.1383    0.3969   -0.2538 C   0  0  0  0  0  0  0  0  0  0  0  0
    0.3153    0.8280    1.0049 O   0  0  0  0  0  0  0  0  0  0  0  0
    0.7222   -0.5298    1.3105 C   0  0  1  0  0  0  0  0  0  0  0  0
   -0.4806   -1.4038    1.3524 C   0  0  0  0  0  0  0  0  0  0  0  0
    0.1620   -1.0471    0.0023 C   0  0  1  0  0  0  0  0  0  0  0  0
    0.6280   -2.0475   -1.0121 C   0  0  0  0  0  0  0  0  0  0  0  0
   -0.1453    2.9578   -1.9741 H   0  0  0  0  0  0  0  0  0  0  0  0
   -1.7194    2.7881   -1.2048 H   0  0  0  0  0  0  0  0  0  0  0  0
   -0.2578    2.9117   -0.1954 H   0  0  0  0  0  0  0  0  0  0  0  0
    1.6742   -0.6648    1.8057 H   0  0  0  0  0  0  0  0  0  0  0  0
   -0.3133   -2.4339    1.6544 H   0  0  0  0  0  0  0  0  0  0  0  0
   -1.4368   -0.9827    1.6473 H   0  0  0  0  0  0  0  0  0  0  0  0
   -0.1964   -2.3463   -1.6676 H   0  0  0  0  0  0  0  0  0  0  0  0
    1.4200   -1.6306   -1.6415 H   0  0  0  0  0  0  0  0  0  0  0  0
    1.0129   -2.9491   -0.5259 H   0  0  0  0  0  0  0  0  0  0  0  0
  1 11  1  0  0  0  0
  2  1  1  0  0  0  0
  2  3  2  0  0  0  0
  3  7  1  0  0  0  0
  3  4  1  0  0  0  0
  4  5  1  0  0  0  0
  5  7  1  6  0  0  0
  5  6  1  0  0  0  0
  5 12  1  0  0  0  0
  6 14  1  0  0  0  0
  6 13  1  0  0  0  0
  7  8  1  6  0  0  0
  7  6  1  0  0  0  0
  8 17  1  0  0  0  0
  9  1  1  0  0  0  0
 10  1  1  0  0  0  0
 15  8  1  0  0  0  0
 16  8  1  0  0  0  0
M  END
