20
title
C -0.92635024 2.5140424 -0.71746266
O -0.37000623 1.2386901 -0.9382549
C 0.07419665 0.613559 0.24033351
C -0.98519444 -0.017591046 1.2137703
C -0.3033471 -1.3721229 1.002504
C -0.34394938 -1.7211283 -0.45888236
C 0.708406 -0.75718325 0.020781526
C 2.182039 -0.9884345 -0.15566616
H -0.199495 3.2006073 -0.2541811
H -1.2194947 2.916225 -1.6904017
H -1.8158779 2.4715157 -0.07067113
H 0.7522119 1.286035 0.78942233
H -0.91103023 0.37342906 2.2310276
H -2.027368 0.04175372 0.8823615
H -0.12511222 -2.1154094 1.7702838
H 0.0339358 -2.705736 -0.7169319
H -1.1650484 -1.3781062 -1.0826261
H 2.520508 -0.64372665 -1.1400019
H 2.7663517 -0.45398885 0.6025991
H 2.4277778 -2.0526013 -0.076827936
