18
title
C -0.66322446 2.667713 1.0850006
C -0.99213 1.1824354 0.8971474
C -0.21571001 0.5591251 -0.24639021
O 1.2378044 0.5816453 -0.061968673
C 1.3227863 -0.80568427 -0.3914243
C 0.60828835 -1.6396196 0.6401729
C -0.17089704 -0.958015 -0.4663719
O -0.9476532 -1.6296482 -1.3885237
H 0.40396354 2.7994587 1.283926
H -0.9106559 3.244293 0.18703826
H -1.2235122 3.0939496 1.9223328
H -0.78283626 0.634623 1.8227837
H -2.0624304 1.0553194 0.6852803
H -0.45587397 1.0583526 -1.1956462
H 2.1387 -1.1401813 -1.0201901
H 0.70443946 -2.7113576 0.49028552
H 0.56516486 -1.3124516 1.6750871
H -1.6609516 -2.0747027 -0.9182427
