title
 OpenBabel02282110003D

 20 21  0  0  1  0  0  0  0  0999 V2000
   -0.9264    2.5140   -0.7175 C   0  0  0  0  0  0  0  0  0  0  0  0
   -0.3700    1.2387   -0.9383 O   0  0  0  0  0  0  0  0  0  0  0  0
    0.0742    0.6136    0.2403 C   0  0  1  0  0  0  0  0  0  0  0  0
   -0.9852   -0.0176    1.2138 C   0  0  0  0  0  0  0  0  0  0  0  0
   -0.3033   -1.3721    1.0025 C   0  0  1  0  0  0  0  0  0  0  0  0
   -0.3439   -1.7211   -0.4589 C   0  0  0  0  0  0  0  0  0  0  0  0
    0.7084   -0.7572    0.0208 C   0  0  1  0  0  0  0  0  0  0  0  0
    2.1820   -0.9884   -0.1557 C   0  0  0  0  0  0  0  0  0  0  0  0
   -0.1995    3.2006   -0.2542 H   0  0  0  0  0  0  0  0  0  0  0  0
   -1.2195    2.9162   -1.6904 H   0  0  0  0  0  0  0  0  0  0  0  0
   -1.8159    2.4715   -0.0707 H   0  0  0  0  0  0  0  0  0  0  0  0
    0.7522    1.2860    0.7894 H   0  0  0  0  0  0  0  0  0  0  0  0
   -0.9110    0.3734    2.2310 H   0  0  0  0  0  0  0  0  0  0  0  0
   -2.0274    0.0418    0.8824 H   0  0  0  0  0  0  0  0  0  0  0  0
   -0.1251   -2.1154    1.7703 H   0  0  0  0  0  0  0  0  0  0  0  0
    0.0339   -2.7057   -0.7169 H   0  0  0  0  0  0  0  0  0  0  0  0
   -1.1650   -1.3781   -1.0826 H   0  0  0  0  0  0  0  0  0  0  0  0
    2.5205   -0.6437   -1.1400 H   0  0  0  0  0  0  0  0  0  0  0  0
    2.7664   -0.4540    0.6026 H   0  0  0  0  0  0  0  0  0  0  0  0
    2.4278   -2.0526   -0.0768 H   0  0  0  0  0  0  0  0  0  0  0  0
  1  9  1  0  0  0  0
  1 11  1  0  0  0  0
  2  1  1  0  0  0  0
  2  3  1  0  0  0  0
  3  7  1  6  0  0  0
  3 12  1  0  0  0  0
  3  4  1  0  0  0  0
  4 13  1  0  0  0  0
  5  7  1  6  0  0  0
  5  4  1  0  0  0  0
  5 15  1  0  0  0  0
  6  7  1  0  0  0  0
  6  5  1  0  0  0  0
  7  8  1  1  0  0  0
  8 20  1  0  0  0  0
  8 19  1  0  0  0  0
 10  1  1  0  0  0  0
 14  4  1  0  0  0  0
 16  6  1  0  0  0  0
 17  6  1  0  0  0  0
 18  8  1  0  0  0  0
M  END
