22
title
C -0.80303913 2.6800416 1.0543114
C -0.9739456 1.1649977 0.89962983
C -0.13377513 0.58370847 -0.23496157
C 1.4291857 0.529504 -0.098689854
C 1.3826584 -0.9730993 -0.39523607
C 0.538644 -1.6649228 0.6399957
C -0.1477433 -0.93829256 -0.48729295
C -1.0810013 -1.622753 -1.4455664
H 0.23993675 2.9422762 1.2630847
H -1.0978203 3.207072 0.13970798
H -1.4139855 3.069831 1.8745463
H -0.71463776 0.6707883 1.8441844
H -2.0316958 0.93306136 0.7157764
H -0.3923604 1.1019673 -1.1667974
H 1.942238 1.1191394 -0.8615019
H 1.8390065 0.8010306 0.8814845
H 2.0882475 -1.5166236 -1.0132387
H 0.5052369 -2.747947 0.5660413
H 0.51175076 -1.2958566 1.663013
H -2.1062114 -1.6525658 -1.0556176
H -1.1112471 -1.1054429 -2.4119947
H -0.7724706 -2.6572483 -1.6306875
