title
 OpenBabel02282110003D

 18 19  0  0  1  0  0  0  0  0999 V2000
   -0.3400    2.3224    0.7231 C   0  0  0  0  0  0  0  0  0  0  0  0
   -0.0849    0.8515    0.6585 C   0  0  2  0  0  0  0  0  0  0  0  0
   -0.9590   -0.0232    1.3928 O   0  0  0  0  0  0  0  0  0  0  0  0
    0.4553   -0.1179    1.6298 C   0  0  1  0  0  0  0  0  0  0  0  0
    1.0384   -1.0035    0.5235 C   0  0  0  0  0  0  0  0  0  0  0  0
    0.4710    0.0209   -0.5233 C   0  0  1  0  0  0  0  0  0  0  0  0
   -0.5323   -0.4844   -1.5406 C   0  0  0  0  0  0  0  0  0  0  0  0
    0.1521   -1.3721   -2.4168 O   0  0  0  0  0  0  0  0  0  0  0  0
    0.5341    2.8833    0.3764 H   0  0  0  0  0  0  0  0  0  0  0  0
   -1.1902    2.6021    0.0904 H   0  0  0  0  0  0  0  0  0  0  0  0
   -0.5679    2.6242    1.7489 H   0  0  0  0  0  0  0  0  0  0  0  0
    0.7890    0.0205    2.6525 H   0  0  0  0  0  0  0  0  0  0  0  0
    2.1296   -1.0466    0.5223 H   0  0  0  0  0  0  0  0  0  0  0  0
    0.6335   -2.0170    0.4773 H   0  0  0  0  0  0  0  0  0  0  0  0
    1.2848    0.5459   -1.0332 H   0  0  0  0  0  0  0  0  0  0  0  0
   -1.3523   -0.9899   -1.0121 H   0  0  0  0  0  0  0  0  0  0  0  0
   -0.9634    0.3659   -2.0954 H   0  0  0  0  0  0  0  0  0  0  0  0
   -0.4969   -1.7750   -3.0007 H   0  0  0  0  0  0  0  0  0  0  0  0
  1 11  1  0  0  0  0
  2  6  1  6  0  0  0
  2  1  1  0  0  0  0
  2  3  1  0  0  0  0
  3  4  1  0  0  0  0
  4  2  1  6  0  0  0
  4 12  1  0  0  0  0
  5  4  1  0  0  0  0
  6 15  1  6  0  0  0
  6  5  1  0  0  0  0
  7 16  1  0  0  0  0
  7  6  1  0  0  0  0
  8  7  1  0  0  0  0
  9  1  1  0  0  0  0
 10  1  1  0  0  0  0
 13  5  1  0  0  0  0
 14  5  1  0  0  0  0
 17  7  1  0  0  0  0
 18  8  1  0  0  0  0
M  END
