19
title
C -0.28193235 2.3182924 0.774098
C -0.10106571 0.8342304 0.69087064
N -0.97788256 -0.106792994 1.4380537
C 0.494842 -0.14923348 1.638865
C 1.0469654 -1.0060861 0.49810025
C 0.43599576 0.033288233 -0.5157888
C -0.5627404 -0.46281803 -1.5513477
O 0.047108166 -1.2965974 -2.5308323
H 0.59618425 2.8439298 0.38350308
H -1.1522673 2.6494627 0.19507638
H -0.43084556 2.638614 1.8115398
H -1.3689171 0.41818956 2.2208657
H 0.917788 0.0037337458 2.6250074
H 2.1373484 -1.0429354 0.45890272
H 0.6451017 -2.0240028 0.45972764
H 1.2382417 0.5826729 -1.0182904
H -1.3942308 -0.9711474 -1.0458224
H -0.9805191 0.38481474 -2.106928
H 0.33516067 -2.0996163 -2.0852532
