title
 OpenBabel02282110003D

 22 23  0  0  1  0  0  0  0  0999 V2000
   -0.8030    2.6800    1.0543 C   0  0  0  0  0  0  0  0  0  0  0  0
   -0.9739    1.1650    0.8996 C   0  0  0  0  0  0  0  0  0  0  0  0
   -0.1338    0.5837   -0.2350 C   0  0  1  0  0  0  0  0  0  0  0  0
    1.4292    0.5295   -0.0987 C   0  0  0  0  0  0  0  0  0  0  0  0
    1.3827   -0.9731   -0.3952 C   0  0  1  0  0  0  0  0  0  0  0  0
    0.5386   -1.6649    0.6400 C   0  0  0  0  0  0  0  0  0  0  0  0
   -0.1477   -0.9383   -0.4873 C   0  0  1  0  0  0  0  0  0  0  0  0
   -1.0810   -1.6228   -1.4456 C   0  0  0  0  0  0  0  0  0  0  0  0
    0.2399    2.9423    1.2631 H   0  0  0  0  0  0  0  0  0  0  0  0
   -1.0978    3.2071    0.1397 H   0  0  0  0  0  0  0  0  0  0  0  0
   -1.4140    3.0698    1.8745 H   0  0  0  0  0  0  0  0  0  0  0  0
   -0.7146    0.6708    1.8442 H   0  0  0  0  0  0  0  0  0  0  0  0
   -2.0317    0.9331    0.7158 H   0  0  0  0  0  0  0  0  0  0  0  0
   -0.3924    1.1020   -1.1668 H   0  0  0  0  0  0  0  0  0  0  0  0
    1.9422    1.1191   -0.8615 H   0  0  0  0  0  0  0  0  0  0  0  0
    1.8390    0.8010    0.8815 H   0  0  0  0  0  0  0  0  0  0  0  0
    2.0882   -1.5166   -1.0132 H   0  0  0  0  0  0  0  0  0  0  0  0
    0.5052   -2.7479    0.5660 H   0  0  0  0  0  0  0  0  0  0  0  0
    0.5118   -1.2959    1.6630 H   0  0  0  0  0  0  0  0  0  0  0  0
   -2.1062   -1.6526   -1.0556 H   0  0  0  0  0  0  0  0  0  0  0  0
   -1.1112   -1.1054   -2.4120 H   0  0  0  0  0  0  0  0  0  0  0  0
   -0.7725   -2.6572   -1.6307 H   0  0  0  0  0  0  0  0  0  0  0  0
  1  9  1  0  0  0  0
  1 11  1  0  0  0  0
  2  1  1  0  0  0  0
  2 12  1  0  0  0  0
  3  7  1  6  0  0  0
  3  4  1  0  0  0  0
  3  2  1  0  0  0  0
  4 16  1  0  0  0  0
  5  7  1  6  0  0  0
  5  4  1  0  0  0  0
  5  6  1  0  0  0  0
  6 19  1  0  0  0  0
  7  8  1  6  0  0  0
  7  6  1  0  0  0  0
  8 20  1  0  0  0  0
 10  1  1  0  0  0  0
 13  2  1  0  0  0  0
 14  3  1  0  0  0  0
 15  4  1  0  0  0  0
 17  5  1  0  0  0  0
 18  6  1  0  0  0  0
 21  8  1  0  0  0  0
 22  8  1  0  0  0  0
M  END
