18
title
C -0.32873562 2.3882234 0.76052475
C -0.23671079 0.89356697 0.6670726
C -1.0275222 -0.06657981 1.543029
C 0.46590114 -0.14282195 1.5171968
O 0.9189128 -0.8927176 0.38405302
C 0.36248916 0.11925054 -0.5132926
C -0.49929565 -0.5125326 -1.5911933
O 0.2450974 -1.4775285 -2.3124657
H 0.59069777 2.8673487 0.40580666
H -1.1609176 2.7768502 0.1613973
H -0.4947802 2.7081747 1.7940515
H -1.4531883 0.4016957 2.426076
H -1.6158091 -0.8817462 1.132469
H 1.1271154 -0.07272404 2.3734128
H 1.1919589 0.6701423 -0.9760638
H -1.4044386 -0.9522326 -1.1469609
H -0.8168039 0.25098622 -2.3104424
H 0.62087756 -2.0712543 -1.6510047
