20
title
C -0.65664494 2.6357079 1.086008
C -1.0009302 1.1565878 0.87920505
C -0.21306793 0.5372526 -0.2606469
O 1.2358131 0.5739603 -0.06748386
C 1.3204668 -0.817517 -0.3825104
C 0.5984474 -1.6351298 0.6428884
C -0.17810075 -0.98079175 -0.4884729
C -1.0544118 -1.7282552 -1.4499269
H 0.40946063 2.7520902 1.2998034
H -0.8849665 3.2252388 0.19109784
H -1.2226617 3.0607297 1.9201204
H -0.81159866 0.5974994 1.8019962
H -2.0695772 1.0434128 0.652403
H -0.44903168 1.0543928 -1.2031116
H 2.1461856 -1.1505798 -1.001433
H 0.6987614 -2.711871 0.538381
H 0.54042906 -1.2794021 1.6675047
H -2.0657043 -1.8652319 -1.047759
H -1.1441821 -1.1965975 -2.40423
H -0.6509316 -2.7240224 -1.6599629
