title
 OpenBabel02282110003D

 16 17  0  0  1  0  0  0  0  0999 V2000
    1.2163    2.5049   -0.0776 O   0  0  0  0  0  0  0  0  0  0  0  0
    1.2640    1.1695    0.3902 C   0  0  0  0  0  0  0  0  0  0  0  0
   -0.1152    0.5408    0.3479 C   0  0  1  0  0  0  0  0  0  0  0  0
   -0.6779    0.5746   -1.0045 O   0  0  0  0  0  0  0  0  0  0  0  0
   -1.0061   -0.8163   -0.9237 C   0  0  1  0  0  0  0  0  0  0  0  0
    0.2391   -1.6547   -0.8173 C   0  0  0  0  0  0  0  0  0  0  0  0
   -0.3312   -0.9757    0.4127 C   0  0  1  0  0  0  0  0  0  0  0  0
   -0.7555   -1.6496    1.5377 O   0  0  0  0  0  0  0  0  0  0  0  0
    0.7891    2.4707   -0.9420 H   0  0  0  0  0  0  0  0  0  0  0  0
    1.9747    0.5646   -0.1931 H   0  0  0  0  0  0  0  0  0  0  0  0
    1.6243    1.2056    1.4246 H   0  0  0  0  0  0  0  0  0  0  0  0
   -0.7979    1.0622    1.0297 H   0  0  0  0  0  0  0  0  0  0  0  0
   -1.9586   -1.1437   -1.3214 H   0  0  0  0  0  0  0  0  0  0  0  0
    0.0524   -2.7249   -0.8288 H   0  0  0  0  0  0  0  0  0  0  0  0
    1.1612   -1.3356   -1.2939 H   0  0  0  0  0  0  0  0  0  0  0  0
   -0.0004   -2.1051    1.9255 H   0  0  0  0  0  0  0  0  0  0  0  0
  1  2  1  0  0  0  0
  2 11  1  0  0  0  0
  3  2  1  0  0  0  0
  3  7  1  1  0  0  0
  3 12  1  0  0  0  0
  4  5  1  0  0  0  0
  4  3  1  0  0  0  0
  5  6  1  0  0  0  0
  5  7  1  1  0  0  0
  6  7  1  0  0  0  0
  7  8  1  1  0  0  0
  8 16  1  0  0  0  0
  9  1  1  0  0  0  0
 10  2  1  0  0  0  0
 13  5  1  0  0  0  0
 14  6  1  0  0  0  0
 15  6  1  0  0  0  0
M  END
