18
title
C -0.23099881 2.5321248 1.1547134
O -0.6686037 1.2569807 0.7417608
C 0.18099612 0.65209186 -0.18582836
C 1.54956 0.021876412 0.2873604
C 1.0382096 -1.3093094 -0.27324966
O -0.14509161 -1.6245176 0.46736488
C -0.2715381 -0.7388566 -0.6540964
C -1.274163 -1.0711025 -1.7101237
H 0.7437455 2.4880066 1.6631649
H -0.14460352 3.2278297 0.30468205
H -0.9749755 2.919889 1.8544135
H 0.35239995 1.3138404 -1.0509442
H 2.419018 0.43917242 -0.22533074
H 1.7135285 0.010353641 1.3671337
H 1.5926096 -2.133384 -0.70776206
H -2.2858407 -0.82876986 -1.3671201
H -1.0819664 -0.5002369 -2.624389
H -1.2400537 -2.1377165 -1.9468998
