18
title
C 1.0436077 2.571887 -0.39806473
O 0.99444056 1.2747071 0.15198979
C -0.23585142 0.62873495 -0.05452568
C -0.5562968 0.007400309 -1.465102
C -0.72471833 -1.3542197 -0.7827306
C 0.5787412 -1.7333474 -0.117796026
C -0.33633673 -0.756252 0.5659206
O -0.9061475 -1.004462 1.8017826
H 2.026168 2.9894083 -0.1647023
H 0.9147947 2.5621145 -1.4909348
H 0.26835358 3.2252822 0.032550387
H -1.0677665 1.2629627 0.28617692
H -1.4682819 0.4077066 -1.912655
H 0.26044023 0.066646494 -2.1915069
H -1.4921714 -2.0856853 -0.9995927
H 0.58091754 -2.7145157 0.34625155
H 1.5299246 -1.4183633 -0.53878736
H -0.20298232 -1.0089455 2.460532
