18
title
O 1.4169856 1.5422871 1.156932
C 1.0418056 1.484512 -0.21931575
C -0.29890844 0.7793618 -0.26100138
C -0.8881257 0.23065943 -1.6051414
C -1.0022477 -1.1626667 -0.9650678
C 0.38174394 -1.6297559 -0.5651048
C -0.35171625 -0.6425213 0.3047471
O -0.6911239 -0.9189407 1.6156898
H 2.2916663 1.9368218 1.2190672
H 0.9678391 2.4932203 -0.65545386
H 1.7876561 0.9255052 -0.8050651
H -1.0434068 1.3932551 0.25490016
H -1.8452905 0.6879395 -1.8623371
H -0.22754295 0.28603536 -2.477974
H -1.8275279 -1.8520364 -1.0909604
H 0.41523138 -2.6253297 -0.13471086
H 1.2516614 -1.3654588 -1.1640238
H 0.023970764 -0.56809145 2.160854
