19
title
C 0.065325774 2.4152043 -0.23190287
C 0.12617171 0.9026927 -0.23260926
C -1.079382 0.21581112 -0.85918564
C -1.0439066 -1.3244815 -0.8044521
C -0.57184947 -1.8414857 0.5304254
C 0.25710452 -1.1378961 1.3053529
C 0.78246254 0.19123988 0.9059983
N 1.4780853 0.35365948 -0.40664098
H 0.96009713 2.8338883 0.234878
H 0.008503441 2.8026242 -1.2558728
H -0.81526 2.7733526 0.31292126
H -1.9697958 0.56871855 -0.3224656
H -1.196323 0.54693735 -1.8983243
H -2.041282 -1.716533 -1.0323588
H -0.3972117 -1.7144651 -1.6043615
H -0.9120764 -2.8242218 0.8440048
H 0.5843427 -1.5325806 2.2630956
H 1.2370316 0.78272784 1.6964599
H 1.4481697 -0.5366738 -0.89914
