16
title
O 1.216312 2.5049207 -0.07756011
C 1.2639521 1.1694998 0.39017284
C -0.11522977 0.54077375 0.34793738
O -0.6779131 0.5746292 -1.004457
C -1.006127 -0.816255 -0.92372906
C 0.23906852 -1.6547453 -0.8173082
C -0.33123305 -0.9756887 0.41266087
O -0.75550276 -1.6495612 1.5377064
H 0.78910315 2.4706695 -0.9419615
H 1.9747335 0.56462085 -0.19306697
H 1.6243459 1.2055521 1.4246309
H -0.7978844 1.0621796 1.0296984
H -1.958556 -1.1436753 -1.3213571
H 0.052373726 -2.7249205 -0.82884026
H 1.1611999 -1.3355584 -1.2938942
H -0.000356717 -2.1051192 1.9255005
