20
title
C -0.2772007 2.4051194 -0.02749625
C -0.3361824 0.89102334 0.01260056
C -1.1371211 0.25576904 1.1162052
C 0.38874447 0.18350376 1.1446301
C 1.0568312 -1.105822 0.8447914
C 0.82084394 -1.7973896 -0.27192345
C -0.13912831 -1.3089689 -1.3265134
C -0.24634968 0.22860588 -1.3553487
H 0.64149576 2.752468 -0.51492333
H -1.1253569 2.8193915 -0.5862896
H -0.30380118 2.8325567 0.9798862
H -1.6251702 0.9126411 1.8292253
H -1.668785 -0.6710225 0.9306503
H 0.87897706 0.81060386 1.8833427
H 1.7527316 -1.4878525 1.5871723
H 1.3132844 -2.751471 -0.43726075
H 0.170732 -1.6650416 -2.315814
H -1.1319712 -1.7508556 -1.1605232
H -1.1029962 0.5275303 -1.9722118
H 0.6466099 0.62803584 -1.8550531
