title
 OpenBabel02282110003D

 19 20  0  0  1  0  0  0  0  0999 V2000
   -0.9880    2.5283   -0.7014 C   0  0  0  0  0  0  0  0  0  0  0  0
   -0.4542    1.2469   -0.9526 O   0  0  0  0  0  0  0  0  0  0  0  0
    0.0955    0.6425    0.1902 C   0  0  1  0  0  0  0  0  0  0  0  0
   -0.8403   -0.0273    1.2376 C   0  0  0  0  0  0  0  0  0  0  0  0
   -0.1654   -1.3600    1.0529 N   0  0  1  0  0  0  0  0  0  0  0  0
   -0.3913   -1.6957   -0.3666 C   0  0  0  0  0  0  0  0  0  0  0  0
    0.6891   -0.7378   -0.0548 C   0  0  1  0  0  0  0  0  0  0  0  0
    2.1493   -1.0263   -0.2349 C   0  0  0  0  0  0  0  0  0  0  0  0
   -0.2207    3.2202   -0.3196 H   0  0  0  0  0  0  0  0  0  0  0  0
   -1.3708    2.9133   -1.6494 H   0  0  0  0  0  0  0  0  0  0  0  0
   -1.8133    2.4964    0.0260 H   0  0  0  0  0  0  0  0  0  0  0  0
    0.8161    1.3220    0.6700 H   0  0  0  0  0  0  0  0  0  0  0  0
   -0.7039    0.3317    2.2597 H   0  0  0  0  0  0  0  0  0  0  0  0
   -1.9072   -0.0357    0.9901 H   0  0  0  0  0  0  0  0  0  0  0  0
   -0.0898   -2.7089   -0.6149 H   0  0  0  0  0  0  0  0  0  0  0  0
   -1.3016   -1.3559   -0.8545 H   0  0  0  0  0  0  0  0  0  0  0  0
    2.4820   -0.7184   -1.2330 H   0  0  0  0  0  0  0  0  0  0  0  0
    2.7559   -0.4911    0.5037 H   0  0  0  0  0  0  0  0  0  0  0  0
    2.3491   -2.0961   -0.1254 H   0  0  0  0  0  0  0  0  0  0  0  0
  1  9  1  0  0  0  0
  1 11  1  0  0  0  0
  2  1  1  0  0  0  0
  2  3  1  0  0  0  0
  3  7  1  6  0  0  0
  3 12  1  0  0  0  0
  3  4  1  0  0  0  0
  4 13  1  0  0  0  0
  5  7  1  6  0  0  0
  5  4  1  0  0  0  0
  6  7  1  0  0  0  0
  6  5  1  0  0  0  0
  7  8  1  6  0  0  0
  8 19  1  0  0  0  0
  8 18  1  0  0  0  0
 10  1  1  0  0  0  0
 14  4  1  0  0  0  0
 15  6  1  0  0  0  0
 16  6  1  0  0  0  0
 17  8  1  0  0  0  0
M  END
