17
title
C -0.7598142 2.2989016 0.11359036
C -0.5149142 0.8071907 0.053489268
C -1.269323 -0.102896534 0.98711145
C 0.22485392 0.11380277 1.1749381
N 1.116267 -0.9683554 0.8833484
C 1.084108 -1.4536735 -0.28418607
O 0.3292406 -1.0596441 -1.3415154
C -0.15571703 0.29288554 -1.3259413
H 0.10662488 2.861265 -0.2536115
H -1.6278133 2.5870717 -0.49205005
H -0.9546804 2.619642 1.141192
H -1.9445938 0.3519587 1.7041488
H -1.5767716 -1.0809876 0.63241
H 0.5350603 0.70452285 2.0309565
H 1.6899257 -2.316864 -0.5510201
H -1.0154622 0.30128336 -2.0039935
H 0.6229347 0.9373419 -1.7577223
