title
 OpenBabel02282110003D

 18 19  0  0  1  0  0  0  0  0999 V2000
   -0.2913    2.3342   -0.0675 C   0  0  0  0  0  0  0  0  0  0  0  0
   -0.3280    0.8325    0.0568 C   0  0  2  0  0  0  0  0  0  0  0  0
   -1.1225    0.1890    1.1562 C   0  0  0  0  0  0  0  0  0  0  0  0
    0.4154    0.1419    1.1810 C   0  0  1  0  0  0  0  0  0  0  0  0
    1.0830   -1.1281    0.8188 C   0  0  0  0  0  0  0  0  0  0  0  0
    0.8181   -1.7393   -0.3363 C   0  0  0  0  0  0  0  0  0  0  0  0
   -0.1472   -1.1442   -1.3247 C   0  0  0  0  0  0  0  0  0  0  0  0
   -0.2545    0.2707   -1.2265 O   0  0  0  0  0  0  0  0  0  0  0  0
    0.6206    2.6506   -0.5830 H   0  0  0  0  0  0  0  0  0  0  0  0
   -1.1502    2.6918   -0.6447 H   0  0  0  0  0  0  0  0  0  0  0  0
   -0.3167    2.8061    0.9182 H   0  0  0  0  0  0  0  0  0  0  0  0
   -1.6242    0.8370    1.8670 H   0  0  0  0  0  0  0  0  0  0  0  0
   -1.6291   -0.7512    0.9707 H   0  0  0  0  0  0  0  0  0  0  0  0
    0.9124    0.7628    1.9193 H   0  0  0  0  0  0  0  0  0  0  0  0
    1.8004   -1.5471    1.5185 H   0  0  0  0  0  0  0  0  0  0  0  0
    1.2907   -2.6791   -0.6036 H   0  0  0  0  0  0  0  0  0  0  0  0
    0.1863   -1.3345   -2.3508 H   0  0  0  0  0  0  0  0  0  0  0  0
   -1.1440   -1.6096   -1.2302 H   0  0  0  0  0  0  0  0  0  0  0  0
  1  2  1  0  0  0  0
  1 11  1  0  0  0  0
  2  3  1  0  0  0  0
  2  4  1  1  0  0  0
  3  4  1  0  0  0  0
  3 12  1  0  0  0  0
  4 14  1  1  0  0  0
  5  4  1  0  0  0  0
  5 15  1  0  0  0  0
  6  5  2  0  0  0  0
  7 18  1  0  0  0  0
  7  8  1  0  0  0  0
  7  6  1  0  0  0  0
  8  2  1  0  0  0  0
  9  1  1  0  0  0  0
 10  1  1  0  0  0  0
 13  3  1  0  0  0  0
 16  6  1  0  0  0  0
 17  7  1  0  0  0  0
M  END
