18
title
C -0.04462018 2.4187574 -0.14019449
C 0.044391822 0.9101344 -0.17316288
C -1.0124644 0.20421477 -1.0040228
C -1.1309805 -1.2712158 -0.7415762
C -0.52456343 -1.9121827 0.25366896
C 0.37552428 -1.2504996 1.2593608
C 0.71853846 0.18063416 0.91513073
O 1.3753866 0.3925589 -0.3404659
H 0.7943832 2.8401437 0.41909337
H -0.016317045 2.8282828 -1.1564049
H -0.97887266 2.7479765 0.3273099
H -1.9839232 0.688041 -0.8237838
H -0.7954665 0.3810191 -2.067534
H -1.7708244 -1.8255569 -1.423801
H -0.6744598 -2.9822724 0.3726282
H -0.094677724 -1.2690078 2.253974
H 1.3073161 -1.8236376 1.3680016
H 1.1400169 0.7654697 1.735083
