18
title
C 0.08214857 2.4194117 -0.22913857
C 0.083600745 0.9092933 -0.1917322
C -1.1026956 0.21568061 -0.8402384
C -0.9839503 -1.3206824 -0.8319717
C -0.54886276 -1.8527368 0.5087858
C 0.25859028 -1.1541129 1.3085952
C 0.75949246 0.182427 0.90300834
O 1.3554138 0.29324806 -0.41575217
H 0.9618454 2.8191962 0.28140923
H 0.097118616 2.7779548 -1.2645617
H -0.8157537 2.822595 0.2513902
H -2.0047696 0.52042675 -0.29329863
H -1.2247137 0.5736482 -1.8693235
H -1.9408801 -1.7636968 -1.127581
H -0.254391 -1.6271211 -1.5917006
H -0.8943545 -2.839212 0.80513704
H 0.5739186 -1.5413355 2.2725852
H 1.2865252 0.7610866 1.6599677
