title
 OpenBabel02282110003D

 18 19  0  0  1  0  0  0  0  0999 V2000
    0.0821    2.4194   -0.2291 C   0  0  0  0  0  0  0  0  0  0  0  0
    0.0836    0.9093   -0.1917 C   0  0  2  0  0  0  0  0  0  0  0  0
   -1.1027    0.2157   -0.8402 C   0  0  0  0  0  0  0  0  0  0  0  0
   -0.9840   -1.3207   -0.8320 C   0  0  0  0  0  0  0  0  0  0  0  0
   -0.5489   -1.8527    0.5088 C   0  0  0  0  0  0  0  0  0  0  0  0
    0.2586   -1.1541    1.3086 C   0  0  0  0  0  0  0  0  0  0  0  0
    0.7595    0.1824    0.9030 C   0  0  1  0  0  0  0  0  0  0  0  0
    1.3554    0.2932   -0.4158 O   0  0  0  0  0  0  0  0  0  0  0  0
    0.9618    2.8192    0.2814 H   0  0  0  0  0  0  0  0  0  0  0  0
    0.0971    2.7780   -1.2646 H   0  0  0  0  0  0  0  0  0  0  0  0
   -0.8158    2.8226    0.2514 H   0  0  0  0  0  0  0  0  0  0  0  0
   -2.0048    0.5204   -0.2933 H   0  0  0  0  0  0  0  0  0  0  0  0
   -1.2247    0.5736   -1.8693 H   0  0  0  0  0  0  0  0  0  0  0  0
   -1.9409   -1.7637   -1.1276 H   0  0  0  0  0  0  0  0  0  0  0  0
   -0.2544   -1.6271   -1.5917 H   0  0  0  0  0  0  0  0  0  0  0  0
   -0.8944   -2.8392    0.8051 H   0  0  0  0  0  0  0  0  0  0  0  0
    0.5739   -1.5413    2.2726 H   0  0  0  0  0  0  0  0  0  0  0  0
    1.2865    0.7611    1.6600 H   0  0  0  0  0  0  0  0  0  0  0  0
  1  2  1  0  0  0  0
  1 11  1  0  0  0  0
  1  9  1  0  0  0  0
  2  7  1  1  0  0  0
  3  4  1  0  0  0  0
  3 12  1  0  0  0  0
  3  2  1  0  0  0  0
  4  5  1  0  0  0  0
  5 16  1  0  0  0  0
  5  6  2  0  0  0  0
  6 17  1  0  0  0  0
  7  6  1  0  0  0  0
  7 18  1  1  0  0  0
  8  2  1  0  0  0  0
  8  7  1  0  0  0  0
 10  1  1  0  0  0  0
 13  3  1  0  0  0  0
 14  4  1  0  0  0  0
 15  4  1  0  0  0  0
M  END
