title
 OpenBabel02282110003D

 18 19  0  0  1  0  0  0  0  0999 V2000
   -0.7039    2.2437    0.0286 C   0  0  0  0  0  0  0  0  0  0  0  0
   -0.6113    0.7290    0.0066 C   0  0  2  0  0  0  0  0  0  0  0  0
   -1.4045   -0.0489    1.0518 C   0  0  0  0  0  0  0  0  0  0  0  0
    0.0998    0.0245    1.1303 C   0  0  1  0  0  0  0  0  0  0  0  0
    0.8035   -1.1535    0.8568 O   0  0  0  0  0  0  0  0  0  0  0  0
    1.4748   -1.1802   -0.3964 C   0  0  0  0  0  0  0  0  0  0  0  0
    0.5980   -0.7372   -1.5407 C   0  0  0  0  0  0  0  0  0  0  0  0
   -0.3960    0.1241   -1.3361 C   0  0  0  0  0  0  0  0  0  0  0  0
    0.1897    2.7026   -0.4084 H   0  0  0  0  0  0  0  0  0  0  0  0
   -1.5724    2.5906   -0.5438 H   0  0  0  0  0  0  0  0  0  0  0  0
   -0.8113    2.6186    1.0514 H   0  0  0  0  0  0  0  0  0  0  0  0
   -1.9948    0.5147    1.7676 H   0  0  0  0  0  0  0  0  0  0  0  0
   -1.8149   -1.0092    0.7620 H   0  0  0  0  0  0  0  0  0  0  0  0
    0.5530    0.6283    1.9159 H   0  0  0  0  0  0  0  0  0  0  0  0
    2.3922   -0.5665   -0.3601 H   0  0  0  0  0  0  0  0  0  0  0  0
    1.7929   -2.2187   -0.5340 H   0  0  0  0  0  0  0  0  0  0  0  0
    0.8030   -1.1522   -2.5231 H   0  0  0  0  0  0  0  0  0  0  0  0
   -1.0511    0.4375   -2.1458 H   0  0  0  0  0  0  0  0  0  0  0  0
  1 11  1  0  0  0  0
  2  1  1  0  0  0  0
  2  3  1  0  0  0  0
  2  4  1  1  0  0  0
  3  4  1  0  0  0  0
  3 12  1  0  0  0  0
  4 14  1  1  0  0  0
  5  4  1  0  0  0  0
  6 15  1  0  0  0  0
  6  5  1  0  0  0  0
  7  8  2  0  0  0  0
  7  6  1  0  0  0  0
  8  2  1  0  0  0  0
  9  1  1  0  0  0  0
 10  1  1  0  0  0  0
 13  3  1  0  0  0  0
 16  6  1  0  0  0  0
 17  7  1  0  0  0  0
 18  8  1  0  0  0  0
M  END
