20
title
C -0.46111548 2.3960383 0.00034832777
C -0.4791257 0.88117325 0.019871973
C -1.3257629 0.20088264 1.0653719
C 0.18415049 0.1659902 1.1808982
C 0.94415283 -1.133987 0.9217847
O 1.2420927 -1.3707716 -0.4445393
C 0.10054485 -1.2339456 -1.2675891
C -0.33613384 0.23183712 -1.3506721
H 0.47368404 2.7752392 -0.42895627
H -1.2873784 2.792027 -0.6027633
H -0.55850327 2.8100429 1.009126
H -1.8805658 0.8268921 1.7566582
H -1.8300893 -0.7272658 0.81124747
H 0.61934984 0.7969486 1.9502115
H 1.9118853 -1.1086202 1.4306505
H 0.37898132 -1.9909093 1.3271426
H 0.38332596 -1.6040628 -2.2574153
H -0.7191329 -1.8744657 -0.8980764
H -1.2722251 0.31446782 -1.9188014
H 0.429817 0.77792037 -1.9153835
