22
title
C -0.47184908 2.379683 -0.00046808444
C -0.45702094 0.86368465 0.016110975
C -1.295333 0.1757961 1.0641311
C 0.21491797 0.16965713 1.1889683
C 0.99401754 -1.1341895 1.0048178
C 1.280684 -1.4770368 -0.46668336
C 0.048548777 -1.2536925 -1.3497577
C -0.33649346 0.23267622 -1.3661853
H 0.44926348 2.7813485 -0.43999913
H -1.3132521 2.7603233 -0.59288543
H -0.56608754 2.7907233 1.0098528
H -1.8702736 0.7944034 1.7460023
H -1.7770706 -0.76436526 0.812072
H 0.6160044 0.8323118 1.9509964
H 1.9408479 -1.0702878 1.5517061
H 0.43679246 -1.9608878 1.4646606
H 2.0962908 -0.84209555 -0.83858055
H 1.6311295 -2.5123434 -0.543038
H 0.24548014 -1.586614 -2.3747206
H -0.7870208 -1.8657335 -0.9844207
H -1.2718614 0.38158673 -1.9219569
H 0.43819603 0.7790287 -1.923227
