20
title
C -0.47902766 2.3813057 0.03693941
C -0.44596624 0.86846966 0.052861802
C -1.298557 0.12574917 1.0469632
C 0.2065761 0.14766157 1.21847
C 1.0066221 -1.1311245 0.9772655
C 1.1959316 -1.4079928 -0.5186417
O 0.009868245 -1.1542175 -1.2552328
C -0.2657922 0.23273814 -1.3170629
H 0.4476458 2.7979455 -0.37593856
H -1.310953 2.755388 -0.57278186
H -0.6040207 2.7843843 1.0467261
H -1.9066741 0.7026899 1.7360041
H -1.7390248 -0.8131082 0.72591597
H 0.5789336 0.7822973 2.0174568
H 1.9930526 -1.0541878 1.4482768
H 0.5001544 -1.9817963 1.4481618
H 2.0141182 -0.78524065 -0.91826516
H 1.4542263 -2.4557393 -0.69756764
H -1.1778399 0.33726084 -1.9160855
H 0.5495508 0.7507957 -1.8541448
