19
title
C -0.7005982 2.2469964 0.08937373
C -0.55903846 0.7396688 0.048913307
N -1.3727132 -0.0690419 0.9951881
C 0.09716923 0.02042902 1.1712773
C 0.8867471 -1.2530613 0.88621503
C 1.5179217 -1.2547404 -0.52062285
C 0.56635034 -0.7409756 -1.57467
C -0.38937593 0.14847338 -1.3096776
H 0.15274781 2.738104 -0.3907757
H -1.6062752 2.5689993 -0.43871558
H -0.7631465 2.6096144 1.1210988
H -1.8318183 0.5576818 1.654785
H 0.45288253 0.63149023 1.9982167
H 1.6651902 -1.3925327 1.6438323
H 0.19928879 -2.1005177 0.96905625
H 2.431214 -0.6412177 -0.5270316
H 1.8455353 -2.2687395 -0.77527845
H 0.68340445 -1.1244974 -2.5852227
H -1.0644658 0.49166742 -2.090604
