16
title
O 0.0815607 2.2831614 -0.023393208
C 0.19391996 0.90254176 -0.22446865
C -0.28394097 0.31363502 -1.5571392
C -1.0852712 0.12022738 -0.29131848
O -1.2057135 -1.0899153 0.3870919
C -0.027091116 -1.8843595 0.4802195
C 1.2043879 -1.0834528 0.80600774
C 1.2958606 0.2069187 0.48380694
H 0.7304776 2.719225 -0.58734214
H -0.6953846 1.010182 -2.2803905
H 0.28539768 -0.50796217 -1.9768049
H -2.0055513 0.6855865 -0.20121364
H -0.2332436 -2.6133435 1.2708137
H 0.11464358 -2.4618244 -0.4501059
H 2.0135403 -1.5973943 1.3155301
H 2.1677604 0.80005074 0.74604267
