20
title
C -0.44678062 2.3137248 -0.039215054
C -0.44437408 0.8089263 0.055055372
C -1.2975557 0.12439976 1.0898588
C 0.22295836 0.11682663 1.2220033
C 0.9971972 -1.1793474 0.9853724
C 1.2741338 -1.4109339 -0.50916857
C 0.03776648 -1.0911341 -1.3437536
O -0.32803914 0.2763333 -1.2418876
H 0.48657253 2.672419 -0.4850398
H -1.2756121 2.6551504 -0.6681354
H -0.5565928 2.7645278 0.95079195
H -1.8798374 0.7400162 1.7674441
H -1.7715406 -0.81693155 0.8301736
H 0.63372713 0.7702255 1.9860044
H 1.9438574 -1.1472845 1.5336409
H 0.43753836 -2.0307438 1.3922936
H 2.0894985 -0.7597417 -0.8457962
H 1.5856824 -2.4456837 -0.6888221
H 0.223376 -1.2593778 -2.4085317
H -0.8012169 -1.7448691 -1.0514584
