18
title
C 0.19041467 2.4312344 -0.36937222
C 0.14354172 0.9246451 -0.29043996
C -1.0809839 0.246094 -0.8788236
C -1.0502663 -1.2620384 -0.619646
O -0.8806678 -1.5271736 0.7633605
C 0.4015959 -1.1632985 1.2393591
C 0.87845796 0.19657637 0.7591075
O 1.3822483 0.25639117 -0.58567303
H 1.1230776 2.8111572 0.05520698
H 0.12890415 2.7624466 -1.4120232
H -0.64985174 2.876622 0.17366594
H -1.9788947 0.6775664 -0.4205705
H -1.1339262 0.44606864 -1.9566413
H -1.998832 -1.7237815 -0.90639764
H -0.24412094 -1.7269968 -1.205647
H 0.329155 -1.1626493 2.331827
H 1.1526351 -1.9172446 0.9491328
H 1.4740205 0.763943 1.4754931
