title
 OpenBabel02282110003D

 18 19  0  0  1  0  0  0  0  0999 V2000
    0.1904    2.4312   -0.3694 C   0  0  0  0  0  0  0  0  0  0  0  0
    0.1435    0.9246   -0.2904 C   0  0  2  0  0  0  0  0  0  0  0  0
   -1.0810    0.2461   -0.8788 C   0  0  0  0  0  0  0  0  0  0  0  0
   -1.0503   -1.2620   -0.6196 C   0  0  0  0  0  0  0  0  0  0  0  0
   -0.8807   -1.5272    0.7634 O   0  0  0  0  0  0  0  0  0  0  0  0
    0.4016   -1.1633    1.2394 C   0  0  0  0  0  0  0  0  0  0  0  0
    0.8785    0.1966    0.7591 C   0  0  1  0  0  0  0  0  0  0  0  0
    1.3822    0.2564   -0.5857 O   0  0  0  0  0  0  0  0  0  0  0  0
    1.1231    2.8112    0.0552 H   0  0  0  0  0  0  0  0  0  0  0  0
    0.1289    2.7624   -1.4120 H   0  0  0  0  0  0  0  0  0  0  0  0
   -0.6499    2.8766    0.1737 H   0  0  0  0  0  0  0  0  0  0  0  0
   -1.9789    0.6776   -0.4206 H   0  0  0  0  0  0  0  0  0  0  0  0
   -1.1339    0.4461   -1.9566 H   0  0  0  0  0  0  0  0  0  0  0  0
   -1.9988   -1.7238   -0.9064 H   0  0  0  0  0  0  0  0  0  0  0  0
   -0.2441   -1.7270   -1.2056 H   0  0  0  0  0  0  0  0  0  0  0  0
    0.3292   -1.1626    2.3318 H   0  0  0  0  0  0  0  0  0  0  0  0
    1.1526   -1.9172    0.9491 H   0  0  0  0  0  0  0  0  0  0  0  0
    1.4740    0.7639    1.4755 H   0  0  0  0  0  0  0  0  0  0  0  0
  1  2  1  0  0  0  0
  1  9  1  0  0  0  0
  1 11  1  0  0  0  0
  2  7  1  1  0  0  0
  3  4  1  0  0  0  0
  3 12  1  0  0  0  0
  3  2  1  0  0  0  0
  4  5  1  0  0  0  0
  5  6  1  0  0  0  0
  6 16  1  0  0  0  0
  7  6  1  0  0  0  0
  7 18  1  1  0  0  0
  8  2  1  0  0  0  0
  8  7  1  0  0  0  0
 10  1  1  0  0  0  0
 13  3  1  0  0  0  0
 14  4  1  0  0  0  0
 15  4  1  0  0  0  0
 17  6  1  0  0  0  0
M  END
