title
 OpenBabel02282110003D

 20 21  0  0  1  0  0  0  0  0999 V2000
    0.2198    2.4056   -0.4018 C   0  0  0  0  0  0  0  0  0  0  0  0
    0.1422    0.9006   -0.2866 C   0  0  2  0  0  0  0  0  0  0  0  0
   -1.0904    0.2484   -0.8903 C   0  0  0  0  0  0  0  0  0  0  0  0
   -1.1173   -1.2714   -0.6847 C   0  0  0  0  0  0  0  0  0  0  0  0
   -0.9272   -1.6181    0.7963 C   0  0  0  0  0  0  0  0  0  0  0  0
    0.4423   -1.1565    1.3245 C   0  0  0  0  0  0  0  0  0  0  0  0
    0.8737    0.1972    0.7867 C   0  0  1  0  0  0  0  0  0  0  0  0
    1.3729    0.2117   -0.5618 O   0  0  0  0  0  0  0  0  0  0  0  0
    1.1528    2.7788    0.0281 H   0  0  0  0  0  0  0  0  0  0  0  0
    0.1820    2.7128   -1.4531 H   0  0  0  0  0  0  0  0  0  0  0  0
   -0.6196    2.8825    0.1159 H   0  0  0  0  0  0  0  0  0  0  0  0
   -1.9794    0.7022   -0.4311 H   0  0  0  0  0  0  0  0  0  0  0  0
   -1.1334    0.4953   -1.9588 H   0  0  0  0  0  0  0  0  0  0  0  0
   -2.0678   -1.6732   -1.0510 H   0  0  0  0  0  0  0  0  0  0  0  0
   -0.3202   -1.7305   -1.2795 H   0  0  0  0  0  0  0  0  0  0  0  0
   -1.7228   -1.1304    1.3759 H   0  0  0  0  0  0  0  0  0  0  0  0
   -1.0416   -2.6949    0.9597 H   0  0  0  0  0  0  0  0  0  0  0  0
    0.4295   -1.1197    2.4197 H   0  0  0  0  0  0  0  0  0  0  0  0
    1.2185   -1.8810    1.0479 H   0  0  0  0  0  0  0  0  0  0  0  0
    1.4715    0.8047    1.4685 H   0  0  0  0  0  0  0  0  0  0  0  0
  1  2  1  0  0  0  0
  1  9  1  0  0  0  0
  1 11  1  0  0  0  0
  2  7  1  1  0  0  0
  3  4  1  0  0  0  0
  3 12  1  0  0  0  0
  3  2  1  0  0  0  0
  4  5  1  0  0  0  0
  5 17  1  0  0  0  0
  5  6  1  0  0  0  0
  5 16  1  0  0  0  0
  6 18  1  0  0  0  0
  7  6  1  0  0  0  0
  7 20  1  1  0  0  0
  8  2  1  0  0  0  0
  8  7  1  0  0  0  0
 10  1  1  0  0  0  0
 13  3  1  0  0  0  0
 14  4  1  0  0  0  0
 15  4  1  0  0  0  0
 19  6  1  0  0  0  0
M  END
