18
title
C -0.4214955 2.3028615 -0.07785386
C -0.45619643 0.7991403 0.022923194
C -1.2840263 0.14683142 1.1105
C 0.23522213 0.10187968 1.1657372
O 0.8515796 -1.1363055 0.94162387
C 1.2681532 -1.3053969 -0.40624708
C 0.09727475 -1.0880989 -1.3501618
O -0.38936853 0.24383566 -1.2674392
H 0.4941986 2.6333911 -0.57802767
H -1.2768922 2.6632085 -0.6587791
H -0.46384063 2.761131 0.9138093
H -1.8231568 0.78450453 1.8029993
H -1.7653501 -0.7996665 0.8914443
H 0.75529605 0.70204866 1.9104315
H 2.0819566 -0.60717356 -0.6559435
H 1.6459813 -2.3286762 -0.4868674
H 0.3993214 -1.2370447 -2.3914657
H -0.6982349 -1.8123103 -1.1158235
