20
title
C -0.44097632 2.3674657 -0.031628575
C -0.4688316 0.8514637 -0.018127838
C -1.2961527 0.1903262 1.0681945
C 0.21264307 0.14905153 1.1341138
O 0.8419881 -1.0901457 0.96395105
C 1.2700657 -1.3705617 -0.36076435
C 0.114988424 -1.248408 -1.3510013
C -0.37135026 0.20841222 -1.3971148
H 0.47152022 2.7444549 -0.50854236
H -1.2973711 2.769577 -0.58672076
H -0.4838235 2.7787404 0.9818845
H -1.8378253 0.82821167 1.759305
H -1.7831129 -0.7532421 0.8468273
H 0.7133975 0.76162636 1.8818347
H 2.0909178 -0.6949355 -0.6556203
H 1.6676496 -2.3890202 -0.32925916
H 0.4353955 -1.5694519 -2.3482516
H -0.6874539 -1.9262141 -1.0367371
H -1.3309957 0.28605577 -1.9231157
H 0.3504041 0.7908008 -1.9861616
