title
 OpenBabel02282110003D

 20 21  0  0  1  0  0  0  0  0999 V2000
   -0.4410    2.3675   -0.0316 C   0  0  0  0  0  0  0  0  0  0  0  0
   -0.4688    0.8515   -0.0181 C   0  0  2  0  0  0  0  0  0  0  0  0
   -1.2962    0.1903    1.0682 C   0  0  0  0  0  0  0  0  0  0  0  0
    0.2126    0.1491    1.1341 C   0  0  1  0  0  0  0  0  0  0  0  0
    0.8420   -1.0901    0.9640 O   0  0  0  0  0  0  0  0  0  0  0  0
    1.2701   -1.3706   -0.3608 C   0  0  0  0  0  0  0  0  0  0  0  0
    0.1150   -1.2484   -1.3510 C   0  0  0  0  0  0  0  0  0  0  0  0
   -0.3714    0.2084   -1.3971 C   0  0  0  0  0  0  0  0  0  0  0  0
    0.4715    2.7445   -0.5085 H   0  0  0  0  0  0  0  0  0  0  0  0
   -1.2974    2.7696   -0.5867 H   0  0  0  0  0  0  0  0  0  0  0  0
   -0.4838    2.7787    0.9819 H   0  0  0  0  0  0  0  0  0  0  0  0
   -1.8378    0.8282    1.7593 H   0  0  0  0  0  0  0  0  0  0  0  0
   -1.7831   -0.7532    0.8468 H   0  0  0  0  0  0  0  0  0  0  0  0
    0.7134    0.7616    1.8818 H   0  0  0  0  0  0  0  0  0  0  0  0
    2.0909   -0.6949   -0.6556 H   0  0  0  0  0  0  0  0  0  0  0  0
    1.6676   -2.3890   -0.3293 H   0  0  0  0  0  0  0  0  0  0  0  0
    0.4354   -1.5695   -2.3483 H   0  0  0  0  0  0  0  0  0  0  0  0
   -0.6875   -1.9262   -1.0367 H   0  0  0  0  0  0  0  0  0  0  0  0
   -1.3310    0.2861   -1.9231 H   0  0  0  0  0  0  0  0  0  0  0  0
    0.3504    0.7908   -1.9862 H   0  0  0  0  0  0  0  0  0  0  0  0
  1  2  1  0  0  0  0
  1 11  1  0  0  0  0
  2  3  1  0  0  0  0
  2  4  1  1  0  0  0
  3  4  1  0  0  0  0
  3 12  1  0  0  0  0
  4 14  1  1  0  0  0
  5  4  1  0  0  0  0
  6 16  1  0  0  0  0
  6  5  1  0  0  0  0
  7 18  1  0  0  0  0
  7  6  1  0  0  0  0
  8  7  1  0  0  0  0
  8  2  1  0  0  0  0
  9  1  1  0  0  0  0
 10  1  1  0  0  0  0
 13  3  1  0  0  0  0
 15  6  1  0  0  0  0
 17  7  1  0  0  0  0
 19  8  1  0  0  0  0
 20  8  1  0  0  0  0
M  END
