title
 OpenBabel02282110003D

 18 19  0  0  1  0  0  0  0  0999 V2000
   -0.4403    2.3238   -0.0431 C   0  0  0  0  0  0  0  0  0  0  0  0
   -0.4683    0.8217    0.0624 C   0  0  2  0  0  0  0  0  0  0  0  0
   -1.3255    0.1462    1.0990 C   0  0  0  0  0  0  0  0  0  0  0  0
    0.1947    0.1132    1.2188 C   0  0  1  0  0  0  0  0  0  0  0  0
    0.9513   -1.1708    0.8984 C   0  0  0  0  0  0  0  0  0  0  0  0
    1.2370   -1.2957   -0.4931 O   0  0  0  0  0  0  0  0  0  0  0  0
    0.0958   -1.0758   -1.2635 C   0  0  0  0  0  0  0  0  0  0  0  0
   -0.3397    0.2639   -1.2252 O   0  0  0  0  0  0  0  0  0  0  0  0
    0.5043    2.6583   -0.4827 H   0  0  0  0  0  0  0  0  0  0  0  0
   -1.2568    2.6757   -0.6822 H   0  0  0  0  0  0  0  0  0  0  0  0
   -0.5511    2.7836    0.9427 H   0  0  0  0  0  0  0  0  0  0  0  0
   -1.8848    0.7725    1.7855 H   0  0  0  0  0  0  0  0  0  0  0  0
   -1.8227   -0.7836    0.8406 H   0  0  0  0  0  0  0  0  0  0  0  0
    0.6416    0.7366    1.9865 H   0  0  0  0  0  0  0  0  0  0  0  0
    1.9221   -1.1774    1.3992 H   0  0  0  0  0  0  0  0  0  0  0  0
    0.3913   -2.0570    1.2376 H   0  0  0  0  0  0  0  0  0  0  0  0
    0.3568   -1.2775   -2.3044 H   0  0  0  0  0  0  0  0  0  0  0  0
   -0.7176   -1.7558   -0.9465 H   0  0  0  0  0  0  0  0  0  0  0  0
  1  2  1  0  0  0  0
  1 11  1  0  0  0  0
  2  3  1  0  0  0  0
  2  4  1  1  0  0  0
  3  4  1  0  0  0  0
  3 12  1  0  0  0  0
  4 14  1  1  0  0  0
  5  4  1  0  0  0  0
  5 16  1  0  0  0  0
  5 15  1  0  0  0  0
  6  5  1  0  0  0  0
  7  8  1  0  0  0  0
  7 18  1  0  0  0  0
  7  6  1  0  0  0  0
  8  2  1  0  0  0  0
  9  1  1  0  0  0  0
 10  1  1  0  0  0  0
 13  3  1  0  0  0  0
 17  7  1  0  0  0  0
M  END
