19
title
C 0.15732013 2.4234161 -0.36195815
C 0.19026677 0.9114226 -0.33893085
C -1.0408595 0.22873366 -0.9170043
C -1.0965657 -1.2645001 -0.5829869
O -0.9189748 -1.4783673 0.80230325
C 0.39082336 -1.1572204 1.2380482
C 0.910448 0.18978435 0.749288
N 1.517756 0.3228495 -0.59318453
H 1.0907431 2.8327875 0.03180303
H 0.033596464 2.792885 -1.3867266
H -0.6759658 2.8070893 0.23721163
H -1.9330066 0.7104923 -0.4994447
H -1.0785451 0.37446147 -2.0049098
H -2.0764391 -1.6769042 -0.8392999
H -0.34404725 -1.8306406 -1.1611226
H 0.34706202 -1.1598413 2.3311174
H 1.092449 -1.9550319 0.93463165
H 1.4284325 0.77431405 1.5069864
H 1.4328331 -0.55853385 -1.0971103
