title
 OpenBabel02282110003D

 18 19  0  0  1  0  0  0  0  0999 V2000
    0.2158    2.3959   -0.3703 C   0  0  0  0  0  0  0  0  0  0  0  0
    0.1858    0.8895   -0.2697 C   0  0  2  0  0  0  0  0  0  0  0  0
   -1.0445    0.2154   -0.8587 C   0  0  0  0  0  0  0  0  0  0  0  0
   -1.0927   -1.1754   -0.6315 O   0  0  0  0  0  0  0  0  0  0  0  0
   -0.9672   -1.4973    0.7415 C   0  0  0  0  0  0  0  0  0  0  0  0
    0.4404   -1.1929    1.2663 C   0  0  0  0  0  0  0  0  0  0  0  0
    0.9165    0.1683    0.7899 C   0  0  1  0  0  0  0  0  0  0  0  0
    1.4179    0.2211   -0.5542 O   0  0  0  0  0  0  0  0  0  0  0  0
    1.1434    2.7866    0.0548 H   0  0  0  0  0  0  0  0  0  0  0  0
    0.1618    2.7149   -1.4174 H   0  0  0  0  0  0  0  0  0  0  0  0
   -0.6298    2.8444    0.1618 H   0  0  0  0  0  0  0  0  0  0  0  0
   -1.9431    0.7078   -0.4454 H   0  0  0  0  0  0  0  0  0  0  0  0
   -1.0565    0.3515   -1.9457 H   0  0  0  0  0  0  0  0  0  0  0  0
   -1.7144   -0.9353    1.3281 H   0  0  0  0  0  0  0  0  0  0  0  0
   -1.2017   -2.5614    0.8325 H   0  0  0  0  0  0  0  0  0  0  0  0
    0.4398   -1.2283    2.3616 H   0  0  0  0  0  0  0  0  0  0  0  0
    1.1493   -1.9495    0.9133 H   0  0  0  0  0  0  0  0  0  0  0  0
    1.5068    0.7524    1.4971 H   0  0  0  0  0  0  0  0  0  0  0  0
  1  2  1  0  0  0  0
  1  9  1  0  0  0  0
  1 11  1  0  0  0  0
  2  7  1  1  0  0  0
  3  4  1  0  0  0  0
  3 12  1  0  0  0  0
  3  2  1  0  0  0  0
  4  5  1  0  0  0  0
  5 15  1  0  0  0  0
  5  6  1  0  0  0  0
  5 14  1  0  0  0  0
  6 16  1  0  0  0  0
  7  6  1  0  0  0  0
  7 18  1  1  0  0  0
  8  2  1  0  0  0  0
  8  7  1  0  0  0  0
 10  1  1  0  0  0  0
 13  3  1  0  0  0  0
 17  6  1  0  0  0  0
M  END
