18
title
O 0.16867314 2.225171 -0.24798392
C 0.24392459 0.8272973 -0.37451565
C -0.31365302 0.23753598 -1.6520565
C -1.0927722 0.14464405 -0.353218
O -1.2461206 -1.1159517 0.23108447
C -0.300836 -1.421357 1.2478926
C 1.1305013 -1.2793614 0.73418564
C 1.405495 0.1882346 0.36805928
H 0.8403497 2.608193 -0.82368904
H -0.66484386 0.93503255 -2.4045262
H 0.10917792 -0.68759936 -2.0293305
H -1.9656231 0.7830913 -0.2419778
H -0.4522191 -0.77071196 2.1247969
H -0.51831865 -2.4501548 1.5481507
H 1.8407269 -1.6148037 1.4975446
H 1.2577845 -1.9351913 -0.13515829
H 2.3370972 0.28482184 -0.20408122
H 1.5356777 0.7679649 1.2898283
