18
title
O 0.5531289 1.7452309 0.2236132
C 0.52546394 0.32156685 0.19218206
C 0.6388408 -0.2903495 1.6396445
C -0.9373203 -0.31173888 1.7055789
C -0.88641554 -0.19891107 0.1992918
C -1.2450365 -0.75281113 -0.9524342
C -0.12627608 -0.5722725 -1.9778501
C 1.1305451 -0.27469167 -1.096216
H 1.4554117 2.0108452 0.43240854
H 1.060497 -1.2982265 1.6390107
H 1.1502532 0.3283943 2.3822422
H -1.4242915 -1.1895809 2.1357927
H -1.3198383 0.5888001 2.1940482
H -2.1404583 -1.329865 -1.1559848
H 0.009129228 -1.4735916 -2.58554
H -0.33563077 0.24589922 -2.679441
H 1.8398432 0.4053231 -1.5770998
H 1.6522825 -1.213179 -0.88143384
