title
 OpenBabel02282110003D

 18 19  0  0  1  0  0  0  0  0999 V2000
    0.1200    2.2407   -0.3255 O   0  0  0  0  0  0  0  0  0  0  0  0
    0.1663    0.8410   -0.3953 C   0  0  2  0  0  0  0  0  0  0  0  0
   -0.2932    0.1602   -1.6535 C   0  0  0  0  0  0  0  0  0  0  0  0
   -1.1625    0.1376   -0.4048 C   0  0  1  0  0  0  0  0  0  0  0  0
   -1.3329   -1.1651    0.3740 C   0  0  0  0  0  0  0  0  0  0  0  0
   -0.1229   -1.4483    1.2724 C   0  0  0  0  0  0  0  0  0  0  0  0
    1.1039   -1.1732    0.6106 O   0  0  0  0  0  0  0  0  0  0  0  0
    1.2838    0.2177    0.4251 C   0  0  0  0  0  0  0  0  0  0  0  0
    0.8245    2.5885   -0.8839 H   0  0  0  0  0  0  0  0  0  0  0  0
   -0.6116    0.7935   -2.4742 H   0  0  0  0  0  0  0  0  0  0  0  0
    0.1977   -0.7657   -1.9372 H   0  0  0  0  0  0  0  0  0  0  0  0
   -2.0212    0.7998   -0.4333 H   0  0  0  0  0  0  0  0  0  0  0  0
   -2.2317   -1.1166    0.9982 H   0  0  0  0  0  0  0  0  0  0  0  0
   -1.4784   -1.9982   -0.3234 H   0  0  0  0  0  0  0  0  0  0  0  0
   -0.1852   -0.8439    2.1923 H   0  0  0  0  0  0  0  0  0  0  0  0
   -0.0860   -2.5019    1.5639 H   0  0  0  0  0  0  0  0  0  0  0  0
    2.2546    0.3403   -0.0701 H   0  0  0  0  0  0  0  0  0  0  0  0
    1.3264    0.7391    1.3962 H   0  0  0  0  0  0  0  0  0  0  0  0
  2  4  1  1  0  0  0
  2  1  1  0  0  0  0
  2  8  1  0  0  0  0
  3  4  1  0  0  0  0
  3  2  1  0  0  0  0
  4 12  1  6  0  0  0
  4  5  1  0  0  0  0
  5 13  1  0  0  0  0
  5  6  1  0  0  0  0
  6 16  1  0  0  0  0
  6 15  1  0  0  0  0
  7  6  1  0  0  0  0
  8  7  1  0  0  0  0
  8 18  1  0  0  0  0
  9  1  1  0  0  0  0
 10  3  1  0  0  0  0
 11  3  1  0  0  0  0
 14  5  1  0  0  0  0
 17  8  1  0  0  0  0
M  END
