title
 OpenBabel02282110003D

 20 21  0  0  1  0  0  0  0  0999 V2000
    0.1467    2.2387   -0.3079 O   0  0  0  0  0  0  0  0  0  0  0  0
    0.2057    0.8349   -0.3834 C   0  0  2  0  0  0  0  0  0  0  0  0
   -0.3009    0.2045   -1.6542 C   0  0  0  0  0  0  0  0  0  0  0  0
   -1.1392    0.1626   -0.3838 C   0  0  1  0  0  0  0  0  0  0  0  0
   -1.3569   -1.1606    0.3512 C   0  0  0  0  0  0  0  0  0  0  0  0
   -0.2119   -1.5238    1.3128 C   0  0  0  0  0  0  0  0  0  0  0  0
    1.1646   -1.2755    0.6844 C   0  0  0  0  0  0  0  0  0  0  0  0
    1.3574    0.2203    0.3921 C   0  0  0  0  0  0  0  0  0  0  0  0
    0.8991    2.5891   -0.7982 H   0  0  0  0  0  0  0  0  0  0  0  0
   -0.6183    0.8787   -2.4420 H   0  0  0  0  0  0  0  0  0  0  0  0
    0.1446   -0.7245   -1.9984 H   0  0  0  0  0  0  0  0  0  0  0  0
   -1.9761    0.8530   -0.3759 H   0  0  0  0  0  0  0  0  0  0  0  0
   -2.2972   -1.1139    0.9102 H   0  0  0  0  0  0  0  0  0  0  0  0
   -1.4822   -1.9672   -0.3827 H   0  0  0  0  0  0  0  0  0  0  0  0
   -0.2932   -0.9159    2.2237 H   0  0  0  0  0  0  0  0  0  0  0  0
   -0.3105   -2.5694    1.6247 H   0  0  0  0  0  0  0  0  0  0  0  0
    1.9597   -1.6185    1.3550 H   0  0  0  0  0  0  0  0  0  0  0  0
    1.2658   -1.8631   -0.2379 H   0  0  0  0  0  0  0  0  0  0  0  0
    2.3035    0.3920   -0.1397 H   0  0  0  0  0  0  0  0  0  0  0  0
    1.4279    0.7636    1.3431 H   0  0  0  0  0  0  0  0  0  0  0  0
  2  4  1  1  0  0  0
  2  1  1  0  0  0  0
  2  8  1  0  0  0  0
  3  4  1  0  0  0  0
  3  2  1  0  0  0  0
  4 12  1  1  0  0  0
  4  5  1  0  0  0  0
  5 13  1  0  0  0  0
  5  6  1  0  0  0  0
  6 16  1  0  0  0  0
  6 15  1  0  0  0  0
  7  6  1  0  0  0  0
  7 17  1  0  0  0  0
  8  7  1  0  0  0  0
  8 20  1  0  0  0  0
  9  1  1  0  0  0  0
 10  3  1  0  0  0  0
 11  3  1  0  0  0  0
 14  5  1  0  0  0  0
 18  7  1  0  0  0  0
 19  8  1  0  0  0  0
M  END
