title
 OpenBabel02282110003D

 17 18  0  0  1  0  0  0  0  0999 V2000
   -0.2260    1.9317   -0.5964 C   0  0  0  0  0  0  0  0  0  0  0  0
   -0.1855    0.4026   -0.5977 C   0  0  1  0  0  0  0  0  0  0  0  0
    1.0243   -0.1645   -1.4121 C   0  0  0  0  0  0  0  0  0  0  0  0
    1.7562   -0.4336   -0.1454 O   0  0  0  0  0  0  0  0  0  0  0  0
    0.5684   -0.2543    0.5114 C   0  0  0  0  0  0  0  0  0  0  0  0
   -0.0040   -0.7954    1.4961 N   0  0  0  0  0  0  0  0  0  0  0  0
   -1.4487   -0.5159    1.2141 C   0  0  0  0  0  0  0  0  0  0  0  0
   -1.5492   -0.2700   -0.3407 C   0  0  0  0  0  0  0  0  0  0  0  0
    0.7752    2.3569   -0.4763 H   0  0  0  0  0  0  0  0  0  0  0  0
   -0.6436    2.3039   -1.5382 H   0  0  0  0  0  0  0  0  0  0  0  0
   -0.8510    2.3084    0.2188 H   0  0  0  0  0  0  0  0  0  0  0  0
    0.8468   -1.1071   -1.9364 H   0  0  0  0  0  0  0  0  0  0  0  0
    1.5756    0.5422   -2.0348 H   0  0  0  0  0  0  0  0  0  0  0  0
   -2.0386   -1.3800    1.5295 H   0  0  0  0  0  0  0  0  0  0  0  0
   -1.8047    0.3489    1.7889 H   0  0  0  0  0  0  0  0  0  0  0  0
   -2.4108    0.3376   -0.6301 H   0  0  0  0  0  0  0  0  0  0  0  0
   -1.6210   -1.2360   -0.8508 H   0  0  0  0  0  0  0  0  0  0  0  0
  1  9  1  0  0  0  0
  1 11  1  0  0  0  0
  2  1  1  1  0  0  0
  2  8  1  0  0  0  0
  2  5  1  0  0  0  0
  3  2  1  0  0  0  0
  3  4  1  0  0  0  0
  4  5  1  0  0  0  0
  5  6  2  0  0  0  0
  7  6  1  0  0  0  0
  7 14  1  0  0  0  0
  7 15  1  0  0  0  0
  8  7  1  0  0  0  0
 10  1  1  0  0  0  0
 12  3  1  0  0  0  0
 13  3  1  0  0  0  0
 16  8  1  0  0  0  0
 17  8  1  0  0  0  0
M  END
