20
title
C -0.15984128 1.8897502 -0.6587786
C -0.09955721 0.36286715 -0.55245596
C 1.0987362 -0.24243984 -1.3805559
C 1.9471387 -0.3005819 -0.053580318
C 0.6189914 -0.18852708 0.65791285
C -0.18325835 -0.77681315 1.537744
C -1.6333107 -0.6003778 1.088033
C -1.495317 -0.29486176 -0.44031712
H 0.8288882 2.3453815 -0.5390721
H -0.5488859 2.1931987 -1.6378487
H -0.8155434 2.3136258 0.10946542
H 0.8760492 -1.2437904 -1.7570378
H 1.4987158 0.37276196 -2.1916683
H 2.5494664 -1.1918505 0.13666594
H 2.5864944 0.5820561 0.05150598
H 0.10308578 -1.3775057 2.3937612
H -2.2287054 -1.5012829 1.272622
H -2.1415465 0.21564287 1.6212935
H -2.3083134 0.33024555 -0.82367325
H -1.5147941 -1.2394067 -0.99534035
