title
 OpenBabel02282110003D

 16 17  0  0  1  0  0  0  0  0999 V2000
    0.1584    2.2268   -0.2843 O   0  0  0  0  0  0  0  0  0  0  0  0
    0.2127    0.8315   -0.3903 C   0  0  2  0  0  0  0  0  0  0  0  0
   -0.2996    0.1840   -1.6553 C   0  0  0  0  0  0  0  0  0  0  0  0
   -1.1142    0.1258   -0.3789 C   0  0  1  0  0  0  0  0  0  0  0  0
   -1.2358   -1.1130    0.2664 O   0  0  0  0  0  0  0  0  0  0  0  0
   -0.2230   -1.3415    1.2143 C   0  0  0  0  0  0  0  0  0  0  0  0
    1.0609   -1.1864    0.6707 O   0  0  0  0  0  0  0  0  0  0  0  0
    1.3326    0.1839    0.4086 C   0  0  0  0  0  0  0  0  0  0  0  0
    0.7861    2.5976   -0.9147 H   0  0  0  0  0  0  0  0  0  0  0  0
   -0.6466    0.8398   -2.4463 H   0  0  0  0  0  0  0  0  0  0  0  0
    0.1618   -0.7454   -1.9707 H   0  0  0  0  0  0  0  0  0  0  0  0
   -2.0079    0.7393   -0.3114 H   0  0  0  0  0  0  0  0  0  0  0  0
   -0.3457   -0.6641    2.0786 H   0  0  0  0  0  0  0  0  0  0  0  0
   -0.3219   -2.3824    1.5275 H   0  0  0  0  0  0  0  0  0  0  0  0
    2.2900    0.2154   -0.1221 H   0  0  0  0  0  0  0  0  0  0  0  0
    1.4374    0.7446    1.3509 H   0  0  0  0  0  0  0  0  0  0  0  0
  2  4  1  1  0  0  0
  2  1  1  0  0  0  0
  2  8  1  0  0  0  0
  3  2  1  0  0  0  0
  3  4  1  0  0  0  0
  4 12  1  1  0  0  0
  4  5  1  0  0  0  0
  5  6  1  0  0  0  0
  6 14  1  0  0  0  0
  6 13  1  0  0  0  0
  7  6  1  0  0  0  0
  8  7  1  0  0  0  0
  8 16  1  0  0  0  0
  9  1  1  0  0  0  0
 10  3  1  0  0  0  0
 11  3  1  0  0  0  0
 15  8  1  0  0  0  0
M  END
