title
 OpenBabel02282110003D

 18 19  0  0  1  0  0  0  0  0999 V2000
   -0.5297    1.8961   -0.4317 C   0  0  0  0  0  0  0  0  0  0  0  0
   -0.3852    0.3874   -0.2999 C   0  0  1  0  0  0  0  0  0  0  0  0
    0.3196   -0.2943   -1.4894 C   0  0  0  0  0  0  0  0  0  0  0  0
    1.7500   -0.5751   -0.9170 C   0  0  0  0  0  0  0  0  0  0  0  0
    1.4777   -0.7870    0.5745 C   0  0  0  0  0  0  0  0  0  0  0  0
    0.3312   -0.1944    0.8826 C   0  0  2  0  0  0  0  0  0  0  0  0
   -1.0037   -0.3806    1.5554 C   0  0  0  0  0  0  0  0  0  0  0  0
   -1.6376   -0.1834    0.2550 O   0  0  0  0  0  0  0  0  0  0  0  0
    0.4133    2.3517   -0.7522 H   0  0  0  0  0  0  0  0  0  0  0  0
   -1.2933    2.1300   -1.1811 H   0  0  0  0  0  0  0  0  0  0  0  0
   -0.8303    2.3541    0.5148 H   0  0  0  0  0  0  0  0  0  0  0  0
   -0.1806   -1.2449   -1.6969 H   0  0  0  0  0  0  0  0  0  0  0  0
    0.3280    0.3019   -2.4068 H   0  0  0  0  0  0  0  0  0  0  0  0
    2.2078   -1.4608   -1.3692 H   0  0  0  0  0  0  0  0  0  0  0  0
    2.4349    0.2612   -1.1129 H   0  0  0  0  0  0  0  0  0  0  0  0
    2.0803   -1.4328    1.2024 H   0  0  0  0  0  0  0  0  0  0  0  0
   -1.2103   -1.3669    1.9838 H   0  0  0  0  0  0  0  0  0  0  0  0
   -1.3095    0.3976    2.2670 H   0  0  0  0  0  0  0  0  0  0  0  0
  1 11  1  0  0  0  0
  2  1  1  6  0  0  0
  2  8  1  0  0  0  0
  3  4  1  0  0  0  0
  3  2  1  0  0  0  0
  4  5  1  0  0  0  0
  5  6  1  0  0  0  0
  5 16  1  0  0  0  0
  6  2  1  6  0  0  0
  6  7  1  0  0  0  0
  7 17  1  0  0  0  0
  7 18  1  0  0  0  0
  8  7  1  0  0  0  0
  9  1  1  0  0  0  0
 10  1  1  0  0  0  0
 12  3  1  0  0  0  0
 13  3  1  0  0  0  0
 14  4  1  0  0  0  0
 15  4  1  0  0  0  0
M  RAD  2   5   2   6   2
M  END
