title
 OpenBabel02282110003D

 20 21  0  0  1  0  0  0  0  0999 V2000
   -0.5265    2.1090   -0.1584 C   0  0  0  0  0  0  0  0  0  0  0  0
   -0.4237    0.5873   -0.1678 C   0  0  2  0  0  0  0  0  0  0  0  0
   -1.7110   -0.2020    0.2332 C   0  0  0  0  0  0  0  0  0  0  0  0
   -0.8476   -1.1135    1.1468 C   0  0  0  0  0  0  0  0  0  0  0  0
    0.3633   -0.1484    0.9791 C   0  0  1  0  0  0  0  0  0  0  0  0
    1.6398   -0.7478    0.3611 C   0  0  0  0  0  0  0  0  0  0  0  0
    1.3604   -0.6582   -1.1240 C   0  0  0  0  0  0  0  0  0  0  0  0
    0.2633    0.0471   -1.3999 C   0  0  0  0  0  0  0  0  0  0  0  0
    0.4581    2.5748   -0.2771 H   0  0  0  0  0  0  0  0  0  0  0  0
   -1.1630    2.4660   -0.9772 H   0  0  0  0  0  0  0  0  0  0  0  0
   -0.9623    2.4689    0.7801 H   0  0  0  0  0  0  0  0  0  0  0  0
   -2.4120    0.4209    0.7977 H   0  0  0  0  0  0  0  0  0  0  0  0
   -2.2602   -0.6906   -0.5765 H   0  0  0  0  0  0  0  0  0  0  0  0
   -1.2127   -1.2579    2.1663 H   0  0  0  0  0  0  0  0  0  0  0  0
   -0.6558   -2.0971    0.7094 H   0  0  0  0  0  0  0  0  0  0  0  0
    0.5530    0.4589    1.8670 H   0  0  0  0  0  0  0  0  0  0  0  0
    2.5468   -0.1876    0.6285 H   0  0  0  0  0  0  0  0  0  0  0  0
    1.8100   -1.7800    0.6952 H   0  0  0  0  0  0  0  0  0  0  0  0
    2.0063   -1.1164   -1.8662 H   0  0  0  0  0  0  0  0  0  0  0  0
   -0.1147    0.2464   -2.3987 H   0  0  0  0  0  0  0  0  0  0  0  0
  1 11  1  0  0  0  0
  2  1  1  0  0  0  0
  2  3  1  0  0  0  0
  2  5  1  1  0  0  0
  3 12  1  0  0  0  0
  3  4  1  0  0  0  0
  4 14  1  0  0  0  0
  5  4  1  0  0  0  0
  5 16  1  1  0  0  0
  6 17  1  0  0  0  0
  6 18  1  0  0  0  0
  6  5  1  0  0  0  0
  7  6  1  0  0  0  0
  8  7  2  0  0  0  0
  8  2  1  0  0  0  0
  9  1  1  0  0  0  0
 10  1  1  0  0  0  0
 13  3  1  0  0  0  0
 15  4  1  0  0  0  0
 19  7  1  0  0  0  0
 20  8  1  0  0  0  0
M  END
