18
title
C 0.27749786 2.0246823 -0.6795842
C -0.0043480084 0.5671056 -0.37203327
C -1.49921 0.1904396 -0.28597826
C -1.5562413 -0.77208966 0.8760616
C -0.38156143 -0.9152966 1.4917741
C 0.7048206 -0.10561134 0.84472936
C 1.5348023 -0.8419437 -0.2328273
O 0.7082176 -0.31467983 -1.288537
H 1.3540188 2.218443 -0.70300364
H -0.13646689 2.2938068 -1.6573037
H -0.17715001 2.6758528 0.07471445
H -2.1447945 1.0645559 -0.124729276
H -1.8131226 -0.2671741 -1.2318525
H -2.4720402 -1.2767661 1.1653783
H -0.2007556 -1.556316 2.3481271
H 1.2715527 0.5265459 1.5335736
H 2.57581 -0.5020489 -0.32089907
H 1.5150445 -1.937307 -0.19954517
