title
 OpenBabel02282110003D

 17 18  0  0  1  0  0  0  0  0999 V2000
   -0.5114    2.1130   -0.1021 C   0  0  0  0  0  0  0  0  0  0  0  0
   -0.3888    0.6019   -0.1649 C   0  0  2  0  0  0  0  0  0  0  0  0
   -1.6705   -0.2425    0.1090 C   0  0  0  0  0  0  0  0  0  0  0  0
   -0.8941   -1.0727    1.1796 C   0  0  0  0  0  0  0  0  0  0  0  0
    0.3507   -0.1811    0.9716 C   0  0  1  0  0  0  0  0  0  0  0  0
    1.4516   -0.8394    0.3074 O   0  0  0  0  0  0  0  0  0  0  0  0
    1.2681   -0.5723   -1.0125 C   0  0  0  0  0  0  0  0  0  0  0  0
    0.3164    0.1749   -1.3909 N   0  0  0  0  0  0  0  0  0  0  0  0
    0.4742    2.5861   -0.1579 H   0  0  0  0  0  0  0  0  0  0  0  0
   -1.1088    2.4787   -0.9431 H   0  0  0  0  0  0  0  0  0  0  0  0
   -0.9953    2.4293    0.8279 H   0  0  0  0  0  0  0  0  0  0  0  0
   -2.4993    0.3424    0.5166 H   0  0  0  0  0  0  0  0  0  0  0  0
   -2.0261   -0.7994   -0.7597 H   0  0  0  0  0  0  0  0  0  0  0  0
   -1.3130   -1.0366    2.1878 H   0  0  0  0  0  0  0  0  0  0  0  0
   -0.7136   -2.1169    0.9163 H   0  0  0  0  0  0  0  0  0  0  0  0
    0.7461    0.3496    1.8392 H   0  0  0  0  0  0  0  0  0  0  0  0
    1.9957   -1.0426   -1.6652 H   0  0  0  0  0  0  0  0  0  0  0  0
  1 11  1  0  0  0  0
  2  1  1  0  0  0  0
  2  3  1  0  0  0  0
  2  5  1  1  0  0  0
  3 12  1  0  0  0  0
  3  4  1  0  0  0  0
  4 14  1  0  0  0  0
  5  4  1  0  0  0  0
  5 16  1  1  0  0  0
  6  5  1  0  0  0  0
  7  6  1  0  0  0  0
  8  7  2  0  0  0  0
  8  2  1  0  0  0  0
  9  1  1  0  0  0  0
 10  1  1  0  0  0  0
 13  3  1  0  0  0  0
 15  4  1  0  0  0  0
 17  7  1  0  0  0  0
M  END
