title
 OpenBabel02282110003D

 16 17  0  0  1  0  0  0  0  0999 V2000
    0.3851    1.9497   -0.3970 O   0  0  0  0  0  0  0  0  0  0  0  0
    0.3980    0.5594   -0.1806 C   0  0  2  0  0  0  0  0  0  0  0  0
    0.5980   -0.3194   -1.4438 C   0  0  0  0  0  0  0  0  0  0  0  0
   -0.7530   -0.8196   -1.3771 O   0  0  0  0  0  0  0  0  0  0  0  0
   -1.0132   -0.0758   -0.1528 C   0  0  1  0  0  0  0  0  0  0  0  0
   -1.0229   -0.9273    1.0832 C   0  0  0  0  0  0  0  0  0  0  0  0
    0.1268   -0.8323    1.7536 C   0  0  0  0  0  0  0  0  0  0  0  0
    1.1159    0.1153    1.1135 C   0  0  0  0  0  0  0  0  0  0  0  0
    1.2964    2.2564   -0.4555 H   0  0  0  0  0  0  0  0  0  0  0  0
    0.7750    0.2605   -2.3575 H   0  0  0  0  0  0  0  0  0  0  0  0
    1.3412   -1.1231   -1.3623 H   0  0  0  0  0  0  0  0  0  0  0  0
   -1.8721    0.5924   -0.2716 H   0  0  0  0  0  0  0  0  0  0  0  0
   -1.8663   -1.5471    1.3644 H   0  0  0  0  0  0  0  0  0  0  0  0
    0.3555   -1.3628    2.6724 H   0  0  0  0  0  0  0  0  0  0  0  0
    2.0847   -0.3640    0.9216 H   0  0  0  0  0  0  0  0  0  0  0  0
    1.3104    0.9873    1.7517 H   0  0  0  0  0  0  0  0  0  0  0  0
  1  2  1  0  0  0  0
  2  5  1  1  0  0  0
  2  8  1  0  0  0  0
  3  4  1  0  0  0  0
  3 11  1  0  0  0  0
  3  2  1  0  0  0  0
  4  5  1  0  0  0  0
  5 12  1  6  0  0  0
  5  6  1  0  0  0  0
  6 13  1  0  0  0  0
  6  7  2  0  0  0  0
  7 14  1  0  0  0  0
  8 16  1  0  0  0  0
  8  7  1  0  0  0  0
  9  1  1  0  0  0  0
 10  3  1  0  0  0  0
 15  8  1  0  0  0  0
M  END
