20
title
C -0.73127526 2.0347707 0.009785852
C -0.36143982 0.5729852 -0.19612499
C -1.5421276 -0.4233107 0.05463291
C -0.8928031 -0.8722883 1.3922133
C 0.4121251 -0.12662894 0.98364604
C 1.44364 -0.95622617 0.2715835
C 1.4622599 -0.7381367 -1.0442576
C 0.45586193 0.301458 -1.4803408
H 0.16201895 2.6696439 0.03086122
H -1.3783604 2.396101 -0.79858655
H -1.2686505 2.184552 0.95308995
H -2.535411 0.028458772 0.12687871
H -1.582249 -1.2228404 -0.6897689
H -1.3710774 -0.42464107 2.2678068
H -0.80618644 -1.9489942 1.5594431
H 0.84897333 0.5123529 1.7600992
H 2.0909646 -1.6536615 0.7944092
H 2.130834 -1.227788 -1.7451228
H -0.18273044 -0.04949677 -2.3021858
H 0.95774704 1.2073483 -1.8513278
