title
 OpenBabel02282110003D

 17 18  0  0  1  0  0  0  0  0999 V2000
   -0.5639    2.0833    0.0112 C   0  0  0  0  0  0  0  0  0  0  0  0
   -0.3745    0.5903   -0.1145 C   0  0  2  0  0  0  0  0  0  0  0  0
   -1.6091   -0.3369    0.0482 C   0  0  0  0  0  0  0  0  0  0  0  0
   -0.9020   -1.0754    1.2286 C   0  0  0  0  0  0  0  0  0  0  0  0
    0.3789   -0.2329    0.9829 C   0  0  1  0  0  0  0  0  0  0  0  0
    1.4452   -0.9416    0.2631 N   0  0  0  0  0  0  0  0  0  0  0  0
    1.3410   -0.5791   -0.9488 C   0  0  0  0  0  0  0  0  0  0  0  0
    0.3810    0.3008   -1.3263 O   0  0  0  0  0  0  0  0  0  0  0  0
    0.4024    2.5965    0.0208 H   0  0  0  0  0  0  0  0  0  0  0  0
   -1.1545    2.4744   -0.8237 H   0  0  0  0  0  0  0  0  0  0  0  0
   -1.0906    2.3207    0.9408 H   0  0  0  0  0  0  0  0  0  0  0  0
   -2.5355    0.1813    0.3079 H   0  0  0  0  0  0  0  0  0  0  0  0
   -1.7910   -0.9513   -0.8357 H   0  0  0  0  0  0  0  0  0  0  0  0
   -1.3647   -0.8945    2.2018 H   0  0  0  0  0  0  0  0  0  0  0  0
   -0.7562   -2.1495    1.1019 H   0  0  0  0  0  0  0  0  0  0  0  0
    0.7880    0.2950    1.8489 H   0  0  0  0  0  0  0  0  0  0  0  0
    1.9810   -0.9136   -1.7585 H   0  0  0  0  0  0  0  0  0  0  0  0
  1  9  1  0  0  0  0
  1 11  1  0  0  0  0
  2  1  1  0  0  0  0
  2  3  1  0  0  0  0
  2  5  1  1  0  0  0
  3 12  1  0  0  0  0
  3  4  1  0  0  0  0
  4 14  1  0  0  0  0
  5  4  1  0  0  0  0
  5 16  1  1  0  0  0
  6  5  1  0  0  0  0
  7  6  2  0  0  0  0
  8  7  1  0  0  0  0
  8  2  1  0  0  0  0
 10  1  1  0  0  0  0
 13  3  1  0  0  0  0
 15  4  1  0  0  0  0
 17  7  1  0  0  0  0
M  END
