16
title
O 0.38507444 1.9496615 -0.3969729
C 0.39795643 0.5594087 -0.1805914
C 0.59798235 -0.31938905 -1.4438157
O -0.7529655 -0.81964034 -1.3770716
C -1.0131648 -0.07579887 -0.15278469
C -1.0228895 -0.9272811 1.0831805
C 0.1268366 -0.8322578 1.7536422
C 1.1159029 0.1153073 1.1135116
H 1.2963969 2.2563517 -0.45551422
H 0.7750292 0.26050112 -2.3574717
H 1.3412281 -1.1231183 -1.3623445
H -1.872133 0.5924011 -0.27158937
H -1.8663237 -1.5470694 1.3644254
H 0.35547885 -1.3627865 2.6724193
H 2.0847285 -0.36402595 0.92161334
H 1.3103682 0.9873497 1.7516798
