18
title
C -0.5917244 2.0794005 -0.11101498
C -0.35686776 0.58324 -0.1513491
O -1.5809573 -0.14765212 0.17201634
C -0.88133454 -0.9610159 1.1357855
C 0.4218326 -0.14838895 0.98328733
C 1.626835 -0.8560985 0.3403999
C 1.3553528 -0.70898134 -1.1417621
C 0.3027915 0.064632095 -1.4062822
H 0.34366396 2.6241179 -0.27638143
H -1.3003852 2.3728676 -0.89311826
H -1.0105422 2.377583 0.85435545
H -1.3656595 -0.92687565 2.1185646
H -0.8024575 -2.0085948 0.81407833
H 0.6759658 0.45594347 1.8549497
H 2.579948 -0.387984 0.62027353
H 1.7042938 -1.908049 0.6448735
H 1.9743396 -1.192234 -1.8909394
H -0.070528716 0.30776012 -2.3952677
