title
 OpenBabel02282110003D

 20 21  0  0  1  0  0  0  0  0999 V2000
   -0.7078    2.0660    0.0617 C   0  0  0  0  0  0  0  0  0  0  0  0
   -0.3937    0.5941   -0.1025 C   0  0  2  0  0  0  0  0  0  0  0  0
   -1.5946   -0.4018    0.0022 C   0  0  0  0  0  0  0  0  0  0  0  0
   -0.8850   -1.1407    1.1717 C   0  0  0  0  0  0  0  0  0  0  0  0
    0.3349   -0.1812    1.0531 C   0  0  1  0  0  0  0  0  0  0  0  0
    1.5924   -0.7442    0.3812 C   0  0  0  0  0  0  0  0  0  0  0  0
    1.2151   -0.7201   -1.1095 C   0  0  0  0  0  0  0  0  0  0  0  0
    0.3993    0.4317   -1.2738 O   0  0  0  0  0  0  0  0  0  0  0  0
    0.2150    2.6495    0.1391 H   0  0  0  0  0  0  0  0  0  0  0  0
   -1.2726    2.4343   -0.8012 H   0  0  0  0  0  0  0  0  0  0  0  0
   -1.3072    2.2379    0.9609 H   0  0  0  0  0  0  0  0  0  0  0  0
   -2.5470    0.0676    0.2617 H   0  0  0  0  0  0  0  0  0  0  0  0
   -1.7387   -0.9926   -0.9055 H   0  0  0  0  0  0  0  0  0  0  0  0
   -1.4081   -1.0726    2.1282 H   0  0  0  0  0  0  0  0  0  0  0  0
   -0.6572   -2.1948    0.9875 H   0  0  0  0  0  0  0  0  0  0  0  0
    0.5596    0.3926    1.9541 H   0  0  0  0  0  0  0  0  0  0  0  0
    2.4448   -0.0809    0.5595 H   0  0  0  0  0  0  0  0  0  0  0  0
    1.8617   -1.7446    0.7329 H   0  0  0  0  0  0  0  0  0  0  0  0
    2.0713   -0.6240   -1.7827 H   0  0  0  0  0  0  0  0  0  0  0  0
    0.6665   -1.6343   -1.3890 H   0  0  0  0  0  0  0  0  0  0  0  0
  1  9  1  0  0  0  0
  1 11  1  0  0  0  0
  2  3  1  0  0  0  0
  2  1  1  0  0  0  0
  2  5  1  1  0  0  0
  3 12  1  0  0  0  0
  3  4  1  0  0  0  0
  4 14  1  0  0  0  0
  5  4  1  0  0  0  0
  5 16  1  1  0  0  0
  6 17  1  0  0  0  0
  6 18  1  0  0  0  0
  6  5  1  0  0  0  0
  7  6  1  0  0  0  0
  8  7  1  0  0  0  0
  8  2  1  0  0  0  0
 10  1  1  0  0  0  0
 13  3  1  0  0  0  0
 15  4  1  0  0  0  0
 19  7  1  0  0  0  0
 20  7  1  0  0  0  0
M  END
