20
title
C -0.39137828 2.1715596 -0.3836872
C -0.32895735 0.6546134 -0.290493
C -1.6522611 -0.044663504 0.16947293
C -0.9319071 -0.6088318 1.4261067
C 0.40408942 0.029748008 0.94987965
O 1.3856958 -0.8720786 0.4729808
C 1.011004 -1.2688421 -0.8425028
C 0.37623462 -0.023106888 -1.4771768
H 0.6093075 2.601513 -0.5055747
H -0.9991234 2.4913492 -1.2383623
H -0.8372855 2.608721 0.5166878
H -2.4674723 0.65121925 0.38359576
H -2.028959 -0.8022378 -0.52400655
H -1.2988391 -0.2096246 2.3748944
H -0.89049447 -1.6978142 1.504946
H 0.8928447 0.7053846 1.6568344
H 1.9106375 -1.6194761 -1.355116
H 0.2922003 -2.1033769 -0.8105548
H -0.305887 -0.26692405 -2.2972915
H 1.1597841 0.6339741 -1.8702209
