title
 OpenBabel02282110003D

 20 21  0  0  1  0  0  0  0  0999 V2000
   -0.6826    2.1343   -0.0321 C   0  0  0  0  0  0  0  0  0  0  0  0
   -0.4064    0.6439   -0.1431 C   0  0  2  0  0  0  0  0  0  0  0  0
   -1.6193   -0.3009    0.1306 C   0  0  0  0  0  0  0  0  0  0  0  0
   -0.8557   -0.9622    1.3098 C   0  0  0  0  0  0  0  0  0  0  0  0
    0.3819   -0.0690    1.0229 C   0  0  1  0  0  0  0  0  0  0  0  0
    1.5404   -0.7595    0.3013 C   0  0  0  0  0  0  0  0  0  0  0  0
    1.1006   -0.9421   -1.0416 O   0  0  0  0  0  0  0  0  0  0  0  0
    0.4080    0.2512   -1.3842 C   0  0  0  0  0  0  0  0  0  0  0  0
    0.2465    2.7157   -0.0468 H   0  0  0  0  0  0  0  0  0  0  0  0
   -1.3070    2.4839   -0.8635 H   0  0  0  0  0  0  0  0  0  0  0  0
   -1.2122    2.3726    0.8963 H   0  0  0  0  0  0  0  0  0  0  0  0
   -2.5355    0.2238    0.4149 H   0  0  0  0  0  0  0  0  0  0  0  0
   -1.8525   -0.9781   -0.6955 H   0  0  0  0  0  0  0  0  0  0  0  0
   -1.3082   -0.7913    2.2894 H   0  0  0  0  0  0  0  0  0  0  0  0
   -0.6744   -2.0348    1.1990 H   0  0  0  0  0  0  0  0  0  0  0  0
    0.7166    0.5599    1.8508 H   0  0  0  0  0  0  0  0  0  0  0  0
    2.4431   -0.1257    0.3268 H   0  0  0  0  0  0  0  0  0  0  0  0
    1.7965   -1.7436    0.7050 H   0  0  0  0  0  0  0  0  0  0  0  0
   -0.2051    0.0414   -2.2660 H   0  0  0  0  0  0  0  0  0  0  0  0
    1.1237    1.0528   -1.6389 H   0  0  0  0  0  0  0  0  0  0  0  0
  1 11  1  0  0  0  0
  2  1  1  0  0  0  0
  2  3  1  0  0  0  0
  2  5  1  1  0  0  0
  3 12  1  0  0  0  0
  3  4  1  0  0  0  0
  4 14  1  0  0  0  0
  5  4  1  0  0  0  0
  5 16  1  1  0  0  0
  6 17  1  0  0  0  0
  6 18  1  0  0  0  0
  6  5  1  0  0  0  0
  7  6  1  0  0  0  0
  8  7  1  0  0  0  0
  8  2  1  0  0  0  0
  9  1  1  0  0  0  0
 10  1  1  0  0  0  0
 13  3  1  0  0  0  0
 15  4  1  0  0  0  0
 19  8  1  0  0  0  0
 20  8  1  0  0  0  0
M  END
