18
title
O 0.48031458 1.9462861 -0.40896294
C 0.36420155 0.5441068 -0.27836117
C 0.6087677 -0.18687162 -1.616798
C -0.60675335 -1.1043162 -1.308629
C -1.0468395 -0.14337692 -0.16284385
C -1.1570121 -0.7415248 1.2487284
C 0.26795605 -0.6622453 1.7570974
C 1.0812073 0.00013355035 0.9324619
H 0.3659858 2.334137 0.46588457
H 0.4163892 0.4944846 -2.4497044
H 1.5834271 -0.6597092 -1.7612462
H -1.3216064 -1.2476988 -2.121224
H -0.31169605 -2.0872865 -0.93100226
H -1.8773834 0.5052211 -0.44588506
H -1.8436087 -0.1885027 1.9044709
H -1.5257827 -1.775109 1.2265794
H 0.57187665 -1.1116676 2.697361
H 2.1393118 0.18031526 1.0941745
