title
 OpenBabel02282110003D

 16 17  0  0  1  0  0  0  0  0999 V2000
    0.4951    1.9739   -0.4344 O   0  0  0  0  0  0  0  0  0  0  0  0
    0.3746    0.5883   -0.2371 C   0  0  2  0  0  0  0  0  0  0  0  0
    0.5157   -0.2185   -1.5414 C   0  0  0  0  0  0  0  0  0  0  0  0
   -0.6686   -0.9831   -1.2333 O   0  0  0  0  0  0  0  0  0  0  0  0
   -1.0197   -0.1119   -0.1324 C   0  0  1  0  0  0  0  0  0  0  0  0
   -1.0807   -0.8486    1.2096 C   0  0  0  0  0  0  0  0  0  0  0  0
    0.3325   -0.7109    1.7353 C   0  0  0  0  0  0  0  0  0  0  0  0
    1.1095    0.0478    0.9605 C   0  0  0  0  0  0  0  0  0  0  0  0
    0.4648    2.4014    0.4283 H   0  0  0  0  0  0  0  0  0  0  0  0
    0.3850    0.4093   -2.4323 H   0  0  0  0  0  0  0  0  0  0  0  0
    1.4018   -0.8520   -1.6563 H   0  0  0  0  0  0  0  0  0  0  0  0
   -1.8966    0.5017   -0.3649 H   0  0  0  0  0  0  0  0  0  0  0  0
   -1.8186   -0.4231    1.9024 H   0  0  0  0  0  0  0  0  0  0  0  0
   -1.3633   -1.8948    1.0451 H   0  0  0  0  0  0  0  0  0  0  0  0
    0.6598   -1.2006    2.6467 H   0  0  0  0  0  0  0  0  0  0  0  0
    2.1564    0.2727    1.1355 H   0  0  0  0  0  0  0  0  0  0  0  0
  1  2  1  0  0  0  0
  1  9  1  0  0  0  0
  2  5  1  1  0  0  0
  2  8  1  0  0  0  0
  3  4  1  0  0  0  0
  3  2  1  0  0  0  0
  4  5  1  0  0  0  0
  5 12  1  6  0  0  0
  5  6  1  0  0  0  0
  6  7  1  0  0  0  0
  6 13  1  0  0  0  0
  7 15  1  0  0  0  0
  8 16  1  0  0  0  0
  8  7  2  0  0  0  0
 10  3  1  0  0  0  0
 11  3  1  0  0  0  0
 14  6  1  0  0  0  0
M  END
