title
 OpenBabel02282110003D

 20 21  0  0  1  0  0  0  0  0999 V2000
   -0.2510    2.1958   -0.1635 C   0  0  0  0  0  0  0  0  0  0  0  0
   -0.1407    0.6849   -0.2125 C   0  0  2  0  0  0  0  0  0  0  0  0
   -1.4620   -0.0715   -0.3860 C   0  0  0  0  0  0  0  0  0  0  0  0
   -1.1611   -1.4930    0.1220 C   0  0  0  0  0  0  0  0  0  0  0  0
   -0.2165   -1.2606    1.3210 C   0  0  0  0  0  0  0  0  0  0  0  0
    0.6562   -0.0690    0.9017 C   0  0  1  0  0  0  0  0  0  0  0  0
    1.6755   -0.3462   -0.2182 C   0  0  0  0  0  0  0  0  0  0  0  0
    0.8313    0.2601   -1.2166 O   0  0  0  0  0  0  0  0  0  0  0  0
    0.7328    2.6545   -0.0275 H   0  0  0  0  0  0  0  0  0  0  0  0
   -0.6746    2.5783   -1.0984 H   0  0  0  0  0  0  0  0  0  0  0  0
   -0.8995    2.5138    0.6600 H   0  0  0  0  0  0  0  0  0  0  0  0
   -2.2350    0.4009    0.2335 H   0  0  0  0  0  0  0  0  0  0  0  0
   -1.8012   -0.0411   -1.4257 H   0  0  0  0  0  0  0  0  0  0  0  0
   -2.0603   -2.0530    0.3923 H   0  0  0  0  0  0  0  0  0  0  0  0
   -0.6465   -2.0602   -0.6609 H   0  0  0  0  0  0  0  0  0  0  0  0
   -0.8006   -0.9904    2.2091 H   0  0  0  0  0  0  0  0  0  0  0  0
    0.3728   -2.1464    1.5802 H   0  0  0  0  0  0  0  0  0  0  0  0
    1.0279    0.5208    1.7412 H   0  0  0  0  0  0  0  0  0  0  0  0
    2.6330    0.1819   -0.1190 H   0  0  0  0  0  0  0  0  0  0  0  0
    1.8776   -1.4035   -0.4347 H   0  0  0  0  0  0  0  0  0  0  0  0
  1  9  1  0  0  0  0
  1 11  1  0  0  0  0
  2  1  1  0  0  0  0
  2  6  1  1  0  0  0
  3  2  1  0  0  0  0
  3  4  1  0  0  0  0
  3 12  1  0  0  0  0
  4 14  1  0  0  0  0
  4  5  1  0  0  0  0
  5 17  1  0  0  0  0
  5 16  1  0  0  0  0
  6  5  1  0  0  0  0
  6 18  1  1  0  0  0
  7 19  1  0  0  0  0
  7  6  1  0  0  0  0
  8  7  1  0  0  0  0
  8  2  1  0  0  0  0
 10  1  1  0  0  0  0
 13  3  1  0  0  0  0
 15  4  1  0  0  0  0
 20  7  1  0  0  0  0
M  END
