title
 OpenBabel02282110003D

 22 23  0  0  1  0  0  0  0  0999 V2000
   -0.5037    2.0433   -0.1955 C   0  0  0  0  0  0  0  0  0  0  0  0
   -0.4792    0.5200   -0.1780 C   0  0  2  0  0  0  0  0  0  0  0  0
   -1.7878   -0.1899    0.2804 C   0  0  0  0  0  0  0  0  0  0  0  0
   -0.9533   -1.0950    1.2280 C   0  0  0  0  0  0  0  0  0  0  0  0
    0.2928   -0.1881    0.9922 C   0  0  1  0  0  0  0  0  0  0  0  0
    1.5779   -0.8193    0.4116 C   0  0  0  0  0  0  0  0  0  0  0  0
    1.6554   -0.2847   -1.0376 C   0  0  0  0  0  0  0  0  0  0  0  0
    0.1846   -0.0759   -1.4418 C   0  0  0  0  0  0  0  0  0  0  0  0
    0.4893    2.4609   -0.4002 H   0  0  0  0  0  0  0  0  0  0  0  0
   -1.1851    2.4177   -0.9691 H   0  0  0  0  0  0  0  0  0  0  0  0
   -0.8399    2.4460    0.7664 H   0  0  0  0  0  0  0  0  0  0  0  0
   -2.4519    0.4855    0.8281 H   0  0  0  0  0  0  0  0  0  0  0  0
   -2.3753   -0.6867   -0.4974 H   0  0  0  0  0  0  0  0  0  0  0  0
   -1.3103   -1.1740    2.2577 H   0  0  0  0  0  0  0  0  0  0  0  0
   -0.8103   -2.1089    0.8423 H   0  0  0  0  0  0  0  0  0  0  0  0
    0.4945    0.4684    1.8430 H   0  0  0  0  0  0  0  0  0  0  0  0
    2.4733   -0.5714    0.9893 H   0  0  0  0  0  0  0  0  0  0  0  0
    1.4978   -1.9127    0.4090 H   0  0  0  0  0  0  0  0  0  0  0  0
    2.1837    0.6764   -1.0526 H   0  0  0  0  0  0  0  0  0  0  0  0
    2.1955   -0.9543   -1.7138 H   0  0  0  0  0  0  0  0  0  0  0  0
   -0.2677   -1.0447   -1.6877 H   0  0  0  0  0  0  0  0  0  0  0  0
    0.0672    0.5650   -2.3218 H   0  0  0  0  0  0  0  0  0  0  0  0
  1  2  1  0  0  0  0
  1 11  1  0  0  0  0
  2  3  1  0  0  0  0
  2  5  1  1  0  0  0
  3 12  1  0  0  0  0
  3  4  1  0  0  0  0
  4 14  1  0  0  0  0
  5  4  1  0  0  0  0
  5 16  1  1  0  0  0
  6 17  1  0  0  0  0
  6  5  1  0  0  0  0
  7  6  1  0  0  0  0
  8  7  1  0  0  0  0
  8  2  1  0  0  0  0
  9  1  1  0  0  0  0
 10  1  1  0  0  0  0
 13  3  1  0  0  0  0
 15  4  1  0  0  0  0
 18  6  1  0  0  0  0
 19  7  1  0  0  0  0
 20  7  1  0  0  0  0
 21  8  1  0  0  0  0
 22  8  1  0  0  0  0
M  END
