title
 OpenBabel02282110003D

 18 19  0  0  1  0  0  0  0  0999 V2000
   -0.5405    2.1413   -0.1778 C   0  0  0  0  0  0  0  0  0  0  0  0
   -0.3883    0.6272   -0.2048 C   0  0  2  0  0  0  0  0  0  0  0  0
   -1.6000   -0.2209    0.2675 C   0  0  0  0  0  0  0  0  0  0  0  0
   -0.7717   -0.9739    1.1748 O   0  0  0  0  0  0  0  0  0  0  0  0
    0.3671   -0.1140    0.9407 C   0  0  1  0  0  0  0  0  0  0  0  0
    1.5580   -0.8626    0.3269 C   0  0  0  0  0  0  0  0  0  0  0  0
    1.3158   -0.7172   -1.1591 C   0  0  0  0  0  0  0  0  0  0  0  0
    0.2849    0.0803   -1.4393 C   0  0  0  0  0  0  0  0  0  0  0  0
    0.4265    2.6373   -0.3118 H   0  0  0  0  0  0  0  0  0  0  0  0
   -1.2008    2.4839   -0.9830 H   0  0  0  0  0  0  0  0  0  0  0  0
   -0.9695    2.4801    0.7711 H   0  0  0  0  0  0  0  0  0  0  0  0
   -2.3702    0.3548    0.8006 H   0  0  0  0  0  0  0  0  0  0  0  0
   -2.0808   -0.8610   -0.4815 H   0  0  0  0  0  0  0  0  0  0  0  0
    0.6175    0.4659    1.8369 H   0  0  0  0  0  0  0  0  0  0  0  0
    2.5243   -0.4361    0.6282 H   0  0  0  0  0  0  0  0  0  0  0  0
    1.5518   -1.9072    0.6604 H   0  0  0  0  0  0  0  0  0  0  0  0
    1.9317   -1.2164   -1.8998 H   0  0  0  0  0  0  0  0  0  0  0  0
   -0.0626    0.3254   -2.4381 H   0  0  0  0  0  0  0  0  0  0  0  0
  1 11  1  0  0  0  0
  2  1  1  0  0  0  0
  2  3  1  0  0  0  0
  2  5  1  1  0  0  0
  3 12  1  0  0  0  0
  3  4  1  0  0  0  0
  5  4  1  0  0  0  0
  5 14  1  1  0  0  0
  6 15  1  0  0  0  0
  6 16  1  0  0  0  0
  6  5  1  0  0  0  0
  7  6  1  0  0  0  0
  8  7  2  0  0  0  0
  8  2  1  0  0  0  0
  9  1  1  0  0  0  0
 10  1  1  0  0  0  0
 13  3  1  0  0  0  0
 17  7  1  0  0  0  0
 18  8  1  0  0  0  0
M  END
