title
 OpenBabel02282110003D

 18 19  0  0  1  0  0  0  0  0999 V2000
   -0.5724    2.0866   -0.1523 C   0  0  0  0  0  0  0  0  0  0  0  0
   -0.4812    0.5708   -0.1762 C   0  0  2  0  0  0  0  0  0  0  0  0
   -1.7025   -0.2662    0.2622 C   0  0  0  0  0  0  0  0  0  0  0  0
   -0.8847   -1.0758    1.1342 O   0  0  0  0  0  0  0  0  0  0  0  0
    0.2391   -0.1771    0.9741 C   0  0  1  0  0  0  0  0  0  0  0  0
    1.4883   -0.8153    0.3513 C   0  0  0  0  0  0  0  0  0  0  0  0
    1.5890   -0.2674   -0.9601 O   0  0  0  0  0  0  0  0  0  0  0  0
    0.2679    0.0060   -1.4046 C   0  0  0  0  0  0  0  0  0  0  0  0
    0.4159    2.5343   -0.3026 H   0  0  0  0  0  0  0  0  0  0  0  0
   -1.2290    2.4558   -0.9485 H   0  0  0  0  0  0  0  0  0  0  0  0
   -0.9671    2.4502    0.8018 H   0  0  0  0  0  0  0  0  0  0  0  0
   -2.4523    0.3035    0.8274 H   0  0  0  0  0  0  0  0  0  0  0  0
   -2.2083   -0.8626   -0.5067 H   0  0  0  0  0  0  0  0  0  0  0  0
    0.4361    0.3827    1.8956 H   0  0  0  0  0  0  0  0  0  0  0  0
    2.4158   -0.5784    0.8798 H   0  0  0  0  0  0  0  0  0  0  0  0
    1.3551   -1.9072    0.3261 H   0  0  0  0  0  0  0  0  0  0  0  0
   -0.2180   -0.9134   -1.7694 H   0  0  0  0  0  0  0  0  0  0  0  0
    0.3387    0.7148   -2.2342 H   0  0  0  0  0  0  0  0  0  0  0  0
  1 11  1  0  0  0  0
  2  1  1  0  0  0  0
  2  3  1  0  0  0  0
  2  5  1  1  0  0  0
  3 12  1  0  0  0  0
  3  4  1  0  0  0  0
  5  4  1  0  0  0  0
  5 14  1  1  0  0  0
  6 15  1  0  0  0  0
  6  5  1  0  0  0  0
  7  6  1  0  0  0  0
  8  7  1  0  0  0  0
  8  2  1  0  0  0  0
  9  1  1  0  0  0  0
 10  1  1  0  0  0  0
 13  3  1  0  0  0  0
 16  6  1  0  0  0  0
 17  8  1  0  0  0  0
 18  8  1  0  0  0  0
M  END
