title
 OpenBabel02282110003D

 20 21  0  0  1  0  0  0  0  0999 V2000
   -0.5749    2.1772   -0.1847 C   0  0  0  0  0  0  0  0  0  0  0  0
   -0.3609    0.6728   -0.2152 C   0  0  2  0  0  0  0  0  0  0  0  0
   -1.5503   -0.1999    0.2538 C   0  0  0  0  0  0  0  0  0  0  0  0
   -0.7542   -0.8430    1.2688 O   0  0  0  0  0  0  0  0  0  0  0  0
    0.3944   -0.0137    0.9677 C   0  0  1  0  0  0  0  0  0  0  0  0
    1.5484   -0.8147    0.3755 C   0  0  0  0  0  0  0  0  0  0  0  0
    1.0753   -1.1326   -1.0564 C   0  0  0  0  0  0  0  0  0  0  0  0
    0.3355    0.1504   -1.4879 C   0  0  0  0  0  0  0  0  0  0  0  0
    0.3743    2.7135   -0.2957 H   0  0  0  0  0  0  0  0  0  0  0  0
   -1.2312    2.4994   -1.0019 H   0  0  0  0  0  0  0  0  0  0  0  0
   -1.0349    2.4976    0.7559 H   0  0  0  0  0  0  0  0  0  0  0  0
   -2.3887    0.3615    0.6881 H   0  0  0  0  0  0  0  0  0  0  0  0
   -1.9459   -0.9183   -0.4766 H   0  0  0  0  0  0  0  0  0  0  0  0
    0.6717    0.6077    1.8274 H   0  0  0  0  0  0  0  0  0  0  0  0
    2.4473   -0.1848    0.3542 H   0  0  0  0  0  0  0  0  0  0  0  0
    1.7764   -1.7033    0.9712 H   0  0  0  0  0  0  0  0  0  0  0  0
    1.8928   -1.3979   -1.7319 H   0  0  0  0  0  0  0  0  0  0  0  0
    0.3834   -1.9811   -1.0330 H   0  0  0  0  0  0  0  0  0  0  0  0
   -0.3694   -0.0162   -2.3095 H   0  0  0  0  0  0  0  0  0  0  0  0
    1.0599    0.8990   -1.8335 H   0  0  0  0  0  0  0  0  0  0  0  0
  1 11  1  0  0  0  0
  2  1  1  0  0  0  0
  2  3  1  0  0  0  0
  2  5  1  1  0  0  0
  3 12  1  0  0  0  0
  3  4  1  0  0  0  0
  5  4  1  0  0  0  0
  5 14  1  1  0  0  0
  6  5  1  0  0  0  0
  6 16  1  0  0  0  0
  7 18  1  0  0  0  0
  7  6  1  0  0  0  0
  8  7  1  0  0  0  0
  8  2  1  0  0  0  0
  9  1  1  0  0  0  0
 10  1  1  0  0  0  0
 13  3  1  0  0  0  0
 15  6  1  0  0  0  0
 17  7  1  0  0  0  0
 19  8  1  0  0  0  0
 20  8  1  0  0  0  0
M  END
