18
title
O 0.30083564 2.0129144 -0.42984217
C 0.3407205 0.6105741 -0.28971025
C 0.6916066 -0.21615846 -1.5585271
C -0.60130864 -1.054374 -1.354318
C -1.0550673 -0.08618093 -0.22242366
C -1.1057595 -0.6866887 1.1774163
O 0.25782123 -0.9596817 1.5008774
C 1.0078692 0.1494148 1.0261788
H 1.2009264 2.3287168 -0.566343
H 0.65126157 0.41219234 -2.4516568
H 1.6403238 -0.7600605 -1.5444518
H -1.2656409 -1.1147319 -2.2181928
H -0.40850902 -2.0654504 -0.9880638
H -1.898719 0.5584842 -0.46979055
H -1.5396063 0.027947238 1.8958902
H -1.6560135 -1.6296669 1.2438682
H 2.0478868 -0.17410643 0.9180058
H 0.96346784 0.9924701 1.7348537
