title
 OpenBabel02282110003D

 18 19  0  0  1  0  0  0  0  0999 V2000
   -0.6542    2.1164   -0.0440 C   0  0  0  0  0  0  0  0  0  0  0  0
   -0.3728    0.6340   -0.1365 C   0  0  2  0  0  0  0  0  0  0  0  0
   -1.5453   -0.3559    0.0885 C   0  0  0  0  0  0  0  0  0  0  0  0
   -0.8064   -1.0672    1.1060 O   0  0  0  0  0  0  0  0  0  0  0  0
    0.3053   -0.1453    1.0274 C   0  0  1  0  0  0  0  0  0  0  0  0
    1.5527   -0.7628    0.4099 C   0  0  0  0  0  0  0  0  0  0  0  0
    1.1851   -0.7920   -1.0823 C   0  0  0  0  0  0  0  0  0  0  0  0
    0.3975    0.3789   -1.3001 O   0  0  0  0  0  0  0  0  0  0  0  0
    0.2820    2.6813   -0.0128 H   0  0  0  0  0  0  0  0  0  0  0  0
   -1.2209    2.4506   -0.9191 H   0  0  0  0  0  0  0  0  0  0  0  0
   -1.2362    2.3486    0.8522 H   0  0  0  0  0  0  0  0  0  0  0  0
   -2.4641    0.0906    0.4889 H   0  0  0  0  0  0  0  0  0  0  0  0
   -1.7910   -0.9880   -0.7728 H   0  0  0  0  0  0  0  0  0  0  0  0
    0.4738    0.3705    1.9781 H   0  0  0  0  0  0  0  0  0  0  0  0
    2.4138   -0.1088    0.5852 H   0  0  0  0  0  0  0  0  0  0  0  0
    1.7710   -1.7509    0.8217 H   0  0  0  0  0  0  0  0  0  0  0  0
    2.0438   -0.7439   -1.7561 H   0  0  0  0  0  0  0  0  0  0  0  0
    0.6090   -1.6983   -1.3179 H   0  0  0  0  0  0  0  0  0  0  0  0
  1  9  1  0  0  0  0
  1 11  1  0  0  0  0
  2  1  1  0  0  0  0
  2  3  1  0  0  0  0
  2  5  1  1  0  0  0
  3 12  1  0  0  0  0
  3  4  1  0  0  0  0
  5  4  1  0  0  0  0
  5 14  1  1  0  0  0
  6 15  1  0  0  0  0
  6 16  1  0  0  0  0
  6  5  1  0  0  0  0
  7  6  1  0  0  0  0
  8  7  1  0  0  0  0
  8  2  1  0  0  0  0
 10  1  1  0  0  0  0
 13  3  1  0  0  0  0
 17  7  1  0  0  0  0
 18  7  1  0  0  0  0
M  END
