18
title
C -0.57236284 2.0865781 -0.15231788
C -0.4811671 0.5708301 -0.1761531
C -1.7025224 -0.2662309 0.26217312
O -0.88470775 -1.0757636 1.1342201
C 0.23909856 -0.17708068 0.97406983
C 1.4882773 -0.8152514 0.3513237
O 1.5889763 -0.26744333 -0.9600705
C 0.26789853 0.006009298 -1.4045712
H 0.4159493 2.5342977 -0.30259043
H -1.2290027 2.4557822 -0.9484772
H -0.96712524 2.4502177 0.8018464
H -2.452269 0.30349675 0.8273878
H -2.2082958 -0.8626266 -0.50665337
H 0.43613395 0.38266012 1.895579
H 2.4158032 -0.5783747 0.87975955
H 1.3550733 -1.9072435 0.3260881
H -0.21795498 -0.9133521 -1.7693945
H 0.3387057 0.7147669 -2.2342124
