title
 OpenBabel02282110003D

 20 21  0  0  1  0  0  0  0  0999 V2000
    0.3244    1.9497   -0.6248 O   0  0  0  0  0  0  0  0  0  0  0  0
    0.3629    0.5763   -0.2904 C   0  0  2  0  0  0  0  0  0  0  0  0
    0.7459   -0.3870   -1.4553 C   0  0  0  0  0  0  0  0  0  0  0  0
   -0.6225   -1.1099   -1.3038 C   0  0  0  0  0  0  0  0  0  0  0  0
   -1.0535   -0.0858   -0.2110 C   0  0  1  0  0  0  0  0  0  0  0  0
   -1.1989   -0.6378    1.2120 C   0  0  0  0  0  0  0  0  0  0  0  0
    0.2542   -0.8945    1.6648 C   0  0  0  0  0  0  0  0  0  0  0  0
    1.0334    0.2935    1.0681 C   0  0  0  0  0  0  0  0  0  0  0  0
    1.2323    2.2680   -0.6795 H   0  0  0  0  0  0  0  0  0  0  0  0
    0.8502    0.1532   -2.3991 H   0  0  0  0  0  0  0  0  0  0  0  0
    1.6373   -1.0018   -1.2976 H   0  0  0  0  0  0  0  0  0  0  0  0
   -1.2436   -1.1127   -2.2018 H   0  0  0  0  0  0  0  0  0  0  0  0
   -0.5501   -2.1387   -0.9398 H   0  0  0  0  0  0  0  0  0  0  0  0
   -1.8698    0.5710   -0.5152 H   0  0  0  0  0  0  0  0  0  0  0  0
   -1.6587    0.1190    1.8591 H   0  0  0  0  0  0  0  0  0  0  0  0
   -1.8271   -1.5335    1.2604 H   0  0  0  0  0  0  0  0  0  0  0  0
    0.3591   -0.9680    2.7509 H   0  0  0  0  0  0  0  0  0  0  0  0
    0.6211   -1.8388    1.2448 H   0  0  0  0  0  0  0  0  0  0  0  0
    2.1102    0.1077    0.9867 H   0  0  0  0  0  0  0  0  0  0  0  0
    0.8906    1.1827    1.6933 H   0  0  0  0  0  0  0  0  0  0  0  0
  1  2  1  0  0  0  0
  2  5  1  1  0  0  0
  2  8  1  0  0  0  0
  3  4  1  0  0  0  0
  3 11  1  0  0  0  0
  3  2  1  0  0  0  0
  4 13  1  0  0  0  0
  4  5  1  0  0  0  0
  5 14  1  6  0  0  0
  5  6  1  0  0  0  0
  6 16  1  0  0  0  0
  6  7  1  0  0  0  0
  6 15  1  0  0  0  0
  7 17  1  0  0  0  0
  8  7  1  0  0  0  0
  8 20  1  0  0  0  0
  9  1  1  0  0  0  0
 10  3  1  0  0  0  0
 12  4  1  0  0  0  0
 18  7  1  0  0  0  0
 19  8  1  0  0  0  0
M  END
