18
title
C -0.22140093 2.1953192 -0.31337652
C -0.13027984 0.68401027 -0.2890594
C -1.4504669 -0.079044394 -0.42067406
C -1.133258 -1.4165144 0.2634676
O -0.22777246 -1.0948058 1.3230718
C 0.59768105 -0.041395057 0.88086486
C 1.657196 -0.40010738 -0.18058755
O 0.8653873 0.18940036 -1.2343969
H 0.7639667 2.6461673 -0.16320337
H -0.60403585 2.5395622 -1.2798618
H -0.8941057 2.5578485 0.47070873
H -2.2439682 0.4510608 0.1162335
H -1.7453936 -0.19146304 -1.4667401
H -2.0008838 -1.9083173 0.70918
H -0.66586643 -2.1118772 -0.4480186
H 0.93080205 0.52640724 1.7511519
H 2.6234326 0.10691149 -0.06336051
H 1.8247714 -1.473444 -0.3261669
