18
title
C -0.33988994 2.1985388 -0.09945001
C -0.11294422 0.7053632 -0.20454863
C -1.3725362 -0.14018488 -0.4295369
O -1.0705436 -1.4371337 0.068569615
C -0.28097397 -1.2451366 1.2368878
C 0.6499866 -0.08036065 0.9068976
C 1.684866 -0.34945166 -0.20130125
O 0.91440284 0.3802777 -1.1773281
H 0.60289305 2.7187223 0.08935507
H -0.7562609 2.5874677 -1.0351896
H -1.0390707 2.4341388 0.70944625
H -2.2268066 0.29835945 0.11362557
H -1.6263967 -0.22944218 -1.4885778
H -0.9157612 -0.99461746 2.1036305
H 0.23662217 -2.1855757 1.4474996
H 0.9993864 0.47446406 1.7778908
H 2.6728194 0.10069597 -0.044760827
H 1.8080151 -1.4031786 -0.48011592
