20
title
C -0.5749151 2.177187 -0.18472354
C -0.3609398 0.6728125 -0.21516666
C -1.5503385 -0.19994156 0.2537985
O -0.75423807 -0.8429641 1.2687658
C 0.3943945 -0.013663041 0.967728
C 1.5483588 -0.81473964 0.3755205
C 1.075311 -1.132596 -1.0564417
C 0.3355194 0.15037419 -1.4879069
H 0.37431285 2.713457 -0.29569128
H -1.2311699 2.4994016 -1.0019473
H -1.0349412 2.497603 0.7559336
H -2.3887272 0.36154988 0.68807054
H -1.945853 -0.9182841 -0.47657102
H 0.6716902 0.6077499 1.8274292
H 2.4473386 -0.18481515 0.3542172
H 1.7763585 -1.7032888 0.9712367
H 1.8928422 -1.3979483 -1.7318887
H 0.38340667 -1.9810951 -1.0329638
H -0.36937135 -0.016164888 -2.309516
H 1.0598575 0.8989682 -1.8334931
