title
 OpenBabel02282110003D

 18 19  0  0  1  0  0  0  0  0999 V2000
    0.4201    1.9224   -0.6734 O   0  0  0  0  0  0  0  0  0  0  0  0
    0.4226    0.5591   -0.3126 C   0  0  2  0  0  0  0  0  0  0  0  0
    0.7848   -0.4521   -1.4453 C   0  0  0  0  0  0  0  0  0  0  0  0
   -0.5962   -1.1459   -1.2648 C   0  0  0  0  0  0  0  0  0  0  0  0
   -1.0000   -0.0686   -0.2120 C   0  0  1  0  0  0  0  0  0  0  0  0
   -1.1971   -0.5210    1.1118 O   0  0  0  0  0  0  0  0  0  0  0  0
    0.0888   -0.7923    1.6627 C   0  0  0  0  0  0  0  0  0  0  0  0
    1.0225    0.2806    1.0787 C   0  0  0  0  0  0  0  0  0  0  0  0
    1.3346    2.2100   -0.7677 H   0  0  0  0  0  0  0  0  0  0  0  0
    0.8949    0.0538   -2.4068 H   0  0  0  0  0  0  0  0  0  0  0  0
    1.6659   -1.0755   -1.2687 H   0  0  0  0  0  0  0  0  0  0  0  0
   -1.2245   -1.1705   -2.1572 H   0  0  0  0  0  0  0  0  0  0  0  0
   -0.5546   -2.1532   -0.8446 H   0  0  0  0  0  0  0  0  0  0  0  0
   -1.8355    0.5763   -0.4888 H   0  0  0  0  0  0  0  0  0  0  0  0
    0.0010   -0.7529    2.7513 H   0  0  0  0  0  0  0  0  0  0  0  0
    0.4284   -1.8034    1.3872 H   0  0  0  0  0  0  0  0  0  0  0  0
    2.0689   -0.0377    1.0528 H   0  0  0  0  0  0  0  0  0  0  0  0
    0.9467    1.2033    1.6615 H   0  0  0  0  0  0  0  0  0  0  0  0
  1  2  1  0  0  0  0
  2  5  1  1  0  0  0
  2  8  1  0  0  0  0
  3 11  1  0  0  0  0
  3  4  1  0  0  0  0
  3  2  1  0  0  0  0
  4 13  1  0  0  0  0
  4  5  1  0  0  0  0
  5 14  1  6  0  0  0
  5  6  1  0  0  0  0
  6  7  1  0  0  0  0
  7 15  1  0  0  0  0
  8 18  1  0  0  0  0
  8  7  1  0  0  0  0
  9  1  1  0  0  0  0
 10  3  1  0  0  0  0
 12  4  1  0  0  0  0
 16  7  1  0  0  0  0
 17  8  1  0  0  0  0
M  END
