18
title
O 0.49900052 1.9384538 -0.35886595
C 0.40301302 0.5389191 -0.27547377
C 0.50977975 -0.15698992 -1.6398491
O -0.66035193 -0.95531744 -1.3579756
C -0.9969123 -0.14206706 -0.20304447
C -1.0961497 -0.9240846 1.1146053
C 0.107011415 -0.42156225 1.94762
C 1.1858747 -0.09506576 0.8953422
H 0.46055463 2.304368 0.5309333
H 0.34443724 0.53649044 -2.4737904
H 1.3962063 -0.77044696 -1.8365809
H -1.8513193 0.5114592 -0.4134321
H -2.050545 -0.7827112 1.6287451
H -0.99313575 -1.9896452 0.88670367
H -0.17312506 0.48922557 2.4936347
H 0.44288602 -1.1444994 2.6957967
H 1.6685588 -1.0212677 0.5655093
H 1.9745513 0.571607 1.2569194
