title
 OpenBabel02282110003D

 18 19  0  0  1  0  0  0  0  0999 V2000
    0.4990    1.9385   -0.3589 O   0  0  0  0  0  0  0  0  0  0  0  0
    0.4030    0.5389   -0.2755 C   0  0  2  0  0  0  0  0  0  0  0  0
    0.5098   -0.1570   -1.6398 C   0  0  0  0  0  0  0  0  0  0  0  0
   -0.6604   -0.9553   -1.3580 O   0  0  0  0  0  0  0  0  0  0  0  0
   -0.9969   -0.1421   -0.2030 C   0  0  1  0  0  0  0  0  0  0  0  0
   -1.0961   -0.9241    1.1146 C   0  0  0  0  0  0  0  0  0  0  0  0
    0.1070   -0.4216    1.9476 C   0  0  0  0  0  0  0  0  0  0  0  0
    1.1859   -0.0951    0.8953 C   0  0  0  0  0  0  0  0  0  0  0  0
    0.4606    2.3044    0.5309 H   0  0  0  0  0  0  0  0  0  0  0  0
    0.3444    0.5365   -2.4738 H   0  0  0  0  0  0  0  0  0  0  0  0
    1.3962   -0.7704   -1.8366 H   0  0  0  0  0  0  0  0  0  0  0  0
   -1.8513    0.5115   -0.4134 H   0  0  0  0  0  0  0  0  0  0  0  0
   -2.0505   -0.7827    1.6287 H   0  0  0  0  0  0  0  0  0  0  0  0
   -0.9931   -1.9896    0.8867 H   0  0  0  0  0  0  0  0  0  0  0  0
   -0.1731    0.4892    2.4936 H   0  0  0  0  0  0  0  0  0  0  0  0
    0.4429   -1.1445    2.6958 H   0  0  0  0  0  0  0  0  0  0  0  0
    1.6686   -1.0213    0.5655 H   0  0  0  0  0  0  0  0  0  0  0  0
    1.9746    0.5716    1.2569 H   0  0  0  0  0  0  0  0  0  0  0  0
  1  2  1  0  0  0  0
  1  9  1  0  0  0  0
  2  5  1  1  0  0  0
  2  8  1  0  0  0  0
  3  4  1  0  0  0  0
  3  2  1  0  0  0  0
  4  5  1  0  0  0  0
  5 12  1  6  0  0  0
  5  6  1  0  0  0  0
  6 13  1  0  0  0  0
  6  7  1  0  0  0  0
  7 15  1  0  0  0  0
  7 16  1  0  0  0  0
  8 18  1  0  0  0  0
  8  7  1  0  0  0  0
 10  3  1  0  0  0  0
 11  3  1  0  0  0  0
 14  6  1  0  0  0  0
 17  8  1  0  0  0  0
M  END
