title
 OpenBabel02282110003D

 18 19  0  0  1  0  0  0  0  0999 V2000
    0.3008    2.0129   -0.4298 O   0  0  0  0  0  0  0  0  0  0  0  0
    0.3407    0.6106   -0.2897 C   0  0  2  0  0  0  0  0  0  0  0  0
    0.6916   -0.2162   -1.5585 C   0  0  0  0  0  0  0  0  0  0  0  0
   -0.6013   -1.0544   -1.3543 C   0  0  0  0  0  0  0  0  0  0  0  0
   -1.0551   -0.0862   -0.2224 C   0  0  1  0  0  0  0  0  0  0  0  0
   -1.1058   -0.6867    1.1774 C   0  0  0  0  0  0  0  0  0  0  0  0
    0.2578   -0.9597    1.5009 O   0  0  0  0  0  0  0  0  0  0  0  0
    1.0079    0.1494    1.0262 C   0  0  0  0  0  0  0  0  0  0  0  0
    1.2009    2.3287   -0.5663 H   0  0  0  0  0  0  0  0  0  0  0  0
    0.6513    0.4122   -2.4517 H   0  0  0  0  0  0  0  0  0  0  0  0
    1.6403   -0.7601   -1.5445 H   0  0  0  0  0  0  0  0  0  0  0  0
   -1.2656   -1.1147   -2.2182 H   0  0  0  0  0  0  0  0  0  0  0  0
   -0.4085   -2.0655   -0.9881 H   0  0  0  0  0  0  0  0  0  0  0  0
   -1.8987    0.5585   -0.4698 H   0  0  0  0  0  0  0  0  0  0  0  0
   -1.5396    0.0279    1.8959 H   0  0  0  0  0  0  0  0  0  0  0  0
   -1.6560   -1.6297    1.2439 H   0  0  0  0  0  0  0  0  0  0  0  0
    2.0479   -0.1741    0.9180 H   0  0  0  0  0  0  0  0  0  0  0  0
    0.9635    0.9925    1.7349 H   0  0  0  0  0  0  0  0  0  0  0  0
  1  2  1  0  0  0  0
  2  5  1  1  0  0  0
  2  8  1  0  0  0  0
  3 11  1  0  0  0  0
  3  4  1  0  0  0  0
  3  2  1  0  0  0  0
  4 13  1  0  0  0  0
  4  5  1  0  0  0  0
  5 14  1  6  0  0  0
  5  6  1  0  0  0  0
  6 16  1  0  0  0  0
  6  7  1  0  0  0  0
  6 15  1  0  0  0  0
  8  7  1  0  0  0  0
  8 18  1  0  0  0  0
  9  1  1  0  0  0  0
 10  3  1  0  0  0  0
 12  4  1  0  0  0  0
 17  8  1  0  0  0  0
M  END
