title
 OpenBabel02282110003D

 20 21  0  0  1  0  0  0  0  0999 V2000
   -1.2245    1.6895   -0.7303 C   0  0  0  0  0  0  0  0  0  0  0  0
   -1.0795    0.1860   -0.6763 C   0  0  1  0  0  0  0  0  0  0  0  0
    0.2157   -0.5694   -0.9800 C   0  0  1  0  0  0  0  0  0  0  0  0
    1.4933    0.1870   -0.8737 C   0  0  0  0  0  0  0  0  0  0  0  0
    1.7049    0.6343    0.3672 C   0  0  0  0  0  0  0  0  0  0  0  0
    0.6029    0.2089    1.3129 C   0  0  0  0  0  0  0  0  0  0  0  0
   -0.3807   -0.5741    0.4277 C   0  0  1  0  0  0  0  0  0  0  0  0
   -1.0418   -1.7944    1.0252 C   0  0  0  0  0  0  0  0  0  0  0  0
   -0.2945    2.2017   -0.4732 H   0  0  0  0  0  0  0  0  0  0  0  0
   -1.5149    2.0152   -1.7354 H   0  0  0  0  0  0  0  0  0  0  0  0
   -2.0010    2.0310   -0.0358 H   0  0  0  0  0  0  0  0  0  0  0  0
   -1.9589   -0.3381   -1.0476 H   0  0  0  0  0  0  0  0  0  0  0  0
    0.1558   -1.4365   -1.6309 H   0  0  0  0  0  0  0  0  0  0  0  0
    2.1447    0.3635   -1.7227 H   0  0  0  0  0  0  0  0  0  0  0  0
    2.5407    1.2491    0.6825 H   0  0  0  0  0  0  0  0  0  0  0  0
    0.9900   -0.4251    2.1231 H   0  0  0  0  0  0  0  0  0  0  0  0
    0.1288    1.0694    1.8048 H   0  0  0  0  0  0  0  0  0  0  0  0
   -1.7067   -1.5230    1.8545 H   0  0  0  0  0  0  0  0  0  0  0  0
   -1.6449   -2.3251    0.2814 H   0  0  0  0  0  0  0  0  0  0  0  0
   -0.2981   -2.4991    1.4162 H   0  0  0  0  0  0  0  0  0  0  0  0
  1  2  1  0  0  0  0
  1  9  1  0  0  0  0
  1 11  1  0  0  0  0
  2  3  1  6  0  0  0
  3  4  1  0  0  0  0
  3  7  1  1  0  0  0
  4  5  2  0  0  0  0
  5 15  1  0  0  0  0
  5  6  1  0  0  0  0
  6 17  1  0  0  0  0
  6 16  1  0  0  0  0
  7  2  1  6  0  0  0
  7  8  1  0  0  0  0
  7  6  1  0  0  0  0
  8 20  1  0  0  0  0
  8 18  1  0  0  0  0
 10  1  1  0  0  0  0
 12  2  1  0  0  0  0
 13  3  1  0  0  0  0
 14  4  1  0  0  0  0
 19  8  1  0  0  0  0
M  END
