title
 OpenBabel02282110003D

 18 19  0  0  1  0  0  0  0  0999 V2000
   -1.2488    1.6843   -0.7722 C   0  0  0  0  0  0  0  0  0  0  0  0
   -1.0840    0.1850   -0.6825 C   0  0  1  0  0  0  0  0  0  0  0  0
    0.2254   -0.5683   -0.9716 C   0  0  1  0  0  0  0  0  0  0  0  0
    1.5018    0.1927   -0.8777 C   0  0  0  0  0  0  0  0  0  0  0  0
    1.7178    0.6494    0.3598 C   0  0  0  0  0  0  0  0  0  0  0  0
    0.6179    0.2347    1.3126 C   0  0  0  0  0  0  0  0  0  0  0  0
   -0.3645   -0.5410    0.4247 C   0  0  1  0  0  0  0  0  0  0  0  0
   -0.9287   -1.7076    0.9505 O   0  0  0  0  0  0  0  0  0  0  0  0
   -0.3268    2.2109   -0.5143 H   0  0  0  0  0  0  0  0  0  0  0  0
   -1.5280    1.9839   -1.7883 H   0  0  0  0  0  0  0  0  0  0  0  0
   -2.0380    2.0348   -0.0967 H   0  0  0  0  0  0  0  0  0  0  0  0
   -1.9465   -0.3803   -1.0305 H   0  0  0  0  0  0  0  0  0  0  0  0
    0.1578   -1.4557   -1.5910 H   0  0  0  0  0  0  0  0  0  0  0  0
    2.1538    0.3565   -1.7284 H   0  0  0  0  0  0  0  0  0  0  0  0
    2.5632    1.2527    0.6710 H   0  0  0  0  0  0  0  0  0  0  0  0
    0.9899   -0.4258    2.1068 H   0  0  0  0  0  0  0  0  0  0  0  0
    0.1528    1.0965    1.8099 H   0  0  0  0  0  0  0  0  0  0  0  0
   -1.7091   -1.4589    1.4576 H   0  0  0  0  0  0  0  0  0  0  0  0
  1  2  1  0  0  0  0
  1  9  1  0  0  0  0
  1 11  1  0  0  0  0
  2  3  1  6  0  0  0
  3  4  1  0  0  0  0
  3  7  1  1  0  0  0
  4  5  2  0  0  0  0
  5 15  1  0  0  0  0
  5  6  1  0  0  0  0
  6 17  1  0  0  0  0
  6 16  1  0  0  0  0
  7  2  1  6  0  0  0
  7  8  1  0  0  0  0
  7  6  1  0  0  0  0
  8 18  1  0  0  0  0
 10  1  1  0  0  0  0
 12  2  1  0  0  0  0
 13  3  1  0  0  0  0
 14  4  1  0  0  0  0
M  END
