title
 OpenBabel02282110003D

 18 19  0  0  1  0  0  0  0  0999 V2000
   -1.4145    1.6693    0.4556 C   0  0  0  0  0  0  0  0  0  0  0  0
   -1.2258    0.1721    0.3673 C   0  0  1  0  0  0  0  0  0  0  0  0
   -0.5718   -0.5449   -0.8044 C   0  0  1  0  0  0  0  0  0  0  0  0
    0.3438    0.2333   -1.7487 C   0  0  0  0  0  0  0  0  0  0  0  0
    1.4914    0.6701   -0.8603 C   0  0  0  0  0  0  0  0  0  0  0  0
    1.3515    0.2252    0.3902 C   0  0  0  0  0  0  0  0  0  0  0  0
    0.0909   -0.5598    0.5616 C   0  0  1  0  0  0  0  0  0  0  0  0
    0.1245   -1.7307    1.3256 O   0  0  0  0  0  0  0  0  0  0  0  0
   -0.5249    2.2123    0.1271 H   0  0  0  0  0  0  0  0  0  0  0  0
   -2.2565    1.9927   -0.1669 H   0  0  0  0  0  0  0  0  0  0  0  0
   -1.6288    1.9776    1.4851 H   0  0  0  0  0  0  0  0  0  0  0  0
   -2.0599   -0.4024    0.7670 H   0  0  0  0  0  0  0  0  0  0  0  0
   -1.0629   -1.4398   -1.1673 H   0  0  0  0  0  0  0  0  0  0  0  0
    0.6928   -0.3920   -2.5806 H   0  0  0  0  0  0  0  0  0  0  0  0
   -0.1625    1.0941   -2.2061 H   0  0  0  0  0  0  0  0  0  0  0  0
    2.2984    1.2999   -1.2183 H   0  0  0  0  0  0  0  0  0  0  0  0
    2.0390    0.4015    1.2102 H   0  0  0  0  0  0  0  0  0  0  0  0
   -0.0914   -1.5000    2.2351 H   0  0  0  0  0  0  0  0  0  0  0  0
  1 11  1  0  0  0  0
  2  3  1  6  0  0  0
  2  1  1  0  0  0  0
  2 12  1  0  0  0  0
  3  7  1  1  0  0  0
  4  5  1  0  0  0  0
  4  3  1  0  0  0  0
  5  6  2  0  0  0  0
  6  7  1  0  0  0  0
  6 17  1  0  0  0  0
  7  2  1  1  0  0  0
  7  8  1  0  0  0  0
  8 18  1  0  0  0  0
  9  1  1  0  0  0  0
 10  1  1  0  0  0  0
 13  3  1  0  0  0  0
 14  4  1  0  0  0  0
 15  4  1  0  0  0  0
 16  5  1  0  0  0  0
M  END
