title
 OpenBabel02282110003D

 20 21  0  0  1  0  0  0  0  0999 V2000
   -1.2310    1.6896   -0.7302 C   0  0  0  0  0  0  0  0  0  0  0  0
   -1.0653    0.1872   -0.6965 C   0  0  1  0  0  0  0  0  0  0  0  0
    0.2390   -0.5312   -0.9678 C   0  0  1  0  0  0  0  0  0  0  0  0
    1.5571    0.2363   -0.8490 C   0  0  0  0  0  0  0  0  0  0  0  0
    1.6034    0.6424    0.6094 C   0  0  0  0  0  0  0  0  0  0  0  0
    0.5518    0.1776    1.2875 C   0  0  0  0  0  0  0  0  0  0  0  0
   -0.3900   -0.5995    0.4240 C   0  0  1  0  0  0  0  0  0  0  0  0
   -1.0560   -1.8327    0.9909 C   0  0  0  0  0  0  0  0  0  0  0  0
   -0.4059    2.2059   -0.2342 H   0  0  0  0  0  0  0  0  0  0  0  0
   -1.2825    2.0513   -1.7638 H   0  0  0  0  0  0  0  0  0  0  0  0
   -2.1585    1.9904   -0.2299 H   0  0  0  0  0  0  0  0  0  0  0  0
   -1.9240   -0.3411   -1.1085 H   0  0  0  0  0  0  0  0  0  0  0  0
    0.2072   -1.3941   -1.6245 H   0  0  0  0  0  0  0  0  0  0  0  0
    2.4142   -0.3950   -1.1191 H   0  0  0  0  0  0  0  0  0  0  0  0
    1.6007    1.1078   -1.5169 H   0  0  0  0  0  0  0  0  0  0  0  0
    2.3921    1.2641    1.0190 H   0  0  0  0  0  0  0  0  0  0  0  0
    0.3659    0.3393    2.3444 H   0  0  0  0  0  0  0  0  0  0  0  0
   -1.7404   -1.5764    1.8088 H   0  0  0  0  0  0  0  0  0  0  0  0
   -1.6407   -2.3526    0.2253 H   0  0  0  0  0  0  0  0  0  0  0  0
   -0.3178   -2.5401    1.3862 H   0  0  0  0  0  0  0  0  0  0  0  0
  1  2  1  0  0  0  0
  1  9  1  0  0  0  0
  1 11  1  0  0  0  0
  2  3  1  6  0  0  0
  3  4  1  0  0  0  0
  3  7  1  1  0  0  0
  4  5  1  0  0  0  0
  5 16  1  0  0  0  0
  5  6  2  0  0  0  0
  6 17  1  0  0  0  0
  7  2  1  6  0  0  0
  7  8  1  0  0  0  0
  7  6  1  0  0  0  0
  8 20  1  0  0  0  0
  8 18  1  0  0  0  0
 10  1  1  0  0  0  0
 12  2  1  0  0  0  0
 13  3  1  0  0  0  0
 14  4  1  0  0  0  0
 15  4  1  0  0  0  0
 19  8  1  0  0  0  0
M  END
