title
 OpenBabel02282110003D

 18 19  0  0  1  0  0  0  0  0999 V2000
   -0.1151    2.3324   -0.1382 C   0  0  0  0  0  0  0  0  0  0  0  0
   -0.0940    0.8236   -0.1129 C   0  0  2  0  0  0  0  0  0  0  0  0
   -1.3936    0.0617   -0.4099 C   0  0  0  0  0  0  0  0  0  0  0  0
   -1.3431   -1.1474    0.4997 C   0  0  0  0  0  0  0  0  0  0  0  0
   -0.2540   -1.1404    1.2780 C   0  0  0  0  0  0  0  0  0  0  0  0
    0.6331    0.0167    0.9831 C   0  0  1  0  0  0  0  0  0  0  0  0
    1.1682    0.0716   -0.4423 C   0  0  1  0  0  0  0  0  0  0  0  0
    1.1964   -1.0346   -1.2872 O   0  0  0  0  0  0  0  0  0  0  0  0
    0.8660    2.7483    0.1137 H   0  0  0  0  0  0  0  0  0  0  0  0
   -0.3864    2.7085   -1.1320 H   0  0  0  0  0  0  0  0  0  0  0  0
   -0.8401    2.7352    0.5792 H   0  0  0  0  0  0  0  0  0  0  0  0
   -2.2782    0.6803   -0.2072 H   0  0  0  0  0  0  0  0  0  0  0  0
   -1.4508   -0.2268   -1.4684 H   0  0  0  0  0  0  0  0  0  0  0  0
   -2.1088   -1.9154    0.4958 H   0  0  0  0  0  0  0  0  0  0  0  0
   -0.0069   -1.8958    2.0158 H   0  0  0  0  0  0  0  0  0  0  0  0
    1.2041    0.4867    1.7775 H   0  0  0  0  0  0  0  0  0  0  0  0
    2.0604    0.6742   -0.5883 H   0  0  0  0  0  0  0  0  0  0  0  0
    0.6159   -1.7061   -0.9045 H   0  0  0  0  0  0  0  0  0  0  0  0
  1  2  1  0  0  0  0
  1  9  1  0  0  0  0
  1 11  1  0  0  0  0
  2  7  1  6  0  0  0
  2  6  1  0  0  0  0
  3 12  1  0  0  0  0
  3  2  1  0  0  0  0
  3  4  1  0  0  0  0
  4  5  2  0  0  0  0
  5 15  1  0  0  0  0
  6  7  1  6  0  0  0
  6  5  1  0  0  0  0
  6 16  1  0  0  0  0
  7 17  1  6  0  0  0
  8 18  1  0  0  0  0
  8  7  1  0  0  0  0
 10  1  1  0  0  0  0
 13  3  1  0  0  0  0
 14  4  1  0  0  0  0
M  END
