18
title
C -1.4144886 1.6692972 0.45555723
C -1.2257993 0.1721289 0.36733997
C -0.5718187 -0.54491913 -0.8044381
C 0.34384432 0.23330605 -1.7486556
C 1.4913766 0.67011404 -0.8602935
C 1.351507 0.22519569 0.39021003
C 0.09088566 -0.55980146 0.5616326
O 0.12450614 -1.7307394 1.3256205
H -0.5248897 2.2122674 0.12711139
H -2.2565045 1.9926858 -0.1668897
H -1.6287732 1.9776096 1.485123
H -2.059898 -0.40241456 0.7669843
H -1.0628844 -1.4398339 -1.1673443
H 0.6928203 -0.39195704 -2.5805552
H -0.1624993 1.0940946 -2.2061446
H 2.298385 1.2999125 -1.2182703
H 2.038967 0.40145504 1.2101529
H -0.09144483 -1.5000441 2.235143
