title
 OpenBabel02282110003D

 15 16  0  0  1  0  0  0  0  0999 V2000
   -0.1111    2.3140   -0.1316 C   0  0  0  0  0  0  0  0  0  0  0  0
   -0.0264    0.8199   -0.0700 C   0  0  2  0  0  0  0  0  0  0  0  0
   -1.2670    0.1628   -0.3208 O   0  0  0  0  0  0  0  0  0  0  0  0
   -1.2597   -0.9559    0.4377 C   0  0  0  0  0  0  0  0  0  0  0  0
   -0.2746   -1.1692    1.2178 N   0  0  0  0  0  0  0  0  0  0  0  0
    0.6487   -0.0857    0.9739 C   0  0  1  0  0  0  0  0  0  0  0  0
    1.1832    0.0022   -0.4469 C   0  0  1  0  0  0  0  0  0  0  0  0
    1.0524   -1.0558   -1.3365 O   0  0  0  0  0  0  0  0  0  0  0  0
    0.8676    2.7528    0.0814 H   0  0  0  0  0  0  0  0  0  0  0  0
   -0.4211    2.6458   -1.1278 H   0  0  0  0  0  0  0  0  0  0  0  0
   -0.8278    2.6993    0.6003 H   0  0  0  0  0  0  0  0  0  0  0  0
   -2.1308   -1.5892    0.3247 H   0  0  0  0  0  0  0  0  0  0  0  0
    1.2500    0.2496    1.8113 H   0  0  0  0  0  0  0  0  0  0  0  0
    2.1020    0.5787   -0.5516 H   0  0  0  0  0  0  0  0  0  0  0  0
    1.1998   -1.8753   -0.8503 H   0  0  0  0  0  0  0  0  0  0  0  0
  1  2  1  0  0  0  0
  1  9  1  0  0  0  0
  1 11  1  0  0  0  0
  2  7  1  6  0  0  0
  2  6  1  0  0  0  0
  3  2  1  0  0  0  0
  3  4  1  0  0  0  0
  4  5  2  0  0  0  0
  6  7  1  6  0  0  0
  6  5  1  0  0  0  0
  6 13  1  0  0  0  0
  7 14  1  6  0  0  0
  8 15  1  0  0  0  0
  8  7  1  0  0  0  0
 10  1  1  0  0  0  0
 12  4  1  0  0  0  0
M  END
