20
title
C 0.1740277 2.346475 -0.28738308
C 0.006448229 0.8507312 -0.14787522
C -1.4085346 0.2847164 -0.26336133
C -1.4087939 -1.0787652 0.46612966
C -0.22400531 -1.0215794 1.4623483
C 0.7355566 0.02290819 0.9097582
C 1.1359303 -0.055343766 -0.5481579
O 0.876988 -1.1771604 -1.3482502
H 1.2158568 2.650467 -0.14399946
H -0.13575444 2.689502 -1.2819537
H -0.43365496 2.88288 0.4511875
H -2.0937533 0.987715 0.2267861
H -1.73723 0.19134717 -1.3037999
H -2.3586977 -1.2728658 0.97261834
H -1.2484108 -1.8804123 -0.25499746
H -0.56166995 -0.69583184 2.453308
H 0.24192141 -2.0047042 1.5990793
H 1.4394466 0.48632213 1.5953213
H 2.0667965 0.4545273 -0.802793
H 1.4746013 -1.8809717 -1.0746032
