title
 OpenBabel02282110003D

 18 19  0  0  1  0  0  0  0  0999 V2000
   -0.1491    2.3888   -0.1001 C   0  0  0  0  0  0  0  0  0  0  0  0
   -0.0828    0.8819   -0.0864 C   0  0  2  0  0  0  0  0  0  0  0  0
   -1.3457    0.0964   -0.4035 C   0  0  0  0  0  0  0  0  0  0  0  0
   -1.1374   -1.2246    0.1069 O   0  0  0  0  0  0  0  0  0  0  0  0
   -0.3065   -1.1198    1.2717 C   0  0  0  0  0  0  0  0  0  0  0  0
    0.6026    0.0638    1.0120 C   0  0  1  0  0  0  0  0  0  0  0  0
    1.1968    0.1324   -0.3752 C   0  0  1  0  0  0  0  0  0  0  0  0
    1.2825   -0.9675   -1.2294 O   0  0  0  0  0  0  0  0  0  0  0  0
    0.8086    2.8275    0.1956 H   0  0  0  0  0  0  0  0  0  0  0  0
   -0.3890    2.7690   -1.1000 H   0  0  0  0  0  0  0  0  0  0  0  0
   -0.9138    2.7631    0.5915 H   0  0  0  0  0  0  0  0  0  0  0  0
   -2.2177    0.5705    0.0745 H   0  0  0  0  0  0  0  0  0  0  0  0
   -1.5516   -0.0051   -1.4746 H   0  0  0  0  0  0  0  0  0  0  0  0
   -0.9144   -0.9565    2.1744 H   0  0  0  0  0  0  0  0  0  0  0  0
    0.2154   -2.0770    1.3737 H   0  0  0  0  0  0  0  0  0  0  0  0
    1.1012    0.5332    1.8534 H   0  0  0  0  0  0  0  0  0  0  0  0
    2.0868    0.7453   -0.4822 H   0  0  0  0  0  0  0  0  0  0  0  0
    0.4798   -1.4927   -1.1014 H   0  0  0  0  0  0  0  0  0  0  0  0
  1  2  1  0  0  0  0
  1  9  1  0  0  0  0
  1 11  1  0  0  0  0
  2  7  1  6  0  0  0
  2  6  1  0  0  0  0
  3  2  1  0  0  0  0
  3 12  1  0  0  0  0
  3  4  1  0  0  0  0
  4  5  1  0  0  0  0
  5 15  1  0  0  0  0
  5 14  1  0  0  0  0
  6  7  1  6  0  0  0
  6  5  1  0  0  0  0
  6 16  1  0  0  0  0
  7 17  1  6  0  0  0
  8 18  1  0  0  0  0
  8  7  1  0  0  0  0
 10  1  1  0  0  0  0
 13  3  1  0  0  0  0
M  END
