title
 OpenBabel02282110003D

 17 18  0  0  1  0  0  0  0  0999 V2000
   -1.2024    1.6954   -0.7380 C   0  0  0  0  0  0  0  0  0  0  0  0
   -1.0574    0.1923   -0.6855 C   0  0  1  0  0  0  0  0  0  0  0  0
    0.2298   -0.5395   -0.9589 C   0  0  1  0  0  0  0  0  0  0  0  0
    1.4337    0.2070   -0.8173 O   0  0  0  0  0  0  0  0  0  0  0  0
    1.4704    0.5660    0.4925 C   0  0  0  0  0  0  0  0  0  0  0  0
    0.5407    0.1745    1.2656 N   0  0  0  0  0  0  0  0  0  0  0  0
   -0.3813   -0.5859    0.4406 C   0  0  1  0  0  0  0  0  0  0  0  0
   -1.0416   -1.7680    1.0987 C   0  0  0  0  0  0  0  0  0  0  0  0
   -0.3590    2.2090   -0.2722 H   0  0  0  0  0  0  0  0  0  0  0  0
   -1.2728    2.0408   -1.7748 H   0  0  0  0  0  0  0  0  0  0  0  0
   -2.1099    2.0113   -0.2138 H   0  0  0  0  0  0  0  0  0  0  0  0
   -1.9122   -0.3485   -1.0868 H   0  0  0  0  0  0  0  0  0  0  0  0
    0.3234   -1.3481   -1.6734 H   0  0  0  0  0  0  0  0  0  0  0  0
    2.3213    1.1755    0.7722 H   0  0  0  0  0  0  0  0  0  0  0  0
   -1.6959   -1.4377    1.9119 H   0  0  0  0  0  0  0  0  0  0  0  0
   -1.6476   -2.3271    0.3796 H   0  0  0  0  0  0  0  0  0  0  0  0
   -0.2947   -2.4470    1.5221 H   0  0  0  0  0  0  0  0  0  0  0  0
  1  2  1  0  0  0  0
  1  9  1  0  0  0  0
  1 11  1  0  0  0  0
  2  3  1  6  0  0  0
  3  4  1  0  0  0  0
  3  7  1  1  0  0  0
  4  5  1  0  0  0  0
  5 14  1  0  0  0  0
  5  6  2  0  0  0  0
  7  2  1  6  0  0  0
  7  8  1  0  0  0  0
  7  6  1  0  0  0  0
  8 17  1  0  0  0  0
  8 15  1  0  0  0  0
 10  1  1  0  0  0  0
 12  2  1  0  0  0  0
 13  3  1  0  0  0  0
 16  8  1  0  0  0  0
M  END
