20
title
C -1.2004851 1.8108077 -0.61425155
C -1.123031 0.2985764 -0.58174866
C 0.07129579 -0.55678713 -0.9945807
C 1.4690818 0.042579047 -1.0531476
C 1.729155 0.6760151 0.34254724
C 0.6965007 0.042595036 1.3084513
C -0.4024648 -0.55587494 0.43556398
O -1.0555694 -1.6913488 0.9344391
H -0.28530806 2.297916 -0.2739391
H -1.4000932 2.165739 -1.6318156
H -2.0174048 2.1711712 0.021740373
H -2.0557785 -0.17471652 -0.8834112
H -0.1463384 -1.410517 -1.6272956
H 2.18619 -0.7626972 -1.248169
H 1.5930628 0.77385837 -1.8595961
H 2.7540376 0.4980253 0.67988616
H 1.608483 1.7613403 0.3020826
H 1.1389889 -0.7887769 1.8676442
H 0.32438987 0.7640196 2.0456338
H -1.7222668 -1.3969324 1.5642112
