title
 OpenBabel02282110003D

 18 19  0  0  1  0  0  0  0  0999 V2000
   -0.1160    2.2840   -0.2388 C   0  0  0  0  0  0  0  0  0  0  0  0
    0.0126    0.7909   -0.1390 C   0  0  2  0  0  0  0  0  0  0  0  0
   -1.1444    0.0633   -0.5262 O   0  0  0  0  0  0  0  0  0  0  0  0
   -1.5410   -0.7730    0.5743 C   0  0  0  0  0  0  0  0  0  0  0  0
   -0.2440   -1.1470    1.3171 C   0  0  0  0  0  0  0  0  0  0  0  0
    0.6833    0.0158    0.9742 C   0  0  1  0  0  0  0  0  0  0  0  0
    1.2658    0.0109   -0.4387 C   0  0  1  0  0  0  0  0  0  0  0  0
    1.1806   -1.1253   -1.2357 O   0  0  0  0  0  0  0  0  0  0  0  0
    0.8266    2.7663    0.0372 H   0  0  0  0  0  0  0  0  0  0  0  0
   -0.3651    2.5865   -1.2613 H   0  0  0  0  0  0  0  0  0  0  0  0
   -0.9001    2.6581    0.4285 H   0  0  0  0  0  0  0  0  0  0  0  0
   -2.2231   -0.2137    1.2306 H   0  0  0  0  0  0  0  0  0  0  0  0
   -2.0821   -1.6277    0.1594 H   0  0  0  0  0  0  0  0  0  0  0  0
   -0.4042   -1.2371    2.3940 H   0  0  0  0  0  0  0  0  0  0  0  0
    0.1638   -2.0932    0.9484 H   0  0  0  0  0  0  0  0  0  0  0  0
    1.2283    0.5230    1.7623 H   0  0  0  0  0  0  0  0  0  0  0  0
    2.1915    0.5599   -0.5916 H   0  0  0  0  0  0  0  0  0  0  0  0
    0.2682   -1.1453   -1.5598 H   0  0  0  0  0  0  0  0  0  0  0  0
  1  2  1  0  0  0  0
  1  9  1  0  0  0  0
  1 11  1  0  0  0  0
  2  7  1  6  0  0  0
  2  6  1  0  0  0  0
  3  2  1  0  0  0  0
  3  4  1  0  0  0  0
  4 12  1  0  0  0  0
  4  5  1  0  0  0  0
  5 14  1  0  0  0  0
  6  7  1  6  0  0  0
  6  5  1  0  0  0  0
  6 16  1  0  0  0  0
  7 17  1  6  0  0  0
  8  7  1  0  0  0  0
 10  1  1  0  0  0  0
 13  4  1  0  0  0  0
 15  5  1  0  0  0  0
 18  8  1  0  0  0  0
M  END
