18
title
C -1.1653266 1.705203 -0.8822118
C -1.0390316 0.20131816 -0.8521793
C 0.30415967 -0.50637364 -0.94921154
O 1.4467033 0.28549358 -0.7050971
C 1.5808791 0.30806872 0.704613
O 0.27556732 0.24000622 1.2440844
C -0.46933427 -0.5604576 0.33494937
C -1.1186814 -1.7681279 0.94867456
H -1.1675845 2.0733683 -1.9133059
H -2.0984247 2.0250978 -0.40716678
H -0.33825353 2.1812031 -0.35437223
H -1.8390883 -0.33498895 -1.3603908
H 0.4667416 -1.354008 -1.6078511
H 2.1844487 -0.5518787 1.0450941
H 2.0492754 1.2488525 1.0074286
H -1.8645263 -1.4706353 1.6933353
H -1.6247382 -2.363481 0.18305802
H -0.376583 -2.402158 1.4451048
