16
title
O 1.2862941 1.4468386 -0.66116875
C 1.1301647 0.06357437 -0.57677895
C 0.69183916 -0.6605244 0.68285125
C -0.01403045 0.18491164 1.7217522
O -0.94176257 0.9977643 0.9827307
C -1.3907312 0.23824169 -0.14128785
C -0.20641756 -0.63101554 -0.54381037
O -0.46269 -1.7920978 -1.269125
H 0.58562505 1.8446922 -0.12502398
H 1.8990287 -0.44156045 -1.1534595
H 1.1985954 -1.5707011 0.9811762
H -0.54241514 -0.44915044 2.4487376
H 0.63943416 0.8722132 2.2679513
H -2.2411456 -0.4112319 0.114712045
H -1.7101232 0.95569736 -0.90482444
H -0.46570396 -1.5666554 -2.2058806
