title
 OpenBabel02282110003D

 18 19  0  0  1  0  0  0  0  0999 V2000
   -1.1653    1.7052   -0.8822 C   0  0  0  0  0  0  0  0  0  0  0  0
   -1.0390    0.2013   -0.8522 C   0  0  1  0  0  0  0  0  0  0  0  0
    0.3042   -0.5064   -0.9492 C   0  0  1  0  0  0  0  0  0  0  0  0
    1.4467    0.2855   -0.7051 O   0  0  0  0  0  0  0  0  0  0  0  0
    1.5809    0.3081    0.7046 C   0  0  0  0  0  0  0  0  0  0  0  0
    0.2756    0.2400    1.2441 O   0  0  0  0  0  0  0  0  0  0  0  0
   -0.4693   -0.5605    0.3349 C   0  0  1  0  0  0  0  0  0  0  0  0
   -1.1187   -1.7681    0.9487 C   0  0  0  0  0  0  0  0  0  0  0  0
   -1.1676    2.0734   -1.9133 H   0  0  0  0  0  0  0  0  0  0  0  0
   -2.0984    2.0251   -0.4072 H   0  0  0  0  0  0  0  0  0  0  0  0
   -0.3383    2.1812   -0.3544 H   0  0  0  0  0  0  0  0  0  0  0  0
   -1.8391   -0.3350   -1.3604 H   0  0  0  0  0  0  0  0  0  0  0  0
    0.4667   -1.3540   -1.6079 H   0  0  0  0  0  0  0  0  0  0  0  0
    2.1844   -0.5519    1.0451 H   0  0  0  0  0  0  0  0  0  0  0  0
    2.0493    1.2489    1.0074 H   0  0  0  0  0  0  0  0  0  0  0  0
   -1.8645   -1.4706    1.6933 H   0  0  0  0  0  0  0  0  0  0  0  0
   -1.6247   -2.3635    0.1831 H   0  0  0  0  0  0  0  0  0  0  0  0
   -0.3766   -2.4022    1.4451 H   0  0  0  0  0  0  0  0  0  0  0  0
  1  2  1  0  0  0  0
  1 10  1  0  0  0  0
  1 11  1  0  0  0  0
  2  3  1  6  0  0  0
  3  4  1  0  0  0  0
  3  7  1  1  0  0  0
  4  5  1  0  0  0  0
  5 15  1  0  0  0  0
  5 14  1  0  0  0  0
  5  6  1  0  0  0  0
  7  2  1  6  0  0  0
  7  8  1  0  0  0  0
  7  6  1  0  0  0  0
  8 18  1  0  0  0  0
  8 16  1  0  0  0  0
  9  1  1  0  0  0  0
 12  2  1  0  0  0  0
 13  3  1  0  0  0  0
 17  8  1  0  0  0  0
M  END
