title
 OpenBabel02282110003D

 16 17  0  0  1  0  0  0  0  0999 V2000
    1.1591    1.5931   -0.6214 O   0  0  0  0  0  0  0  0  0  0  0  0
    1.1213    0.2042   -0.6590 C   0  0  1  0  0  0  0  0  0  0  0  0
    0.7192   -0.5496    0.5920 C   0  0  1  0  0  0  0  0  0  0  0  0
    0.1758    0.2940    1.5780 O   0  0  0  0  0  0  0  0  0  0  0  0
   -1.2441    0.3882    1.3394 C   0  0  0  0  0  0  0  0  0  0  0  0
   -1.4286    0.2572   -0.1845 C   0  0  0  0  0  0  0  0  0  0  0  0
   -0.1974   -0.5540   -0.6027 C   0  0  1  0  0  0  0  0  0  0  0  0
   -0.3521   -1.7296   -1.3345 O   0  0  0  0  0  0  0  0  0  0  0  0
    1.0291    1.8325    0.3078 H   0  0  0  0  0  0  0  0  0  0  0  0
    1.8977   -0.2402   -1.2777 H   0  0  0  0  0  0  0  0  0  0  0  0
    1.2518   -1.4252    0.9485 H   0  0  0  0  0  0  0  0  0  0  0  0
   -1.7551   -0.4286    1.8670 H   0  0  0  0  0  0  0  0  0  0  0  0
   -1.5816    1.3406    1.7556 H   0  0  0  0  0  0  0  0  0  0  0  0
   -2.3369   -0.2903   -0.4450 H   0  0  0  0  0  0  0  0  0  0  0  0
   -1.4477    1.2369   -0.6709 H   0  0  0  0  0  0  0  0  0  0  0  0
   -0.3877   -1.4969   -2.2690 H   0  0  0  0  0  0  0  0  0  0  0  0
  1  9  1  0  0  0  0
  2  1  1  0  0  0  0
  2  7  1  6  0  0  0
  3  2  1  6  0  0  0
  3 11  1  0  0  0  0
  3  4  1  0  0  0  0
  5  4  1  0  0  0  0
  5 13  1  0  0  0  0
  5 12  1  0  0  0  0
  6  5  1  0  0  0  0
  7  6  1  0  0  0  0
  7  3  1  1  0  0  0
  8  7  1  0  0  0  0
 10  2  1  0  0  0  0
 14  6  1  0  0  0  0
 15  6  1  0  0  0  0
 16  8  1  0  0  0  0
M  END
