16
title
O 1.1590544 1.593053 -0.6214302
C 1.1213152 0.20417316 -0.6589823
C 0.7192417 -0.54958236 0.5919957
O 0.1757598 0.29398096 1.5780475
C -1.2440547 0.38824555 1.3393619
C -1.428635 0.25716165 -0.18453893
C -0.19735216 -0.55402744 -0.6027078
O -0.35211718 -1.7296416 -1.3344506
H 1.0290654 1.8325254 0.30781734
H 1.8977219 -0.24024467 -1.2777157
H 1.2517979 -1.425196 0.9484682
H -1.755051 -0.42862368 1.8670118
H -1.5816292 1.3406471 1.7556148
H -2.3368979 -0.2902565 -0.44496375
H -1.4476625 1.236894 -0.6709293
H -0.38772917 -1.4969485 -2.2689595
