14
title
N -0.1351958 2.3406913 -0.20563139
C -0.09487916 0.93109506 -0.32277024
C 0.5275739 0.042050235 -1.4113196
O -0.56691146 -0.91204405 -1.2864593
C -1.2056619 -0.08930636 -0.32792497
C -0.34994078 0.069360904 0.91760033
C 0.5626542 -0.94509816 1.364051
N 1.3129771 -1.7524427 1.7154396
H 0.73863775 2.712861 0.15349326
H -0.32413897 2.785088 -1.0984339
H 0.511294 0.51162475 -2.4013343
H 1.5039471 -0.41234064 -1.2165518
H -2.2875159 -0.031346448 -0.31994414
H -0.8346421 0.63935894 1.7043222
