title
 OpenBabel02282110003D

 15 16  0  0  1  0  0  0  0  0999 V2000
   -0.2424    2.4376    0.1834 C   0  0  0  0  0  0  0  0  0  0  0  0
   -0.2392    0.9397    0.2420 C   0  0  2  0  0  0  0  0  0  0  0  0
   -1.4695    0.0288    0.2561 C   0  0  0  0  0  0  0  0  0  0  0  0
   -0.8047   -0.9136    1.1481 O   0  0  0  0  0  0  0  0  0  0  0  0
    0.3280   -0.0682    1.2067 C   0  0  1  0  0  0  0  0  0  0  0  0
    0.9729    0.0892   -0.1605 C   0  0  1  0  0  0  0  0  0  0  0  0
    0.9101   -0.9367   -1.1635 C   0  0  0  0  0  0  0  0  0  0  0  0
    0.8441   -1.7536   -1.9800 N   0  0  0  0  0  0  0  0  0  0  0  0
    0.7376    2.8463    0.4476 H   0  0  0  0  0  0  0  0  0  0  0  0
   -0.4892    2.7929   -0.8233 H   0  0  0  0  0  0  0  0  0  0  0  0
   -0.9787    2.8547    0.8786 H   0  0  0  0  0  0  0  0  0  0  0  0
   -2.3285    0.4842    0.7596 H   0  0  0  0  0  0  0  0  0  0  0  0
   -1.7781   -0.4345   -0.6861 H   0  0  0  0  0  0  0  0  0  0  0  0
    0.8802    0.0018    2.1373 H   0  0  0  0  0  0  0  0  0  0  0  0
    1.9037    0.6496   -0.1449 H   0  0  0  0  0  0  0  0  0  0  0  0
  1  2  1  0  0  0  0
  1  9  1  0  0  0  0
  1 11  1  0  0  0  0
  2  6  1  6  0  0  0
  2  3  1  0  0  0  0
  2  5  1  0  0  0  0
  3 12  1  0  0  0  0
  3  4  1  0  0  0  0
  4  5  1  0  0  0  0
  5  6  1  6  0  0  0
  5 14  1  0  0  0  0
  6 15  1  1  0  0  0
  7  6  1  0  0  0  0
  8  7  3  0  0  0  0
 10  1  1  0  0  0  0
 13  3  1  0  0  0  0
M  END
