17
title
C -0.25505447 2.3965094 0.32967818
C -0.27697733 0.9018883 0.20513517
C -1.5391755 0.042378116 0.09671953
C -0.8458294 -0.9266729 1.0867403
N 0.35820577 -0.028543843 1.220379
C 0.93381 0.10956715 -0.15582156
C 0.94136 -0.9547673 -1.1175151
C 0.96418476 -1.8431381 -1.9291049
H 0.7313055 2.748147 0.64555323
H -0.49575233 2.8689933 -0.62976354
H -0.98945284 2.7375336 1.0673497
H -2.417719 0.53202116 0.5218502
H -1.7852703 -0.33518833 -0.8988435
H -1.3421301 -1.0011052 2.055702
H -0.6091159 -1.9285346 0.7206985
H 1.8660718 0.66767824 -0.10882214
H 0.9901279 -2.625207 -2.647038
