title
 OpenBabel02282110003D

 16 17  0  0  1  0  0  0  0  0999 V2000
   -0.2639    2.4048    0.3164 C   0  0  0  0  0  0  0  0  0  0  0  0
   -0.2836    0.9097    0.2059 C   0  0  2  0  0  0  0  0  0  0  0  0
   -1.5380    0.0398    0.0856 C   0  0  0  0  0  0  0  0  0  0  0  0
   -0.8479   -0.9235    1.0845 C   0  0  0  0  0  0  0  0  0  0  0  0
    0.3500   -0.0145    1.2270 N   0  0  1  0  0  0  0  0  0  0  0  0
    0.9380    0.1250   -0.1360 C   0  0  1  0  0  0  0  0  0  0  0  0
    0.9330   -0.9510   -1.0929 C   0  0  0  0  0  0  0  0  0  0  0  0
    0.9251   -1.8156   -1.8619 N   0  0  0  0  0  0  0  0  0  0  0  0
    0.7144    2.7606    0.6515 H   0  0  0  0  0  0  0  0  0  0  0  0
   -0.4843    2.8663   -0.6527 H   0  0  0  0  0  0  0  0  0  0  0  0
   -1.0156    2.7491    1.0341 H   0  0  0  0  0  0  0  0  0  0  0  0
   -2.4217    0.5254    0.5034 H   0  0  0  0  0  0  0  0  0  0  0  0
   -1.7768   -0.3395   -0.9107 H   0  0  0  0  0  0  0  0  0  0  0  0
   -1.3500   -0.9957    2.0499 H   0  0  0  0  0  0  0  0  0  0  0  0
   -0.6015   -1.9265    0.7281 H   0  0  0  0  0  0  0  0  0  0  0  0
    1.8769    0.6702   -0.1050 H   0  0  0  0  0  0  0  0  0  0  0  0
  1  9  1  0  0  0  0
  1 11  1  0  0  0  0
  2  6  1  6  0  0  0
  2  1  1  0  0  0  0
  2  5  1  0  0  0  0
  3  2  1  0  0  0  0
  3 12  1  0  0  0  0
  3  4  1  0  0  0  0
  4  5  1  0  0  0  0
  4 14  1  0  0  0  0
  5  6  1  6  0  0  0
  6 16  1  6  0  0  0
  7  6  1  0  0  0  0
  8  7  3  0  0  0  0
 10  1  1  0  0  0  0
 13  3  1  0  0  0  0
 15  4  1  0  0  0  0
M  END
