title
 OpenBabel02282110003D

 16 17  0  0  1  0  0  0  0  0999 V2000
   -0.2343    2.4321    0.1805 C   0  0  0  0  0  0  0  0  0  0  0  0
   -0.2320    0.9338    0.2327 C   0  0  2  0  0  0  0  0  0  0  0  0
   -1.4664    0.0303    0.2592 C   0  0  0  0  0  0  0  0  0  0  0  0
   -0.8073   -0.9106    1.1534 O   0  0  0  0  0  0  0  0  0  0  0  0
    0.3381   -0.0741    1.1968 C   0  0  1  0  0  0  0  0  0  0  0  0
    0.9729    0.0738   -0.1754 C   0  0  1  0  0  0  0  0  0  0  0  0
    0.9230   -0.9460   -1.1803 C   0  0  0  0  0  0  0  0  0  0  0  0
    0.8734   -1.7940   -2.0322 C   0  0  0  0  0  0  0  0  0  0  0  0
    0.7499    2.8372    0.4352 H   0  0  0  0  0  0  0  0  0  0  0  0
   -0.4901    2.7939   -0.8222 H   0  0  0  0  0  0  0  0  0  0  0  0
   -0.9615    2.8515    0.8848 H   0  0  0  0  0  0  0  0  0  0  0  0
   -2.3249    0.4922    0.7595 H   0  0  0  0  0  0  0  0  0  0  0  0
   -1.7762   -0.4362   -0.6815 H   0  0  0  0  0  0  0  0  0  0  0  0
    0.8864    0.0022    2.1298 H   0  0  0  0  0  0  0  0  0  0  0  0
    1.8976    0.6473   -0.1426 H   0  0  0  0  0  0  0  0  0  0  0  0
    0.8364   -2.5523   -2.7743 H   0  0  0  0  0  0  0  0  0  0  0  0
  1  2  1  0  0  0  0
  1  9  1  0  0  0  0
  1 11  1  0  0  0  0
  2  6  1  6  0  0  0
  2  3  1  0  0  0  0
  2  5  1  0  0  0  0
  3 12  1  0  0  0  0
  3  4  1  0  0  0  0
  4  5  1  0  0  0  0
  5  6  1  6  0  0  0
  5 14  1  0  0  0  0
  6 15  1  1  0  0  0
  7  6  1  0  0  0  0
  8  7  3  0  0  0  0
 10  1  1  0  0  0  0
 13  3  1  0  0  0  0
 16  8  1  0  0  0  0
M  END
