16
title
C -0.2928423 2.3620088 0.2354941
C -0.19213632 0.8737599 0.29633626
O -1.3974768 0.1207317 0.16533016
C -0.9142904 -0.8515542 1.1346166
C 0.4193113 -0.1272942 1.2466294
C 1.0027889 0.050207008 -0.16001981
C 0.9321294 -0.95989865 -1.1738473
C 0.87409985 -1.8118112 -2.0212748
H 0.6829885 2.8228662 0.41191334
H -0.64533293 2.6775775 -0.7525805
H -0.99882185 2.7340991 0.9843293
H -1.5139232 -0.8079186 2.0497398
H -0.90533864 -1.8689616 0.73060507
H 1.0200691 -0.003771675 2.1378796
H 1.928665 0.62122154 -0.14177331
H 0.8179896 -2.5555544 -2.7767274
