16
title
C -0.263922 2.4048467 0.3164368
C -0.28362817 0.9096553 0.20592223
C -1.5380087 0.03981046 0.08560883
C -0.84785604 -0.923516 1.0845422
N 0.34995174 -0.014531749 1.2269559
C 0.9380495 0.124977574 -0.13595778
C 0.9329639 -0.95099145 -1.0929216
N 0.92510086 -1.8156449 -1.8618951
H 0.71442 2.7605505 0.65150326
H -0.48428884 2.8662806 -0.6527053
H -1.0156465 2.749095 1.0341023
H -2.4217367 0.52535117 0.5034239
H -1.7768059 -0.33945784 -0.91073686
H -1.3499969 -0.9957474 2.0498953
H -0.60152733 -1.9265071 0.7280608
H 1.8768934 0.67019606 -0.1050081
