17
title
C -0.23340765 2.4215004 0.21477011
C -0.25297767 0.92121816 0.26093706
C -1.5154759 0.0463164 0.17506246
C -0.87589544 -0.95315105 1.1950653
C 0.3698292 -0.064598784 1.2455066
C 0.96145517 0.09904118 -0.1456449
C 0.9081461 -0.9408143 -1.1376716
N 0.8427116 -1.779053 -1.9331899
H 0.7518595 2.8184507 0.47984144
H -0.4825092 2.788714 -0.7875687
H -0.964154 2.842288 0.91426027
H -2.3921564 0.552694 0.58500373
H -1.763414 -0.3455947 -0.8149507
H -1.4117801 -0.97550887 2.1455505
H -0.7208176 -1.978843 0.8503212
H 0.9938237 0.12401362 2.111774
H 1.8850553 0.67004347 -0.16478515
