16
title
C -0.23432915 2.432053 0.18054086
C -0.23202379 0.93383294 0.232676
C -1.4663869 0.03032276 0.2591685
O -0.80732656 -0.9105782 1.1534246
C 0.3380808 -0.07408467 1.1968431
C 0.97286814 0.0738115 -0.17539641
C 0.9230277 -0.94596285 -1.180283
C 0.87336856 -1.7939538 -2.0322094
H 0.74991655 2.8372183 0.4352353
H -0.49009323 2.7938786 -0.8221904
H -0.961468 2.851509 0.8847958
H -2.324921 0.49218374 0.75950027
H -1.7762045 -0.43616912 -0.6815363
H 0.8864384 0.0021979518 2.129807
H 1.8976187 0.64725983 -0.14264593
H 0.83640283 -2.5522668 -2.7742856
