title
 OpenBabel02282110003D

 14 15  0  0  1  0  0  0  0  0999 V2000
   -0.1352    2.3407   -0.2056 N   0  0  0  0  0  0  0  0  0  0  0  0
   -0.0949    0.9311   -0.3228 C   0  0  2  0  0  0  0  0  0  0  0  0
    0.5276    0.0421   -1.4113 C   0  0  0  0  0  0  0  0  0  0  0  0
   -0.5669   -0.9120   -1.2865 O   0  0  0  0  0  0  0  0  0  0  0  0
   -1.2057   -0.0893   -0.3279 C   0  0  1  0  0  0  0  0  0  0  0  0
   -0.3499    0.0694    0.9176 C   0  0  1  0  0  0  0  0  0  0  0  0
    0.5627   -0.9451    1.3641 C   0  0  0  0  0  0  0  0  0  0  0  0
    1.3130   -1.7524    1.7154 N   0  0  0  0  0  0  0  0  0  0  0  0
    0.7386    2.7129    0.1535 H   0  0  0  0  0  0  0  0  0  0  0  0
   -0.3241    2.7851   -1.0984 H   0  0  0  0  0  0  0  0  0  0  0  0
    0.5113    0.5116   -2.4013 H   0  0  0  0  0  0  0  0  0  0  0  0
    1.5039   -0.4123   -1.2166 H   0  0  0  0  0  0  0  0  0  0  0  0
   -2.2875   -0.0313   -0.3199 H   0  0  0  0  0  0  0  0  0  0  0  0
   -0.8346    0.6394    1.7043 H   0  0  0  0  0  0  0  0  0  0  0  0
  1  9  1  0  0  0  0
  2  5  1  6  0  0  0
  2  1  1  0  0  0  0
  3  4  1  0  0  0  0
  3 12  1  0  0  0  0
  3  2  1  0  0  0  0
  4  5  1  0  0  0  0
  5 13  1  0  0  0  0
  5  6  1  1  0  0  0
  6  2  1  6  0  0  0
  6  7  1  0  0  0  0
  6 14  1  0  0  0  0
  7  8  3  0  0  0  0
 10  1  1  0  0  0  0
 11  3  1  0  0  0  0
M  END
