16
title
C -0.41364127 2.3888507 0.2690867
C -0.40966704 0.88977164 0.3076804
C -1.644796 -0.010899765 0.35720912
O -0.9469947 -0.97921216 1.1897284
C 0.18698941 -0.11461024 1.2472411
C 0.8157951 0.055675104 -0.122675955
C 0.8060282 -1.0145257 -1.1476095
O 1.6503923 -1.1228585 -2.0063264
H 0.5683768 2.7924411 0.5325591
H -0.66575307 2.7603104 -0.7305948
H -1.1457516 2.79651 0.97505146
H -2.4689925 0.44514248 0.91791314
H -2.0261354 -0.44480535 -0.5726187
H 0.73328215 -0.042149767 2.180989
H 1.7256935 0.6498697 -0.1265881
H -0.029159566 -1.7393091 -1.0700144
