title
 OpenBabel02282110003D

 16 17  0  0  1  0  0  0  0  0999 V2000
   -0.4136    2.3889    0.2691 C   0  0  0  0  0  0  0  0  0  0  0  0
   -0.4097    0.8898    0.3077 C   0  0  2  0  0  0  0  0  0  0  0  0
   -1.6448   -0.0109    0.3572 C   0  0  0  0  0  0  0  0  0  0  0  0
   -0.9470   -0.9792    1.1897 O   0  0  0  0  0  0  0  0  0  0  0  0
    0.1870   -0.1146    1.2472 C   0  0  1  0  0  0  0  0  0  0  0  0
    0.8158    0.0557   -0.1227 C   0  0  1  0  0  0  0  0  0  0  0  0
    0.8060   -1.0145   -1.1476 C   0  0  0  0  0  0  0  0  0  0  0  0
    1.6504   -1.1229   -2.0063 O   0  0  0  0  0  0  0  0  0  0  0  0
    0.5684    2.7924    0.5326 H   0  0  0  0  0  0  0  0  0  0  0  0
   -0.6658    2.7603   -0.7306 H   0  0  0  0  0  0  0  0  0  0  0  0
   -1.1458    2.7965    0.9751 H   0  0  0  0  0  0  0  0  0  0  0  0
   -2.4690    0.4451    0.9179 H   0  0  0  0  0  0  0  0  0  0  0  0
   -2.0261   -0.4448   -0.5726 H   0  0  0  0  0  0  0  0  0  0  0  0
    0.7333   -0.0421    2.1810 H   0  0  0  0  0  0  0  0  0  0  0  0
    1.7257    0.6499   -0.1266 H   0  0  0  0  0  0  0  0  0  0  0  0
   -0.0292   -1.7393   -1.0700 H   0  0  0  0  0  0  0  0  0  0  0  0
  1  2  1  0  0  0  0
  1  9  1  0  0  0  0
  1 11  1  0  0  0  0
  2  6  1  6  0  0  0
  2  3  1  0  0  0  0
  2  5  1  0  0  0  0
  3 12  1  0  0  0  0
  3  4  1  0  0  0  0
  4  5  1  0  0  0  0
  5  6  1  6  0  0  0
  5 14  1  0  0  0  0
  6 15  1  1  0  0  0
  7 16  1  0  0  0  0
  7  6  1  0  0  0  0
  8  7  2  0  0  0  0
 10  1  1  0  0  0  0
 13  3  1  0  0  0  0
M  END
