title
 OpenBabel02282110003D

 13 14  0  0  1  0  0  0  0  0999 V2000
   -0.1123    2.2842   -0.2938 O   0  0  0  0  0  0  0  0  0  0  0  0
   -0.0809    0.9147   -0.3148 C   0  0  2  0  0  0  0  0  0  0  0  0
    0.5243    0.0391   -1.4163 C   0  0  0  0  0  0  0  0  0  0  0  0
   -0.5806   -0.9056   -1.2833 O   0  0  0  0  0  0  0  0  0  0  0  0
   -1.2038   -0.0750   -0.3221 C   0  0  1  0  0  0  0  0  0  0  0  0
   -0.3403    0.0601    0.9329 C   0  0  1  0  0  0  0  0  0  0  0  0
    0.5528   -0.9700    1.3801 C   0  0  0  0  0  0  0  0  0  0  0  0
    1.2941   -1.7884    1.7258 N   0  0  0  0  0  0  0  0  0  0  0  0
    0.6663    2.6093    0.1737 H   0  0  0  0  0  0  0  0  0  0  0  0
    0.4933    0.5290   -2.3939 H   0  0  0  0  0  0  0  0  0  0  0  0
    1.4968   -0.4283   -1.2379 H   0  0  0  0  0  0  0  0  0  0  0  0
   -2.2843   -0.0006   -0.3061 H   0  0  0  0  0  0  0  0  0  0  0  0
   -0.8276    0.6320    1.7176 H   0  0  0  0  0  0  0  0  0  0  0  0
  1  9  1  0  0  0  0
  2  5  1  6  0  0  0
  2  1  1  0  0  0  0
  3  4  1  0  0  0  0
  3 11  1  0  0  0  0
  3  2  1  0  0  0  0
  4  5  1  0  0  0  0
  5 12  1  0  0  0  0
  5  6  1  1  0  0  0
  6  2  1  6  0  0  0
  6  7  1  0  0  0  0
  6 13  1  0  0  0  0
  7  8  3  0  0  0  0
 10  3  1  0  0  0  0
M  END
