title
 OpenBabel02282110003D

 16 17  0  0  1  0  0  0  0  0999 V2000
   -0.1451    2.2666   -0.2903 O   0  0  0  0  0  0  0  0  0  0  0  0
   -0.0874    0.8881   -0.3295 C   0  0  2  0  0  0  0  0  0  0  0  0
    0.6134    0.0663   -1.4186 C   0  0  0  0  0  0  0  0  0  0  0  0
   -0.5817   -0.9457   -1.3675 C   0  0  0  0  0  0  0  0  0  0  0  0
   -1.2514   -0.0760   -0.2977 C   0  0  1  0  0  0  0  0  0  0  0  0
   -0.3335    0.0545    0.9216 C   0  0  1  0  0  0  0  0  0  0  0  0
    0.5351   -0.9881    1.3836 C   0  0  0  0  0  0  0  0  0  0  0  0
    1.2774   -1.8583    1.7597 C   0  0  0  0  0  0  0  0  0  0  0  0
    0.6540    2.5934    0.1389 H   0  0  0  0  0  0  0  0  0  0  0  0
    0.6496    0.6117   -2.3637 H   0  0  0  0  0  0  0  0  0  0  0  0
    1.6072   -0.3209   -1.1781 H   0  0  0  0  0  0  0  0  0  0  0  0
   -1.1437   -0.9761   -2.3026 H   0  0  0  0  0  0  0  0  0  0  0  0
   -0.3358   -1.9647   -1.0595 H   0  0  0  0  0  0  0  0  0  0  0  0
   -2.3114    0.1206   -0.1940 H   0  0  0  0  0  0  0  0  0  0  0  0
   -0.7903    0.6565    1.7034 H   0  0  0  0  0  0  0  0  0  0  0  0
    1.9259   -2.6267    2.1005 H   0  0  0  0  0  0  0  0  0  0  0  0
  1  9  1  0  0  0  0
  2  5  1  6  0  0  0
  2  1  1  0  0  0  0
  3  4  1  0  0  0  0
  3 11  1  0  0  0  0
  3  2  1  0  0  0  0
  4 13  1  0  0  0  0
  4  5  1  0  0  0  0
  5 14  1  0  0  0  0
  5  6  1  1  0  0  0
  6  2  1  6  0  0  0
  6  7  1  0  0  0  0
  6 15  1  0  0  0  0
  7  8  3  0  0  0  0
  8 16  1  0  0  0  0
 10  3  1  0  0  0  0
 12  4  1  0  0  0  0
M  END
