title
 OpenBabel02282110003D

 16 17  0  0  1  0  0  0  0  0999 V2000
   -0.4884    2.3075    0.3969 C   0  0  0  0  0  0  0  0  0  0  0  0
   -0.3491    0.8214    0.3966 C   0  0  2  0  0  0  0  0  0  0  0  0
   -1.5472    0.0380    0.2821 O   0  0  0  0  0  0  0  0  0  0  0  0
   -1.0243   -0.9235    1.2405 C   0  0  0  0  0  0  0  0  0  0  0  0
    0.3107   -0.1955    1.2835 C   0  0  1  0  0  0  0  0  0  0  0  0
    0.8397    0.0438   -0.1432 C   0  0  1  0  0  0  0  0  0  0  0  0
    0.7361   -0.9300   -1.2552 C   0  0  0  0  0  0  0  0  0  0  0  0
    1.6370   -1.1554   -2.0297 O   0  0  0  0  0  0  0  0  0  0  0  0
    0.4820    2.7842    0.5587 H   0  0  0  0  0  0  0  0  0  0  0  0
   -0.8810    2.6532   -0.5654 H   0  0  0  0  0  0  0  0  0  0  0  0
   -1.1771    2.6315    1.1831 H   0  0  0  0  0  0  0  0  0  0  0  0
   -1.5750   -0.8558    2.1849 H   0  0  0  0  0  0  0  0  0  0  0  0
   -1.0570   -1.9523    0.8681 H   0  0  0  0  0  0  0  0  0  0  0  0
    0.9614   -0.0816    2.1398 H   0  0  0  0  0  0  0  0  0  0  0  0
    1.7712    0.6025   -0.1449 H   0  0  0  0  0  0  0  0  0  0  0  0
   -0.2448   -1.4365   -1.3542 H   0  0  0  0  0  0  0  0  0  0  0  0
  1  9  1  0  0  0  0
  1 11  1  0  0  0  0
  2  6  1  6  0  0  0
  2  1  1  0  0  0  0
  2  5  1  0  0  0  0
  3  2  1  0  0  0  0
  3  4  1  0  0  0  0
  4  5  1  0  0  0  0
  4 12  1  0  0  0  0
  5  6  1  6  0  0  0
  5 14  1  0  0  0  0
  6 15  1  6  0  0  0
  7  6  1  0  0  0  0
  8  7  2  0  0  0  0
 10  1  1  0  0  0  0
 13  4  1  0  0  0  0
 16  7  1  0  0  0  0
M  END
