title
 OpenBabel02282110003D

 17 18  0  0  1  0  0  0  0  0999 V2000
   -0.3998    2.0924   -0.0562 C   0  0  0  0  0  0  0  0  0  0  0  0
   -0.6674    0.6237    0.0581 C   0  0  2  0  0  0  0  0  0  0  0  0
   -2.0415   -0.0669    0.1611 C   0  0  0  0  0  0  0  0  0  0  0  0
   -1.3946   -1.1651    1.0771 C   0  0  0  0  0  0  0  0  0  0  0  0
   -0.0462   -0.4495    0.9296 C   0  0  1  0  0  0  0  0  0  0  0  0
    0.2435   -0.3838   -0.4920 N   0  0  0  0  0  0  0  0  0  0  0  0
    1.4996   -0.1430   -1.0070 C   0  0  0  0  0  0  0  0  0  0  0  0
    2.5316   -0.6063   -0.5787 O   0  0  0  0  0  0  0  0  0  0  0  0
    0.6560    2.3192    0.1219 H   0  0  0  0  0  0  0  0  0  0  0  0
   -0.6631    2.4688   -1.0517 H   0  0  0  0  0  0  0  0  0  0  0  0
   -0.9977    2.6455    0.6749 H   0  0  0  0  0  0  0  0  0  0  0  0
   -2.7738    0.5419    0.6966 H   0  0  0  0  0  0  0  0  0  0  0  0
   -2.4698   -0.4004   -0.7865 H   0  0  0  0  0  0  0  0  0  0  0  0
   -1.7808   -1.1329    2.0977 H   0  0  0  0  0  0  0  0  0  0  0  0
   -1.4198   -2.1933    0.7103 H   0  0  0  0  0  0  0  0  0  0  0  0
    0.7733   -0.3833    1.6349 H   0  0  0  0  0  0  0  0  0  0  0  0
    1.4512    0.4673   -1.9297 H   0  0  0  0  0  0  0  0  0  0  0  0
  1  2  1  0  0  0  0
  1  9  1  0  0  0  0
  1 11  1  0  0  0  0
  2  3  1  0  0  0  0
  2  5  1  1  0  0  0
  3 12  1  0  0  0  0
  3  4  1  0  0  0  0
  4 14  1  0  0  0  0
  5  4  1  0  0  0  0
  5 16  1  1  0  0  0
  6  2  1  0  0  0  0
  6  5  1  0  0  0  0
  7  8  2  0  0  0  0
  7  6  1  0  0  0  0
 10  1  1  0  0  0  0
 13  3  1  0  0  0  0
 15  4  1  0  0  0  0
 17  7  1  0  0  0  0
M  END
