title
 OpenBabel02282110003D

 17 18  0  0  1  0  0  0  0  0999 V2000
   -0.3802    2.4271    0.1425 C   0  0  0  0  0  0  0  0  0  0  0  0
   -0.2966    0.9284    0.1353 C   0  0  2  0  0  0  0  0  0  0  0  0
   -1.4956   -0.0225    0.0566 C   0  0  0  0  0  0  0  0  0  0  0  0
   -0.7794   -0.8529    1.1480 C   0  0  0  0  0  0  0  0  0  0  0  0
    0.3709    0.1266    1.2142 N   0  0  1  0  0  0  0  0  0  0  0  0
    0.9997    0.2154   -0.1381 C   0  0  1  0  0  0  0  0  0  0  0  0
    1.1713   -0.8764   -1.1313 C   0  0  0  0  0  0  0  0  0  0  0  0
    0.4606   -1.8431   -1.2899 O   0  0  0  0  0  0  0  0  0  0  0  0
    0.5625    2.8719    0.4729 H   0  0  0  0  0  0  0  0  0  0  0  0
   -0.6088    2.8085   -0.8592 H   0  0  0  0  0  0  0  0  0  0  0  0
   -1.1723    2.7654    0.8194 H   0  0  0  0  0  0  0  0  0  0  0  0
   -2.4186    0.4492    0.4009 H   0  0  0  0  0  0  0  0  0  0  0  0
   -1.6738   -0.5128   -0.9014 H   0  0  0  0  0  0  0  0  0  0  0  0
   -1.2859   -0.8379    2.1150 H   0  0  0  0  0  0  0  0  0  0  0  0
   -0.4930   -1.8709    0.8914 H   0  0  0  0  0  0  0  0  0  0  0  0
    1.8700    0.8660   -0.0936 H   0  0  0  0  0  0  0  0  0  0  0  0
    2.0614   -0.7218   -1.7832 H   0  0  0  0  0  0  0  0  0  0  0  0
  1  9  1  0  0  0  0
  1 11  1  0  0  0  0
  2  6  1  6  0  0  0
  2  1  1  0  0  0  0
  2  5  1  0  0  0  0
  3  2  1  0  0  0  0
  3 12  1  0  0  0  0
  3  4  1  0  0  0  0
  4  5  1  0  0  0  0
  4 14  1  0  0  0  0
  5  6  1  6  0  0  0
  6 16  1  6  0  0  0
  7  6  1  0  0  0  0
  8  7  2  0  0  0  0
 10  1  1  0  0  0  0
 13  3  1  0  0  0  0
 15  4  1  0  0  0  0
 17  7  1  0  0  0  0
M  END
