14
title
O -0.0834437 2.2826316 -0.26845866
C -0.08076269 0.9099411 -0.32487005
C 0.5489859 0.061233412 -1.4389582
N -0.5585502 -0.95191705 -1.2913134
C -1.2283227 -0.06554752 -0.32785153
C -0.3500591 0.052999746 0.91274226
C 0.5281655 -0.9904872 1.3658422
N 1.257698 -1.8076519 1.7377139
H 0.69851255 2.5777566 0.21362904
H 0.5118309 0.5959953 -2.3918507
H 1.549902 -0.34720922 -1.2729106
H -1.0949181 -1.018856 -2.1499202
H -2.3029404 0.056054544 -0.27146676
H -0.81837046 0.63242555 1.7033
