18
title
C -0.4083164 2.3589382 0.3050407
C -0.42202425 0.8574202 0.33185145
C -1.6996826 -0.0032716384 0.30071813
C -1.0278199 -1.0068474 1.2938212
C 0.23023325 -0.12998056 1.2847128
C 0.7926335 0.050688505 -0.12202095
C 0.7837532 -0.9868973 -1.1771637
O 1.6770815 -1.1330371 -1.9794289
H 0.5828071 2.7532704 0.55013233
H -0.68194795 2.7410457 -0.68548614
H -1.1228868 2.7690144 1.0281903
H -2.5442617 0.5174437 0.75887585
H -2.0225043 -0.3841222 -0.671956
H -1.520701 -1.0057287 2.2681623
H -0.91540337 -2.044854 0.9698531
H 0.8768087 0.05996746 2.1341035
H 1.7045933 0.64123905 -0.1447832
H -0.108171105 -1.6481478 -1.2061185
