18
title
C 1.1014621 2.7588172 0.054286055
C 1.1473687 1.2816268 0.46242937
C -0.22173843 0.6351082 0.42778134
C -0.825854 -0.0086312145 -0.8015623
O 0.18152443 -0.6800765 -1.5703346
C 0.45835963 -1.590509 -0.47359124
C -0.5159369 -0.84125865 0.43343875
O -1.2785771 -1.4037899 1.4343057
H 2.0987668 3.2082334 0.08373686
H 0.7118824 2.871117 -0.96271706
H 0.4553232 3.3371742 0.72413874
H 1.8171583 0.74211687 -0.21467152
H 1.5698341 1.1872468 1.4705864
H -0.9893269 1.1546922 1.002001
H -1.7318063 0.29965258 -1.3103763
H 0.11653391 -2.6043737 -0.72192436
H 1.5183313 -1.6172444 -0.19702742
H -1.7817433 -2.1367981 1.0605924
