20
title
C 1.2340785 2.6391294 -0.11620936
C 1.1142591 1.2697233 0.5623674
C -0.27620295 0.67729944 0.46067044
C -0.8798393 0.088192016 -0.8103203
C 0.15841517 -0.76351357 -1.5267538
O 0.47056946 -1.4872725 -0.3076159
C -0.57786095 -0.79120517 0.39313936
C -1.4049681 -1.5943663 1.3430758
H 2.2479973 3.0410166 -0.023465453
H 0.99448544 2.5719066 -1.1827654
H 0.545816 3.365991 0.32956633
H 1.8365116 0.5681998 0.1335193
H 1.3798298 1.3610445 1.6234406
H -1.0353283 1.2180872 1.025811
H -1.8247114 0.41451803 -1.225086
H -0.2734373 -1.4404032 -2.2728899
H 1.0374608 -0.26450703 -1.952331
H -0.7920445 -1.9477837 2.180379
H -2.2169018 -0.98679376 1.7530599
H -1.8364478 -2.4697456 0.84741586
