title
 OpenBabel02282110003D

 18 19  0  0  1  0  0  0  0  0999 V2000
   -0.6067    2.5051   -0.1941 C   0  0  0  0  0  0  0  0  0  0  0  0
   -0.5120    1.0077   -0.1670 C   0  0  2  0  0  0  0  0  0  0  0  0
   -1.4682    0.0580   -0.8931 C   0  0  0  0  0  0  0  0  0  0  0  0
   -1.4104   -0.9080    0.1900 O   0  0  0  0  0  0  0  0  0  0  0  0
   -0.6004   -0.0077    0.9553 C   0  0  1  0  0  0  0  0  0  0  0  0
    0.7221    0.2352    0.2818 C   0  0  1  0  0  0  0  0  0  0  0  0
    1.4499   -0.8262   -0.5112 C   0  0  0  0  0  0  0  0  0  0  0  0
    2.2018   -1.6913    0.3296 O   0  0  0  0  0  0  0  0  0  0  0  0
   -0.0247    2.9524    0.6178 H   0  0  0  0  0  0  0  0  0  0  0  0
   -0.2200    2.9129   -1.1358 H   0  0  0  0  0  0  0  0  0  0  0  0
   -1.6446    2.8405   -0.0869 H   0  0  0  0  0  0  0  0  0  0  0  0
   -2.4809    0.4707   -0.9790 H   0  0  0  0  0  0  0  0  0  0  0  0
   -1.1638   -0.3669   -1.8563 H   0  0  0  0  0  0  0  0  0  0  0  0
   -0.8056    0.0789    2.0170 H   0  0  0  0  0  0  0  0  0  0  0  0
    1.3832    0.8564    0.8844 H   0  0  0  0  0  0  0  0  0  0  0  0
    0.7423   -1.3948   -1.1278 H   0  0  0  0  0  0  0  0  0  0  0  0
    2.1782   -0.3617   -1.1844 H   0  0  0  0  0  0  0  0  0  0  0  0
    1.5723   -2.1473    0.8981 H   0  0  0  0  0  0  0  0  0  0  0  0
  1  2  1  0  0  0  0
  1 11  1  0  0  0  0
  1  9  1  0  0  0  0
  2  6  1  6  0  0  0
  3  2  1  0  0  0  0
  3  4  1  0  0  0  0
  4  5  1  0  0  0  0
  5  2  1  6  0  0  0
  5 14  1  0  0  0  0
  6 15  1  0  0  0  0
  6  5  1  1  0  0  0
  7  6  1  0  0  0  0
  7  8  1  0  0  0  0
  8 18  1  0  0  0  0
 10  1  1  0  0  0  0
 12  3  1  0  0  0  0
 13  3  1  0  0  0  0
 16  7  1  0  0  0  0
 17  7  1  0  0  0  0
M  END
