title
 OpenBabel02282110003D

 22 23  0  0  1  0  0  0  0  0999 V2000
    1.1642    2.6931   -0.0225 C   0  0  0  0  0  0  0  0  0  0  0  0
    1.1455    1.2533    0.5058 C   0  0  0  0  0  0  0  0  0  0  0  0
   -0.2321    0.6241    0.4201 C   0  0  1  0  0  0  0  0  0  0  0  0
   -0.8398    0.0121   -0.8209 C   0  0  1  0  0  0  0  0  0  0  0  0
    0.2012   -0.7729   -1.6278 C   0  0  0  0  0  0  0  0  0  0  0  0
    0.5015   -1.6417   -0.3657 C   0  0  0  0  0  0  0  0  0  0  0  0
   -0.5546   -0.8484    0.4254 C   0  0  1  0  0  0  0  0  0  0  0  0
   -1.4993   -1.4738    1.4128 C   0  0  0  0  0  0  0  0  0  0  0  0
    2.1622    3.1354    0.0586 H   0  0  0  0  0  0  0  0  0  0  0  0
    0.8630    2.7287   -1.0748 H   0  0  0  0  0  0  0  0  0  0  0  0
    0.4712    3.3295    0.5392 H   0  0  0  0  0  0  0  0  0  0  0  0
    1.8773    0.6555   -0.0472 H   0  0  0  0  0  0  0  0  0  0  0  0
    1.4789    1.2432    1.5521 H   0  0  0  0  0  0  0  0  0  0  0  0
   -0.9783    1.1867    0.9824 H   0  0  0  0  0  0  0  0  0  0  0  0
   -1.7954    0.3506   -1.2070 H   0  0  0  0  0  0  0  0  0  0  0  0
   -0.2455   -1.3606   -2.4329 H   0  0  0  0  0  0  0  0  0  0  0  0
    1.0332   -0.1977   -2.0478 H   0  0  0  0  0  0  0  0  0  0  0  0
    0.2068   -2.6848   -0.5089 H   0  0  0  0  0  0  0  0  0  0  0  0
    1.5239   -1.6277    0.0260 H   0  0  0  0  0  0  0  0  0  0  0  0
   -0.9810   -1.7576    2.3377 H   0  0  0  0  0  0  0  0  0  0  0  0
   -2.3030   -0.7820    1.6868 H   0  0  0  0  0  0  0  0  0  0  0  0
   -1.9626   -2.3805    1.0054 H   0  0  0  0  0  0  0  0  0  0  0  0
  1  9  1  0  0  0  0
  1  2  1  0  0  0  0
  1 11  1  0  0  0  0
  2 13  1  0  0  0  0
  3  4  1  6  0  0  0
  3  2  1  0  0  0  0
  3 14  1  0  0  0  0
  4  7  1  1  0  0  0
  5  4  1  0  0  0  0
  5  6  1  0  0  0  0
  6 19  1  0  0  0  0
  6  7  1  0  0  0  0
  7  3  1  1  0  0  0
  7  8  1  0  0  0  0
  8 21  1  0  0  0  0
  8 20  1  0  0  0  0
 10  1  1  0  0  0  0
 12  2  1  0  0  0  0
 15  4  1  0  0  0  0
 16  5  1  0  0  0  0
 17  5  1  0  0  0  0
 18  6  1  0  0  0  0
 22  8  1  0  0  0  0
M  END
