title
 OpenBabel02282110003D

 20 21  0  0  1  0  0  0  0  0999 V2000
   -0.5335    2.4835    0.2869 C   0  0  0  0  0  0  0  0  0  0  0  0
   -0.4892    0.9820    0.2427 C   0  0  2  0  0  0  0  0  0  0  0  0
   -1.7449    0.0907    0.2905 C   0  0  0  0  0  0  0  0  0  0  0  0
   -0.9873   -0.9193    1.2085 C   0  0  0  0  0  0  0  0  0  0  0  0
    0.2535   -0.0190    1.1468 C   0  0  1  0  0  0  0  0  0  0  0  0
    0.7004    0.2199   -0.2809 C   0  0  1  0  0  0  0  0  0  0  0  0
    0.6977   -0.8349   -1.3635 C   0  0  0  0  0  0  0  0  0  0  0  0
    1.8154   -1.7090   -1.2556 O   0  0  0  0  0  0  0  0  0  0  0  0
    0.4597    2.9061    0.4710 H   0  0  0  0  0  0  0  0  0  0  0  0
   -0.8973    2.8994   -0.6610 H   0  0  0  0  0  0  0  0  0  0  0  0
   -1.2021    2.8390    1.0799 H   0  0  0  0  0  0  0  0  0  0  0  0
   -2.5671    0.5805    0.8189 H   0  0  0  0  0  0  0  0  0  0  0  0
   -2.1285   -0.2806   -0.6649 H   0  0  0  0  0  0  0  0  0  0  0  0
   -1.4207   -0.9705    2.2095 H   0  0  0  0  0  0  0  0  0  0  0  0
   -0.8737   -1.9430    0.8359 H   0  0  0  0  0  0  0  0  0  0  0  0
    0.9144    0.1875    1.9816 H   0  0  0  0  0  0  0  0  0  0  0  0
    1.5935    0.8418   -0.3215 H   0  0  0  0  0  0  0  0  0  0  0  0
   -0.2448   -1.4006   -1.3652 H   0  0  0  0  0  0  0  0  0  0  0  0
    0.7878   -0.3637   -2.3485 H   0  0  0  0  0  0  0  0  0  0  0  0
    1.8281   -2.0371   -0.3502 H   0  0  0  0  0  0  0  0  0  0  0  0
  1  9  1  0  0  0  0
  1 11  1  0  0  0  0
  2  6  1  6  0  0  0
  2  1  1  0  0  0  0
  2  3  1  0  0  0  0
  2  5  1  0  0  0  0
  3 12  1  0  0  0  0
  3  4  1  0  0  0  0
  4 14  1  0  0  0  0
  5  6  1  6  0  0  0
  5  4  1  0  0  0  0
  5 16  1  0  0  0  0
  6 17  1  6  0  0  0
  7  8  1  0  0  0  0
  7  6  1  0  0  0  0
  8 20  1  0  0  0  0
 10  1  1  0  0  0  0
 13  3  1  0  0  0  0
 15  4  1  0  0  0  0
 18  7  1  0  0  0  0
 19  7  1  0  0  0  0
M  END
