19
title
C -0.20812087 2.3469117 0.0994446
C -0.35011497 0.86648566 -0.10331033
C -1.0603681 0.22868402 -1.3039339
C -1.7501785 -0.7096872 -0.2863115
N -1.0884908 -0.036386292 0.8902964
C 0.3757591 -0.14645688 0.70224714
C 1.1138823 -1.3571713 0.17157203
O 2.4848742 -1.0525923 -0.053600814
H 0.5537104 2.7627726 -0.57140857
H -1.1511261 2.8660402 -0.10453748
H 0.08799216 2.5728714 1.1277274
H -1.7601304 0.91419494 -1.7866286
H -0.42872748 -0.21713953 -2.079074
H -2.8291721 -0.5585055 -0.21868125
H -1.556851 -1.7834384 -0.36631933
H 0.88691384 0.2694992 1.5694262
H 1.1076277 -2.1521616 0.9251732
H 0.6472786 -1.7642927 -0.7343581
H 2.519221 -0.33902803 -0.6992131
