title
 OpenBabel02282110003D

 18 19  0  0  1  0  0  0  0  0999 V2000
   -0.2275    2.2854    0.1432 C   0  0  0  0  0  0  0  0  0  0  0  0
   -0.2642    0.8018    0.3136 C   0  0  2  0  0  0  0  0  0  0  0  0
   -1.4886    0.1289   -0.0402 O   0  0  0  0  0  0  0  0  0  0  0  0
   -1.3735   -0.7239    1.1304 C   0  0  0  0  0  0  0  0  0  0  0  0
   -0.0076   -0.1442    1.4736 C   0  0  1  0  0  0  0  0  0  0  0  0
    0.8921   -0.1561    0.2442 C   0  0  1  0  0  0  0  0  0  0  0  0
    0.9893   -1.2881   -0.7528 C   0  0  0  0  0  0  0  0  0  0  0  0
    1.4510   -0.8402   -2.0212 O   0  0  0  0  0  0  0  0  0  0  0  0
    0.7197    2.6896    0.5115 H   0  0  0  0  0  0  0  0  0  0  0  0
   -0.3189    2.5549   -0.9154 H   0  0  0  0  0  0  0  0  0  0  0  0
   -1.0494    2.7641    0.6848 H   0  0  0  0  0  0  0  0  0  0  0  0
   -2.1442   -0.4666    1.8659 H   0  0  0  0  0  0  0  0  0  0  0  0
   -1.4469   -1.7890    0.8830 H   0  0  0  0  0  0  0  0  0  0  0  0
    0.3641    0.0483    2.4714 H   0  0  0  0  0  0  0  0  0  0  0  0
    1.8441    0.3350    0.4378 H   0  0  0  0  0  0  0  0  0  0  0  0
    1.7247   -2.0250   -0.4129 H   0  0  0  0  0  0  0  0  0  0  0  0
    0.0243   -1.8016   -0.8455 H   0  0  0  0  0  0  0  0  0  0  0  0
    0.7750   -0.2528   -2.3746 H   0  0  0  0  0  0  0  0  0  0  0  0
  1  2  1  0  0  0  0
  1  9  1  0  0  0  0
  1 11  1  0  0  0  0
  2  6  1  6  0  0  0
  2  5  1  0  0  0  0
  3  2  1  0  0  0  0
  3  4  1  0  0  0  0
  4  5  1  0  0  0  0
  4 12  1  0  0  0  0
  5  6  1  6  0  0  0
  5 14  1  0  0  0  0
  6 15  1  1  0  0  0
  7 16  1  0  0  0  0
  7  6  1  0  0  0  0
  8  7  1  0  0  0  0
 10  1  1  0  0  0  0
 13  4  1  0  0  0  0
 17  7  1  0  0  0  0
 18  8  1  0  0  0  0
M  END
