18
title
C -0.60666317 2.5050871 -0.19405264
C -0.5120095 1.0076963 -0.16697922
C -1.4681857 0.05804062 -0.89307433
O -1.4104216 -0.90802914 0.19000147
C -0.6004489 -0.0077034826 0.95526546
C 0.72207254 0.23520482 0.2818164
C 1.4499387 -0.82619923 -0.511238
O 2.2018385 -1.6912665 0.32962626
H -0.02466098 2.9524477 0.61776185
H -0.21995789 2.9128618 -1.1358386
H -1.6445658 2.840501 -0.08688742
H -2.4809427 0.47074893 -0.97895813
H -1.1637975 -0.36694592 -1.856317
H -0.8055622 0.078936756 2.0169506
H 1.3832198 0.856442 0.88439006
H 0.7423275 -1.3948188 -1.1277989
H 2.1781633 -0.36167353 -1.1843935
H 1.5723228 -2.1473055 0.89814967
