16
title
C -0.029308468 2.2874806 1.3175153
O -0.7469216 1.3893367 0.48645663
C 0.053571016 0.75684184 -0.4515541
C 1.1099037 -0.26518905 -0.087586544
O 0.75763226 -0.9543443 1.1076294
C -0.45362663 -1.4695683 0.4881789
C -0.17382228 -0.6849358 -0.7954619
O -0.39235824 -1.1693993 -2.0676966
H 0.75114715 1.763274 1.8824543
H 0.4327642 3.09746 0.73402095
H -0.75113815 2.7214677 2.0130665
H 0.33968833 1.3626698 -1.3166997
H 2.1544778 -0.2262218 -0.37467197
H -0.37725502 -2.5511763 0.33621398
H -1.3529971 -1.2138765 1.0556772
H -1.1770451 -0.73995113 -2.4262764
