18
title
O 1.2440866 2.5204165 -0.049596436
C 1.1783025 1.2155119 0.5116769
C -0.21320559 0.6321242 0.4320641
C -0.825768 0.029111605 -0.82759684
C 0.20332222 -0.79937625 -1.6099528
C 0.42452183 -1.6959891 -0.34756082
C -0.58581805 -0.8249376 0.41383713
O -1.5451989 -1.3483355 1.2641224
H 0.8585546 2.4677022 -0.93065697
H 1.912376 0.5454013 0.040961914
H 1.480457 1.3316736 1.55862
H -0.95330787 1.2145581 0.9781493
H -1.7623892 0.40453252 -1.2214398
H -0.2410089 -1.3521969 -2.4397554
H 1.0794325 -0.26188055 -1.9861577
H 0.02938388 -2.7033923 -0.49492973
H 1.4380916 -1.7704382 0.058914386
H -1.2232926 -1.2783246 2.1693194
