title
 OpenBabel02282110003D

 16 17  0  0  1  0  0  0  0  0999 V2000
   -0.1239    2.2140    0.1724 C   0  0  0  0  0  0  0  0  0  0  0  0
   -0.0366    0.7144    0.1815 C   0  0  2  0  0  0  0  0  0  0  0  0
   -0.9030   -0.1707    1.0373 C   0  0  1  0  0  0  0  0  0  0  0  0
   -1.7129   -1.1357    0.4286 O   0  0  0  0  0  0  0  0  0  0  0  0
    0.5681   -0.3381    1.1993 C   0  0  1  0  0  0  0  0  0  0  0  0
    1.1173   -1.1960    0.0503 C   0  0  0  0  0  0  0  0  0  0  0  0
    0.5825   -0.1123   -0.9140 C   0  0  0  0  0  0  0  0  0  0  0  0
    0.7911    0.1251   -2.0701 O   0  0  0  0  0  0  0  0  0  0  0  0
    0.8254    2.6628   -0.1361 H   0  0  0  0  0  0  0  0  0  0  0  0
   -0.8925    2.5482   -0.5326 H   0  0  0  0  0  0  0  0  0  0  0  0
   -0.3831    2.6049    1.1610 H   0  0  0  0  0  0  0  0  0  0  0  0
   -1.3938    0.3831    1.8399 H   0  0  0  0  0  0  0  0  0  0  0  0
   -1.8762   -1.8370    1.0691 H   0  0  0  0  0  0  0  0  0  0  0  0
    1.0896   -0.1226    2.1237 H   0  0  0  0  0  0  0  0  0  0  0  0
    2.2087   -1.2394    0.0055 H   0  0  0  0  0  0  0  0  0  0  0  0
    0.7033   -2.2012   -0.0527 H   0  0  0  0  0  0  0  0  0  0  0  0
  1  2  1  0  0  0  0
  1 11  1  0  0  0  0
  2  3  1  6  0  0  0
  3  5  1  1  0  0  0
  3 12  1  0  0  0  0
  4  3  1  0  0  0  0
  4 13  1  0  0  0  0
  5  2  1  6  0  0  0
  5 14  1  0  0  0  0
  6  5  1  0  0  0  0
  7  6  1  0  0  0  0
  7  2  1  0  0  0  0
  8  7  2  0  0  0  0
  9  1  1  0  0  0  0
 10  1  1  0  0  0  0
 15  6  1  0  0  0  0
 16  6  1  0  0  0  0
M  END
