title
 OpenBabel02282110003D

 18 19  0  0  1  0  0  0  0  0999 V2000
    1.0238    2.4383   -0.5977 C   0  0  0  0  0  0  0  0  0  0  0  0
    0.8430    1.3546    0.2930 O   0  0  0  0  0  0  0  0  0  0  0  0
   -0.3832    0.7146    0.1224 C   0  0  1  0  0  0  0  0  0  0  0  0
   -0.6377   -0.3093   -0.9625 C   0  0  1  0  0  0  0  0  0  0  0  0
    0.6413   -1.1137   -1.2296 C   0  0  0  0  0  0  0  0  0  0  0  0
    0.6913   -1.5366    0.2733 C   0  0  0  0  0  0  0  0  0  0  0  0
   -0.5702   -0.7043    0.5285 C   0  0  1  0  0  0  0  0  0  0  0  0
   -1.6114   -1.1105    1.3465 O   0  0  0  0  0  0  0  0  0  0  0  0
    2.0182    2.8498   -0.4091 H   0  0  0  0  0  0  0  0  0  0  0  0
    0.9575    2.1164   -1.6465 H   0  0  0  0  0  0  0  0  0  0  0  0
    0.2749    3.2276   -0.4308 H   0  0  0  0  0  0  0  0  0  0  0  0
   -1.2523    1.3425    0.3334 H   0  0  0  0  0  0  0  0  0  0  0  0
   -1.4937   -0.2341   -1.6228 H   0  0  0  0  0  0  0  0  0  0  0  0
    0.4784   -1.9601   -1.8992 H   0  0  0  0  0  0  0  0  0  0  0  0
    1.4962   -0.5355   -1.5890 H   0  0  0  0  0  0  0  0  0  0  0  0
    0.4899   -2.6015    0.4058 H   0  0  0  0  0  0  0  0  0  0  0  0
    1.5820   -1.2572    0.8419 H   0  0  0  0  0  0  0  0  0  0  0  0
   -1.4727   -0.7339    2.2228 H   0  0  0  0  0  0  0  0  0  0  0  0
  1 11  1  0  0  0  0
  1  9  1  0  0  0  0
  1  2  1  0  0  0  0
  3  4  1  6  0  0  0
  3  2  1  0  0  0  0
  3 12  1  0  0  0  0
  4  7  1  1  0  0  0
  5  4  1  0  0  0  0
  5  6  1  0  0  0  0
  6 16  1  0  0  0  0
  6  7  1  0  0  0  0
  6 17  1  0  0  0  0
  7  3  1  1  0  0  0
  7  8  1  0  0  0  0
  8 18  1  0  0  0  0
 10  1  1  0  0  0  0
 13  4  1  0  0  0  0
 14  5  1  0  0  0  0
 15  5  1  0  0  0  0
M  END
