title
 OpenBabel02282110003D

 18 19  0  0  1  0  0  0  0  0999 V2000
   -0.0220    2.2303    1.3618 C   0  0  0  0  0  0  0  0  0  0  0  0
   -0.7355    1.3641    0.4960 O   0  0  0  0  0  0  0  0  0  0  0  0
    0.0725    0.7538   -0.4519 C   0  0  1  0  0  0  0  0  0  0  0  0
    1.1032   -0.2820   -0.0918 C   0  0  1  0  0  0  0  0  0  0  0  0
    0.7254   -0.9834    1.0891 O   0  0  0  0  0  0  0  0  0  0  0  0
   -0.4844   -1.4560    0.4379 C   0  0  0  0  0  0  0  0  0  0  0  0
   -0.1708   -0.6785   -0.8436 C   0  0  1  0  0  0  0  0  0  0  0  0
   -0.4490   -1.1557   -2.2389 C   0  0  0  0  0  0  0  0  0  0  0  0
    0.7415    1.6820    1.9274 H   0  0  0  0  0  0  0  0  0  0  0  0
    0.4608    3.0493    0.8080 H   0  0  0  0  0  0  0  0  0  0  0  0
   -0.7502    2.6566    2.0558 H   0  0  0  0  0  0  0  0  0  0  0  0
    0.3680    1.3946   -1.2880 H   0  0  0  0  0  0  0  0  0  0  0  0
    2.1550   -0.2620   -0.3589 H   0  0  0  0  0  0  0  0  0  0  0  0
   -0.4416   -2.5427    0.3005 H   0  0  0  0  0  0  0  0  0  0  0  0
   -1.3887   -1.1739    0.9851 H   0  0  0  0  0  0  0  0  0  0  0  0
   -1.5221   -1.1176   -2.4623 H   0  0  0  0  0  0  0  0  0  0  0  0
    0.0619   -0.5322   -2.9791 H   0  0  0  0  0  0  0  0  0  0  0  0
   -0.1134   -2.1888   -2.3825 H   0  0  0  0  0  0  0  0  0  0  0  0
  1  9  1  0  0  0  0
  1 11  1  0  0  0  0
  2  1  1  0  0  0  0
  3  7  1  6  0  0  0
  3  4  1  0  0  0  0
  3  2  1  0  0  0  0
  4  7  1  6  0  0  0
  4  5  1  0  0  0  0
  6 15  1  0  0  0  0
  6  5  1  0  0  0  0
  7  8  1  6  0  0  0
  7  6  1  0  0  0  0
 10  1  1  0  0  0  0
 12  3  1  0  0  0  0
 13  4  1  0  0  0  0
 14  6  1  0  0  0  0
 16  8  1  0  0  0  0
 17  8  1  0  0  0  0
 18  8  1  0  0  0  0
M  END
