title
 OpenBabel02282110003D

 18 19  0  0  1  0  0  0  0  0999 V2000
    1.2441    2.5204   -0.0496 O   0  0  0  0  0  0  0  0  0  0  0  0
    1.1783    1.2155    0.5117 C   0  0  0  0  0  0  0  0  0  0  0  0
   -0.2132    0.6321    0.4321 C   0  0  1  0  0  0  0  0  0  0  0  0
   -0.8258    0.0291   -0.8276 C   0  0  1  0  0  0  0  0  0  0  0  0
    0.2033   -0.7994   -1.6100 C   0  0  0  0  0  0  0  0  0  0  0  0
    0.4245   -1.6960   -0.3476 C   0  0  0  0  0  0  0  0  0  0  0  0
   -0.5858   -0.8249    0.4138 C   0  0  1  0  0  0  0  0  0  0  0  0
   -1.5452   -1.3483    1.2641 O   0  0  0  0  0  0  0  0  0  0  0  0
    0.8586    2.4677   -0.9307 H   0  0  0  0  0  0  0  0  0  0  0  0
    1.9124    0.5454    0.0410 H   0  0  0  0  0  0  0  0  0  0  0  0
    1.4805    1.3317    1.5586 H   0  0  0  0  0  0  0  0  0  0  0  0
   -0.9533    1.2146    0.9781 H   0  0  0  0  0  0  0  0  0  0  0  0
   -1.7624    0.4045   -1.2214 H   0  0  0  0  0  0  0  0  0  0  0  0
   -0.2410   -1.3522   -2.4398 H   0  0  0  0  0  0  0  0  0  0  0  0
    1.0794   -0.2619   -1.9862 H   0  0  0  0  0  0  0  0  0  0  0  0
    0.0294   -2.7034   -0.4949 H   0  0  0  0  0  0  0  0  0  0  0  0
    1.4381   -1.7704    0.0589 H   0  0  0  0  0  0  0  0  0  0  0  0
   -1.2233   -1.2783    2.1693 H   0  0  0  0  0  0  0  0  0  0  0  0
  1  2  1  0  0  0  0
  2 11  1  0  0  0  0
  3  4  1  6  0  0  0
  3  2  1  0  0  0  0
  3 12  1  0  0  0  0
  4  7  1  1  0  0  0
  5  4  1  0  0  0  0
  5  6  1  0  0  0  0
  6 17  1  0  0  0  0
  6  7  1  0  0  0  0
  7  3  1  1  0  0  0
  7  8  1  0  0  0  0
  8 18  1  0  0  0  0
  9  1  1  0  0  0  0
 10  2  1  0  0  0  0
 13  4  1  0  0  0  0
 14  5  1  0  0  0  0
 15  5  1  0  0  0  0
 16  6  1  0  0  0  0
M  END
