title
 OpenBabel02282110003D

 15 16  0  0  1  0  0  0  0  0999 V2000
   -0.0828    2.2484    0.2276 C   0  0  0  0  0  0  0  0  0  0  0  0
   -0.0212    0.7497    0.2125 C   0  0  2  0  0  0  0  0  0  0  0  0
   -0.9286   -0.1664    1.0102 C   0  0  1  0  0  0  0  0  0  0  0  0
   -1.6927   -1.1245    0.3477 O   0  0  0  0  0  0  0  0  0  0  0  0
    0.5590   -0.2935    1.1876 C   0  0  1  0  0  0  0  0  0  0  0  0
    1.1800   -0.9985    0.0641 N   0  0  0  0  0  0  0  0  0  0  0  0
    0.6080   -0.1174   -0.8784 C   0  0  0  0  0  0  0  0  0  0  0  0
    0.6505   -0.0902   -2.0732 O   0  0  0  0  0  0  0  0  0  0  0  0
    0.9058    2.6881    0.0623 H   0  0  0  0  0  0  0  0  0  0  0  0
   -0.7450    2.6084   -0.5667 H   0  0  0  0  0  0  0  0  0  0  0  0
   -0.4671    2.6239    1.1807 H   0  0  0  0  0  0  0  0  0  0  0  0
   -1.4428    0.3515    1.8236 H   0  0  0  0  0  0  0  0  0  0  0  0
   -1.9123   -1.8232    0.9740 H   0  0  0  0  0  0  0  0  0  0  0  0
    1.1033   -0.1350    2.1105 H   0  0  0  0  0  0  0  0  0  0  0  0
    1.1011   -2.0031   -0.0527 H   0  0  0  0  0  0  0  0  0  0  0  0
  1 11  1  0  0  0  0
  2  1  1  0  0  0  0
  2  3  1  6  0  0  0
  3  5  1  1  0  0  0
  3 12  1  0  0  0  0
  4 13  1  0  0  0  0
  4  3  1  0  0  0  0
  5  2  1  6  0  0  0
  5 14  1  0  0  0  0
  6  5  1  0  0  0  0
  7  6  1  0  0  0  0
  7  2  1  0  0  0  0
  8  7  2  0  0  0  0
  9  1  1  0  0  0  0
 10  1  1  0  0  0  0
 15  6  1  0  0  0  0
M  END
