17
title
C 1.1025833 2.3078327 -0.66685873
O 0.7711092 1.4007913 0.37088647
C -0.4273867 0.7368612 0.15191613
C -0.63387114 -0.2910531 -0.938101
N 0.6536484 -0.95693237 -1.2161293
C 0.6834522 -1.4791965 0.19715948
C -0.58888036 -0.6945041 0.54461265
O -1.56794 -1.1607885 1.401709
H 2.0512316 2.7739334 -0.39028025
H 1.2192106 1.783968 -1.6230084
H 0.3404895 3.094352 -0.77573854
H -1.3275051 1.3327055 0.33143488
H -1.432873 -0.23182492 -1.6681173
H 0.50696725 -1.730392 -1.8571302
H 0.50173557 -2.5560503 0.25226495
H 1.5955306 -1.2214324 0.7425894
H -1.5097649 -0.6675971 2.2277188
