18
title
C -1.1448724 1.7715131 -0.96110845
C -1.0166465 0.26091048 -0.94441247
C 0.2219693 -0.51887834 -1.2369168
C 1.4693052 0.2019746 -0.70932883
C 0.8301918 0.10253484 0.7003453
O 1.2660662 0.27199876 1.8058118
C -0.4168508 -0.56344074 0.19389771
C -1.1831896 -1.619437 0.9391539
H -0.2588315 2.2747207 -0.56728566
H -1.3094139 2.133102 -1.9821788
H -1.9986845 2.0895886 -0.35395008
H -1.9102563 -0.23753874 -1.3191428
H 0.24231261 -1.3344756 -1.9490193
H 2.3763003 -0.40912834 -0.74124503
H 1.6969537 1.1927074 -1.111536
H -1.7860554 -1.1736934 1.7378279
H -1.8623717 -2.1592913 0.2718004
H -0.50843865 -2.3460486 1.403078
