title
 OpenBabel02282110003D

 15 16  0  0  1  0  0  0  0  0999 V2000
   -0.0273    2.2676    0.1757 C   0  0  0  0  0  0  0  0  0  0  0  0
   -0.0078    0.7688    0.1674 C   0  0  2  0  0  0  0  0  0  0  0  0
   -0.9346   -0.1347    1.0156 C   0  0  1  0  0  0  0  0  0  0  0  0
   -1.7759   -1.1173    0.5249 O   0  0  0  0  0  0  0  0  0  0  0  0
    0.5326   -0.3034    1.1257 C   0  0  1  0  0  0  0  0  0  0  0  0
    0.9660   -1.1230    0.0029 O   0  0  0  0  0  0  0  0  0  0  0  0
    0.5985   -0.0968   -0.8848 C   0  0  0  0  0  0  0  0  0  0  0  0
    0.8047    0.0140   -2.1137 N   0  0  0  0  0  0  0  0  0  0  0  0
    0.9654    2.6804   -0.0292 H   0  0  0  0  0  0  0  0  0  0  0  0
   -0.7113    2.6439   -0.5916 H   0  0  0  0  0  0  0  0  0  0  0  0
   -0.3646    2.6512    1.1432 H   0  0  0  0  0  0  0  0  0  0  0  0
   -1.4084    0.4206    1.8213 H   0  0  0  0  0  0  0  0  0  0  0  0
   -1.2202   -1.7790    0.0928 H   0  0  0  0  0  0  0  0  0  0  0  0
    1.1889   -0.2648    1.9859 H   0  0  0  0  0  0  0  0  0  0  0  0
    1.2993   -0.7967   -2.4888 H   0  0  0  0  0  0  0  0  0  0  0  0
  1 11  1  0  0  0  0
  2  1  1  0  0  0  0
  2  3  1  6  0  0  0
  3  5  1  1  0  0  0
  3 12  1  0  0  0  0
  4  3  1  0  0  0  0
  5  2  1  6  0  0  0
  5 14  1  0  0  0  0
  6  5  1  0  0  0  0
  7  6  1  0  0  0  0
  7  2  1  0  0  0  0
  8  7  2  0  0  0  0
  9  1  1  0  0  0  0
 10  1  1  0  0  0  0
 13  4  1  0  0  0  0
 15  8  1  0  0  0  0
M  END
