title
 OpenBabel02282110003D

 18 19  0  0  1  0  0  0  0  0999 V2000
   -1.1449    1.7715   -0.9611 C   0  0  0  0  0  0  0  0  0  0  0  0
   -1.0166    0.2609   -0.9444 C   0  0  1  0  0  0  0  0  0  0  0  0
    0.2220   -0.5189   -1.2369 C   0  0  1  0  0  0  0  0  0  0  0  0
    1.4693    0.2020   -0.7093 C   0  0  0  0  0  0  0  0  0  0  0  0
    0.8302    0.1025    0.7003 C   0  0  0  0  0  0  0  0  0  0  0  0
    1.2661    0.2720    1.8058 O   0  0  0  0  0  0  0  0  0  0  0  0
   -0.4169   -0.5634    0.1939 C   0  0  1  0  0  0  0  0  0  0  0  0
   -1.1832   -1.6194    0.9392 C   0  0  0  0  0  0  0  0  0  0  0  0
   -0.2588    2.2747   -0.5673 H   0  0  0  0  0  0  0  0  0  0  0  0
   -1.3094    2.1331   -1.9822 H   0  0  0  0  0  0  0  0  0  0  0  0
   -1.9987    2.0896   -0.3540 H   0  0  0  0  0  0  0  0  0  0  0  0
   -1.9103   -0.2375   -1.3191 H   0  0  0  0  0  0  0  0  0  0  0  0
    0.2423   -1.3345   -1.9490 H   0  0  0  0  0  0  0  0  0  0  0  0
    2.3763   -0.4091   -0.7412 H   0  0  0  0  0  0  0  0  0  0  0  0
    1.6970    1.1927   -1.1115 H   0  0  0  0  0  0  0  0  0  0  0  0
   -1.7861   -1.1737    1.7378 H   0  0  0  0  0  0  0  0  0  0  0  0
   -1.8624   -2.1593    0.2718 H   0  0  0  0  0  0  0  0  0  0  0  0
   -0.5084   -2.3460    1.4031 H   0  0  0  0  0  0  0  0  0  0  0  0
  1  2  1  0  0  0  0
  1  9  1  0  0  0  0
  1 11  1  0  0  0  0
  2  3  1  6  0  0  0
  3  4  1  0  0  0  0
  3  7  1  1  0  0  0
  4  5  1  0  0  0  0
  5  6  2  0  0  0  0
  7  2  1  6  0  0  0
  7  5  1  0  0  0  0
  7  8  1  0  0  0  0
  8 18  1  0  0  0  0
  8 16  1  0  0  0  0
 10  1  1  0  0  0  0
 12  2  1  0  0  0  0
 13  3  1  0  0  0  0
 14  4  1  0  0  0  0
 15  4  1  0  0  0  0
 17  8  1  0  0  0  0
M  END
