14
title
C -0.032972634 2.2783144 0.17483775
C -0.005120842 0.7792555 0.17394927
C -0.9362602 -0.13113032 1.0272171
O -1.7741891 -1.1125196 0.5369665
C 0.529929 -0.2894267 1.1312141
O 0.9580941 -1.1197672 0.013763716
C 0.5953468 -0.10190443 -0.8830983
O 0.80239254 -0.07528404 -2.0502598
H 0.959123 2.6995971 -0.015805462
H -0.71040946 2.648124 -0.6012809
H -0.38578224 2.662494 1.1364359
H -1.4170842 0.4332693 1.8225906
H -1.221024 -1.788186 0.12250803
H 1.1943257 -0.23700403 1.9836373
