title
 OpenBabel02282110003D

 16 17  0  0  1  0  0  0  0  0999 V2000
   -1.5491    1.7417    0.2287 C   0  0  0  0  0  0  0  0  0  0  0  0
   -1.3809    0.2363    0.1767 C   0  0  1  0  0  0  0  0  0  0  0  0
   -0.7852   -0.5517   -0.9498 C   0  0  1  0  0  0  0  0  0  0  0  0
    0.3906    0.1983   -1.5867 C   0  0  0  0  0  0  0  0  0  0  0  0
    1.0930    0.1384   -0.2001 C   0  0  0  0  0  0  0  0  0  0  0  0
    2.2205    0.3351    0.1535 O   0  0  0  0  0  0  0  0  0  0  0  0
   -0.0912   -0.5317    0.4489 C   0  0  1  0  0  0  0  0  0  0  0  0
   -0.0143   -1.5321    1.3902 O   0  0  0  0  0  0  0  0  0  0  0  0
   -0.7028    2.2754   -0.2099 H   0  0  0  0  0  0  0  0  0  0  0  0
   -2.4526    2.0476   -0.3100 H   0  0  0  0  0  0  0  0  0  0  0  0
   -1.6495    2.0828    1.2645 H   0  0  0  0  0  0  0  0  0  0  0  0
   -2.2032   -0.3061    0.6431 H   0  0  0  0  0  0  0  0  0  0  0  0
   -1.2904   -1.3987   -1.3946 H   0  0  0  0  0  0  0  0  0  0  0  0
    0.9536   -0.4013   -2.3080 H   0  0  0  0  0  0  0  0  0  0  0  0
    0.1941    1.1830   -2.0175 H   0  0  0  0  0  0  0  0  0  0  0  0
   -0.1876   -1.1570    2.2603 H   0  0  0  0  0  0  0  0  0  0  0  0
  1 11  1  0  0  0  0
  2  3  1  6  0  0  0
  2  1  1  0  0  0  0
  2 12  1  0  0  0  0
  3  7  1  1  0  0  0
  4  3  1  0  0  0  0
  4  5  1  0  0  0  0
  5  6  2  0  0  0  0
  5  7  1  0  0  0  0
  7  2  1  1  0  0  0
  7  8  1  0  0  0  0
  8 16  1  0  0  0  0
  9  1  1  0  0  0  0
 10  1  1  0  0  0  0
 13  3  1  0  0  0  0
 14  4  1  0  0  0  0
 15  4  1  0  0  0  0
M  END
