14
title
N 1.3210319 1.6841836 -0.57821304
C 1.310127 0.25585946 -0.4364798
C 0.9040775 -0.5139449 0.7736751
O -0.1292108 0.23434871 1.4713523
C -1.0053099 0.06789515 0.39379
O -2.163369 0.32741547 0.36238086
C 0.030510815 -0.5917762 -0.49015808
N -0.14220223 -1.5981971 -1.4654336
H 0.71386826 2.1046908 0.120576315
H 2.2565992 2.0343845 -0.39297763
H 2.0868561 -0.2338679 -1.0196893
H 1.418205 -1.2844355 1.33148
H -0.9136391 -2.2158651 -1.2356361
H -0.32318208 -1.1984379 -2.3802557
