title
 OpenBabel02282110003D

 14 15  0  0  1  0  0  0  0  0999 V2000
   -0.2332    2.1610   -0.1864 N   0  0  0  0  0  0  0  0  0  0  0  0
   -0.1480    0.7555   -0.0861 C   0  0  2  0  0  0  0  0  0  0  0  0
   -0.4821   -0.1546   -1.2887 C   0  0  1  0  0  0  0  0  0  0  0  0
    0.3560   -1.1166   -1.8235 O   0  0  0  0  0  0  0  0  0  0  0  0
   -1.2369   -0.3398   -0.0308 C   0  0  1  0  0  0  0  0  0  0  0  0
   -0.4074   -1.1339    0.8643 O   0  0  0  0  0  0  0  0  0  0  0  0
    0.5269   -0.0857    0.9506 C   0  0  0  0  0  0  0  0  0  0  0  0
    1.5029    0.0638    1.7189 N   0  0  0  0  0  0  0  0  0  0  0  0
   -0.2445    2.5957    0.7309 H   0  0  0  0  0  0  0  0  0  0  0  0
    0.5586    2.5394   -0.6963 H   0  0  0  0  0  0  0  0  0  0  0  0
   -0.9956    0.4092   -2.0625 H   0  0  0  0  0  0  0  0  0  0  0  0
    0.4994   -1.7820   -1.1378 H   0  0  0  0  0  0  0  0  0  0  0  0
   -2.2992   -0.3130    0.1711 H   0  0  0  0  0  0  0  0  0  0  0  0
    1.6196   -0.7339    2.3454 H   0  0  0  0  0  0  0  0  0  0  0  0
  1  2  1  0  0  0  0
  1  9  1  0  0  0  0
  2  3  1  6  0  0  0
  2  7  1  0  0  0  0
  3  5  1  1  0  0  0
  4  3  1  0  0  0  0
  4 12  1  0  0  0  0
  5  2  1  1  0  0  0
  5 13  1  0  0  0  0
  5  6  1  0  0  0  0
  6  7  1  0  0  0  0
  7  8  2  0  0  0  0
  8 14  1  0  0  0  0
 10  1  1  0  0  0  0
 11  3  1  0  0  0  0
M  END
