15
title
N 1.3332088 1.67468 -0.58808786
C 1.3052819 0.24704649 -0.42907056
C 0.8933928 -0.5127075 0.79160714
O -0.14610736 0.23425516 1.4823823
C -1.0048987 0.07571034 0.39072612
N -2.2288408 0.3192318 0.2783074
C 0.025138449 -0.58226603 -0.4801475
N -0.16119234 -1.5960422 -1.448618
H 0.64520246 2.1022782 0.02560466
H 2.2384617 2.0297997 -0.2920706
H 2.087418 -0.2572804 -0.99248135
H 1.4161353 -1.2728723 1.3564912
H -2.61274 0.71830124 1.1365247
H -0.96384805 -2.1733596 -1.2179182
H -0.3303432 -1.1922169 -2.3644972
