title
 OpenBabel02282110003D

 17 18  0  0  1  0  0  0  0  0999 V2000
   -1.2276    1.5110   -0.9968 C   0  0  0  0  0  0  0  0  0  0  0  0
   -1.0003    0.0704   -0.9293 N   0  0  0  0  0  0  0  0  0  0  0  0
    0.2675   -0.5533   -1.1928 C   0  0  1  0  0  0  0  0  0  0  0  0
    1.4551    0.2999   -0.7175 C   0  0  0  0  0  0  0  0  0  0  0  0
    0.8182    0.2277    0.6967 C   0  0  0  0  0  0  0  0  0  0  0  0
    1.2103    0.5272    1.7886 O   0  0  0  0  0  0  0  0  0  0  0  0
   -0.3650   -0.5932    0.2074 C   0  0  1  0  0  0  0  0  0  0  0  0
   -1.0994   -1.6440    0.9836 C   0  0  0  0  0  0  0  0  0  0  0  0
   -0.4020    2.1400   -0.6394 H   0  0  0  0  0  0  0  0  0  0  0  0
   -1.4385    1.7776   -2.0370 H   0  0  0  0  0  0  0  0  0  0  0  0
   -2.1143    1.7454   -0.4013 H   0  0  0  0  0  0  0  0  0  0  0  0
    0.3147   -1.3670   -1.9084 H   0  0  0  0  0  0  0  0  0  0  0  0
    2.4112   -0.2324   -0.7172 H   0  0  0  0  0  0  0  0  0  0  0  0
    1.5951    1.2792   -1.1817 H   0  0  0  0  0  0  0  0  0  0  0  0
   -1.7482   -1.1847    1.7371 H   0  0  0  0  0  0  0  0  0  0  0  0
   -1.7253   -2.2403    0.3151 H   0  0  0  0  0  0  0  0  0  0  0  0
   -0.4011   -2.3051    1.5059 H   0  0  0  0  0  0  0  0  0  0  0  0
  1  2  1  0  0  0  0
  1  9  1  0  0  0  0
  1 11  1  0  0  0  0
  2  7  1  0  0  0  0
  3  2  1  0  0  0  0
  3  4  1  0  0  0  0
  3  7  1  1  0  0  0
  4 13  1  0  0  0  0
  4  5  1  0  0  0  0
  5  6  2  0  0  0  0
  7  5  1  0  0  0  0
  7  8  1  1  0  0  0
  8 17  1  0  0  0  0
  8 15  1  0  0  0  0
 10  1  1  0  0  0  0
 12  3  1  0  0  0  0
 14  4  1  0  0  0  0
 16  8  1  0  0  0  0
M  END
