13
title
N -0.24397062 2.1689262 -0.20315626
C -0.15661609 0.76718307 -0.08850078
C -0.48648122 -0.15667169 -1.2970196
O 0.35506675 -1.1160098 -1.82209
C -1.2371715 -0.3312195 -0.039168164
O -0.4105002 -1.1307184 0.85117483
C 0.52653867 -0.08431356 0.95097536
O 1.4458226 -0.019823955 1.6968467
H -0.29450765 2.6246798 0.70162845
H 0.5457887 2.554639 -0.70940155
H -0.98568887 0.41402194 -2.0753026
H 0.4836689 -1.7915369 -1.1428368
H -2.2967682 -0.28937048 0.17154722
