title
 OpenBabel02282110003D

 15 16  0  0  1  0  0  0  0  0999 V2000
   -1.1099    1.7659   -0.9856 C   0  0  0  0  0  0  0  0  0  0  0  0
   -1.0411    0.2565   -0.9341 C   0  0  1  0  0  0  0  0  0  0  0  0
    0.1935   -0.5412   -1.1474 C   0  0  1  0  0  0  0  0  0  0  0  0
    1.3423    0.1809   -0.6241 O   0  0  0  0  0  0  0  0  0  0  0  0
    0.8390    0.0738    0.6720 C   0  0  0  0  0  0  0  0  0  0  0  0
    1.3892    0.3577    1.6858 O   0  0  0  0  0  0  0  0  0  0  0  0
   -0.4575   -0.5756    0.2293 C   0  0  1  0  0  0  0  0  0  0  0  0
   -1.2304   -1.5646    0.8790 N   0  0  0  0  0  0  0  0  0  0  0  0
   -0.1614    2.2187   -0.6894 H   0  0  0  0  0  0  0  0  0  0  0  0
   -1.3357    2.0976   -2.0043 H   0  0  0  0  0  0  0  0  0  0  0  0
   -1.8970    2.1454   -0.3269 H   0  0  0  0  0  0  0  0  0  0  0  0
   -1.9257   -0.2595   -1.3055 H   0  0  0  0  0  0  0  0  0  0  0  0
    0.3897   -1.3271   -1.8626 H   0  0  0  0  0  0  0  0  0  0  0  0
   -0.6480   -2.2030    1.4110 H   0  0  0  0  0  0  0  0  0  0  0  0
   -1.9000   -1.1512    1.5197 H   0  0  0  0  0  0  0  0  0  0  0  0
  1  2  1  0  0  0  0
  1  9  1  0  0  0  0
  1 11  1  0  0  0  0
  2  3  1  6  0  0  0
  3  4  1  0  0  0  0
  3  7  1  1  0  0  0
  4  5  1  0  0  0  0
  5  6  2  0  0  0  0
  7  2  1  6  0  0  0
  7  5  1  0  0  0  0
  7  8  1  0  0  0  0
  8 14  1  0  0  0  0
  8 15  1  0  0  0  0
 10  1  1  0  0  0  0
 12  2  1  0  0  0  0
 13  3  1  0  0  0  0
M  END
