title
 OpenBabel02282110003D

 17 18  0  0  1  0  0  0  0  0999 V2000
   -1.2231    1.7143   -0.9396 C   0  0  0  0  0  0  0  0  0  0  0  0
   -1.0830    0.2101   -0.8292 C   0  0  1  0  0  0  0  0  0  0  0  0
    0.1032   -0.5701   -1.2020 N   0  0  1  0  0  0  0  0  0  0  0  0
    1.3049    0.2475   -0.8131 C   0  0  0  0  0  0  0  0  0  0  0  0
    0.8638    0.1785    0.6592 C   0  0  0  0  0  0  0  0  0  0  0  0
    1.4095    0.3632    1.7103 O   0  0  0  0  0  0  0  0  0  0  0  0
   -0.3956   -0.5430    0.2674 C   0  0  1  0  0  0  0  0  0  0  0  0
   -0.9911   -1.7014    1.0094 C   0  0  0  0  0  0  0  0  0  0  0  0
   -0.4051    2.2686   -0.4769 H   0  0  0  0  0  0  0  0  0  0  0  0
   -1.2916    2.0137   -1.9911 H   0  0  0  0  0  0  0  0  0  0  0  0
   -2.1491    2.0259   -0.4461 H   0  0  0  0  0  0  0  0  0  0  0  0
   -1.9765   -0.3126   -1.1706 H   0  0  0  0  0  0  0  0  0  0  0  0
    2.2209   -0.3282   -0.9725 H   0  0  0  0  0  0  0  0  0  0  0  0
    1.3979    1.2177   -1.3059 H   0  0  0  0  0  0  0  0  0  0  0  0
   -1.5515   -1.3463    1.8808 H   0  0  0  0  0  0  0  0  0  0  0  0
   -1.6764   -2.2614    0.3674 H   0  0  0  0  0  0  0  0  0  0  0  0
   -0.2132   -2.3828    1.3667 H   0  0  0  0  0  0  0  0  0  0  0  0
  1  2  1  0  0  0  0
  1  9  1  0  0  0  0
  1 11  1  0  0  0  0
  2  3  1  6  0  0  0
  3  4  1  0  0  0  0
  3  7  1  1  0  0  0
  4  5  1  0  0  0  0
  5  6  2  0  0  0  0
  7  2  1  1  0  0  0
  7  5  1  0  0  0  0
  7  8  1  0  0  0  0
  8 17  1  0  0  0  0
  8 15  1  0  0  0  0
 10  1  1  0  0  0  0
 12  2  1  0  0  0  0
 13  4  1  0  0  0  0
 14  4  1  0  0  0  0
 16  8  1  0  0  0  0
M  END
