title
 OpenBabel02282110003D

 14 15  0  0  1  0  0  0  0  0999 V2000
   -0.2592    2.1422   -0.2734 N   0  0  0  0  0  0  0  0  0  0  0  0
   -0.1808    0.7368   -0.1179 C   0  0  2  0  0  0  0  0  0  0  0  0
   -0.4639   -0.1889   -1.2845 C   0  0  1  0  0  0  0  0  0  0  0  0
    0.4946   -1.1289   -1.6605 O   0  0  0  0  0  0  0  0  0  0  0  0
   -1.3013   -0.3319   -0.0485 C   0  0  1  0  0  0  0  0  0  0  0  0
   -0.5706   -1.0175    1.0199 N   0  0  0  0  0  0  0  0  0  0  0  0
    0.5066   -0.1003    0.9652 C   0  0  0  0  0  0  0  0  0  0  0  0
    1.5268   -0.0321    1.5858 O   0  0  0  0  0  0  0  0  0  0  0  0
   -0.3062    2.6071    0.6275 H   0  0  0  0  0  0  0  0  0  0  0  0
    0.5591    2.4986   -0.7572 H   0  0  0  0  0  0  0  0  0  0  0  0
   -0.9517    0.3387   -2.1060 H   0  0  0  0  0  0  0  0  0  0  0  0
    0.0518   -1.8284   -2.1535 H   0  0  0  0  0  0  0  0  0  0  0  0
   -2.3712   -0.1823    0.0136 H   0  0  0  0  0  0  0  0  0  0  0  0
   -0.3830   -2.0131    0.9742 H   0  0  0  0  0  0  0  0  0  0  0  0
  1  2  1  0  0  0  0
  1  9  1  0  0  0  0
  2  3  1  6  0  0  0
  2  7  1  0  0  0  0
  3  5  1  1  0  0  0
  4  3  1  0  0  0  0
  5  2  1  1  0  0  0
  5 13  1  0  0  0  0
  5  6  1  0  0  0  0
  7  6  1  0  0  0  0
  7  8  2  0  0  0  0
 10  1  1  0  0  0  0
 11  3  1  0  0  0  0
 12  4  1  0  0  0  0
 14  6  1  0  0  0  0
M  END
