15
title
C -1.1098589 1.7658861 -0.98560435
C -1.0411046 0.25651458 -0.93407804
C 0.19353673 -0.541178 -1.1474495
O 1.3423373 0.18091951 -0.6241183
C 0.8389895 0.07380785 0.6720174
O 1.3891557 0.35774833 1.6858052
C -0.45752808 -0.5755996 0.22925667
N -1.2304001 -1.5645926 0.87901896
H -0.16144231 2.2187307 -0.6894357
H -1.3357214 2.0976343 -2.0042922
H -1.8970038 2.1454234 -0.3269033
H -1.9256892 -0.25953844 -1.3055308
H 0.38966438 -1.3270689 -1.8626497
H -0.648045 -2.2030358 1.4109889
H -1.8999591 -1.1511565 1.5196599
