title
 OpenBabel02282110003D

 14 15  0  0  1  0  0  0  0  0999 V2000
   -1.1413    1.7621   -0.9808 C   0  0  0  0  0  0  0  0  0  0  0  0
   -1.0470    0.2542   -0.9243 C   0  0  1  0  0  0  0  0  0  0  0  0
    0.1998   -0.5348   -1.1664 C   0  0  1  0  0  0  0  0  0  0  0  0
    1.3436    0.1955   -0.6384 O   0  0  0  0  0  0  0  0  0  0  0  0
    0.8551    0.0735    0.6614 C   0  0  0  0  0  0  0  0  0  0  0  0
    1.4138    0.3377    1.6746 O   0  0  0  0  0  0  0  0  0  0  0  0
   -0.4443   -0.5635    0.2175 C   0  0  1  0  0  0  0  0  0  0  0  0
   -1.2155   -1.4512    0.9163 O   0  0  0  0  0  0  0  0  0  0  0  0
   -0.1964    2.2297   -0.6960 H   0  0  0  0  0  0  0  0  0  0  0  0
   -1.3840    2.0880   -1.9973 H   0  0  0  0  0  0  0  0  0  0  0  0
   -1.9258    2.1272   -0.3116 H   0  0  0  0  0  0  0  0  0  0  0  0
   -1.9280   -0.2771   -1.2854 H   0  0  0  0  0  0  0  0  0  0  0  0
    0.4011   -1.3008   -1.9015 H   0  0  0  0  0  0  0  0  0  0  0  0
   -0.6414   -2.1088    1.3270 H   0  0  0  0  0  0  0  0  0  0  0  0
  1  2  1  0  0  0  0
  1  9  1  0  0  0  0
  1 11  1  0  0  0  0
  2  3  1  6  0  0  0
  3  4  1  0  0  0  0
  3  7  1  1  0  0  0
  4  5  1  0  0  0  0
  5  6  2  0  0  0  0
  7  2  1  6  0  0  0
  7  5  1  0  0  0  0
  7  8  1  0  0  0  0
  8 14  1  0  0  0  0
 10  1  1  0  0  0  0
 12  2  1  0  0  0  0
 13  3  1  0  0  0  0
M  END
