20
title
C -1.0926753 1.5990142 -1.1578411
C -0.96412456 0.10587141 -0.9289296
C 0.27924767 -0.7292422 -1.1580358
C 1.5356011 -0.0074304803 -0.65143913
C 0.942456 -0.016300553 0.8013525
C 0.9136915 1.2423486 1.6622971
C -0.34776255 -0.6280899 0.23469304
O -1.0483557 -1.6169235 0.9148598
H -0.16182014 2.136761 -0.96805173
H -1.3763353 1.7984551 -2.1974087
H -1.8650361 2.037635 -0.5157159
H -1.8447425 -0.446667 -1.2567439
H 0.27756575 -1.5669918 -1.844873
H 2.4472952 -0.60137326 -0.74209934
H 1.7269075 0.97904617 -1.0858134
H 1.4419901 -0.81444347 1.3613936
H 0.4372379 2.085968 1.1561648
H 0.36449304 1.0603498 2.5933926
H 1.9287324 1.5499164 1.9377965
H -1.827176 -1.2167909 1.3151027
