14
title
O 0.7553438 1.6051099 1.3321223
C 0.79383874 0.22215568 1.1305833
C -0.4723445 -0.5443731 1.1420653
C -1.5673745 0.23979786 0.41053203
C -0.7136324 0.08611672 -0.86668664
O -0.9979598 0.026795011 -2.036676
C 0.48767698 -0.44663963 -0.17653576
O 1.3987485 -1.2748978 -0.7647329
H 1.484456 2.001687 0.8433744
H 1.6226208 -0.28595397 1.6289905
H -0.63704795 -1.409383 1.7703452
H -2.5180504 -0.28754953 0.30691478
H -1.7339928 1.2559379 0.76939946
H 0.9697673 -1.6632063 -1.5396868
