title
 OpenBabel02282110003D

 14 15  0  0  1  0  0  0  0  0999 V2000
    1.4171    1.5922   -0.1114 O   0  0  0  0  0  0  0  0  0  0  0  0
    1.3212    0.2163   -0.3158 C   0  0  1  0  0  0  0  0  0  0  0  0
    0.8511   -0.6597    0.8003 C   0  0  1  0  0  0  0  0  0  0  0  0
   -0.2552   -0.0348    1.5394 N   0  0  0  0  0  0  0  0  0  0  0  0
   -1.0412    0.0909    0.3502 C   0  0  0  0  0  0  0  0  0  0  0  0
   -2.2194    0.4601    0.0948 N   0  0  0  0  0  0  0  0  0  0  0  0
    0.0164   -0.5225   -0.5148 C   0  0  1  0  0  0  0  0  0  0  0  0
   -0.1705   -1.3154   -1.6147 O   0  0  0  0  0  0  0  0  0  0  0  0
    1.1087    2.0396   -0.9069 H   0  0  0  0  0  0  0  0  0  0  0  0
    2.1189   -0.2249   -0.9177 H   0  0  0  0  0  0  0  0  0  0  0  0
    1.3968   -1.4959    1.2176 H   0  0  0  0  0  0  0  0  0  0  0  0
   -0.0376    0.8322    2.0234 H   0  0  0  0  0  0  0  0  0  0  0  0
   -2.6909    0.8046    0.9337 H   0  0  0  0  0  0  0  0  0  0  0  0
   -0.9722   -1.8336   -1.4754 H   0  0  0  0  0  0  0  0  0  0  0  0
  2  7  1  6  0  0  0
  2  1  1  0  0  0  0
  2  3  1  0  0  0  0
  3  7  1  6  0  0  0
  3 11  1  0  0  0  0
  3  4  1  0  0  0  0
  4 12  1  0  0  0  0
  5  4  1  0  0  0  0
  6  5  2  0  0  0  0
  6 13  1  0  0  0  0
  7  8  1  6  0  0  0
  7  5  1  0  0  0  0
  8 14  1  0  0  0  0
  9  1  1  0  0  0  0
 10  2  1  0  0  0  0
M  END
