title
 OpenBabel02282110003D

 14 15  0  0  1  0  0  0  0  0999 V2000
    0.7553    1.6051    1.3321 O   0  0  0  0  0  0  0  0  0  0  0  0
    0.7938    0.2222    1.1306 C   0  0  1  0  0  0  0  0  0  0  0  0
   -0.4723   -0.5444    1.1421 C   0  0  1  0  0  0  0  0  0  0  0  0
   -1.5674    0.2398    0.4105 C   0  0  0  0  0  0  0  0  0  0  0  0
   -0.7136    0.0861   -0.8667 C   0  0  0  0  0  0  0  0  0  0  0  0
   -0.9980    0.0268   -2.0367 O   0  0  0  0  0  0  0  0  0  0  0  0
    0.4877   -0.4466   -0.1765 C   0  0  1  0  0  0  0  0  0  0  0  0
    1.3987   -1.2749   -0.7647 O   0  0  0  0  0  0  0  0  0  0  0  0
    1.4845    2.0017    0.8434 H   0  0  0  0  0  0  0  0  0  0  0  0
    1.6226   -0.2860    1.6290 H   0  0  0  0  0  0  0  0  0  0  0  0
   -0.6370   -1.4094    1.7703 H   0  0  0  0  0  0  0  0  0  0  0  0
   -2.5181   -0.2875    0.3069 H   0  0  0  0  0  0  0  0  0  0  0  0
   -1.7340    1.2559    0.7694 H   0  0  0  0  0  0  0  0  0  0  0  0
    0.9698   -1.6632   -1.5397 H   0  0  0  0  0  0  0  0  0  0  0  0
  2  7  1  6  0  0  0
  2  3  1  0  0  0  0
  2  1  1  0  0  0  0
  2 10  1  0  0  0  0
  3  7  1  6  0  0  0
  3 11  1  0  0  0  0
  4 13  1  0  0  0  0
  4  3  1  0  0  0  0
  5  7  1  0  0  0  0
  5  4  1  0  0  0  0
  6  5  2  0  0  0  0
  7  8  1  6  0  0  0
  9  1  1  0  0  0  0
 12  4  1  0  0  0  0
 14  8  1  0  0  0  0
M  END
