title
 OpenBabel02282110003D

 13 14  0  0  1  0  0  0  0  0999 V2000
    1.3901    1.6129   -0.4748 O   0  0  0  0  0  0  0  0  0  0  0  0
    1.2869    0.2338   -0.4660 C   0  0  1  0  0  0  0  0  0  0  0  0
    0.8874   -0.5508    0.7311 C   0  0  1  0  0  0  0  0  0  0  0  0
   -0.0969    0.2400    1.4580 O   0  0  0  0  0  0  0  0  0  0  0  0
   -1.0180    0.0940    0.4030 C   0  0  0  0  0  0  0  0  0  0  0  0
   -2.2260    0.4025    0.3333 N   0  0  0  0  0  0  0  0  0  0  0  0
   -0.0272   -0.5821   -0.4936 C   0  0  1  0  0  0  0  0  0  0  0  0
   -0.2796   -1.6009   -1.3729 O   0  0  0  0  0  0  0  0  0  0  0  0
    0.9627    1.9358    0.3292 H   0  0  0  0  0  0  0  0  0  0  0  0
    2.0421   -0.2347   -1.0927 H   0  0  0  0  0  0  0  0  0  0  0  0
    1.4131   -1.3187    1.2826 H   0  0  0  0  0  0  0  0  0  0  0  0
   -2.5599    0.8370    1.1949 H   0  0  0  0  0  0  0  0  0  0  0  0
   -0.4688   -1.2198   -2.2381 H   0  0  0  0  0  0  0  0  0  0  0  0
  1  2  1  0  0  0  0
  1  9  1  0  0  0  0
  2  7  1  6  0  0  0
  2  3  1  0  0  0  0
  3  7  1  6  0  0  0
  3 11  1  0  0  0  0
  3  4  1  0  0  0  0
  5  4  1  0  0  0  0
  6  5  2  0  0  0  0
  6 12  1  0  0  0  0
  7  8  1  6  0  0  0
  7  5  1  0  0  0  0
 10  2  1  0  0  0  0
 13  8  1  0  0  0  0
M  END
