20
title
C -1.1139622 1.5986111 -1.0031902
C -0.9756274 0.09188707 -0.9038663
C 0.26781937 -0.70423293 -1.1964502
C 1.5182918 0.027734287 -0.7005238
C 0.92540944 -0.030982755 0.7488431
O 0.72097015 1.1618568 1.4819189
C -0.34690502 -0.69307595 0.22322498
C -1.0885056 -1.7601621 0.9801098
H -0.26510862 2.1230738 -0.5651893
H -1.2188151 1.9083724 -2.0496752
H -2.0083451 1.9334694 -0.46646005
H -1.8612792 -0.43008786 -1.2663419
H 0.27237353 -1.5192155 -1.9113294
H 2.4407547 -0.5491838 -0.80112326
H 1.684337 1.0295031 -1.1081749
H 1.4925333 -0.7547037 1.3518735
H 1.5730091 1.458943 1.8170434
H -1.6512815 -1.3314346 1.818098
H -1.8044032 -2.2795293 0.33459795
H -0.40387365 -2.511547 1.3917004
