12
title
O 1.3927252 1.6143546 -0.4646542
C 1.2989386 0.23781188 -0.46204066
C 0.89219564 -0.55624014 0.7215174
O -0.088735506 0.23450358 1.4497597
C -1.0189887 0.08750616 0.40266198
O -2.156966 0.41184396 0.40630853
C -0.019158408 -0.5886241 -0.50466514
O -0.269666 -1.5927782 -1.39827
H 0.97740847 1.9354151 0.3470117
H 2.0507817 -0.22158498 -1.1000557
H 1.4048966 -1.3374143 1.2656568
H -0.3531057 -1.212272 -2.280197
