title
 OpenBabel02282110003D

 13 14  0  0  1  0  0  0  0  0999 V2000
    1.1945    1.6537   -0.4464 O   0  0  0  0  0  0  0  0  0  0  0  0
    1.2821    0.2641   -0.4552 C   0  0  1  0  0  0  0  0  0  0  0  0
    0.9383   -0.5872    0.7413 C   0  0  1  0  0  0  0  0  0  0  0  0
   -0.1325    0.0185    1.5388 N   0  0  0  0  0  0  0  0  0  0  0  0
   -1.0124    0.0893    0.4353 C   0  0  0  0  0  0  0  0  0  0  0  0
   -2.1221    0.5168    0.3212 O   0  0  0  0  0  0  0  0  0  0  0  0
    0.0182   -0.5802   -0.4821 C   0  0  1  0  0  0  0  0  0  0  0  0
   -0.2014   -1.5825   -1.3931 O   0  0  0  0  0  0  0  0  0  0  0  0
    2.0050    2.0070   -0.0631 H   0  0  0  0  0  0  0  0  0  0  0  0
    2.0572   -0.1588   -1.0984 H   0  0  0  0  0  0  0  0  0  0  0  0
    1.5387   -1.3966    1.1359 H   0  0  0  0  0  0  0  0  0  0  0  0
    0.0311    0.8384    2.1129 H   0  0  0  0  0  0  0  0  0  0  0  0
   -0.4824   -1.1820   -2.2239 H   0  0  0  0  0  0  0  0  0  0  0  0
  1  9  1  0  0  0  0
  2  7  1  6  0  0  0
  2  1  1  0  0  0  0
  2  3  1  0  0  0  0
  3  7  1  6  0  0  0
  3 11  1  0  0  0  0
  3  4  1  0  0  0  0
  4 12  1  0  0  0  0
  5  4  1  0  0  0  0
  6  5  2  0  0  0  0
  7  8  1  6  0  0  0
  7  5  1  0  0  0  0
 10  2  1  0  0  0  0
 13  8  1  0  0  0  0
M  END
