title
 OpenBabel02282110003D

 20 21  0  0  1  0  0  0  0  0999 V2000
   -1.1140    1.5986   -1.0032 C   0  0  0  0  0  0  0  0  0  0  0  0
   -0.9756    0.0919   -0.9039 C   0  0  1  0  0  0  0  0  0  0  0  0
    0.2678   -0.7042   -1.1965 C   0  0  1  0  0  0  0  0  0  0  0  0
    1.5183    0.0277   -0.7005 C   0  0  0  0  0  0  0  0  0  0  0  0
    0.9254   -0.0310    0.7488 C   0  0  1  0  0  0  0  0  0  0  0  0
    0.7210    1.1619    1.4819 O   0  0  0  0  0  0  0  0  0  0  0  0
   -0.3469   -0.6931    0.2232 C   0  0  1  0  0  0  0  0  0  0  0  0
   -1.0885   -1.7602    0.9801 C   0  0  0  0  0  0  0  0  0  0  0  0
   -0.2651    2.1231   -0.5652 H   0  0  0  0  0  0  0  0  0  0  0  0
   -1.2188    1.9084   -2.0497 H   0  0  0  0  0  0  0  0  0  0  0  0
   -2.0083    1.9335   -0.4665 H   0  0  0  0  0  0  0  0  0  0  0  0
   -1.8613   -0.4301   -1.2663 H   0  0  0  0  0  0  0  0  0  0  0  0
    0.2724   -1.5192   -1.9113 H   0  0  0  0  0  0  0  0  0  0  0  0
    2.4408   -0.5492   -0.8011 H   0  0  0  0  0  0  0  0  0  0  0  0
    1.6843    1.0295   -1.1082 H   0  0  0  0  0  0  0  0  0  0  0  0
    1.4925   -0.7547    1.3519 H   0  0  0  0  0  0  0  0  0  0  0  0
    1.5730    1.4589    1.8170 H   0  0  0  0  0  0  0  0  0  0  0  0
   -1.6513   -1.3314    1.8181 H   0  0  0  0  0  0  0  0  0  0  0  0
   -1.8044   -2.2795    0.3346 H   0  0  0  0  0  0  0  0  0  0  0  0
   -0.4039   -2.5115    1.3917 H   0  0  0  0  0  0  0  0  0  0  0  0
  1  2  1  0  0  0  0
  1  9  1  0  0  0  0
  1 11  1  0  0  0  0
  2  3  1  6  0  0  0
  3  4  1  0  0  0  0
  3  7  1  1  0  0  0
  4  5  1  0  0  0  0
  5  7  1  6  0  0  0
  5 16  1  0  0  0  0
  5  6  1  0  0  0  0
  6 17  1  0  0  0  0
  7  2  1  6  0  0  0
  7  8  1  0  0  0  0
  8 20  1  0  0  0  0
  8 18  1  0  0  0  0
 10  1  1  0  0  0  0
 12  2  1  0  0  0  0
 13  3  1  0  0  0  0
 14  4  1  0  0  0  0
 15  4  1  0  0  0  0
 19  8  1  0  0  0  0
M  END
