title
 OpenBabel02282110003D

 20 21  0  0  1  0  0  0  0  0999 V2000
   -1.0927    1.5990   -1.1578 C   0  0  0  0  0  0  0  0  0  0  0  0
   -0.9641    0.1059   -0.9289 C   0  0  1  0  0  0  0  0  0  0  0  0
    0.2792   -0.7292   -1.1580 C   0  0  1  0  0  0  0  0  0  0  0  0
    1.5356   -0.0074   -0.6514 C   0  0  0  0  0  0  0  0  0  0  0  0
    0.9425   -0.0163    0.8014 C   0  0  1  0  0  0  0  0  0  0  0  0
    0.9137    1.2423    1.6623 C   0  0  0  0  0  0  0  0  0  0  0  0
   -0.3478   -0.6281    0.2347 C   0  0  1  0  0  0  0  0  0  0  0  0
   -1.0484   -1.6169    0.9149 O   0  0  0  0  0  0  0  0  0  0  0  0
   -0.1618    2.1368   -0.9681 H   0  0  0  0  0  0  0  0  0  0  0  0
   -1.3763    1.7985   -2.1974 H   0  0  0  0  0  0  0  0  0  0  0  0
   -1.8650    2.0376   -0.5157 H   0  0  0  0  0  0  0  0  0  0  0  0
   -1.8447   -0.4467   -1.2567 H   0  0  0  0  0  0  0  0  0  0  0  0
    0.2776   -1.5670   -1.8449 H   0  0  0  0  0  0  0  0  0  0  0  0
    2.4473   -0.6014   -0.7421 H   0  0  0  0  0  0  0  0  0  0  0  0
    1.7269    0.9790   -1.0858 H   0  0  0  0  0  0  0  0  0  0  0  0
    1.4420   -0.8144    1.3614 H   0  0  0  0  0  0  0  0  0  0  0  0
    0.4372    2.0860    1.1562 H   0  0  0  0  0  0  0  0  0  0  0  0
    0.3645    1.0603    2.5934 H   0  0  0  0  0  0  0  0  0  0  0  0
    1.9287    1.5499    1.9378 H   0  0  0  0  0  0  0  0  0  0  0  0
   -1.8272   -1.2168    1.3151 H   0  0  0  0  0  0  0  0  0  0  0  0
  1  9  1  0  0  0  0
  1  2  1  0  0  0  0
  1 11  1  0  0  0  0
  2  3  1  6  0  0  0
  3  4  1  0  0  0  0
  3  7  1  1  0  0  0
  4  5  1  0  0  0  0
  5  7  1  6  0  0  0
  5 16  1  0  0  0  0
  5  6  1  0  0  0  0
  6 19  1  0  0  0  0
  6 18  1  0  0  0  0
  7  2  1  6  0  0  0
  7  8  1  0  0  0  0
  8 20  1  0  0  0  0
 10  1  1  0  0  0  0
 12  2  1  0  0  0  0
 13  3  1  0  0  0  0
 14  4  1  0  0  0  0
 15  4  1  0  0  0  0
 17  6  1  0  0  0  0
M  END
