16
title
C -0.42345902 2.0932732 0.2811322
C -0.30931953 0.59022975 0.3023716
C -1.1895788 -0.24867111 1.2172762
C 0.31878498 -0.22856855 1.4009225
C 1.0246115 -1.3552372 0.7206224
C 0.8631309 -1.319982 -0.61032593
C 0.07724328 -0.113653906 -0.9918006
O -0.19004084 0.27082407 -2.1075554
H 0.5358569 2.5590775 0.033004977
H -1.1462951 2.4023132 -0.47981465
H -0.7507934 2.4831557 1.2493346
H -1.794961 0.30163902 1.9315649
H -1.6414074 -1.1601461 0.84051365
H 0.7359632 0.2222414 2.2939188
H 1.552248 -2.1258187 1.272059
H 1.2192385 -2.0387971 -1.3361423
