18
title
C -1.099639 1.6007535 -1.1250342
C -0.99558663 0.10499206 -0.915366
C 0.27614602 -0.68348104 -1.0900029
O 1.4043422 0.060611863 -0.6165054
C 0.9226338 -0.04168498 0.76139647
C 1.001605 1.2376721 1.5686369
C -0.39262167 -0.6475627 0.26333192
O -1.060289 -1.6536789 0.93740875
H -0.117698945 2.0691142 -1.0358537
H -1.4787453 1.8133055 -2.130314
H -1.7796307 2.0739639 -0.40819085
H -1.8467386 -0.4697024 -1.2812088
H 0.45062014 -1.472086 -1.8124352
H 1.4924233 -0.8356947 1.2641965
H 0.40660462 2.0425608 1.1344982
H 0.641969 1.0483059 2.5862205
H 2.0407379 1.5750203 1.6407311
H -1.8450499 -1.2754086 1.3481424
