20
title
C -1.1697073 1.5980701 -1.0162673
C -1.0429718 0.097569615 -0.85501546
C 0.22162552 -0.66152596 -1.1146262
O 1.3641001 0.08946073 -0.68813044
C 0.94813687 -0.052603636 0.7034819
C 1.0413681 1.2109971 1.5364245
C -0.38185003 -0.686827 0.27819756
C -1.0841584 -1.764098 1.0537469
H -0.18975012 2.0765824 -0.97230536
H -1.6093198 1.8330723 -1.9918084
H -1.8127642 2.0423381 -0.24886256
H -1.914075 -0.45755017 -1.2033876
H 0.3770592 -1.4273577 -1.8674495
H 1.575637 -0.8316873 1.1628863
H 2.0726113 1.579502 1.5424567
H 0.3923373 2.0059764 1.1676831
H 0.761077 0.9880745 2.5719957
H -1.6435034 -1.3491888 1.9014271
H -1.8004298 -2.3031712 0.42540666
H -0.37297627 -2.497289 1.4520882
