title
 OpenBabel02282110003D

 18 19  0  0  1  0  0  0  0  0999 V2000
   -1.2698    1.6797   -0.7314 C   0  0  0  0  0  0  0  0  0  0  0  0
   -0.9832    0.1825   -0.7238 C   0  0  1  0  0  0  0  0  0  0  0  0
    0.1678   -0.4119   -1.6052 C   0  0  0  0  0  0  0  0  0  0  0  0
    0.7242   -1.1500   -0.3809 C   0  0  1  0  0  0  0  0  0  0  0  0
    1.1035   -0.1560    0.6862 C   0  0  1  0  0  0  0  0  0  0  0  0
    1.6247    1.1177    0.4161 O   0  0  0  0  0  0  0  0  0  0  0  0
   -0.3436   -0.4737    0.5087 C   0  0  1  0  0  0  0  0  0  0  0  0
   -1.0909   -1.0495    1.5253 O   0  0  0  0  0  0  0  0  0  0  0  0
   -0.3616    2.2531   -0.5356 H   0  0  0  0  0  0  0  0  0  0  0  0
   -1.6797    1.9933   -1.6981 H   0  0  0  0  0  0  0  0  0  0  0  0
   -2.0102    1.9377    0.0350 H   0  0  0  0  0  0  0  0  0  0  0  0
   -1.9020   -0.3734   -0.9386 H   0  0  0  0  0  0  0  0  0  0  0  0
   -0.1904   -1.0757   -2.3940 H   0  0  0  0  0  0  0  0  0  0  0  0
    0.8446    0.3271   -2.0435 H   0  0  0  0  0  0  0  0  0  0  0  0
    1.0968   -2.1674   -0.3662 H   0  0  0  0  0  0  0  0  0  0  0  0
    1.5146   -0.6288    1.5803 H   0  0  0  0  0  0  0  0  0  0  0  0
    2.5093    1.0042    0.0516 H   0  0  0  0  0  0  0  0  0  0  0  0
   -1.1317   -0.4290    2.2610 H   0  0  0  0  0  0  0  0  0  0  0  0
  1  2  1  0  0  0  0
  1  9  1  0  0  0  0
  1 11  1  0  0  0  0
  2  7  1  1  0  0  0
  3  2  1  0  0  0  0
  3  4  1  0  0  0  0
  4 15  1  0  0  0  0
  4  7  1  1  0  0  0
  5  4  1  6  0  0  0
  5 16  1  0  0  0  0
  6  5  1  0  0  0  0
  7  5  1  1  0  0  0
  7  8  1  0  0  0  0
  8 18  1  0  0  0  0
 10  1  1  0  0  0  0
 12  2  1  0  0  0  0
 13  3  1  0  0  0  0
 14  3  1  0  0  0  0
 17  6  1  0  0  0  0
M  END
