title
 OpenBabel02282110003D

 16 17  0  0  1  0  0  0  0  0999 V2000
   -1.1769    1.7000   -0.7617 C   0  0  0  0  0  0  0  0  0  0  0  0
   -0.9348    0.2057   -0.7192 C   0  0  1  0  0  0  0  0  0  0  0  0
    0.2362   -0.2507   -1.4834 O   0  0  0  0  0  0  0  0  0  0  0  0
    0.6579   -1.0860   -0.3949 C   0  0  1  0  0  0  0  0  0  0  0  0
    1.0817   -0.1985    0.7299 C   0  0  1  0  0  0  0  0  0  0  0  0
    1.7051    1.0287    0.5112 O   0  0  0  0  0  0  0  0  0  0  0  0
   -0.3980   -0.4901    0.5326 C   0  0  1  0  0  0  0  0  0  0  0  0
   -1.1996   -1.1069    1.4711 O   0  0  0  0  0  0  0  0  0  0  0  0
   -0.3390    2.2535   -0.3345 H   0  0  0  0  0  0  0  0  0  0  0  0
   -1.3428    2.0317   -1.7917 H   0  0  0  0  0  0  0  0  0  0  0  0
   -2.0787    1.9380   -0.1867 H   0  0  0  0  0  0  0  0  0  0  0  0
   -1.8108   -0.3418   -1.0905 H   0  0  0  0  0  0  0  0  0  0  0  0
    0.9951   -2.0912   -0.6195 H   0  0  0  0  0  0  0  0  0  0  0  0
    1.4896   -0.7243    1.5907 H   0  0  0  0  0  0  0  0  0  0  0  0
    1.6976    1.1578   -0.4473 H   0  0  0  0  0  0  0  0  0  0  0  0
   -1.2068   -0.5660    2.2684 H   0  0  0  0  0  0  0  0  0  0  0  0
  1  2  1  0  0  0  0
  1  9  1  0  0  0  0
  1 11  1  0  0  0  0
  2  7  1  1  0  0  0
  3  2  1  0  0  0  0
  3  4  1  0  0  0  0
  4  7  1  1  0  0  0
  5  4  1  6  0  0  0
  5 14  1  0  0  0  0
  6  5  1  0  0  0  0
  7  5  1  1  0  0  0
  7  8  1  0  0  0  0
  8 16  1  0  0  0  0
 10  1  1  0  0  0  0
 12  2  1  0  0  0  0
 13  4  1  0  0  0  0
 15  6  1  0  0  0  0
M  END
