title
 OpenBabel02282110003D

 20 21  0  0  1  0  0  0  0  0999 V2000
   -1.2497    1.6562   -0.7668 C   0  0  0  0  0  0  0  0  0  0  0  0
   -0.9723    0.1559   -0.7285 C   0  0  1  0  0  0  0  0  0  0  0  0
    0.1934   -0.4438   -1.5810 C   0  0  0  0  0  0  0  0  0  0  0  0
    0.7377   -1.1441   -0.3305 C   0  0  1  0  0  0  0  0  0  0  0  0
    1.0828   -0.1416    0.7132 C   0  0  1  0  0  0  0  0  0  0  0  0
    1.6815    1.0727    0.3427 O   0  0  0  0  0  0  0  0  0  0  0  0
   -0.3733   -0.4853    0.5404 C   0  0  1  0  0  0  0  0  0  0  0  0
   -1.2077   -1.0503    1.6570 C   0  0  0  0  0  0  0  0  0  0  0  0
   -0.3324    2.2295   -0.6162 H   0  0  0  0  0  0  0  0  0  0  0  0
   -1.6752    1.9480   -1.7337 H   0  0  0  0  0  0  0  0  0  0  0  0
   -1.9704    1.9451    0.0074 H   0  0  0  0  0  0  0  0  0  0  0  0
   -1.8957   -0.3827   -0.9721 H   0  0  0  0  0  0  0  0  0  0  0  0
   -0.1536   -1.1350   -2.3515 H   0  0  0  0  0  0  0  0  0  0  0  0
    0.8747    0.2817   -2.0328 H   0  0  0  0  0  0  0  0  0  0  0  0
    1.1282   -2.1554   -0.3001 H   0  0  0  0  0  0  0  0  0  0  0  0
    1.5141   -0.5826    1.6143 H   0  0  0  0  0  0  0  0  0  0  0  0
    1.4330    1.7357    0.9952 H   0  0  0  0  0  0  0  0  0  0  0  0
   -1.7168   -0.2554    2.2172 H   0  0  0  0  0  0  0  0  0  0  0  0
   -1.9812   -1.7271    1.2748 H   0  0  0  0  0  0  0  0  0  0  0  0
   -0.5969   -1.6141    2.3701 H   0  0  0  0  0  0  0  0  0  0  0  0
  1  2  1  0  0  0  0
  1  9  1  0  0  0  0
  1 11  1  0  0  0  0
  2  7  1  1  0  0  0
  3  2  1  0  0  0  0
  3  4  1  0  0  0  0
  4 15  1  0  0  0  0
  4  7  1  1  0  0  0
  5  4  1  6  0  0  0
  5 16  1  0  0  0  0
  6  5  1  0  0  0  0
  6 17  1  0  0  0  0
  7  5  1  1  0  0  0
  7  8  1  0  0  0  0
  8 18  1  0  0  0  0
  8 20  1  0  0  0  0
 10  1  1  0  0  0  0
 12  2  1  0  0  0  0
 13  3  1  0  0  0  0
 14  3  1  0  0  0  0
 19  8  1  0  0  0  0
M  END
