17
title
C -0.40790537 2.1281874 0.29797623
C -0.31572112 0.62511843 0.3192809
C -1.1885194 -0.22341423 1.2260977
C 0.30248752 -0.2259848 1.4109817
C 1.0713813 -1.3597091 0.73864615
N 0.68314075 -1.2334043 -0.6565222
C 0.030144779 -0.06883924 -0.9799827
O -0.21417594 0.3238254 -2.1010187
H 0.5531491 2.5844548 0.038649037
H -1.1362207 2.4460762 -0.45392522
H -0.7198021 2.518939 1.2711184
H -1.7757756 0.31469163 1.9629692
H -1.6726336 -1.1053468 0.8179378
H 0.72665524 0.21972407 2.3024864
H 2.1546369 -1.2293979 0.8703012
H 0.80110264 -2.3434455 1.1431444
H 1.0302213 -1.8367643 -1.384264
