16
title
C -0.7356257 2.0783253 0.23605664
C -0.4256232 0.6040034 0.25725758
C -1.1993 -0.36907744 1.1673751
C 0.2669981 -0.17378992 1.3529098
O 1.1211566 -1.1612781 0.8223345
C 0.9150752 -1.254835 -0.57946527
C 0.066897266 -0.043663196 -0.9975598
O -0.10244805 0.3384506 -2.128087
H 0.14175646 2.6625578 -0.058663
H -1.5303656 2.287598 -0.48653722
H -1.0646025 2.4277205 1.2187845
H -1.8711342 0.106112994 1.8743937
H -1.5573171 -1.3101231 0.7635097
H 0.67360365 0.2906643 2.2437606
H 1.8801571 -1.2357813 -1.0961682
H 0.40414292 -2.1894517 -0.85189116
