title
 OpenBabel02282110003D

 14 15  0  0  1  0  0  0  0  0999 V2000
   -0.0305    1.9245   -0.5035 O   0  0  0  0  0  0  0  0  0  0  0  0
   -0.1127    0.5472   -0.4269 C   0  0  2  0  0  0  0  0  0  0  0  0
   -0.5109   -0.2729   -1.6418 C   0  0  0  0  0  0  0  0  0  0  0  0
   -1.3872   -0.2385   -0.3870 C   0  0  1  0  0  0  0  0  0  0  0  0
   -1.1146   -1.3736    0.5495 C   0  0  0  0  0  0  0  0  0  0  0  0
    0.1342   -1.3433    1.0454 C   0  0  0  0  0  0  0  0  0  0  0  0
    0.8215   -0.1233    0.5585 C   0  0  0  0  0  0  0  0  0  0  0  0
    1.8857    0.3525    0.8910 O   0  0  0  0  0  0  0  0  0  0  0  0
    0.8582    2.1410   -0.1838 H   0  0  0  0  0  0  0  0  0  0  0  0
   -0.8462    0.3221   -2.4854 H   0  0  0  0  0  0  0  0  0  0  0  0
    0.0071   -1.1940   -1.8878 H   0  0  0  0  0  0  0  0  0  0  0  0
   -2.3647    0.2244   -0.4387 H   0  0  0  0  0  0  0  0  0  0  0  0
   -1.8437   -2.1539    0.7393 H   0  0  0  0  0  0  0  0  0  0  0  0
    0.5962   -2.0624    1.7078 H   0  0  0  0  0  0  0  0  0  0  0  0
  1  2  1  0  0  0  0
  1  9  1  0  0  0  0
  2  4  1  1  0  0  0
  2  7  1  0  0  0  0
  3  2  1  0  0  0  0
  3  4  1  0  0  0  0
  4 12  1  6  0  0  0
  4  5  1  0  0  0  0
  5 13  1  0  0  0  0
  5  6  2  0  0  0  0
  6 14  1  0  0  0  0
  7  8  2  0  0  0  0
  7  6  1  0  0  0  0
 10  3  1  0  0  0  0
 11  3  1  0  0  0  0
M  END
