18
title
C -0.6871335 2.0587175 0.3323334
C -0.40375912 0.579002 0.2903466
C -1.2304186 -0.4004671 1.1228727
C 0.22768211 -0.24051942 1.4102312
C 1.1652508 -1.2857578 0.8047537
C 0.78966707 -1.351679 -0.6902861
C 0.10473532 -0.009038283 -0.9919211
O 0.042879287 0.5218011 -2.0744762
H 0.21106422 2.6397257 0.099803105
H -1.4476142 2.3235085 -0.40854695
H -1.046521 2.3646302 1.3193754
H -1.934014 0.06230833 1.8066041
H -1.5925403 -1.3179023 0.66974556
H 0.5220191 0.24842314 2.3325675
H 2.2023673 -0.95176196 0.9155673
H 1.0822408 -2.2549639 1.3071717
H 1.6424004 -1.4908037 -1.3571141
H 0.084862 -2.1630914 -0.90688306
