14
title
O -0.030455371 1.924469 -0.50345945
C -0.11266369 0.5471952 -0.42687845
C -0.5108576 -0.2729217 -1.6417757
C -1.3872348 -0.23854099 -0.3870455
C -1.1145793 -1.3735735 0.54945403
C 0.13415311 -1.3432565 1.0453768
C 0.82149124 -0.12333343 0.55851316
O 1.8856946 0.35246214 0.8910275
H 0.85818535 2.1410227 -0.1838303
H -0.846236 0.32208714 -2.485425
H 0.0070865396 -1.1939906 -1.8877984
H -2.364652 0.22435926 -0.43873885
H -1.8436728 -2.1539054 0.73929685
H 0.59621996 -2.0623913 1.7077771
