14
title
C -0.45614862 2.0983362 0.30860186
C -0.24413069 0.61552364 0.30217463
O -1.1100019 -0.20439486 1.1188036
C 0.3130827 -0.22585528 1.3661294
C 0.9878692 -1.3996049 0.7129065
C 0.832354 -1.3547612 -0.61677086
C 0.1013125 -0.112643525 -1.0066167
O -0.15128686 0.28040922 -2.1190012
H 0.45336318 2.6201541 -0.004843653
H -1.2497896 2.3643243 -0.39579406
H -0.7376155 2.4402242 1.3070956
H 0.629368 0.15672417 2.3312259
H 1.4846491 -2.1828272 1.2729379
H 1.1565439 -2.0889997 -1.3426341
