title
 OpenBabel02282110003D

 15 16  0  0  1  0  0  0  0  0999 V2000
   -0.1900    2.0522   -0.5299 N   0  0  0  0  0  0  0  0  0  0  0  0
   -0.1529    0.6282   -0.4227 C   0  0  2  0  0  0  0  0  0  0  0  0
   -0.5377   -0.2052   -1.6300 C   0  0  0  0  0  0  0  0  0  0  0  0
   -1.3832   -0.2543   -0.3938 C   0  0  1  0  0  0  0  0  0  0  0  0
   -1.0615   -1.3761    0.5758 C   0  0  0  0  0  0  0  0  0  0  0  0
    0.3367   -1.2504    0.9032 O   0  0  0  0  0  0  0  0  0  0  0  0
    0.8391   -0.0525    0.4828 C   0  0  0  0  0  0  0  0  0  0  0  0
    1.9093    0.3574    0.8324 O   0  0  0  0  0  0  0  0  0  0  0  0
   -0.2426    2.4722    0.3942 H   0  0  0  0  0  0  0  0  0  0  0  0
    0.6829    2.3804   -0.9353 H   0  0  0  0  0  0  0  0  0  0  0  0
   -0.9259    0.3726   -2.4605 H   0  0  0  0  0  0  0  0  0  0  0  0
    0.0686   -1.0646   -1.8987 H   0  0  0  0  0  0  0  0  0  0  0  0
   -2.3771    0.1738   -0.4029 H   0  0  0  0  0  0  0  0  0  0  0  0
   -1.6395   -1.2923    1.5028 H   0  0  0  0  0  0  0  0  0  0  0  0
   -1.2156   -2.3746    0.1553 H   0  0  0  0  0  0  0  0  0  0  0  0
  1  2  1  0  0  0  0
  1  9  1  0  0  0  0
  2  4  1  1  0  0  0
  2  7  1  0  0  0  0
  3  2  1  0  0  0  0
  3  4  1  0  0  0  0
  4 13  1  6  0  0  0
  4  5  1  0  0  0  0
  5  6  1  0  0  0  0
  5 14  1  0  0  0  0
  7  8  2  0  0  0  0
  7  6  1  0  0  0  0
 10  1  1  0  0  0  0
 11  3  1  0  0  0  0
 12  3  1  0  0  0  0
 15  5  1  0  0  0  0
M  END
