title
 OpenBabel02282110003D

 17 18  0  0  1  0  0  0  0  0999 V2000
   -0.7300    2.0455    0.3518 C   0  0  0  0  0  0  0  0  0  0  0  0
   -0.3763    0.5874    0.2892 C   0  0  2  0  0  0  0  0  0  0  0  0
   -1.1824   -0.4436    1.0214 N   0  0  0  0  0  0  0  0  0  0  0  0
    0.2249   -0.2277    1.3855 C   0  0  1  0  0  0  0  0  0  0  0  0
    1.1375   -1.3022    0.8076 C   0  0  0  0  0  0  0  0  0  0  0  0
    0.7555   -1.3678   -0.6888 C   0  0  0  0  0  0  0  0  0  0  0  0
    0.1327   -0.0021   -1.0034 C   0  0  0  0  0  0  0  0  0  0  0  0
    0.1132    0.5509   -2.0745 O   0  0  0  0  0  0  0  0  0  0  0  0
    0.1086    2.6632    0.0168 H   0  0  0  0  0  0  0  0  0  0  0  0
   -1.5782    2.2653   -0.3040 H   0  0  0  0  0  0  0  0  0  0  0  0
   -0.9917    2.3454    1.3717 H   0  0  0  0  0  0  0  0  0  0  0  0
   -1.7793    0.0547    1.6797 H   0  0  0  0  0  0  0  0  0  0  0  0
    0.4572    0.2261    2.3442 H   0  0  0  0  0  0  0  0  0  0  0  0
    2.1821   -0.9939    0.9252 H   0  0  0  0  0  0  0  0  0  0  0  0
    1.0122   -2.2603    1.3202 H   0  0  0  0  0  0  0  0  0  0  0  0
    1.5943   -1.5668   -1.3577 H   0  0  0  0  0  0  0  0  0  0  0  0
   -0.0060   -2.1331   -0.8698 H   0  0  0  0  0  0  0  0  0  0  0  0
  1 11  1  0  0  0  0
  2  1  1  0  0  0  0
  2  3  1  0  0  0  0
  2  4  1  1  0  0  0
  3  4  1  0  0  0  0
  3 12  1  0  0  0  0
  4 13  1  1  0  0  0
  5 14  1  0  0  0  0
  5 15  1  0  0  0  0
  5  4  1  0  0  0  0
  6  5  1  0  0  0  0
  7  6  1  0  0  0  0
  7  2  1  0  0  0  0
  8  7  2  0  0  0  0
  9  1  1  0  0  0  0
 10  1  1  0  0  0  0
 16  6  1  0  0  0  0
 17  6  1  0  0  0  0
M  END
