title
 OpenBabel02282110003D

 15 16  0  0  1  0  0  0  0  0999 V2000
   -0.5125    2.1278    0.3002 C   0  0  0  0  0  0  0  0  0  0  0  0
   -0.2508    0.6540    0.2988 C   0  0  2  0  0  0  0  0  0  0  0  0
   -1.0492   -0.1806    1.1747 O   0  0  0  0  0  0  0  0  0  0  0  0
    0.3641   -0.1602    1.3570 C   0  0  1  0  0  0  0  0  0  0  0  0
    1.0331   -1.3397    0.6896 C   0  0  0  0  0  0  0  0  0  0  0  0
    0.6467   -1.2672   -0.6953 O   0  0  0  0  0  0  0  0  0  0  0  0
    0.0327   -0.0785   -0.9786 C   0  0  0  0  0  0  0  0  0  0  0  0
   -0.2471    0.3449   -2.1336 N   0  0  0  0  0  0  0  0  0  0  0  0
    0.3521    2.6729   -0.0890 H   0  0  0  0  0  0  0  0  0  0  0  0
   -1.3643    2.3530   -0.3469 H   0  0  0  0  0  0  0  0  0  0  0  0
   -0.7305    2.4725    1.3134 H   0  0  0  0  0  0  0  0  0  0  0  0
    0.7369    0.2444    2.2936 H   0  0  0  0  0  0  0  0  0  0  0  0
    2.1254   -1.2792    0.7637 H   0  0  0  0  0  0  0  0  0  0  0  0
    0.6955   -2.3007    1.0886 H   0  0  0  0  0  0  0  0  0  0  0  0
    0.0630   -0.3156   -2.8487 H   0  0  0  0  0  0  0  0  0  0  0  0
  1 11  1  0  0  0  0
  2  1  1  0  0  0  0
  2  3  1  0  0  0  0
  2  4  1  1  0  0  0
  3  4  1  0  0  0  0
  4 12  1  1  0  0  0
  5 13  1  0  0  0  0
  5 14  1  0  0  0  0
  5  4  1  0  0  0  0
  6  5  1  0  0  0  0
  7  6  1  0  0  0  0
  7  2  1  0  0  0  0
  8  7  2  0  0  0  0
  9  1  1  0  0  0  0
 10  1  1  0  0  0  0
 15  8  1  0  0  0  0
M  END
