15
title
C -0.46522802 2.12095 0.33676326
C -0.23750271 0.64215636 0.3162623
O -1.0927384 -0.19469765 1.1314933
C 0.31253022 -0.21524265 1.3755637
C 1.0041575 -1.4101994 0.73645884
N 0.73587686 -1.211215 -0.67945474
C 0.06361018 -0.062251363 -1.002256
O -0.2271423 0.3231283 -2.1130965
H 0.43603897 2.6547663 0.019932635
H -1.2658507 2.3797536 -0.3619831
H -0.74341774 2.45162 1.339878
H 0.64048105 0.15735799 2.3413625
H 2.0804012 -1.3989865 0.95311916
H 0.5864367 -2.3548357 1.1050627
H 0.91579634 -1.9115583 -1.3806111
