16
title
C -0.42149848 2.1239223 0.31354204
C -0.2705291 0.6308981 0.3179189
N -1.1409049 -0.24699183 1.1512439
C 0.31437662 -0.21359743 1.3880275
C 1.0259627 -1.3949107 0.74128354
N 0.73539203 -1.2055717 -0.6718552
C 0.039961196 -0.07110555 -0.99424654
O -0.25071874 0.30877072 -2.107881
H 0.48884532 2.6097918 -0.051176604
H -1.2383705 2.4153938 -0.3533585
H -0.63356096 2.5029795 1.3184547
H -1.5991447 0.33897692 1.8482661
H 0.70153874 0.20279421 2.3110657
H 2.105656 -1.3602725 0.9383996
H 0.6343053 -2.3493192 1.1127554
H 0.9538464 -1.8883953 -1.3789127
