title
 OpenBabel02282110003D

 15 16  0  0  1  0  0  0  0  0999 V2000
   -0.3653    2.1472    0.3188 C   0  0  0  0  0  0  0  0  0  0  0  0
   -0.2582    0.6502    0.3266 C   0  0  2  0  0  0  0  0  0  0  0  0
   -1.1653   -0.2075    1.1451 N   0  0  0  0  0  0  0  0  0  0  0  0
    0.2854   -0.2195    1.3947 C   0  0  1  0  0  0  0  0  0  0  0  0
    0.9437   -1.3988    0.7081 C   0  0  0  0  0  0  0  0  0  0  0  0
    0.6440   -1.2571   -0.6928 O   0  0  0  0  0  0  0  0  0  0  0  0
    0.0513   -0.0626   -0.9687 C   0  0  0  0  0  0  0  0  0  0  0  0
   -0.1466    0.3224   -2.0844 O   0  0  0  0  0  0  0  0  0  0  0  0
    0.5591    2.6050   -0.0458 H   0  0  0  0  0  0  0  0  0  0  0  0
   -1.1742    2.4631   -0.3465 H   0  0  0  0  0  0  0  0  0  0  0  0
   -0.5658    2.5313    1.3238 H   0  0  0  0  0  0  0  0  0  0  0  0
   -1.6167    0.3933    1.8338 H   0  0  0  0  0  0  0  0  0  0  0  0
    0.6902    0.1712    2.3214 H   0  0  0  0  0  0  0  0  0  0  0  0
    2.0320   -1.3891    0.8325 H   0  0  0  0  0  0  0  0  0  0  0  0
    0.5449   -2.3595    1.0446 H   0  0  0  0  0  0  0  0  0  0  0  0
  1  2  1  0  0  0  0
  1 11  1  0  0  0  0
  2  3  1  0  0  0  0
  2  4  1  1  0  0  0
  3  4  1  0  0  0  0
  3 12  1  0  0  0  0
  4 13  1  1  0  0  0
  5 14  1  0  0  0  0
  5 15  1  0  0  0  0
  5  4  1  0  0  0  0
  6  5  1  0  0  0  0
  7  6  1  0  0  0  0
  7  2  1  0  0  0  0
  8  7  2  0  0  0  0
  9  1  1  0  0  0  0
 10  1  1  0  0  0  0
M  END
