title
 OpenBabel02282110003D

 16 17  0  0  1  0  0  0  0  0999 V2000
    0.1161    1.8530   -0.8231 O   0  0  0  0  0  0  0  0  0  0  0  0
   -0.0341    0.5128   -0.5298 C   0  0  2  0  0  0  0  0  0  0  0  0
   -0.4261   -0.4674   -1.6178 C   0  0  0  0  0  0  0  0  0  0  0  0
   -1.3572   -0.2425   -0.4575 C   0  0  1  0  0  0  0  0  0  0  0  0
   -1.2768   -1.2608    0.6819 C   0  0  0  0  0  0  0  0  0  0  0  0
    0.2219   -1.3391    1.0668 C   0  0  0  0  0  0  0  0  0  0  0  0
    0.8034   -0.0142    0.5822 C   0  0  0  0  0  0  0  0  0  0  0  0
    1.7164    0.6185    1.0649 O   0  0  0  0  0  0  0  0  0  0  0  0
    0.8605    2.1442   -0.2735 H   0  0  0  0  0  0  0  0  0  0  0  0
   -0.6907    0.0193   -2.5501 H   0  0  0  0  0  0  0  0  0  0  0  0
    0.0960   -1.4131   -1.7305 H   0  0  0  0  0  0  0  0  0  0  0  0
   -2.2882    0.2813   -0.6403 H   0  0  0  0  0  0  0  0  0  0  0  0
   -1.8595   -0.9022    1.5365 H   0  0  0  0  0  0  0  0  0  0  0  0
   -1.6857   -2.2346    0.3935 H   0  0  0  0  0  0  0  0  0  0  0  0
    0.3982   -1.4620    2.1366 H   0  0  0  0  0  0  0  0  0  0  0  0
    0.7371   -2.1637    0.5599 H   0  0  0  0  0  0  0  0  0  0  0  0
  1  2  1  0  0  0  0
  1  9  1  0  0  0  0
  2  4  1  1  0  0  0
  2  7  1  0  0  0  0
  3  2  1  0  0  0  0
  3  4  1  0  0  0  0
  4 12  1  6  0  0  0
  4  5  1  0  0  0  0
  5  6  1  0  0  0  0
  5 13  1  0  0  0  0
  6 15  1  0  0  0  0
  7  8  2  0  0  0  0
  7  6  1  0  0  0  0
 10  3  1  0  0  0  0
 11  3  1  0  0  0  0
 14  5  1  0  0  0  0
 16  6  1  0  0  0  0
M  END
