title
 OpenBabel02282110003D

 16 17  0  0  1  0  0  0  0  0999 V2000
   -0.4215    2.1239    0.3135 C   0  0  0  0  0  0  0  0  0  0  0  0
   -0.2705    0.6309    0.3179 C   0  0  2  0  0  0  0  0  0  0  0  0
   -1.1409   -0.2470    1.1512 N   0  0  0  0  0  0  0  0  0  0  0  0
    0.3144   -0.2136    1.3880 C   0  0  1  0  0  0  0  0  0  0  0  0
    1.0260   -1.3949    0.7413 C   0  0  0  0  0  0  0  0  0  0  0  0
    0.7354   -1.2056   -0.6719 N   0  0  0  0  0  0  0  0  0  0  0  0
    0.0400   -0.0711   -0.9942 C   0  0  0  0  0  0  0  0  0  0  0  0
   -0.2507    0.3088   -2.1079 O   0  0  0  0  0  0  0  0  0  0  0  0
    0.4888    2.6098   -0.0512 H   0  0  0  0  0  0  0  0  0  0  0  0
   -1.2384    2.4154   -0.3534 H   0  0  0  0  0  0  0  0  0  0  0  0
   -0.6336    2.5030    1.3185 H   0  0  0  0  0  0  0  0  0  0  0  0
   -1.5991    0.3390    1.8483 H   0  0  0  0  0  0  0  0  0  0  0  0
    0.7015    0.2028    2.3111 H   0  0  0  0  0  0  0  0  0  0  0  0
    2.1057   -1.3603    0.9384 H   0  0  0  0  0  0  0  0  0  0  0  0
    0.6343   -2.3493    1.1128 H   0  0  0  0  0  0  0  0  0  0  0  0
    0.9538   -1.8884   -1.3789 H   0  0  0  0  0  0  0  0  0  0  0  0
  1  2  1  0  0  0  0
  1 11  1  0  0  0  0
  2  3  1  0  0  0  0
  2  4  1  1  0  0  0
  3  4  1  0  0  0  0
  3 12  1  0  0  0  0
  4 13  1  1  0  0  0
  5 14  1  0  0  0  0
  5 15  1  0  0  0  0
  5  4  1  0  0  0  0
  6  5  1  0  0  0  0
  7  6  1  0  0  0  0
  7  2  1  0  0  0  0
  8  7  2  0  0  0  0
  9  1  1  0  0  0  0
 10  1  1  0  0  0  0
 16  6  1  0  0  0  0
M  END
