title
 OpenBabel02282110003D

 15 16  0  0  1  0  0  0  0  0999 V2000
    0.0227    1.9660   -0.5262 O   0  0  0  0  0  0  0  0  0  0  0  0
   -0.1010    0.5943   -0.4486 C   0  0  2  0  0  0  0  0  0  0  0  0
   -0.5768   -0.2212   -1.6277 C   0  0  0  0  0  0  0  0  0  0  0  0
   -1.4015   -0.1725   -0.3613 C   0  0  1  0  0  0  0  0  0  0  0  0
   -1.1435   -1.2986    0.6199 C   0  0  0  0  0  0  0  0  0  0  0  0
    0.2798   -1.2777    0.9012 O   0  0  0  0  0  0  0  0  0  0  0  0
    0.8245   -0.1063    0.4814 C   0  0  0  0  0  0  0  0  0  0  0  0
    1.9361    0.3842    0.8288 N   0  0  0  0  0  0  0  0  0  0  0  0
    0.8920    2.1611   -0.1440 H   0  0  0  0  0  0  0  0  0  0  0  0
   -0.9424    0.3719   -2.4583 H   0  0  0  0  0  0  0  0  0  0  0  0
   -0.0658   -1.1403   -1.9001 H   0  0  0  0  0  0  0  0  0  0  0  0
   -2.3612    0.3278   -0.3583 H   0  0  0  0  0  0  0  0  0  0  0  0
   -1.6820   -1.1518    1.5628 H   0  0  0  0  0  0  0  0  0  0  0  0
   -1.3790   -2.2922    0.2267 H   0  0  0  0  0  0  0  0  0  0  0  0
    2.4098   -0.1894    1.5257 H   0  0  0  0  0  0  0  0  0  0  0  0
  1  2  1  0  0  0  0
  1  9  1  0  0  0  0
  2  4  1  1  0  0  0
  2  7  1  0  0  0  0
  3  2  1  0  0  0  0
  3  4  1  0  0  0  0
  4 12  1  1  0  0  0
  4  5  1  0  0  0  0
  5  6  1  0  0  0  0
  5 13  1  0  0  0  0
  7  8  2  0  0  0  0
  7  6  1  0  0  0  0
  8 15  1  0  0  0  0
 10  3  1  0  0  0  0
 11  3  1  0  0  0  0
 14  5  1  0  0  0  0
M  END
