19
title
C -0.09328759 2.3141198 -0.5038213
C -0.08764106 0.81871504 -0.54899037
C -0.022859357 0.03713814 -1.6315085
C -0.010424335 -1.4396521 -1.2972529
C -0.012655197 -1.4369754 0.226355
N 1.179359 -0.790929 0.82701623
C -0.100542255 -0.028704366 0.6991085
C -0.83422375 0.41736373 1.9369236
H 0.7791624 2.695975 0.041853894
H -0.07778389 2.742646 -1.5095575
H -0.9800682 2.701374 0.013548183
H 0.057220615 0.4020876 -2.6503441
H -0.8900061 -1.9609824 -1.698838
H 0.87435544 -1.9469348 -1.7012757
H -0.48612708 -2.2483048 0.77022386
H 1.2590321 -1.1210432 1.7890958
H -0.3627692 1.2986554 2.387365
H -1.874336 0.6771851 1.7107128
H -0.8452089 -0.37659082 2.6909912
