18
title
C -0.12890689 2.3203454 -0.507582
C -0.099173255 0.8253106 -0.55544186
C -0.005937799 0.04380961 -1.6368145
C 0.0028853242 -1.4325255 -1.2998592
C -0.030001523 -1.4277812 0.22256613
O 1.0984313 -0.7966902 0.83650047
C -0.12863101 -0.03208105 0.6869213
C -0.77504504 0.42569754 1.96411
H 0.72116655 2.7175982 0.061430633
H -0.0937796 2.749928 -1.5122799
H -1.0359089 2.6911917 -0.014099002
H 0.09781323 0.4077434 -2.6538293
H -0.86973536 -1.9567753 -1.7116774
H 0.89308137 -1.9446777 -1.6855853
H -0.4487176 -2.2667735 0.77349275
H -0.26544848 1.3074104 2.3678823
H -1.8247224 0.69185096 1.7990764
H -0.7285788 -0.36476657 2.716879
