14
title
O -0.1144272 1.9839034 -0.44798
C -0.14180017 0.6044728 -0.43338427
C -0.49581063 -0.20554598 -1.6616365
C -1.378054 -0.25395212 -0.43683305
C -1.0801152 -1.3906491 0.52571803
O 0.31465155 -1.2660978 0.8949207
C 0.808708 -0.065121494 0.5086422
O 1.848356 0.3916352 0.8982712
H 0.76894546 2.230514 -0.1380494
H -0.86214113 0.39032778 -2.4900858
H 0.09419448 -1.0750828 -1.936999
H -2.3733323 0.17014985 -0.46821448
H -1.6770447 -1.3232074 1.4409195
H -1.2137328 -2.382759 0.08484036
