15
title
O -0.05311444 1.9601206 -0.48908028
C -0.12452207 0.5817536 -0.44595978
C -0.51637554 -0.24105527 -1.6487992
C -1.3880765 -0.2420208 -0.4103088
C -1.1521513 -1.3830774 0.57729626
N 0.263646 -1.2523043 0.91477776
C 0.83064216 -0.07844295 0.5119139
O 1.8898971 0.4035513 0.86417997
H 0.8266179 2.1729631 -0.14154178
H -0.88992214 0.3371869 -2.4869819
H 0.049129713 -1.1301526 -1.9128182
H -2.3694084 0.21191932 -0.45773584
H -1.7819363 -1.2707646 1.469491
H -1.3630652 -2.364008 0.13429472
H 0.71913904 -1.8324003 1.6009988
