16
title
C -0.43303654 2.1058886 0.3533666
C -0.22911035 0.6189922 0.32756606
O -1.0777771 -0.18231933 1.1794907
C 0.34116015 -0.2324873 1.3841496
C 1.0025384 -1.4101424 0.6843139
N 0.7163791 -1.2628944 -0.74976546
C 0.096353784 -0.15655516 -0.93054646
N -0.20848598 0.3575606 -2.1688263
H 0.41790995 2.6237981 -0.09930781
H -1.3343986 2.391163 -0.20171711
H -0.5552503 2.453153 1.3818845
H 0.69244236 0.15658708 2.3364809
H 2.0870261 -1.408869 0.85637057
H 0.61752576 -2.3697724 1.0488775
H -0.08843078 -0.30140632 -2.925918
H -1.0571865 0.89920026 -2.2341275
