title
 OpenBabel02282110003D

 15 16  0  0  1  0  0  0  0  0999 V2000
    0.1825    1.8733   -0.8199 O   0  0  0  0  0  0  0  0  0  0  0  0
   -0.0150    0.5383   -0.5251 C   0  0  2  0  0  0  0  0  0  0  0  0
   -0.4579   -0.4489   -1.6003 C   0  0  0  0  0  0  0  0  0  0  0  0
   -1.3451   -0.2063   -0.4202 C   0  0  1  0  0  0  0  0  0  0  0  0
   -1.2926   -1.2193    0.6310 N   0  0  0  0  0  0  0  0  0  0  0  0
    0.1126   -1.2961    1.0838 C   0  0  0  0  0  0  0  0  0  0  0  0
    0.8137   -0.0349    0.5641 C   0  0  0  0  0  0  0  0  0  0  0  0
    1.8114    0.4954    0.9989 O   0  0  0  0  0  0  0  0  0  0  0  0
    1.0064    2.1117   -0.3670 H   0  0  0  0  0  0  0  0  0  0  0  0
   -0.7528    0.0388   -2.5229 H   0  0  0  0  0  0  0  0  0  0  0  0
    0.0432   -1.4042   -1.7231 H   0  0  0  0  0  0  0  0  0  0  0  0
   -2.2971    0.2912   -0.5594 H   0  0  0  0  0  0  0  0  0  0  0  0
   -1.8620   -0.8993    1.4072 H   0  0  0  0  0  0  0  0  0  0  0  0
    0.1874   -1.3522    2.1716 H   0  0  0  0  0  0  0  0  0  0  0  0
    0.6142   -2.1857    0.6807 H   0  0  0  0  0  0  0  0  0  0  0  0
  1  2  1  0  0  0  0
  1  9  1  0  0  0  0
  2  4  1  1  0  0  0
  2  7  1  0  0  0  0
  3  2  1  0  0  0  0
  3  4  1  0  0  0  0
  4 12  1  6  0  0  0
  4  5  1  0  0  0  0
  5  6  1  0  0  0  0
  5 13  1  0  0  0  0
  6 14  1  0  0  0  0
  7  8  2  0  0  0  0
  7  6  1  0  0  0  0
 10  3  1  0  0  0  0
 11  3  1  0  0  0  0
 15  6  1  0  0  0  0
M  END
