title
 OpenBabel02282110003D

 18 19  0  0  1  0  0  0  0  0999 V2000
   -0.3490    2.1749    0.2885 C   0  0  0  0  0  0  0  0  0  0  0  0
   -0.2099    0.6724    0.2834 C   0  0  2  0  0  0  0  0  0  0  0  0
   -1.0803   -0.1607    1.1987 C   0  0  0  0  0  0  0  0  0  0  0  0
    0.4249   -0.1159    1.4090 C   0  0  1  0  0  0  0  0  0  0  0  0
    1.1611   -1.2400    0.7540 C   0  0  0  0  0  0  0  0  0  0  0  0
    1.0272   -1.2053   -0.5729 C   0  0  0  0  0  0  0  0  0  0  0  0
    0.2263    0.0014   -1.0318 C   0  0  1  0  0  0  0  0  0  0  0  0
   -0.8351   -0.2997   -1.9298 O   0  0  0  0  0  0  0  0  0  0  0  0
    0.5944    2.6615    0.0148 H   0  0  0  0  0  0  0  0  0  0  0  0
   -1.1089    2.4928   -0.4347 H   0  0  0  0  0  0  0  0  0  0  0  0
   -0.6453    2.5510    1.2728 H   0  0  0  0  0  0  0  0  0  0  0  0
   -1.7066    0.3880    1.8954 H   0  0  0  0  0  0  0  0  0  0  0  0
   -1.5073   -1.0990    0.8558 H   0  0  0  0  0  0  0  0  0  0  0  0
    0.8201    0.3628    2.2984 H   0  0  0  0  0  0  0  0  0  0  0  0
    1.6917   -2.0000    1.3174 H   0  0  0  0  0  0  0  0  0  0  0  0
    1.4067   -1.9358   -1.2780 H   0  0  0  0  0  0  0  0  0  0  0  0
    0.8606    0.6923   -1.6037 H   0  0  0  0  0  0  0  0  0  0  0  0
   -1.4546   -0.8680   -1.4582 H   0  0  0  0  0  0  0  0  0  0  0  0
  1 11  1  0  0  0  0
  2  7  1  6  0  0  0
  2  1  1  0  0  0  0
  2  3  1  0  0  0  0
  3  4  1  0  0  0  0
  3 12  1  0  0  0  0
  4  2  1  6  0  0  0
  4 14  1  0  0  0  0
  5 15  1  0  0  0  0
  5  4  1  0  0  0  0
  6  5  2  0  0  0  0
  7 17  1  6  0  0  0
  7  6  1  0  0  0  0
  8 18  1  0  0  0  0
  8  7  1  0  0  0  0
  9  1  1  0  0  0  0
 10  1  1  0  0  0  0
 13  3  1  0  0  0  0
 16  6  1  0  0  0  0
M  END
