18
title
C -0.3490078 2.1749496 0.28846228
C -0.20993195 0.6723912 0.28336376
C -1.0802683 -0.16070752 1.1987015
C 0.42491108 -0.115859844 1.4090484
C 1.161145 -1.239981 0.7539597
C 1.0272129 -1.205348 -0.5728858
C 0.2263219 0.0014334518 -1.0318354
O -0.8350585 -0.29974446 -1.929772
H 0.59438574 2.661538 0.0147801535
H -1.1089308 2.4927895 -0.4347265
H -0.64534914 2.55099 1.2727962
H -1.7066325 0.38796574 1.895388
H -1.5073248 -1.0989879 0.85584027
H 0.8201249 0.36284328 2.2984142
H 1.6916943 -2.0000398 1.3174281
H 1.4066963 -1.9357597 -1.2779572
H 0.8605979 0.69234914 -1.6037319
H -1.4545642 -0.867973 -1.4582405
