title
 OpenBabel02282110003D

 18 19  0  0  1  0  0  0  0  0999 V2000
   -1.0105    1.9048   -0.4453 C   0  0  0  0  0  0  0  0  0  0  0  0
   -0.8897    0.3757   -0.5282 C   0  0  1  0  0  0  0  0  0  0  0  0
   -0.0518   -0.1056   -1.6998 C   0  0  0  0  0  0  0  0  0  0  0  0
    0.9625   -0.8871   -1.3221 C   0  0  0  0  0  0  0  0  0  0  0  0
    0.9797   -1.0128    0.1651 C   0  0  1  0  0  0  0  0  0  0  0  0
    1.1702    0.2577    0.8413 O   0  0  0  0  0  0  0  0  0  0  0  0
   -0.1657   -0.2419    0.6822 C   0  0  1  0  0  0  0  0  0  0  0  0
   -0.9201   -0.5412    1.9481 C   0  0  0  0  0  0  0  0  0  0  0  0
   -0.0218    2.3492   -0.3061 H   0  0  0  0  0  0  0  0  0  0  0  0
   -1.4522    2.3157   -1.3585 H   0  0  0  0  0  0  0  0  0  0  0  0
   -1.6456    2.2037    0.3952 H   0  0  0  0  0  0  0  0  0  0  0  0
   -1.9008   -0.0522   -0.5957 H   0  0  0  0  0  0  0  0  0  0  0  0
   -0.2603    0.2069   -2.7178 H   0  0  0  0  0  0  0  0  0  0  0  0
    1.6967   -1.3458   -1.9730 H   0  0  0  0  0  0  0  0  0  0  0  0
    1.4108   -1.8693    0.6759 H   0  0  0  0  0  0  0  0  0  0  0  0
   -1.3253    0.3785    2.3854 H   0  0  0  0  0  0  0  0  0  0  0  0
   -1.7593   -1.2171    1.7523 H   0  0  0  0  0  0  0  0  0  0  0  0
   -0.2614   -1.0036    2.6875 H   0  0  0  0  0  0  0  0  0  0  0  0
  1  9  1  0  0  0  0
  1 11  1  0  0  0  0
  2  1  1  0  0  0  0
  2  7  1  1  0  0  0
  3  4  2  0  0  0  0
  3  2  1  0  0  0  0
  4  5  1  0  0  0  0
  5 15  1  0  0  0  0
  5  7  1  1  0  0  0
  5  6  1  0  0  0  0
  7  6  1  0  0  0  0
  7  8  1  1  0  0  0
  8 16  1  0  0  0  0
  8 18  1  0  0  0  0
 10  1  1  0  0  0  0
 12  2  1  0  0  0  0
 13  3  1  0  0  0  0
 14  4  1  0  0  0  0
 17  8  1  0  0  0  0
M  END
