title
 OpenBabel02282110003D

 17 18  0  0  1  0  0  0  0  0999 V2000
   -0.3146    2.1944    0.3050 C   0  0  0  0  0  0  0  0  0  0  0  0
   -0.1453    0.7012    0.2700 C   0  0  2  0  0  0  0  0  0  0  0  0
   -1.0666   -0.1809    1.0270 N   0  0  0  0  0  0  0  0  0  0  0  0
    0.3953   -0.1308    1.3683 C   0  0  1  0  0  0  0  0  0  0  0  0
    1.1566   -1.2523    0.7368 C   0  0  0  0  0  0  0  0  0  0  0  0
    1.0736   -1.1786   -0.5922 C   0  0  0  0  0  0  0  0  0  0  0  0
    0.2381    0.0079   -1.0547 C   0  0  1  0  0  0  0  0  0  0  0  0
   -0.9010   -0.3746   -1.8065 O   0  0  0  0  0  0  0  0  0  0  0  0
    0.6024    2.7017   -0.0140 H   0  0  0  0  0  0  0  0  0  0  0  0
   -1.1192    2.5056   -0.3712 H   0  0  0  0  0  0  0  0  0  0  0  0
   -0.5599    2.5467    1.3128 H   0  0  0  0  0  0  0  0  0  0  0  0
   -1.5817    0.3908    1.6961 H   0  0  0  0  0  0  0  0  0  0  0  0
    0.6824    0.2858    2.3282 H   0  0  0  0  0  0  0  0  0  0  0  0
    1.6585   -2.0256    1.3064 H   0  0  0  0  0  0  0  0  0  0  0  0
    1.4724   -1.8962   -1.2999 H   0  0  0  0  0  0  0  0  0  0  0  0
    0.8083    0.6823   -1.7051 H   0  0  0  0  0  0  0  0  0  0  0  0
   -1.4819   -0.8053   -1.1625 H   0  0  0  0  0  0  0  0  0  0  0  0
  1 11  1  0  0  0  0
  2  7  1  6  0  0  0
  2  1  1  0  0  0  0
  2  3  1  0  0  0  0
  3  4  1  0  0  0  0
  3 12  1  0  0  0  0
  4  2  1  6  0  0  0
  4 13  1  0  0  0  0
  5 14  1  0  0  0  0
  5  4  1  0  0  0  0
  6  5  2  0  0  0  0
  7 16  1  6  0  0  0
  7  6  1  0  0  0  0
  8 17  1  0  0  0  0
  8  7  1  0  0  0  0
  9  1  1  0  0  0  0
 10  1  1  0  0  0  0
 15  6  1  0  0  0  0
M  END
