17
title
C -0.31462887 2.19442 0.30502108
C -0.14530702 0.70124686 0.2700013
N -1.0666152 -0.18094443 1.0270102
C 0.39530262 -0.13075583 1.368316
C 1.1565657 -1.252278 0.73679876
C 1.0736455 -1.1785809 -0.5922147
C 0.23806885 0.007869852 -1.0547075
O -0.9010046 -0.37458813 -1.8065436
H 0.60236067 2.7017233 -0.0139510995
H -1.1191673 2.5055642 -0.3711915
H -0.55992377 2.5467405 1.3127722
H -1.5816793 0.39077735 1.6961325
H 0.6823869 0.285762 2.3281689
H 1.658506 -2.0256498 1.3064166
H 1.4723595 -1.8962426 -1.2998806
H 0.8082857 0.6822759 -1.7050862
H -1.4819262 -0.8053374 -1.162493
