18
title
C -1.0105374 1.9047792 -0.44528735
C -0.8896588 0.37572768 -0.5282189
C -0.051820196 -0.105640456 -1.6998026
C 0.9625411 -0.8870981 -1.3221221
C 0.9796761 -1.0128415 0.16506372
O 1.1702454 0.2576565 0.8413202
C -0.16571747 -0.24188139 0.6822478
C -0.9200867 -0.5412482 1.9481372
H -0.021840192 2.3491921 -0.30613413
H -1.4522308 2.3156717 -1.3584697
H -1.6455529 2.2037122 0.3952434
H -1.9007914 -0.05224247 -0.595668
H -0.2603086 0.20686959 -2.7178469
H 1.6966677 -1.3457644 -1.9730126
H 1.4108217 -1.8692588 0.6758706
H -1.3253449 0.37852234 2.3854158
H -1.7593089 -1.2170758 1.7522801
H -0.2614225 -1.0035789 2.6874645
