16
title
O 0.9671831 1.7674861 -0.7134404
C 0.8731343 0.3653664 -0.48921213
C 1.4841206 -0.124604434 0.81159896
C 0.64680797 -0.9151549 1.4873819
C -0.6765381 -1.0313176 0.7995365
C -1.4458115 0.28629366 0.70203346
C -0.5590199 -0.17983684 -0.43063557
O -1.1498902 -0.5947899 -1.6214348
H 0.5404439 2.2055497 0.031742297
H 1.3777573 -0.08069587 -1.3559455
H 2.4843755 0.16152573 1.1150243
H 0.8566971 -1.3928775 2.4381194
H -1.2350044 -1.9596665 0.79752487
H -2.510328 0.21364608 0.50581497
H -1.1452891 1.101945 1.353298
H -1.3138297 0.19369893 -2.1519048
