18
title
C -0.7634105 2.0534763 -0.5502333
C -0.7501156 0.5369184 -0.45519993
O -0.040190037 0.008229563 -1.574333
C 0.42270166 -1.3001024 -1.2379862
C 0.69711965 -1.2602512 0.25327504
C 1.4544295 -0.045938242 0.756863
C -0.05257165 -0.06496673 0.76433074
O -0.7684527 -0.1285045 1.9573255
H 0.25432843 2.4539783 -0.53214496
H -1.2450198 2.3763895 -1.4771303
H -1.3246797 2.4781985 0.2888981
H -1.7877783 0.15974317 -0.44186154
H -0.34154323 -2.061605 -1.4623895
H 1.302461 -1.5008312 -1.8583095
H 0.73034626 -2.180246 0.82385564
H 1.9356586 -0.15294461 1.7226915
H 1.9773258 0.5801265 0.04057108
H -0.67912483 0.7197459 2.404817
