title
 OpenBabel02282110003D

 20 21  0  0  1  0  0  0  0  0999 V2000
   -0.8539    2.0574   -0.4773 C   0  0  0  0  0  0  0  0  0  0  0  0
   -0.8113    0.5281   -0.4928 C   0  0  1  0  0  0  0  0  0  0  0  0
   -0.0185   -0.0566   -1.6900 C   0  0  0  0  0  0  0  0  0  0  0  0
    0.5303   -1.4213   -1.2145 C   0  0  0  0  0  0  0  0  0  0  0  0
    0.6736   -1.2391    0.2823 C   0  0  1  0  0  0  0  0  0  0  0  0
    1.3063   -0.0019    0.6530 O   0  0  0  0  0  0  0  0  0  0  0  0
   -0.1325   -0.0946    0.7282 C   0  0  1  0  0  0  0  0  0  0  0  0
   -0.7319    0.0439    2.1009 C   0  0  0  0  0  0  0  0  0  0  0  0
    0.1576    2.4640   -0.3736 H   0  0  0  0  0  0  0  0  0  0  0  0
   -1.2820    2.4473   -1.4065 H   0  0  0  0  0  0  0  0  0  0  0  0
   -1.4600    2.4396    0.3507 H   0  0  0  0  0  0  0  0  0  0  0  0
   -1.8407    0.1415   -0.5154 H   0  0  0  0  0  0  0  0  0  0  0  0
   -0.6322   -0.1391   -2.5908 H   0  0  0  0  0  0  0  0  0  0  0  0
    0.8161    0.6099   -1.9228 H   0  0  0  0  0  0  0  0  0  0  0  0
   -0.1829   -2.2335   -1.4048 H   0  0  0  0  0  0  0  0  0  0  0  0
    1.4714   -1.6916   -1.7040 H   0  0  0  0  0  0  0  0  0  0  0  0
    0.8967   -2.0843    0.9305 H   0  0  0  0  0  0  0  0  0  0  0  0
   -0.7644    1.0940    2.4110 H   0  0  0  0  0  0  0  0  0  0  0  0
   -1.7573   -0.3413    2.1184 H   0  0  0  0  0  0  0  0  0  0  0  0
   -0.1391   -0.5055    2.8365 H   0  0  0  0  0  0  0  0  0  0  0  0
  1  9  1  0  0  0  0
  1 11  1  0  0  0  0
  2  1  1  0  0  0  0
  2  7  1  1  0  0  0
  3  4  1  0  0  0  0
  3  2  1  0  0  0  0
  4  5  1  0  0  0  0
  5  6  1  0  0  0  0
  5  7  1  1  0  0  0
  5 17  1  0  0  0  0
  6  7  1  0  0  0  0
  7  8  1  1  0  0  0
  8 19  1  0  0  0  0
  8 18  1  0  0  0  0
  8 20  1  0  0  0  0
 10  1  1  0  0  0  0
 12  2  1  0  0  0  0
 13  3  1  0  0  0  0
 14  3  1  0  0  0  0
 15  4  1  0  0  0  0
 16  4  1  0  0  0  0
M  END
