20
title
C -0.85394686 2.0776646 -0.51987255
C -0.7659553 0.55090743 -0.5021015
C -0.007847957 -0.06269096 -1.7014751
C 0.5019608 -1.4390167 -1.2090068
C 0.70022863 -1.2583432 0.2888918
C 1.4461421 -0.017582756 0.7545872
C -0.06350558 -0.03921924 0.7195753
O -0.7723313 -0.06129126 1.9242618
H 0.14402546 2.5308733 -0.5166152
H -1.3815039 2.4367015 -1.4096484
H -1.3974797 2.4534945 0.3546254
H -1.7860062 0.14277767 -0.47950584
H -0.63746494 -0.1426137 -2.591943
H 0.83637494 0.5809027 -1.9741948
H -0.25690627 -2.2118862 -1.3805557
H 1.4093534 -1.7567941 -1.7340335
H 0.73449427 -2.1294985 0.933239
H 1.8900682 -0.080101416 1.7421572
H 2.0107393 0.5780742 0.043724597
H -0.71143675 0.8143795 2.320707
