20
title
C -0.8555863 2.075871 -0.5140007
C -0.79913723 0.5495038 -0.44481623
C -0.035145696 -0.08931017 -1.6283884
O 0.52758604 -1.3116257 -1.1581179
C 0.71008617 -1.186627 0.22877769
C 1.4325002 0.029512824 0.7569075
C -0.0909847 -0.042290807 0.77700514
C -0.8329036 -0.09217024 2.0900426
H 0.15043867 2.5083146 -0.48904097
H -1.3434234 2.4132679 -1.4350461
H -1.419516 2.490868 0.3272537
H -1.8256658 0.15843236 -0.4347477
H -0.6760779 -0.3202243 -2.4841158
H 0.75853544 0.58832103 -1.9790314
H 0.8053543 -2.1508188 0.7153403
H 1.9386505 -0.07080895 1.7117602
H 1.9369782 0.6876885 0.057535514
H -1.0038948 0.9126866 2.494607
H -1.8105476 -0.57523775 1.9744679
H -0.2703666 -0.6532639 2.8430789
