19
title
C -0.70075864 2.043121 -0.5216095
C -0.78182894 0.52708 -0.43720663
O -0.11532779 -0.022943389 -1.5760088
C 0.47408265 -1.2733341 -1.2434809
C 0.7021648 -1.2284601 0.2511583
N 1.3718987 0.022235055 0.67552924
C -0.10058917 -0.10200436 0.77715504
C -0.79049575 -0.085331865 2.1143885
H 0.34202272 2.3597245 -0.44493973
H -1.1073208 2.391351 -1.4748353
H -1.2779167 2.5069056 0.2853067
H -1.8392311 0.20642225 -0.4306172
H -0.19274868 -2.1158826 -1.4919227
H 1.3945899 -1.3716242 -1.8285003
H 0.85722226 -2.145143 0.81118333
H 1.7753246 -0.11908246 1.5998803
H -0.86312973 0.93405676 2.5106702
H -1.8080428 -0.48419893 2.038917
H -0.24583246 -0.6902215 2.8467088
