title
 OpenBabel02282110003D

 18 19  0  0  1  0  0  0  0  0999 V2000
    0.7301    1.9474   -0.4197 O   0  0  0  0  0  0  0  0  0  0  0  0
    0.8000    0.5254   -0.4126 C   0  0  1  0  0  0  0  0  0  0  0  0
    1.4824   -0.0837    0.8320 C   0  0  0  0  0  0  0  0  0  0  0  0
    0.8017   -1.4591    1.0288 C   0  0  0  0  0  0  0  0  0  0  0  0
   -0.6023   -1.2727    0.4642 C   0  0  1  0  0  0  0  0  0  0  0  0
   -1.3624   -0.0288    0.8906 C   0  0  0  0  0  0  0  0  0  0  0  0
   -0.6006   -0.0539   -0.4120 C   0  0  1  0  0  0  0  0  0  0  0  0
   -1.2944   -0.0458   -1.6208 O   0  0  0  0  0  0  0  0  0  0  0  0
    1.6149    2.2913   -0.5763 H   0  0  0  0  0  0  0  0  0  0  0  0
    1.2917    0.1692   -1.3316 H   0  0  0  0  0  0  0  0  0  0  0  0
    2.5676   -0.1627    0.7210 H   0  0  0  0  0  0  0  0  0  0  0  0
    1.2916    0.5771    1.6835 H   0  0  0  0  0  0  0  0  0  0  0  0
    1.3247   -2.2321    0.4537 H   0  0  0  0  0  0  0  0  0  0  0  0
    0.8080   -1.7786    2.0766 H   0  0  0  0  0  0  0  0  0  0  0  0
   -1.1833   -2.1430    0.1812 H   0  0  0  0  0  0  0  0  0  0  0  0
   -2.4405   -0.0789    0.7876 H   0  0  0  0  0  0  0  0  0  0  0  0
   -1.0126    0.5710    1.7241 H   0  0  0  0  0  0  0  0  0  0  0  0
   -1.4866    0.8768   -1.8254 H   0  0  0  0  0  0  0  0  0  0  0  0
  1  2  1  0  0  0  0
  2  7  1  6  0  0  0
  2  3  1  0  0  0  0
  3  4  1  0  0  0  0
  3 12  1  0  0  0  0
  4 14  1  0  0  0  0
  5  7  1  6  0  0  0
  5  6  1  0  0  0  0
  5  4  1  0  0  0  0
  6 17  1  0  0  0  0
  7  8  1  6  0  0  0
  7  6  1  0  0  0  0
  9  1  1  0  0  0  0
 10  2  1  0  0  0  0
 11  3  1  0  0  0  0
 13  4  1  0  0  0  0
 15  5  1  0  0  0  0
 16  6  1  0  0  0  0
 18  8  1  0  0  0  0
M  END
