title
 OpenBabel02282110003D

 15 15  0  0  0  0  0  0  0  0999 V2000
   -1.0687   -1.8747   -0.9080 O   0  0  0  0  0  0  0  0  0  0  0  0
   -1.0780   -0.7074   -0.6201 C   0  0  0  0  0  0  0  0  0  0  0  0
   -2.1361    0.3842   -0.3351 C   0  0  0  0  0  0  0  0  0  0  0  0
   -0.9261    1.3269   -0.0716 C   0  0  0  0  0  0  0  0  0  0  0  0
   -0.0585    0.1940   -0.4096 N   0  0  0  0  0  0  0  0  0  0  0  0
    1.3742    0.0056   -0.3571 C   0  0  0  0  0  0  0  0  0  0  0  0
    1.9421    0.2899    0.9612 C   0  0  0  0  0  0  0  0  0  0  0  0
    2.3952    0.5503    2.0428 C   0  0  0  0  0  0  0  0  0  0  0  0
   -2.7595    0.6427   -1.1924 H   0  0  0  0  0  0  0  0  0  0  0  0
   -2.7674    0.1765    0.5303 H   0  0  0  0  0  0  0  0  0  0  0  0
   -0.8305    2.1788   -0.7531 H   0  0  0  0  0  0  0  0  0  0  0  0
   -0.8170    1.6699    0.9619 H   0  0  0  0  0  0  0  0  0  0  0  0
    1.5510   -1.0400   -0.6353 H   0  0  0  0  0  0  0  0  0  0  0  0
    1.8728    0.6290   -1.1127 H   0  0  0  0  0  0  0  0  0  0  0  0
    2.8041    0.7641    2.9995 H   0  0  0  0  0  0  0  0  0  0  0  0
  1  2  2  0  0  0  0
  2  5  1  0  0  0  0
  2  3  1  0  0  0  0
  3  4  1  0  0  0  0
  3 10  1  0  0  0  0
  4 12  1  0  0  0  0
  5  6  1  0  0  0  0
  5  4  1  0  0  0  0
  6  7  1  0  0  0  0
  7  8  3  0  0  0  0
  8 15  1  0  0  0  0
  9  3  1  0  0  0  0
 11  4  1  0  0  0  0
 13  6  1  0  0  0  0
 14  6  1  0  0  0  0
M  END
