title
 OpenBabel02282110003D

 14 14  0  0  0  0  0  0  0  0999 V2000
   -1.0608   -1.9432   -0.7344 O   0  0  0  0  0  0  0  0  0  0  0  0
   -1.0962   -0.7604   -0.5340 C   0  0  0  0  0  0  0  0  0  0  0  0
   -2.1675    0.3288   -0.3017 C   0  0  0  0  0  0  0  0  0  0  0  0
   -0.9748    1.3182   -0.1511 C   0  0  0  0  0  0  0  0  0  0  0  0
   -0.0890    0.1786   -0.4230 N   0  0  0  0  0  0  0  0  0  0  0  0
    1.3400    0.0156   -0.4196 C   0  0  0  0  0  0  0  0  0  0  0  0
    1.9467    0.3608    0.8764 C   0  0  0  0  0  0  0  0  0  0  0  0
    2.4043    0.6614    1.8935 N   0  0  0  0  0  0  0  0  0  0  0  0
   -2.8219    0.5047   -1.1566 H   0  0  0  0  0  0  0  0  0  0  0  0
   -2.7667    0.1759    0.5970 H   0  0  0  0  0  0  0  0  0  0  0  0
   -0.9186    2.1115   -0.9031 H   0  0  0  0  0  0  0  0  0  0  0  0
   -0.8465    1.7459    0.8478 H   0  0  0  0  0  0  0  0  0  0  0  0
    1.5391   -1.0373   -0.6479 H   0  0  0  0  0  0  0  0  0  0  0  0
    1.8197    0.6221   -1.1989 H   0  0  0  0  0  0  0  0  0  0  0  0
  1  2  2  0  0  0  0
  2  5  1  0  0  0  0
  2  3  1  0  0  0  0
  3  4  1  0  0  0  0
  3 10  1  0  0  0  0
  4 12  1  0  0  0  0
  5  6  1  0  0  0  0
  5  4  1  0  0  0  0
  6  7  1  0  0  0  0
  7  8  3  0  0  0  0
  9  3  1  0  0  0  0
 11  4  1  0  0  0  0
 13  6  1  0  0  0  0
 14  6  1  0  0  0  0
M  END
