18
title
O 0.7301366 1.9473816 -0.41966936
C 0.80004317 0.5253945 -0.41258034
C 1.4823617 -0.083746515 0.8320164
C 0.80168235 -1.459081 1.0288107
C -0.6023444 -1.2726606 0.46419227
C -1.3624271 -0.02876534 0.8906389
C -0.6005626 -0.053874094 -0.41199657
O -1.2944461 -0.04575165 -1.6207594
H 1.6148639 2.2913005 -0.57628673
H 1.2917296 0.16916658 -1.3316497
H 2.5675895 -0.16272743 0.72099656
H 1.291582 0.57711136 1.6835409
H 1.3247355 -2.2320719 0.45368683
H 0.8080455 -1.7785692 2.0765753
H -1.1833328 -2.1430492 0.1812483
H -2.4405107 -0.0788972 0.7875903
H -1.0126203 0.57098466 1.7240862
H -1.4866387 0.8767519 -1.8254005
