15
title
O -1.0687263 -1.8746638 -0.90797096
C -1.0779727 -0.7073837 -0.6201153
C -2.1360724 0.38424128 -0.33506125
C -0.92612284 1.3269008 -0.071591005
N -0.058546044 0.19402903 -0.4095864
C 1.3741665 0.005586803 -0.3571483
C 1.9420931 0.2898547 0.9611704
C 2.3952024 0.5502531 2.0428479
H -2.7594626 0.6427335 -1.192433
H -2.767427 0.17650026 0.5303203
H -0.83049655 2.1787665 -0.7530793
H -0.8170385 1.6699346 0.9619084
H 1.5509503 -1.0399729 -0.63525987
H 1.8727553 0.62898415 -1.1126641
H 2.8040833 0.7640838 2.999478
