14
title
N 1.5551678 2.021842 -0.0574347
C 1.2960318 0.798485 -0.13541286
O 2.064387 -0.32003865 0.07279777
C 0.8918121 -1.1993996 -0.03688795
C 0.021801876 0.023680372 -0.4080692
N -1.0854977 0.38666096 0.43739027
C -2.261556 -0.2928023 0.37416774
O -2.4291306 -1.2855037 -0.302312
H 2.5289338 2.190078 0.19994058
H 1.033832 -1.9526063 -0.812355
H 0.65780735 -1.6580211 0.9252111
H -0.2747782 0.014543337 -1.4610611
H -1.0204254 1.2528195 0.9503788
H -3.0440667 0.15217255 1.0179812
