13
title
O -1.1313028 -2.3187187 -0.44176808
C -1.102986 -1.1299771 -0.3863468
C -2.102368 0.009674727 -0.15825063
O -1.0055194 0.9505052 -0.16734602
C -0.006866164 -0.04805261 -0.45398626
C 1.1017604 -0.1450463 0.59934837
C 2.0072024 1.0006937 0.5655687
N 2.7234461 1.9060284 0.5260007
H -2.8122923 0.17198318 -0.9788083
H -2.6435688 -0.01097566 0.79514104
H 0.42558318 0.08218521 -1.4548532
H 0.6578744 -0.2241767 1.5971512
H 1.6739216 -1.0624361 0.4180517
