14
title
O -0.9371448 -2.3208184 -0.61020434
C -1.0277884 -1.136152 -0.51471967
C -2.1680892 -0.11719679 -0.37098724
N -1.1403805 0.89124894 0.0026735547
C -0.012332222 0.02193762 -0.40683076
C 1.1173966 -0.14022969 0.6187603
C 1.9588473 1.0507619 0.6987985
N 2.6094255 2.0050597 0.73527235
H -2.6851788 0.054548036 -1.3255193
H -2.9148443 -0.32319677 0.4027639
H -1.2008307 1.7697477 -0.49681878
H 0.4135401 0.25537586 -1.3937513
H 0.6863712 -0.34091318 1.6046066
H 1.7341852 -1.0026082 0.3413797
