13
title
O -0.8548722 -1.7639655 -0.28251958
C -0.8486556 -0.61354715 -0.5677134
O -1.8789587 0.14119533 -1.0740452
C -1.0706627 1.3594377 -1.0628676
C 0.1384882 0.56573755 -0.53253657
C 0.6973991 0.95576745 0.8428097
C 1.7462678 0.047744192 1.3036083
N 2.5911615 -0.6547589 1.6588879
H -0.97683364 1.7756181 -2.0671065
H -1.4954705 2.0981061 -0.37855986
H 0.94682795 0.4479201 -1.2573433
H 1.1175247 1.966984 0.79307187
H -0.10511317 0.979986 1.5887241
