title
 OpenBabel02282110003D

 14 14  0  0  1  0  0  0  0  0999 V2000
    1.5552    2.0218   -0.0574 N   0  0  0  0  0  0  0  0  0  0  0  0
    1.2960    0.7985   -0.1354 C   0  0  0  0  0  0  0  0  0  0  0  0
    2.0644   -0.3200    0.0728 O   0  0  0  0  0  0  0  0  0  0  0  0
    0.8918   -1.1994   -0.0369 C   0  0  0  0  0  0  0  0  0  0  0  0
    0.0218    0.0237   -0.4081 C   0  0  1  0  0  0  0  0  0  0  0  0
   -1.0855    0.3867    0.4374 N   0  0  0  0  0  0  0  0  0  0  0  0
   -2.2616   -0.2928    0.3742 C   0  0  0  0  0  0  0  0  0  0  0  0
   -2.4291   -1.2855   -0.3023 O   0  0  0  0  0  0  0  0  0  0  0  0
    2.5289    2.1901    0.1999 H   0  0  0  0  0  0  0  0  0  0  0  0
    1.0338   -1.9526   -0.8124 H   0  0  0  0  0  0  0  0  0  0  0  0
    0.6578   -1.6580    0.9252 H   0  0  0  0  0  0  0  0  0  0  0  0
   -0.2748    0.0145   -1.4611 H   0  0  0  0  0  0  0  0  0  0  0  0
   -1.0204    1.2528    0.9504 H   0  0  0  0  0  0  0  0  0  0  0  0
   -3.0441    0.1522    1.0180 H   0  0  0  0  0  0  0  0  0  0  0  0
  1  9  1  0  0  0  0
  2  1  2  0  0  0  0
  2  3  1  0  0  0  0
  4  3  1  0  0  0  0
  4 11  1  0  0  0  0
  5 12  1  6  0  0  0
  5  2  1  0  0  0  0
  5  4  1  0  0  0  0
  5  6  1  0  0  0  0
  6 13  1  0  0  0  0
  7  6  1  0  0  0  0
  7 14  1  0  0  0  0
  8  7  2  0  0  0  0
 10  4  1  0  0  0  0
M  END
