14
title
O -0.8142278 -1.7721138 -0.27648377
C -0.8258962 -0.61732787 -0.54801905
O -1.8808224 0.122423336 -1.0306244
C -1.0873064 1.3506061 -1.0407053
C 0.1410554 0.5768594 -0.52613026
C 0.71968263 0.97792286 0.83988214
C 1.765994 0.074312374 1.2995929
C 2.6376839 -0.6687042 1.6604916
H -1.0196501 1.7624387 -2.0492575
H -1.5087264 2.0878403 -0.35254788
H 0.94158834 0.46854725 -1.2613962
H 1.1219637 1.9962639 0.7619573
H -0.088687055 1.0223163 1.5809456
H 3.3974464 -1.3346838 1.9875048
