title
 OpenBabel02282110003D

 15 15  0  0  1  0  0  0  0  0999 V2000
   -1.0016   -1.6576   -0.4804 O   0  0  0  0  0  0  0  0  0  0  0  0
   -1.0229   -0.4586   -0.4446 C   0  0  0  0  0  0  0  0  0  0  0  0
   -2.0467    0.4594   -0.4190 N   0  0  0  0  0  0  0  0  0  0  0  0
   -1.1961    1.6483   -0.3518 C   0  0  0  0  0  0  0  0  0  0  0  0
    0.0305    0.6869   -0.3963 C   0  0  1  0  0  0  0  0  0  0  0  0
    0.9662    0.7077    0.8204 C   0  0  0  0  0  0  0  0  0  0  0  0
    2.0164   -0.3006    0.7508 C   0  0  0  0  0  0  0  0  0  0  0  0
    2.8917   -1.1198    0.6768 C   0  0  0  0  0  0  0  0  0  0  0  0
   -3.0491    0.3441   -0.4293 H   0  0  0  0  0  0  0  0  0  0  0  0
   -1.2931    2.3244   -1.2070 H   0  0  0  0  0  0  0  0  0  0  0  0
   -1.2956    2.2191    0.5784 H   0  0  0  0  0  0  0  0  0  0  0  0
    0.6057    0.7569   -1.3222 H   0  0  0  0  0  0  0  0  0  0  0  0
    1.4233    1.7030    0.8988 H   0  0  0  0  0  0  0  0  0  0  0  0
    0.3763    0.5678    1.7358 H   0  0  0  0  0  0  0  0  0  0  0  0
    3.6527   -1.8577    0.6175 H   0  0  0  0  0  0  0  0  0  0  0  0
  1  2  2  0  0  0  0
  2  3  1  0  0  0  0
  2  5  1  0  0  0  0
  3  4  1  0  0  0  0
  4 11  1  0  0  0  0
  5 12  1  6  0  0  0
  5  4  1  0  0  0  0
  5  6  1  0  0  0  0
  6 13  1  0  0  0  0
  6 14  1  0  0  0  0
  7  6  1  0  0  0  0
  8  7  3  0  0  0  0
  9  3  1  0  0  0  0
 10  4  1  0  0  0  0
 15  8  1  0  0  0  0
M  END
