title
 OpenBabel02282110003D

 14 14  0  0  1  0  0  0  0  0999 V2000
   -0.9371   -2.3208   -0.6102 O   0  0  0  0  0  0  0  0  0  0  0  0
   -1.0278   -1.1362   -0.5147 C   0  0  0  0  0  0  0  0  0  0  0  0
   -2.1681   -0.1172   -0.3710 C   0  0  0  0  0  0  0  0  0  0  0  0
   -1.1404    0.8912    0.0027 N   0  0  0  0  0  0  0  0  0  0  0  0
   -0.0123    0.0219   -0.4068 C   0  0  1  0  0  0  0  0  0  0  0  0
    1.1174   -0.1402    0.6188 C   0  0  0  0  0  0  0  0  0  0  0  0
    1.9588    1.0508    0.6988 C   0  0  0  0  0  0  0  0  0  0  0  0
    2.6094    2.0051    0.7353 N   0  0  0  0  0  0  0  0  0  0  0  0
   -2.6852    0.0545   -1.3255 H   0  0  0  0  0  0  0  0  0  0  0  0
   -2.9148   -0.3232    0.4028 H   0  0  0  0  0  0  0  0  0  0  0  0
   -1.2008    1.7697   -0.4968 H   0  0  0  0  0  0  0  0  0  0  0  0
    0.4135    0.2554   -1.3938 H   0  0  0  0  0  0  0  0  0  0  0  0
    0.6864   -0.3409    1.6046 H   0  0  0  0  0  0  0  0  0  0  0  0
    1.7342   -1.0026    0.3414 H   0  0  0  0  0  0  0  0  0  0  0  0
  1  2  2  0  0  0  0
  2  5  1  0  0  0  0
  2  3  1  0  0  0  0
  3  4  1  0  0  0  0
  3 10  1  0  0  0  0
  5 12  1  6  0  0  0
  5  4  1  0  0  0  0
  5  6  1  0  0  0  0
  6  7  1  0  0  0  0
  6 13  1  0  0  0  0
  7  8  3  0  0  0  0
  9  3  1  0  0  0  0
 11  4  1  0  0  0  0
 14  6  1  0  0  0  0
M  END
