14
title
O -1.031679 -1.6485137 -0.46790645
C -1.0445044 -0.45004314 -0.45753378
N -2.052493 0.48379284 -0.46289393
C -1.1853788 1.660389 -0.38538656
C 0.026462419 0.6804672 -0.4096465
C 0.94209886 0.6937373 0.8201238
C 1.9897844 -0.32463294 0.75966763
N 2.8372018 -1.1076276 0.70746374
H -3.056437 0.38431412 -0.48521155
H -1.2562857 2.3350723 -1.2437268
H -1.2914857 2.2354023 0.5413325
H 0.61323035 0.7360149 -1.328843
H 1.4270314 1.6727617 0.9124291
H 0.35447678 0.5419453 1.7330391
