15
title
O -1.8407897 -2.6930044 0.28103468
C -1.464714 -1.6137788 0.6608035
C -0.060026053 -1.079618 0.47946286
C -0.052746776 0.18268685 -0.39169377
N -0.67910075 1.3936157 0.2127914
C 0.50520515 2.24992 -0.06878739
C 1.269498 0.9764388 -0.4643963
O 2.4067307 0.6958924 -0.6852197
H -2.15683 -0.91075414 1.1757478
H 0.34291387 -0.8198641 1.4663985
H 0.56487405 -1.8527544 0.024565706
H -0.41613007 -0.05584736 -1.4025531
H -1.5237011 1.6974616 -0.2565477
H 0.40233803 2.9468327 -0.9118517
H 0.890612 2.800243 0.7960569
