title
 OpenBabel02282110003D

 14 14  0  0  1  0  0  0  0  0999 V2000
    1.2151    2.8191    0.4107 N   0  0  0  0  0  0  0  0  0  0  0  0
    1.1194    1.5790    0.2130 C   0  0  0  0  0  0  0  0  0  0  0  0
    0.1023    0.8965    0.8049 O   0  0  0  0  0  0  0  0  0  0  0  0
    0.1049   -0.5006    0.6217 C   0  0  1  0  0  0  0  0  0  0  0  0
   -1.2290   -1.1628    1.0019 C   0  0  0  0  0  0  0  0  0  0  0  0
   -1.3650   -1.6787   -0.3630 O   0  0  0  0  0  0  0  0  0  0  0  0
   -0.2213   -1.0316   -0.7716 C   0  0  0  0  0  0  0  0  0  0  0  0
    0.3237   -0.9224   -1.8930 N   0  0  0  0  0  0  0  0  0  0  0  0
    2.0119    3.1906   -0.1028 H   0  0  0  0  0  0  0  0  0  0  0  0
    1.7637    0.9523   -0.4124 H   0  0  0  0  0  0  0  0  0  0  0  0
    0.9915   -0.9612    1.0710 H   0  0  0  0  0  0  0  0  0  0  0  0
   -1.1920   -1.9757    1.7285 H   0  0  0  0  0  0  0  0  0  0  0  0
   -2.0213   -0.4504    1.2377 H   0  0  0  0  0  0  0  0  0  0  0  0
   -0.2036   -1.3985   -2.6269 H   0  0  0  0  0  0  0  0  0  0  0  0
  2  1  2  0  0  0  0
  2  3  1  0  0  0  0
  4  3  1  0  0  0  0
  4  5  1  0  0  0  0
  4 11  1  1  0  0  0
  5 13  1  0  0  0  0
  5 12  1  0  0  0  0
  6  5  1  0  0  0  0
  7  6  1  0  0  0  0
  7  4  1  0  0  0  0
  8  7  2  0  0  0  0
  9  1  1  0  0  0  0
 10  2  1  0  0  0  0
 14  8  1  0  0  0  0
M  END
