title
 OpenBabel02282110003D

 14 14  0  0  1  0  0  0  0  0999 V2000
   -1.7861   -2.7165    0.4317 O   0  0  0  0  0  0  0  0  0  0  0  0
   -1.4299   -1.5991    0.7012 C   0  0  0  0  0  0  0  0  0  0  0  0
   -0.0287   -1.0698    0.4532 C   0  0  0  0  0  0  0  0  0  0  0  0
   -0.0481    0.1679   -0.4446 C   0  0  1  0  0  0  0  0  0  0  0  0
   -0.7053    1.3113    0.1563 O   0  0  0  0  0  0  0  0  0  0  0  0
    0.4572    2.1621    0.0685 C   0  0  0  0  0  0  0  0  0  0  0  0
    1.2504    0.9924   -0.5292 C   0  0  0  0  0  0  0  0  0  0  0  0
    2.3719    0.7915   -0.8743 O   0  0  0  0  0  0  0  0  0  0  0  0
   -2.1249   -0.8618    1.1569 H   0  0  0  0  0  0  0  0  0  0  0  0
    0.4156   -0.7977    1.4195 H   0  0  0  0  0  0  0  0  0  0  0  0
    0.5748   -1.8560   -0.0087 H   0  0  0  0  0  0  0  0  0  0  0  0
   -0.4775   -0.0694   -1.4281 H   0  0  0  0  0  0  0  0  0  0  0  0
    0.3139    3.0147   -0.6072 H   0  0  0  0  0  0  0  0  0  0  0  0
    0.8014    2.5247    1.0447 H   0  0  0  0  0  0  0  0  0  0  0  0
  1  2  2  0  0  0  0
  2  9  1  0  0  0  0
  3  2  1  0  0  0  0
  3 10  1  0  0  0  0
  4 12  1  6  0  0  0
  4  5  1  0  0  0  0
  4  3  1  0  0  0  0
  6  5  1  0  0  0  0
  6 14  1  0  0  0  0
  7  4  1  0  0  0  0
  7  6  1  0  0  0  0
  8  7  2  0  0  0  0
 11  3  1  0  0  0  0
 13  6  1  0  0  0  0
M  END
