14
title
N 1.2151468 2.8191216 0.4106657
C 1.119423 1.5790156 0.2129741
O 0.102301806 0.8964759 0.80488366
C 0.104949564 -0.50057715 0.62166566
C -1.2290314 -1.1627814 1.0019252
O -1.3650438 -1.6787099 -0.3629576
C -0.22126833 -1.0316192 -0.7716419
N 0.32373735 -0.9224369 -1.8930323
H 2.0119402 3.1905987 -0.10276961
H 1.7636575 0.95227915 -0.41240442
H 0.9914929 -0.96116155 1.0710443
H -1.1919686 -1.9757406 1.7284904
H -2.0212648 -0.45038193 1.237699
H -0.20358899 -1.3985292 -2.6268773
