title
 OpenBabel02282110003D

 16 16  0  0  1  0  0  0  0  0999 V2000
   -2.3734   -1.1442    1.7565 O   0  0  0  0  0  0  0  0  0  0  0  0
   -1.4388   -1.0932    0.9983 C   0  0  0  0  0  0  0  0  0  0  0  0
   -0.1715   -0.3009    1.2674 C   0  0  0  0  0  0  0  0  0  0  0  0
    0.1323    0.6968    0.1454 C   0  0  1  0  0  0  0  0  0  0  0  0
    1.4595    1.5250    0.1680 C   0  0  0  0  0  0  0  0  0  0  0  0
    1.6989    1.2033   -1.3385 C   0  0  0  0  0  0  0  0  0  0  0  0
    0.5948    0.1429   -1.2171 C   0  0  0  0  0  0  0  0  0  0  0  0
    0.2955   -0.8298   -1.8485 O   0  0  0  0  0  0  0  0  0  0  0  0
   -1.4461   -1.6319    0.0273 H   0  0  0  0  0  0  0  0  0  0  0  0
   -0.2768    0.2067    2.2310 H   0  0  0  0  0  0  0  0  0  0  0  0
    0.6600   -1.0159    1.3433 H   0  0  0  0  0  0  0  0  0  0  0  0
   -0.7254    1.3635   -0.0117 H   0  0  0  0  0  0  0  0  0  0  0  0
    1.3600    2.5782    0.4310 H   0  0  0  0  0  0  0  0  0  0  0  0
    2.2137    1.0672    0.8124 H   0  0  0  0  0  0  0  0  0  0  0  0
    1.4021    2.0178   -2.0072 H   0  0  0  0  0  0  0  0  0  0  0  0
    2.6823    0.8412   -1.6465 H   0  0  0  0  0  0  0  0  0  0  0  0
  2  3  1  0  0  0  0
  2  1  2  0  0  0  0
  3 11  1  0  0  0  0
  3 10  1  0  0  0  0
  4 12  1  6  0  0  0
  4  5  1  0  0  0  0
  4  3  1  0  0  0  0
  5 13  1  0  0  0  0
  5 14  1  0  0  0  0
  6  7  1  0  0  0  0
  6  5  1  0  0  0  0
  7  4  1  0  0  0  0
  8  7  2  0  0  0  0
  9  2  1  0  0  0  0
 15  6  1  0  0  0  0
 16  6  1  0  0  0  0
M  END
