title
 OpenBabel02282110003D

 13 13  0  0  1  0  0  0  0  0999 V2000
    0.9781    1.8081   -0.6102 N   0  0  0  0  0  0  0  0  0  0  0  0
    1.1329    0.5875   -0.3895 C   0  0  0  0  0  0  0  0  0  0  0  0
    2.2185   -0.1510    0.0265 O   0  0  0  0  0  0  0  0  0  0  0  0
    1.4183   -1.3754    0.1065 C   0  0  0  0  0  0  0  0  0  0  0  0
    0.2034   -0.6185   -0.4535 C   0  0  1  0  0  0  0  0  0  0  0  0
   -0.9096   -0.6151    0.4222 O   0  0  0  0  0  0  0  0  0  0  0  0
   -1.9686    0.1562    0.0581 C   0  0  0  0  0  0  0  0  0  0  0  0
   -2.9481    0.2312    0.7319 O   0  0  0  0  0  0  0  0  0  0  0  0
    1.8259    2.3487   -0.4325 H   0  0  0  0  0  0  0  0  0  0  0  0
    1.8409   -2.1653   -0.5161 H   0  0  0  0  0  0  0  0  0  0  0  0
    1.2962   -1.7033    1.1402 H   0  0  0  0  0  0  0  0  0  0  0  0
   -0.0906   -0.9013   -1.4687 H   0  0  0  0  0  0  0  0  0  0  0  0
   -1.8129    0.6813   -0.9002 H   0  0  0  0  0  0  0  0  0  0  0  0
  1  9  1  0  0  0  0
  1  2  2  0  0  0  0
  2  3  1  0  0  0  0
  3  4  1  0  0  0  0
  4 11  1  0  0  0  0
  5 12  1  6  0  0  0
  5  2  1  0  0  0  0
  5  4  1  0  0  0  0
  5  6  1  0  0  0  0
  7  6  1  0  0  0  0
  7  8  2  0  0  0  0
 10  4  1  0  0  0  0
 13  7  1  0  0  0  0
M  END
