16
title
O -2.373352 -1.1441896 1.7565405
C -1.4387997 -1.0932332 0.9982836
C -0.17153691 -0.30085257 1.2674086
C 0.13233651 0.6967568 0.14535776
C 1.4594556 1.5250409 0.16803506
C 1.6988572 1.2033117 -1.3384825
C 0.5947677 0.1429443 -1.2170604
O 0.29554737 -0.8297947 -1.8485268
H -1.4460618 -1.6318929 0.02728548
H -0.27682507 0.20670196 2.2309656
H 0.660004 -1.0159024 1.3432556
H -0.7253825 1.3635132 -0.011749006
H 1.3600322 2.5781987 0.43101266
H 2.2136986 1.067224 0.8124025
H 1.4021283 2.017821 -2.007196
H 2.682255 0.8411686 -1.6464893
