title
 OpenBabel02282110003D

 14 14  0  0  1  0  0  0  0  0999 V2000
   -1.9933   -1.5711    1.9479 O   0  0  0  0  0  0  0  0  0  0  0  0
   -1.2225   -1.2837    1.0698 C   0  0  0  0  0  0  0  0  0  0  0  0
   -0.0155   -0.3799    1.2707 C   0  0  0  0  0  0  0  0  0  0  0  0
    0.0471    0.7385    0.2258 C   0  0  1  0  0  0  0  0  0  0  0  0
    1.3416    1.5661    0.0932 C   0  0  0  0  0  0  0  0  0  0  0  0
    1.5108    1.1003   -1.2850 O   0  0  0  0  0  0  0  0  0  0  0  0
    0.3880    0.3179   -1.2115 C   0  0  0  0  0  0  0  0  0  0  0  0
   -0.0508   -0.4128   -2.0403 O   0  0  0  0  0  0  0  0  0  0  0  0
   -1.3439   -1.6709    0.0361 H   0  0  0  0  0  0  0  0  0  0  0  0
   -0.0533    0.0272    2.2850 H   0  0  0  0  0  0  0  0  0  0  0  0
    0.8847   -1.0053    1.1864 H   0  0  0  0  0  0  0  0  0  0  0  0
   -0.8558    1.3550    0.2607 H   0  0  0  0  0  0  0  0  0  0  0  0
    1.2341    2.6514    0.1255 H   0  0  0  0  0  0  0  0  0  0  0  0
    2.1797    1.2415    0.7138 H   0  0  0  0  0  0  0  0  0  0  0  0
  2  3  1  0  0  0  0
  2  1  2  0  0  0  0
  3 10  1  0  0  0  0
  4 12  1  1  0  0  0
  4  3  1  0  0  0  0
  5 13  1  0  0  0  0
  5  4  1  0  0  0  0
  5 14  1  0  0  0  0
  6  7  1  0  0  0  0
  6  5  1  0  0  0  0
  7  4  1  0  0  0  0
  8  7  2  0  0  0  0
  9  2  1  0  0  0  0
 11  3  1  0  0  0  0
M  END
