title
 OpenBabel02282110003D

 15 15  0  0  1  0  0  0  0  0999 V2000
    1.1372    2.8441    0.4147 N   0  0  0  0  0  0  0  0  0  0  0  0
    1.1013    1.6027    0.2012 C   0  0  0  0  0  0  0  0  0  0  0  0
    0.1670    0.8479    0.8306 O   0  0  0  0  0  0  0  0  0  0  0  0
    0.1731   -0.5290    0.5367 C   0  0  1  0  0  0  0  0  0  0  0  0
   -1.0017   -1.3399    1.1396 C   0  0  0  0  0  0  0  0  0  0  0  0
   -1.2020   -2.0762   -0.2218 C   0  0  0  0  0  0  0  0  0  0  0  0
   -0.3211   -0.9895   -0.8592 C   0  0  0  0  0  0  0  0  0  0  0  0
   -0.1765   -0.5503   -1.9609 O   0  0  0  0  0  0  0  0  0  0  0  0
    1.8895    3.2670   -0.1250 H   0  0  0  0  0  0  0  0  0  0  0  0
    1.7585    1.0272   -0.4610 H   0  0  0  0  0  0  0  0  0  0  0  0
    1.1466   -0.9848    0.7700 H   0  0  0  0  0  0  0  0  0  0  0  0
   -0.7682   -1.9543    2.0083 H   0  0  0  0  0  0  0  0  0  0  0  0
   -1.8357   -0.6756    1.3726 H   0  0  0  0  0  0  0  0  0  0  0  0
   -0.7264   -3.0612   -0.2611 H   0  0  0  0  0  0  0  0  0  0  0  0
   -2.2158   -2.1615   -0.6176 H   0  0  0  0  0  0  0  0  0  0  0  0
  2  1  2  0  0  0  0
  2  3  1  0  0  0  0
  4 11  1  1  0  0  0
  4  3  1  0  0  0  0
  4  5  1  0  0  0  0
  5 13  1  0  0  0  0
  5 12  1  0  0  0  0
  6  5  1  0  0  0  0
  7  6  1  0  0  0  0
  7  4  1  0  0  0  0
  8  7  2  0  0  0  0
  9  1  1  0  0  0  0
 10  2  1  0  0  0  0
 14  6  1  0  0  0  0
 15  6  1  0  0  0  0
M  END
