title
 OpenBabel02282110003D

 15 15  0  0  1  0  0  0  0  0999 V2000
   -1.8408   -2.6930    0.2810 O   0  0  0  0  0  0  0  0  0  0  0  0
   -1.4647   -1.6138    0.6608 C   0  0  0  0  0  0  0  0  0  0  0  0
   -0.0600   -1.0796    0.4795 C   0  0  0  0  0  0  0  0  0  0  0  0
   -0.0527    0.1827   -0.3917 C   0  0  1  0  0  0  0  0  0  0  0  0
   -0.6791    1.3936    0.2128 N   0  0  0  0  0  0  0  0  0  0  0  0
    0.5052    2.2499   -0.0688 C   0  0  0  0  0  0  0  0  0  0  0  0
    1.2695    0.9764   -0.4644 C   0  0  0  0  0  0  0  0  0  0  0  0
    2.4067    0.6959   -0.6852 O   0  0  0  0  0  0  0  0  0  0  0  0
   -2.1568   -0.9108    1.1757 H   0  0  0  0  0  0  0  0  0  0  0  0
    0.3429   -0.8199    1.4664 H   0  0  0  0  0  0  0  0  0  0  0  0
    0.5649   -1.8528    0.0246 H   0  0  0  0  0  0  0  0  0  0  0  0
   -0.4161   -0.0558   -1.4026 H   0  0  0  0  0  0  0  0  0  0  0  0
   -1.5237    1.6975   -0.2565 H   0  0  0  0  0  0  0  0  0  0  0  0
    0.4023    2.9468   -0.9119 H   0  0  0  0  0  0  0  0  0  0  0  0
    0.8906    2.8002    0.7961 H   0  0  0  0  0  0  0  0  0  0  0  0
  1  2  2  0  0  0  0
  2  9  1  0  0  0  0
  3  2  1  0  0  0  0
  3 10  1  0  0  0  0
  4 12  1  6  0  0  0
  4  5  1  0  0  0  0
  4  3  1  0  0  0  0
  6  5  1  0  0  0  0
  6 15  1  0  0  0  0
  7  4  1  0  0  0  0
  7  6  1  0  0  0  0
  8  7  2  0  0  0  0
 11  3  1  0  0  0  0
 13  5  1  0  0  0  0
 14  6  1  0  0  0  0
M  END
