title
 OpenBabel02282110003D

 14 14  0  0  1  0  0  0  0  0999 V2000
   -1.2091   -2.7708    0.3181 O   0  0  0  0  0  0  0  0  0  0  0  0
   -1.1455   -1.5852    0.2117 C   0  0  0  0  0  0  0  0  0  0  0  0
   -0.1451   -0.8652    0.7759 O   0  0  0  0  0  0  0  0  0  0  0  0
   -0.1460    0.5299    0.5388 C   0  0  1  0  0  0  0  0  0  0  0  0
    1.0373    1.3140    1.1599 C   0  0  0  0  0  0  0  0  0  0  0  0
    1.2341    2.0886   -0.1815 C   0  0  0  0  0  0  0  0  0  0  0  0
    0.3440    1.0256   -0.8446 C   0  0  0  0  0  0  0  0  0  0  0  0
    0.1903    0.6114   -1.9538 O   0  0  0  0  0  0  0  0  0  0  0  0
   -1.8751   -0.9593   -0.3333 H   0  0  0  0  0  0  0  0  0  0  0  0
   -1.1166    0.9761    0.7937 H   0  0  0  0  0  0  0  0  0  0  0  0
    0.8115    1.9042    2.0473 H   0  0  0  0  0  0  0  0  0  0  0  0
    1.8694    0.6397    1.3690 H   0  0  0  0  0  0  0  0  0  0  0  0
    0.7634    3.0767   -0.1887 H   0  0  0  0  0  0  0  0  0  0  0  0
    2.2462    2.1799   -0.5800 H   0  0  0  0  0  0  0  0  0  0  0  0
  2  1  2  0  0  0  0
  2  3  1  0  0  0  0
  4  3  1  0  0  0  0
  4 10  1  1  0  0  0
  4  5  1  0  0  0  0
  5 12  1  0  0  0  0
  5 11  1  0  0  0  0
  6  5  1  0  0  0  0
  7  6  1  0  0  0  0
  7  4  1  0  0  0  0
  8  7  2  0  0  0  0
  9  2  1  0  0  0  0
 13  6  1  0  0  0  0
 14  6  1  0  0  0  0
M  END
