14
title
O -1.2091304 -2.7708397 0.31811118
C -1.1455276 -1.5852194 0.21173896
O -0.145084 -0.8652197 0.77594596
C -0.14603218 0.5299399 0.53877294
C 1.0373199 1.314014 1.1598775
C 1.2341139 2.0886097 -0.18146409
C 0.34400406 1.0255935 -0.8445762
O 0.19029549 0.6113603 -1.9537823
H -1.8750796 -0.9592837 -0.3332966
H -1.1166427 0.9760773 0.79367477
H 0.8115153 1.9041605 2.047257
H 1.8694293 0.6396713 1.3690016
H 0.7634215 3.0766945 -0.18871726
H 2.2462034 2.1799479 -0.5799599
