title
 OpenBabel02282110003D

 15 15  0  0  0  0  0  0  0  0999 V2000
   -0.6607   -2.9274    1.2193 O   0  0  0  0  0  0  0  0  0  0  0  0
   -0.7855   -1.7913    0.8497 C   0  0  0  0  0  0  0  0  0  0  0  0
    0.3179   -0.7413    0.9261 C   0  0  0  0  0  0  0  0  0  0  0  0
    0.2958    0.1698   -0.1848 N   0  0  0  0  0  0  0  0  0  0  0  0
    0.6851    0.0358   -1.5959 C   0  0  0  0  0  0  0  0  0  0  0  0
    0.4045    1.5588   -1.7452 C   0  0  0  0  0  0  0  0  0  0  0  0
    0.0656    1.5290   -0.2373 C   0  0  0  0  0  0  0  0  0  0  0  0
   -0.2587    2.3147    0.6120 O   0  0  0  0  0  0  0  0  0  0  0  0
   -1.7396   -1.4074    0.4210 H   0  0  0  0  0  0  0  0  0  0  0  0
    0.1421   -0.1370    1.8271 H   0  0  0  0  0  0  0  0  0  0  0  0
    1.2846   -1.2467    1.0359 H   0  0  0  0  0  0  0  0  0  0  0  0
    1.7302   -0.2601   -1.7368 H   0  0  0  0  0  0  0  0  0  0  0  0
    0.0379   -0.6259   -2.1799 H   0  0  0  0  0  0  0  0  0  0  0  0
    1.2696    2.1746   -1.9960 H   0  0  0  0  0  0  0  0  0  0  0  0
   -0.4344    1.8241   -2.3905 H   0  0  0  0  0  0  0  0  0  0  0  0
  2  3  1  0  0  0  0
  2  1  2  0  0  0  0
  3 11  1  0  0  0  0
  3 10  1  0  0  0  0
  4  3  1  0  0  0  0
  5  4  1  0  0  0  0
  6  5  1  0  0  0  0
  6  7  1  0  0  0  0
  7  4  1  0  0  0  0
  7  8  2  0  0  0  0
  9  2  1  0  0  0  0
 12  5  1  0  0  0  0
 13  5  1  0  0  0  0
 14  6  1  0  0  0  0
 15  6  1  0  0  0  0
M  END
