title
 OpenBabel02282110003D

 13 13  0  0  1  0  0  0  0  0999 V2000
   -1.1917   -2.7488    0.3008 O   0  0  0  0  0  0  0  0  0  0  0  0
   -1.1054   -1.5649    0.1923 C   0  0  0  0  0  0  0  0  0  0  0  0
   -0.1259   -0.8609    0.8184 O   0  0  0  0  0  0  0  0  0  0  0  0
   -0.1319    0.5418    0.6209 C   0  0  1  0  0  0  0  0  0  0  0  0
    1.1696    1.2298    1.1048 C   0  0  0  0  0  0  0  0  0  0  0  0
    1.3444    1.7056   -0.2742 N   0  0  0  0  0  0  0  0  0  0  0  0
    0.2740    1.0351   -0.8043 C   0  0  0  0  0  0  0  0  0  0  0  0
   -0.1547    0.8804   -1.9144 O   0  0  0  0  0  0  0  0  0  0  0  0
   -1.7805   -0.9295   -0.4065 H   0  0  0  0  0  0  0  0  0  0  0  0
   -1.0530    0.9940    1.0004 H   0  0  0  0  0  0  0  0  0  0  0  0
    1.0428    2.0231    1.8458 H   0  0  0  0  0  0  0  0  0  0  0  0
    1.9263    0.5140    1.4357 H   0  0  0  0  0  0  0  0  0  0  0  0
    2.0911    2.2218   -0.7156 H   0  0  0  0  0  0  0  0  0  0  0  0
  2  1  2  0  0  0  0
  2  3  1  0  0  0  0
  4  3  1  0  0  0  0
  4 10  1  1  0  0  0
  4  5  1  0  0  0  0
  5 12  1  0  0  0  0
  5 11  1  0  0  0  0
  6  5  1  0  0  0  0
  7  6  1  0  0  0  0
  7  4  1  0  0  0  0
  8  7  2  0  0  0  0
  9  2  1  0  0  0  0
 13  6  1  0  0  0  0
M  END
