15
title
O -0.66072017 -2.9273846 1.2193258
C -0.7855203 -1.7913338 0.8496513
C 0.3178866 -0.74128 0.9261257
N 0.29577065 0.16980366 -0.1847979
C 0.6850941 0.035845082 -1.5958779
C 0.40449882 1.5588331 -1.7452018
C 0.065587 1.529047 -0.23729123
O -0.25869805 2.3146987 0.6119616
H -1.7395959 -1.4074398 0.42103732
H 0.14213099 -0.13696714 1.8271381
H 1.2845954 -1.2467494 1.0358634
H 1.7301875 -0.2601094 -1.7368317
H 0.03791572 -0.62588495 -2.1799245
H 1.2695907 2.1745763 -1.9959528
H -0.43435338 1.824089 -2.3905222
