title
 OpenBabel02282110003D

 15 15  0  0  1  0  0  0  0  0999 V2000
    0.6109    3.5625   -0.3215 C   0  0  0  0  0  0  0  0  0  0  0  0
    0.6243    2.1088   -0.2566 C   0  0  0  0  0  0  0  0  0  0  0  0
    0.6274    0.9060   -0.2135 C   0  0  0  0  0  0  0  0  0  0  0  0
    0.6290   -0.5392   -0.1452 C   0  0  1  0  0  0  0  0  0  0  0  0
    0.6440   -1.2197    1.2528 C   0  0  0  0  0  0  0  0  0  0  0  0
   -0.6053   -1.9045    0.9411 O   0  0  0  0  0  0  0  0  0  0  0  0
   -0.7073   -1.2769   -0.2819 C   0  0  0  0  0  0  0  0  0  0  0  0
   -1.5931   -1.3284   -1.1623 N   0  0  0  0  0  0  0  0  0  0  0  0
    1.3956    3.9384   -0.9869 H   0  0  0  0  0  0  0  0  0  0  0  0
   -0.3498    3.9302   -0.6980 H   0  0  0  0  0  0  0  0  0  0  0  0
    0.7720    4.0059    0.6672 H   0  0  0  0  0  0  0  0  0  0  0  0
    1.3778   -0.9661   -0.8204 H   0  0  0  0  0  0  0  0  0  0  0  0
    1.4504   -1.9325    1.4372 H   0  0  0  0  0  0  0  0  0  0  0  0
    0.5206   -0.5394    2.0972 H   0  0  0  0  0  0  0  0  0  0  0  0
   -2.3572   -1.9489   -0.8898 H   0  0  0  0  0  0  0  0  0  0  0  0
  1  2  1  0  0  0  0
  1 11  1  0  0  0  0
  2  3  3  0  0  0  0
  3  4  1  0  0  0  0
  4 12  1  6  0  0  0
  4  5  1  0  0  0  0
  5 13  1  0  0  0  0
  5 14  1  0  0  0  0
  6  5  1  0  0  0  0
  7  4  1  0  0  0  0
  7  6  1  0  0  0  0
  8 15  1  0  0  0  0
  8  7  2  0  0  0  0
  9  1  1  0  0  0  0
 10  1  1  0  0  0  0
M  END
