title
 OpenBabel02282110003D

 15 15  0  0  1  0  0  0  0  0999 V2000
   -1.9178   -1.5103   -1.4074 O   0  0  0  0  0  0  0  0  0  0  0  0
   -2.1446   -0.5226   -0.7442 C   0  0  0  0  0  0  0  0  0  0  0  0
   -1.1882    0.2656   -0.1713 N   0  0  0  0  0  0  0  0  0  0  0  0
    0.2021   -0.0763   -0.1943 C   0  0  1  0  0  0  0  0  0  0  0  0
    1.2650    0.7705   -0.9784 C   0  0  0  0  0  0  0  0  0  0  0  0
    2.2546    0.6173    0.2164 C   0  0  0  0  0  0  0  0  0  0  0  0
    1.0378    0.2161    1.0656 C   0  0  0  0  0  0  0  0  0  0  0  0
    0.7490    0.3229    2.2218 O   0  0  0  0  0  0  0  0  0  0  0  0
   -3.1656   -0.1468   -0.5407 H   0  0  0  0  0  0  0  0  0  0  0  0
   -1.4862    1.0054    0.4466 H   0  0  0  0  0  0  0  0  0  0  0  0
    0.2816   -1.1289   -0.4844 H   0  0  0  0  0  0  0  0  0  0  0  0
    1.5768    0.3657   -1.9407 H   0  0  0  0  0  0  0  0  0  0  0  0
    0.9372    1.8047   -1.1051 H   0  0  0  0  0  0  0  0  0  0  0  0
    2.9532   -0.2150    0.0879 H   0  0  0  0  0  0  0  0  0  0  0  0
    2.8061    1.4958    0.5555 H   0  0  0  0  0  0  0  0  0  0  0  0
  1  2  2  0  0  0  0
  2  9  1  0  0  0  0
  2  3  1  0  0  0  0
  3 10  1  0  0  0  0
  4 11  1  6  0  0  0
  4  3  1  0  0  0  0
  4  7  1  0  0  0  0
  5  4  1  0  0  0  0
  5  6  1  0  0  0  0
  6 15  1  0  0  0  0
  6  7  1  0  0  0  0
  7  8  2  0  0  0  0
 12  5  1  0  0  0  0
 13  5  1  0  0  0  0
 14  6  1  0  0  0  0
M  END
