title
 OpenBabel02282110003D

 12 12  0  0  1  0  0  0  0  0999 V2000
   -1.3812   -2.8398    0.4665 O   0  0  0  0  0  0  0  0  0  0  0  0
   -1.3058   -1.6550    0.5238 C   0  0  0  0  0  0  0  0  0  0  0  0
   -0.1258   -0.9959    0.3763 O   0  0  0  0  0  0  0  0  0  0  0  0
   -0.1349    0.4081    0.4382 C   0  0  1  0  0  0  0  0  0  0  0  0
    1.0832    1.0572    1.1160 C   0  0  0  0  0  0  0  0  0  0  0  0
    1.3919    1.7741   -0.1225 O   0  0  0  0  0  0  0  0  0  0  0  0
    0.3905    1.1447   -0.8174 C   0  0  0  0  0  0  0  0  0  0  0  0
    0.1216    1.2230   -1.9681 O   0  0  0  0  0  0  0  0  0  0  0  0
   -2.1552   -0.9689    0.7046 H   0  0  0  0  0  0  0  0  0  0  0  0
   -1.1044    0.7928    0.7740 H   0  0  0  0  0  0  0  0  0  0  0  0
    0.8871    1.7526    1.9331 H   0  0  0  0  0  0  0  0  0  0  0  0
    1.8758    0.3523    1.3712 H   0  0  0  0  0  0  0  0  0  0  0  0
  1  2  2  0  0  0  0
  2  9  1  0  0  0  0
  3  4  1  0  0  0  0
  3  2  1  0  0  0  0
  4 10  1  1  0  0  0
  4  5  1  0  0  0  0
  5 12  1  0  0  0  0
  5 11  1  0  0  0  0
  6  5  1  0  0  0  0
  7  6  1  0  0  0  0
  7  4  1  0  0  0  0
  8  7  2  0  0  0  0
M  END
