15
title
C 0.5658744 3.5553956 -0.2605942
C 0.60533017 2.1012983 -0.21699864
C 0.6371055 0.8976984 -0.18936025
C 0.6479675 -0.5459386 -0.15226364
C 0.7221022 -1.2493113 1.2473533
N -0.54873645 -1.8949054 0.91848105
C -0.73707986 -1.2824706 -0.29278323
O -1.6123246 -1.3211426 -1.109353
H 1.316885 3.9536858 -0.9516224
H -0.41458803 3.914489 -0.5921812
H 0.76092124 3.98827 0.7268294
H 1.372325 -0.9619788 -0.8597515
H 1.5606462 -1.9401199 1.3764309
H 0.6708344 -0.55712235 2.091805
H -1.1407558 -2.523615 1.4402815
