15
title
C 0.61087185 3.562494 -0.32151878
C 0.6243182 2.108827 -0.25655714
C 0.6274032 0.90596926 -0.21346049
C 0.62898695 -0.53920245 -0.14516099
C 0.643958 -1.2196796 1.2527565
O -0.6052545 -1.9044924 0.9410932
C -0.70725816 -1.276927 -0.28190804
N -1.5930935 -1.3283613 -1.1622511
H 1.3955694 3.938442 -0.98693836
H -0.34980795 3.9302187 -0.697991
H 0.772041 4.005941 0.6671688
H 1.3778474 -0.9661231 -0.82043344
H 1.450378 -1.9325461 1.4371785
H 0.5205973 -0.53936696 2.0972323
H -2.357242 -1.9488673 -0.8897559
