19
title
C -1.0760283 1.723864 -1.428933
C -0.98814476 0.19993722 -1.387376
C 0.187976 -0.38257828 -2.2292361
C 1.0158693 -0.545656 -0.9258622
C -0.30454206 -0.4196693 -0.12180677
C -0.30919802 0.36194083 1.1983202
C 0.4759332 -0.30759567 2.2343056
N 1.102111 -0.8534616 3.0379097
H -0.10403722 2.197262 -1.2498263
H -1.419785 2.0543704 -2.414635
H -1.7815157 2.113683 -0.6867933
H -1.9731447 -0.22133864 -1.6100646
H -0.0630626 -1.3452837 -2.6818511
H 0.600327 0.2681448 -3.0046732
H 1.5937515 -1.4626071 -0.7971455
H 1.6820043 0.30532986 -0.75312686
H -0.7205774 -1.4146836 0.06340477
H 0.09905756 1.3683023 1.0551059
H -1.3343201 0.48661336 1.5680265
