title
 OpenBabel02282110003D

 20 20  0  0  1  0  0  0  0  0999 V2000
   -1.5451    1.5475   -1.4153 C   0  0  0  0  0  0  0  0  0  0  0  0
   -0.9296    0.1553   -1.3975 C   0  0  1  0  0  0  0  0  0  0  0  0
    0.4850   -0.0624   -2.0036 C   0  0  0  0  0  0  0  0  0  0  0  0
    0.7841   -1.0703   -0.8614 C   0  0  0  0  0  0  0  0  0  0  0  0
   -0.4155   -0.4848   -0.0624 C   0  0  1  0  0  0  0  0  0  0  0  0
    0.0016    0.5216    1.0255 C   0  0  0  0  0  0  0  0  0  0  0  0
    0.6458   -0.1263    2.1625 C   0  0  0  0  0  0  0  0  0  0  0  0
    1.1734   -0.6850    3.0872 C   0  0  0  0  0  0  0  0  0  0  0  0
   -0.8789    2.2943   -0.9707 H   0  0  0  0  0  0  0  0  0  0  0  0
   -1.7487    1.8642   -2.4443 H   0  0  0  0  0  0  0  0  0  0  0  0
   -2.4944    1.5776   -0.8683 H   0  0  0  0  0  0  0  0  0  0  0  0
   -1.6291   -0.5497   -1.8612 H   0  0  0  0  0  0  0  0  0  0  0  0
    0.5415   -0.4273   -3.0322 H   0  0  0  0  0  0  0  0  0  0  0  0
    1.1011    0.8398   -1.9290 H   0  0  0  0  0  0  0  0  0  0  0  0
    0.6063   -2.1048   -1.1667 H   0  0  0  0  0  0  0  0  0  0  0  0
    1.7633   -1.0173   -0.3793 H   0  0  0  0  0  0  0  0  0  0  0  0
   -1.0869   -1.2201    0.3894 H   0  0  0  0  0  0  0  0  0  0  0  0
    0.6851    1.2707    0.6046 H   0  0  0  0  0  0  0  0  0  0  0  0
   -0.8790    1.0764    1.3737 H   0  0  0  0  0  0  0  0  0  0  0  0
    1.6396   -1.1672    3.9101 H   0  0  0  0  0  0  0  0  0  0  0  0
  1  2  1  0  0  0  0
  1  9  1  0  0  0  0
  1 11  1  0  0  0  0
  2  5  1  1  0  0  0
  3 14  1  0  0  0  0
  3  2  1  0  0  0  0
  3  4  1  0  0  0  0
  4 16  1  0  0  0  0
  4  5  1  0  0  0  0
  5 17  1  1  0  0  0
  5  6  1  0  0  0  0
  6 19  1  0  0  0  0
  6  7  1  0  0  0  0
  7  8  3  0  0  0  0
  8 20  1  0  0  0  0
 10  1  1  0  0  0  0
 12  2  1  0  0  0  0
 13  3  1  0  0  0  0
 15  4  1  0  0  0  0
 18  6  1  0  0  0  0
M  END
