title
 OpenBabel02282110003D

 18 18  0  0  1  0  0  0  0  0999 V2000
    0.7947    3.3744   -0.4918 C   0  0  0  0  0  0  0  0  0  0  0  0
    0.7310    1.9258   -0.3683 C   0  0  0  0  0  0  0  0  0  0  0  0
    0.6837    0.7268   -0.2592 C   0  0  0  0  0  0  0  0  0  0  0  0
    0.6382   -0.7202   -0.1368 C   0  0  1  0  0  0  0  0  0  0  0  0
    0.6507   -1.1893    1.2382 O   0  0  0  0  0  0  0  0  0  0  0  0
   -0.6185   -1.8557    1.0836 C   0  0  0  0  0  0  0  0  0  0  0  0
   -0.7243   -1.4463   -0.4004 C   0  0  1  0  0  0  0  0  0  0  0  0
   -1.9249   -0.6138   -0.8168 C   0  0  0  0  0  0  0  0  0  0  0  0
    1.6849    3.6900   -1.0467 H   0  0  0  0  0  0  0  0  0  0  0  0
   -0.0827    3.7689   -1.0161 H   0  0  0  0  0  0  0  0  0  0  0  0
    0.8320    3.8501    0.4944 H   0  0  0  0  0  0  0  0  0  0  0  0
    1.4767   -1.1605   -0.6927 H   0  0  0  0  0  0  0  0  0  0  0  0
   -0.5444   -2.9308    1.2870 H   0  0  0  0  0  0  0  0  0  0  0  0
   -1.3880   -1.4226    1.7368 H   0  0  0  0  0  0  0  0  0  0  0  0
   -0.5929   -2.2909   -1.0815 H   0  0  0  0  0  0  0  0  0  0  0  0
   -2.0598    0.2449   -0.1526 H   0  0  0  0  0  0  0  0  0  0  0  0
   -1.8080   -0.2313   -1.8358 H   0  0  0  0  0  0  0  0  0  0  0  0
   -2.8384   -1.2176   -0.7869 H   0  0  0  0  0  0  0  0  0  0  0  0
  1  2  1  0  0  0  0
  1 11  1  0  0  0  0
  2  3  3  0  0  0  0
  3  4  1  0  0  0  0
  4  7  1  6  0  0  0
  4  5  1  0  0  0  0
  6  5  1  0  0  0  0
  6 13  1  0  0  0  0
  6 14  1  0  0  0  0
  7 15  1  6  0  0  0
  7  6  1  0  0  0  0
  8 18  1  0  0  0  0
  8  7  1  0  0  0  0
  8 16  1  0  0  0  0
  9  1  1  0  0  0  0
 10  1  1  0  0  0  0
 12  4  1  0  0  0  0
 17  8  1  0  0  0  0
M  END
