20
title
C 0.957058 3.3735085 -0.6956735
C 0.82953876 1.9386866 -0.48199016
C 0.73271346 0.74978495 -0.30670184
C 0.59864837 -0.6750277 -0.082034744
C 0.48759353 -1.2122642 1.3810635
C -0.5575788 -2.2457736 0.88834417
C -0.7659693 -1.3987447 -0.40174437
C -1.996345 -0.5005306 -0.3679954
H 2.0085406 3.6756473 -0.7599349
H 0.46867546 3.6833682 -1.6265407
H 0.49959105 3.942919 0.121296264
H 1.4056525 -1.2067708 -0.5989137
H 1.4064662 -1.5887202 1.8356946
H 0.05151641 -0.4630636 2.0454884
H -0.1078791 -3.2199676 0.6769222
H -1.4387093 -2.4010174 1.5163009
H -0.75156 -1.9650177 -1.3376887
H -2.0544772 0.07004915 0.5651353
H -1.9825492 0.22000788 -1.1913791
H -2.909088 -1.1006063 -0.45121756
