title
 OpenBabel02282110003D

 14 14  0  0  1  0  0  0  0  0999 V2000
    0.5733    3.5799   -0.2897 C   0  0  0  0  0  0  0  0  0  0  0  0
    0.6147    2.1271   -0.2211 C   0  0  0  0  0  0  0  0  0  0  0  0
    0.6476    0.9247   -0.1716 C   0  0  0  0  0  0  0  0  0  0  0  0
    0.6642   -0.5184   -0.1029 C   0  0  1  0  0  0  0  0  0  0  0  0
    0.6057   -1.2131    1.2812 C   0  0  0  0  0  0  0  0  0  0  0  0
   -0.6271   -1.8987    0.8991 O   0  0  0  0  0  0  0  0  0  0  0  0
   -0.6772   -1.2708   -0.3169 C   0  0  0  0  0  0  0  0  0  0  0  0
   -1.5082   -1.3618   -1.1563 O   0  0  0  0  0  0  0  0  0  0  0  0
    1.2814    3.9624   -1.0326 H   0  0  0  0  0  0  0  0  0  0  0  0
   -0.4257    3.9327   -0.5674 H   0  0  0  0  0  0  0  0  0  0  0  0
    0.8284    4.0290    0.6763 H   0  0  0  0  0  0  0  0  0  0  0  0
    1.4385   -0.9438   -0.7505 H   0  0  0  0  0  0  0  0  0  0  0  0
    1.3990   -1.9303    1.4980 H   0  0  0  0  0  0  0  0  0  0  0  0
    0.4336   -0.5454    2.1260 H   0  0  0  0  0  0  0  0  0  0  0  0
  1  2  1  0  0  0  0
  1 11  1  0  0  0  0
  2  3  3  0  0  0  0
  3  4  1  0  0  0  0
  4 12  1  6  0  0  0
  4  5  1  0  0  0  0
  5 13  1  0  0  0  0
  5 14  1  0  0  0  0
  6  5  1  0  0  0  0
  7  4  1  0  0  0  0
  7  6  1  0  0  0  0
  8  7  2  0  0  0  0
  9  1  1  0  0  0  0
 10  1  1  0  0  0  0
M  END
