title
 OpenBabel02282110003D

 14 14  0  0  1  0  0  0  0  0999 V2000
    0.6312    3.5021   -0.4674 C   0  0  0  0  0  0  0  0  0  0  0  0
    0.6338    2.0545   -0.3293 C   0  0  0  0  0  0  0  0  0  0  0  0
    0.6408    0.8559   -0.2120 C   0  0  0  0  0  0  0  0  0  0  0  0
    0.6148   -0.5829   -0.0817 C   0  0  1  0  0  0  0  0  0  0  0  0
    0.6109   -1.0771    1.2897 O   0  0  0  0  0  0  0  0  0  0  0  0
   -0.6489   -1.7626    1.1617 C   0  0  0  0  0  0  0  0  0  0  0  0
   -0.7579   -1.2936   -0.2904 C   0  0  0  0  0  0  0  0  0  0  0  0
   -1.5302   -1.4090   -1.1857 O   0  0  0  0  0  0  0  0  0  0  0  0
    1.5371    3.8574   -0.9702 H   0  0  0  0  0  0  0  0  0  0  0  0
   -0.2321    3.8413   -1.0500 H   0  0  0  0  0  0  0  0  0  0  0  0
    0.5812    3.9866    0.5137 H   0  0  0  0  0  0  0  0  0  0  0  0
    1.4198   -1.0543   -0.6633 H   0  0  0  0  0  0  0  0  0  0  0  0
   -0.5673   -2.8491    1.2937 H   0  0  0  0  0  0  0  0  0  0  0  0
   -1.4213   -1.3705    1.8356 H   0  0  0  0  0  0  0  0  0  0  0  0
  1  2  1  0  0  0  0
  1 11  1  0  0  0  0
  2  3  3  0  0  0  0
  3  4  1  0  0  0  0
  4 12  1  6  0  0  0
  4  5  1  0  0  0  0
  6  5  1  0  0  0  0
  6 13  1  0  0  0  0
  6 14  1  0  0  0  0
  7  4  1  0  0  0  0
  7  6  1  0  0  0  0
  8  7  2  0  0  0  0
  9  1  1  0  0  0  0
 10  1  1  0  0  0  0
M  END
