title
 OpenBabel02282110003D

 18 18  0  0  1  0  0  0  0  0999 V2000
    0.7800    3.4442   -0.3885 C   0  0  0  0  0  0  0  0  0  0  0  0
    0.7445    1.9902   -0.3210 C   0  0  0  0  0  0  0  0  0  0  0  0
    0.7198    0.7865   -0.2686 C   0  0  0  0  0  0  0  0  0  0  0  0
    0.6902   -0.6589   -0.1900 C   0  0  1  0  0  0  0  0  0  0  0  0
    0.6065   -1.3060    1.2204 C   0  0  0  0  0  0  0  0  0  0  0  0
   -0.6198   -1.9814    0.8978 O   0  0  0  0  0  0  0  0  0  0  0  0
   -0.6680   -1.4060   -0.4287 C   0  0  1  0  0  0  0  0  0  0  0  0
   -1.9192   -0.5874   -0.6625 C   0  0  0  0  0  0  0  0  0  0  0  0
    1.5879    3.7939   -1.0408 H   0  0  0  0  0  0  0  0  0  0  0  0
   -0.1602    3.8470   -0.7812 H   0  0  0  0  0  0  0  0  0  0  0  0
    0.9395    3.8850    0.6018 H   0  0  0  0  0  0  0  0  0  0  0  0
    1.4960   -1.0855   -0.7939 H   0  0  0  0  0  0  0  0  0  0  0  0
    1.4160   -2.0056    1.4613 H   0  0  0  0  0  0  0  0  0  0  0  0
    0.4851   -0.5938    2.0443 H   0  0  0  0  0  0  0  0  0  0  0  0
   -0.5809   -2.1938   -1.1889 H   0  0  0  0  0  0  0  0  0  0  0  0
   -1.9952    0.2292    0.0599 H   0  0  0  0  0  0  0  0  0  0  0  0
   -1.9141   -0.1589   -1.6702 H   0  0  0  0  0  0  0  0  0  0  0  0
   -2.8012   -1.2278   -0.5632 H   0  0  0  0  0  0  0  0  0  0  0  0
  1  2  1  0  0  0  0
  1 11  1  0  0  0  0
  2  3  3  0  0  0  0
  3  4  1  0  0  0  0
  4  7  1  6  0  0  0
  4  5  1  0  0  0  0
  5 13  1  0  0  0  0
  5 14  1  0  0  0  0
  6  5  1  0  0  0  0
  7 15  1  6  0  0  0
  7  6  1  0  0  0  0
  8 18  1  0  0  0  0
  8  7  1  0  0  0  0
  8 16  1  0  0  0  0
  9  1  1  0  0  0  0
 10  1  1  0  0  0  0
 12  4  1  0  0  0  0
 17  8  1  0  0  0  0
M  END
