14
title
C 0.63124925 3.5021021 -0.46744695
C 0.6337763 2.0545495 -0.3293099
C 0.6407945 0.85585445 -0.2119822
C 0.6147882 -0.5828976 -0.08165298
O 0.6109476 -1.0770768 1.2897282
C -0.6488567 -1.762648 1.1616533
C -0.75787324 -1.2935563 -0.2903807
O -1.5301728 -1.4089555 -1.185676
H 1.5370636 3.8573623 -0.970202
H -0.2321119 3.841285 -1.0500358
H 0.5811526 3.9866357 0.51365525
H 1.4198242 -1.054284 -0.6632842
H -0.5673204 -2.8491156 1.2937241
H -1.4212542 -1.3705012 1.8355784
