title
 OpenBabel02282110003D

 18 18  0  0  1  0  0  0  0  0999 V2000
   -1.0293    1.7079   -1.4834 C   0  0  0  0  0  0  0  0  0  0  0  0
   -0.9078    0.1902   -1.3491 C   0  0  1  0  0  0  0  0  0  0  0  0
    0.2545   -0.4326   -2.1726 C   0  0  0  0  0  0  0  0  0  0  0  0
    1.0353   -0.5289   -0.8397 C   0  0  0  0  0  0  0  0  0  0  0  0
   -0.2389   -0.3305   -0.1249 N   0  0  0  0  0  0  0  0  0  0  0  0
   -0.2689    0.4146    1.1128 C   0  0  0  0  0  0  0  0  0  0  0  0
    0.3598   -0.3484    2.1997 C   0  0  0  0  0  0  0  0  0  0  0  0
    0.8731   -0.9362    3.0512 N   0  0  0  0  0  0  0  0  0  0  0  0
   -0.0604    2.2081   -1.3790 H   0  0  0  0  0  0  0  0  0  0  0  0
   -1.4277    1.9573   -2.4724 H   0  0  0  0  0  0  0  0  0  0  0  0
   -1.7138    2.1290   -0.7392 H   0  0  0  0  0  0  0  0  0  0  0  0
   -1.8933   -0.2666   -1.5007 H   0  0  0  0  0  0  0  0  0  0  0  0
    0.0073   -1.4075   -2.5944 H   0  0  0  0  0  0  0  0  0  0  0  0
    0.6855    0.2017   -2.9485 H   0  0  0  0  0  0  0  0  0  0  0  0
    1.5428   -1.4697   -0.6073 H   0  0  0  0  0  0  0  0  0  0  0  0
    1.7525    0.2968   -0.7043 H   0  0  0  0  0  0  0  0  0  0  0  0
    0.2366    1.3976    1.0649 H   0  0  0  0  0  0  0  0  0  0  0  0
   -1.3121    0.6066    1.3916 H   0  0  0  0  0  0  0  0  0  0  0  0
  1  9  1  0  0  0  0
  1  2  1  0  0  0  0
  1 11  1  0  0  0  0
  2 12  1  6  0  0  0
  2  5  1  0  0  0  0
  3  2  1  0  0  0  0
  3  4  1  0  0  0  0
  4 16  1  0  0  0  0
  4 15  1  0  0  0  0
  4  5  1  0  0  0  0
  5  6  1  0  0  0  0
  6 18  1  0  0  0  0
  6  7  1  0  0  0  0
  7  8  3  0  0  0  0
 10  1  1  0  0  0  0
 13  3  1  0  0  0  0
 14  3  1  0  0  0  0
 17  6  1  0  0  0  0
M  END
