18
title
O 1.8158333 1.3325865 -0.7167501
C 1.6493816 0.081183985 -0.090070695
C 1.4557816 0.016575733 1.4494418
C 0.30896387 -1.0054147 1.2087618
C 0.2414299 -0.5452321 -0.27675194
C -0.8575961 0.49409193 -0.56230116
C -2.1906157 -0.09641049 -0.5360735
C -3.278173 -0.60848486 -0.5065463
H 2.6894908 1.6706235 -0.49678496
H 2.4255235 -0.62739307 -0.41428488
H 2.30692 -0.29848763 2.0580585
H 1.0821353 0.97134095 1.8298349
H 0.6456855 -2.0403097 1.3059169
H -0.6042842 -0.88265014 1.7944372
H 0.17587468 -1.3413059 -1.0224042
H -0.80238193 1.3109418 0.16712317
H -0.6700122 0.95623213 -1.5379916
H -4.245189 -1.0458432 -0.48726395
