16
title
O 1.6443967 1.6034546 -0.3873043
C 1.6540542 0.21381249 -0.16778344
C 1.5617365 -0.28892168 1.2908694
O 0.31530204 -0.9607358 1.0184275
C 0.2617089 -0.44186276 -0.32870567
C -0.91286856 0.5152365 -0.5576507
C -2.1958635 -0.17453039 -0.5329895
C -3.2440608 -0.76196426 -0.52018046
H 2.541545 1.9378911 -0.29606256
H 2.435762 -0.27950156 -0.757802
H 2.3399284 -0.9849061 1.6260587
H 1.4493654 0.5204457 2.023872
H 0.21819893 -1.2589945 -1.0583946
H -0.8854919 1.3044783 0.20040525
H -0.76815706 1.0116689 -1.5254241
H -4.1744766 -1.272684 -0.5014169
