title
 OpenBabel02282110003D

 18 18  0  0  1  0  0  0  0  0999 V2000
    1.8158    1.3326   -0.7168 O   0  0  0  0  0  0  0  0  0  0  0  0
    1.6494    0.0812   -0.0901 C   0  0  1  0  0  0  0  0  0  0  0  0
    1.4558    0.0166    1.4494 C   0  0  0  0  0  0  0  0  0  0  0  0
    0.3090   -1.0054    1.2088 C   0  0  0  0  0  0  0  0  0  0  0  0
    0.2414   -0.5452   -0.2768 C   0  0  1  0  0  0  0  0  0  0  0  0
   -0.8576    0.4941   -0.5623 C   0  0  0  0  0  0  0  0  0  0  0  0
   -2.1906   -0.0964   -0.5361 C   0  0  0  0  0  0  0  0  0  0  0  0
   -3.2782   -0.6085   -0.5065 C   0  0  0  0  0  0  0  0  0  0  0  0
    2.6895    1.6706   -0.4968 H   0  0  0  0  0  0  0  0  0  0  0  0
    2.4255   -0.6274   -0.4143 H   0  0  0  0  0  0  0  0  0  0  0  0
    2.3069   -0.2985    2.0581 H   0  0  0  0  0  0  0  0  0  0  0  0
    1.0821    0.9713    1.8298 H   0  0  0  0  0  0  0  0  0  0  0  0
    0.6457   -2.0403    1.3059 H   0  0  0  0  0  0  0  0  0  0  0  0
   -0.6043   -0.8827    1.7944 H   0  0  0  0  0  0  0  0  0  0  0  0
    0.1759   -1.3413   -1.0224 H   0  0  0  0  0  0  0  0  0  0  0  0
   -0.8024    1.3109    0.1671 H   0  0  0  0  0  0  0  0  0  0  0  0
   -0.6700    0.9562   -1.5380 H   0  0  0  0  0  0  0  0  0  0  0  0
   -4.2452   -1.0458   -0.4873 H   0  0  0  0  0  0  0  0  0  0  0  0
  1  9  1  0  0  0  0
  1  2  1  0  0  0  0
  2  5  1  6  0  0  0
  2  3  1  0  0  0  0
  3 12  1  0  0  0  0
  3 11  1  0  0  0  0
  4 13  1  0  0  0  0
  4  3  1  0  0  0  0
  4 14  1  0  0  0  0
  5 15  1  6  0  0  0
  5  4  1  0  0  0  0
  6  7  1  0  0  0  0
  6  5  1  0  0  0  0
  6 16  1  0  0  0  0
  7  8  3  0  0  0  0
  8 18  1  0  0  0  0
 10  2  1  0  0  0  0
 17  6  1  0  0  0  0
M  END
