16
title
O 1.6867477 1.6037052 -0.2633283
C 1.6644124 0.19678366 -0.25390756
C 1.7961118 -0.45487157 1.1466404
N 0.3165569 -0.53464633 1.1979227
C 0.2417601 -0.44840273 -0.27503967
C -0.9201871 0.37643167 -0.8360617
C -2.2084892 -0.24942932 -0.5506231
N -3.2122054 -0.77110195 -0.3135208
H 1.2344689 1.9120576 0.53046817
H 2.3557281 -0.12916037 -1.0316389
H 2.3109112 -1.424909 1.1061063
H 2.254662 0.15927252 1.9295344
H -0.083943635 -1.3639024 1.6221917
H 0.27130947 -1.4261832 -0.7782778
H -0.9045571 1.3810679 -0.40457383
H -0.8081616 0.48716274 -1.920704
