title
 OpenBabel02282110003D

 18 18  0  0  1  0  0  0  0  0999 V2000
   -1.2308    1.7250   -1.4296 C   0  0  0  0  0  0  0  0  0  0  0  0
   -1.0146    0.2188   -1.3568 C   0  0  1  0  0  0  0  0  0  0  0  0
    0.2524   -0.3361   -2.0459 C   0  0  0  0  0  0  0  0  0  0  0  0
    0.7864   -0.8150   -0.7956 O   0  0  0  0  0  0  0  0  0  0  0  0
   -0.3923   -0.4049   -0.0731 C   0  0  1  0  0  0  0  0  0  0  0  0
   -0.0643    0.5021    1.1179 C   0  0  0  0  0  0  0  0  0  0  0  0
    0.6161   -0.2136    2.1898 C   0  0  0  0  0  0  0  0  0  0  0  0
    1.1665   -0.8213    3.0681 C   0  0  0  0  0  0  0  0  0  0  0  0
   -0.3245    2.2817   -1.1709 H   0  0  0  0  0  0  0  0  0  0  0  0
   -1.5153    2.0172   -2.4460 H   0  0  0  0  0  0  0  0  0  0  0  0
   -2.0321    2.0516   -0.7583 H   0  0  0  0  0  0  0  0  0  0  0  0
   -1.9295   -0.2972   -1.6592 H   0  0  0  0  0  0  0  0  0  0  0  0
    0.0863   -1.1516   -2.7610 H   0  0  0  0  0  0  0  0  0  0  0  0
    0.9069    0.4135   -2.5100 H   0  0  0  0  0  0  0  0  0  0  0  0
   -0.9456   -1.2796    0.2940 H   0  0  0  0  0  0  0  0  0  0  0  0
    0.5569    1.3379    0.7775 H   0  0  0  0  0  0  0  0  0  0  0  0
   -1.0008    0.9329    1.4974 H   0  0  0  0  0  0  0  0  0  0  0  0
    1.6620   -1.3530    3.8420 H   0  0  0  0  0  0  0  0  0  0  0  0
  1  2  1  0  0  0  0
  1  9  1  0  0  0  0
  1 11  1  0  0  0  0
  2  5  1  1  0  0  0
  3  2  1  0  0  0  0
  3  4  1  0  0  0  0
  4  5  1  0  0  0  0
  5 15  1  1  0  0  0
  5  6  1  0  0  0  0
  6 17  1  0  0  0  0
  6  7  1  0  0  0  0
  7  8  3  0  0  0  0
  8 18  1  0  0  0  0
 10  1  1  0  0  0  0
 12  2  1  0  0  0  0
 13  3  1  0  0  0  0
 14  3  1  0  0  0  0
 16  6  1  0  0  0  0
M  END
