title
 OpenBabel02282110003D

 17 17  0  0  1  0  0  0  0  0999 V2000
   -1.4189    1.5995   -1.3890 C   0  0  0  0  0  0  0  0  0  0  0  0
   -0.9065    0.1744   -1.3749 C   0  0  1  0  0  0  0  0  0  0  0  0
    0.3985    0.0376   -1.9844 O   0  0  0  0  0  0  0  0  0  0  0  0
    0.8407   -0.8435   -0.9318 C   0  0  0  0  0  0  0  0  0  0  0  0
   -0.3939   -0.5025   -0.0714 C   0  0  1  0  0  0  0  0  0  0  0  0
   -0.1125    0.4345    1.1121 C   0  0  0  0  0  0  0  0  0  0  0  0
    0.5778   -0.2599    2.1979 C   0  0  0  0  0  0  0  0  0  0  0  0
    1.1245   -0.8288    3.0423 N   0  0  0  0  0  0  0  0  0  0  0  0
   -0.7327    2.2867   -0.8871 H   0  0  0  0  0  0  0  0  0  0  0  0
   -1.5294    1.9354   -2.4245 H   0  0  0  0  0  0  0  0  0  0  0  0
   -2.4010    1.6630   -0.9079 H   0  0  0  0  0  0  0  0  0  0  0  0
   -1.6314   -0.4783   -1.8850 H   0  0  0  0  0  0  0  0  0  0  0  0
    0.8855   -1.8893   -1.2614 H   0  0  0  0  0  0  0  0  0  0  0  0
    1.8188   -0.5533   -0.5319 H   0  0  0  0  0  0  0  0  0  0  0  0
   -0.9840   -1.3556    0.2680 H   0  0  0  0  0  0  0  0  0  0  0  0
    0.5090    1.2784    0.7931 H   0  0  0  0  0  0  0  0  0  0  0  0
   -1.0455    0.8551    1.5041 H   0  0  0  0  0  0  0  0  0  0  0  0
  1  2  1  0  0  0  0
  1 11  1  0  0  0  0
  1  9  1  0  0  0  0
  2  5  1  1  0  0  0
  3  2  1  0  0  0  0
  3  4  1  0  0  0  0
  4 14  1  0  0  0  0
  4  5  1  0  0  0  0
  5 15  1  1  0  0  0
  5  6  1  0  0  0  0
  6 17  1  0  0  0  0
  6  7  1  0  0  0  0
  7  8  3  0  0  0  0
 10  1  1  0  0  0  0
 12  2  1  0  0  0  0
 13  4  1  0  0  0  0
 16  6  1  0  0  0  0
M  END
