title
 OpenBabel02282110003D

 17 17  0  0  1  0  0  0  0  0999 V2000
   -1.2823    1.7225   -1.4108 C   0  0  0  0  0  0  0  0  0  0  0  0
   -1.0426    0.2196   -1.3541 C   0  0  1  0  0  0  0  0  0  0  0  0
    0.2244   -0.3181   -2.0586 C   0  0  0  0  0  0  0  0  0  0  0  0
    0.7554   -0.8331   -0.8184 O   0  0  0  0  0  0  0  0  0  0  0  0
   -0.4062   -0.4139   -0.0829 C   0  0  1  0  0  0  0  0  0  0  0  0
   -0.0450    0.5029    1.0932 C   0  0  0  0  0  0  0  0  0  0  0  0
    0.6656   -0.2151    2.1489 C   0  0  0  0  0  0  0  0  0  0  0  0
    1.2151   -0.7897    2.9871 N   0  0  0  0  0  0  0  0  0  0  0  0
   -0.3829    2.2930   -1.1578 H   0  0  0  0  0  0  0  0  0  0  0  0
   -1.5808    2.0179   -2.4219 H   0  0  0  0  0  0  0  0  0  0  0  0
   -2.0835    2.0306   -0.7306 H   0  0  0  0  0  0  0  0  0  0  0  0
   -1.9520   -0.3079   -1.6522 H   0  0  0  0  0  0  0  0  0  0  0  0
    0.0610   -1.1139   -2.7946 H   0  0  0  0  0  0  0  0  0  0  0  0
    0.8809    0.4439   -2.4977 H   0  0  0  0  0  0  0  0  0  0  0  0
   -0.9618   -1.2789    0.3020 H   0  0  0  0  0  0  0  0  0  0  0  0
    0.5810    1.3304    0.7466 H   0  0  0  0  0  0  0  0  0  0  0  0
   -0.9596    0.9332    1.5184 H   0  0  0  0  0  0  0  0  0  0  0  0
  1  2  1  0  0  0  0
  1  9  1  0  0  0  0
  1 11  1  0  0  0  0
  2  5  1  1  0  0  0
  3  2  1  0  0  0  0
  3  4  1  0  0  0  0
  4  5  1  0  0  0  0
  5 15  1  1  0  0  0
  5  6  1  0  0  0  0
  6 17  1  0  0  0  0
  6  7  1  0  0  0  0
  7  8  3  0  0  0  0
 10  1  1  0  0  0  0
 12  2  1  0  0  0  0
 13  3  1  0  0  0  0
 14  3  1  0  0  0  0
 16  6  1  0  0  0  0
M  END
