17
title
C -1.1401321 1.4207168 -1.0813335
C -0.81624764 -0.046940845 -1.2689364
O 0.21586928 -0.27633443 -2.2625027
C 1.1115327 -0.8497765 -1.2912023
C 0.055895895 -0.7384782 -0.18268639
O 0.4684709 0.065469965 0.90488666
C -0.06434861 -0.18774095 2.1193557
N 0.18617305 0.57775897 3.0888028
H -0.2592493 1.9807488 -0.760584
H -1.5014172 1.8374678 -2.0261173
H -1.9237688 1.5493525 -0.32707995
H -1.7210855 -0.6143975 -1.5251024
H 1.4273653 -1.8638698 -1.5613457
H 1.9946456 -0.22567604 -1.1107562
H -0.34285948 -1.6914979 0.17905241
H -0.6861342 -1.0939949 2.1410265
H -0.2687473 0.23298943 3.9314108
