title
 OpenBabel02282110003D

 18 18  0  0  1  0  0  0  0  0999 V2000
   -1.2172    1.6867   -1.5511 C   0  0  0  0  0  0  0  0  0  0  0  0
   -1.0546    0.1788   -1.4226 C   0  0  1  0  0  0  0  0  0  0  0  0
    0.1476   -0.4710   -2.1453 C   0  0  0  0  0  0  0  0  0  0  0  0
    0.6787   -0.9900   -0.9082 O   0  0  0  0  0  0  0  0  0  0  0  0
   -0.4086   -0.4246   -0.1404 C   0  0  1  0  0  0  0  0  0  0  0  0
    0.0957    0.5079    0.9621 C   0  0  0  0  0  0  0  0  0  0  0  0
    0.9344   -0.2446    1.9751 C   0  0  0  0  0  0  0  0  0  0  0  0
    0.7192   -0.2589    3.1605 O   0  0  0  0  0  0  0  0  0  0  0  0
   -0.2803    2.2185   -1.3576 H   0  0  0  0  0  0  0  0  0  0  0  0
   -1.5382    1.9474   -2.5652 H   0  0  0  0  0  0  0  0  0  0  0  0
   -1.9729    2.0700   -0.8578 H   0  0  0  0  0  0  0  0  0  0  0  0
   -2.0018   -0.3127   -1.6591 H   0  0  0  0  0  0  0  0  0  0  0  0
   -0.0919   -1.2713   -2.8555 H   0  0  0  0  0  0  0  0  0  0  0  0
    0.8423    0.2315   -2.6246 H   0  0  0  0  0  0  0  0  0  0  0  0
   -1.0148   -1.2219    0.3115 H   0  0  0  0  0  0  0  0  0  0  0  0
    0.7290    1.2837    0.5132 H   0  0  0  0  0  0  0  0  0  0  0  0
   -0.7385    0.9868    1.4839 H   0  0  0  0  0  0  0  0  0  0  0  0
    1.7879   -0.8038    1.5355 H   0  0  0  0  0  0  0  0  0  0  0  0
  1  2  1  0  0  0  0
  1  9  1  0  0  0  0
  1 11  1  0  0  0  0
  2  5  1  1  0  0  0
  3  2  1  0  0  0  0
  3  4  1  0  0  0  0
  4  5  1  0  0  0  0
  5 15  1  1  0  0  0
  5  6  1  0  0  0  0
  6 17  1  0  0  0  0
  6  7  1  0  0  0  0
  7  8  2  0  0  0  0
 10  1  1  0  0  0  0
 12  2  1  0  0  0  0
 13  3  1  0  0  0  0
 14  3  1  0  0  0  0
 16  6  1  0  0  0  0
 18  7  1  0  0  0  0
M  END
