title
 OpenBabel02282110003D

 17 17  0  0  1  0  0  0  0  0999 V2000
   -1.1566    1.5874   -1.1651 C   0  0  0  0  0  0  0  0  0  0  0  0
   -0.7267    0.1369   -1.2567 C   0  0  1  0  0  0  0  0  0  0  0  0
    0.3353   -0.0708   -2.2220 O   0  0  0  0  0  0  0  0  0  0  0  0
    1.2433   -0.5558   -1.2176 C   0  0  0  0  0  0  0  0  0  0  0  0
    0.1630   -0.4560   -0.1203 C   0  0  1  0  0  0  0  0  0  0  0  0
    0.4626    0.3482    1.0347 N   0  0  0  0  0  0  0  0  0  0  0  0
    0.1292   -0.0179    2.3064 C   0  0  0  0  0  0  0  0  0  0  0  0
   -0.4487   -1.0375    2.6120 O   0  0  0  0  0  0  0  0  0  0  0  0
   -0.3129    2.2459   -0.9346 H   0  0  0  0  0  0  0  0  0  0  0  0
   -1.5775    1.9082   -2.1225 H   0  0  0  0  0  0  0  0  0  0  0  0
   -1.9212    1.7155   -0.3920 H   0  0  0  0  0  0  0  0  0  0  0  0
   -1.5905   -0.4962   -1.4974 H   0  0  0  0  0  0  0  0  0  0  0  0
    1.6140   -1.5634   -1.4386 H   0  0  0  0  0  0  0  0  0  0  0  0
    2.1042    0.1131   -1.0755 H   0  0  0  0  0  0  0  0  0  0  0  0
   -0.1963   -1.4126    0.2555 H   0  0  0  0  0  0  0  0  0  0  0  0
    0.9372    1.2284    0.9083 H   0  0  0  0  0  0  0  0  0  0  0  0
    0.4581    0.7374    3.0471 H   0  0  0  0  0  0  0  0  0  0  0  0
  1  9  1  0  0  0  0
  1 11  1  0  0  0  0
  2  1  1  0  0  0  0
  2  5  1  1  0  0  0
  3  2  1  0  0  0  0
  3  4  1  0  0  0  0
  4 14  1  0  0  0  0
  4  5  1  0  0  0  0
  5 15  1  1  0  0  0
  5  6  1  0  0  0  0
  6  7  1  0  0  0  0
  7  8  2  0  0  0  0
  7 17  1  0  0  0  0
 10  1  1  0  0  0  0
 12  2  1  0  0  0  0
 13  4  1  0  0  0  0
 16  6  1  0  0  0  0
M  END
