18
title
C -0.92271227 1.5211802 -1.3507009
C -0.73199165 0.008794525 -1.4222344
C 0.41291198 -0.44906583 -2.379687
C 1.3558007 -0.5890661 -1.1507807
C 0.10189208 -0.59605914 -0.2559351
O 0.18758412 0.17367157 0.9399501
C -0.19684021 -0.38521066 2.1022668
O -0.170328 0.19880526 3.1433415
H 0.02776744 2.043968 -1.2056991
H -1.3710381 1.8871033 -2.279938
H -1.5789484 1.7996961 -0.5211875
H -1.6990373 -0.4776056 -1.5815097
H 0.20290942 -1.4093255 -2.8567843
H 0.7120878 0.26508868 -3.1497757
H 2.0178564 -1.4557672 -1.0979068
H 1.9436718 0.31549838 -0.97883177
H -0.22455357 -1.6139246 -0.011547592
H -0.53172606 -1.4348394 1.9820856
