18
title
C -1.318629 1.5913236 -1.4656886
C -0.9401791 0.12628987 -1.4165186
O 0.25934237 -0.16691694 -2.172977
C 0.78851885 -0.97567654 -1.1067882
C -0.32400656 -0.5132471 -0.13672805
C 0.11159772 0.43907896 0.9830537
C 0.84332424 -0.29666778 2.0839105
O 0.5353376 -0.27603054 3.2475314
H -0.5147073 2.2319922 -1.0941507
H -1.5269835 1.8785081 -2.5010743
H -2.2215824 1.7779485 -0.8746535
H -1.7789022 -0.4797452 -1.7911379
H 0.76686925 -2.0462644 -1.3499248
H 1.8171653 -0.6922292 -0.8519176
H -0.92883974 -1.3217037 0.28182125
H 0.7970931 1.1948018 0.5745754
H -0.74272746 0.9572721 1.428081
H 1.7211407 -0.89202553 1.7388601
