title
 OpenBabel02282110003D

 17 17  0  0  1  0  0  0  0  0999 V2000
   -1.1401    1.4207   -1.0813 C   0  0  0  0  0  0  0  0  0  0  0  0
   -0.8162   -0.0469   -1.2689 C   0  0  1  0  0  0  0  0  0  0  0  0
    0.2159   -0.2763   -2.2625 O   0  0  0  0  0  0  0  0  0  0  0  0
    1.1115   -0.8498   -1.2912 C   0  0  0  0  0  0  0  0  0  0  0  0
    0.0559   -0.7385   -0.1827 C   0  0  1  0  0  0  0  0  0  0  0  0
    0.4685    0.0655    0.9049 O   0  0  0  0  0  0  0  0  0  0  0  0
   -0.0643   -0.1877    2.1194 C   0  0  0  0  0  0  0  0  0  0  0  0
    0.1862    0.5778    3.0888 N   0  0  0  0  0  0  0  0  0  0  0  0
   -0.2592    1.9807   -0.7606 H   0  0  0  0  0  0  0  0  0  0  0  0
   -1.5014    1.8375   -2.0261 H   0  0  0  0  0  0  0  0  0  0  0  0
   -1.9238    1.5494   -0.3271 H   0  0  0  0  0  0  0  0  0  0  0  0
   -1.7211   -0.6144   -1.5251 H   0  0  0  0  0  0  0  0  0  0  0  0
    1.4274   -1.8639   -1.5613 H   0  0  0  0  0  0  0  0  0  0  0  0
    1.9946   -0.2257   -1.1108 H   0  0  0  0  0  0  0  0  0  0  0  0
   -0.3429   -1.6915    0.1791 H   0  0  0  0  0  0  0  0  0  0  0  0
   -0.6861   -1.0940    2.1410 H   0  0  0  0  0  0  0  0  0  0  0  0
   -0.2687    0.2330    3.9314 H   0  0  0  0  0  0  0  0  0  0  0  0
  1  9  1  0  0  0  0
  1 11  1  0  0  0  0
  2  1  1  0  0  0  0
  2  5  1  1  0  0  0
  3  4  1  0  0  0  0
  3  2  1  0  0  0  0
  4 14  1  0  0  0  0
  4  5  1  0  0  0  0
  5 15  1  1  0  0  0
  5  6  1  0  0  0  0
  6  7  1  0  0  0  0
  7 16  1  0  0  0  0
  7  8  2  0  0  0  0
  8 17  1  0  0  0  0
 10  1  1  0  0  0  0
 12  2  1  0  0  0  0
 13  4  1  0  0  0  0
M  END
