title
 OpenBabel02282110003D

 18 18  0  0  1  0  0  0  0  0999 V2000
   -0.9227    1.5212   -1.3507 C   0  0  0  0  0  0  0  0  0  0  0  0
   -0.7320    0.0088   -1.4222 C   0  0  1  0  0  0  0  0  0  0  0  0
    0.4129   -0.4491   -2.3797 C   0  0  0  0  0  0  0  0  0  0  0  0
    1.3558   -0.5891   -1.1508 C   0  0  0  0  0  0  0  0  0  0  0  0
    0.1019   -0.5961   -0.2559 C   0  0  1  0  0  0  0  0  0  0  0  0
    0.1876    0.1737    0.9400 O   0  0  0  0  0  0  0  0  0  0  0  0
   -0.1968   -0.3852    2.1023 C   0  0  0  0  0  0  0  0  0  0  0  0
   -0.1703    0.1988    3.1433 O   0  0  0  0  0  0  0  0  0  0  0  0
    0.0278    2.0440   -1.2057 H   0  0  0  0  0  0  0  0  0  0  0  0
   -1.3710    1.8871   -2.2799 H   0  0  0  0  0  0  0  0  0  0  0  0
   -1.5789    1.7997   -0.5212 H   0  0  0  0  0  0  0  0  0  0  0  0
   -1.6990   -0.4776   -1.5815 H   0  0  0  0  0  0  0  0  0  0  0  0
    0.2029   -1.4093   -2.8568 H   0  0  0  0  0  0  0  0  0  0  0  0
    0.7121    0.2651   -3.1498 H   0  0  0  0  0  0  0  0  0  0  0  0
    2.0179   -1.4558   -1.0979 H   0  0  0  0  0  0  0  0  0  0  0  0
    1.9437    0.3155   -0.9788 H   0  0  0  0  0  0  0  0  0  0  0  0
   -0.2246   -1.6139   -0.0115 H   0  0  0  0  0  0  0  0  0  0  0  0
   -0.5317   -1.4348    1.9821 H   0  0  0  0  0  0  0  0  0  0  0  0
  1  9  1  0  0  0  0
  1 11  1  0  0  0  0
  2  1  1  0  0  0  0
  2  5  1  1  0  0  0
  3  2  1  0  0  0  0
  3  4  1  0  0  0  0
  4 15  1  0  0  0  0
  4 16  1  0  0  0  0
  4  5  1  0  0  0  0
  5 17  1  1  0  0  0
  5  6  1  0  0  0  0
  6  7  1  0  0  0  0
  7  8  2  0  0  0  0
 10  1  1  0  0  0  0
 12  2  1  0  0  0  0
 13  3  1  0  0  0  0
 14  3  1  0  0  0  0
 18  7  1  0  0  0  0
M  END
