20
title
C -1.7571597 1.4340425 -1.3819109
C -1.0974941 0.06359133 -1.3833544
C 0.29404122 -0.11653166 -2.0512557
C 0.6778763 -1.1048309 -0.91785496
C -0.5008258 -0.54375243 -0.066637866
C -0.059213232 0.48179874 0.9908489
C 0.59108084 -0.21848962 2.1604176
O 1.7502422 -0.11706402 2.4718425
H -1.092506 2.2058792 -0.9799446
H -2.0259445 1.7319504 -2.4014657
H -2.6767573 1.4392829 -0.7853867
H -1.7947024 -0.6696285 -1.8052169
H 0.31550032 -0.48810148 -3.078547
H 0.88423854 0.80436885 -2.0083783
H 0.51431304 -2.146904 -1.2048512
H 1.6787922 -1.0164044 -0.48833525
H -1.1348988 -1.2965497 0.41486418
H 0.6511983 1.2065462 0.5823829
H -0.93859917 1.0249434 1.3639516
H -0.09633 -0.88762695 2.7313135
