title
 OpenBabel02282110003D

 18 18  0  0  1  0  0  0  0  0999 V2000
   -1.3186    1.5913   -1.4657 C   0  0  0  0  0  0  0  0  0  0  0  0
   -0.9402    0.1263   -1.4165 C   0  0  1  0  0  0  0  0  0  0  0  0
    0.2593   -0.1669   -2.1730 O   0  0  0  0  0  0  0  0  0  0  0  0
    0.7885   -0.9757   -1.1068 C   0  0  0  0  0  0  0  0  0  0  0  0
   -0.3240   -0.5132   -0.1367 C   0  0  1  0  0  0  0  0  0  0  0  0
    0.1116    0.4391    0.9831 C   0  0  0  0  0  0  0  0  0  0  0  0
    0.8433   -0.2967    2.0839 C   0  0  0  0  0  0  0  0  0  0  0  0
    0.5353   -0.2760    3.2475 O   0  0  0  0  0  0  0  0  0  0  0  0
   -0.5147    2.2320   -1.0942 H   0  0  0  0  0  0  0  0  0  0  0  0
   -1.5270    1.8785   -2.5011 H   0  0  0  0  0  0  0  0  0  0  0  0
   -2.2216    1.7779   -0.8747 H   0  0  0  0  0  0  0  0  0  0  0  0
   -1.7789   -0.4797   -1.7911 H   0  0  0  0  0  0  0  0  0  0  0  0
    0.7669   -2.0463   -1.3499 H   0  0  0  0  0  0  0  0  0  0  0  0
    1.8172   -0.6922   -0.8519 H   0  0  0  0  0  0  0  0  0  0  0  0
   -0.9288   -1.3217    0.2818 H   0  0  0  0  0  0  0  0  0  0  0  0
    0.7971    1.1948    0.5746 H   0  0  0  0  0  0  0  0  0  0  0  0
   -0.7427    0.9573    1.4281 H   0  0  0  0  0  0  0  0  0  0  0  0
    1.7211   -0.8920    1.7389 H   0  0  0  0  0  0  0  0  0  0  0  0
  1  2  1  0  0  0  0
  1  9  1  0  0  0  0
  1 11  1  0  0  0  0
  2  5  1  1  0  0  0
  3  2  1  0  0  0  0
  3  4  1  0  0  0  0
  4 14  1  0  0  0  0
  4  5  1  0  0  0  0
  5 15  1  1  0  0  0
  5  6  1  0  0  0  0
  6 17  1  0  0  0  0
  6  7  1  0  0  0  0
  7  8  2  0  0  0  0
 10  1  1  0  0  0  0
 12  2  1  0  0  0  0
 13  4  1  0  0  0  0
 16  6  1  0  0  0  0
 18  7  1  0  0  0  0
M  END
