title
 OpenBabel02282110003D

 16 16  0  0  0  0  0  0  0  0999 V2000
    0.4078    3.2503    0.0053 C   0  0  0  0  0  0  0  0  0  0  0  0
    0.5587    1.8126    0.0497 N   0  0  0  0  0  0  0  0  0  0  0  0
   -0.4846    1.1143   -0.0883 C   0  0  0  0  0  0  0  0  0  0  0  0
   -0.4863   -0.2710   -0.0665 N   0  0  0  0  0  0  0  0  0  0  0  0
   -1.6119   -1.2086   -0.2107 C   0  0  0  0  0  0  0  0  0  0  0  0
   -0.5961   -2.3704   -0.0452 C   0  0  0  0  0  0  0  0  0  0  0  0
    0.4836   -1.2761    0.0903 C   0  0  0  0  0  0  0  0  0  0  0  0
    1.6652   -1.2449    0.2592 O   0  0  0  0  0  0  0  0  0  0  0  0
    1.0278    3.6587   -0.8012 H   0  0  0  0  0  0  0  0  0  0  0  0
   -0.6314    3.5863   -0.1487 H   0  0  0  0  0  0  0  0  0  0  0  0
    0.7788    3.6864    0.9400 H   0  0  0  0  0  0  0  0  0  0  0  0
   -1.4945    1.5274   -0.2392 H   0  0  0  0  0  0  0  0  0  0  0  0
   -2.3579   -1.1239    0.5850 H   0  0  0  0  0  0  0  0  0  0  0  0
   -2.1056   -1.1547   -1.1855 H   0  0  0  0  0  0  0  0  0  0  0  0
   -0.7220   -2.9843    0.8480 H   0  0  0  0  0  0  0  0  0  0  0  0
   -0.4695   -3.0150   -0.9165 H   0  0  0  0  0  0  0  0  0  0  0  0
  1  2  1  0  0  0  0
  1 11  1  0  0  0  0
  3  4  1  0  0  0  0
  3  2  2  0  0  0  0
  4  7  1  0  0  0  0
  5  4  1  0  0  0  0
  5  6  1  0  0  0  0
  5 13  1  0  0  0  0
  6  7  1  0  0  0  0
  6 15  1  0  0  0  0
  7  8  2  0  0  0  0
  9  1  1  0  0  0  0
 10  1  1  0  0  0  0
 12  3  1  0  0  0  0
 14  5  1  0  0  0  0
 16  6  1  0  0  0  0
M  END
