17
title
C -0.52784395 1.2504005 -2.932715
C 0.08815911 1.5519493 -1.5666983
N 0.56796384 0.3193384 -0.94398177
C 0.2896201 0.07570322 0.2492304
O -0.4297693 0.78738296 1.1939104
C -0.37290505 -0.33630505 2.1325347
C 0.5283638 -1.1182215 1.1559718
O 0.0046972674 -2.3465872 0.7210157
H -1.409034 0.6096493 -2.8290074
H -0.8352691 2.1761665 -3.4290447
H 0.19224367 0.7332127 -3.573322
H 0.9529589 2.2150383 -1.6976035
H -0.63203204 2.083169 -0.93077266
H 0.064849265 -0.030198617 3.084441
H -1.3581764 -0.7858631 2.2720602
H 1.5694044 -1.2111936 1.4938607
H 0.24520501 -2.442004 -0.207929
