18
title
C -2.376037 1.0962468 1.9342992
C -1.379401 1.493521 0.84552985
N -1.0907407 0.3511086 -0.01911938
C 0.09060668 0.100533016 -0.34045613
O 1.2774767 0.7457032 -0.012950776
C 2.0723312 -0.31146014 -0.62922764
C 0.78558767 -1.003982 -1.1369269
N 0.6039547 -2.400675 -0.808146
H -3.2889543 0.6899128 1.4894336
H -1.9509522 0.32948768 2.5897248
H -2.6418145 1.9618757 2.5493555
H -1.8214338 2.2811697 0.22125167
H -0.46974647 1.9137808 1.2947136
H 2.7581885 0.09086842 -1.3779294
H 2.6224926 -0.88280654 0.12434375
H 0.6435605 -0.8750994 -2.2136824
H 0.52533877 -2.5151873 0.19898379
H -0.27361774 -2.7317572 -1.1969504
