19
title
C -2.3377512 0.9964858 1.9741846
C -1.3490568 1.4602145 0.9040791
N -1.0749804 0.37539396 -0.035521455
C 0.106084086 0.10161462 -0.33728153
O 1.3026932 0.67679095 0.073239855
C 2.0739 -0.29731533 -0.6915894
C 0.7697083 -0.94308424 -1.2160071
C 0.4878002 -2.4028308 -0.88343555
H -3.2549627 0.6206383 1.5117531
H -1.9089074 0.18887505 2.5757723
H -2.5966184 1.8220075 2.644943
H -1.7947524 2.2873542 0.3361019
H -0.43495026 1.8478712 1.3728194
H 2.7122061 0.19804898 -1.4274179
H 2.676789 -0.92508423 -0.028547473
H 0.6001078 -0.74904764 -2.279231
H 0.6798459 -2.6102247 0.17411411
H -0.560097 -2.6401396 -1.0862406
H 1.1134707 -3.0712519 -1.4834169
