title
 OpenBabel02282110003D

 19 19  0  0  1  0  0  0  0  0999 V2000
   -2.3378    0.9965    1.9742 C   0  0  0  0  0  0  0  0  0  0  0  0
   -1.3491    1.4602    0.9041 C   0  0  0  0  0  0  0  0  0  0  0  0
   -1.0750    0.3754   -0.0355 N   0  0  0  0  0  0  0  0  0  0  0  0
    0.1061    0.1016   -0.3373 C   0  0  0  0  0  0  0  0  0  0  0  0
    1.3027    0.6768    0.0732 O   0  0  0  0  0  0  0  0  0  0  0  0
    2.0739   -0.2973   -0.6916 C   0  0  0  0  0  0  0  0  0  0  0  0
    0.7697   -0.9431   -1.2160 C   0  0  1  0  0  0  0  0  0  0  0  0
    0.4878   -2.4028   -0.8834 C   0  0  0  0  0  0  0  0  0  0  0  0
   -3.2550    0.6206    1.5118 H   0  0  0  0  0  0  0  0  0  0  0  0
   -1.9089    0.1889    2.5758 H   0  0  0  0  0  0  0  0  0  0  0  0
   -2.5966    1.8220    2.6449 H   0  0  0  0  0  0  0  0  0  0  0  0
   -1.7948    2.2874    0.3361 H   0  0  0  0  0  0  0  0  0  0  0  0
   -0.4350    1.8479    1.3728 H   0  0  0  0  0  0  0  0  0  0  0  0
    2.7122    0.1980   -1.4274 H   0  0  0  0  0  0  0  0  0  0  0  0
    2.6768   -0.9251   -0.0285 H   0  0  0  0  0  0  0  0  0  0  0  0
    0.6001   -0.7490   -2.2792 H   0  0  0  0  0  0  0  0  0  0  0  0
    0.6798   -2.6102    0.1741 H   0  0  0  0  0  0  0  0  0  0  0  0
   -0.5601   -2.6401   -1.0862 H   0  0  0  0  0  0  0  0  0  0  0  0
    1.1135   -3.0713   -1.4834 H   0  0  0  0  0  0  0  0  0  0  0  0
  1 10  1  0  0  0  0
  1 11  1  0  0  0  0
  2 13  1  0  0  0  0
  2  1  1  0  0  0  0
  3  2  1  0  0  0  0
  4  3  2  0  0  0  0
  4  5  1  0  0  0  0
  6 15  1  0  0  0  0
  6  5  1  0  0  0  0
  7 16  1  6  0  0  0
  7  8  1  0  0  0  0
  7  6  1  0  0  0  0
  7  4  1  0  0  0  0
  8 17  1  0  0  0  0
  9  1  1  0  0  0  0
 12  2  1  0  0  0  0
 14  6  1  0  0  0  0
 18  8  1  0  0  0  0
 19  8  1  0  0  0  0
M  END
