title
 OpenBabel02282110003D

 16 16  0  0  1  0  0  0  0  0999 V2000
    1.7141    1.5762   -0.2472 O   0  0  0  0  0  0  0  0  0  0  0  0
    1.7379    0.1726   -0.1742 C   0  0  1  0  0  0  0  0  0  0  0  0
    1.7325   -0.4633    1.2363 C   0  0  0  0  0  0  0  0  0  0  0  0
    0.4365   -1.0545    1.0094 O   0  0  0  0  0  0  0  0  0  0  0  0
    0.3329   -0.4650   -0.3097 C   0  0  1  0  0  0  0  0  0  0  0  0
   -0.8529    0.4892   -0.4378 C   0  0  0  0  0  0  0  0  0  0  0  0
   -2.1653   -0.2179   -0.1743 C   0  0  0  0  0  0  0  0  0  0  0  0
   -3.1031   -0.2166   -0.9314 O   0  0  0  0  0  0  0  0  0  0  0  0
    2.6171    1.9042   -0.2005 H   0  0  0  0  0  0  0  0  0  0  0  0
    2.4814   -0.2533   -0.8579 H   0  0  0  0  0  0  0  0  0  0  0  0
    2.4995   -1.2212    1.4355 H   0  0  0  0  0  0  0  0  0  0  0  0
    1.7187    0.2724    2.0499 H   0  0  0  0  0  0  0  0  0  0  0  0
    0.2726   -1.2486   -1.0759 H   0  0  0  0  0  0  0  0  0  0  0  0
   -0.7357    1.2917    0.3002 H   0  0  0  0  0  0  0  0  0  0  0  0
   -0.8818    0.9375   -1.4347 H   0  0  0  0  0  0  0  0  0  0  0  0
   -2.2098   -0.7537    0.7980 H   0  0  0  0  0  0  0  0  0  0  0  0
  1  9  1  0  0  0  0
  1  2  1  0  0  0  0
  2  5  1  6  0  0  0
  2  3  1  0  0  0  0
  3 11  1  0  0  0  0
  3 12  1  0  0  0  0
  4  3  1  0  0  0  0
  5 13  1  6  0  0  0
  5  4  1  0  0  0  0
  6  5  1  0  0  0  0
  6  7  1  0  0  0  0
  6 14  1  0  0  0  0
  7 16  1  0  0  0  0
  8  7  2  0  0  0  0
 10  2  1  0  0  0  0
 15  6  1  0  0  0  0
M  END
