19
title
C -0.20655686 3.0679874 -1.4705279
C -0.16141877 1.539967 -1.3927441
C 0.6736138 1.0318545 -0.21084191
C 0.69045293 -0.49254474 -0.104781754
C 1.3311546 -1.1363646 1.1461686
O 0.04852687 -1.741515 1.5028142
C -0.5700531 -1.1653336 0.41251254
N -1.7683338 -1.2041844 0.043052904
H 0.7982057 3.493063 -1.5761284
H -0.80130714 3.4038332 -2.325402
H -0.65335286 3.4970305 -0.5666942
H -1.1757926 1.1353036 -1.3094807
H 0.25472108 1.1357387 -2.3252032
H 1.7077707 1.3904588 -0.30405176
H 0.2828241 1.4537554 0.7247652
H 1.0379121 -0.9381173 -1.0420684
H 2.0911677 -1.9023153 0.9751402
H 1.6596673 -0.4391987 1.922026
H -2.3377001 -1.7618791 0.68208826
