title
 OpenBabel02282110003D

 19 19  0  0  1  0  0  0  0  0999 V2000
   -1.1836    3.0402    0.8837 C   0  0  0  0  0  0  0  0  0  0  0  0
   -1.1098    1.5126    0.8248 C   0  0  0  0  0  0  0  0  0  0  0  0
   -0.5613    0.9950   -0.5118 C   0  0  0  0  0  0  0  0  0  0  0  0
   -0.4443   -0.5264   -0.5487 C   0  0  1  0  0  0  0  0  0  0  0  0
    0.2903   -1.1811   -1.7603 C   0  0  0  0  0  0  0  0  0  0  0  0
    1.2537   -1.7235   -0.7990 N   0  0  0  0  0  0  0  0  0  0  0  0
    0.6929   -1.1428    0.3120 C   0  0  0  0  0  0  0  0  0  0  0  0
    1.0086   -1.1241    1.4731 O   0  0  0  0  0  0  0  0  0  0  0  0
   -0.1916    3.4894    0.7621 H   0  0  0  0  0  0  0  0  0  0  0  0
   -1.8264    3.4396    0.0907 H   0  0  0  0  0  0  0  0  0  0  0  0
   -1.5865    3.3816    1.8421 H   0  0  0  0  0  0  0  0  0  0  0  0
   -0.4803    1.1320    1.6363 H   0  0  0  0  0  0  0  0  0  0  0  0
   -2.1098    1.0894    0.9889 H   0  0  0  0  0  0  0  0  0  0  0  0
   -1.2089    1.3288   -1.3340 H   0  0  0  0  0  0  0  0  0  0  0  0
    0.4266    1.4381   -0.6989 H   0  0  0  0  0  0  0  0  0  0  0  0
   -1.4098   -0.9965   -0.3367 H   0  0  0  0  0  0  0  0  0  0  0  0
   -0.2768   -1.9409   -2.3072 H   0  0  0  0  0  0  0  0  0  0  0  0
    0.7206   -0.4641   -2.4680 H   0  0  0  0  0  0  0  0  0  0  0  0
    2.1082   -2.2468   -0.9194 H   0  0  0  0  0  0  0  0  0  0  0  0
  1 11  1  0  0  0  0
  2  1  1  0  0  0  0
  2 13  1  0  0  0  0
  2 12  1  0  0  0  0
  3  2  1  0  0  0  0
  4  3  1  0  0  0  0
  4 16  1  1  0  0  0
  4  7  1  0  0  0  0
  5  6  1  0  0  0  0
  5  4  1  0  0  0  0
  6  7  1  0  0  0  0
  7  8  2  0  0  0  0
  9  1  1  0  0  0  0
 10  1  1  0  0  0  0
 14  3  1  0  0  0  0
 15  3  1  0  0  0  0
 17  5  1  0  0  0  0
 18  5  1  0  0  0  0
 19  6  1  0  0  0  0
M  END
