title
 OpenBabel02282110003D

 20 20  0  0  1  0  0  0  0  0999 V2000
   -0.1399    2.9106   -1.7613 C   0  0  0  0  0  0  0  0  0  0  0  0
   -0.1684    1.4015   -1.5068 C   0  0  0  0  0  0  0  0  0  0  0  0
    0.6994    0.9831   -0.3124 C   0  0  0  0  0  0  0  0  0  0  0  0
    0.6512   -0.5171   -0.0320 C   0  0  1  0  0  0  0  0  0  0  0  0
    1.4032   -1.1118    1.2037 C   0  0  0  0  0  0  0  0  0  0  0  0
    0.1401   -1.9360    1.5965 C   0  0  0  0  0  0  0  0  0  0  0  0
   -0.6423   -1.1032    0.5680 C   0  0  0  0  0  0  0  0  0  0  0  0
   -1.8074   -0.8914    0.3847 O   0  0  0  0  0  0  0  0  0  0  0  0
    0.8787    3.2620   -1.9620 H   0  0  0  0  0  0  0  0  0  0  0  0
   -0.7607    3.1808   -2.6210 H   0  0  0  0  0  0  0  0  0  0  0  0
   -0.5153    3.4648   -0.8938 H   0  0  0  0  0  0  0  0  0  0  0  0
   -1.1966    1.0688   -1.3296 H   0  0  0  0  0  0  0  0  0  0  0  0
    0.1771    0.8708   -2.4043 H   0  0  0  0  0  0  0  0  0  0  0  0
    1.7425    1.2807   -0.4867 H   0  0  0  0  0  0  0  0  0  0  0  0
    0.3724    1.5263    0.5848 H   0  0  0  0  0  0  0  0  0  0  0  0
    0.9054   -1.0782   -0.9418 H   0  0  0  0  0  0  0  0  0  0  0  0
    2.3062   -1.6839    0.9877 H   0  0  0  0  0  0  0  0  0  0  0  0
    1.6410   -0.3429    1.9432 H   0  0  0  0  0  0  0  0  0  0  0  0
    0.1971   -2.9889    1.3009 H   0  0  0  0  0  0  0  0  0  0  0  0
   -0.2160   -1.8857    2.6284 H   0  0  0  0  0  0  0  0  0  0  0  0
  1  2  1  0  0  0  0
  1 11  1  0  0  0  0
  2 12  1  0  0  0  0
  2  3  1  0  0  0  0
  3  4  1  0  0  0  0
  3 15  1  0  0  0  0
  4 16  1  6  0  0  0
  4  7  1  0  0  0  0
  4  5  1  0  0  0  0
  5  6  1  0  0  0  0
  5 18  1  0  0  0  0
  6 20  1  0  0  0  0
  7  6  1  0  0  0  0
  8  7  2  0  0  0  0
  9  1  1  0  0  0  0
 10  1  1  0  0  0  0
 13  2  1  0  0  0  0
 14  3  1  0  0  0  0
 17  5  1  0  0  0  0
 19  6  1  0  0  0  0
M  END
