17
title
C -1.1380786 2.8885715 1.1080539
C -0.9827426 1.3723687 1.0748454
N -0.7003424 0.91172487 -0.2897646
C -0.54944134 -0.5245609 -0.38886222
C -0.03463076 -1.0598817 -1.7373127
O 1.1840614 -1.554697 -1.0921727
C 0.8036096 -1.0524294 0.12460808
O 1.4111885 -1.0747402 1.1459714
H -0.23456906 3.3773124 0.7332468
H -1.981958 3.2145503 0.48838612
H -1.3245555 3.2340922 2.1288319
H -0.14397405 1.0633229 1.7063707
H -1.8859985 0.89191705 1.4948492
H -1.4543841 1.208059 -0.9039338
H -1.3909315 -1.1084006 0.023872113
H -0.59328604 -1.8807654 -2.1901045
H 0.20470561 -0.2866435 -2.4695935
