19
title
C -0.6567369 2.9426446 1.8524989
C -0.74779516 1.4347 1.6052315
C 0.19367701 0.95353436 0.49592358
C 0.08065247 -0.5427818 0.22833951
N -1.186157 -0.9946528 -0.42508024
C -0.46703696 -1.7540491 -1.4834169
C 0.83914745 -1.1165559 -0.98240584
O 1.9631875 -1.0530934 -1.3800291
H 0.3572502 3.235786 2.1463926
H -0.9145917 3.5067089 0.9494706
H -1.3389463 3.2580223 2.648068
H -0.5194545 0.8943489 2.5341372
H -1.7761545 1.165604 1.3346866
H -0.026363378 1.4927988 -0.43356603
H 1.236248 1.1773163 0.75649333
H 0.33451724 -1.1092961 1.139145
H -1.7669849 -1.576288 0.16646989
H -0.46174413 -2.8474212 -1.3718263
H -0.76771826 -1.5095377 -2.5081034
