title
 OpenBabel02282110003D

 18 18  0  0  1  0  0  0  0  0999 V2000
   -0.4390    2.9146   -1.4649 C   0  0  0  0  0  0  0  0  0  0  0  0
   -0.4680    1.3938   -1.3582 C   0  0  0  0  0  0  0  0  0  0  0  0
    0.5701    0.9212   -0.4356 N   0  0  0  0  0  0  0  0  0  0  0  0
    0.5956   -0.5201   -0.2887 C   0  0  1  0  0  0  0  0  0  0  0  0
    1.5392   -1.0529    0.8104 C   0  0  0  0  0  0  0  0  0  0  0  0
    0.3952   -1.5818    1.5513 O   0  0  0  0  0  0  0  0  0  0  0  0
   -0.4894   -1.0904    0.6164 C   0  0  0  0  0  0  0  0  0  0  0  0
   -1.7417   -1.1257    0.5772 N   0  0  0  0  0  0  0  0  0  0  0  0
    0.5192    3.2674   -1.8650 H   0  0  0  0  0  0  0  0  0  0  0  0
   -1.2275    3.2692   -2.1350 H   0  0  0  0  0  0  0  0  0  0  0  0
   -0.5834    3.3728   -0.4825 H   0  0  0  0  0  0  0  0  0  0  0  0
   -1.4323    1.0575   -0.9655 H   0  0  0  0  0  0  0  0  0  0  0  0
   -0.3641    0.9442   -2.3636 H   0  0  0  0  0  0  0  0  0  0  0  0
    1.4786    1.2309   -0.7716 H   0  0  0  0  0  0  0  0  0  0  0  0
    0.6708   -1.0743   -1.2401 H   0  0  0  0  0  0  0  0  0  0  0  0
    2.2265   -1.8536    0.5284 H   0  0  0  0  0  0  0  0  0  0  0  0
    2.0496   -0.2756    1.3835 H   0  0  0  0  0  0  0  0  0  0  0  0
   -2.1285   -1.5902    1.4010 H   0  0  0  0  0  0  0  0  0  0  0  0
  1  2  1  0  0  0  0
  1 11  1  0  0  0  0
  2 12  1  0  0  0  0
  2  3  1  0  0  0  0
  3  4  1  0  0  0  0
  4 15  1  6  0  0  0
  4  7  1  0  0  0  0
  4  5  1  0  0  0  0
  5 17  1  0  0  0  0
  5  6  1  0  0  0  0
  7  6  1  0  0  0  0
  8  7  2  0  0  0  0
  8 18  1  0  0  0  0
  9  1  1  0  0  0  0
 10  1  1  0  0  0  0
 13  2  1  0  0  0  0
 14  3  1  0  0  0  0
 16  5  1  0  0  0  0
M  END
