title
 OpenBabel02282110003D

 18 18  0  0  1  0  0  0  0  0999 V2000
   -1.1530    2.8384    1.0662 C   0  0  0  0  0  0  0  0  0  0  0  0
   -0.8661    1.3502    1.1520 C   0  0  0  0  0  0  0  0  0  0  0  0
   -0.7299    0.8470   -0.1752 O   0  0  0  0  0  0  0  0  0  0  0  0
   -0.4829   -0.5217   -0.2336 C   0  0  1  0  0  0  0  0  0  0  0  0
   -0.3427   -1.1265   -1.6577 C   0  0  0  0  0  0  0  0  0  0  0  0
    0.8965   -1.9527   -1.1980 C   0  0  0  0  0  0  0  0  0  0  0  0
    0.9530   -1.0431    0.0436 C   0  0  0  0  0  0  0  0  0  0  0  0
    1.8139   -0.7296    0.8141 O   0  0  0  0  0  0  0  0  0  0  0  0
   -0.3301    3.3590    0.5685 H   0  0  0  0  0  0  0  0  0  0  0  0
   -2.0697    3.0223    0.4986 H   0  0  0  0  0  0  0  0  0  0  0  0
   -1.2734    3.2592    2.0688 H   0  0  0  0  0  0  0  0  0  0  0  0
    0.0529    1.1576    1.7201 H   0  0  0  0  0  0  0  0  0  0  0  0
   -1.6898    0.8225    1.6616 H   0  0  0  0  0  0  0  0  0  0  0  0
   -1.2067   -1.0944    0.3746 H   0  0  0  0  0  0  0  0  0  0  0  0
   -1.2010   -1.6826   -2.0342 H   0  0  0  0  0  0  0  0  0  0  0  0
   -0.0714   -0.3442   -2.3693 H   0  0  0  0  0  0  0  0  0  0  0  0
    0.6588   -2.9880   -0.9337 H   0  0  0  0  0  0  0  0  0  0  0  0
    1.7840   -1.9496   -1.8338 H   0  0  0  0  0  0  0  0  0  0  0  0
  1  2  1  0  0  0  0
  1 11  1  0  0  0  0
  2 13  1  0  0  0  0
  2 12  1  0  0  0  0
  3  2  1  0  0  0  0
  4  3  1  0  0  0  0
  4  7  1  0  0  0  0
  4 14  1  1  0  0  0
  5  6  1  0  0  0  0
  5  4  1  0  0  0  0
  6 17  1  0  0  0  0
  6  7  1  0  0  0  0
  7  8  2  0  0  0  0
  9  1  1  0  0  0  0
 10  1  1  0  0  0  0
 15  5  1  0  0  0  0
 16  5  1  0  0  0  0
 18  6  1  0  0  0  0
M  END
