17
title
C -0.5767329 2.2326035 1.0910263
O -1.2401825 1.8330771 -0.09780575
C -0.48365512 1.0024792 -0.9414332
C -0.47397897 -0.47052065 -0.5151886
C 0.22464027 -1.4660586 -1.4930305
N 1.1234087 -1.8153576 -0.39195132
C 0.5822067 -0.94881094 0.5223034
O 0.8593317 -0.6953448 1.6661202
H -0.31872317 1.3816332 1.7317126
H 0.34689954 2.7862425 0.86014754
H -1.2618212 2.8990283 1.6206582
H -0.9562429 1.0674512 -1.9291108
H 0.5503775 1.3731092 -1.0449198
H -1.4880553 -0.7705189 -0.23812748
H -0.39923146 -2.291794 -1.848068
H 0.7254579 -0.99306715 -2.3453774
H 1.9044048 -2.451107 -0.32956237
