18
title
O 1.475119 2.718897 0.90494835
C 1.3787127 1.3321131 0.614066
C -0.08168641 0.9268776 0.7881166
C -0.3133873 -0.5609261 0.5434178
C -1.7664713 -1.1387644 0.5581458
C -1.4898447 -1.911735 -0.7668371
C -0.19715491 -1.0908959 -0.8993437
O 0.5499595 -0.8539939 -1.8058636
H 2.3660266 3.0081797 0.68856704
H 1.7009213 1.1067915 -0.41170642
H 2.0100315 0.73795253 1.2968183
H -0.40379956 1.1908026 1.8026998
H -0.694157 1.5196471 0.09815284
H 0.34243527 -1.1592393 1.191191
H -2.0331464 -1.7446024 1.4247184
H -2.5167575 -0.3546478 0.43058962
H -1.2771341 -2.975285 -0.6161393
H -2.2067966 -1.8154573 -1.5857015
