title
 OpenBabel02282110003D

 17 17  0  0  1  0  0  0  0  0999 V2000
   -1.2571    2.8095   -1.2841 C   0  0  0  0  0  0  0  0  0  0  0  0
   -1.0465    1.4184   -1.2205 O   0  0  0  0  0  0  0  0  0  0  0  0
   -0.4221    1.0136   -0.0222 C   0  0  0  0  0  0  0  0  0  0  0  0
   -0.1859   -0.4817   -0.0916 C   0  0  1  0  0  0  0  0  0  0  0  0
    0.9989   -0.9355   -0.8694 N   0  0  0  0  0  0  0  0  0  0  0  0
    1.4632   -1.8464    0.2095 C   0  0  0  0  0  0  0  0  0  0  0  0
    0.4316   -1.1815    1.1343 C   0  0  0  0  0  0  0  0  0  0  0  0
    0.2170   -1.1691    2.3083 O   0  0  0  0  0  0  0  0  0  0  0  0
   -0.3093    3.3682   -1.2376 H   0  0  0  0  0  0  0  0  0  0  0  0
   -1.7463    3.0225   -2.2376 H   0  0  0  0  0  0  0  0  0  0  0  0
   -1.9038    3.1628   -0.4653 H   0  0  0  0  0  0  0  0  0  0  0  0
    0.5398    1.5325    0.1146 H   0  0  0  0  0  0  0  0  0  0  0  0
   -1.0584    1.2382    0.8510 H   0  0  0  0  0  0  0  0  0  0  0  0
   -1.1299   -0.9719   -0.3765 H   0  0  0  0  0  0  0  0  0  0  0  0
    0.7716   -1.3968   -1.7415 H   0  0  0  0  0  0  0  0  0  0  0  0
    1.2512   -2.9157    0.0648 H   0  0  0  0  0  0  0  0  0  0  0  0
    2.5164   -1.7328    0.4888 H   0  0  0  0  0  0  0  0  0  0  0  0
  1  9  1  0  0  0  0
  1  2  1  0  0  0  0
  1 11  1  0  0  0  0
  2  3  1  0  0  0  0
  3 12  1  0  0  0  0
  3 13  1  0  0  0  0
  4 14  1  6  0  0  0
  4  3  1  0  0  0  0
  4  7  1  0  0  0  0
  5  4  1  0  0  0  0
  5  6  1  0  0  0  0
  6 17  1  0  0  0  0
  6  7  1  0  0  0  0
  7  8  2  0  0  0  0
 10  1  1  0  0  0  0
 15  5  1  0  0  0  0
 16  6  1  0  0  0  0
M  END
