title
 OpenBabel02282110003D

 16 16  0  0  1  0  0  0  0  0999 V2000
    1.4818    2.8669    0.4214 C   0  0  0  0  0  0  0  0  0  0  0  0
    1.4391    1.3598    0.2506 C   0  0  0  0  0  0  0  0  0  0  0  0
    0.1660    0.8980    0.7065 O   0  0  0  0  0  0  0  0  0  0  0  0
    0.0125   -0.4816    0.6202 C   0  0  1  0  0  0  0  0  0  0  0  0
   -1.3858   -0.9934    0.9974 C   0  0  0  0  0  0  0  0  0  0  0  0
   -1.5440   -1.5822   -0.3352 O   0  0  0  0  0  0  0  0  0  0  0  0
   -0.3439   -1.0741   -0.7668 C   0  0  0  0  0  0  0  0  0  0  0  0
    0.1227   -1.1239   -1.8587 O   0  0  0  0  0  0  0  0  0  0  0  0
    2.4485    3.2556    0.0883 H   0  0  0  0  0  0  0  0  0  0  0  0
    0.6948    3.3429   -0.1698 H   0  0  0  0  0  0  0  0  0  0  0  0
    1.3390    3.1409    1.4705 H   0  0  0  0  0  0  0  0  0  0  0  0
    1.5832    1.0757   -0.8000 H   0  0  0  0  0  0  0  0  0  0  0  0
    2.2346    0.8744    0.8389 H   0  0  0  0  0  0  0  0  0  0  0  0
    0.8411   -1.0235    1.1012 H   0  0  0  0  0  0  0  0  0  0  0  0
   -1.4465   -1.7589    1.7721 H   0  0  0  0  0  0  0  0  0  0  0  0
   -2.1132   -0.1971    1.1626 H   0  0  0  0  0  0  0  0  0  0  0  0
  1 11  1  0  0  0  0
  2  1  1  0  0  0  0
  2  3  1  0  0  0  0
  2 13  1  0  0  0  0
  4  3  1  0  0  0  0
  4  5  1  0  0  0  0
  4 14  1  1  0  0  0
  5 16  1  0  0  0  0
  5 15  1  0  0  0  0
  6  5  1  0  0  0  0
  7  6  1  0  0  0  0
  7  4  1  0  0  0  0
  8  7  2  0  0  0  0
  9  1  1  0  0  0  0
 10  1  1  0  0  0  0
 12  2  1  0  0  0  0
M  END
