17
title
C -0.4218417 2.8371089 -1.4574983
C -0.55369633 1.3311528 -1.3213967
O 0.53504187 0.860898 -0.52729726
C 0.51906985 -0.5191758 -0.3344367
C 1.6267599 -1.0224284 0.6310025
N 0.5547313 -1.5792731 1.464012
C -0.4885233 -1.0714444 0.7298835
O -1.6802678 -1.055576 0.89061314
H 0.5294088 3.1007388 -1.9287393
H -1.2360873 3.2332916 -2.071347
H -0.46377504 3.316572 -0.4754992
H -1.505297 1.0564635 -0.8489029
H -0.52172875 0.8449464 -2.3106017
H 0.4706835 -1.0677952 -1.2872845
H 2.3204973 -1.7651659 0.22731264
H 2.1763923 -0.19773562 1.0933491
H 0.57477844 -2.01748 2.373059
