16
title
C -0.44166318 2.883628 1.5797613
O -0.5568835 1.4873626 1.4276977
C 0.21568315 0.9884664 0.36371565
C -0.01946028 -0.50398237 0.25027227
O -1.2444621 -0.8851767 -0.42333746
C -0.5718894 -1.655074 -1.439822
C 0.7759693 -1.2548047 -0.83048654
O 1.9287585 -1.4150525 -1.0883138
H 0.59697956 3.1873152 1.7854648
H -0.7860704 3.4209905 0.68253297
H -1.069051 3.1704457 2.4266007
H -0.05142631 1.4791285 -0.58660793
H 1.2930506 1.1568309 0.5385989
H 0.049840074 -0.9591022 1.2481098
H -0.80300003 -2.7272983 -1.3936789
H -0.7597843 -1.2866322 -2.4562528
