title
 OpenBabel02282110003D

 17 17  0  0  0  0  0  0  0  0999 V2000
    1.4979    1.5151    1.5795 O   0  0  0  0  0  0  0  0  0  0  0  0
    1.7175    0.1241    1.3907 C   0  0  0  0  0  0  0  0  0  0  0  0
    0.3556   -0.5411    1.2237 C   0  0  0  0  0  0  0  0  0  0  0  0
   -0.3471   -0.1191    0.0390 N   0  0  0  0  0  0  0  0  0  0  0  0
   -0.9933    1.1422   -0.3438 C   0  0  0  0  0  0  0  0  0  0  0  0
   -1.4261    0.4394   -1.6622 C   0  0  0  0  0  0  0  0  0  0  0  0
   -0.7043   -0.8066   -1.0963 C   0  0  0  0  0  0  0  0  0  0  0  0
   -0.5026   -1.9418   -1.4448 O   0  0  0  0  0  0  0  0  0  0  0  0
    2.3518    1.9548    1.6237 H   0  0  0  0  0  0  0  0  0  0  0  0
    2.3296   -0.0698    0.4975 H   0  0  0  0  0  0  0  0  0  0  0  0
    2.2287   -0.3237    2.2577 H   0  0  0  0  0  0  0  0  0  0  0  0
    0.4847   -1.6252    1.1438 H   0  0  0  0  0  0  0  0  0  0  0  0
   -0.2512   -0.3318    2.1148 H   0  0  0  0  0  0  0  0  0  0  0  0
   -1.8139    1.4343    0.3212 H   0  0  0  0  0  0  0  0  0  0  0  0
   -0.2980    1.9777   -0.4486 H   0  0  0  0  0  0  0  0  0  0  0  0
   -2.5012    0.3102   -1.7984 H   0  0  0  0  0  0  0  0  0  0  0  0
   -0.9865    0.8377   -2.5783 H   0  0  0  0  0  0  0  0  0  0  0  0
  1  9  1  0  0  0  0
  2  1  1  0  0  0  0
  2 11  1  0  0  0  0
  3  2  1  0  0  0  0
  3 13  1  0  0  0  0
  4  3  1  0  0  0  0
  5  4  1  0  0  0  0
  5 14  1  0  0  0  0
  6  7  1  0  0  0  0
  6  5  1  0  0  0  0
  7  4  1  0  0  0  0
  8  7  2  0  0  0  0
 10  2  1  0  0  0  0
 12  3  1  0  0  0  0
 15  5  1  0  0  0  0
 16  6  1  0  0  0  0
 17  6  1  0  0  0  0
M  END
