17
title
O 1.9419005 2.7533784 -0.46716338
C 1.7518252 1.3791579 -0.17518663
C 0.31891152 0.90997595 -0.435709
C 0.12891613 -0.5749689 -0.15016575
N 0.16015516 -0.9714561 1.2911999
C -1.1188713 -1.7264589 1.1966356
C -1.3037337 -1.1381336 -0.21149947
O -2.192821 -1.092347 -1.0061545
H 1.40453 3.2617602 0.14866483
H 2.4459348 0.83966786 -0.830476
H 2.0324018 1.1447581 0.8631456
H -0.3722345 1.4804101 0.198071
H 0.051284652 1.1115971 -1.4790659
H 0.7991969 -1.1732329 -0.7885069
H 0.95371497 -1.5498468 1.539449
H -1.0298246 -2.8215957 1.1776985
H -1.8712546 -1.4501413 1.9432559
