title
 OpenBabel02282110003D

 16 16  0  0  1  0  0  0  0  0999 V2000
    1.4032    2.8744    0.7193 O   0  0  0  0  0  0  0  0  0  0  0  0
    1.2818    1.4667    0.6081 C   0  0  0  0  0  0  0  0  0  0  0  0
   -0.1757    1.0009    0.7160 C   0  0  0  0  0  0  0  0  0  0  0  0
   -0.3076   -0.5191    0.6368 C   0  0  1  0  0  0  0  0  0  0  0  0
   -1.7093   -1.1482    0.5067 C   0  0  0  0  0  0  0  0  0  0  0  0
   -1.3470   -1.7158   -0.7942 O   0  0  0  0  0  0  0  0  0  0  0  0
   -0.0964   -1.1535   -0.7441 C   0  0  0  0  0  0  0  0  0  0  0  0
    0.7559   -1.1985   -1.5726 O   0  0  0  0  0  0  0  0  0  0  0  0
    1.0690    3.2658   -0.0937 H   0  0  0  0  0  0  0  0  0  0  0  0
    1.7275    1.0879   -0.3220 H   0  0  0  0  0  0  0  0  0  0  0  0
    1.8633    1.0500    1.4386 H   0  0  0  0  0  0  0  0  0  0  0  0
   -0.5939    1.3609    1.6629 H   0  0  0  0  0  0  0  0  0  0  0  0
   -0.7651    1.4625   -0.0880 H   0  0  0  0  0  0  0  0  0  0  0  0
    0.3130   -1.0042    1.3970 H   0  0  0  0  0  0  0  0  0  0  0  0
   -1.9638   -1.9375    1.2163 H   0  0  0  0  0  0  0  0  0  0  0  0
   -2.5373   -0.4436    0.3999 H   0  0  0  0  0  0  0  0  0  0  0  0
  2  3  1  0  0  0  0
  2  1  1  0  0  0  0
  2 11  1  0  0  0  0
  3 12  1  0  0  0  0
  4  3  1  0  0  0  0
  4 14  1  1  0  0  0
  5  4  1  0  0  0  0
  5 15  1  0  0  0  0
  6  7  1  0  0  0  0
  6  5  1  0  0  0  0
  7  4  1  0  0  0  0
  8  7  2  0  0  0  0
  9  1  1  0  0  0  0
 10  2  1  0  0  0  0
 13  3  1  0  0  0  0
 16  5  1  0  0  0  0
M  END
