title
 OpenBabel02282110003D

 16 16  0  0  1  0  0  0  0  0999 V2000
    1.6577    2.8464   -0.3548 O   0  0  0  0  0  0  0  0  0  0  0  0
    1.6620    1.4554   -0.0791 C   0  0  0  0  0  0  0  0  0  0  0  0
    0.2880    0.9105   -0.4539 C   0  0  0  0  0  0  0  0  0  0  0  0
    0.1752   -0.5841   -0.2047 C   0  0  1  0  0  0  0  0  0  0  0  0
    0.2495   -0.9561    1.1989 O   0  0  0  0  0  0  0  0  0  0  0  0
   -1.0490   -1.5818    1.2121 C   0  0  0  0  0  0  0  0  0  0  0  0
   -1.2288   -1.2076   -0.2647 C   0  0  0  0  0  0  0  0  0  0  0  0
   -2.0802   -1.3254   -1.0902 O   0  0  0  0  0  0  0  0  0  0  0  0
    2.4906    3.2166   -0.0488 H   0  0  0  0  0  0  0  0  0  0  0  0
    2.4385    0.9323   -0.6623 H   0  0  0  0  0  0  0  0  0  0  0  0
    1.8550    1.2522    0.9842 H   0  0  0  0  0  0  0  0  0  0  0  0
   -0.4767    1.4444    0.1205 H   0  0  0  0  0  0  0  0  0  0  0  0
    0.0947    1.1031   -1.5156 H   0  0  0  0  0  0  0  0  0  0  0  0
    0.9175   -1.1407   -0.7966 H   0  0  0  0  0  0  0  0  0  0  0  0
   -1.0064   -2.6596    1.4153 H   0  0  0  0  0  0  0  0  0  0  0  0
   -1.7496   -1.1081    1.9111 H   0  0  0  0  0  0  0  0  0  0  0  0
  1  2  1  0  0  0  0
  1  9  1  0  0  0  0
  2 11  1  0  0  0  0
  3  4  1  0  0  0  0
  3  2  1  0  0  0  0
  3 12  1  0  0  0  0
  4 14  1  6  0  0  0
  4  5  1  0  0  0  0
  5  6  1  0  0  0  0
  6 15  1  0  0  0  0
  6 16  1  0  0  0  0
  7  4  1  0  0  0  0
  7  6  1  0  0  0  0
  8  7  2  0  0  0  0
 10  2  1  0  0  0  0
 13  3  1  0  0  0  0
M  END
