title
 OpenBabel02282110003D

 20 20  0  0  1  0  0  0  0  0999 V2000
   -0.9477    2.9611   -1.4366 C   0  0  0  0  0  0  0  0  0  0  0  0
   -1.0598    1.4425   -1.2820 C   0  0  0  0  0  0  0  0  0  0  0  0
   -0.4298    0.9255    0.0165 C   0  0  0  0  0  0  0  0  0  0  0  0
   -0.5044   -0.5885    0.1215 C   0  0  1  0  0  0  0  0  0  0  0  0
    0.2474   -1.2631   -0.9241 O   0  0  0  0  0  0  0  0  0  0  0  0
    1.1622   -1.8404    0.0271 C   0  0  0  0  0  0  0  0  0  0  0  0
    0.3501   -1.2754    1.2143 C   0  0  1  0  0  0  0  0  0  0  0  0
    0.9930   -0.3711    2.0801 O   0  0  0  0  0  0  0  0  0  0  0  0
    0.1001    3.2815   -1.4406 H   0  0  0  0  0  0  0  0  0  0  0  0
   -1.4030    3.3012   -2.3721 H   0  0  0  0  0  0  0  0  0  0  0  0
   -1.4479    3.4837   -0.6132 H   0  0  0  0  0  0  0  0  0  0  0  0
   -2.1169    1.1460   -1.3168 H   0  0  0  0  0  0  0  0  0  0  0  0
   -0.5735    0.9437   -2.1280 H   0  0  0  0  0  0  0  0  0  0  0  0
    0.6178    1.2394    0.0799 H   0  0  0  0  0  0  0  0  0  0  0  0
   -0.9374    1.3602    0.8877 H   0  0  0  0  0  0  0  0  0  0  0  0
   -1.5527   -0.9176    0.1016 H   0  0  0  0  0  0  0  0  0  0  0  0
    1.2178   -2.9322   -0.0640 H   0  0  0  0  0  0  0  0  0  0  0  0
    2.1710   -1.4134   -0.0486 H   0  0  0  0  0  0  0  0  0  0  0  0
   -0.1985   -2.0420    1.7752 H   0  0  0  0  0  0  0  0  0  0  0  0
    1.4686   -0.8731    2.7486 H   0  0  0  0  0  0  0  0  0  0  0  0
  1  2  1  0  0  0  0
  1 11  1  0  0  0  0
  2  3  1  0  0  0  0
  3 14  1  0  0  0  0
  3  4  1  0  0  0  0
  3 15  1  0  0  0  0
  4  7  1  1  0  0  0
  5  6  1  0  0  0  0
  5  4  1  0  0  0  0
  6  7  1  0  0  0  0
  7 19  1  1  0  0  0
  7  8  1  0  0  0  0
  8 20  1  0  0  0  0
  9  1  1  0  0  0  0
 10  1  1  0  0  0  0
 12  2  1  0  0  0  0
 13  2  1  0  0  0  0
 16  4  1  0  0  0  0
 17  6  1  0  0  0  0
 18  6  1  0  0  0  0
M  END
