20
title
C 1.8177042 2.7042017 0.05142173
C 1.725538 1.2190603 0.35627586
O 0.5467748 0.71008825 -0.24330974
C 0.36787203 -0.6659542 -0.057019707
C -0.2453384 -1.1192563 1.2889017
O -1.4375786 -1.5905261 0.63262343
C -0.94527847 -1.203918 -0.6764352
C -1.8591508 -0.22213252 -1.3809179
H 2.7221484 3.129125 0.4967093
H 1.8490328 2.8719256 -1.0287782
H 0.9499661 3.2333114 0.45520356
H 2.6062365 0.6844581 -0.037814353
H 1.706414 1.0496736 1.4451234
H 1.2731895 -1.2150965 -0.3524171
H 0.28181472 -1.9241283 1.8164396
H -0.45193967 -0.2988252 1.9881542
H -0.7894471 -2.0953796 -1.2994591
H -1.9716197 0.69457513 -0.7991292
H -1.4565343 0.039324693 -2.36474
H -2.843928 -0.6786092 -1.520435
