22
title
C -0.8218119 2.9301348 1.6288371
C -0.6138387 1.4145023 1.584118
C 0.21204259 0.9566399 0.37497848
C 0.36674657 -0.5539336 0.32733947
O -0.9028214 -1.2332615 0.15040998
C -0.40880403 -1.9749619 -0.98094386
C 0.95683 -1.2543167 -0.93296546
C 1.3312155 -0.4131659 -2.1467316
H 0.13477524 3.4627423 1.6808834
H -1.347057 3.2842236 0.73469615
H -1.4143908 3.225531 2.5004027
H -0.118410684 1.0828485 2.5063467
H -1.5830532 0.9042124 1.5554687
H -0.26815093 1.3064252 -0.5465693
H 1.2110586 1.4136169 0.40882498
H 0.84693897 -0.8951801 1.2575318
H -0.38502207 -3.055038 -0.7861554
H -1.0076492 -1.7933563 -1.8835948
H 1.7848197 -1.922731 -0.68189543
H 0.50928724 0.2375913 -2.4602776
H 2.203246 0.21801212 -1.9460428
H 1.5808614 -1.0601627 -2.9947724
