title
 OpenBabel02282110003D

 20 20  0  0  1  0  0  0  0  0999 V2000
   -0.6345    2.9316   -1.1557 C   0  0  0  0  0  0  0  0  0  0  0  0
   -0.8312    1.5390   -1.1319 O   0  0  0  0  0  0  0  0  0  0  0  0
   -0.2851    0.9261    0.0161 C   0  0  0  0  0  0  0  0  0  0  0  0
   -0.5656   -0.5650   -0.0538 C   0  0  1  0  0  0  0  0  0  0  0  0
    0.2784   -1.3187   -1.1219 C   0  0  0  0  0  0  0  0  0  0  0  0
    1.2750   -1.7481   -0.0089 C   0  0  0  0  0  0  0  0  0  0  0  0
    0.1837   -1.4006    1.0357 C   0  0  1  0  0  0  0  0  0  0  0  0
    0.5381   -0.8191    2.2681 O   0  0  0  0  0  0  0  0  0  0  0  0
    0.4358    3.1948   -1.1609 H   0  0  0  0  0  0  0  0  0  0  0  0
   -1.0947    3.3127   -2.0707 H   0  0  0  0  0  0  0  0  0  0  0  0
   -1.1024    3.4264   -0.2896 H   0  0  0  0  0  0  0  0  0  0  0  0
    0.8025    1.1259    0.0635 H   0  0  0  0  0  0  0  0  0  0  0  0
   -0.7282    1.3515    0.9320 H   0  0  0  0  0  0  0  0  0  0  0  0
   -1.6482   -0.7095   -0.1034 H   0  0  0  0  0  0  0  0  0  0  0  0
   -0.2595   -2.1690   -1.5475 H   0  0  0  0  0  0  0  0  0  0  0  0
    0.6691   -0.7108   -1.9397 H   0  0  0  0  0  0  0  0  0  0  0  0
    1.6633   -2.7690   -0.0188 H   0  0  0  0  0  0  0  0  0  0  0  0
    2.1245   -1.0596    0.0629 H   0  0  0  0  0  0  0  0  0  0  0  0
   -0.4044   -2.2863    1.2927 H   0  0  0  0  0  0  0  0  0  0  0  0
    1.1945   -0.1355    2.1007 H   0  0  0  0  0  0  0  0  0  0  0  0
  1  2  1  0  0  0  0
  1 11  1  0  0  0  0
  2  3  1  0  0  0  0
  3 12  1  0  0  0  0
  3 13  1  0  0  0  0
  4  3  1  0  0  0  0
  4  7  1  1  0  0  0
  5  4  1  0  0  0  0
  5  6  1  0  0  0  0
  6 18  1  0  0  0  0
  6  7  1  0  0  0  0
  7 19  1  1  0  0  0
  7  8  1  0  0  0  0
  9  1  1  0  0  0  0
 10  1  1  0  0  0  0
 14  4  1  0  0  0  0
 15  5  1  0  0  0  0
 16  5  1  0  0  0  0
 17  6  1  0  0  0  0
 20  8  1  0  0  0  0
M  END
