title
 OpenBabel02282110003D

 20 20  0  0  1  0  0  0  0  0999 V2000
    1.8177    2.7042    0.0514 C   0  0  0  0  0  0  0  0  0  0  0  0
    1.7255    1.2191    0.3563 C   0  0  0  0  0  0  0  0  0  0  0  0
    0.5468    0.7101   -0.2433 O   0  0  0  0  0  0  0  0  0  0  0  0
    0.3679   -0.6660   -0.0570 C   0  0  1  0  0  0  0  0  0  0  0  0
   -0.2453   -1.1193    1.2889 C   0  0  0  0  0  0  0  0  0  0  0  0
   -1.4376   -1.5905    0.6326 O   0  0  0  0  0  0  0  0  0  0  0  0
   -0.9453   -1.2039   -0.6764 C   0  0  1  0  0  0  0  0  0  0  0  0
   -1.8592   -0.2221   -1.3809 C   0  0  0  0  0  0  0  0  0  0  0  0
    2.7221    3.1291    0.4967 H   0  0  0  0  0  0  0  0  0  0  0  0
    1.8490    2.8719   -1.0288 H   0  0  0  0  0  0  0  0  0  0  0  0
    0.9500    3.2333    0.4552 H   0  0  0  0  0  0  0  0  0  0  0  0
    2.6062    0.6845   -0.0378 H   0  0  0  0  0  0  0  0  0  0  0  0
    1.7064    1.0497    1.4451 H   0  0  0  0  0  0  0  0  0  0  0  0
    1.2732   -1.2151   -0.3524 H   0  0  0  0  0  0  0  0  0  0  0  0
    0.2818   -1.9241    1.8164 H   0  0  0  0  0  0  0  0  0  0  0  0
   -0.4519   -0.2988    1.9882 H   0  0  0  0  0  0  0  0  0  0  0  0
   -0.7894   -2.0954   -1.2995 H   0  0  0  0  0  0  0  0  0  0  0  0
   -1.9716    0.6946   -0.7991 H   0  0  0  0  0  0  0  0  0  0  0  0
   -1.4565    0.0393   -2.3647 H   0  0  0  0  0  0  0  0  0  0  0  0
   -2.8439   -0.6786   -1.5204 H   0  0  0  0  0  0  0  0  0  0  0  0
  1  2  1  0  0  0  0
  1 11  1  0  0  0  0
  1  9  1  0  0  0  0
  2 13  1  0  0  0  0
  3  4  1  0  0  0  0
  3  2  1  0  0  0  0
  4  7  1  6  0  0  0
  4  5  1  0  0  0  0
  5 15  1  0  0  0  0
  5 16  1  0  0  0  0
  6  5  1  0  0  0  0
  7 17  1  6  0  0  0
  7  6  1  0  0  0  0
  8 18  1  0  0  0  0
  8  7  1  0  0  0  0
 10  1  1  0  0  0  0
 12  2  1  0  0  0  0
 14  4  1  0  0  0  0
 19  8  1  0  0  0  0
 20  8  1  0  0  0  0
M  END
