title
 OpenBabel02282110003D

 22 22  0  0  1  0  0  0  0  0999 V2000
   -0.7438    2.8521   -1.2404 C   0  0  0  0  0  0  0  0  0  0  0  0
   -0.9535    1.4708   -1.0857 O   0  0  0  0  0  0  0  0  0  0  0  0
   -0.2603    0.9280    0.0197 C   0  0  0  0  0  0  0  0  0  0  0  0
   -0.5524   -0.5622    0.0740 C   0  0  1  0  0  0  0  0  0  0  0  0
    0.1416   -1.3676   -1.0614 C   0  0  0  0  0  0  0  0  0  0  0  0
    1.2472   -1.7871   -0.0558 C   0  0  0  0  0  0  0  0  0  0  0  0
    0.3005   -1.3742    1.1069 C   0  0  1  0  0  0  0  0  0  0  0  0
    0.8818   -0.7070    2.3467 C   0  0  0  0  0  0  0  0  0  0  0  0
    0.3196    3.0905   -1.4055 H   0  0  0  0  0  0  0  0  0  0  0  0
   -1.3164    3.1764   -2.1131 H   0  0  0  0  0  0  0  0  0  0  0  0
   -1.0862    3.4208   -0.3606 H   0  0  0  0  0  0  0  0  0  0  0  0
    0.8227    1.1177   -0.0851 H   0  0  0  0  0  0  0  0  0  0  0  0
   -0.5826    1.4223    0.9526 H   0  0  0  0  0  0  0  0  0  0  0  0
   -1.6359   -0.6905    0.1542 H   0  0  0  0  0  0  0  0  0  0  0  0
   -0.4625   -2.2177   -1.3891 H   0  0  0  0  0  0  0  0  0  0  0  0
    0.4427   -0.7973   -1.9428 H   0  0  0  0  0  0  0  0  0  0  0  0
    1.5927   -2.8238   -0.0796 H   0  0  0  0  0  0  0  0  0  0  0  0
    2.1248   -1.1348   -0.1132 H   0  0  0  0  0  0  0  0  0  0  0  0
   -0.2850   -2.2477    1.4158 H   0  0  0  0  0  0  0  0  0  0  0  0
    1.4889    0.1688    2.0940 H   0  0  0  0  0  0  0  0  0  0  0  0
    0.0951   -0.3808    3.0364 H   0  0  0  0  0  0  0  0  0  0  0  0
    1.5275   -1.4051    2.8913 H   0  0  0  0  0  0  0  0  0  0  0  0
  1  2  1  0  0  0  0
  1 11  1  0  0  0  0
  2  3  1  0  0  0  0
  3  4  1  0  0  0  0
  3 13  1  0  0  0  0
  4 14  1  0  0  0  0
  4  7  1  1  0  0  0
  5  6  1  0  0  0  0
  5  4  1  0  0  0  0
  6  7  1  0  0  0  0
  7 19  1  1  0  0  0
  7  8  1  0  0  0  0
  8 22  1  0  0  0  0
  8 21  1  0  0  0  0
  9  1  1  0  0  0  0
 10  1  1  0  0  0  0
 12  3  1  0  0  0  0
 15  5  1  0  0  0  0
 16  5  1  0  0  0  0
 17  6  1  0  0  0  0
 18  6  1  0  0  0  0
 20  8  1  0  0  0  0
M  END
