title
 OpenBabel02282110003D

 15 15  0  0  0  0  0  0  0  0999 V2000
    1.1380   -1.3096    0.7886 O   0  0  0  0  0  0  0  0  0  0  0  0
    0.7848   -0.2142    0.4286 C   0  0  0  0  0  0  0  0  0  0  0  0
    1.7975    0.8104    0.0741 C   0  0  0  0  0  0  0  0  0  0  0  0
    2.5693    1.6259   -0.2029 N   0  0  0  0  0  0  0  0  0  0  0  0
   -0.6356    0.2319    0.2469 C   0  0  0  0  0  0  0  0  0  0  0  0
   -1.1614    0.2471   -1.2360 C   0  0  0  0  0  0  0  0  0  0  0  0
   -2.4883   -0.3664   -0.7122 C   0  0  0  0  0  0  0  0  0  0  0  0
   -1.7661   -0.7625    0.6040 C   0  0  0  0  0  0  0  0  0  0  0  0
   -0.7651    1.2189    0.7022 H   0  0  0  0  0  0  0  0  0  0  0  0
   -1.1993    1.2170   -1.7334 H   0  0  0  0  0  0  0  0  0  0  0  0
   -0.6044   -0.4528   -1.8643 H   0  0  0  0  0  0  0  0  0  0  0  0
   -3.2491    0.4007   -0.5470 H   0  0  0  0  0  0  0  0  0  0  0  0
   -2.9271   -1.1712   -1.3044 H   0  0  0  0  0  0  0  0  0  0  0  0
   -1.3917   -1.7882    0.5881 H   0  0  0  0  0  0  0  0  0  0  0  0
   -2.2915   -0.5925    1.5452 H   0  0  0  0  0  0  0  0  0  0  0  0
  2  1  2  0  0  0  0
  3  2  1  0  0  0  0
  4  3  3  0  0  0  0
  5  2  1  0  0  0  0
  5  8  1  0  0  0  0
  5  9  1  0  0  0  0
  6  7  1  0  0  0  0
  6  5  1  0  0  0  0
  7 12  1  0  0  0  0
  7  8  1  0  0  0  0
  8 15  1  0  0  0  0
 10  6  1  0  0  0  0
 11  6  1  0  0  0  0
 13  7  1  0  0  0  0
 14  8  1  0  0  0  0
M  END
