15
title
O 0.6370774 -1.9210165 0.34733707
C 0.6300774 -0.71326613 0.17272614
C 1.8412571 0.10050287 0.1902497
C 2.8572066 0.7437471 0.21060455
N -0.4989971 -0.0032028898 -0.05497336
C -0.8056487 1.4100391 -0.29254967
C -2.3072598 1.0087515 -0.40174758
C -1.8821931 -0.46720538 -0.14200547
H 3.7643073 1.2969855 0.23181878
H -0.55066943 2.066515 0.54584014
H -0.3559817 1.8143569 -1.2053496
H -2.947591 1.4396437 0.3678502
H -2.7532456 1.1880318 -1.3799765
H -2.056578 -1.1688021 -0.9640007
H -2.2511232 -0.9170205 0.7852903
