14
title
O 0.95919144 -1.4578245 0.73368627
C 0.79304034 -0.30064633 0.41594103
C 1.8974539 0.5410367 -0.016578069
C 2.7923298 1.2607409 -0.3779202
C -0.55768347 0.38287076 0.41107056
C -1.166421 0.6435329 -0.99685436
O -2.2509344 -0.2601284 -0.7336082
C -1.7846919 -0.52346504 0.6091714
H 3.5969827 1.8792659 -0.6950023
H -0.50791836 1.2745675 1.040858
H -1.5092589 1.6709465 -1.1679196
H -0.5520594 0.32478568 -1.8478689
H -1.5459126 -1.5789642 0.76917976
H -2.5011282 -0.1830547 1.3653286
