15
title
N -0.7433988 2.0163865 -0.15167159
C -0.60800564 0.74290365 -0.16275822
C -1.8131021 -0.074732326 -0.20987555
N -2.7435489 -0.75929165 -0.23500778
N 0.5390659 0.0037480392 -0.16204125
C 1.8892069 0.45591795 0.18567862
C 2.2729304 -1.028546 0.44338587
C 0.78021365 -1.4002529 0.2157157
H 0.1675309 2.478229 -0.1155814
H 2.417194 0.9616027 -0.6295827
H 1.911576 1.0995266 1.0750628
H 2.9496338 -1.4436597 -0.30344254
H 2.659998 -1.242896 1.4388083
H 0.24129277 -1.7097598 1.117661
H 0.57373244 -2.117012 -0.583938
