title
 OpenBabel02282110003D

 20 20  0  0  1  0  0  0  0  0999 V2000
   -1.0080    2.9126   -0.5378 C   0  0  0  0  0  0  0  0  0  0  0  0
   -1.0979    1.5296   -0.2917 O   0  0  0  0  0  0  0  0  0  0  0  0
    0.0023    0.8072   -0.8002 C   0  0  0  0  0  0  0  0  0  0  0  0
   -0.2276   -0.6650   -0.5062 C   0  0  1  0  0  0  0  0  0  0  0  0
    0.8526   -1.4698   -1.0277 O   0  0  0  0  0  0  0  0  0  0  0  0
    1.1285   -2.0338    0.2726 C   0  0  0  0  0  0  0  0  0  0  0  0
   -0.0016   -1.2106    0.9318 C   0  0  1  0  0  0  0  0  0  0  0  0
    0.3814   -0.2466    2.0464 C   0  0  0  0  0  0  0  0  0  0  0  0
   -0.9687    3.1323   -1.6164 H   0  0  0  0  0  0  0  0  0  0  0  0
   -1.8999    3.3805   -0.1140 H   0  0  0  0  0  0  0  0  0  0  0  0
   -0.1160    3.3547   -0.0663 H   0  0  0  0  0  0  0  0  0  0  0  0
    0.0952    0.9380   -1.8918 H   0  0  0  0  0  0  0  0  0  0  0  0
    0.9470    1.1551   -0.3525 H   0  0  0  0  0  0  0  0  0  0  0  0
   -1.1930   -0.9578   -0.9400 H   0  0  0  0  0  0  0  0  0  0  0  0
    1.0014   -3.1233    0.2804 H   0  0  0  0  0  0  0  0  0  0  0  0
    2.1447   -1.7941    0.6133 H   0  0  0  0  0  0  0  0  0  0  0  0
   -0.8387   -1.8332    1.2572 H   0  0  0  0  0  0  0  0  0  0  0  0
    1.2765    0.3310    1.7936 H   0  0  0  0  0  0  0  0  0  0  0  0
   -0.4287    0.4602    2.2463 H   0  0  0  0  0  0  0  0  0  0  0  0
    0.5955   -0.7943    2.9703 H   0  0  0  0  0  0  0  0  0  0  0  0
  1  2  1  0  0  0  0
  1 10  1  0  0  0  0
  1 11  1  0  0  0  0
  3  4  1  0  0  0  0
  3 13  1  0  0  0  0
  3  2  1  0  0  0  0
  4  7  1  1  0  0  0
  5  4  1  0  0  0  0
  5  6  1  0  0  0  0
  6 15  1  0  0  0  0
  6 16  1  0  0  0  0
  6  7  1  0  0  0  0
  7 17  1  1  0  0  0
  7  8  1  0  0  0  0
  8 19  1  0  0  0  0
  8 20  1  0  0  0  0
  9  1  1  0  0  0  0
 12  3  1  0  0  0  0
 14  4  1  0  0  0  0
 18  8  1  0  0  0  0
M  END
