title
 OpenBabel02282110003D

 15 15  0  0  0  0  0  0  0  0999 V2000
    0.6371   -1.9210    0.3473 O   0  0  0  0  0  0  0  0  0  0  0  0
    0.6301   -0.7133    0.1727 C   0  0  0  0  0  0  0  0  0  0  0  0
    1.8413    0.1005    0.1902 C   0  0  0  0  0  0  0  0  0  0  0  0
    2.8572    0.7437    0.2106 C   0  0  0  0  0  0  0  0  0  0  0  0
   -0.4990   -0.0032   -0.0550 N   0  0  0  0  0  0  0  0  0  0  0  0
   -0.8056    1.4100   -0.2925 C   0  0  0  0  0  0  0  0  0  0  0  0
   -2.3073    1.0088   -0.4017 C   0  0  0  0  0  0  0  0  0  0  0  0
   -1.8822   -0.4672   -0.1420 C   0  0  0  0  0  0  0  0  0  0  0  0
    3.7643    1.2970    0.2318 H   0  0  0  0  0  0  0  0  0  0  0  0
   -0.5507    2.0665    0.5458 H   0  0  0  0  0  0  0  0  0  0  0  0
   -0.3560    1.8144   -1.2053 H   0  0  0  0  0  0  0  0  0  0  0  0
   -2.9476    1.4396    0.3679 H   0  0  0  0  0  0  0  0  0  0  0  0
   -2.7532    1.1880   -1.3800 H   0  0  0  0  0  0  0  0  0  0  0  0
   -2.0566   -1.1688   -0.9640 H   0  0  0  0  0  0  0  0  0  0  0  0
   -2.2511   -0.9170    0.7853 H   0  0  0  0  0  0  0  0  0  0  0  0
  2  3  1  0  0  0  0
  2  1  2  0  0  0  0
  3  4  3  0  0  0  0
  4  9  1  0  0  0  0
  5  2  1  0  0  0  0
  6  5  1  0  0  0  0
  6 10  1  0  0  0  0
  7  6  1  0  0  0  0
  7  8  1  0  0  0  0
  7 12  1  0  0  0  0
  8  5  1  0  0  0  0
  8 15  1  0  0  0  0
 11  6  1  0  0  0  0
 13  7  1  0  0  0  0
 14  8  1  0  0  0  0
M  END
