20
title
O 1.3623441 2.933848 0.1262946
C 1.5721819 1.5594229 -0.16277464
C 0.21270931 0.87185115 -0.17361547
C 0.30518317 -0.6306081 -0.43615735
C 0.6950543 -1.4901395 0.80655384
C -0.80908525 -1.7990708 1.0433646
C -1.0780634 -1.3635464 -0.41974607
O -2.2543166 -0.67157316 -0.75111467
H 2.2168262 3.374714 0.1279145
H 2.0581644 1.426289 -1.1432205
H 2.2263465 1.0905595 0.58985335
H -0.27325773 1.0733669 0.79085004
H -0.4077996 1.3435392 -0.9448701
H 0.9018646 -0.8046086 -1.3382429
H 1.2636651 -2.3821557 0.5321884
H 1.2260218 -0.9779854 1.6127253
H -1.095003 -2.8120818 1.3355944
H -1.2589096 -1.0965483 1.7531942
H -1.0527471 -2.227476 -1.0905806
H -2.3478007 0.070089966 -0.14429203
