14
title
O -2.3189597 -0.9866531 -0.32212546
C -1.271998 -1.4911404 -0.63583004
C 0.06941532 -0.74753654 -0.5772091
O 1.0797122 -1.3392582 -0.86640406
C 0.0027800736 0.6945752 -0.11835979
C -0.11137212 0.8903624 1.4199506
C 1.2477 1.6041533 1.2635194
O 1.2644846 1.3628184 -0.16200376
H -1.1742402 -2.5405369 -0.98605484
H -0.772178 1.215674 -0.69551456
H -0.94882447 1.5095459 1.7388177
H -0.09399939 -0.026707532 2.010669
H 1.247776 2.6758046 1.4923025
H 2.0972457 1.1276332 1.7646381
