title
 OpenBabel02282110003D

 15 15  0  0  0  0  0  0  0  0999 V2000
   -1.8942   -1.4314   -0.0174 O   0  0  0  0  0  0  0  0  0  0  0  0
   -0.7912   -1.7577   -0.3732 C   0  0  0  0  0  0  0  0  0  0  0  0
    0.4417   -0.8552   -0.3712 C   0  0  0  0  0  0  0  0  0  0  0  0
    1.5114   -1.3041   -0.7584 O   0  0  0  0  0  0  0  0  0  0  0  0
    0.2617    0.4033    0.0672 N   0  0  0  0  0  0  0  0  0  0  0  0
   -0.8605    1.2070    0.5785 C   0  0  0  0  0  0  0  0  0  0  0  0
    0.1270    2.3998    0.7284 C   0  0  0  0  0  0  0  0  0  0  0  0
    1.2520    1.4747    0.1782 C   0  0  0  0  0  0  0  0  0  0  0  0
   -0.5457   -2.7720   -0.7494 H   0  0  0  0  0  0  0  0  0  0  0  0
   -1.6689    1.3432   -0.1443 H   0  0  0  0  0  0  0  0  0  0  0  0
   -1.2898    0.8220    1.5070 H   0  0  0  0  0  0  0  0  0  0  0  0
   -0.1013    3.2601    0.0991 H   0  0  0  0  0  0  0  0  0  0  0  0
    0.2784    2.7380    1.7536 H   0  0  0  0  0  0  0  0  0  0  0  0
    2.0661    1.2413    0.8717 H   0  0  0  0  0  0  0  0  0  0  0  0
    1.6863    1.7639   -0.7840 H   0  0  0  0  0  0  0  0  0  0  0  0
  2  3  1  0  0  0  0
  2  1  2  0  0  0  0
  3  5  1  0  0  0  0
  4  3  2  0  0  0  0
  5  8  1  0  0  0  0
  5  6  1  0  0  0  0
  6  7  1  0  0  0  0
  6 11  1  0  0  0  0
  7 13  1  0  0  0  0
  8  7  1  0  0  0  0
  8 14  1  0  0  0  0
  9  2  1  0  0  0  0
 10  6  1  0  0  0  0
 12  7  1  0  0  0  0
 15  8  1  0  0  0  0
M  END
