14
title
O -2.294065 -0.995792 0.4783233
C -1.4038929 -1.5240159 -0.13475837
C -0.13967523 -0.7775126 -0.5852045
O 0.7175329 -1.4001025 -1.1679701
C -0.06690941 0.68112785 -0.22541516
C 0.32979193 0.96898466 1.2544372
O 1.5474129 1.6063033 0.8413176
C 1.2450166 1.4115926 -0.5582679
H -1.4076079 -2.5945697 -0.4279407
H -0.9927801 1.1762799 -0.52281886
H -0.34816703 1.6495501 1.7812833
H 0.51273656 0.088250004 1.8824896
H 1.9934497 0.7917214 -1.0618716
H 1.1295705 2.3631601 -1.0889758
