16
title
N -0.5345588 2.0716105 0.62339187
C -0.54808176 0.8163063 0.33273506
C -1.9084255 0.1750865 0.38117132
O -2.1367002 -0.98452735 0.14082523
N 0.5001916 0.020484298 0.013152607
C 0.6362155 -1.3481294 -0.5120707
C 2.1497972 -1.0611503 -0.7245482
C 1.8915827 0.3907802 -0.22885014
H 0.40930095 2.46123 0.5770825
H -2.6920657 0.9035202 0.6659354
H 0.39010313 -2.1293666 0.21119945
H 0.062339995 -1.5316017 -1.4249842
H 2.8123431 -1.640564 -0.081204005
H 2.494848 -1.1387546 -1.7555175
H 2.0114653 1.1733804 -0.9900184
H 2.437218 0.6958657 0.67238647
