title
 OpenBabel02282110003D

 14 14  0  0  0  0  0  0  0  0999 V2000
    0.6563   -1.9283    0.3335 O   0  0  0  0  0  0  0  0  0  0  0  0
    0.6062   -0.7256    0.1698 C   0  0  0  0  0  0  0  0  0  0  0  0
    1.8211    0.1206    0.2097 C   0  0  0  0  0  0  0  0  0  0  0  0
    2.7825    0.7608    0.2451 N   0  0  0  0  0  0  0  0  0  0  0  0
   -0.5116   -0.0154   -0.0618 N   0  0  0  0  0  0  0  0  0  0  0  0
   -0.8159    1.4057   -0.2848 C   0  0  0  0  0  0  0  0  0  0  0  0
   -2.3157    1.0052   -0.4177 C   0  0  0  0  0  0  0  0  0  0  0  0
   -1.8978   -0.4748   -0.1730 C   0  0  0  0  0  0  0  0  0  0  0  0
   -0.5694    2.0466    0.5669 H   0  0  0  0  0  0  0  0  0  0  0  0
   -0.3530    1.8179   -1.1862 H   0  0  0  0  0  0  0  0  0  0  0  0
   -2.9641    1.4263    0.3500 H   0  0  0  0  0  0  0  0  0  0  0  0
   -2.7482    1.1981   -1.3989 H   0  0  0  0  0  0  0  0  0  0  0  0
   -2.0584   -1.1647   -1.0067 H   0  0  0  0  0  0  0  0  0  0  0  0
   -2.2745   -0.9361    0.7447 H   0  0  0  0  0  0  0  0  0  0  0  0
  2  3  1  0  0  0  0
  2  1  2  0  0  0  0
  3  4  3  0  0  0  0
  5  2  1  0  0  0  0
  6  5  1  0  0  0  0
  6  9  1  0  0  0  0
  7  6  1  0  0  0  0
  7  8  1  0  0  0  0
  7 11  1  0  0  0  0
  8  5  1  0  0  0  0
  8 14  1  0  0  0  0
 10  6  1  0  0  0  0
 12  7  1  0  0  0  0
 13  8  1  0  0  0  0
M  END
