title
 OpenBabel02282110003D

 16 16  0  0  0  0  0  0  0  0999 V2000
   -2.4732   -0.7361    0.1819 O   0  0  0  0  0  0  0  0  0  0  0  0
   -1.5573   -1.3772   -0.2621 C   0  0  0  0  0  0  0  0  0  0  0  0
   -0.1548   -0.8002   -0.5122 C   0  0  0  0  0  0  0  0  0  0  0  0
    0.6776   -1.5386   -0.9913 O   0  0  0  0  0  0  0  0  0  0  0  0
    0.0859    0.6205   -0.0994 C   0  0  0  0  0  0  0  0  0  0  0  0
    0.5678    0.8134    1.3874 C   0  0  0  0  0  0  0  0  0  0  0  0
    1.5849    1.8648    0.8703 C   0  0  0  0  0  0  0  0  0  0  0  0
    1.3905    1.3113   -0.5665 C   0  0  0  0  0  0  0  0  0  0  0  0
   -1.6370   -2.4495   -0.5415 H   0  0  0  0  0  0  0  0  0  0  0  0
   -0.8149    1.2123   -0.2758 H   0  0  0  0  0  0  0  0  0  0  0  0
   -0.1883    1.1320    2.1064 H   0  0  0  0  0  0  0  0  0  0  0  0
    1.0638   -0.0851    1.7650 H   0  0  0  0  0  0  0  0  0  0  0  0
    1.1989    2.8826    0.9726 H   0  0  0  0  0  0  0  0  0  0  0  0
    2.5920    1.8312    1.2909 H   0  0  0  0  0  0  0  0  0  0  0  0
    2.1406    0.5627   -0.8323 H   0  0  0  0  0  0  0  0  0  0  0  0
    1.3025    2.0322   -1.3818 H   0  0  0  0  0  0  0  0  0  0  0  0
  2  1  2  0  0  0  0
  3  2  1  0  0  0  0
  3  5  1  0  0  0  0
  4  3  2  0  0  0  0
  5  6  1  0  0  0  0
  6 12  1  0  0  0  0
  6 11  1  0  0  0  0
  7 13  1  0  0  0  0
  7 14  1  0  0  0  0
  7  6  1  0  0  0  0
  8  5  1  0  0  0  0
  8  7  1  0  0  0  0
  9  2  1  0  0  0  0
 10  5  1  0  0  0  0
 15  8  1  0  0  0  0
 16  8  1  0  0  0  0
M  END
