title
 OpenBabel02282110003D

 14 14  0  0  1  0  0  0  0  0999 V2000
   -2.3190   -0.9867   -0.3221 O   0  0  0  0  0  0  0  0  0  0  0  0
   -1.2720   -1.4911   -0.6358 C   0  0  0  0  0  0  0  0  0  0  0  0
    0.0694   -0.7475   -0.5772 C   0  0  0  0  0  0  0  0  0  0  0  0
    1.0797   -1.3393   -0.8664 O   0  0  0  0  0  0  0  0  0  0  0  0
    0.0028    0.6946   -0.1184 C   0  0  1  0  0  0  0  0  0  0  0  0
   -0.1114    0.8904    1.4200 C   0  0  0  0  0  0  0  0  0  0  0  0
    1.2477    1.6042    1.2635 C   0  0  0  0  0  0  0  0  0  0  0  0
    1.2645    1.3628   -0.1620 O   0  0  0  0  0  0  0  0  0  0  0  0
   -1.1742   -2.5405   -0.9861 H   0  0  0  0  0  0  0  0  0  0  0  0
   -0.7722    1.2157   -0.6955 H   0  0  0  0  0  0  0  0  0  0  0  0
   -0.9488    1.5095    1.7388 H   0  0  0  0  0  0  0  0  0  0  0  0
   -0.0940   -0.0267    2.0107 H   0  0  0  0  0  0  0  0  0  0  0  0
    1.2478    2.6758    1.4923 H   0  0  0  0  0  0  0  0  0  0  0  0
    2.0972    1.1276    1.7646 H   0  0  0  0  0  0  0  0  0  0  0  0
  2  3  1  0  0  0  0
  2  1  2  0  0  0  0
  3  5  1  0  0  0  0
  4  3  2  0  0  0  0
  5 10  1  6  0  0  0
  5  6  1  0  0  0  0
  6 11  1  0  0  0  0
  6 12  1  0  0  0  0
  7  6  1  0  0  0  0
  7 13  1  0  0  0  0
  7 14  1  0  0  0  0
  8  5  1  0  0  0  0
  8  7  1  0  0  0  0
  9  2  1  0  0  0  0
M  END
