title
 OpenBabel02282110003D

 20 20  0  0  1  0  0  0  0  0999 V2000
   -0.5893    2.1006   -0.5998 C   0  0  0  0  0  0  0  0  0  0  0  0
   -0.4478    0.5674   -0.6771 C   0  0  1  0  0  0  0  0  0  0  0  0
    0.2771    0.1639   -1.8818 C   0  0  0  0  0  0  0  0  0  0  0  0
    0.8961   -0.1617   -2.8602 C   0  0  0  0  0  0  0  0  0  0  0  0
    0.2275   -0.0027    0.5791 C   0  0  0  0  0  0  0  0  0  0  0  0
   -0.5211    0.0973    1.9392 C   0  0  0  0  0  0  0  0  0  0  0  0
    0.0040   -1.3228    2.2838 C   0  0  0  0  0  0  0  0  0  0  0  0
    0.2899   -1.5423    0.7734 C   0  0  0  0  0  0  0  0  0  0  0  0
    0.3949    2.5757   -0.5448 H   0  0  0  0  0  0  0  0  0  0  0  0
   -1.1046    2.4915   -1.4810 H   0  0  0  0  0  0  0  0  0  0  0  0
   -1.1600    2.3848    0.2895 H   0  0  0  0  0  0  0  0  0  0  0  0
   -1.4582    0.1353   -0.7310 H   0  0  0  0  0  0  0  0  0  0  0  0
    1.4321   -0.4538   -3.7289 H   0  0  0  0  0  0  0  0  0  0  0  0
    1.2317    0.4275    0.6674 H   0  0  0  0  0  0  0  0  0  0  0  0
   -0.2599    0.9191    2.6102 H   0  0  0  0  0  0  0  0  0  0  0  0
   -1.6072    0.0994    1.7942 H   0  0  0  0  0  0  0  0  0  0  0  0
    0.9266   -1.2814    2.8697 H   0  0  0  0  0  0  0  0  0  0  0  0
   -0.6864   -2.0119    2.7755 H   0  0  0  0  0  0  0  0  0  0  0  0
   -0.5473   -2.0384    0.2713 H   0  0  0  0  0  0  0  0  0  0  0  0
    1.2127   -2.0528    0.4911 H   0  0  0  0  0  0  0  0  0  0  0  0
  1  9  1  0  0  0  0
  1 11  1  0  0  0  0
  2 12  1  6  0  0  0
  2  1  1  0  0  0  0
  2  5  1  0  0  0  0
  3  2  1  0  0  0  0
  4  3  3  0  0  0  0
  5 14  1  0  0  0  0
  5  8  1  0  0  0  0
  5  6  1  0  0  0  0
  6  7  1  0  0  0  0
  6 15  1  0  0  0  0
  7 18  1  0  0  0  0
  7 17  1  0  0  0  0
  8  7  1  0  0  0  0
 10  1  1  0  0  0  0
 13  4  1  0  0  0  0
 16  6  1  0  0  0  0
 19  8  1  0  0  0  0
 20  8  1  0  0  0  0
M  END
