18
title
N -0.22398666 2.023168 0.872351
C -0.30736908 0.56586075 0.72483265
C -1.7215225 0.15615532 0.7653239
N -2.8251107 -0.1857208 0.7531421
C 0.3661407 -0.017255245 -0.5274707
C 1.9117359 0.11652842 -0.6394589
C 1.9486378 -1.3190672 -1.2319909
C 0.52607965 -1.5578866 -0.6571808
H 0.75536877 2.293737 0.8815294
H -0.6444147 2.4743495 0.06409337
H 0.17559206 0.12541118 1.6081517
H -0.12384381 0.39616564 -1.4161205
H 2.3117626 0.9320231 -1.2461978
H 2.381857 0.15526414 0.3498975
H 1.9475712 -1.3047494 -2.3251781
H 2.7483735 -1.9817443 -0.8953384
H 0.56126344 -2.0383842 0.32626805
H -0.19853841 -2.090302 -1.2753987
