title
 OpenBabel02282110003D

 19 19  0  0  1  0  0  0  0  0999 V2000
    0.7733    2.1205   -0.1789 C   0  0  0  0  0  0  0  0  0  0  0  0
    0.7834    0.5855   -0.0446 C   0  0  1  0  0  0  0  0  0  0  0  0
    1.4533    0.1788    1.1965 C   0  0  0  0  0  0  0  0  0  0  0  0
    1.9652   -0.1422    2.1821 N   0  0  0  0  0  0  0  0  0  0  0  0
   -0.6280   -0.0165   -0.1068 C   0  0  0  0  0  0  0  0  0  0  0  0
   -1.4077    0.0794   -1.4489 C   0  0  0  0  0  0  0  0  0  0  0  0
   -1.9454   -1.3539   -1.1868 C   0  0  0  0  0  0  0  0  0  0  0  0
   -0.7941   -1.5598   -0.1652 C   0  0  0  0  0  0  0  0  0  0  0  0
    1.7879    2.5258   -0.1650 H   0  0  0  0  0  0  0  0  0  0  0  0
    0.2994    2.4048   -1.1224 H   0  0  0  0  0  0  0  0  0  0  0  0
    0.2119    2.5772    0.6411 H   0  0  0  0  0  0  0  0  0  0  0  0
    1.3686    0.1643   -0.8735 H   0  0  0  0  0  0  0  0  0  0  0  0
   -1.2271    0.3977    0.7115 H   0  0  0  0  0  0  0  0  0  0  0  0
   -2.1322    0.8889   -1.5625 H   0  0  0  0  0  0  0  0  0  0  0  0
   -0.7238    0.1014   -2.3045 H   0  0  0  0  0  0  0  0  0  0  0  0
   -2.9233   -1.3357   -0.6983 H   0  0  0  0  0  0  0  0  0  0  0  0
   -1.9957   -2.0368   -2.0373 H   0  0  0  0  0  0  0  0  0  0  0  0
    0.0763   -2.0359   -0.6288 H   0  0  0  0  0  0  0  0  0  0  0  0
   -1.0165   -2.0804    0.7680 H   0  0  0  0  0  0  0  0  0  0  0  0
  1  9  1  0  0  0  0
  1  2  1  0  0  0  0
  1 11  1  0  0  0  0
  2 12  1  6  0  0  0
  2  3  1  0  0  0  0
  3  4  3  0  0  0  0
  5  2  1  0  0  0  0
  5 13  1  0  0  0  0
  6  7  1  0  0  0  0
  6  5  1  0  0  0  0
  7 16  1  0  0  0  0
  7  8  1  0  0  0  0
  8  5  1  0  0  0  0
  8 19  1  0  0  0  0
 10  1  1  0  0  0  0
 14  6  1  0  0  0  0
 15  6  1  0  0  0  0
 17  7  1  0  0  0  0
 18  8  1  0  0  0  0
M  END
