title
 OpenBabel02282110003D

 18 18  0  0  1  0  0  0  0  0999 V2000
   -0.2240    2.0232    0.8724 N   0  0  0  0  0  0  0  0  0  0  0  0
   -0.3074    0.5659    0.7248 C   0  0  1  0  0  0  0  0  0  0  0  0
   -1.7215    0.1562    0.7653 C   0  0  0  0  0  0  0  0  0  0  0  0
   -2.8251   -0.1857    0.7531 N   0  0  0  0  0  0  0  0  0  0  0  0
    0.3661   -0.0173   -0.5275 C   0  0  0  0  0  0  0  0  0  0  0  0
    1.9117    0.1165   -0.6395 C   0  0  0  0  0  0  0  0  0  0  0  0
    1.9486   -1.3191   -1.2320 C   0  0  0  0  0  0  0  0  0  0  0  0
    0.5261   -1.5579   -0.6572 C   0  0  0  0  0  0  0  0  0  0  0  0
    0.7554    2.2937    0.8815 H   0  0  0  0  0  0  0  0  0  0  0  0
   -0.6444    2.4743    0.0641 H   0  0  0  0  0  0  0  0  0  0  0  0
    0.1756    0.1254    1.6082 H   0  0  0  0  0  0  0  0  0  0  0  0
   -0.1238    0.3962   -1.4161 H   0  0  0  0  0  0  0  0  0  0  0  0
    2.3118    0.9320   -1.2462 H   0  0  0  0  0  0  0  0  0  0  0  0
    2.3819    0.1553    0.3499 H   0  0  0  0  0  0  0  0  0  0  0  0
    1.9476   -1.3047   -2.3252 H   0  0  0  0  0  0  0  0  0  0  0  0
    2.7484   -1.9817   -0.8953 H   0  0  0  0  0  0  0  0  0  0  0  0
    0.5613   -2.0384    0.3263 H   0  0  0  0  0  0  0  0  0  0  0  0
   -0.1985   -2.0903   -1.2754 H   0  0  0  0  0  0  0  0  0  0  0  0
  1  9  1  0  0  0  0
  2  3  1  0  0  0  0
  2  1  1  0  0  0  0
  2 11  1  1  0  0  0
  4  3  3  0  0  0  0
  5  2  1  0  0  0  0
  6  5  1  0  0  0  0
  6 14  1  0  0  0  0
  7 16  1  0  0  0  0
  7  8  1  0  0  0  0
  7  6  1  0  0  0  0
  8  5  1  0  0  0  0
  8 17  1  0  0  0  0
 10  1  1  0  0  0  0
 12  5  1  0  0  0  0
 13  6  1  0  0  0  0
 15  7  1  0  0  0  0
 18  8  1  0  0  0  0
M  END
