title
 OpenBabel02282110003D

 18 18  0  0  1  0  0  0  0  0999 V2000
   -1.0631    1.2878   -0.7470 O   0  0  0  0  0  0  0  0  0  0  0  0
   -0.7645   -0.1075   -0.7217 C   0  0  1  0  0  0  0  0  0  0  0  0
   -0.0027   -0.5127   -1.9066 C   0  0  0  0  0  0  0  0  0  0  0  0
    0.6646   -0.8142   -2.8605 C   0  0  0  0  0  0  0  0  0  0  0  0
   -0.0468   -0.5298    0.5690 C   0  0  0  0  0  0  0  0  0  0  0  0
    1.2662    0.1930    0.9801 C   0  0  0  0  0  0  0  0  0  0  0  0
    0.7669    0.1689    2.4506 C   0  0  0  0  0  0  0  0  0  0  0  0
   -0.6698   -0.0926    1.9227 C   0  0  0  0  0  0  0  0  0  0  0  0
   -0.2699    1.7493   -1.0388 H   0  0  0  0  0  0  0  0  0  0  0  0
   -1.7448   -0.6017   -0.7414 H   0  0  0  0  0  0  0  0  0  0  0  0
    1.2360   -1.0894   -3.7125 H   0  0  0  0  0  0  0  0  0  0  0  0
    0.1056   -1.6135    0.5368 H   0  0  0  0  0  0  0  0  0  0  0  0
    2.2123   -0.2987    0.7455 H   0  0  0  0  0  0  0  0  0  0  0  0
    1.2979    1.2161    0.5922 H   0  0  0  0  0  0  0  0  0  0  0  0
    1.1627   -0.6916    2.9976 H   0  0  0  0  0  0  0  0  0  0  0  0
    0.9282    1.0660    3.0526 H   0  0  0  0  0  0  0  0  0  0  0  0
   -1.2322    0.8366    1.8018 H   0  0  0  0  0  0  0  0  0  0  0  0
   -1.2880   -0.8198    2.4546 H   0  0  0  0  0  0  0  0  0  0  0  0
  1  2  1  0  0  0  0
  2 10  1  6  0  0  0
  2  5  1  0  0  0  0
  3  2  1  0  0  0  0
  4  3  3  0  0  0  0
  5  6  1  0  0  0  0
  5  8  1  0  0  0  0
  6  7  1  0  0  0  0
  7 15  1  0  0  0  0
  7 16  1  0  0  0  0
  8  7  1  0  0  0  0
  8 18  1  0  0  0  0
  9  1  1  0  0  0  0
 11  4  1  0  0  0  0
 12  5  1  0  0  0  0
 13  6  1  0  0  0  0
 14  6  1  0  0  0  0
 17  8  1  0  0  0  0
M  END
