title
 OpenBabel02282110003D

 18 18  0  0  1  0  0  0  0  0999 V2000
   -0.9006    2.1270   -0.1721 C   0  0  0  0  0  0  0  0  0  0  0  0
   -0.9350    0.5942   -0.2446 C   0  0  1  0  0  0  0  0  0  0  0  0
   -0.4514    0.1268   -1.5731 C   0  0  0  0  0  0  0  0  0  0  0  0
   -0.0293   -0.2738   -2.5727 N   0  0  0  0  0  0  0  0  0  0  0  0
   -0.1993    0.0019    0.8549 N   0  0  0  0  0  0  0  0  0  0  0  0
    1.2782    0.1091    0.9235 C   0  0  0  0  0  0  0  0  0  0  0  0
    1.3095   -1.3094    1.5433 C   0  0  0  0  0  0  0  0  0  0  0  0
   -0.1288   -1.4702    0.9947 C   0  0  0  0  0  0  0  0  0  0  0  0
    0.1239    2.4963   -0.2699 H   0  0  0  0  0  0  0  0  0  0  0  0
   -1.4991    2.5678   -0.9730 H   0  0  0  0  0  0  0  0  0  0  0  0
   -1.2971    2.4450    0.7947 H   0  0  0  0  0  0  0  0  0  0  0  0
   -1.9763    0.2592   -0.1554 H   0  0  0  0  0  0  0  0  0  0  0  0
    1.7577    0.1369   -0.0663 H   0  0  0  0  0  0  0  0  0  0  0  0
    1.6474    0.9445    1.5258 H   0  0  0  0  0  0  0  0  0  0  0  0
    2.0631   -1.9975    1.1617 H   0  0  0  0  0  0  0  0  0  0  0  0
    1.3462   -1.2924    2.6336 H   0  0  0  0  0  0  0  0  0  0  0  0
   -0.8922   -1.8988    1.6519 H   0  0  0  0  0  0  0  0  0  0  0  0
   -0.1443   -1.9991    0.0302 H   0  0  0  0  0  0  0  0  0  0  0  0
  1 11  1  0  0  0  0
  2  1  1  0  0  0  0
  2 12  1  1  0  0  0
  2  5  1  0  0  0  0
  3  2  1  0  0  0  0
  4  3  3  0  0  0  0
  5  6  1  0  0  0  0
  5  8  1  0  0  0  0
  6 14  1  0  0  0  0
  6  7  1  0  0  0  0
  7 16  1  0  0  0  0
  8  7  1  0  0  0  0
  8 17  1  0  0  0  0
  9  1  1  0  0  0  0
 10  1  1  0  0  0  0
 13  6  1  0  0  0  0
 15  7  1  0  0  0  0
 18  8  1  0  0  0  0
M  END
