title
 OpenBabel02282110003D

 17 17  0  0  1  0  0  0  0  0999 V2000
   -0.5803    2.1151   -0.6103 C   0  0  0  0  0  0  0  0  0  0  0  0
   -0.4004    0.5850   -0.6242 C   0  0  1  0  0  0  0  0  0  0  0  0
    0.2691    0.1531   -1.8571 C   0  0  0  0  0  0  0  0  0  0  0  0
    0.8130   -0.1887   -2.8180 N   0  0  0  0  0  0  0  0  0  0  0  0
    0.3790    0.0785    0.5998 C   0  0  0  0  0  0  0  0  0  0  0  0
   -0.3924    0.0899    1.9397 C   0  0  0  0  0  0  0  0  0  0  0  0
   -0.3616   -1.3462    2.0237 O   0  0  0  0  0  0  0  0  0  0  0  0
    0.4163   -1.4514    0.8130 C   0  0  0  0  0  0  0  0  0  0  0  0
    0.3898    2.6192   -0.6362 H   0  0  0  0  0  0  0  0  0  0  0  0
   -1.1629    2.4503   -1.4714 H   0  0  0  0  0  0  0  0  0  0  0  0
   -1.1047    2.4194    0.2999 H   0  0  0  0  0  0  0  0  0  0  0  0
   -1.3915    0.1116   -0.6171 H   0  0  0  0  0  0  0  0  0  0  0  0
    1.3576    0.5623    0.6351 H   0  0  0  0  0  0  0  0  0  0  0  0
    0.1299    0.5648    2.7793 H   0  0  0  0  0  0  0  0  0  0  0  0
   -1.4188    0.4789    1.8971 H   0  0  0  0  0  0  0  0  0  0  0  0
   -0.0892   -2.0509    0.0457 H   0  0  0  0  0  0  0  0  0  0  0  0
    1.4097   -1.8763    0.9973 H   0  0  0  0  0  0  0  0  0  0  0  0
  1 11  1  0  0  0  0
  2 12  1  1  0  0  0
  2  1  1  0  0  0  0
  2  5  1  0  0  0  0
  3  2  1  0  0  0  0
  4  3  3  0  0  0  0
  5 13  1  0  0  0  0
  5  8  1  0  0  0  0
  5  6  1  0  0  0  0
  6  7  1  0  0  0  0
  6 14  1  0  0  0  0
  8 17  1  0  0  0  0
  8  7  1  0  0  0  0
  9  1  1  0  0  0  0
 10  1  1  0  0  0  0
 15  6  1  0  0  0  0
 16  8  1  0  0  0  0
M  END
