17
title
C -0.5802646 2.1150532 -0.61028284
C -0.4004069 0.58501834 -0.6242399
C 0.26914257 0.15306868 -1.8570584
N 0.8130003 -0.18871434 -2.818031
C 0.37901658 0.078472726 0.59976345
C -0.39243054 0.08990937 1.9397261
O -0.36162618 -1.3461607 2.0236895
C 0.4163134 -1.4513725 0.8130192
H 0.38984787 2.6192234 -0.63615394
H -1.1629 2.4503477 -1.4714018
H -1.1046559 2.41935 0.2998859
H -1.3914831 0.111556225 -0.6170853
H 1.3575842 0.56231445 0.6350692
H 0.1298579 0.5647726 2.779263
H -1.4188385 0.47891206 1.8971074
H -0.08916294 -2.0509312 0.045721136
H 1.4097024 -1.8763021 0.99730796
