title
 OpenBabel02282110003D

 18 18  0  0  1  0  0  0  0  0999 V2000
    0.0807    2.1064    0.9365 C   0  0  0  0  0  0  0  0  0  0  0  0
    0.1420    0.5682    1.0314 C   0  0  1  0  0  0  0  0  0  0  0  0
   -1.1988   -0.0150    1.0400 C   0  0  0  0  0  0  0  0  0  0  0  0
   -2.3039   -0.4888    1.0522 C   0  0  0  0  0  0  0  0  0  0  0  0
    1.0124    0.0044   -0.1047 C   0  0  1  0  0  0  0  0  0  0  0  0
    0.9890   -1.5132   -0.3880 C   0  0  0  0  0  0  0  0  0  0  0  0
    0.4497   -1.0989   -1.7714 C   0  0  0  0  0  0  0  0  0  0  0  0
    0.4720    0.2999   -1.4099 O   0  0  0  0  0  0  0  0  0  0  0  0
    1.0864    2.5312    1.0180 H   0  0  0  0  0  0  0  0  0  0  0  0
   -0.3440    2.4008   -0.0260 H   0  0  0  0  0  0  0  0  0  0  0  0
   -0.5382    2.5221    1.7348 H   0  0  0  0  0  0  0  0  0  0  0  0
    0.6415    0.2930    1.9723 H   0  0  0  0  0  0  0  0  0  0  0  0
   -3.2822   -0.9015    1.0660 H   0  0  0  0  0  0  0  0  0  0  0  0
    2.0213    0.4282    0.0037 H   0  0  0  0  0  0  0  0  0  0  0  0
    1.9627   -2.0047   -0.3848 H   0  0  0  0  0  0  0  0  0  0  0  0
    0.2880   -2.0775    0.2278 H   0  0  0  0  0  0  0  0  0  0  0  0
    1.1121   -1.3081   -2.6202 H   0  0  0  0  0  0  0  0  0  0  0  0
   -0.5635   -1.4382   -2.0129 H   0  0  0  0  0  0  0  0  0  0  0  0
  1  9  1  0  0  0  0
  1  2  1  0  0  0  0
  1 11  1  0  0  0  0
  2  3  1  0  0  0  0
  2 12  1  1  0  0  0
  3  4  3  0  0  0  0
  4 13  1  0  0  0  0
  5 14  1  1  0  0  0
  5  2  1  0  0  0  0
  6 15  1  0  0  0  0
  6  5  1  0  0  0  0
  6 16  1  0  0  0  0
  7  8  1  0  0  0  0
  7  6  1  0  0  0  0
  8  5  1  0  0  0  0
 10  1  1  0  0  0  0
 17  7  1  0  0  0  0
 18  7  1  0  0  0  0
M  END
