16
title
N -0.77353984 2.0462189 -0.3186319
C -0.9525601 0.5969487 -0.354334
C -0.3137702 -0.050041657 -1.5233493
N 0.18193142 -0.5290268 -2.4518995
C -0.40838882 0.020846028 0.9600357
C -0.17945857 -1.4997277 1.0769203
C 1.3091737 -1.1190041 1.2193482
O 1.0009638 0.29228404 1.0935
H 0.21698157 2.2429707 -0.19814092
H -1.0582749 2.4637666 -1.1987813
H -2.026459 0.37459406 -0.4028171
H -0.98095447 0.48367903 1.7726277
H -0.6332445 -1.9655168 1.9519027
H -0.42663673 -2.078597 0.18600921
H 1.7673272 -1.3428384 2.1889083
H 1.9689218 -1.4610481 0.4158778
