title
 OpenBabel02282110003D

 18 18  0  0  1  0  0  0  0  0999 V2000
   -0.5830    2.1146   -0.6196 C   0  0  0  0  0  0  0  0  0  0  0  0
   -0.4042    0.5839   -0.6515 C   0  0  1  0  0  0  0  0  0  0  0  0
    0.2668    0.1540   -1.8782 C   0  0  0  0  0  0  0  0  0  0  0  0
    0.8425   -0.1948   -2.8746 C   0  0  0  0  0  0  0  0  0  0  0  0
    0.3623    0.0796    0.5815 C   0  0  0  0  0  0  0  0  0  0  0  0
   -0.4008    0.0937    1.9259 C   0  0  0  0  0  0  0  0  0  0  0  0
   -0.3256   -1.3400    2.0386 O   0  0  0  0  0  0  0  0  0  0  0  0
    0.4061   -1.4481    0.7986 C   0  0  0  0  0  0  0  0  0  0  0  0
    0.3890    2.6163   -0.6434 H   0  0  0  0  0  0  0  0  0  0  0  0
   -1.1624    2.4572   -1.4805 H   0  0  0  0  0  0  0  0  0  0  0  0
   -1.1073    2.4192    0.2915 H   0  0  0  0  0  0  0  0  0  0  0  0
   -1.4021    0.1217   -0.6318 H   0  0  0  0  0  0  0  0  0  0  0  0
    1.3392   -0.5063   -3.7599 H   0  0  0  0  0  0  0  0  0  0  0  0
    1.3431    0.5598    0.6196 H   0  0  0  0  0  0  0  0  0  0  0  0
    0.1037    0.5994    2.7585 H   0  0  0  0  0  0  0  0  0  0  0  0
   -1.4396    0.4490    1.8756 H   0  0  0  0  0  0  0  0  0  0  0  0
   -0.1321   -2.0430    0.0498 H   0  0  0  0  0  0  0  0  0  0  0  0
    1.4019   -1.8821    0.9468 H   0  0  0  0  0  0  0  0  0  0  0  0
  1 11  1  0  0  0  0
  2 12  1  1  0  0  0
  2  1  1  0  0  0  0
  2  5  1  0  0  0  0
  3  2  1  0  0  0  0
  4  3  3  0  0  0  0
  5 14  1  0  0  0  0
  5  8  1  0  0  0  0
  5  6  1  0  0  0  0
  6  7  1  0  0  0  0
  6 15  1  0  0  0  0
  8 18  1  0  0  0  0
  8  7  1  0  0  0  0
  9  1  1  0  0  0  0
 10  1  1  0  0  0  0
 13  4  1  0  0  0  0
 16  6  1  0  0  0  0
 17  8  1  0  0  0  0
M  END
