18
title
C -0.90060914 2.127047 -0.17207818
C -0.9349712 0.59419453 -0.2446243
C -0.45141077 0.12676732 -1.5730586
N -0.02932569 -0.27375782 -2.5727026
N -0.19933 0.0019452119 0.85491043
C 1.2782447 0.10908882 0.92352647
C 1.3094747 -1.309389 1.543274
C -0.12884906 -1.4701931 0.9947118
H 0.123894066 2.4962952 -0.26988196
H -1.4991219 2.5677712 -0.97295755
H -1.297135 2.4450178 0.79465634
H -1.9762738 0.25920647 -0.15544789
H 1.7576935 0.13689609 -0.06634918
H 1.6474392 0.9444855 1.52584
H 2.0631204 -1.9975059 1.1616938
H 1.3462417 -1.2923794 2.6336215
H -0.89222306 -1.8988359 1.6518894
H -0.14432922 -1.999104 0.030181406
