18
title
C -0.48041847 2.2000644 -0.50616205
C -0.3430234 0.67213434 -0.5774131
C 0.3567441 0.25960192 -1.8592114
O -0.00793941 -0.6214236 -2.594016
C 0.46245795 0.12077967 0.6088552
C -0.2296841 0.14541951 1.9932147
O -0.1778063 -1.2886949 2.0977147
C 0.4611895 -1.4130795 0.8103395
H 0.49923187 2.6871443 -0.5716964
H -1.1027544 2.5831845 -1.3202691
H -0.9402981 2.5040324 0.43878195
H -1.3305664 0.19694027 -0.5839637
H 1.2903608 0.8347645 -2.0729914
H 1.4635667 0.56257653 0.6180149
H 0.3272577 0.6389543 2.7991772
H -1.261938 0.5214234 1.9938697
H -0.15145874 -1.975384 0.09492579
H 1.4467361 -1.887856 0.8855836
