15
title
O -0.5660641 1.8802754 -0.73727155
C -0.43335378 0.47715324 -0.61292076
C 0.12849413 -0.12789445 -1.8358095
N 0.6047427 -0.5568777 -2.7970836
C 0.40632203 0.099415764 0.617986
C -0.23503391 0.42054412 1.9817386
C -0.2095517 -1.1094158 2.1846921
O 0.37570122 -1.3133401 0.8745211
H 0.28827056 2.2467084 -0.99400324
H -1.4469795 0.08678566 -0.4726828
H 1.4331496 0.46683067 0.47938672
H 0.38709512 0.9980483 2.6654043
H -1.2235389 0.87872404 1.9241431
H 0.45124742 -1.4707569 2.980136
H -1.1826581 -1.6043583 2.2757144
