18
title
C 0.113502935 2.2300227 0.8768447
C 0.15262581 0.69785535 0.9291254
C -1.255927 0.11786217 0.91960484
O -1.5505409 -0.9570737 1.3790616
C 0.95065874 0.12877311 -0.25333965
C 1.0456882 -1.4004261 -0.44558132
C 0.41057137 -1.1219122 -1.8223991
O 0.24376406 0.2817721 -1.5099921
H 1.1220982 2.6466405 0.9519128
H -0.32120478 2.5686705 -0.069010966
H -0.48330417 2.644789 1.6952542
H 0.6404119 0.34766632 1.847495
H -2.0243344 0.7612724 0.4364147
H 1.9247099 0.63818693 -0.29294217
H 2.0548623 -1.8138413 -0.45239508
H 0.41547722 -1.9713261 0.23635049
H 1.0757918 -1.2661139 -2.682558
H -0.54925656 -1.6086452 -2.0262227
