title
 OpenBabel02282110003D

 18 18  0  0  1  0  0  0  0  0999 V2000
   -0.9717    1.1944   -0.6322 O   0  0  0  0  0  0  0  0  0  0  0  0
   -0.7625   -0.1924   -0.6390 C   0  0  1  0  0  0  0  0  0  0  0  0
    0.0229   -0.5954   -1.8686 C   0  0  0  0  0  0  0  0  0  0  0  0
    0.4130    0.2174   -2.6727 O   0  0  0  0  0  0  0  0  0  0  0  0
   -0.0465   -0.6702    0.6325 C   0  0  0  0  0  0  0  0  0  0  0  0
    1.2804    0.0276    1.0439 C   0  0  0  0  0  0  0  0  0  0  0  0
    0.7955   -0.0099    2.5179 C   0  0  0  0  0  0  0  0  0  0  0  0
   -0.6499   -0.2439    2.0002 C   0  0  0  0  0  0  0  0  0  0  0  0
   -0.5412    1.5267   -1.4359 H   0  0  0  0  0  0  0  0  0  0  0  0
   -1.7317   -0.7233   -0.6993 H   0  0  0  0  0  0  0  0  0  0  0  0
    0.2285   -1.6791   -1.9881 H   0  0  0  0  0  0  0  0  0  0  0  0
    0.0752   -1.7588    0.5842 H   0  0  0  0  0  0  0  0  0  0  0  0
    2.2192   -0.4748    0.7981 H   0  0  0  0  0  0  0  0  0  0  0  0
    1.3075    1.0491    0.6567 H   0  0  0  0  0  0  0  0  0  0  0  0
    1.1830   -0.8825    3.0517 H   0  0  0  0  0  0  0  0  0  0  0  0
    0.9730    0.8777    3.1290 H   0  0  0  0  0  0  0  0  0  0  0  0
   -1.1982    0.6958    1.9008 H   0  0  0  0  0  0  0  0  0  0  0  0
   -1.2746   -0.9705    2.5253 H   0  0  0  0  0  0  0  0  0  0  0  0
  2 10  1  6  0  0  0
  2  1  1  0  0  0  0
  2  5  1  0  0  0  0
  3  2  1  0  0  0  0
  4  3  2  0  0  0  0
  5  6  1  0  0  0  0
  5  8  1  0  0  0  0
  6  7  1  0  0  0  0
  7 15  1  0  0  0  0
  7 16  1  0  0  0  0
  8  7  1  0  0  0  0
  8 18  1  0  0  0  0
  9  1  1  0  0  0  0
 11  3  1  0  0  0  0
 12  5  1  0  0  0  0
 13  6  1  0  0  0  0
 14  6  1  0  0  0  0
 17  8  1  0  0  0  0
M  END
