17
title
C 0.22751641 2.2820938 0.12359695
N 0.07949553 0.83720154 0.22653787
C -0.019362288 0.2577435 1.4606035
O 0.0061235265 0.8496127 2.5200963
C 0.03715289 0.045416027 -0.9862051
C 0.95737135 -1.2003644 -1.0963503
O -0.17663369 -2.0860598 -1.1702478
C -1.1087017 -0.98738 -1.1635296
H 1.1640452 2.5466988 -0.38061592
H -0.60655 2.724661 -0.4330701
H 0.23790884 2.6850557 1.1359559
H -0.12849379 -0.84087896 1.3968588
H 0.1356657 0.73612225 -1.823292
H 1.5736874 -1.2436812 -2.003131
H 1.5878881 -1.3972065 -0.22200772
H -1.8208373 -1.045751 -0.33271632
H -1.6614242 -0.9103019 -2.1082678
