19
title
C -1.0304186 2.7154696 -1.1052043
C -0.7849579 1.208335 -1.1178735
C -0.03135405 0.73420894 0.12347741
O 0.3931997 1.4884883 0.9842009
N 0.14006986 -0.6094676 0.21393974
C -0.13735192 -1.7516617 -0.65944654
C 0.6054586 -2.654575 0.36840838
C 0.8804982 -1.3756942 1.2143977
H -0.086210825 3.2597272 -1.0317435
H -1.54835 3.030399 -2.0157132
H -1.6363018 3.003573 -0.24255477
H -1.7312684 0.6566783 -1.1905048
H -0.20675151 0.9167138 -2.005338
H -1.2036208 -1.9682161 -0.7952299
H 0.33229008 -1.6867136 -1.6485708
H -0.02784709 -3.3950875 0.85737485
H 1.4964361 -3.1481397 -0.019990139
H 1.9309781 -1.079213 1.3024561
H 0.4288849 -1.3537465 2.2113855
