title
 OpenBabel02282110003D

 18 18  0  0  0  0  0  0  0  0999 V2000
   -1.1893    2.4497    1.6428 C   0  0  0  0  0  0  0  0  0  0  0  0
   -0.8639    0.9613    1.5534 C   0  0  0  0  0  0  0  0  0  0  0  0
    0.0916    0.6074    0.4228 C   0  0  0  0  0  0  0  0  0  0  0  0
    0.6250    1.4518   -0.2609 O   0  0  0  0  0  0  0  0  0  0  0  0
    0.3106   -0.8764    0.1816 C   0  0  0  0  0  0  0  0  0  0  0  0
   -0.6876   -1.5264   -0.8244 C   0  0  0  0  0  0  0  0  0  0  0  0
    0.3731   -1.8657   -1.7272 O   0  0  0  0  0  0  0  0  0  0  0  0
    1.3680   -1.2643   -0.8676 C   0  0  0  0  0  0  0  0  0  0  0  0
   -0.2775    3.0386    1.7667 H   0  0  0  0  0  0  0  0  0  0  0  0
   -1.6786    2.7986    0.7295 H   0  0  0  0  0  0  0  0  0  0  0  0
   -1.8527    2.6510    2.4883 H   0  0  0  0  0  0  0  0  0  0  0  0
   -0.4076    0.5987    2.4861 H   0  0  0  0  0  0  0  0  0  0  0  0
   -1.7735    0.3556    1.4342 H   0  0  0  0  0  0  0  0  0  0  0  0
    0.3717   -1.4134    1.1309 H   0  0  0  0  0  0  0  0  0  0  0  0
   -1.2189   -2.4102   -0.4507 H   0  0  0  0  0  0  0  0  0  0  0  0
   -1.4127   -0.8364   -1.2761 H   0  0  0  0  0  0  0  0  0  0  0  0
    1.8549   -0.4047   -1.3383 H   0  0  0  0  0  0  0  0  0  0  0  0
    2.1185   -1.9925   -0.5402 H   0  0  0  0  0  0  0  0  0  0  0  0
  1  9  1  0  0  0  0
  1 11  1  0  0  0  0
  2  1  1  0  0  0  0
  2 12  1  0  0  0  0
  3  2  1  0  0  0  0
  4  3  2  0  0  0  0
  5  3  1  0  0  0  0
  5 14  1  0  0  0  0
  6 15  1  0  0  0  0
  6  5  1  0  0  0  0
  7  8  1  0  0  0  0
  7  6  1  0  0  0  0
  8 18  1  0  0  0  0
  8  5  1  0  0  0  0
 10  1  1  0  0  0  0
 13  2  1  0  0  0  0
 16  6  1  0  0  0  0
 17  8  1  0  0  0  0
M  END
