20
title
C -1.0926175 2.3025825 1.929114
C -0.7991744 0.82983893 1.6578946
C 0.04549841 0.58648103 0.41495442
O 0.5170432 1.4988053 -0.22902201
C 0.23176387 -0.8585073 -0.0029973886
C -0.73177105 -1.3608366 -1.1378094
C 0.47529987 -2.085379 -1.7886268
C 1.4223717 -1.201033 -0.93619764
H -0.1641325 2.8699722 2.0287795
H -1.655555 2.7472296 1.1040443
H -1.6744044 2.4209518 2.8475685
H -0.26743594 0.3693792 2.5035226
H -1.7241278 0.2443043 1.5583394
H 0.17331544 -1.5219396 0.8651999
H -1.5912305 -1.961795 -0.8325201
H -1.0806075 -0.52379274 -1.7487963
H 0.52107304 -3.1376102 -1.4937657
H 0.5683554 -2.0258539 -2.8753226
H 1.7412618 -0.30128443 -1.4672774
H 2.2926853 -1.677065 -0.47921598
