title
 OpenBabel02282110003D

 16 16  0  0  1  0  0  0  0  0999 V2000
   -0.5057    1.7871   -0.6055 O   0  0  0  0  0  0  0  0  0  0  0  0
   -0.4357    0.3918   -0.5297 C   0  0  1  0  0  0  0  0  0  0  0  0
    0.1926   -0.1830   -1.7833 C   0  0  0  0  0  0  0  0  0  0  0  0
    0.5513    0.5363   -2.6864 O   0  0  0  0  0  0  0  0  0  0  0  0
    0.3697   -0.0338    0.7082 C   0  0  1  0  0  0  0  0  0  0  0  0
   -0.3102    0.1671    2.0774 C   0  0  0  0  0  0  0  0  0  0  0  0
   -0.2361   -1.3715    2.1761 C   0  0  0  0  0  0  0  0  0  0  0  0
    0.3753   -1.4685    0.8672 O   0  0  0  0  0  0  0  0  0  0  0  0
   -0.1224    2.0170   -1.4681 H   0  0  0  0  0  0  0  0  0  0  0  0
   -1.4427   -0.0543   -0.4396 H   0  0  0  0  0  0  0  0  0  0  0  0
    0.3095   -1.2814   -1.8177 H   0  0  0  0  0  0  0  0  0  0  0  0
    1.3856    0.3747    0.6315 H   0  0  0  0  0  0  0  0  0  0  0  0
    0.2753    0.7173    2.8138 H   0  0  0  0  0  0  0  0  0  0  0  0
   -1.3146    0.5900    2.0276 H   0  0  0  0  0  0  0  0  0  0  0  0
    0.4232   -1.7648    2.9583 H   0  0  0  0  0  0  0  0  0  0  0  0
   -1.1934   -1.9033    2.2175 H   0  0  0  0  0  0  0  0  0  0  0  0
  1  2  1  0  0  0  0
  2 10  1  1  0  0  0
  2  5  1  0  0  0  0
  3  2  1  0  0  0  0
  4  3  2  0  0  0  0
  5 12  1  6  0  0  0
  5  8  1  0  0  0  0
  5  6  1  0  0  0  0
  6  7  1  0  0  0  0
  6 13  1  0  0  0  0
  7 16  1  0  0  0  0
  7 15  1  0  0  0  0
  8  7  1  0  0  0  0
  9  1  1  0  0  0  0
 11  3  1  0  0  0  0
 14  6  1  0  0  0  0
M  END
