title
 OpenBabel02282110003D

 18 18  0  0  0  0  0  0  0  0999 V2000
   -0.0943    2.6296    1.4853 C   0  0  0  0  0  0  0  0  0  0  0  0
    0.0248    1.2035    1.4117 O   0  0  0  0  0  0  0  0  0  0  0  0
   -0.0264    0.6850    0.1663 C   0  0  0  0  0  0  0  0  0  0  0  0
   -0.1596    1.3581   -0.8276 O   0  0  0  0  0  0  0  0  0  0  0  0
    0.0965   -0.8151    0.1755 C   0  0  0  0  0  0  0  0  0  0  0  0
   -1.0168   -1.6078   -0.5790 C   0  0  0  0  0  0  0  0  0  0  0  0
    0.0811   -2.5291   -1.1708 C   0  0  0  0  0  0  0  0  0  0  0  0
    1.1244   -1.4373   -0.8190 C   0  0  0  0  0  0  0  0  0  0  0  0
    0.7119    3.1137    0.9282 H   0  0  0  0  0  0  0  0  0  0  0  0
   -1.0506    2.9588    1.0708 H   0  0  0  0  0  0  0  0  0  0  0  0
   -0.0306    2.8794    2.5446 H   0  0  0  0  0  0  0  0  0  0  0  0
    0.2373   -1.1774    1.1945 H   0  0  0  0  0  0  0  0  0  0  0  0
   -1.8022   -2.0610    0.0296 H   0  0  0  0  0  0  0  0  0  0  0  0
   -1.4716   -0.9761   -1.3459 H   0  0  0  0  0  0  0  0  0  0  0  0
    0.2196   -3.4334   -0.5714 H   0  0  0  0  0  0  0  0  0  0  0  0
   -0.0138   -2.8185   -2.2195 H   0  0  0  0  0  0  0  0  0  0  0  0
    1.2938   -0.7547   -1.6553 H   0  0  0  0  0  0  0  0  0  0  0  0
    2.0858   -1.7519   -0.4074 H   0  0  0  0  0  0  0  0  0  0  0  0
  1 11  1  0  0  0  0
  2  1  1  0  0  0  0
  3  5  1  0  0  0  0
  3  2  1  0  0  0  0
  4  3  2  0  0  0  0
  5 12  1  0  0  0  0
  6 13  1  0  0  0  0
  6  5  1  0  0  0  0
  7  8  1  0  0  0  0
  7  6  1  0  0  0  0
  7 15  1  0  0  0  0
  8 18  1  0  0  0  0
  8  5  1  0  0  0  0
  9  1  1  0  0  0  0
 10  1  1  0  0  0  0
 14  6  1  0  0  0  0
 16  7  1  0  0  0  0
 17  8  1  0  0  0  0
M  END
