17
title
C -0.17798215 2.737176 1.5922307
N -0.10883089 1.2964431 1.4420172
C -0.03853313 0.685968 0.22452554
O -0.028082691 1.2974212 -0.831187
C 0.027348705 -0.8292605 0.26116166
C -0.93733793 -1.5695465 -0.69937277
O 0.14834835 -2.2691588 -1.3352976
C 1.1197603 -1.4782851 -0.62577677
H -0.1608559 3.167171 0.5902416
H -1.1011369 3.0416949 2.0976925
H 0.6759866 3.1202374 2.161814
H -0.112911575 0.7228767 2.2686088
H 0.008625963 -1.2274752 1.2783577
H -1.6552613 -2.2543423 -0.23448315
H -1.4533247 -0.89542097 -1.3924143
H 1.622226 -0.7589919 -1.2823906
H 1.8604493 -2.0983646 -0.108700894
