17
title
C 1.1444608 2.6668713 -0.1010527
O 1.2055776 1.2405226 -0.2378446
C 0.01795084 0.6116803 -0.2954976
O -1.048413 1.1756881 -0.24525923
C 0.20182367 -0.8889599 -0.42999852
C 0.50485 -1.5980563 0.9250481
C -0.984891 -2.0211246 0.9071735
N -1.0614545 -1.63888 -0.5285998
H 2.179489 3.0068157 -0.068008855
H 0.6220957 3.1123323 -0.95138824
H 0.6206332 2.9445894 0.81709504
H 0.91636837 -1.0768065 -1.2392786
H 1.1976819 -2.4320865 0.8071188
H 0.8400225 -0.9654317 1.7475111
H -1.2039647 -3.0760741 1.0992346
H -1.6063957 -1.4051709 1.5688478
H -1.8464243 -1.0333381 -0.751231
