18
title
O 2.1950574 2.0934956 -0.3082281
C 1.8673712 0.73858213 -0.29794672
C 0.36763614 0.5231176 -0.17175841
O -0.36428267 1.4934064 -0.13279243
C -0.15042047 -0.88635904 -0.07289572
C -0.8181384 -1.2783108 1.2919835
C -1.932039 -2.009404 0.49957472
C -1.511442 -1.2069249 -0.7584338
H 1.3408204 2.5536473 -0.2601678
H 2.2007816 0.23112343 -1.220695
H 2.3626647 0.20843892 0.5337666
H 0.62923115 -1.6038427 -0.34529436
H -0.21161728 -1.8591788 1.9897848
H -1.1971047 -0.3870315 1.7980889
H -1.7195065 -3.076875 0.39334065
H -2.9585507 -1.8931367 0.853137
H -2.0922487 -0.28871745 -0.87176824
H -1.4717567 -1.7315993 -1.7152227
