16
title
C -0.20842747 2.692707 1.4103348
O 0.0052824635 1.2741222 1.4043075
C -0.059895035 0.688212 0.19286719
O -0.2787908 1.287349 -0.831374
C 0.16981512 -0.79782504 0.28201142
C -0.8730758 -1.6876358 -0.44441053
O 0.14038381 -2.3048842 -1.2573165
C 1.1426864 -1.3968278 -0.7658878
H 0.5417375 3.19696 0.79620713
H -1.2001399 2.933529 1.0195204
H -0.12159768 3.0012913 2.4519536
H 0.3748855 -1.098472 1.3079218
H -1.4009081 -2.4134119 0.18357852
H -1.592767 -1.1189834 -1.0449027
H 1.4573922 -0.6779092 -1.5311791
H 2.0155432 -1.9214021 -0.3626239
