20
title
C 0.65175974 2.0041225 0.057957258
C 0.5541842 0.47423032 0.011882534
C 1.3275133 -0.1776879 1.1585871
O 2.6980762 0.17780471 1.0259717
C -0.89897776 0.019174766 0.03528152
C -1.7593037 0.24976918 -1.2280389
C -1.9542955 -1.2788227 -1.199378
O -1.0439963 -1.4194489 -0.089825295
H 1.6984754 2.3139918 0.065641955
H 0.16084805 2.4642324 -0.8056665
H 0.17666748 2.4000366 0.9638808
H 1.0035113 0.11355828 -0.92322683
H 0.91902655 0.17215483 2.122524
H 1.1892715 -1.2662987 1.1114662
H 3.1907294 -0.26832572 1.7203491
H -1.3825759 0.36959526 0.9607727
H -2.6574109 0.85533786 -1.1006069
H -1.1945775 0.6195703 -2.0866053
H -2.967505 -1.6119041 -0.9394513
H -1.6159462 -1.8351316 -2.0812433
