title
 OpenBabel02282110003D

 22 22  0  0  1  0  0  0  0  0999 V2000
    1.4324    2.7948   -0.2250 C   0  0  0  0  0  0  0  0  0  0  0  0
    1.3923    1.2680   -0.1272 C   0  0  0  0  0  0  0  0  0  0  0  0
   -0.0255    0.6927   -0.2400 C   0  0  1  0  0  0  0  0  0  0  0  0
   -0.6542    1.0761   -1.4648 O   0  0  0  0  0  0  0  0  0  0  0  0
   -0.0618   -0.8193   -0.0623 C   0  0  0  0  0  0  0  0  0  0  0  0
    0.2352   -1.4279    1.3397 C   0  0  0  0  0  0  0  0  0  0  0  0
   -0.9097   -2.4487    1.0980 C   0  0  0  0  0  0  0  0  0  0  0  0
   -1.4452   -1.5267   -0.0309 C   0  0  0  0  0  0  0  0  0  0  0  0
    2.4602    3.1693   -0.2010 H   0  0  0  0  0  0  0  0  0  0  0  0
    0.9620    3.1312   -1.1526 H   0  0  0  0  0  0  0  0  0  0  0  0
    0.8891    3.2557    0.6075 H   0  0  0  0  0  0  0  0  0  0  0  0
    2.0113    0.8250   -0.9218 H   0  0  0  0  0  0  0  0  0  0  0  0
    1.8337    0.9369    0.8212 H   0  0  0  0  0  0  0  0  0  0  0  0
   -0.6552    1.1496    0.5365 H   0  0  0  0  0  0  0  0  0  0  0  0
   -0.1594    0.6657   -2.1832 H   0  0  0  0  0  0  0  0  0  0  0  0
    0.5865   -1.2852   -0.8181 H   0  0  0  0  0  0  0  0  0  0  0  0
    1.2387   -1.8176    1.5266 H   0  0  0  0  0  0  0  0  0  0  0  0
   -0.0149   -0.7210    2.1385 H   0  0  0  0  0  0  0  0  0  0  0  0
   -0.5295   -3.3957    0.7040 H   0  0  0  0  0  0  0  0  0  0  0  0
   -1.5768   -2.6677    1.9349 H   0  0  0  0  0  0  0  0  0  0  0  0
   -2.2245   -0.8476    0.3287 H   0  0  0  0  0  0  0  0  0  0  0  0
   -1.7992   -1.9973   -0.9507 H   0  0  0  0  0  0  0  0  0  0  0  0
  1  9  1  0  0  0  0
  1  2  1  0  0  0  0
  1 11  1  0  0  0  0
  2 13  1  0  0  0  0
  3  2  1  0  0  0  0
  3  5  1  0  0  0  0
  3 14  1  1  0  0  0
  4  3  1  0  0  0  0
  5  8  1  0  0  0  0
  5  6  1  0  0  0  0
  6 17  1  0  0  0  0
  6 18  1  0  0  0  0
  7  6  1  0  0  0  0
  7 20  1  0  0  0  0
  8 21  1  0  0  0  0
  8  7  1  0  0  0  0
 10  1  1  0  0  0  0
 12  2  1  0  0  0  0
 15  4  1  0  0  0  0
 16  5  1  0  0  0  0
 19  7  1  0  0  0  0
 22  8  1  0  0  0  0
M  END
