title
 OpenBabel02282110003D

 22 22  0  0  1  0  0  0  0  0999 V2000
   -0.6829    2.7724    1.3607 C   0  0  0  0  0  0  0  0  0  0  0  0
   -0.5580    1.2465    1.3038 C   0  0  0  0  0  0  0  0  0  0  0  0
    0.2926    0.7107    0.1362 C   0  0  1  0  0  0  0  0  0  0  0  0
    1.7627    1.1440    0.2348 C   0  0  0  0  0  0  0  0  0  0  0  0
    0.1895   -0.8123    0.0563 C   0  0  0  0  0  0  0  0  0  0  0  0
   -1.1626   -1.4355   -0.3633 C   0  0  0  0  0  0  0  0  0  0  0  0
   -0.5515   -2.1422   -1.4610 O   0  0  0  0  0  0  0  0  0  0  0  0
    0.7239   -1.5185   -1.2116 C   0  0  0  0  0  0  0  0  0  0  0  0
    0.2828    3.2573    1.5322 H   0  0  0  0  0  0  0  0  0  0  0  0
   -1.0930    3.1703    0.4256 H   0  0  0  0  0  0  0  0  0  0  0  0
   -1.3507    3.0790    2.1718 H   0  0  0  0  0  0  0  0  0  0  0  0
   -0.1362    0.8761    2.2486 H   0  0  0  0  0  0  0  0  0  0  0  0
   -1.5646    0.8144    1.2329 H   0  0  0  0  0  0  0  0  0  0  0  0
   -0.1230    1.1193   -0.7982 H   0  0  0  0  0  0  0  0  0  0  0  0
    1.8692    2.2319    0.2117 H   0  0  0  0  0  0  0  0  0  0  0  0
    2.2132    0.7837    1.1676 H   0  0  0  0  0  0  0  0  0  0  0  0
    2.3520    0.7413   -0.5956 H   0  0  0  0  0  0  0  0  0  0  0  0
    0.5847   -1.2562    0.9762 H   0  0  0  0  0  0  0  0  0  0  0  0
   -1.6379   -2.1186    0.3505 H   0  0  0  0  0  0  0  0  0  0  0  0
   -1.9122   -0.7100   -0.7110 H   0  0  0  0  0  0  0  0  0  0  0  0
    1.0129   -0.8393   -2.0266 H   0  0  0  0  0  0  0  0  0  0  0  0
    1.5213   -2.2576   -1.0693 H   0  0  0  0  0  0  0  0  0  0  0  0
  1  9  1  0  0  0  0
  1 11  1  0  0  0  0
  2  1  1  0  0  0  0
  2 12  1  0  0  0  0
  3 14  1  6  0  0  0
  3  4  1  0  0  0  0
  3  2  1  0  0  0  0
  4 16  1  0  0  0  0
  5  3  1  0  0  0  0
  5 18  1  0  0  0  0
  6  5  1  0  0  0  0
  6 19  1  0  0  0  0
  7  8  1  0  0  0  0
  7  6  1  0  0  0  0
  8 22  1  0  0  0  0
  8  5  1  0  0  0  0
 10  1  1  0  0  0  0
 13  2  1  0  0  0  0
 15  4  1  0  0  0  0
 17  4  1  0  0  0  0
 20  6  1  0  0  0  0
 21  8  1  0  0  0  0
M  END
