22
title
C -0.68288636 2.7723818 1.3607318
C -0.5580047 1.2465136 1.3037561
C 0.29255205 0.71065724 0.13615218
C 1.7626628 1.143978 0.23477331
C 0.18950151 -0.812295 0.05625394
C -1.1625624 -1.4354774 -0.36330423
O -0.55148834 -2.1421993 -1.4610411
C 0.72394055 -1.5185021 -1.2116011
H 0.28284585 3.2573237 1.5322285
H -1.0930153 3.1703281 0.42562947
H -1.3506967 3.078979 2.1718118
H -0.13621195 0.8761314 2.248603
H -1.5645796 0.8144489 1.2328727
H -0.12303571 1.1192777 -0.79819137
H 1.869188 2.2319262 0.21172205
H 2.2132175 0.78369427 1.1676277
H 2.3519654 0.74125314 -0.5956382
H 0.5847406 -1.2561854 0.97616744
H -1.6379423 -2.1186442 0.35050943
H -1.9121637 -0.7099512 -0.7110265
H 1.012887 -0.83929497 -2.0266137
H 1.5212549 -2.2576234 -1.0692636
