20
title
C -0.5867623 2.7619665 1.3641
C -0.5825668 1.2317421 1.3376347
C 0.21656881 0.65062153 0.16534083
O 1.5758823 1.0865664 0.18241207
C 0.14593427 -0.87243515 0.10423497
C -1.1729345 -1.4928578 -0.41191193
O -0.52702653 -2.0017498 -1.5936798
C 0.7617536 -1.5185426 -1.1544856
H 0.43546075 3.1489258 1.3785843
H -1.0816733 3.1683984 0.47531798
H -1.113995 3.1424139 2.2438543
H -0.15833066 0.8402554 2.2744992
H -1.6111022 0.8519145 1.289771
H -0.18321772 1.0550629 -0.774813
H 1.9684635 0.78550404 1.0101036
H 0.5014414 -1.2967767 1.0496663
H -1.5944178 -2.2957392 0.20617156
H -1.9718719 -0.7785652 -0.6535612
H 1.2101104 -0.8164442 -1.8668884
H 1.465043 -2.3409433 -0.97351724
