title
 OpenBabel02282110003D

 22 22  0  0  1  0  0  0  0  0999 V2000
   -0.5351    2.8096   -1.4302 C   0  0  0  0  0  0  0  0  0  0  0  0
   -0.3870    1.2887   -1.3268 C   0  0  0  0  0  0  0  0  0  0  0  0
    0.3456    0.7879   -0.0644 C   0  0  1  0  0  0  0  0  0  0  0  0
   -0.4006    1.1563    1.2251 C   0  0  0  0  0  0  0  0  0  0  0  0
    0.5849   -0.7182   -0.1917 C   0  0  1  0  0  0  0  0  0  0  0  0
    1.2348   -1.5201    0.9608 C   0  0  0  0  0  0  0  0  0  0  0  0
   -0.0508   -2.3672    0.9042 C   0  0  0  0  0  0  0  0  0  0  0  0
   -0.6365   -1.4980   -0.0859 O   0  0  0  0  0  0  0  0  0  0  0  0
    0.4391    3.3086   -1.3672 H   0  0  0  0  0  0  0  0  0  0  0  0
   -0.9890    3.0904   -2.3859 H   0  0  0  0  0  0  0  0  0  0  0  0
   -1.1688    3.2179   -0.6373 H   0  0  0  0  0  0  0  0  0  0  0  0
   -1.3748    0.8133   -1.3673 H   0  0  0  0  0  0  0  0  0  0  0  0
    0.1593    0.9277   -2.2079 H   0  0  0  0  0  0  0  0  0  0  0  0
    1.3436    1.2540   -0.0427 H   0  0  0  0  0  0  0  0  0  0  0  0
   -1.3816    0.6726    1.2471 H   0  0  0  0  0  0  0  0  0  0  0  0
    0.1495    0.8452    2.1185 H   0  0  0  0  0  0  0  0  0  0  0  0
   -0.5483    2.2363    1.3024 H   0  0  0  0  0  0  0  0  0  0  0  0
    1.0710   -0.9156   -1.1591 H   0  0  0  0  0  0  0  0  0  0  0  0
    2.1636   -2.0356    0.7119 H   0  0  0  0  0  0  0  0  0  0  0  0
    1.3738   -0.9638    1.8887 H   0  0  0  0  0  0  0  0  0  0  0  0
    0.0826   -3.3878    0.5222 H   0  0  0  0  0  0  0  0  0  0  0  0
   -0.6526   -2.4089    1.8197 H   0  0  0  0  0  0  0  0  0  0  0  0
  1  9  1  0  0  0  0
  1  2  1  0  0  0  0
  1 11  1  0  0  0  0
  2  3  1  0  0  0  0
  3 14  1  1  0  0  0
  3  4  1  0  0  0  0
  4 15  1  0  0  0  0
  4 17  1  0  0  0  0
  4 16  1  0  0  0  0
  5 18  1  6  0  0  0
  5  8  1  0  0  0  0
  5  3  1  0  0  0  0
  5  6  1  0  0  0  0
  6 20  1  0  0  0  0
  7  6  1  0  0  0  0
  7 22  1  0  0  0  0
  8  7  1  0  0  0  0
 10  1  1  0  0  0  0
 12  2  1  0  0  0  0
 13  2  1  0  0  0  0
 19  6  1  0  0  0  0
 21  7  1  0  0  0  0
M  END
