title
 OpenBabel02282110003D

 20 20  0  0  1  0  0  0  0  0999 V2000
   -0.4909    1.9893   -0.4406 C   0  0  0  0  0  0  0  0  0  0  0  0
   -0.2735    0.4723   -0.5132 C   0  0  1  0  0  0  0  0  0  0  0  0
    0.4615    0.0808   -1.7965 C   0  0  0  0  0  0  0  0  0  0  0  0
   -0.3404    0.4608   -2.9047 O   0  0  0  0  0  0  0  0  0  0  0  0
    0.4765   -0.0479    0.7105 C   0  0  0  0  0  0  0  0  0  0  0  0
   -0.2416    0.0059    2.0790 C   0  0  0  0  0  0  0  0  0  0  0  0
   -0.0556   -1.4087    2.2864 O   0  0  0  0  0  0  0  0  0  0  0  0
    0.5045   -1.5734    0.9690 C   0  0  0  0  0  0  0  0  0  0  0  0
    0.4684    2.5176   -0.3773 H   0  0  0  0  0  0  0  0  0  0  0  0
   -1.0125    2.3435   -1.3321 H   0  0  0  0  0  0  0  0  0  0  0  0
   -1.0824    2.2654    0.4381 H   0  0  0  0  0  0  0  0  0  0  0  0
   -1.2561   -0.0198   -0.5480 H   0  0  0  0  0  0  0  0  0  0  0  0
    1.4432    0.5839   -1.8230 H   0  0  0  0  0  0  0  0  0  0  0  0
    0.6496   -1.0050   -1.8021 H   0  0  0  0  0  0  0  0  0  0  0  0
    0.1385    0.2509   -3.7113 H   0  0  0  0  0  0  0  0  0  0  0  0
    1.4758    0.3984    0.7528 H   0  0  0  0  0  0  0  0  0  0  0  0
    0.2340    0.6026    2.8660 H   0  0  0  0  0  0  0  0  0  0  0  0
   -1.3062    0.2745    2.0245 H   0  0  0  0  0  0  0  0  0  0  0  0
   -0.1566   -2.1584    0.3134 H   0  0  0  0  0  0  0  0  0  0  0  0
    1.4890   -2.0552    0.9991 H   0  0  0  0  0  0  0  0  0  0  0  0
  1  9  1  0  0  0  0
  1 11  1  0  0  0  0
  2 12  1  6  0  0  0
  2  1  1  0  0  0  0
  2  5  1  0  0  0  0
  3  2  1  0  0  0  0
  4  3  1  0  0  0  0
  5 16  1  0  0  0  0
  5  8  1  0  0  0  0
  5  6  1  0  0  0  0
  6  7  1  0  0  0  0
  6 17  1  0  0  0  0
  8 20  1  0  0  0  0
  8  7  1  0  0  0  0
 10  1  1  0  0  0  0
 13  3  1  0  0  0  0
 14  3  1  0  0  0  0
 15  4  1  0  0  0  0
 18  6  1  0  0  0  0
 19  8  1  0  0  0  0
M  END
