title
 OpenBabel02282110003D

 17 17  0  0  0  0  0  0  0  0999 V2000
    1.4374    2.5310   -0.3855 O   0  0  0  0  0  0  0  0  0  0  0  0
    1.3928    1.1495   -0.1896 C   0  0  0  0  0  0  0  0  0  0  0  0
   -0.0668    0.6938   -0.0954 C   0  0  0  0  0  0  0  0  0  0  0  0
   -0.9708    1.5160   -0.1923 O   0  0  0  0  0  0  0  0  0  0  0  0
   -0.2863   -0.6185    0.0939 N   0  0  0  0  0  0  0  0  0  0  0  0
    0.5776   -1.7943    0.2393 C   0  0  0  0  0  0  0  0  0  0  0  0
   -0.7089   -2.6588    0.3865 C   0  0  0  0  0  0  0  0  0  0  0  0
   -1.5449   -1.3545    0.2219 C   0  0  0  0  0  0  0  0  0  0  0  0
    0.5009    2.7975   -0.4031 H   0  0  0  0  0  0  0  0  0  0  0  0
    1.8851    0.6117   -1.0167 H   0  0  0  0  0  0  0  0  0  0  0  0
    1.9209    0.8585    0.7335 H   0  0  0  0  0  0  0  0  0  0  0  0
    1.1912   -2.0091   -0.6429 H   0  0  0  0  0  0  0  0  0  0  0  0
    1.2284   -1.7637    1.1205 H   0  0  0  0  0  0  0  0  0  0  0  0
   -0.8520   -3.3945   -0.4047 H   0  0  0  0  0  0  0  0  0  0  0  0
   -0.8155   -3.1489    1.3541 H   0  0  0  0  0  0  0  0  0  0  0  0
   -2.1397   -1.0544    1.0901 H   0  0  0  0  0  0  0  0  0  0  0  0
   -2.1753   -1.2997   -0.6709 H   0  0  0  0  0  0  0  0  0  0  0  0
  1  2  1  0  0  0  0
  2  3  1  0  0  0  0
  2 11  1  0  0  0  0
  3  5  1  0  0  0  0
  4  3  2  0  0  0  0
  5  8  1  0  0  0  0
  5  6  1  0  0  0  0
  6  7  1  0  0  0  0
  6 13  1  0  0  0  0
  7 15  1  0  0  0  0
  8  7  1  0  0  0  0
  8 16  1  0  0  0  0
  9  1  1  0  0  0  0
 10  2  1  0  0  0  0
 12  6  1  0  0  0  0
 14  7  1  0  0  0  0
 17  8  1  0  0  0  0
M  END
