20
title
C -0.96027774 2.7829368 1.1088897
C -1.1049978 1.2704588 0.93112
C -0.3239023 0.7320095 -0.27714315
O 1.0544785 1.0709677 -0.20948438
C -0.46960562 -0.7817302 -0.41172627
C 0.32289928 -1.4941158 -1.528477
C 0.9690332 -2.2830403 -0.37523285
O 0.31269568 -1.4557469 0.6160028
H 0.0934388 3.057878 1.1999497
H -1.3710154 3.3228164 0.2480473
H -1.4879317 3.1287992 2.0027966
H -0.75248927 0.747196 1.8296278
H -2.1628697 1.0022238 0.8119593
H -0.704461 1.1992499 -1.196157
H 1.4205557 0.48494607 0.46732822
H -1.5266688 -1.074503 -0.35221997
H -0.26015878 -2.0691488 -2.248539
H 1.0120403 -0.827477 -2.0480402
H 0.64988476 -3.3294456 -0.29346195
H 2.0599387 -2.2344315 -0.28932098
