22
title
C 1.4323918 2.7948432 -0.22496724
C 1.3922868 1.267997 -0.12722218
C -0.025470657 0.6926596 -0.23999731
O -0.6541919 1.0761269 -1.4648082
C -0.061777752 -0.819345 -0.06234229
C 0.23521002 -1.4278579 1.3397328
C -0.90966934 -2.4487047 1.0979562
C -1.4451894 -1.5266991 -0.030923743
H 2.4602332 3.1692781 -0.20099945
H 0.96200055 3.131228 -1.1525685
H 0.8891031 3.2556748 0.6075129
H 2.0112865 0.8249999 -0.9217961
H 1.8337069 0.936856 0.82117176
H -0.65519947 1.1496003 0.5365035
H -0.15944903 0.6656815 -2.1832268
H 0.58647466 -1.2851894 -0.8181352
H 1.2387226 -1.817589 1.5265605
H -0.014862699 -0.72096705 2.1385417
H -0.52947146 -3.3957105 0.7039878
H -1.5767883 -2.6677122 1.9349307
H -2.2245276 -0.84758306 0.32865065
H -1.7991625 -1.9973125 -0.95073944
