24
title
C -0.91852474 2.7648475 -1.2203592
C -0.84654725 1.2384719 -1.1077389
C -0.24070148 0.71385676 0.20797047
C -1.0955253 1.0755547 1.431561
C -0.01585583 -0.7960837 0.13424155
C 1.012623 -1.3685791 -0.8856165
C 1.4449887 -2.403994 0.18641922
C 0.7850102 -1.5052583 1.2657573
H 0.072245255 3.216695 -1.0955813
H -1.2986083 3.0676432 -2.2012959
H -1.5789554 3.2024267 -0.46538267
H -1.8529121 0.81343436 -1.2293344
H -0.25235167 0.8514282 -1.9449202
H 0.7472025 1.1855485 0.33227214
H -2.104248 0.65398765 1.3405004
H -0.65376693 0.6810138 2.3521128
H -1.1974599 2.1576319 1.5542443
H -0.98312163 -1.2990117 0.00051221735
H 0.6367233 -1.7470486 -1.8394357
H 1.8096054 -0.6450269 -1.0908664
H 0.9130939 -3.3526928 0.06958649
H 2.5119643 -2.6175065 0.2855682
H 1.5119808 -0.823287 1.7207377
H 0.22357906 -1.9947362 2.0654957
