title
 OpenBabel02282110003D

 20 20  0  0  1  0  0  0  0  0999 V2000
    0.0385    2.5330    1.4064 C   0  0  0  0  0  0  0  0  0  0  0  0
   -0.1530    1.1435    1.2826 O   0  0  0  0  0  0  0  0  0  0  0  0
    0.4821    0.5506    0.1594 C   0  0  1  0  0  0  0  0  0  0  0  0
    2.0005    0.4467    0.3048 C   0  0  0  0  0  0  0  0  0  0  0  0
   -0.1569   -0.8270    0.0248 C   0  0  1  0  0  0  0  0  0  0  0  0
   -1.6163   -0.8868   -0.4685 C   0  0  0  0  0  0  0  0  0  0  0  0
   -1.0316   -1.6771   -1.6562 C   0  0  0  0  0  0  0  0  0  0  0  0
    0.3144   -1.5252   -1.1516 O   0  0  0  0  0  0  0  0  0  0  0  0
    1.0826    2.7987    1.6251 H   0  0  0  0  0  0  0  0  0  0  0  0
   -0.2685    3.0688    0.4941 H   0  0  0  0  0  0  0  0  0  0  0  0
   -0.5851    2.8708    2.2382 H   0  0  0  0  0  0  0  0  0  0  0  0
    0.2417    1.1298   -0.7495 H   0  0  0  0  0  0  0  0  0  0  0  0
    2.2563   -0.0638    1.2392 H   0  0  0  0  0  0  0  0  0  0  0  0
    2.4053   -0.1288   -0.5320 H   0  0  0  0  0  0  0  0  0  0  0  0
    2.4791    1.4299    0.3054 H   0  0  0  0  0  0  0  0  0  0  0  0
    0.0410   -1.4040    0.9386 H   0  0  0  0  0  0  0  0  0  0  0  0
   -2.3125   -1.4309    0.1702 H   0  0  0  0  0  0  0  0  0  0  0  0
   -2.0444    0.0858   -0.7173 H   0  0  0  0  0  0  0  0  0  0  0  0
   -1.3264   -2.7324   -1.7105 H   0  0  0  0  0  0  0  0  0  0  0  0
   -1.1486   -1.2268   -2.6491 H   0  0  0  0  0  0  0  0  0  0  0  0
  1  9  1  0  0  0  0
  1 11  1  0  0  0  0
  2  1  1  0  0  0  0
  3 12  1  6  0  0  0
  3  4  1  0  0  0  0
  3  2  1  0  0  0  0
  4 15  1  0  0  0  0
  4 13  1  0  0  0  0
  5  3  1  0  0  0  0
  5 16  1  1  0  0  0
  6  5  1  0  0  0  0
  6 17  1  0  0  0  0
  7  8  1  0  0  0  0
  7  6  1  0  0  0  0
  8  5  1  0  0  0  0
 10  1  1  0  0  0  0
 14  4  1  0  0  0  0
 18  6  1  0  0  0  0
 19  7  1  0  0  0  0
 20  7  1  0  0  0  0
M  END
