title
 OpenBabel02282110003D

 16 16  0  0  0  0  0  0  0  0999 V2000
   -0.6195   -3.9759   -0.7750 C   0  0  0  0  0  0  0  0  0  0  0  0
   -0.5147   -2.7806   -0.6352 C   0  0  0  0  0  0  0  0  0  0  0  0
   -0.3969   -1.4347   -0.4786 C   0  0  0  0  0  0  0  0  0  0  0  0
   -0.2910   -0.2357   -0.3376 C   0  0  0  0  0  0  0  0  0  0  0  0
   -0.1499    1.1887   -0.1528 C   0  0  0  0  0  0  0  0  0  0  0  0
   -0.3543    1.7996    1.2752 C   0  0  0  0  0  0  0  0  0  0  0  0
    0.8168    2.7732    0.9818 C   0  0  0  0  0  0  0  0  0  0  0  0
    1.2827    1.8226   -0.1516 C   0  0  0  0  0  0  0  0  0  0  0  0
   -0.7124   -5.0262   -0.8976 H   0  0  0  0  0  0  0  0  0  0  0  0
   -0.7840    1.7204   -0.8717 H   0  0  0  0  0  0  0  0  0  0  0  0
   -1.3379    2.2185    1.4961 H   0  0  0  0  0  0  0  0  0  0  0  0
   -0.0962    1.0703    2.0467 H   0  0  0  0  0  0  0  0  0  0  0  0
    0.4598    3.7289    0.5877 H   0  0  0  0  0  0  0  0  0  0  0  0
    1.5203    2.9723    1.7922 H   0  0  0  0  0  0  0  0  0  0  0  0
    2.0233    1.1001    0.1993 H   0  0  0  0  0  0  0  0  0  0  0  0
    1.6289    2.2602   -1.0899 H   0  0  0  0  0  0  0  0  0  0  0  0
  1  2  3  0  0  0  0
  2  3  1  0  0  0  0
  3  4  3  0  0  0  0
  4  5  1  0  0  0  0
  5  8  1  0  0  0  0
  5  6  1  0  0  0  0
  6 11  1  0  0  0  0
  6 12  1  0  0  0  0
  7  6  1  0  0  0  0
  7 14  1  0  0  0  0
  8 15  1  0  0  0  0
  8  7  1  0  0  0  0
  9  1  1  0  0  0  0
 10  5  1  0  0  0  0
 13  7  1  0  0  0  0
 16  8  1  0  0  0  0
M  END
