title
 OpenBabel02282110003D

 18 18  0  0  1  0  0  0  0  0999 V2000
    1.3744    2.6268    0.2312 O   0  0  0  0  0  0  0  0  0  0  0  0
    1.3605    1.2442    0.5119 C   0  0  0  0  0  0  0  0  0  0  0  0
   -0.0699    0.6950    0.4526 C   0  0  1  0  0  0  0  0  0  0  0  0
   -0.6699    1.0836   -0.7808 O   0  0  0  0  0  0  0  0  0  0  0  0
   -0.1229   -0.8191    0.6046 C   0  0  1  0  0  0  0  0  0  0  0  0
   -1.4967   -1.5169    0.5119 C   0  0  0  0  0  0  0  0  0  0  0  0
   -0.8648   -2.2981   -0.6547 C   0  0  0  0  0  0  0  0  0  0  0  0
    0.3217   -1.4649   -0.6231 O   0  0  0  0  0  0  0  0  0  0  0  0
    0.7618    2.7388   -0.5077 H   0  0  0  0  0  0  0  0  0  0  0  0
    1.9910    0.6774   -0.1948 H   0  0  0  0  0  0  0  0  0  0  0  0
    1.7796    1.1056    1.5152 H   0  0  0  0  0  0  0  0  0  0  0  0
   -0.6669    1.1631    1.2451 H   0  0  0  0  0  0  0  0  0  0  0  0
   -0.3217    0.4552   -1.4310 H   0  0  0  0  0  0  0  0  0  0  0  0
    0.4874   -1.1418    1.4592 H   0  0  0  0  0  0  0  0  0  0  0  0
   -1.8101   -2.0963    1.3806 H   0  0  0  0  0  0  0  0  0  0  0  0
   -2.2944   -0.8388    0.2060 H   0  0  0  0  0  0  0  0  0  0  0  0
   -0.6193   -3.3433   -0.4311 H   0  0  0  0  0  0  0  0  0  0  0  0
   -1.3722   -2.2480   -1.6236 H   0  0  0  0  0  0  0  0  0  0  0  0
  1  2  1  0  0  0  0
  2 11  1  0  0  0  0
  3  2  1  0  0  0  0
  3  5  1  0  0  0  0
  3 12  1  1  0  0  0
  4  3  1  0  0  0  0
  5 14  1  1  0  0  0
  6  5  1  0  0  0  0
  6 15  1  0  0  0  0
  7  8  1  0  0  0  0
  7 17  1  0  0  0  0
  7  6  1  0  0  0  0
  8  5  1  0  0  0  0
  9  1  1  0  0  0  0
 10  2  1  0  0  0  0
 13  4  1  0  0  0  0
 16  6  1  0  0  0  0
 18  7  1  0  0  0  0
M  END
