18
title
O 1.3744485 2.6268198 0.23122935
C 1.3605452 1.2441596 0.51189476
C -0.069911115 0.6949744 0.45259216
O -0.66991854 1.0835572 -0.78082776
C -0.12287795 -0.8190728 0.6046148
C -1.4966838 -1.5168886 0.5119369
C -0.8647549 -2.298082 -0.65470994
O 0.32170004 -1.4649298 -0.6231289
H 0.7618484 2.7387905 -0.50774753
H 1.991005 0.67744213 -0.19477716
H 1.7795699 1.1055788 1.5151631
H -0.66687787 1.1630859 1.2450862
H -0.32169247 0.4552124 -1.4309708
H 0.48739552 -1.1418393 1.459205
H -1.8100975 -2.096337 1.3806192
H -2.2944438 -0.83877 0.20603806
H -0.61933696 -3.3432953 -0.43111435
H -1.3721843 -2.2479963 -1.6236173
