14
title
C -0.52390355 -3.9744186 -0.59588915
C -0.44632342 -2.7715662 -0.522705
C -0.36099836 -1.4168223 -0.4407804
C -0.28227624 -0.21113865 -0.3619762
C -0.20489481 1.2342906 -0.27104408
C -0.5433114 1.8858238 1.1012894
C 0.89789826 2.4259567 1.0381396
O 1.1524824 1.7418147 -0.20943303
H -0.58923745 -5.0321965 -0.66088194
H -0.7456543 1.6832407 -1.1154621
H -1.34027 2.629005 1.0711789
H -0.7377453 1.1695142 1.8988874
H 0.9900802 3.5130587 0.9296499
H 1.572878 2.0872855 1.8318791
