title
 OpenBabel02282110003D

 20 20  0  0  1  0  0  0  0  0999 V2000
    1.4769    2.5810   -0.3153 O   0  0  0  0  0  0  0  0  0  0  0  0
    1.4321    1.1840   -0.1244 C   0  0  0  0  0  0  0  0  0  0  0  0
   -0.0086    0.6692   -0.1839 C   0  0  1  0  0  0  0  0  0  0  0  0
   -0.6201    1.1487   -1.3916 O   0  0  0  0  0  0  0  0  0  0  0  0
   -0.1223   -0.8382   -0.0514 C   0  0  0  0  0  0  0  0  0  0  0  0
    0.1917   -1.4978    1.3243 C   0  0  0  0  0  0  0  0  0  0  0  0
   -1.0103   -2.4540    1.0974 C   0  0  0  0  0  0  0  0  0  0  0  0
   -1.5393   -1.4749    0.0143 C   0  0  0  0  0  0  0  0  0  0  0  0
    0.8262    2.7599   -1.0074 H   0  0  0  0  0  0  0  0  0  0  0  0
    2.0329    0.6525   -0.8869 H   0  0  0  0  0  0  0  0  0  0  0  0
    1.8795    0.9667    0.8517 H   0  0  0  0  0  0  0  0  0  0  0  0
   -0.5818    1.1538    0.6165 H   0  0  0  0  0  0  0  0  0  0  0  0
   -0.2579    0.6354   -2.1238 H   0  0  0  0  0  0  0  0  0  0  0  0
    0.4736   -1.3179   -0.8407 H   0  0  0  0  0  0  0  0  0  0  0  0
    1.1809   -1.9399    1.4638 H   0  0  0  0  0  0  0  0  0  0  0  0
    0.0051   -0.8007    2.1481 H   0  0  0  0  0  0  0  0  0  0  0  0
   -0.6923   -3.4066    0.6641 H   0  0  0  0  0  0  0  0  0  0  0  0
   -1.6577   -2.6633    1.9518 H   0  0  0  0  0  0  0  0  0  0  0  0
   -2.2685   -0.7680    0.4216 H   0  0  0  0  0  0  0  0  0  0  0  0
   -1.9497   -1.9010   -0.9038 H   0  0  0  0  0  0  0  0  0  0  0  0
  1  2  1  0  0  0  0
  2 11  1  0  0  0  0
  3  2  1  0  0  0  0
  3  5  1  0  0  0  0
  3 12  1  1  0  0  0
  4  3  1  0  0  0  0
  5  8  1  0  0  0  0
  5  6  1  0  0  0  0
  6 15  1  0  0  0  0
  6 16  1  0  0  0  0
  7  6  1  0  0  0  0
  7 18  1  0  0  0  0
  8 19  1  0  0  0  0
  8  7  1  0  0  0  0
  9  1  1  0  0  0  0
 10  2  1  0  0  0  0
 13  4  1  0  0  0  0
 14  5  1  0  0  0  0
 17  7  1  0  0  0  0
 20  8  1  0  0  0  0
M  END
