14
title
C -0.38468716 -4.064118 -0.50210804
C -0.3622995 -2.8576186 -0.4538224
C -0.33800405 -1.4987749 -0.4005386
C -0.31483406 -0.28886095 -0.35142437
C -0.28097773 1.1512123 -0.28600082
C -0.43228635 1.8479825 1.0989639
O 0.746628 2.6394818 0.8716419
C 1.0981941 1.8753148 -0.2947355
H -0.40380615 -5.124835 -0.54388535
H -0.9618472 1.5831438 -1.0252144
H -1.3273404 2.4630723 1.236726
H -0.31834126 1.1645517 1.9491913
H 1.9472871 1.2050104 -0.11395704
H 1.3067061 2.5101128 -1.1619097
