15
title
N -0.6926541 -3.8731928 -0.85628116
C -0.56929004 -2.728691 -0.6958196
C -0.42429036 -1.3855034 -0.5070276
C -0.2970356 -0.19363427 -0.3411797
C -0.12449104 1.2204838 -0.12023263
C -0.30852592 1.7909801 1.3275446
C 0.8893704 2.7393224 1.0600644
C 1.3247936 1.8161082 -0.10781166
H -0.7511205 1.779534 -0.82349825
H -1.2801424 2.2301316 1.5596663
H -0.07169735 1.0318528 2.0763257
H 0.5592542 3.7180495 0.7015536
H 1.6016021 2.8876448 1.8731072
H 2.0500772 1.0645101 0.21173027
H 1.6720257 2.2755527 -1.0346947
