title
 OpenBabel02282110003D

 18 18  0  0  0  0  0  0  0  0999 V2000
   -1.8134   -3.3077   -0.3826 C   0  0  0  0  0  0  0  0  0  0  0  0
   -1.5654   -2.1547   -0.1572 C   0  0  0  0  0  0  0  0  0  0  0  0
   -1.2953   -0.7527    0.1334 C   0  0  0  0  0  0  0  0  0  0  0  0
   -0.0458   -0.3757   -0.4154 O   0  0  0  0  0  0  0  0  0  0  0  0
    0.2622    0.9766   -0.1899 C   0  0  0  0  0  0  0  0  0  0  0  0
    0.7432    1.4248    1.2215 C   0  0  0  0  0  0  0  0  0  0  0  0
    1.8208    2.2887    0.5081 C   0  0  0  0  0  0  0  0  0  0  0  0
    1.6183    1.4224   -0.7663 C   0  0  0  0  0  0  0  0  0  0  0  0
   -2.0262   -4.3279   -0.5867 H   0  0  0  0  0  0  0  0  0  0  0  0
   -2.1025   -0.1256   -0.2834 H   0  0  0  0  0  0  0  0  0  0  0  0
   -1.3055   -0.5947    1.2244 H   0  0  0  0  0  0  0  0  0  0  0  0
   -0.5607    1.6187   -0.5441 H   0  0  0  0  0  0  0  0  0  0  0  0
    0.0328    1.9259    1.8831 H   0  0  0  0  0  0  0  0  0  0  0  0
    1.1931    0.5774    1.7475 H   0  0  0  0  0  0  0  0  0  0  0  0
    1.4852    3.3186    0.3606 H   0  0  0  0  0  0  0  0  0  0  0  0
    2.8193    2.3097    0.9481 H   0  0  0  0  0  0  0  0  0  0  0  0
    2.3036    0.5708   -0.7870 H   0  0  0  0  0  0  0  0  0  0  0  0
    1.6243    1.9118   -1.7422 H   0  0  0  0  0  0  0  0  0  0  0  0
  1  2  3  0  0  0  0
  2  3  1  0  0  0  0
  3 11  1  0  0  0  0
  4  5  1  0  0  0  0
  4  3  1  0  0  0  0
  5  6  1  0  0  0  0
  6 14  1  0  0  0  0
  6 13  1  0  0  0  0
  7 16  1  0  0  0  0
  7  6  1  0  0  0  0
  8  5  1  0  0  0  0
  8  7  1  0  0  0  0
  9  1  1  0  0  0  0
 10  3  1  0  0  0  0
 12  5  1  0  0  0  0
 15  7  1  0  0  0  0
 17  8  1  0  0  0  0
 18  8  1  0  0  0  0
M  END
