20
title
C -1.2547209 -3.7080536 -0.36558792
C -1.236637 -2.5090086 -0.28017074
C -1.1798524 -1.0557952 -0.18371852
C 0.23713225 -0.48705608 -0.4102691
C 0.28296846 1.0295653 -0.29518485
C 0.069606245 1.6992414 1.0955193
C 1.1743424 2.725827 0.72726893
C 1.6602948 1.7474034 -0.37553826
H -1.2833785 -4.7665844 -0.43912917
H -1.8699751 -0.6139861 -0.9149583
H -1.544243 -0.7413816 0.80301
H 0.92158586 -0.93443173 0.32101968
H 0.5924278 -0.7994128 -1.3997982
H -0.40564895 1.4754653 -1.0243313
H -0.9251621 2.0818927 1.3373532
H 0.39227468 1.0356188 1.9054791
H 0.7509188 3.6393592 0.29991916
H 1.8859444 3.0072362 1.5068356
H 2.4640274 1.0984309 -0.011579038
H 1.9628029 2.1652753 -1.3390409
