18
title
C -1.1430966 -3.6895957 0.09210887
C -1.1446618 -2.4888535 0.14990664
C -1.1129059 -1.0342002 0.22605583
C 0.3078195 -0.47336468 0.44069064
C 0.30875528 1.0437335 0.4873755
C 1.6625178 1.7784675 0.36282608
C 1.0282018 2.4361596 -0.87877154
O -0.16372903 1.6325468 -0.7513808
H -1.1568068 -4.749647 0.037366696
H -1.5205902 -0.6014504 -0.6949896
H -1.7671251 -0.69558984 1.0405905
H 0.72630703 -0.86334604 1.3764572
H 0.9576926 -0.812705 -0.37349555
H -0.30509007 1.3941923 1.3311337
H 1.9248931 2.4475431 1.1832364
H 2.5075412 1.1201175 0.15022956
H 0.8093926 3.5066628 -0.77646923
H 1.5350604 2.2695289 -1.836207
