13
title
N -0.40194416 -3.9875786 -0.5197718
C -0.375175 -2.8271887 -0.46750253
C -0.34409237 -1.4641964 -0.40673807
C -0.31824973 -0.25645277 -0.354763
C -0.27565196 1.1815336 -0.2799628
C -0.42006168 1.8626729 1.1145493
O 0.7742238 2.6326623 0.9024074
C 1.1128078 1.889808 -0.27985385
H -0.95450765 1.6174147 -1.0177469
H -1.3051856 2.4917219 1.2499142
H -0.32596704 1.1678929 1.9575777
H 1.9565185 1.2082944 -0.11872933
H 1.3187509 2.538172 -1.1369904
