title
 OpenBabel02282110003D

 13 13  0  0  0  0  0  0  0  0999 V2000
   -0.4019   -3.9876   -0.5198 N   0  0  0  0  0  0  0  0  0  0  0  0
   -0.3752   -2.8272   -0.4675 C   0  0  0  0  0  0  0  0  0  0  0  0
   -0.3441   -1.4642   -0.4067 C   0  0  0  0  0  0  0  0  0  0  0  0
   -0.3182   -0.2565   -0.3548 C   0  0  0  0  0  0  0  0  0  0  0  0
   -0.2757    1.1815   -0.2800 C   0  0  0  0  0  0  0  0  0  0  0  0
   -0.4201    1.8627    1.1145 C   0  0  0  0  0  0  0  0  0  0  0  0
    0.7742    2.6327    0.9024 O   0  0  0  0  0  0  0  0  0  0  0  0
    1.1128    1.8898   -0.2799 C   0  0  0  0  0  0  0  0  0  0  0  0
   -0.9545    1.6174   -1.0177 H   0  0  0  0  0  0  0  0  0  0  0  0
   -1.3052    2.4917    1.2499 H   0  0  0  0  0  0  0  0  0  0  0  0
   -0.3260    1.1679    1.9576 H   0  0  0  0  0  0  0  0  0  0  0  0
    1.9565    1.2083   -0.1187 H   0  0  0  0  0  0  0  0  0  0  0  0
    1.3188    2.5382   -1.1370 H   0  0  0  0  0  0  0  0  0  0  0  0
  1  2  3  0  0  0  0
  2  3  1  0  0  0  0
  3  4  3  0  0  0  0
  4  5  1  0  0  0  0
  5  8  1  0  0  0  0
  5  6  1  0  0  0  0
  6 10  1  0  0  0  0
  6 11  1  0  0  0  0
  7  6  1  0  0  0  0
  8 12  1  0  0  0  0
  8  7  1  0  0  0  0
  9  5  1  0  0  0  0
 13  8  1  0  0  0  0
M  END
