title
 OpenBabel02282110003D

 14 14  0  0  0  0  0  0  0  0999 V2000
   -1.0061   -2.8875    1.5945 N   0  0  0  0  0  0  0  0  0  0  0  0
   -1.0963   -1.7736    1.3027 C   0  0  0  0  0  0  0  0  0  0  0  0
   -1.2291   -0.3620    0.9205 C   0  0  0  0  0  0  0  0  0  0  0  0
    0.0762    0.2956    0.9055 N   0  0  0  0  0  0  0  0  0  0  0  0
    0.4882    0.7453   -0.1901 C   0  0  0  0  0  0  0  0  0  0  0  0
    1.7358    1.4687   -0.6431 C   0  0  0  0  0  0  0  0  0  0  0  0
    1.0488    1.4319   -2.0241 C   0  0  0  0  0  0  0  0  0  0  0  0
   -0.0978    0.7340   -1.4387 O   0  0  0  0  0  0  0  0  0  0  0  0
   -1.7596   -0.3149   -0.0391 H   0  0  0  0  0  0  0  0  0  0  0  0
   -1.8595    0.1297    1.6708 H   0  0  0  0  0  0  0  0  0  0  0  0
    1.8770    2.4565   -0.2024 H   0  0  0  0  0  0  0  0  0  0  0  0
    2.6559    0.8907   -0.5474 H   0  0  0  0  0  0  0  0  0  0  0  0
    0.7436    2.3931   -2.4426 H   0  0  0  0  0  0  0  0  0  0  0  0
    1.5261    0.8153   -2.7883 H   0  0  0  0  0  0  0  0  0  0  0  0
  2  1  3  0  0  0  0
  3  2  1  0  0  0  0
  3 10  1  0  0  0  0
  4  3  1  0  0  0  0
  5  4  2  0  0  0  0
  6 12  1  0  0  0  0
  6 11  1  0  0  0  0
  6  5  1  0  0  0  0
  7  8  1  0  0  0  0
  7  6  1  0  0  0  0
  8  5  1  0  0  0  0
  9  3  1  0  0  0  0
 13  7  1  0  0  0  0
 14  7  1  0  0  0  0
M  END
