title
 OpenBabel02282110003D

 15 15  0  0  0  0  0  0  0  0999 V2000
   -2.8336   -2.0673    0.2056 C   0  0  0  0  0  0  0  0  0  0  0  0
   -1.9096   -1.4461    0.6564 C   0  0  0  0  0  0  0  0  0  0  0  0
   -0.7782   -0.7042    1.2095 C   0  0  0  0  0  0  0  0  0  0  0  0
   -0.5801    0.5708    0.5093 N   0  0  0  0  0  0  0  0  0  0  0  0
    0.4904    0.7397   -0.1155 C   0  0  0  0  0  0  0  0  0  0  0  0
    1.0773    1.8613   -0.9452 C   0  0  0  0  0  0  0  0  0  0  0  0
    2.2719    0.8973   -1.0958 C   0  0  0  0  0  0  0  0  0  0  0  0
    1.5852   -0.0958   -0.2736 O   0  0  0  0  0  0  0  0  0  0  0  0
   -3.6522   -2.6141   -0.1918 H   0  0  0  0  0  0  0  0  0  0  0  0
   -0.9864   -0.4742    2.2623 H   0  0  0  0  0  0  0  0  0  0  0  0
    0.1164   -1.3411    1.1908 H   0  0  0  0  0  0  0  0  0  0  0  0
    0.5252    2.0891   -1.8582 H   0  0  0  0  0  0  0  0  0  0  0  0
    1.2707    2.7839   -0.3961 H   0  0  0  0  0  0  0  0  0  0  0  0
    2.4584    0.5088   -2.0996 H   0  0  0  0  0  0  0  0  0  0  0  0
    3.2093    1.2084   -0.6288 H   0  0  0  0  0  0  0  0  0  0  0  0
  1  2  3  0  0  0  0
  2  3  1  0  0  0  0
  3 10  1  0  0  0  0
  4  3  1  0  0  0  0
  5  4  2  0  0  0  0
  6 13  1  0  0  0  0
  6  5  1  0  0  0  0
  7  6  1  0  0  0  0
  7 15  1  0  0  0  0
  7  8  1  0  0  0  0
  8  5  1  0  0  0  0
  9  1  1  0  0  0  0
 11  3  1  0  0  0  0
 12  6  1  0  0  0  0
 14  7  1  0  0  0  0
M  END
