title
 OpenBabel02282110003D

 19 19  0  0  0  0  0  0  0  0999 V2000
   -1.3000   -3.6161   -0.4048 N   0  0  0  0  0  0  0  0  0  0  0  0
   -1.2585   -2.4649   -0.3120 C   0  0  0  0  0  0  0  0  0  0  0  0
   -1.1811   -1.0104   -0.1995 C   0  0  0  0  0  0  0  0  0  0  0  0
    0.2471   -0.4683   -0.4184 C   0  0  0  0  0  0  0  0  0  0  0  0
    0.3098    1.0463   -0.2814 C   0  0  0  0  0  0  0  0  0  0  0  0
    0.0994    1.6973    1.1185 C   0  0  0  0  0  0  0  0  0  0  0  0
    1.2229    2.7111    0.7711 C   0  0  0  0  0  0  0  0  0  0  0  0
    1.6985    1.7428   -0.3452 C   0  0  0  0  0  0  0  0  0  0  0  0
   -1.8695   -0.5686   -0.9297 H   0  0  0  0  0  0  0  0  0  0  0  0
   -1.5473   -0.7194    0.7920 H   0  0  0  0  0  0  0  0  0  0  0  0
    0.9219   -0.9352    0.3088 H   0  0  0  0  0  0  0  0  0  0  0  0
    0.5976   -0.7724   -1.4116 H   0  0  0  0  0  0  0  0  0  0  0  0
   -0.3688    1.5101   -1.0085 H   0  0  0  0  0  0  0  0  0  0  0  0
   -0.8903    2.0929    1.3600 H   0  0  0  0  0  0  0  0  0  0  0  0
    0.4069    1.0170    1.9205 H   0  0  0  0  0  0  0  0  0  0  0  0
    0.8167    3.6383    0.3571 H   0  0  0  0  0  0  0  0  0  0  0  0
    1.9351    2.9667    1.5584 H   0  0  0  0  0  0  0  0  0  0  0  0
    2.4910    1.0760    0.0107 H   0  0  0  0  0  0  0  0  0  0  0  0
    2.0095    2.1706   -1.3012 H   0  0  0  0  0  0  0  0  0  0  0  0
  1  2  3  0  0  0  0
  2  3  1  0  0  0  0
  3 10  1  0  0  0  0
  4  5  1  0  0  0  0
  4  3  1  0  0  0  0
  4 11  1  0  0  0  0
  5  6  1  0  0  0  0
  6 14  1  0  0  0  0
  6 15  1  0  0  0  0
  7  6  1  0  0  0  0
  7 17  1  0  0  0  0
  8  5  1  0  0  0  0
  8 18  1  0  0  0  0
  8  7  1  0  0  0  0
  9  3  1  0  0  0  0
 12  4  1  0  0  0  0
 13  5  1  0  0  0  0
 16  7  1  0  0  0  0
 19  8  1  0  0  0  0
M  END
