15
title
N -1.5364534 -3.3852324 -0.31488052
C -1.4126501 -2.2520778 -0.13342002
C -1.2935152 -0.81293344 0.115526825
O -0.060709085 -0.35714805 -0.39137724
C 0.11193243 1.0324148 -0.24485238
C 0.6018941 1.5596472 1.1265197
O 1.7836163 2.1173995 0.5193662
C 1.4747839 1.5173556 -0.7562325
H -2.1410322 -0.29998052 -0.36762053
H -1.3810263 -0.6381085 1.1994264
H -0.7538425 1.5722483 -0.6514493
H -0.008095469 2.325219 1.6190118
H 0.83763605 0.75766623 1.8391465
H 2.148708 0.6892384 -1.0067937
H 1.4689424 2.2507818 -1.5690687
