title
 OpenBabel02282110003D

 17 17  0  0  0  0  0  0  0  0999 V2000
   -1.2044   -3.6561   -0.2721 N   0  0  0  0  0  0  0  0  0  0  0  0
   -1.2171   -2.5009   -0.2465 C   0  0  0  0  0  0  0  0  0  0  0  0
   -1.2087   -1.0402   -0.2192 C   0  0  0  0  0  0  0  0  0  0  0  0
    0.1996   -0.4499   -0.4403 C   0  0  0  0  0  0  0  0  0  0  0  0
    0.1927    1.0728   -0.4016 C   0  0  0  0  0  0  0  0  0  0  0  0
    0.0355    1.7542    0.9801 C   0  0  0  0  0  0  0  0  0  0  0  0
    1.3232    2.3885    0.8673 O   0  0  0  0  0  0  0  0  0  0  0  0
    1.5702    1.7748   -0.4131 C   0  0  0  0  0  0  0  0  0  0  0  0
   -1.8979   -0.6742   -0.9895 H   0  0  0  0  0  0  0  0  0  0  0  0
   -1.6125   -0.7103    0.7453 H   0  0  0  0  0  0  0  0  0  0  0  0
    0.8780   -0.8388    0.3278 H   0  0  0  0  0  0  0  0  0  0  0  0
    0.5854   -0.7970   -1.4055 H   0  0  0  0  0  0  0  0  0  0  0  0
   -0.4959    1.4670   -1.1549 H   0  0  0  0  0  0  0  0  0  0  0  0
   -0.7766    2.4854    1.0717 H   0  0  0  0  0  0  0  0  0  0  0  0
   -0.0095    1.0662    1.8364 H   0  0  0  0  0  0  0  0  0  0  0  0
    2.4357    1.0991   -0.3862 H   0  0  0  0  0  0  0  0  0  0  0  0
    1.7253    2.5189   -1.2034 H   0  0  0  0  0  0  0  0  0  0  0  0
  1  2  3  0  0  0  0
  2  3  1  0  0  0  0
  3 10  1  0  0  0  0
  4  5  1  0  0  0  0
  4  3  1  0  0  0  0
  4 11  1  0  0  0  0
  5  6  1  0  0  0  0
  6 14  1  0  0  0  0
  6 15  1  0  0  0  0
  7  6  1  0  0  0  0
  8  5  1  0  0  0  0
  8 16  1  0  0  0  0
  8  7  1  0  0  0  0
  9  3  1  0  0  0  0
 12  4  1  0  0  0  0
 13  5  1  0  0  0  0
 17  8  1  0  0  0  0
M  END
