title
 OpenBabel02282110003D

 16 16  0  0  0  0  0  0  0  0999 V2000
   -2.4041   -2.7408    0.1634 O   0  0  0  0  0  0  0  0  0  0  0  0
   -2.0207   -1.8727    0.9149 C   0  0  0  0  0  0  0  0  0  0  0  0
   -0.9179   -0.9881    0.6512 C   0  0  0  0  0  0  0  0  0  0  0  0
    0.0063   -0.2298    0.4657 C   0  0  0  0  0  0  0  0  0  0  0  0
    1.0943    0.6837    0.2070 C   0  0  0  0  0  0  0  0  0  0  0  0
    1.7433    0.7294   -1.2152 C   0  0  0  0  0  0  0  0  0  0  0  0
    1.8396    2.2715   -1.0775 C   0  0  0  0  0  0  0  0  0  0  0  0
    0.7747    2.2101    0.0487 C   0  0  0  0  0  0  0  0  0  0  0  0
   -2.5162   -1.6987    1.8925 H   0  0  0  0  0  0  0  0  0  0  0  0
    1.8704    0.5492    0.9688 H   0  0  0  0  0  0  0  0  0  0  0  0
    2.6653    0.1620   -1.3543 H   0  0  0  0  0  0  0  0  0  0  0  0
    1.0225    0.4298   -1.9794 H   0  0  0  0  0  0  0  0  0  0  0  0
    2.8152    2.5856   -0.6959 H   0  0  0  0  0  0  0  0  0  0  0  0
    1.6018    2.8699   -1.9586 H   0  0  0  0  0  0  0  0  0  0  0  0
   -0.2371    2.3560   -0.3366 H   0  0  0  0  0  0  0  0  0  0  0  0
    0.9129    2.8355    0.9325 H   0  0  0  0  0  0  0  0  0  0  0  0
  1  2  2  0  0  0  0
  2  9  1  0  0  0  0
  3  2  1  0  0  0  0
  4  3  3  0  0  0  0
  5  4  1  0  0  0  0
  5 10  1  0  0  0  0
  6  7  1  0  0  0  0
  6  5  1  0  0  0  0
  7 13  1  0  0  0  0
  7  8  1  0  0  0  0
  8  5  1  0  0  0  0
  8 16  1  0  0  0  0
 11  6  1  0  0  0  0
 12  6  1  0  0  0  0
 14  7  1  0  0  0  0
 15  8  1  0  0  0  0
M  END
