18
title
N -1.3957684 -3.5137413 -0.33819282
C -1.3158678 -2.3741016 -0.16852528
C -1.2034875 -0.9332209 0.07585287
N 0.05119629 -0.40646154 -0.45003587
C 0.21401794 1.0154647 -0.23183012
C 0.4595067 1.6270875 1.1895994
C 1.4655297 2.6064095 0.52643275
C 1.5502663 1.6442798 -0.68973887
H -2.0350258 -0.43152112 -0.4351874
H -1.3537724 -0.76263124 1.1569458
H 0.8313913 -0.91434485 -0.043870468
H -0.6304855 1.5252305 -0.7119716
H -0.39005196 2.048953 1.7322257
H 0.9706618 0.9073221 1.8389536
H 0.9916503 3.555068 0.2601612
H 2.3902843 2.8210158 1.064946
H 2.3725786 0.92936724 -0.5762338
H 1.5957942 2.0673833 -1.6951863
