title
 OpenBabel02282110003D

 18 18  0  0  0  0  0  0  0  0999 V2000
   -1.2273   -3.5777    0.5206 N   0  0  0  0  0  0  0  0  0  0  0  0
   -1.1877   -2.4238    0.4720 C   0  0  0  0  0  0  0  0  0  0  0  0
   -1.1119   -0.9673    0.4102 C   0  0  0  0  0  0  0  0  0  0  0  0
    0.3339   -0.4596    0.2426 C   0  0  0  0  0  0  0  0  0  0  0  0
    0.3525    0.9829    0.1940 N   0  0  0  0  0  0  0  0  0  0  0  0
   -0.0776    1.6708   -1.0447 C   0  0  0  0  0  0  0  0  0  0  0  0
    1.0447    2.7108   -0.8151 C   0  0  0  0  0  0  0  0  0  0  0  0
    1.6634    1.6649    0.1430 C   0  0  0  0  0  0  0  0  0  0  0  0
   -1.7293   -0.6212   -0.4267 H   0  0  0  0  0  0  0  0  0  0  0  0
   -1.5423   -0.5402    1.3217 H   0  0  0  0  0  0  0  0  0  0  0  0
    0.9307   -0.7869    1.1008 H   0  0  0  0  0  0  0  0  0  0  0  0
    0.7795   -0.9230   -0.6585 H   0  0  0  0  0  0  0  0  0  0  0  0
    0.0956    1.0675   -1.9519 H   0  0  0  0  0  0  0  0  0  0  0  0
   -1.1148    2.0212   -1.0468 H   0  0  0  0  0  0  0  0  0  0  0  0
    1.6361    3.0049   -1.6819 H   0  0  0  0  0  0  0  0  0  0  0  0
    0.6917    3.6020   -0.2939 H   0  0  0  0  0  0  0  0  0  0  0  0
    2.0419    2.0033    1.1129 H   0  0  0  0  0  0  0  0  0  0  0  0
    2.4431    1.0634   -0.3522 H   0  0  0  0  0  0  0  0  0  0  0  0
  2  1  3  0  0  0  0
  3  2  1  0  0  0  0
  3 10  1  0  0  0  0
  4  3  1  0  0  0  0
  4 11  1  0  0  0  0
  5  4  1  0  0  0  0
  6  7  1  0  0  0  0
  6  5  1  0  0  0  0
  7 16  1  0  0  0  0
  7  8  1  0  0  0  0
  8  5  1  0  0  0  0
  8 17  1  0  0  0  0
  9  3  1  0  0  0  0
 12  4  1  0  0  0  0
 13  6  1  0  0  0  0
 14  6  1  0  0  0  0
 15  7  1  0  0  0  0
 18  8  1  0  0  0  0
M  END
