14
title
O -2.1528876 -2.9609282 0.5311123
C -2.1628466 -1.7534833 0.60311615
C -0.9961644 -0.91969615 0.47291014
C -0.039407574 -0.18847986 0.36825258
C 1.1255606 0.66520816 0.23473507
C 1.8226639 0.7091158 -1.1557678
C 1.517047 2.2181072 -1.0971222
O 0.81497186 2.0762787 0.15963955
H -3.1010096 -1.1891804 0.77913654
H 1.8147172 0.46004203 1.0656801
H 2.8744526 0.423785 -1.1510091
H 1.2958776 0.1591082 -1.9348347
H 2.3920627 2.8711262 -0.9996375
H 0.86391515 2.6086526 -1.8848462
