17
title
N -1.2044023 -3.6560574 -0.27209187
C -1.2171252 -2.5009062 -0.24653472
C -1.2086835 -1.0402442 -0.2192443
C 0.19958079 -0.4499052 -0.44032216
C 0.19270563 1.0727994 -0.40157723
C 0.035548214 1.7541785 0.98007476
O 1.3231997 2.3885217 0.86726665
C 1.5701563 1.7748013 -0.413103
H -1.8978746 -0.6742276 -0.98947656
H -1.6125417 -0.7103467 0.74532473
H 0.87801504 -0.8388115 0.32776934
H 0.5854088 -0.7970066 -1.4054936
H -0.4958548 1.46699 -1.1549419
H -0.7766233 2.4853606 1.0717436
H -0.009487746 1.0662112 1.8363881
H 2.435691 1.0990903 -0.38622788
H 1.7253191 2.5188508 -1.2033999
