15
title
O -1.0308857 -3.259855 0.93516594
C -0.55079985 -2.5098383 0.12698461
C 0.21121386 -1.2439883 0.49016806
N 0.27864662 -0.35632488 -0.6576324
C 0.2909197 0.88005596 -0.4693818
C 0.32628217 2.1043563 -1.3581522
C 0.27993658 2.8680105 -0.018449109
O 0.2663081 1.6007266 0.710885
H -0.61335814 -2.694183 -0.9685915
H -0.23375979 -0.79817504 1.3883278
H 1.2278539 -1.5653381 0.76758033
H 1.2414469 2.218896 -1.9411759
H -0.53911793 2.222115 -2.0119634
H 1.1646718 3.4540973 0.239453
H -0.6279838 3.4415488 0.18090324
