title
 OpenBabel02282110003D

 17 17  0  0  0  0  0  0  0  0999 V2000
   -1.9816   -2.8614    1.3493 O   0  0  0  0  0  0  0  0  0  0  0  0
   -1.7348   -1.6882    1.2581 C   0  0  0  0  0  0  0  0  0  0  0  0
   -0.3810   -1.1229    0.8575 C   0  0  0  0  0  0  0  0  0  0  0  0
   -0.5405    0.1347    0.1436 N   0  0  0  0  0  0  0  0  0  0  0  0
    0.6609    0.9187   -0.0080 C   0  0  0  0  0  0  0  0  0  0  0  0
    1.7503    0.5633   -1.0638 C   0  0  0  0  0  0  0  0  0  0  0  0
    1.6814    1.8905   -1.6207 O   0  0  0  0  0  0  0  0  0  0  0  0
    0.5309    2.2230   -0.8197 C   0  0  0  0  0  0  0  0  0  0  0  0
   -2.4930   -0.9020    1.4749 H   0  0  0  0  0  0  0  0  0  0  0  0
    0.1551   -0.9142    1.7960 H   0  0  0  0  0  0  0  0  0  0  0  0
    0.1883   -1.9064    0.3331 H   0  0  0  0  0  0  0  0  0  0  0  0
   -0.9646   -0.0286   -0.7650 H   0  0  0  0  0  0  0  0  0  0  0  0
    1.0912    1.0805    0.9848 H   0  0  0  0  0  0  0  0  0  0  0  0
    2.7556    0.3210   -0.7004 H   0  0  0  0  0  0  0  0  0  0  0  0
    1.4332   -0.2061   -1.7843 H   0  0  0  0  0  0  0  0  0  0  0  0
   -0.3917    2.2748   -1.4168 H   0  0  0  0  0  0  0  0  0  0  0  0
    0.6567    3.1678   -0.2800 H   0  0  0  0  0  0  0  0  0  0  0  0
  2  1  2  0  0  0  0
  2  9  1  0  0  0  0
  3  2  1  0  0  0  0
  3 10  1  0  0  0  0
  4  3  1  0  0  0  0
  5  4  1  0  0  0  0
  5 13  1  0  0  0  0
  6 14  1  0  0  0  0
  6  5  1  0  0  0  0
  7  6  1  0  0  0  0
  7  8  1  0  0  0  0
  8 17  1  0  0  0  0
  8  5  1  0  0  0  0
 11  3  1  0  0  0  0
 12  4  1  0  0  0  0
 15  6  1  0  0  0  0
 16  8  1  0  0  0  0
M  END
