title
 OpenBabel02282110003D

 15 15  0  0  0  0  0  0  0  0999 V2000
   -1.0309   -3.2599    0.9352 O   0  0  0  0  0  0  0  0  0  0  0  0
   -0.5508   -2.5098    0.1270 C   0  0  0  0  0  0  0  0  0  0  0  0
    0.2112   -1.2440    0.4902 C   0  0  0  0  0  0  0  0  0  0  0  0
    0.2786   -0.3563   -0.6576 N   0  0  0  0  0  0  0  0  0  0  0  0
    0.2909    0.8801   -0.4694 C   0  0  0  0  0  0  0  0  0  0  0  0
    0.3263    2.1044   -1.3582 C   0  0  0  0  0  0  0  0  0  0  0  0
    0.2799    2.8680   -0.0184 C   0  0  0  0  0  0  0  0  0  0  0  0
    0.2663    1.6007    0.7109 O   0  0  0  0  0  0  0  0  0  0  0  0
   -0.6134   -2.6942   -0.9686 H   0  0  0  0  0  0  0  0  0  0  0  0
   -0.2338   -0.7982    1.3883 H   0  0  0  0  0  0  0  0  0  0  0  0
    1.2279   -1.5653    0.7676 H   0  0  0  0  0  0  0  0  0  0  0  0
    1.2414    2.2189   -1.9412 H   0  0  0  0  0  0  0  0  0  0  0  0
   -0.5391    2.2221   -2.0120 H   0  0  0  0  0  0  0  0  0  0  0  0
    1.1647    3.4541    0.2395 H   0  0  0  0  0  0  0  0  0  0  0  0
   -0.6280    3.4415    0.1809 H   0  0  0  0  0  0  0  0  0  0  0  0
  2  3  1  0  0  0  0
  2  1  2  0  0  0  0
  3 11  1  0  0  0  0
  3 10  1  0  0  0  0
  4  5  2  0  0  0  0
  4  3  1  0  0  0  0
  5  8  1  0  0  0  0
  6  5  1  0  0  0  0
  6  7  1  0  0  0  0
  7 15  1  0  0  0  0
  7 14  1  0  0  0  0
  7  8  1  0  0  0  0
  9  2  1  0  0  0  0
 12  6  1  0  0  0  0
 13  6  1  0  0  0  0
M  END
