20
title
O -2.4774928 -2.0473945 1.9003893
C -1.8319631 -1.8002267 0.914628
C -0.5347491 -1.0276351 0.89232314
C -0.6146545 0.20284484 -0.030922608
C 0.718581 0.92633605 -0.1687438
C 1.8870654 0.23359941 -0.93033236
C 2.2508101 1.6126571 -1.5442625
C 0.8291922 2.111102 -1.1701826
H -2.1772468 -2.1367946 -0.092693165
H -0.2762538 -0.74619675 1.9174675
H 0.24671009 -1.7040201 0.5157401
H -0.95948356 -0.11008622 -1.0264364
H -1.3727161 0.8969765 0.35474905
H 1.0652702 1.2471042 0.8211798
H 2.6503344 -0.2838104 -0.34398958
H 1.5071173 -0.4565635 -1.6920687
H 3.0242977 2.1223288 -0.96277136
H 2.5376205 1.6385379 -2.5978394
H 0.1282529 1.9904957 -2.0031972
H 0.7255743 3.1246543 -0.775065
