16
title
O -1.7754359 -2.7828705 1.623588
C -1.6325963 -1.7025261 1.117939
C -0.27552667 -1.063897 0.87257236
O -0.48082247 0.15786263 0.20469034
C 0.6922484 0.896445 -0.008617161
C 1.5849346 0.5107495 -1.2146891
O 1.4314853 1.8270085 -1.7829059
C 0.4558967 2.1985009 -0.78701377
H -2.487432 -1.0719789 0.7888127
H 0.22642717 -0.9190243 1.8444898
H 0.34479365 -1.7630007 0.28932822
H 1.2472266 1.0192919 0.9315312
H 2.634328 0.27051184 -1.0107807
H 1.1419057 -0.27062562 -1.8469273
H -0.5598723 2.2637508 -1.196572
H 0.71352583 3.13645 -0.2839986
