title
 OpenBabel02282110003D

 18 18  0  0  0  0  0  0  0  0999 V2000
   -1.5207   -2.7154    1.9180 O   0  0  0  0  0  0  0  0  0  0  0  0
   -1.4667   -1.6527    1.3589 C   0  0  0  0  0  0  0  0  0  0  0  0
   -0.1732   -1.0159    0.8814 C   0  0  0  0  0  0  0  0  0  0  0  0
   -0.4918    0.1831    0.2222 O   0  0  0  0  0  0  0  0  0  0  0  0
    0.6292    0.9095   -0.2163 C   0  0  0  0  0  0  0  0  0  0  0  0
    1.4059    0.4230   -1.4733 C   0  0  0  0  0  0  0  0  0  0  0  0
    1.4691    1.9082   -1.9283 C   0  0  0  0  0  0  0  0  0  0  0  0
    0.2948    2.2166   -0.9579 C   0  0  0  0  0  0  0  0  0  0  0  0
   -2.3689   -1.0380    1.1455 H   0  0  0  0  0  0  0  0  0  0  0  0
    0.4774   -0.8443    1.7568 H   0  0  0  0  0  0  0  0  0  0  0  0
    0.3526   -1.7297    0.2268 H   0  0  0  0  0  0  0  0  0  0  0  0
    1.3174    1.0841    0.6259 H   0  0  0  0  0  0  0  0  0  0  0  0
    2.3448   -0.1167   -1.3314 H   0  0  0  0  0  0  0  0  0  0  0  0
    0.7441   -0.1642   -2.1170 H   0  0  0  0  0  0  0  0  0  0  0  0
    2.3977    2.3919   -1.6141 H   0  0  0  0  0  0  0  0  0  0  0  0
    1.3121    2.1149   -2.9881 H   0  0  0  0  0  0  0  0  0  0  0  0
   -0.6739    2.1180   -1.4555 H   0  0  0  0  0  0  0  0  0  0  0  0
    0.3127    3.1481   -0.3888 H   0  0  0  0  0  0  0  0  0  0  0  0
  2  1  2  0  0  0  0
  3  2  1  0  0  0  0
  3 10  1  0  0  0  0
  4  3  1  0  0  0  0
  5  4  1  0  0  0  0
  5 12  1  0  0  0  0
  6 13  1  0  0  0  0
  6  5  1  0  0  0  0
  7 15  1  0  0  0  0
  7  6  1  0  0  0  0
  7  8  1  0  0  0  0
  8 18  1  0  0  0  0
  8  5  1  0  0  0  0
  9  2  1  0  0  0  0
 11  3  1  0  0  0  0
 14  6  1  0  0  0  0
 16  7  1  0  0  0  0
 17  8  1  0  0  0  0
M  END
