17
title
N 1.2836163 2.9329913 0.04718427
C 1.072193 1.7092447 0.26923004
O 1.2674837 0.81052285 -0.72335774
C 0.96547496 -0.5479215 -0.4282114
C -0.51689327 -0.8498145 -0.54501575
C -0.96311057 -2.279909 -0.16999778
C -1.8279022 -1.5752202 0.89450395
O -1.2859806 -0.28224477 0.5437132
H 1.1041454 3.4703581 0.89292717
H 0.7332905 1.2571359 1.2079098
H 1.5187149 -1.1430758 -1.1621546
H 1.321347 -0.8180867 0.5755813
H -0.88589275 -0.4871312 -1.5128592
H -1.4986812 -2.831928 -0.942511
H -0.16503344 -2.908363 0.23261683
H -2.9096131 -1.620238 0.72009325
H -1.6258699 -1.8352438 1.9396728
