14
title
O -2.4341283 -2.7902787 0.04262563
C -2.265705 -1.731361 0.6024189
C -1.0666274 -0.93907017 0.5050103
C -0.07224543 -0.25414604 0.4459272
C 1.1153549 0.5594569 0.3491597
C 1.8108982 0.71442276 -1.0349425
O 1.8075932 2.1477783 -0.9143413
C 0.9669294 2.105724 0.25096828
H -3.0503385 -1.2875346 1.2485088
H 1.8260702 0.2699688 1.128498
H 2.8225713 0.30462462 -1.115729
H 1.2020143 0.36472756 -1.8771328
H -0.056438033 2.439172 0.039758347
H 1.3784455 2.6848662 1.0838066
