title
 OpenBabel02282110003D

 17 17  0  0  0  0  0  0  0  0999 V2000
    1.5996    3.1838    0.0705 N   0  0  0  0  0  0  0  0  0  0  0  0
    1.6286    1.9301    0.2090 C   0  0  0  0  0  0  0  0  0  0  0  0
    0.4781    1.2379    0.3205 O   0  0  0  0  0  0  0  0  0  0  0  0
    0.6000   -0.1720    0.5180 C   0  0  0  0  0  0  0  0  0  0  0  0
   -0.7941   -0.7609    0.4745 C   0  0  0  0  0  0  0  0  0  0  0  0
   -1.4434   -0.8148   -0.9250 C   0  0  0  0  0  0  0  0  0  0  0  0
   -1.3093   -2.2527   -0.9768 O   0  0  0  0  0  0  0  0  0  0  0  0
   -0.8439   -2.3020    0.3853 C   0  0  0  0  0  0  0  0  0  0  0  0
    2.5474    3.5469   -0.0060 H   0  0  0  0  0  0  0  0  0  0  0  0
    2.5274    1.2983    0.2485 H   0  0  0  0  0  0  0  0  0  0  0  0
    1.2243   -0.6126   -0.2725 H   0  0  0  0  0  0  0  0  0  0  0  0
    1.0780   -0.3774    1.4863 H   0  0  0  0  0  0  0  0  0  0  0  0
   -1.4097   -0.3118    1.2559 H   0  0  0  0  0  0  0  0  0  0  0  0
   -2.4932   -0.4996   -0.9611 H   0  0  0  0  0  0  0  0  0  0  0  0
   -0.8930   -0.3151   -1.7303 H   0  0  0  0  0  0  0  0  0  0  0  0
    0.1159   -2.8277    0.4765 H   0  0  0  0  0  0  0  0  0  0  0  0
   -1.5714   -2.7791    1.0542 H   0  0  0  0  0  0  0  0  0  0  0  0
  1  2  2  0  0  0  0
  2 10  1  0  0  0  0
  2  3  1  0  0  0  0
  3  4  1  0  0  0  0
  4 12  1  0  0  0  0
  5  4  1  0  0  0  0
  5 13  1  0  0  0  0
  6  5  1  0  0  0  0
  7  6  1  0  0  0  0
  7  8  1  0  0  0  0
  8  5  1  0  0  0  0
  8 16  1  0  0  0  0
  8 17  1  0  0  0  0
  9  1  1  0  0  0  0
 11  4  1  0  0  0  0
 14  6  1  0  0  0  0
 15  6  1  0  0  0  0
M  END
