18
title
O -1.9730108 -2.977185 0.90443116
C -1.7613629 -1.7948723 0.8214621
C -0.39882767 -1.1610599 0.6801637
C -0.30816352 -0.2644347 -0.5671807
C 0.98792243 0.529142 -0.59682363
C 1.0931213 1.7144922 -1.5828189
C 1.3049026 2.5647142 -0.3146059
O 1.1063404 1.418588 0.54136837
H -2.6032543 -1.0616063 0.84006387
H -0.22740483 -0.52702796 1.5611514
H 0.35817528 -1.9506357 0.66836214
H -0.37657917 -0.8713738 -1.4791063
H -1.1515937 0.43800032 -0.5804748
H 1.8464131 -0.1570443 -0.6357469
H 1.9272065 1.6815046 -2.2846456
H 0.17121875 1.9251312 -2.129175
H 2.3107908 2.9870303 -0.19928306
H 0.5671129 3.352236 -0.1228016
