18
title
C 0.99772197 3.7362719 -0.15839401
C 1.0196754 2.2806222 -0.15808177
C 1.0392402 1.0770681 -0.14960162
C 1.0337744 -0.38086277 -0.15275785
C -0.34101012 -0.97821933 -0.45872113
C -0.49308494 -2.5098 -0.3265932
C -1.5988542 -2.1628227 0.6895075
O -1.2980727 -0.75486475 0.60107654
H 1.405233 4.143779 -1.09039
H -0.023811596 4.117187 -0.04933347
H 1.5912545 4.1435876 0.6677411
H 1.7410549 -0.76042324 -0.90422285
H 1.3693519 -0.7663029 0.818749
H -0.71259356 -0.5718785 -1.409011
H -0.8047396 -3.0451336 -1.2243177
H 0.3795447 -3.0063353 0.104318514
H -2.6202562 -2.3836832 0.35343152
H -1.4717828 -2.5470748 1.7081748
