17
title
O -2.689738 -1.4552766 0.8668864
C -2.5540357 -0.42525056 0.24006791
N -1.3948172 0.004646025 -0.3233159
C -0.13481028 -0.7019651 -0.19580385
C 0.9299173 0.21886583 0.37860522
C 2.4065723 -0.18148737 0.17664847
C 2.4962568 1.1091794 -0.6628459
O 1.0952431 1.3978211 -0.4526724
H -3.3853717 0.28348574 0.05523378
H -1.3737018 0.8971208 -0.7924659
H -0.3083282 -1.5609363 0.45768896
H 0.1947004 -1.0735476 -1.1755362
H 0.6606583 0.5065072 1.4029725
H 3.0159917 -0.203463 1.080282
H 2.5541463 -1.1097631 -0.37927905
H 3.1374183 1.8972038 -0.25057867
H 2.7327971 0.9802926 -1.725389
