title
 OpenBabel02282110003D

 18 18  0  0  1  0  0  0  0  0999 V2000
    0.9977    3.7363   -0.1584 C   0  0  0  0  0  0  0  0  0  0  0  0
    1.0197    2.2806   -0.1581 C   0  0  0  0  0  0  0  0  0  0  0  0
    1.0392    1.0771   -0.1496 C   0  0  0  0  0  0  0  0  0  0  0  0
    1.0338   -0.3809   -0.1528 C   0  0  0  0  0  0  0  0  0  0  0  0
   -0.3410   -0.9782   -0.4587 C   0  0  1  0  0  0  0  0  0  0  0  0
   -0.4931   -2.5098   -0.3266 C   0  0  0  0  0  0  0  0  0  0  0  0
   -1.5989   -2.1628    0.6895 C   0  0  0  0  0  0  0  0  0  0  0  0
   -1.2981   -0.7549    0.6011 O   0  0  0  0  0  0  0  0  0  0  0  0
    1.4052    4.1438   -1.0904 H   0  0  0  0  0  0  0  0  0  0  0  0
   -0.0238    4.1172   -0.0493 H   0  0  0  0  0  0  0  0  0  0  0  0
    1.5913    4.1436    0.6677 H   0  0  0  0  0  0  0  0  0  0  0  0
    1.7411   -0.7604   -0.9042 H   0  0  0  0  0  0  0  0  0  0  0  0
    1.3694   -0.7663    0.8187 H   0  0  0  0  0  0  0  0  0  0  0  0
   -0.7126   -0.5719   -1.4090 H   0  0  0  0  0  0  0  0  0  0  0  0
   -0.8047   -3.0451   -1.2243 H   0  0  0  0  0  0  0  0  0  0  0  0
    0.3795   -3.0063    0.1043 H   0  0  0  0  0  0  0  0  0  0  0  0
   -2.6203   -2.3837    0.3534 H   0  0  0  0  0  0  0  0  0  0  0  0
   -1.4718   -2.5471    1.7082 H   0  0  0  0  0  0  0  0  0  0  0  0
  1  2  1  0  0  0  0
  1 10  1  0  0  0  0
  1 11  1  0  0  0  0
  2  3  3  0  0  0  0
  4  3  1  0  0  0  0
  4 13  1  0  0  0  0
  5 14  1  6  0  0  0
  5  6  1  0  0  0  0
  5  4  1  0  0  0  0
  5  8  1  0  0  0  0
  6 16  1  0  0  0  0
  6  7  1  0  0  0  0
  7 18  1  0  0  0  0
  8  7  1  0  0  0  0
  9  1  1  0  0  0  0
 12  4  1  0  0  0  0
 15  6  1  0  0  0  0
 17  7  1  0  0  0  0
M  END
