16
title
O -1.532485 -2.9484205 -0.28689787
C -1.4382584 -1.7649413 -0.16965476
O -0.6361047 -1.1845337 0.74446744
C -0.58557343 0.24593756 0.8036762
C 0.8331258 0.7225127 0.55385154
C 1.3012211 0.68142223 -0.91705215
O 1.221981 2.118477 -1.0250385
C 0.9681237 2.253166 0.38675874
H -1.9894446 -1.0269005 -0.7855425
H -1.2734092 0.67960644 0.064886294
H -0.92621946 0.54290533 1.8015571
H 1.5108936 0.2620041 1.2746243
H 2.3242702 0.31421253 -1.0642369
H 0.6383567 0.17559597 -1.6301295
H 0.06988037 2.8501818 0.59114873
H 1.8175602 2.699355 0.91906726
