title
 OpenBabel02282110003D

 16 16  0  0  1  0  0  0  0  0999 V2000
   -1.1869   -2.8633    0.3293 O   0  0  0  0  0  0  0  0  0  0  0  0
   -1.0821   -1.6766    0.3936 C   0  0  0  0  0  0  0  0  0  0  0  0
   -1.1620   -0.8860   -0.7014 O   0  0  0  0  0  0  0  0  0  0  0  0
   -0.9514    0.5148   -0.5151 C   0  0  0  0  0  0  0  0  0  0  0  0
    0.5204    0.8616   -0.6308 C   0  0  1  0  0  0  0  0  0  0  0  0
    0.9224    2.3096   -0.2748 C   0  0  0  0  0  0  0  0  0  0  0  0
    1.7571    1.6483    0.8413 C   0  0  0  0  0  0  0  0  0  0  0  0
    1.2818    0.3314    0.4781 O   0  0  0  0  0  0  0  0  0  0  0  0
   -0.9248   -1.1046    1.3252 H   0  0  0  0  0  0  0  0  0  0  0  0
   -1.5257    1.0183   -1.2988 H   0  0  0  0  0  0  0  0  0  0  0  0
   -1.3364    0.8354    0.4617 H   0  0  0  0  0  0  0  0  0  0  0  0
    0.9092    0.4893   -1.5870 H   0  0  0  0  0  0  0  0  0  0  0  0
    1.4834    2.8465   -1.0397 H   0  0  0  0  0  0  0  0  0  0  0  0
    0.0996    2.9379    0.0741 H   0  0  0  0  0  0  0  0  0  0  0  0
    2.8439    1.7304    0.7250 H   0  0  0  0  0  0  0  0  0  0  0  0
    1.4888    1.9114    1.8706 H   0  0  0  0  0  0  0  0  0  0  0  0
  1  2  2  0  0  0  0
  2  9  1  0  0  0  0
  3  4  1  0  0  0  0
  3  2  1  0  0  0  0
  4 11  1  0  0  0  0
  5 12  1  6  0  0  0
  5  4  1  0  0  0  0
  5  6  1  0  0  0  0
  5  8  1  0  0  0  0
  6 14  1  0  0  0  0
  6  7  1  0  0  0  0
  7 16  1  0  0  0  0
  8  7  1  0  0  0  0
 10  4  1  0  0  0  0
 13  6  1  0  0  0  0
 15  7  1  0  0  0  0
M  END
