title
 OpenBabel02282110003D

 18 18  0  0  0  0  0  0  0  0999 V2000
    0.9628    3.7767    0.1410 C   0  0  0  0  0  0  0  0  0  0  0  0
    0.9782    2.3230    0.2235 C   0  0  0  0  0  0  0  0  0  0  0  0
    1.0044    1.1209    0.2916 C   0  0  0  0  0  0  0  0  0  0  0  0
    0.9932   -0.3362    0.3737 C   0  0  0  0  0  0  0  0  0  0  0  0
   -0.4232   -0.9104    0.5004 C   0  0  0  0  0  0  0  0  0  0  0  0
   -1.3055   -0.8340   -0.7646 C   0  0  0  0  0  0  0  0  0  0  0  0
   -1.3160   -2.2716   -0.8998 O   0  0  0  0  0  0  0  0  0  0  0  0
   -0.5533   -2.4381    0.3114 C   0  0  0  0  0  0  0  0  0  0  0  0
    1.5773    4.2272    0.9284 H   0  0  0  0  0  0  0  0  0  0  0  0
    1.3513    4.1260   -0.8221 H   0  0  0  0  0  0  0  0  0  0  0  0
   -0.0536    4.1712    0.2496 H   0  0  0  0  0  0  0  0  0  0  0  0
    1.4729   -0.7632   -0.5179 H   0  0  0  0  0  0  0  0  0  0  0  0
    1.5954   -0.6679    1.2305 H   0  0  0  0  0  0  0  0  0  0  0  0
   -0.9003   -0.5227    1.4026 H   0  0  0  0  0  0  0  0  0  0  0  0
   -2.3145   -0.4297   -0.6171 H   0  0  0  0  0  0  0  0  0  0  0  0
   -0.8478   -0.3389   -1.6303 H   0  0  0  0  0  0  0  0  0  0  0  0
    0.3878   -2.9772    0.1364 H   0  0  0  0  0  0  0  0  0  0  0  0
   -1.1229   -2.9655    1.0872 H   0  0  0  0  0  0  0  0  0  0  0  0
  1  2  1  0  0  0  0
  1 11  1  0  0  0  0
  1  9  1  0  0  0  0
  2  3  3  0  0  0  0
  3  4  1  0  0  0  0
  4  5  1  0  0  0  0
  4 13  1  0  0  0  0
  5 14  1  0  0  0  0
  6 15  1  0  0  0  0
  6  5  1  0  0  0  0
  7  6  1  0  0  0  0
  7  8  1  0  0  0  0
  8  5  1  0  0  0  0
  8 18  1  0  0  0  0
 10  1  1  0  0  0  0
 12  4  1  0  0  0  0
 16  6  1  0  0  0  0
 17  8  1  0  0  0  0
M  END
