16
title
O -1.1868634 -2.8633268 0.32932335
C -1.082138 -1.6765656 0.39356488
O -1.1619885 -0.8860289 -0.70136976
C -0.95137465 0.51482236 -0.5151256
C 0.5204226 0.86161053 -0.6308293
C 0.9224113 2.309597 -0.27478808
C 1.7570695 1.6483234 0.8412736
O 1.2817923 0.33141673 0.47814918
H -0.9247819 -1.1046175 1.3251731
H -1.5256665 1.0183376 -1.2987964
H -1.3363992 0.835379 0.4617095
H 0.9092411 0.48925102 -1.5869553
H 1.4833683 2.846541 -1.0397059
H 0.09960639 2.9379387 0.07410531
H 2.8438606 1.7303976 0.72498673
H 1.4888345 1.9113802 1.8705939
