title
 OpenBabel02282110003D

 19 19  0  0  0  0  0  0  0  0999 V2000
    1.5463    3.0802    0.4120 C   0  0  0  0  0  0  0  0  0  0  0  0
    1.0406    2.1763   -0.5611 O   0  0  0  0  0  0  0  0  0  0  0  0
    0.3372    1.1318   -0.0733 C   0  0  0  0  0  0  0  0  0  0  0  0
   -0.1080    0.2483   -0.8484 N   0  0  0  0  0  0  0  0  0  0  0  0
   -0.8725   -0.8462   -0.3114 C   0  0  0  0  0  0  0  0  0  0  0  0
   -0.3984   -2.2817   -0.6625 C   0  0  0  0  0  0  0  0  0  0  0  0
   -0.9409   -2.7409    0.7169 C   0  0  0  0  0  0  0  0  0  0  0  0
   -0.8762   -1.2654    1.1947 C   0  0  0  0  0  0  0  0  0  0  0  0
    2.0369    3.8834   -0.1391 H   0  0  0  0  0  0  0  0  0  0  0  0
    0.7418    3.5066    1.0243 H   0  0  0  0  0  0  0  0  0  0  0  0
    2.2803    2.5969    1.0688 H   0  0  0  0  0  0  0  0  0  0  0  0
    0.2028    1.1503    1.0178 H   0  0  0  0  0  0  0  0  0  0  0  0
   -1.9089   -0.7275   -0.6532 H   0  0  0  0  0  0  0  0  0  0  0  0
   -0.7978   -2.7457   -1.5668 H   0  0  0  0  0  0  0  0  0  0  0  0
    0.6944   -2.3187   -0.6960 H   0  0  0  0  0  0  0  0  0  0  0  0
   -1.9721   -3.0991    0.6503 H   0  0  0  0  0  0  0  0  0  0  0  0
   -0.3540   -3.4755    1.2719 H   0  0  0  0  0  0  0  0  0  0  0  0
    0.0884   -1.0534    1.6676 H   0  0  0  0  0  0  0  0  0  0  0  0
   -1.6754   -0.8898    1.8386 H   0  0  0  0  0  0  0  0  0  0  0  0
  1 10  1  0  0  0  0
  1 11  1  0  0  0  0
  2  3  1  0  0  0  0
  2  1  1  0  0  0  0
  3 12  1  0  0  0  0
  4  5  1  0  0  0  0
  4  3  2  0  0  0  0
  5  8  1  0  0  0  0
  6  5  1  0  0  0  0
  6  7  1  0  0  0  0
  7  8  1  0  0  0  0
  7 17  1  0  0  0  0
  8 18  1  0  0  0  0
  8 19  1  0  0  0  0
  9  1  1  0  0  0  0
 13  5  1  0  0  0  0
 14  6  1  0  0  0  0
 15  6  1  0  0  0  0
 16  7  1  0  0  0  0
M  END
