title
 OpenBabel02282110003D

 20 20  0  0  0  0  0  0  0  0999 V2000
   -2.0854    2.7071    1.7513 C   0  0  0  0  0  0  0  0  0  0  0  0
   -1.6145    1.2728    2.0545 C   0  0  0  0  0  0  0  0  0  0  0  0
   -0.8499    0.6771    0.9633 C   0  0  0  0  0  0  0  0  0  0  0  0
   -0.2235    0.2108    0.0442 C   0  0  0  0  0  0  0  0  0  0  0  0
    0.5413   -0.3807   -1.0347 C   0  0  0  0  0  0  0  0  0  0  0  0
    2.0595   -0.6932   -0.8198 C   0  0  0  0  0  0  0  0  0  0  0  0
    1.8678   -1.9958   -1.6397 C   0  0  0  0  0  0  0  0  0  0  0  0
    0.3423   -1.8944   -1.3784 C   0  0  0  0  0  0  0  0  0  0  0  0
   -1.2317    3.3642    1.5644 H   0  0  0  0  0  0  0  0  0  0  0  0
   -2.7246    2.7261    0.8644 H   0  0  0  0  0  0  0  0  0  0  0  0
   -2.6535    3.1104    2.5952 H   0  0  0  0  0  0  0  0  0  0  0  0
   -1.0068    1.2743    2.9690 H   0  0  0  0  0  0  0  0  0  0  0  0
   -2.4856    0.6425    2.2767 H   0  0  0  0  0  0  0  0  0  0  0  0
    0.4226    0.2139   -1.9481 H   0  0  0  0  0  0  0  0  0  0  0  0
    2.7767    0.0476   -1.1801 H   0  0  0  0  0  0  0  0  0  0  0  0
    2.2636   -0.9013    0.2335 H   0  0  0  0  0  0  0  0  0  0  0  0
    2.1088   -1.8484   -2.6966 H   0  0  0  0  0  0  0  0  0  0  0  0
    2.3817   -2.8933   -1.2896 H   0  0  0  0  0  0  0  0  0  0  0  0
    0.0436   -2.4540   -0.4885 H   0  0  0  0  0  0  0  0  0  0  0  0
   -0.3425   -2.1346   -2.1946 H   0  0  0  0  0  0  0  0  0  0  0  0
  1  2  1  0  0  0  0
  1 11  1  0  0  0  0
  2 13  1  0  0  0  0
  2 12  1  0  0  0  0
  3  2  1  0  0  0  0
  4  3  3  0  0  0  0
  5  6  1  0  0  0  0
  5  4  1  0  0  0  0
  6 16  1  0  0  0  0
  7  8  1  0  0  0  0
  7 18  1  0  0  0  0
  7  6  1  0  0  0  0
  8  5  1  0  0  0  0
  8 19  1  0  0  0  0
  9  1  1  0  0  0  0
 10  1  1  0  0  0  0
 14  5  1  0  0  0  0
 15  6  1  0  0  0  0
 17  7  1  0  0  0  0
 20  8  1  0  0  0  0
M  END
