title
 OpenBabel02282110003D

 18 18  0  0  1  0  0  0  0  0999 V2000
   -2.2848    2.4518    1.8213 C   0  0  0  0  0  0  0  0  0  0  0  0
   -1.3484    1.2848    2.1839 C   0  0  0  0  0  0  0  0  0  0  0  0
   -0.6333    0.7413    1.0347 C   0  0  0  0  0  0  0  0  0  0  0  0
   -0.0589    0.3040    0.0695 C   0  0  0  0  0  0  0  0  0  0  0  0
    0.6464   -0.2212   -1.0849 C   0  0  1  0  0  0  0  0  0  0  0  0
    2.0693   -0.8086   -0.8662 C   0  0  0  0  0  0  0  0  0  0  0  0
    1.4776   -2.0942   -1.4724 C   0  0  0  0  0  0  0  0  0  0  0  0
    0.1576   -1.5145   -1.5384 O   0  0  0  0  0  0  0  0  0  0  0  0
   -1.7219    3.2795    1.3814 H   0  0  0  0  0  0  0  0  0  0  0  0
   -3.0381    2.1333    1.0959 H   0  0  0  0  0  0  0  0  0  0  0  0
   -2.7985    2.8201    2.7143 H   0  0  0  0  0  0  0  0  0  0  0  0
   -0.6231    1.6153    2.9387 H   0  0  0  0  0  0  0  0  0  0  0  0
   -1.9276    0.4816    2.6575 H   0  0  0  0  0  0  0  0  0  0  0  0
    0.6047    0.5058   -1.9080 H   0  0  0  0  0  0  0  0  0  0  0  0
    2.8685   -0.3246   -1.4286 H   0  0  0  0  0  0  0  0  0  0  0  0
    2.3522   -0.8855    0.1835 H   0  0  0  0  0  0  0  0  0  0  0  0
    1.8568   -2.3576   -2.4681 H   0  0  0  0  0  0  0  0  0  0  0  0
    1.5000   -2.9869   -0.8371 H   0  0  0  0  0  0  0  0  0  0  0  0
  1  2  1  0  0  0  0
  1 11  1  0  0  0  0
  2 13  1  0  0  0  0
  2 12  1  0  0  0  0
  3  2  1  0  0  0  0
  4  3  3  0  0  0  0
  5 14  1  6  0  0  0
  5  6  1  0  0  0  0
  5  4  1  0  0  0  0
  6 16  1  0  0  0  0
  7  6  1  0  0  0  0
  7 18  1  0  0  0  0
  8  7  1  0  0  0  0
  8  5  1  0  0  0  0
  9  1  1  0  0  0  0
 10  1  1  0  0  0  0
 15  6  1  0  0  0  0
 17  7  1  0  0  0  0
M  END
