title
 OpenBabel02282110003D

 18 18  0  0  0  0  0  0  0  0999 V2000
   -2.1202    2.5657    1.9890 C   0  0  0  0  0  0  0  0  0  0  0  0
   -1.3735    1.2453    2.2521 C   0  0  0  0  0  0  0  0  0  0  0  0
   -0.7056    0.7169    1.0669 C   0  0  0  0  0  0  0  0  0  0  0  0
   -0.1625    0.3031    0.0734 C   0  0  0  0  0  0  0  0  0  0  0  0
    0.5008   -0.2217   -1.1007 C   0  0  0  0  0  0  0  0  0  0  0  0
    1.9528   -0.7641   -0.9678 C   0  0  0  0  0  0  0  0  0  0  0  0
    1.5941   -1.9973   -1.6177 O   0  0  0  0  0  0  0  0  0  0  0  0
    0.1922   -1.6766   -1.5566 C   0  0  0  0  0  0  0  0  0  0  0  0
   -1.4304    3.3395    1.6410 H   0  0  0  0  0  0  0  0  0  0  0  0
   -2.8893    2.4313    1.2236 H   0  0  0  0  0  0  0  0  0  0  0  0
   -2.6028    2.9201    2.9047 H   0  0  0  0  0  0  0  0  0  0  0  0
   -0.6333    1.3954    3.0487 H   0  0  0  0  0  0  0  0  0  0  0  0
   -2.0780    0.4962    2.6362 H   0  0  0  0  0  0  0  0  0  0  0  0
    0.4175    0.4786   -1.9371 H   0  0  0  0  0  0  0  0  0  0  0  0
    2.7320   -0.2193   -1.5116 H   0  0  0  0  0  0  0  0  0  0  0  0
    2.2685   -0.9188    0.0715 H   0  0  0  0  0  0  0  0  0  0  0  0
   -0.3372   -2.2698   -0.8005 H   0  0  0  0  0  0  0  0  0  0  0  0
   -0.3026   -1.7922   -2.5269 H   0  0  0  0  0  0  0  0  0  0  0  0
  1  2  1  0  0  0  0
  1 11  1  0  0  0  0
  2 13  1  0  0  0  0
  2 12  1  0  0  0  0
  3  2  1  0  0  0  0
  4  3  3  0  0  0  0
  5  6  1  0  0  0  0
  5  4  1  0  0  0  0
  6 16  1  0  0  0  0
  7  8  1  0  0  0  0
  7  6  1  0  0  0  0
  8  5  1  0  0  0  0
  8 17  1  0  0  0  0
  9  1  1  0  0  0  0
 10  1  1  0  0  0  0
 14  5  1  0  0  0  0
 15  6  1  0  0  0  0
 18  8  1  0  0  0  0
M  END
