16
title
O 2.7580185 2.0660338 -0.27482203
C 2.334649 1.3997518 0.9062339
C 1.0861666 0.65585303 0.74978703
C 0.042179186 0.07172146 0.59973055
C -1.2134854 -0.6355369 0.4267552
C -2.1563313 -0.16596816 -0.71720946
C -2.0221703 -1.6127027 -1.2280458
O -1.0758878 -1.9435889 -0.18895824
H 2.019007 2.5988114 -0.5861746
H 3.1462169 0.7113511 1.1670978
H 2.233306 2.1020987 1.7493362
H -1.7213484 -0.72474957 1.3969699
H -3.1508 0.15037425 -0.4013299
H -1.7175294 0.5924538 -1.3652557
H -2.9329307 -2.2201498 -1.1571566
H -1.5894965 -1.7352527 -2.227203
