19
title
C 0.22419988 3.3684268 1.5400704
C 0.17012405 2.4450579 0.3209918
C 0.6423121 1.022739 0.6394158
N 0.6534457 0.20510708 -0.5700566
C 0.077323206 -0.90257454 -0.5728137
C -0.14170855 -1.9973166 -1.5968206
C -0.90759784 -2.6868532 -0.44967026
O -0.61566323 -1.565351 0.43575007
H -0.4092241 2.9948878 2.352543
H 1.2448972 3.4519732 1.9303288
H -0.11849937 4.3769617 1.2894478
H -0.853827 2.3987548 -0.0696401
H 0.7907576 2.844829 -0.489011
H 1.671435 1.0674772 1.0215358
H 0.021582687 0.58984077 1.4360305
H -0.7353631 -1.7024927 -2.4636464
H 0.76816726 -2.4974248 -1.9328177
H -1.9850165 -2.8053467 -0.5897755
H -0.4736429 -3.6126974 -0.063921034
