title
 OpenBabel02282110003D

 16 16  0  0  0  0  0  0  0  0999 V2000
    2.6183    2.4287    0.9528 O   0  0  0  0  0  0  0  0  0  0  0  0
    2.5658    1.2611    0.1417 C   0  0  0  0  0  0  0  0  0  0  0  0
    1.2144    0.7166    0.1518 C   0  0  0  0  0  0  0  0  0  0  0  0
    0.1020    0.2549    0.1505 C   0  0  0  0  0  0  0  0  0  0  0  0
   -1.2301   -0.3077    0.1422 C   0  0  0  0  0  0  0  0  0  0  0  0
   -1.8933   -0.6635   -1.2192 C   0  0  0  0  0  0  0  0  0  0  0  0
   -2.2115   -1.9903   -0.7614 O   0  0  0  0  0  0  0  0  0  0  0  0
   -1.4124   -1.8266    0.4242 C   0  0  0  0  0  0  0  0  0  0  0  0
    3.5222    2.7585    0.9216 H   0  0  0  0  0  0  0  0  0  0  0  0
    2.8547    1.4849   -0.8985 H   0  0  0  0  0  0  0  0  0  0  0  0
    3.2657    0.4910    0.5057 H   0  0  0  0  0  0  0  0  0  0  0  0
   -1.8982    0.2947    0.7641 H   0  0  0  0  0  0  0  0  0  0  0  0
   -2.7869   -0.0922   -1.4919 H   0  0  0  0  0  0  0  0  0  0  0  0
   -1.1905   -0.6717   -2.0616 H   0  0  0  0  0  0  0  0  0  0  0  0
   -0.4768   -2.3977    0.3771 H   0  0  0  0  0  0  0  0  0  0  0  0
   -1.9597   -2.0927    1.3346 H   0  0  0  0  0  0  0  0  0  0  0  0
  2  3  1  0  0  0  0
  2 11  1  0  0  0  0
  2  1  1  0  0  0  0
  4  3  3  0  0  0  0
  5  4  1  0  0  0  0
  5  8  1  0  0  0  0
  5 12  1  0  0  0  0
  6  7  1  0  0  0  0
  6  5  1  0  0  0  0
  7  8  1  0  0  0  0
  8 16  1  0  0  0  0
  9  1  1  0  0  0  0
 10  2  1  0  0  0  0
 13  6  1  0  0  0  0
 14  6  1  0  0  0  0
 15  8  1  0  0  0  0
M  END
