20
title
C -2.0854073 2.70705 1.7513233
C -1.6144838 1.2728006 2.0545495
C -0.8499283 0.67711705 0.9632848
C -0.22346683 0.21079583 0.04421504
C 0.5412902 -0.38068533 -1.034713
C 2.0594754 -0.6931642 -0.8197728
C 1.8678306 -1.9958268 -1.6397223
C 0.34227255 -1.8943759 -1.3783796
H -1.2317258 3.3642368 1.5643985
H -2.724638 2.726052 0.86441404
H -2.653466 3.1104176 2.5951912
H -1.0068005 1.2743475 2.968991
H -2.4856308 0.6424609 2.2766638
H 0.4225947 0.2138998 -1.9481366
H 2.7767267 0.04756458 -1.1801152
H 2.2636185 -0.90129054 0.23349078
H 2.1087625 -1.8484367 -2.6966035
H 2.3816772 -2.8933396 -1.2895827
H 0.043606322 -2.45397 -0.48847297
H -0.34254786 -2.1345975 -2.1946476
