title
 OpenBabel02282110003D

 16 16  0  0  1  0  0  0  0  0999 V2000
    2.7580    2.0660   -0.2748 O   0  0  0  0  0  0  0  0  0  0  0  0
    2.3346    1.3998    0.9062 C   0  0  0  0  0  0  0  0  0  0  0  0
    1.0862    0.6559    0.7498 C   0  0  0  0  0  0  0  0  0  0  0  0
    0.0422    0.0717    0.5997 C   0  0  0  0  0  0  0  0  0  0  0  0
   -1.2135   -0.6355    0.4268 C   0  0  1  0  0  0  0  0  0  0  0  0
   -2.1563   -0.1660   -0.7172 C   0  0  0  0  0  0  0  0  0  0  0  0
   -2.0222   -1.6127   -1.2280 C   0  0  0  0  0  0  0  0  0  0  0  0
   -1.0759   -1.9436   -0.1890 O   0  0  0  0  0  0  0  0  0  0  0  0
    2.0190    2.5988   -0.5862 H   0  0  0  0  0  0  0  0  0  0  0  0
    3.1462    0.7114    1.1671 H   0  0  0  0  0  0  0  0  0  0  0  0
    2.2333    2.1021    1.7493 H   0  0  0  0  0  0  0  0  0  0  0  0
   -1.7213   -0.7247    1.3970 H   0  0  0  0  0  0  0  0  0  0  0  0
   -3.1508    0.1504   -0.4013 H   0  0  0  0  0  0  0  0  0  0  0  0
   -1.7175    0.5925   -1.3653 H   0  0  0  0  0  0  0  0  0  0  0  0
   -2.9329   -2.2201   -1.1572 H   0  0  0  0  0  0  0  0  0  0  0  0
   -1.5895   -1.7353   -2.2272 H   0  0  0  0  0  0  0  0  0  0  0  0
  1  2  1  0  0  0  0
  2 10  1  0  0  0  0
  2 11  1  0  0  0  0
  3  2  1  0  0  0  0
  4  3  3  0  0  0  0
  5  4  1  0  0  0  0
  5 12  1  1  0  0  0
  6 13  1  0  0  0  0
  6  5  1  0  0  0  0
  7 15  1  0  0  0  0
  7  6  1  0  0  0  0
  7  8  1  0  0  0  0
  8  5  1  0  0  0  0
  9  1  1  0  0  0  0
 14  6  1  0  0  0  0
 16  7  1  0  0  0  0
M  END
