title
 OpenBabel02282110003D

 20 20  0  0  0  0  0  0  0  0999 V2000
   -1.1140    3.0490    1.6749 C   0  0  0  0  0  0  0  0  0  0  0  0
   -1.2575    1.5382    1.6059 C   0  0  0  0  0  0  0  0  0  0  0  0
   -0.6204    1.0774    0.4309 O   0  0  0  0  0  0  0  0  0  0  0  0
   -0.6909   -0.3205    0.2643 C   0  0  0  0  0  0  0  0  0  0  0  0
    0.0533   -0.6861   -1.0045 C   0  0  0  0  0  0  0  0  0  0  0  0
    1.5910   -0.5793   -0.9258 C   0  0  0  0  0  0  0  0  0  0  0  0
    1.7390   -2.0145   -1.0054 O   0  0  0  0  0  0  0  0  0  0  0  0
    0.3228   -2.1933   -1.2037 C   0  0  0  0  0  0  0  0  0  0  0  0
   -0.0581    3.3332    1.6978 H   0  0  0  0  0  0  0  0  0  0  0  0
   -1.5761    3.5186    0.8020 H   0  0  0  0  0  0  0  0  0  0  0  0
   -1.5982    3.4373    2.5759 H   0  0  0  0  0  0  0  0  0  0  0  0
   -0.8048    1.0647    2.4937 H   0  0  0  0  0  0  0  0  0  0  0  0
   -2.3226    1.2500    1.5974 H   0  0  0  0  0  0  0  0  0  0  0  0
   -0.2378   -0.8379    1.1287 H   0  0  0  0  0  0  0  0  0  0  0  0
   -1.7420   -0.6540    0.2029 H   0  0  0  0  0  0  0  0  0  0  0  0
   -0.3988   -0.1756   -1.8572 H   0  0  0  0  0  0  0  0  0  0  0  0
    2.0714   -0.0717   -1.7714 H   0  0  0  0  0  0  0  0  0  0  0  0
    1.9906   -0.1707    0.0098 H   0  0  0  0  0  0  0  0  0  0  0  0
   -0.1179   -2.8649   -0.4545 H   0  0  0  0  0  0  0  0  0  0  0  0
    0.0923   -2.5823   -2.2038 H   0  0  0  0  0  0  0  0  0  0  0  0
  1  9  1  0  0  0  0
  1 11  1  0  0  0  0
  2  1  1  0  0  0  0
  2 12  1  0  0  0  0
  3  2  1  0  0  0  0
  4  3  1  0  0  0  0
  4 14  1  0  0  0  0
  5  6  1  0  0  0  0
  5  4  1  0  0  0  0
  6 18  1  0  0  0  0
  7  6  1  0  0  0  0
  8  7  1  0  0  0  0
  8  5  1  0  0  0  0
  8 19  1  0  0  0  0
 10  1  1  0  0  0  0
 13  2  1  0  0  0  0
 15  4  1  0  0  0  0
 16  5  1  0  0  0  0
 17  6  1  0  0  0  0
 20  8  1  0  0  0  0
M  END
