22
title
C -1.2263417 3.3296695 1.7524437
C -1.2979525 1.8052933 1.630029
C -0.572181 1.2646965 0.39331266
C -0.643254 -0.26108748 0.26138577
C 0.09075959 -0.7963887 -0.9618843
C 1.6379981 -0.80725056 -0.92494565
O 1.681642 -2.2367141 -1.1059918
C 0.24275751 -2.3290894 -1.093193
H -0.18806653 3.6733477 1.8200094
H -1.6788173 3.8186247 0.88244855
H -1.7524083 3.68456 2.6441517
H -0.8701285 1.3441974 2.5300734
H -2.3489122 1.4883661 1.5988247
H -0.997385 1.726829 -0.50873786
H 0.4802578 1.5801398 0.4256712
H -0.22517686 -0.72802097 1.1643752
H -1.695575 -0.5743385 0.21565278
H -0.30510652 -0.3324359 -1.8704221
H 2.1534538 -0.2755378 -1.7340677
H 2.0782793 -0.5017536 0.03486141
H -0.12439768 -2.9049942 -0.2321512
H -0.14761786 -2.781905 -2.0129917
