title
 OpenBabel02282110003D

 22 22  0  0  0  0  0  0  0  0999 V2000
    1.9370    3.1018    0.1306 C   0  0  0  0  0  0  0  0  0  0  0  0
    2.0040    1.5940    0.3062 C   0  0  0  0  0  0  0  0  0  0  0  0
    0.6927    1.0741    0.2532 O   0  0  0  0  0  0  0  0  0  0  0  0
    0.6373   -0.3277    0.4105 C   0  0  0  0  0  0  0  0  0  0  0  0
   -0.8062   -0.7724    0.3182 C   0  0  0  0  0  0  0  0  0  0  0  0
   -1.5306   -0.6920   -1.0546 C   0  0  0  0  0  0  0  0  0  0  0  0
   -2.1948   -2.0604   -0.7415 C   0  0  0  0  0  0  0  0  0  0  0  0
   -1.1075   -2.2972    0.3427 C   0  0  0  0  0  0  0  0  0  0  0  0
    2.9406    3.5362    0.1656 H   0  0  0  0  0  0  0  0  0  0  0  0
    1.4816    3.3555   -0.8310 H   0  0  0  0  0  0  0  0  0  0  0  0
    1.3344    3.5537    0.9236 H   0  0  0  0  0  0  0  0  0  0  0  0
    2.6265    1.1401   -0.4843 H   0  0  0  0  0  0  0  0  0  0  0  0
    2.4769    1.3374    1.2702 H   0  0  0  0  0  0  0  0  0  0  0  0
    1.2371   -0.8261   -0.3728 H   0  0  0  0  0  0  0  0  0  0  0  0
    1.0705   -0.6245    1.3830 H   0  0  0  0  0  0  0  0  0  0  0  0
   -1.3877   -0.2510    1.0858 H   0  0  0  0  0  0  0  0  0  0  0  0
   -2.1815    0.1657   -1.2359 H   0  0  0  0  0  0  0  0  0  0  0  0
   -0.8176   -0.7661   -1.8824 H   0  0  0  0  0  0  0  0  0  0  0  0
   -3.1871   -1.9381   -0.2979 H   0  0  0  0  0  0  0  0  0  0  0  0
   -2.2678   -2.7889   -1.5525 H   0  0  0  0  0  0  0  0  0  0  0  0
   -0.2653   -2.8762   -0.0518 H   0  0  0  0  0  0  0  0  0  0  0  0
   -1.4158   -2.7408    1.2926 H   0  0  0  0  0  0  0  0  0  0  0  0
  1  9  1  0  0  0  0
  1  2  1  0  0  0  0
  1 11  1  0  0  0  0
  2 13  1  0  0  0  0
  3  2  1  0  0  0  0
  3  4  1  0  0  0  0
  4 15  1  0  0  0  0
  5  8  1  0  0  0  0
  5  4  1  0  0  0  0
  5 16  1  0  0  0  0
  6  7  1  0  0  0  0
  6  5  1  0  0  0  0
  7 19  1  0  0  0  0
  7  8  1  0  0  0  0
  8 22  1  0  0  0  0
 10  1  1  0  0  0  0
 12  2  1  0  0  0  0
 14  4  1  0  0  0  0
 17  6  1  0  0  0  0
 18  6  1  0  0  0  0
 20  7  1  0  0  0  0
 21  8  1  0  0  0  0
M  END
