title
 OpenBabel02282110003D

 22 22  0  0  0  0  0  0  0  0999 V2000
   -0.8701    3.4746   -1.3249 C   0  0  0  0  0  0  0  0  0  0  0  0
   -0.4708    2.0156   -1.5570 C   0  0  0  0  0  0  0  0  0  0  0  0
   -0.1264    1.2923   -0.2621 C   0  0  0  0  0  0  0  0  0  0  0  0
    0.2277   -0.0427   -0.5666 O   0  0  0  0  0  0  0  0  0  0  0  0
    0.5934   -0.8009    0.5527 C   0  0  0  0  0  0  0  0  0  0  0  0
   -0.5127   -1.3305    1.5134 C   0  0  0  0  0  0  0  0  0  0  0  0
    0.2505   -2.6839    1.5452 C   0  0  0  0  0  0  0  0  0  0  0  0
    0.9814   -2.2592    0.2412 C   0  0  0  0  0  0  0  0  0  0  0  0
   -0.0598    4.0407   -0.8521 H   0  0  0  0  0  0  0  0  0  0  0  0
   -1.1135    3.9709   -2.2687 H   0  0  0  0  0  0  0  0  0  0  0  0
   -1.7488    3.5499   -0.6745 H   0  0  0  0  0  0  0  0  0  0  0  0
   -1.2842    1.4726   -2.0518 H   0  0  0  0  0  0  0  0  0  0  0  0
    0.3946    1.9589   -2.2273 H   0  0  0  0  0  0  0  0  0  0  0  0
    0.7098    1.8000    0.2505 H   0  0  0  0  0  0  0  0  0  0  0  0
   -0.9867    1.3167    0.4278 H   0  0  0  0  0  0  0  0  0  0  0  0
    1.3850   -0.2863    1.1219 H   0  0  0  0  0  0  0  0  0  0  0  0
   -0.6809   -0.8081    2.4581 H   0  0  0  0  0  0  0  0  0  0  0  0
   -1.4613   -1.4181    0.9750 H   0  0  0  0  0  0  0  0  0  0  0  0
    0.9347   -2.7468    2.3958 H   0  0  0  0  0  0  0  0  0  0  0  0
   -0.3452   -3.5979    1.5130 H   0  0  0  0  0  0  0  0  0  0  0  0
    0.4437   -2.5971   -0.6491 H   0  0  0  0  0  0  0  0  0  0  0  0
    2.0415   -2.4971    0.1310 H   0  0  0  0  0  0  0  0  0  0  0  0
  1  9  1  0  0  0  0
  1 11  1  0  0  0  0
  2  1  1  0  0  0  0
  2  3  1  0  0  0  0
  3 14  1  0  0  0  0
  3 15  1  0  0  0  0
  4  3  1  0  0  0  0
  4  5  1  0  0  0  0
  5 16  1  0  0  0  0
  5  6  1  0  0  0  0
  6  7  1  0  0  0  0
  6 17  1  0  0  0  0
  7 19  1  0  0  0  0
  8  5  1  0  0  0  0
  8  7  1  0  0  0  0
 10  1  1  0  0  0  0
 12  2  1  0  0  0  0
 13  2  1  0  0  0  0
 18  6  1  0  0  0  0
 20  7  1  0  0  0  0
 21  8  1  0  0  0  0
 22  8  1  0  0  0  0
M  END
