title
 OpenBabel02282110003D

 22 22  0  0  1  0  0  0  0  0999 V2000
   -1.1667    3.2664   -1.7265 C   0  0  0  0  0  0  0  0  0  0  0  0
   -1.2281    1.7383   -1.6545 C   0  0  0  0  0  0  0  0  0  0  0  0
   -0.5913    1.1712   -0.3816 C   0  0  0  0  0  0  0  0  0  0  0  0
   -0.6507   -0.3581   -0.2989 C   0  0  0  0  0  0  0  0  0  0  0  0
    0.0312   -0.9051    0.9419 C   0  0  1  0  0  0  0  0  0  0  0  0
    0.2953   -2.4257    1.0311 C   0  0  0  0  0  0  0  0  0  0  0  0
    1.7740   -2.0154    1.1729 C   0  0  0  0  0  0  0  0  0  0  0  0
    1.4562   -0.6251    0.9624 O   0  0  0  0  0  0  0  0  0  0  0  0
   -0.1306    3.6216   -1.7004 H   0  0  0  0  0  0  0  0  0  0  0  0
   -1.6251    3.6432   -2.6463 H   0  0  0  0  0  0  0  0  0  0  0  0
   -1.6924    3.7240   -0.8809 H   0  0  0  0  0  0  0  0  0  0  0  0
   -2.2745    1.4097   -1.7156 H   0  0  0  0  0  0  0  0  0  0  0  0
   -0.7254    1.3097   -2.5317 H   0  0  0  0  0  0  0  0  0  0  0  0
    0.4584    1.4836   -0.3219 H   0  0  0  0  0  0  0  0  0  0  0  0
   -1.0903    1.6021    0.4979 H   0  0  0  0  0  0  0  0  0  0  0  0
   -1.6962   -0.6982   -0.2986 H   0  0  0  0  0  0  0  0  0  0  0  0
   -0.1733   -0.7976   -1.1848 H   0  0  0  0  0  0  0  0  0  0  0  0
   -0.4467   -0.4934    1.8440 H   0  0  0  0  0  0  0  0  0  0  0  0
   -0.1473   -2.9453    1.8820 H   0  0  0  0  0  0  0  0  0  0  0  0
    0.0596   -2.9705    0.1142 H   0  0  0  0  0  0  0  0  0  0  0  0
    2.2095   -2.1887    2.1657 H   0  0  0  0  0  0  0  0  0  0  0  0
    2.4663   -2.3982    0.4138 H   0  0  0  0  0  0  0  0  0  0  0  0
  1  9  1  0  0  0  0
  1  2  1  0  0  0  0
  1 11  1  0  0  0  0
  2  3  1  0  0  0  0
  3 14  1  0  0  0  0
  3  4  1  0  0  0  0
  3 15  1  0  0  0  0
  4 16  1  0  0  0  0
  4  5  1  0  0  0  0
  5  8  1  0  0  0  0
  5  6  1  0  0  0  0
  5 18  1  1  0  0  0
  6  7  1  0  0  0  0
  6 19  1  0  0  0  0
  7 21  1  0  0  0  0
  8  7  1  0  0  0  0
 10  1  1  0  0  0  0
 12  2  1  0  0  0  0
 13  2  1  0  0  0  0
 17  4  1  0  0  0  0
 20  6  1  0  0  0  0
 22  7  1  0  0  0  0
M  END
