title
 OpenBabel02282110003D

 20 20  0  0  1  0  0  0  0  0999 V2000
    1.7493    3.2063   -0.0678 C   0  0  0  0  0  0  0  0  0  0  0  0
    1.7627    1.8097   -0.2306 O   0  0  0  0  0  0  0  0  0  0  0  0
    0.4667    1.2512   -0.2706 C   0  0  0  0  0  0  0  0  0  0  0  0
    0.5960   -0.2601   -0.4116 C   0  0  0  0  0  0  0  0  0  0  0  0
   -0.7537   -0.9518   -0.4570 C   0  0  1  0  0  0  0  0  0  0  0  0
   -0.7915   -2.4902   -0.3156 C   0  0  0  0  0  0  0  0  0  0  0  0
   -1.6859   -2.2124    0.9089 C   0  0  0  0  0  0  0  0  0  0  0  0
   -1.5066   -0.7878    0.7735 O   0  0  0  0  0  0  0  0  0  0  0  0
    2.7884    3.5445   -0.0436 H   0  0  0  0  0  0  0  0  0  0  0  0
    1.2314    3.7116   -0.8993 H   0  0  0  0  0  0  0  0  0  0  0  0
    1.2562    3.5052    0.8710 H   0  0  0  0  0  0  0  0  0  0  0  0
   -0.0915    1.4937    0.6478 H   0  0  0  0  0  0  0  0  0  0  0  0
   -0.1052    1.6690   -1.1186 H   0  0  0  0  0  0  0  0  0  0  0  0
    1.1503   -0.4928   -1.3298 H   0  0  0  0  0  0  0  0  0  0  0  0
    1.1790   -0.6485    0.4312 H   0  0  0  0  0  0  0  0  0  0  0  0
   -1.3409   -0.5793   -1.3102 H   0  0  0  0  0  0  0  0  0  0  0  0
   -1.2525   -3.0396   -1.1375 H   0  0  0  0  0  0  0  0  0  0  0  0
    0.1766   -2.9377   -0.0810 H   0  0  0  0  0  0  0  0  0  0  0  0
   -2.7377   -2.5039    0.7910 H   0  0  0  0  0  0  0  0  0  0  0  0
   -1.3244   -2.5817    1.8756 H   0  0  0  0  0  0  0  0  0  0  0  0
  1  9  1  0  0  0  0
  1 11  1  0  0  0  0
  2  1  1  0  0  0  0
  3  2  1  0  0  0  0
  3 12  1  0  0  0  0
  4  3  1  0  0  0  0
  4 15  1  0  0  0  0
  5 16  1  6  0  0  0
  5  4  1  0  0  0  0
  5  6  1  0  0  0  0
  5  8  1  0  0  0  0
  6 18  1  0  0  0  0
  6  7  1  0  0  0  0
  7 20  1  0  0  0  0
  8  7  1  0  0  0  0
 10  1  1  0  0  0  0
 13  3  1  0  0  0  0
 14  4  1  0  0  0  0
 17  6  1  0  0  0  0
 19  7  1  0  0  0  0
M  END
