20
title
O 1.914899 3.2093227 0.13373585
C 1.9954393 1.7997624 0.27941418
C 0.57672685 1.2461772 0.27721632
C 0.5272692 -0.2770714 0.43361655
C -0.892106 -0.8317117 0.412003
C -1.6220363 -0.87816066 -0.9518024
O -1.7648708 -2.3111005 -0.8820565
C -1.0561033 -2.3681006 0.37198097
H 2.808811 3.563382 0.12805624
H 2.5726676 1.3456054 -0.5430081
H 2.500213 1.5236437 1.2202183
H 0.0153914215 1.726805 1.0879787
H 0.09056039 1.5478047 -0.6588868
H 1.1093429 -0.752495 -0.36845145
H 1.0114802 -0.56708235 1.3764564
H -1.4907318 -0.36053553 1.1971501
H -2.593133 -0.37125054 -1.0054303
H -1.0137058 -0.5676822 -1.8129104
H -0.116726324 -2.932345 0.2882674
H -1.6653949 -2.8135848 1.1681317
