title
 OpenBabel02282110003D

 20 20  0  0  1  0  0  0  0  0999 V2000
    1.8950    3.1363   -0.0429 O   0  0  0  0  0  0  0  0  0  0  0  0
    1.9950    1.7241   -0.1503 C   0  0  0  0  0  0  0  0  0  0  0  0
    0.5862    1.1604   -0.2734 C   0  0  0  0  0  0  0  0  0  0  0  0
    0.5656   -0.3639   -0.4214 C   0  0  0  0  0  0  0  0  0  0  0  0
   -0.8457   -0.9216   -0.4754 C   0  0  1  0  0  0  0  0  0  0  0  0
   -1.0377   -2.4506   -0.3578 C   0  0  0  0  0  0  0  0  0  0  0  0
   -1.9008   -2.1030    0.8709 C   0  0  0  0  0  0  0  0  0  0  0  0
   -1.5765   -0.7025    0.7591 O   0  0  0  0  0  0  0  0  0  0  0  0
    2.7823    3.4941    0.0527 H   0  0  0  0  0  0  0  0  0  0  0  0
    2.5918    1.4335   -1.0316 H   0  0  0  0  0  0  0  0  0  0  0  0
    2.4921    1.2910    0.7336 H   0  0  0  0  0  0  0  0  0  0  0  0
    0.0091    1.4477    0.6117 H   0  0  0  0  0  0  0  0  0  0  0  0
    0.0983    1.6300   -1.1365 H   0  0  0  0  0  0  0  0  0  0  0  0
    1.0923   -0.6674   -1.3374 H   0  0  0  0  0  0  0  0  0  0  0  0
    1.0932   -0.8315    0.4205 H   0  0  0  0  0  0  0  0  0  0  0  0
   -1.3909   -0.4771   -1.3218 H   0  0  0  0  0  0  0  0  0  0  0  0
   -1.5502   -2.9394   -1.1875 H   0  0  0  0  0  0  0  0  0  0  0  0
   -0.1195   -2.9967   -0.1301 H   0  0  0  0  0  0  0  0  0  0  0  0
   -2.9766   -2.2837    0.7476 H   0  0  0  0  0  0  0  0  0  0  0  0
   -1.5815   -2.5232    1.8319 H   0  0  0  0  0  0  0  0  0  0  0  0
  1  9  1  0  0  0  0
  2  1  1  0  0  0  0
  2 11  1  0  0  0  0
  3  2  1  0  0  0  0
  3 12  1  0  0  0  0
  4  3  1  0  0  0  0
  4 15  1  0  0  0  0
  5 16  1  6  0  0  0
  5  4  1  0  0  0  0
  5  6  1  0  0  0  0
  5  8  1  0  0  0  0
  6 18  1  0  0  0  0
  6  7  1  0  0  0  0
  7 20  1  0  0  0  0
  8  7  1  0  0  0  0
 10  2  1  0  0  0  0
 13  3  1  0  0  0  0
 14  4  1  0  0  0  0
 17  6  1  0  0  0  0
 19  7  1  0  0  0  0
M  END
