20
title
O 1.89502 3.1362567 -0.0429023
C 1.9950204 1.7241328 -0.15033694
C 0.58623594 1.1604413 -0.27341637
C 0.56556326 -0.3639053 -0.4214178
C -0.84571785 -0.9215759 -0.4753844
C -1.0377415 -2.4506454 -0.35777277
C -1.9007791 -2.1030104 0.87091696
O -1.576547 -0.70252025 0.75911474
H 2.7822704 3.4940765 0.05273349
H 2.5918288 1.433507 -1.0315711
H 2.4920614 1.2910339 0.73359084
H 0.0090866685 1.447728 0.61173075
H 0.09830207 1.630026 -1.1365172
H 1.092332 -0.6674036 -1.3373845
H 1.0932444 -0.8315333 0.42046893
H -1.3908712 -0.47714388 -1.3217791
H -1.5502084 -2.9393935 -1.1875259
H -0.11948842 -2.9966846 -0.1300769
H -2.9765744 -2.2836814 0.74756896
H -1.5815183 -2.5232458 1.8318707
