20
title
O 2.6014874 1.0208299 0.86358076
C 2.244626 -0.22406313 1.4307864
C 0.748936 -0.4736682 1.3174927
O 0.4374897 -0.44827333 -0.06618995
C -0.9345799 -0.54746586 -0.3494162
C -1.8545455 0.68427163 -0.10967953
C -2.5348346 0.35967177 -1.4689554
C -1.2889313 -0.48897305 -1.8471531
H 2.1812274 1.0370697 -0.0045394404
H 2.7835462 -1.0556989 0.9490474
H 2.5381825 -0.19818865 2.4853919
H 0.47770053 -1.4454628 1.7618657
H 0.19714731 0.31582883 1.849733
H -1.3533121 -1.4461414 0.130055
H -2.4752405 0.7069812 0.7886819
H -1.2662505 1.6052526 -0.16510351
H -3.4268453 -0.25923166 -1.3409485
H -2.7867177 1.1999412 -2.1180253
H -0.54230624 0.1085282 -2.378083
H -1.435103 -1.4319931 -2.3777728
