16
title
C -1.6871908 -2.7947164 0.32724786
C -1.6653998 -1.6257246 0.05041643
C -1.6219646 -0.20117943 -0.28028202
C -0.23481517 0.38048536 -0.20844136
C 0.444444 1.0106547 -1.1610006
C 1.7824644 1.4456244 -0.6369299
O 1.8172873 1.000108 0.71690375
C 0.6011339 0.33806878 1.0457014
H -1.7118335 -3.8285532 0.5681867
H -2.0347364 -0.04153996 -1.2829456
H -2.282517 0.340527 0.41309226
H 0.11256488 1.1986077 -2.1747386
H 2.6190734 1.0003018 -1.1988672
H 1.9154297 2.538971 -0.6756474
H 0.10728522 0.85054725 1.8882995
H 0.8058396 -0.6931483 1.3705701
