20
title
C 1.7493322 3.206329 -0.06783502
O 1.7626722 1.809658 -0.23061147
C 0.46667764 1.251249 -0.27055037
C 0.5960471 -0.26009697 -0.4116302
C -0.7537325 -0.9518234 -0.4569797
C -0.79154736 -2.4901888 -0.31563798
C -1.6859272 -2.2123735 0.90886354
O -1.5065789 -0.78776664 0.7735026
H 2.7883687 3.5445397 -0.043590035
H 1.2313924 3.7115781 -0.8992694
H 1.2562063 3.505247 0.87103343
H -0.09145609 1.4937365 0.6477556
H -0.105158724 1.6689625 -1.1185743
H 1.1502838 -0.4927873 -1.3297753
H 1.1790051 -0.6485066 0.43124342
H -1.3409193 -0.5793304 -1.3101648
H -1.2524858 -3.0396144 -1.1375104
H 0.17656131 -2.9377477 -0.08103225
H -2.7376726 -2.5038826 0.79100263
H -1.324388 -2.5816786 1.8755816
