14
title
N -1.3777575 -2.930728 -0.396548
C -1.3350828 -1.7769892 -0.36266065
C -1.2795653 -0.3172279 -0.33830887
C 0.12639442 0.23865815 -0.60873824
C 0.20474103 1.7878127 -0.51697
N 1.0365543 2.0566502 0.6672384
C 1.4173319 0.9237408 1.0833386
O 1.021188 -0.2041959 0.4391611
H -1.9685773 0.07471473 -1.0955783
H -1.629806 0.041725345 0.6360044
H 0.5085248 -0.15707044 -1.5524986
H 0.6668922 2.2334127 -1.4033747
H -0.7822224 2.2485414 -0.3974321
H 2.059297 0.74596447 1.9384221
