17
title
N -1.5522637 -2.8357754 0.04653907
C -1.4053235 -1.6991469 0.19679749
C -1.1964083 -0.2661887 0.3931694
C 0.27920827 0.099362396 0.6794567
C 1.1902937 -0.23029064 -0.5365986
C 1.3317195 1.1000215 -1.2366539
C 0.9103359 2.1109233 -0.47904208
C 0.41045853 1.6378886 0.86574876
H -1.5382308 0.26410952 -0.503974
H -1.8335733 0.06376233 1.2212998
H 0.59518754 -0.44211516 1.5740886
H 2.1698446 -0.604468 -0.2101067
H 0.7658113 -1.0154943 -1.1726192
H 1.7610615 1.1943139 -2.227716
H 0.94296825 3.1594355 -0.75274473
H -0.53777254 2.1038854 1.1616702
H 1.1294917 1.8833131 1.6589941
