title
 OpenBabel02282110003D

 15 15  0  0  1  0  0  0  0  0999 V2000
   -1.4033   -3.0556   -0.5600 C   0  0  0  0  0  0  0  0  0  0  0  0
   -1.3512   -1.8588   -0.4698 C   0  0  0  0  0  0  0  0  0  0  0  0
   -1.2848   -0.4066   -0.3886 C   0  0  0  0  0  0  0  0  0  0  0  0
    0.1479    0.1535   -0.5090 C   0  0  1  0  0  0  0  0  0  0  0  0
    0.1895    1.7072   -0.5394 C   0  0  0  0  0  0  0  0  0  0  0  0
    1.0516    2.0622    0.5676 O   0  0  0  0  0  0  0  0  0  0  0  0
    1.3882    0.8844    1.1461 C   0  0  0  0  0  0  0  0  0  0  0  0
    0.9694   -0.2075    0.6614 N   0  0  0  0  0  0  0  0  0  0  0  0
   -1.4456   -4.1144   -0.6253 H   0  0  0  0  0  0  0  0  0  0  0  0
   -1.8969    0.0316   -1.1885 H   0  0  0  0  0  0  0  0  0  0  0  0
   -1.7152   -0.0615    0.5601 H   0  0  0  0  0  0  0  0  0  0  0  0
    0.6089   -0.2764   -1.4045 H   0  0  0  0  0  0  0  0  0  0  0  0
    0.6224    2.1169   -1.4549 H   0  0  0  0  0  0  0  0  0  0  0  0
   -0.7896    2.1678   -0.3700 H   0  0  0  0  0  0  0  0  0  0  0  0
    2.0222    0.9836    2.0204 H   0  0  0  0  0  0  0  0  0  0  0  0
  1  2  3  0  0  0  0
  2  3  1  0  0  0  0
  3 11  1  0  0  0  0
  4 12  1  6  0  0  0
  4  3  1  0  0  0  0
  4  8  1  0  0  0  0
  5  4  1  0  0  0  0
  5 14  1  0  0  0  0
  5  6  1  0  0  0  0
  6  7  1  0  0  0  0
  7 15  1  0  0  0  0
  8  7  2  0  0  0  0
  9  1  1  0  0  0  0
 10  3  1  0  0  0  0
 13  5  1  0  0  0  0
M  END
