15
title
N -1.6962537 -2.7118404 0.4016745
C -1.6634068 -1.5970445 0.10048581
C -1.6080753 -0.17925265 -0.2728972
C -0.21343045 0.38303527 -0.21658358
C 0.4738472 0.95723045 -1.1977228
C 1.814185 1.4019645 -0.6887311
O 1.8334008 1.0332218 0.68817407
C 0.6156805 0.39062032 1.0433701
H -2.025022 -0.06506279 -1.2784356
H -2.270822 0.36995706 0.41002107
H 0.14778717 1.098095 -2.2208421
H 2.6453753 0.9131285 -1.221052
H 1.9618522 2.4889302 -0.7877817
H 0.12185438 0.9414748 1.8609248
H 0.81543976 -0.62681246 1.4138983
