title
 OpenBabel02282110003D

 20 20  0  0  0  0  0  0  0  0999 V2000
   -1.3094   -3.1150    0.5012 C   0  0  0  0  0  0  0  0  0  0  0  0
   -1.3600   -1.9138    0.5146 C   0  0  0  0  0  0  0  0  0  0  0  0
   -1.3918   -0.4554    0.5342 C   0  0  0  0  0  0  0  0  0  0  0  0
   -0.0048    0.1906    0.3681 C   0  0  0  0  0  0  0  0  0  0  0  0
    0.6780   -0.0750   -0.9831 C   0  0  0  0  0  0  0  0  0  0  0  0
    1.8169    0.9623   -1.0338 C   0  0  0  0  0  0  0  0  0  0  0  0
    1.3101    2.1798   -0.2029 C   0  0  0  0  0  0  0  0  0  0  0  0
   -0.0272    1.7285    0.4367 C   0  0  0  0  0  0  0  0  0  0  0  0
   -1.2761   -4.1760    0.4883 H   0  0  0  0  0  0  0  0  0  0  0  0
   -2.0531   -0.0936   -0.2655 H   0  0  0  0  0  0  0  0  0  0  0  0
   -1.8427   -0.1179    1.4767 H   0  0  0  0  0  0  0  0  0  0  0  0
    0.6460   -0.1912    1.1666 H   0  0  0  0  0  0  0  0  0  0  0  0
    1.0251   -1.1054   -1.0923 H   0  0  0  0  0  0  0  0  0  0  0  0
   -0.0435    0.1112   -1.7905 H   0  0  0  0  0  0  0  0  0  0  0  0
    2.7208    0.5456   -0.5772 H   0  0  0  0  0  0  0  0  0  0  0  0
    2.0824    1.2361   -2.0584 H   0  0  0  0  0  0  0  0  0  0  0  0
    2.0390    2.4502    0.5669 H   0  0  0  0  0  0  0  0  0  0  0  0
    1.1712    3.0692   -0.8237 H   0  0  0  0  0  0  0  0  0  0  0  0
   -0.8742    2.0994   -0.1552 H   0  0  0  0  0  0  0  0  0  0  0  0
   -0.1619    2.1068    1.4546 H   0  0  0  0  0  0  0  0  0  0  0  0
  1  2  3  0  0  0  0
  2  3  1  0  0  0  0
  3 11  1  0  0  0  0
  4  8  1  0  0  0  0
  4  3  1  0  0  0  0
  4 12  1  0  0  0  0
  5  4  1  0  0  0  0
  6  5  1  0  0  0  0
  6 15  1  0  0  0  0
  6  7  1  0  0  0  0
  7  8  1  0  0  0  0
  7 17  1  0  0  0  0
  8 20  1  0  0  0  0
  9  1  1  0  0  0  0
 10  3  1  0  0  0  0
 13  5  1  0  0  0  0
 14  5  1  0  0  0  0
 16  6  1  0  0  0  0
 18  7  1  0  0  0  0
 19  8  1  0  0  0  0
M  END
