18
title
C -1.3829472 -3.061555 -0.510865
C -1.3707212 -1.8605529 -0.47588465
C -1.3496882 -0.40359822 -0.45514536
C 0.06688005 0.19273101 -0.4661195
C 0.09585601 1.7261773 -0.5419975
C 1.3965812 2.05819 0.20087391
C 1.4098291 0.98059356 1.291762
O 0.74181074 -0.15510847 0.7433721
H -1.3926355 -4.1228395 -0.5305236
H -1.8952558 -0.017644545 -1.3266045
H -1.8707169 -0.03304114 0.43647635
H 0.61924773 -0.23857976 -1.3149283
H 0.07031709 2.0952656 -1.5700519
H -0.76713336 2.145408 -0.010280366
H 2.257193 1.938636 -0.46576467
H 1.4217548 3.0725434 0.60615957
H 2.4207757 0.6846229 1.5925347
H 0.87729305 1.3226463 2.1919458
