15
title
N -1.3487236 -2.9560814 0.2716418
C -1.3218954 -1.8015454 0.30382362
C -1.2904549 -0.34270498 0.36361566
C 0.13745658 0.21487086 0.58080924
O 0.96687394 -0.13570185 -0.51981926
C 1.5095086 1.0343822 -1.1316257
C 0.94587 2.1819327 -0.3437729
C 0.17464547 1.7202052 0.63300216
H -1.6955343 0.066786215 -0.5673972
H -1.9407073 -0.012147621 1.181991
H 0.5423201 -0.23851557 1.4991393
H 2.6088314 0.99852294 -1.0905961
H 1.22527 1.0677229 -2.1941366
H 1.1680965 3.2182388 -0.5638208
H -0.36136582 2.298358 1.3747121
