16
title
C -1.3051385 -3.0652616 0.6346177
C -1.3291081 -1.8787137 0.4488845
C -1.3510708 -0.4380854 0.24171983
C 0.024728261 0.2097843 0.41151446
O 0.90969425 -0.19081554 -0.6213093
C 1.5827287 0.96648407 -1.1100401
C 1.1379753 2.0789142 -0.14966354
O -0.117754616 1.606394 0.31437388
H -1.2841973 -4.115318 0.7894742
H -1.7108418 -0.19281015 -0.7636057
H -2.0314646 0.037957333 0.95771027
H 0.463446 -0.066441275 1.386695
H 2.665486 0.8021798 -1.0982463
H 1.2668785 1.1673727 -2.14141
H 1.8452452 2.1933742 0.6853835
H 0.98982984 3.0487785 -0.6284828
