title
 OpenBabel02282110003D

 15 15  0  0  1  0  0  0  0  0999 V2000
   -1.3487   -2.9561    0.2716 N   0  0  0  0  0  0  0  0  0  0  0  0
   -1.3219   -1.8015    0.3038 C   0  0  0  0  0  0  0  0  0  0  0  0
   -1.2905   -0.3427    0.3636 C   0  0  0  0  0  0  0  0  0  0  0  0
    0.1375    0.2149    0.5808 C   0  0  1  0  0  0  0  0  0  0  0  0
    0.9669   -0.1357   -0.5198 O   0  0  0  0  0  0  0  0  0  0  0  0
    1.5095    1.0344   -1.1316 C   0  0  0  0  0  0  0  0  0  0  0  0
    0.9459    2.1819   -0.3438 C   0  0  0  0  0  0  0  0  0  0  0  0
    0.1746    1.7202    0.6330 C   0  0  0  0  0  0  0  0  0  0  0  0
   -1.6955    0.0668   -0.5674 H   0  0  0  0  0  0  0  0  0  0  0  0
   -1.9407   -0.0121    1.1820 H   0  0  0  0  0  0  0  0  0  0  0  0
    0.5423   -0.2385    1.4991 H   0  0  0  0  0  0  0  0  0  0  0  0
    2.6088    0.9985   -1.0906 H   0  0  0  0  0  0  0  0  0  0  0  0
    1.2253    1.0677   -2.1941 H   0  0  0  0  0  0  0  0  0  0  0  0
    1.1681    3.2182   -0.5638 H   0  0  0  0  0  0  0  0  0  0  0  0
   -0.3614    2.2984    1.3747 H   0  0  0  0  0  0  0  0  0  0  0  0
  1  2  3  0  0  0  0
  2  3  1  0  0  0  0
  3  4  1  0  0  0  0
  3 10  1  0  0  0  0
  4  8  1  0  0  0  0
  4 11  1  1  0  0  0
  5  4  1  0  0  0  0
  6 12  1  0  0  0  0
  6  5  1  0  0  0  0
  6  7  1  0  0  0  0
  7  8  2  0  0  0  0
  8 15  1  0  0  0  0
  9  3  1  0  0  0  0
 13  6  1  0  0  0  0
 14  7  1  0  0  0  0
M  END
