title
 OpenBabel02282110003D

 16 16  0  0  1  0  0  0  0  0999 V2000
   -1.5157   -3.0454   -0.4183 C   0  0  0  0  0  0  0  0  0  0  0  0
   -1.4507   -1.8473   -0.3586 C   0  0  0  0  0  0  0  0  0  0  0  0
   -1.3612   -0.3946   -0.3057 C   0  0  0  0  0  0  0  0  0  0  0  0
    0.0641    0.1393   -0.5268 C   0  0  1  0  0  0  0  0  0  0  0  0
    0.1345    1.6853   -0.5438 C   0  0  0  0  0  0  0  0  0  0  0  0
    1.2957    1.9822    0.2122 O   0  0  0  0  0  0  0  0  0  0  0  0
    1.3506    0.9646    1.1783 C   0  0  0  0  0  0  0  0  0  0  0  0
    0.9341   -0.2264    0.5439 O   0  0  0  0  0  0  0  0  0  0  0  0
   -1.5738   -4.1046   -0.4615 H   0  0  0  0  0  0  0  0  0  0  0  0
   -2.0169    0.0429   -1.0715 H   0  0  0  0  0  0  0  0  0  0  0  0
   -1.7248   -0.0290    0.6630 H   0  0  0  0  0  0  0  0  0  0  0  0
    0.4708   -0.2899   -1.4494 H   0  0  0  0  0  0  0  0  0  0  0  0
    0.2531    2.1064   -1.5440 H   0  0  0  0  0  0  0  0  0  0  0  0
   -0.7630    2.1220   -0.0762 H   0  0  0  0  0  0  0  0  0  0  0  0
    2.3820    0.8533    1.5244 H   0  0  0  0  0  0  0  0  0  0  0  0
    0.6869    1.1993    2.0313 H   0  0  0  0  0  0  0  0  0  0  0  0
  1  2  3  0  0  0  0
  2  3  1  0  0  0  0
  3 11  1  0  0  0  0
  4 12  1  6  0  0  0
  4  3  1  0  0  0  0
  4  8  1  0  0  0  0
  5  4  1  0  0  0  0
  5 14  1  0  0  0  0
  5  6  1  0  0  0  0
  6  7  1  0  0  0  0
  7 15  1  0  0  0  0
  7 16  1  0  0  0  0
  8  7  1  0  0  0  0
  9  1  1  0  0  0  0
 10  3  1  0  0  0  0
 13  5  1  0  0  0  0
M  END
