15
title
N -1.4313741 -2.918506 -0.25157368
C -1.3515692 -1.7682385 -0.3212966
C -1.2579886 -0.3152537 -0.43144903
C 0.1809695 0.1710396 -0.6957402
C 0.29608288 1.7056835 -0.6311634
O 0.6137558 1.9334674 0.73303676
C 1.4821396 0.88132596 1.0645156
O 1.0381172 -0.26522765 0.35280794
H -1.9147913 0.016138572 -1.24446
H -1.6199137 0.1413882 0.4960965
H 0.5406343 -0.2332872 -1.6477233
H 1.0991266 2.063772 -1.2920542
H -0.62824875 2.2369914 -0.86679006
H 2.5200818 1.115381 0.7708473
H 1.4242251 0.6985438 2.1413577
