title
 OpenBabel02282110003D

 17 17  0  0  1  0  0  0  0  0999 V2000
   -1.5876   -2.8676   -0.2565 N   0  0  0  0  0  0  0  0  0  0  0  0
   -1.4540   -1.7204   -0.2984 C   0  0  0  0  0  0  0  0  0  0  0  0
   -1.2527   -0.2741   -0.3607 C   0  0  0  0  0  0  0  0  0  0  0  0
    0.2013    0.1110   -0.7166 C   0  0  1  0  0  0  0  0  0  0  0  0
    0.3621    1.6526   -0.8086 C   0  0  0  0  0  0  0  0  0  0  0  0
    1.1131    2.0236    0.4974 C   0  0  0  0  0  0  0  0  0  0  0  0
    1.0815    0.8623    1.3169 O   0  0  0  0  0  0  0  0  0  0  0  0
    1.1686   -0.2396    0.4291 C   0  0  0  0  0  0  0  0  0  0  0  0
   -1.9485    0.1414   -1.0976 H   0  0  0  0  0  0  0  0  0  0  0  0
   -1.5133    0.1607    0.6113 H   0  0  0  0  0  0  0  0  0  0  0  0
    0.4831   -0.3854   -1.6481 H   0  0  0  0  0  0  0  0  0  0  0  0
    0.9348    1.9417   -1.6927 H   0  0  0  0  0  0  0  0  0  0  0  0
   -0.6087    2.1518   -0.8740 H   0  0  0  0  0  0  0  0  0  0  0  0
    2.1540    2.3056    0.2767 H   0  0  0  0  0  0  0  0  0  0  0  0
    0.6488    2.8400    1.0558 H   0  0  0  0  0  0  0  0  0  0  0  0
    0.9008   -1.1461    0.9773 H   0  0  0  0  0  0  0  0  0  0  0  0
    2.1944   -0.3543    0.0423 H   0  0  0  0  0  0  0  0  0  0  0  0
  2  1  3  0  0  0  0
  3  2  1  0  0  0  0
  3 10  1  0  0  0  0
  4 11  1  6  0  0  0
  4  3  1  0  0  0  0
  4  8  1  0  0  0  0
  5  4  1  0  0  0  0
  5  6  1  0  0  0  0
  6 15  1  0  0  0  0
  6  7  1  0  0  0  0
  8 16  1  0  0  0  0
  8  7  1  0  0  0  0
  9  3  1  0  0  0  0
 12  5  1  0  0  0  0
 13  5  1  0  0  0  0
 14  6  1  0  0  0  0
 17  8  1  0  0  0  0
M  END
