18
title
O -0.8648786 -2.8090801 0.882079
C -1.0121402 -1.6317168 1.0792043
C 0.108257174 -0.65418774 1.4064924
C 0.2637756 0.34568137 0.29373622
C -0.08463466 1.634249 0.31430876
C 0.23685968 2.3422887 -0.97878766
C 0.5602572 1.1735122 -1.9471602
C 0.8820517 -0.038161807 -1.0370498
H -2.0158942 -1.152939 1.0072806
H -0.15537465 -0.13927011 2.33883
H 1.0251386 -1.2320373 1.5637817
H -0.5073774 2.1452901 1.1735601
H -0.58719873 2.9685166 -1.3390481
H 1.0953667 3.0163462 -0.84595346
H -0.3245952 0.9485325 -2.550651
H 1.37083 1.4094212 -2.6407478
H 1.96474 -0.18889885 -0.916806
H 0.48910153 -0.98169595 -1.4328513
