17
title
O -0.7625288 2.5323417 0.13871673
C -1.6073457 1.6882048 0.3322884
N -1.4300776 0.3299018 0.29944488
C -0.25559893 -0.38739705 0.043150898
C -0.1779324 -1.7230021 0.004124368
C 1.2088605 -2.1920133 -0.35532442
C 2.0629053 -0.9045491 -0.21089423
C 1.0656265 0.27963328 -0.26953062
H -2.6624432 1.934628 0.5657346
H -2.2564812 -0.22223473 0.47772107
H -1.0129255 -2.398477 0.15807687
H 1.5684458 -3.0007322 0.2914393
H 1.236765 -2.587962 -1.3811718
H 2.560792 -0.90822047 0.7635743
H 2.8442202 -0.82864267 -0.9707957
H 1.0250384 0.7481668 -1.26052
H 1.3070554 1.0821662 0.42894876
