17
title
N -1.5424775 -2.9211435 -0.34852013
C -1.4411054 -1.773374 -0.43085226
C -1.3186775 -0.32248262 -0.55871326
C 0.13152987 0.16879556 -0.48127168
C 0.28855783 1.7009465 -0.67563945
C 1.2252419 2.126094 0.48302343
C 1.7055411 0.7795442 1.048617
O 0.63269514 -0.12024 0.81301063
H -1.755927 -0.019145878 -1.5163337
H -1.8982985 0.15731284 0.2375542
H 0.7292426 -0.36560526 -1.2364262
H 0.71234065 1.9259311 -1.657181
H -0.6776048 2.2099452 -0.6133434
H 2.0514922 2.758975 0.15159173
H 0.6678795 2.6763954 1.2452445
H 2.616353 0.4372941 0.5311442
H 1.9031668 0.7907379 2.1227922
