16
title
O -0.85873604 -2.834978 1.1037978
C -0.96222067 -1.6402562 1.181186
C 0.20468876 -0.677592 1.3780948
C 0.26470026 0.33645838 0.2752344
C -0.059130702 1.6268104 0.3050595
C 0.13845107 2.2411213 -1.0501922
O 0.5937672 1.175573 -1.8811568
C 0.7050993 -0.022408783 -1.1239401
H -1.9520462 -1.1347386 1.1062558
H 0.05039939 -0.1694277 2.3385484
H 1.1226114 -1.271301 1.4401006
H -0.40462402 2.1860766 1.1659926
H -0.79153425 2.663962 -1.4622344
H 0.8830034 3.0533476 -1.0377022
H 1.7440568 -0.3910461 -1.1441771
H 0.07925901 -0.81116885 -1.5724233
