title
 OpenBabel02282110003D

 18 18  0  0  1  0  0  0  0  0999 V2000
   -1.6536   -2.2344    1.4470 O   0  0  0  0  0  0  0  0  0  0  0  0
   -0.9649   -2.0346    0.4798 C   0  0  0  0  0  0  0  0  0  0  0  0
    0.3368   -1.2673    0.4782 C   0  0  0  0  0  0  0  0  0  0  0  0
    0.3041   -0.0758   -0.4919 C   0  0  1  0  0  0  0  0  0  0  0  0
   -0.7117    1.0387   -0.1111 C   0  0  0  0  0  0  0  0  0  0  0  0
   -0.0181    2.3035   -0.5572 C   0  0  0  0  0  0  0  0  0  0  0  0
    1.2659    2.0966   -0.8431 C   0  0  0  0  0  0  0  0  0  0  0  0
    1.6675    0.6554   -0.6390 C   0  0  0  0  0  0  0  0  0  0  0  0
   -1.2670   -2.4180   -0.5248 H   0  0  0  0  0  0  0  0  0  0  0  0
    0.5560   -0.9437    1.5006 H   0  0  0  0  0  0  0  0  0  0  0  0
    1.1268   -1.9646    0.1622 H   0  0  0  0  0  0  0  0  0  0  0  0
    0.0256   -0.4495   -1.4854 H   0  0  0  0  0  0  0  0  0  0  0  0
   -1.6885    0.8908   -0.5861 H   0  0  0  0  0  0  0  0  0  0  0  0
   -0.9014    1.0584    0.9723 H   0  0  0  0  0  0  0  0  0  0  0  0
   -0.5219    3.2630   -0.5938 H   0  0  0  0  0  0  0  0  0  0  0  0
    1.9721    2.8609   -1.1479 H   0  0  0  0  0  0  0  0  0  0  0  0
    2.2817    0.5491    0.2677 H   0  0  0  0  0  0  0  0  0  0  0  0
    2.2658    0.2493   -1.4627 H   0  0  0  0  0  0  0  0  0  0  0  0
  2  1  2  0  0  0  0
  3  2  1  0  0  0  0
  3 10  1  0  0  0  0
  4 12  1  6  0  0  0
  4  5  1  0  0  0  0
  4  3  1  0  0  0  0
  5 14  1  0  0  0  0
  6  5  1  0  0  0  0
  7  8  1  0  0  0  0
  7  6  2  0  0  0  0
  8  4  1  0  0  0  0
  8 17  1  0  0  0  0
  9  2  1  0  0  0  0
 11  3  1  0  0  0  0
 13  5  1  0  0  0  0
 15  6  1  0  0  0  0
 16  7  1  0  0  0  0
 18  8  1  0  0  0  0
M  END
