title
 OpenBabel02282110003D

 17 17  0  0  1  0  0  0  0  0999 V2000
   -2.3219   -1.4117    0.9507 O   0  0  0  0  0  0  0  0  0  0  0  0
   -2.2186   -0.2812    0.5224 C   0  0  0  0  0  0  0  0  0  0  0  0
   -1.0670    0.2999    0.0939 N   0  0  0  0  0  0  0  0  0  0  0  0
    0.2248   -0.3742    0.0927 C   0  0  1  0  0  0  0  0  0  0  0  0
    0.8351   -0.4085   -1.3374 C   0  0  0  0  0  0  0  0  0  0  0  0
    1.7906    0.7616   -1.3349 C   0  0  0  0  0  0  0  0  0  0  0  0
    2.0246    1.2079   -0.1008 C   0  0  0  0  0  0  0  0  0  0  0  0
    1.2664    0.4141    0.9369 C   0  0  0  0  0  0  0  0  0  0  0  0
   -3.0804    0.4109    0.4356 H   0  0  0  0  0  0  0  0  0  0  0  0
   -1.1080    1.2502   -0.2419 H   0  0  0  0  0  0  0  0  0  0  0  0
    0.0291   -1.3696    0.4898 H   0  0  0  0  0  0  0  0  0  0  0  0
    1.3722   -1.3504   -1.5140 H   0  0  0  0  0  0  0  0  0  0  0  0
    0.0561   -0.3461   -2.1046 H   0  0  0  0  0  0  0  0  0  0  0  0
    2.2483    1.1463   -2.2393 H   0  0  0  0  0  0  0  0  0  0  0  0
    2.7029    2.0132    0.1577 H   0  0  0  0  0  0  0  0  0  0  0  0
    0.7775    1.0296    1.6994 H   0  0  0  0  0  0  0  0  0  0  0  0
    1.9385   -0.2703    1.4723 H   0  0  0  0  0  0  0  0  0  0  0  0
  2  1  2  0  0  0  0
  3  2  1  0  0  0  0
  4  3  1  0  0  0  0
  4 11  1  1  0  0  0
  4  8  1  0  0  0  0
  5  6  1  0  0  0  0
  5  4  1  0  0  0  0
  6  7  2  0  0  0  0
  7 15  1  0  0  0  0
  7  8  1  0  0  0  0
  8 17  1  0  0  0  0
  8 16  1  0  0  0  0
  9  2  1  0  0  0  0
 10  3  1  0  0  0  0
 12  5  1  0  0  0  0
 13  5  1  0  0  0  0
 14  6  1  0  0  0  0
M  END
