title
 OpenBabel02282110003D

 15 15  0  0  1  0  0  0  0  0999 V2000
   -1.8360   -1.7805    2.0508 O   0  0  0  0  0  0  0  0  0  0  0  0
   -1.2369   -1.4777    1.0511 C   0  0  0  0  0  0  0  0  0  0  0  0
    0.0426   -0.6642    1.0409 C   0  0  0  0  0  0  0  0  0  0  0  0
   -0.0548    0.5900    0.1678 C   0  0  1  0  0  0  0  0  0  0  0  0
    1.2710    1.3929    0.0448 C   0  0  0  0  0  0  0  0  0  0  0  0
    1.6544    1.2862   -1.3730 N   0  0  0  0  0  0  0  0  0  0  0  0
    0.7255    0.6363   -1.9339 C   0  0  0  0  0  0  0  0  0  0  0  0
   -0.3337    0.1979   -1.2068 O   0  0  0  0  0  0  0  0  0  0  0  0
   -1.5981   -1.7828    0.0457 H   0  0  0  0  0  0  0  0  0  0  0  0
    0.2876   -0.3861    2.0704 H   0  0  0  0  0  0  0  0  0  0  0  0
    0.8521   -1.2946    0.6473 H   0  0  0  0  0  0  0  0  0  0  0  0
   -0.8910    1.2151    0.4943 H   0  0  0  0  0  0  0  0  0  0  0  0
    1.1476    2.4462    0.3158 H   0  0  0  0  0  0  0  0  0  0  0  0
    2.0628    0.9812    0.6797 H   0  0  0  0  0  0  0  0  0  0  0  0
    0.6799    0.3800   -2.9865 H   0  0  0  0  0  0  0  0  0  0  0  0
  2  1  2  0  0  0  0
  3  2  1  0  0  0  0
  3 10  1  0  0  0  0
  4 12  1  1  0  0  0
  4  3  1  0  0  0  0
  5  4  1  0  0  0  0
  5 13  1  0  0  0  0
  5 14  1  0  0  0  0
  6  5  1  0  0  0  0
  7  6  2  0  0  0  0
  7  8  1  0  0  0  0
  8  4  1  0  0  0  0
  9  2  1  0  0  0  0
 11  3  1  0  0  0  0
 15  7  1  0  0  0  0
M  END
