title
 OpenBabel02282110003D

 17 17  0  0  0  0  0  0  0  0999 V2000
   -1.7497   -2.0768    1.7707 O   0  0  0  0  0  0  0  0  0  0  0  0
   -1.4179   -0.9811    1.4024 C   0  0  0  0  0  0  0  0  0  0  0  0
    0.0198   -0.5511    1.1472 C   0  0  0  0  0  0  0  0  0  0  0  0
    0.1027    0.4043    0.0708 N   0  0  0  0  0  0  0  0  0  0  0  0
   -0.1197   -0.1272   -1.2804 C   0  0  0  0  0  0  0  0  0  0  0  0
    0.6724    0.8116   -2.1490 C   0  0  0  0  0  0  0  0  0  0  0  0
    1.4480    1.5959   -1.4075 C   0  0  0  0  0  0  0  0  0  0  0  0
    1.2779    1.2844    0.0541 C   0  0  0  0  0  0  0  0  0  0  0  0
   -2.1557   -0.1642    1.2301 H   0  0  0  0  0  0  0  0  0  0  0  0
    0.3538   -0.0638    2.0751 H   0  0  0  0  0  0  0  0  0  0  0  0
    0.6406   -1.4559    1.0139 H   0  0  0  0  0  0  0  0  0  0  0  0
    0.2448   -1.1679   -1.3921 H   0  0  0  0  0  0  0  0  0  0  0  0
   -1.1903   -0.1462   -1.5307 H   0  0  0  0  0  0  0  0  0  0  0  0
    0.6094    0.8014   -3.2298 H   0  0  0  0  0  0  0  0  0  0  0  0
    2.1391    2.3471   -1.7683 H   0  0  0  0  0  0  0  0  0  0  0  0
    1.1078    2.1794    0.6701 H   0  0  0  0  0  0  0  0  0  0  0  0
    2.1873    0.7954    0.4544 H   0  0  0  0  0  0  0  0  0  0  0  0
  2  1  2  0  0  0  0
  3  2  1  0  0  0  0
  3 10  1  0  0  0  0
  4  3  1  0  0  0  0
  5  4  1  0  0  0  0
  6  7  2  0  0  0  0
  6  5  1  0  0  0  0
  7  8  1  0  0  0  0
  8  4  1  0  0  0  0
  8 17  1  0  0  0  0
  8 16  1  0  0  0  0
  9  2  1  0  0  0  0
 11  3  1  0  0  0  0
 12  5  1  0  0  0  0
 13  5  1  0  0  0  0
 14  6  1  0  0  0  0
 15  7  1  0  0  0  0
M  END
