title
 OpenBabel02282110003D

 16 16  0  0  1  0  0  0  0  0999 V2000
   -1.3722   -2.8017   -0.4984 O   0  0  0  0  0  0  0  0  0  0  0  0
   -1.3545   -1.6072   -0.5040 C   0  0  0  0  0  0  0  0  0  0  0  0
   -0.2914   -0.8900   -0.1032 O   0  0  0  0  0  0  0  0  0  0  0  0
   -0.3727    0.5485   -0.1493 C   0  0  1  0  0  0  0  0  0  0  0  0
   -0.1085    1.1075    1.2690 C   0  0  0  0  0  0  0  0  0  0  0  0
    1.3296    1.5607    1.2085 C   0  0  0  0  0  0  0  0  0  0  0  0
    1.8078    1.5478   -0.0338 C   0  0  0  0  0  0  0  0  0  0  0  0
    0.7780    1.0836   -1.0345 C   0  0  0  0  0  0  0  0  0  0  0  0
   -2.2006   -0.9726   -0.8357 H   0  0  0  0  0  0  0  0  0  0  0  0
   -1.3600    0.8268   -0.5322 H   0  0  0  0  0  0  0  0  0  0  0  0
   -0.7834    1.9431    1.4977 H   0  0  0  0  0  0  0  0  0  0  0  0
   -0.2937    0.3348    2.0223 H   0  0  0  0  0  0  0  0  0  0  0  0
    1.8766    1.8740    2.0901 H   0  0  0  0  0  0  0  0  0  0  0  0
    2.8067    1.8489   -0.3267 H   0  0  0  0  0  0  0  0  0  0  0  0
    1.1402    0.2961   -1.7035 H   0  0  0  0  0  0  0  0  0  0  0  0
    0.4363    1.9102   -1.6717 H   0  0  0  0  0  0  0  0  0  0  0  0
  2  1  2  0  0  0  0
  2  3  1  0  0  0  0
  4 10  1  6  0  0  0
  4  3  1  0  0  0  0
  4  5  1  0  0  0  0
  5 11  1  0  0  0  0
  5 12  1  0  0  0  0
  6  5  1  0  0  0  0
  6 13  1  0  0  0  0
  7  6  2  0  0  0  0
  8  4  1  0  0  0  0
  8  7  1  0  0  0  0
  9  2  1  0  0  0  0
 14  7  1  0  0  0  0
 15  8  1  0  0  0  0
 16  8  1  0  0  0  0
M  END
