18
title
O -1.6536295 -2.234389 1.4470115
C -0.964932 -2.0346236 0.4797758
C 0.3367992 -1.2673085 0.47820225
C 0.30410415 -0.07579146 -0.49190596
C -0.7116933 1.0387274 -0.11106677
C -0.01806914 2.3034713 -0.55721855
C 1.2659492 2.0965612 -0.8430747
C 1.6674869 0.6554328 -0.6389607
H -1.267023 -2.4180143 -0.52483773
H 0.5559762 -0.94371235 1.5006418
H 1.1268218 -1.9645745 0.16215788
H 0.025606342 -0.4494902 -1.4854487
H -1.6884732 0.8908299 -0.5860523
H -0.9014126 1.0583674 0.9722741
H -0.5219189 3.262993 -0.59381044
H 1.9721367 2.8609388 -1.1479328
H 2.281749 0.54909503 0.2677154
H 2.26575 0.24928392 -1.4627496
