15
title
O -1.860149 1.2474426 -1.2326231
C -2.156985 0.74144304 -0.17088945
N -1.3100803 0.052374236 0.6521448
C 0.038959946 -0.2277497 0.42775926
N 0.67529887 -1.0586438 1.165445
C 2.0563662 -1.041001 0.6509815
C 1.9911625 -0.29551268 -0.71384525
N 0.7257039 0.43062675 -0.5658559
H -3.1771517 0.7903596 0.25100935
H -1.6861789 -0.3871433 1.4795692
H 2.7036602 -0.5074717 1.3600341
H 2.448712 -2.0570552 0.55492604
H 2.8290365 0.3880483 -0.87240326
H 1.953357 -0.9978665 -1.5584859
H 0.19811293 0.7751887 -1.3560209
