title
 OpenBabel02282110003D

 14 14  0  0  0  0  0  0  0  0999 V2000
   -2.6115   -0.6988    0.3396 O   0  0  0  0  0  0  0  0  0  0  0  0
   -2.2944    0.4492    0.1950 C   0  0  0  0  0  0  0  0  0  0  0  0
   -1.0094    0.9343    0.0135 N   0  0  0  0  0  0  0  0  0  0  0  0
    0.1729    0.2174   -0.0393 C   0  0  0  0  0  0  0  0  0  0  0  0
    0.3507   -1.0314    0.0641 N   0  0  0  0  0  0  0  0  0  0  0  0
    1.7987   -1.2384   -0.0662 C   0  0  0  0  0  0  0  0  0  0  0  0
    2.3954    0.1831   -0.2667 C   0  0  0  0  0  0  0  0  0  0  0  0
    1.2385    1.0502   -0.2312 O   0  0  0  0  0  0  0  0  0  0  0  0
   -3.0154    1.2912    0.1885 H   0  0  0  0  0  0  0  0  0  0  0  0
   -0.9011    1.9315   -0.0939 H   0  0  0  0  0  0  0  0  0  0  0  0
    2.1900   -1.7288    0.8314 H   0  0  0  0  0  0  0  0  0  0  0  0
    2.0087   -1.8989   -0.9142 H   0  0  0  0  0  0  0  0  0  0  0  0
    3.0758    0.4903    0.5319 H   0  0  0  0  0  0  0  0  0  0  0  0
    2.8929    0.3185   -1.2307 H   0  0  0  0  0  0  0  0  0  0  0  0
  2  1  2  0  0  0  0
  3  2  1  0  0  0  0
  4  3  1  0  0  0  0
  4  5  2  0  0  0  0
  6  5  1  0  0  0  0
  6 11  1  0  0  0  0
  7  8  1  0  0  0  0
  7  6  1  0  0  0  0
  7 13  1  0  0  0  0
  8  4  1  0  0  0  0
  9  2  1  0  0  0  0
 10  3  1  0  0  0  0
 12  6  1  0  0  0  0
 14  7  1  0  0  0  0
M  END
