title
 OpenBabel02282110003D

 14 14  0  0  1  0  0  0  0  0999 V2000
    1.1079    2.8810    0.6158 N   0  0  0  0  0  0  0  0  0  0  0  0
    1.1485    1.6241    0.6638 C   0  0  0  0  0  0  0  0  0  0  0  0
   -0.0027    0.9133    0.5470 O   0  0  0  0  0  0  0  0  0  0  0  0
    0.1222   -0.4860    0.5048 C   0  0  1  0  0  0  0  0  0  0  0  0
   -1.2803   -1.1223    0.5629 C   0  0  0  0  0  0  0  0  0  0  0  0
   -1.5267   -1.6236   -0.7971 N   0  0  0  0  0  0  0  0  0  0  0  0
   -0.4422   -1.4522   -1.4230 C   0  0  0  0  0  0  0  0  0  0  0  0
    0.6260   -0.8974   -0.7756 O   0  0  0  0  0  0  0  0  0  0  0  0
    2.0422    3.2660    0.7388 H   0  0  0  0  0  0  0  0  0  0  0  0
    2.0375    0.9962    0.8043 H   0  0  0  0  0  0  0  0  0  0  0  0
    0.8344   -0.8295    1.2608 H   0  0  0  0  0  0  0  0  0  0  0  0
   -1.3282   -1.9499    1.2773 H   0  0  0  0  0  0  0  0  0  0  0  0
   -2.0252   -0.3756    0.8475 H   0  0  0  0  0  0  0  0  0  0  0  0
   -0.2510   -1.7171   -2.4560 H   0  0  0  0  0  0  0  0  0  0  0  0
  1  2  2  0  0  0  0
  1  9  1  0  0  0  0
  2 10  1  0  0  0  0
  3  2  1  0  0  0  0
  4  3  1  0  0  0  0
  4  5  1  0  0  0  0
  4 11  1  1  0  0  0
  5 13  1  0  0  0  0
  5 12  1  0  0  0  0
  6  5  1  0  0  0  0
  7  6  2  0  0  0  0
  7  8  1  0  0  0  0
  8  4  1  0  0  0  0
 14  7  1  0  0  0  0
M  END
