14
title
O -2.6115222 -0.6988114 0.3395728
C -2.294424 0.4492237 0.19499512
N -1.0094405 0.9342938 0.013522274
C 0.17294796 0.21740729 -0.039283365
N 0.35065728 -1.0314056 0.06405773
C 1.7986676 -1.2384105 -0.06621227
C 2.3953748 0.18313807 -0.26669186
O 1.238501 1.0501547 -0.2311955
H -3.0154183 1.2911929 0.18854806
H -0.9011068 1.9314827 -0.09386037
H 2.1900363 -1.7288278 0.83136
H 2.0086994 -1.8988651 -0.91415536
H 3.0757933 0.49034184 0.5319318
H 2.8929377 0.31852013 -1.2306633
