13
title
O -1.1787279 -2.804069 0.69732654
C -1.1445936 -1.6145434 0.73182017
O -0.009752799 -0.9134772 0.47732076
C -0.11091214 0.4985111 0.46878967
C 1.3011683 1.1132035 0.53790295
N 1.5531541 1.6293349 -0.81501585
C 0.46615487 1.4838905 -1.4420954
O -0.6091709 0.9323685 -0.79858
H -2.0041733 -0.9644699 0.9810849
H -0.81476665 0.8295636 1.2368617
H 1.3585166 1.9307656 1.2629585
H 2.0375483 0.3547106 0.81332296
H 0.27422303 1.7670202 -2.469869
