18
title
O -1.6017909 -2.3670547 1.2989945
C -1.4816064 -1.1700872 1.3540365
C -0.17087846 -0.42053264 1.3130279
C -0.11089889 0.5735224 0.13425033
C 1.1493101 1.4809613 0.15464787
C 1.5439401 1.6822627 -1.329803
C 0.8669738 0.51972467 -2.017905
C -0.025756992 -0.077643104 -1.2316628
H -2.379196 -0.51011366 1.4326618
H -0.08599917 0.14382438 2.2531989
H 0.65116113 -1.1407423 1.2647443
H -1.0193937 1.1957862 0.1808093
H 0.9803359 2.4208019 0.68672264
H 1.9564784 0.95347697 0.67492574
H 1.1684046 2.6363509 -1.7262366
H 2.6294434 1.6961765 -1.4775145
H 1.0740969 0.24833803 -3.0472965
H -0.6553177 -0.9141961 -1.5156853
