17
title
N 1.1006868 3.092202 0.46214953
C 1.1512089 1.832766 0.5368505
O 0.26018763 1.0772749 -0.12850109
C 0.30465835 -0.34530517 0.06284487
C -0.86467427 -0.8417689 0.9467509
C -1.3959138 -2.1232586 0.25651228
C -0.8214275 -2.0253859 -1.1362114
C 0.09282081 -1.0645287 -1.2435249
H 1.8542895 3.5006459 1.0109173
H 1.8843458 1.2435772 1.1075501
H 1.2846754 -0.59741443 0.49560094
H -0.569846 -1.0025365 1.9864398
H -1.6295779 -0.0605913 0.93460244
H -1.0374508 -3.031491 0.75931495
H -2.4898372 -2.184615 0.2597718
H -1.1149216 -2.6975248 -1.9351355
H 0.6642933 -0.8126859 -2.128745
