title
 OpenBabel02282110003D

 17 17  0  0  1  0  0  0  0  0999 V2000
    0.8735    2.9979   -0.1444 N   0  0  0  0  0  0  0  0  0  0  0  0
    0.9512    1.8147    0.2876 C   0  0  0  0  0  0  0  0  0  0  0  0
   -0.1489    1.0310    0.3007 O   0  0  0  0  0  0  0  0  0  0  0  0
    0.0562   -0.3287    0.7039 C   0  0  1  0  0  0  0  0  0  0  0  0
   -1.3301   -0.9992    0.7548 C   0  0  0  0  0  0  0  0  0  0  0  0
   -1.3006   -1.9975   -0.4272 C   0  0  0  0  0  0  0  0  0  0  0  0
   -0.0745   -1.5386   -1.2263 C   0  0  0  0  0  0  0  0  0  0  0  0
    0.8232   -1.0272   -0.2330 O   0  0  0  0  0  0  0  0  0  0  0  0
    1.7807    3.4533   -0.0652 H   0  0  0  0  0  0  0  0  0  0  0  0
    1.8488    1.3202    0.6797 H   0  0  0  0  0  0  0  0  0  0  0  0
    0.6117   -0.3393    1.6477 H   0  0  0  0  0  0  0  0  0  0  0  0
   -1.4890   -1.4986    1.7122 H   0  0  0  0  0  0  0  0  0  0  0  0
   -2.0998   -0.2350    0.6380 H   0  0  0  0  0  0  0  0  0  0  0  0
   -1.1527   -3.0190   -0.0664 H   0  0  0  0  0  0  0  0  0  0  0  0
   -2.2175   -1.9785   -1.0200 H   0  0  0  0  0  0  0  0  0  0  0  0
    0.4445   -2.3402   -1.7554 H   0  0  0  0  0  0  0  0  0  0  0  0
   -0.3345   -0.7486   -1.9431 H   0  0  0  0  0  0  0  0  0  0  0  0
  1  9  1  0  0  0  0
  1  2  2  0  0  0  0
  2  3  1  0  0  0  0
  2 10  1  0  0  0  0
  3  4  1  0  0  0  0
  4  5  1  0  0  0  0
  4 11  1  1  0  0  0
  5 12  1  0  0  0  0
  6 14  1  0  0  0  0
  6  5  1  0  0  0  0
  7  6  1  0  0  0  0
  7  8  1  0  0  0  0
  8  4  1  0  0  0  0
 13  5  1  0  0  0  0
 15  6  1  0  0  0  0
 16  7  1  0  0  0  0
 17  7  1  0  0  0  0
M  END
