title
 OpenBabel02282110003D

 18 18  0  0  1  0  0  0  0  0999 V2000
   -1.6018   -2.3671    1.2990 O   0  0  0  0  0  0  0  0  0  0  0  0
   -1.4816   -1.1701    1.3540 C   0  0  0  0  0  0  0  0  0  0  0  0
   -0.1709   -0.4205    1.3130 C   0  0  0  0  0  0  0  0  0  0  0  0
   -0.1109    0.5735    0.1343 C   0  0  1  0  0  0  0  0  0  0  0  0
    1.1493    1.4810    0.1546 C   0  0  0  0  0  0  0  0  0  0  0  0
    1.5439    1.6823   -1.3298 C   0  0  0  0  0  0  0  0  0  0  0  0
    0.8670    0.5197   -2.0179 C   0  0  0  0  0  0  0  0  0  0  0  0
   -0.0258   -0.0776   -1.2317 C   0  0  0  0  0  0  0  0  0  0  0  0
   -2.3792   -0.5101    1.4327 H   0  0  0  0  0  0  0  0  0  0  0  0
   -0.0860    0.1438    2.2532 H   0  0  0  0  0  0  0  0  0  0  0  0
    0.6512   -1.1407    1.2647 H   0  0  0  0  0  0  0  0  0  0  0  0
   -1.0194    1.1958    0.1808 H   0  0  0  0  0  0  0  0  0  0  0  0
    0.9803    2.4208    0.6867 H   0  0  0  0  0  0  0  0  0  0  0  0
    1.9565    0.9535    0.6749 H   0  0  0  0  0  0  0  0  0  0  0  0
    1.1684    2.6364   -1.7262 H   0  0  0  0  0  0  0  0  0  0  0  0
    2.6294    1.6962   -1.4775 H   0  0  0  0  0  0  0  0  0  0  0  0
    1.0741    0.2483   -3.0473 H   0  0  0  0  0  0  0  0  0  0  0  0
   -0.6553   -0.9142   -1.5157 H   0  0  0  0  0  0  0  0  0  0  0  0
  1  2  2  0  0  0  0
  2  9  1  0  0  0  0
  3  2  1  0  0  0  0
  3 10  1  0  0  0  0
  4  5  1  0  0  0  0
  4 12  1  1  0  0  0
  4  3  1  0  0  0  0
  5 14  1  0  0  0  0
  5 13  1  0  0  0  0
  6  5  1  0  0  0  0
  7  6  1  0  0  0  0
  7  8  2  0  0  0  0
  8  4  1  0  0  0  0
 11  3  1  0  0  0  0
 15  6  1  0  0  0  0
 16  6  1  0  0  0  0
 17  7  1  0  0  0  0
 18  8  1  0  0  0  0
M  END
