16
title
O -1.9130907 -1.8006595 2.0953953
C -1.2466465 -1.5488205 1.1244167
C 0.0121245 -0.7043185 1.1500927
C -0.046931542 0.4577404 0.15523885
C 1.2363546 1.3047012 0.08326387
O 1.2841804 1.6942295 -1.278935
C 0.80776066 0.57938683 -1.984226
O -0.18994848 -0.03345551 -1.1818476
H -1.5203644 -1.9308951 0.11800706
H 0.1631381 -0.335359 2.1694484
H 0.8591997 -1.3485754 0.8771615
H -0.91002244 1.0980588 0.383659
H 1.2081552 2.2030017 0.70222366
H 2.1180995 0.7026824 0.35620606
H 0.3722696 0.91916883 -2.9291728
H 1.6188455 -0.14460911 -2.178941
