title
 OpenBabel02282110003D

 16 16  0  0  1  0  0  0  0  0999 V2000
   -0.9719   -2.9535   -0.0605 O   0  0  0  0  0  0  0  0  0  0  0  0
   -0.9566   -1.8310    0.3465 C   0  0  0  0  0  0  0  0  0  0  0  0
    0.1214   -1.0283    0.2243 O   0  0  0  0  0  0  0  0  0  0  0  0
   -0.0397    0.3365    0.6644 C   0  0  1  0  0  0  0  0  0  0  0  0
    1.3652    0.9682    0.7185 C   0  0  0  0  0  0  0  0  0  0  0  0
    1.3291    2.0369   -0.3984 C   0  0  0  0  0  0  0  0  0  0  0  0
    0.1044    1.6201   -1.2199 C   0  0  0  0  0  0  0  0  0  0  0  0
   -0.7961    1.0652   -0.2511 O   0  0  0  0  0  0  0  0  0  0  0  0
   -1.8024   -1.3448    0.8681 H   0  0  0  0  0  0  0  0  0  0  0  0
   -0.5839    0.3336    1.6138 H   0  0  0  0  0  0  0  0  0  0  0  0
    1.5657    1.4001    1.7006 H   0  0  0  0  0  0  0  0  0  0  0  0
    2.1114    0.1949    0.5296 H   0  0  0  0  0  0  0  0  0  0  0  0
    1.1746    3.0330    0.0250 H   0  0  0  0  0  0  0  0  0  0  0  0
    2.2453    2.0596   -0.9920 H   0  0  0  0  0  0  0  0  0  0  0  0
   -0.4128    2.4466   -1.7107 H   0  0  0  0  0  0  0  0  0  0  0  0
    0.3610    0.8634   -1.9731 H   0  0  0  0  0  0  0  0  0  0  0  0
  1  2  2  0  0  0  0
  2  9  1  0  0  0  0
  3  2  1  0  0  0  0
  3  4  1  0  0  0  0
  4  5  1  0  0  0  0
  4 10  1  1  0  0  0
  5 11  1  0  0  0  0
  6 13  1  0  0  0  0
  6  5  1  0  0  0  0
  7  6  1  0  0  0  0
  7  8  1  0  0  0  0
  8  4  1  0  0  0  0
 12  5  1  0  0  0  0
 14  6  1  0  0  0  0
 15  7  1  0  0  0  0
 16  7  1  0  0  0  0
M  END
