title
 OpenBabel02282110003D

 20 20  0  0  0  0  0  0  0  0999 V2000
   -1.6651   -2.4012    1.3756 O   0  0  0  0  0  0  0  0  0  0  0  0
   -0.9355   -2.1024    0.4656 C   0  0  0  0  0  0  0  0  0  0  0  0
    0.3320   -1.2890    0.5910 C   0  0  0  0  0  0  0  0  0  0  0  0
    0.3459   -0.0792   -0.3541 C   0  0  0  0  0  0  0  0  0  0  0  0
   -0.6985    1.0052   -0.0245 C   0  0  0  0  0  0  0  0  0  0  0  0
   -0.2099    2.2705   -0.7705 C   0  0  0  0  0  0  0  0  0  0  0  0
    1.3073    2.0428   -1.0480 C   0  0  0  0  0  0  0  0  0  0  0  0
    1.6634    0.7147   -0.3491 C   0  0  0  0  0  0  0  0  0  0  0  0
   -1.1649   -2.4254   -0.5789 H   0  0  0  0  0  0  0  0  0  0  0  0
    0.4514   -0.9826    1.6353 H   0  0  0  0  0  0  0  0  0  0  0  0
    1.1690   -1.9554    0.3338 H   0  0  0  0  0  0  0  0  0  0  0  0
    0.1661   -0.4372   -1.3793 H   0  0  0  0  0  0  0  0  0  0  0  0
   -1.7178    0.7169   -0.2985 H   0  0  0  0  0  0  0  0  0  0  0  0
   -0.6998    1.1773    1.0592 H   0  0  0  0  0  0  0  0  0  0  0  0
   -0.7546    2.4020   -1.7101 H   0  0  0  0  0  0  0  0  0  0  0  0
   -0.3881    3.1732   -0.1802 H   0  0  0  0  0  0  0  0  0  0  0  0
    1.4851    1.9581   -2.1249 H   0  0  0  0  0  0  0  0  0  0  0  0
    1.9258    2.8715   -0.6935 H   0  0  0  0  0  0  0  0  0  0  0  0
    1.9662    0.8987    0.6899 H   0  0  0  0  0  0  0  0  0  0  0  0
    2.4861    0.1809   -0.8348 H   0  0  0  0  0  0  0  0  0  0  0  0
  2  3  1  0  0  0  0
  2  1  2  0  0  0  0
  3 10  1  0  0  0  0
  4  8  1  0  0  0  0
  4  5  1  0  0  0  0
  4  3  1  0  0  0  0
  5 14  1  0  0  0  0
  6 16  1  0  0  0  0
  6  5  1  0  0  0  0
  7  6  1  0  0  0  0
  7 18  1  0  0  0  0
  7  8  1  0  0  0  0
  8 19  1  0  0  0  0
  9  2  1  0  0  0  0
 11  3  1  0  0  0  0
 12  4  1  0  0  0  0
 13  5  1  0  0  0  0
 15  6  1  0  0  0  0
 17  7  1  0  0  0  0
 20  8  1  0  0  0  0
M  END
