16
title
O -0.5863121 -3.1670249 0.21772845
C -0.86943316 -2.0212002 0.3953997
O -0.09457953 -1.0041605 -0.025046123
C -0.5072669 0.34351885 0.26641953
C 0.5553425 1.0395199 1.1288888
C 1.4602697 1.6639 0.06280382
O 0.5556714 2.1174185 -0.93663955
C -0.49625203 1.1689082 -1.0433666
H -1.7867299 -1.6761712 0.91266876
H -1.4934076 0.31705177 0.74013793
H 0.08572917 1.8260075 1.7273973
H 1.059428 0.33783543 1.795852
H 2.0333767 2.5258029 0.41203195
H 2.158325 0.9152776 -0.3425328
H -0.33811697 0.48525774 -1.888175
H -1.4309971 1.715676 -1.2027031
