title
 OpenBabel02282110003D

 16 16  0  0  1  0  0  0  0  0999 V2000
   -1.9131   -1.8007    2.0954 O   0  0  0  0  0  0  0  0  0  0  0  0
   -1.2466   -1.5488    1.1244 C   0  0  0  0  0  0  0  0  0  0  0  0
    0.0121   -0.7043    1.1501 C   0  0  0  0  0  0  0  0  0  0  0  0
   -0.0469    0.4577    0.1552 C   0  0  1  0  0  0  0  0  0  0  0  0
    1.2364    1.3047    0.0833 C   0  0  0  0  0  0  0  0  0  0  0  0
    1.2842    1.6942   -1.2789 O   0  0  0  0  0  0  0  0  0  0  0  0
    0.8078    0.5794   -1.9842 C   0  0  0  0  0  0  0  0  0  0  0  0
   -0.1899   -0.0335   -1.1818 O   0  0  0  0  0  0  0  0  0  0  0  0
   -1.5204   -1.9309    0.1180 H   0  0  0  0  0  0  0  0  0  0  0  0
    0.1631   -0.3354    2.1694 H   0  0  0  0  0  0  0  0  0  0  0  0
    0.8592   -1.3486    0.8772 H   0  0  0  0  0  0  0  0  0  0  0  0
   -0.9100    1.0981    0.3837 H   0  0  0  0  0  0  0  0  0  0  0  0
    1.2082    2.2030    0.7022 H   0  0  0  0  0  0  0  0  0  0  0  0
    2.1181    0.7027    0.3562 H   0  0  0  0  0  0  0  0  0  0  0  0
    0.3723    0.9192   -2.9292 H   0  0  0  0  0  0  0  0  0  0  0  0
    1.6188   -0.1446   -2.1789 H   0  0  0  0  0  0  0  0  0  0  0  0
  2  3  1  0  0  0  0
  2  1  2  0  0  0  0
  3 10  1  0  0  0  0
  4 12  1  1  0  0  0
  4  3  1  0  0  0  0
  5  4  1  0  0  0  0
  5 14  1  0  0  0  0
  5 13  1  0  0  0  0
  6  5  1  0  0  0  0
  7  6  1  0  0  0  0
  7  8  1  0  0  0  0
  8  4  1  0  0  0  0
  9  2  1  0  0  0  0
 11  3  1  0  0  0  0
 15  7  1  0  0  0  0
 16  7  1  0  0  0  0
M  END
