title
 OpenBabel02282110003D

 16 16  0  0  1  0  0  0  0  0999 V2000
   -0.5863   -3.1670    0.2177 O   0  0  0  0  0  0  0  0  0  0  0  0
   -0.8694   -2.0212    0.3954 C   0  0  0  0  0  0  0  0  0  0  0  0
   -0.0946   -1.0042   -0.0250 O   0  0  0  0  0  0  0  0  0  0  0  0
   -0.5073    0.3435    0.2664 C   0  0  1  0  0  0  0  0  0  0  0  0
    0.5553    1.0395    1.1289 C   0  0  0  0  0  0  0  0  0  0  0  0
    1.4603    1.6639    0.0628 C   0  0  0  0  0  0  0  0  0  0  0  0
    0.5557    2.1174   -0.9366 O   0  0  0  0  0  0  0  0  0  0  0  0
   -0.4963    1.1689   -1.0434 C   0  0  0  0  0  0  0  0  0  0  0  0
   -1.7867   -1.6762    0.9127 H   0  0  0  0  0  0  0  0  0  0  0  0
   -1.4934    0.3171    0.7401 H   0  0  0  0  0  0  0  0  0  0  0  0
    0.0857    1.8260    1.7274 H   0  0  0  0  0  0  0  0  0  0  0  0
    1.0594    0.3378    1.7959 H   0  0  0  0  0  0  0  0  0  0  0  0
    2.0334    2.5258    0.4120 H   0  0  0  0  0  0  0  0  0  0  0  0
    2.1583    0.9153   -0.3425 H   0  0  0  0  0  0  0  0  0  0  0  0
   -0.3381    0.4853   -1.8882 H   0  0  0  0  0  0  0  0  0  0  0  0
   -1.4310    1.7157   -1.2027 H   0  0  0  0  0  0  0  0  0  0  0  0
  1  2  2  0  0  0  0
  2  9  1  0  0  0  0
  3  4  1  0  0  0  0
  3  2  1  0  0  0  0
  4 10  1  1  0  0  0
  4  5  1  0  0  0  0
  5 11  1  0  0  0  0
  5 12  1  0  0  0  0
  6 13  1  0  0  0  0
  6  5  1  0  0  0  0
  7  6  1  0  0  0  0
  8  7  1  0  0  0  0
  8  4  1  0  0  0  0
 14  6  1  0  0  0  0
 15  8  1  0  0  0  0
 16  8  1  0  0  0  0
M  END
