title
 OpenBabel02282110003D

 17 17  0  0  1  0  0  0  0  0999 V2000
   -2.3900   -1.1543   -1.2380 O   0  0  0  0  0  0  0  0  0  0  0  0
   -2.2621   -0.1881   -0.5153 C   0  0  0  0  0  0  0  0  0  0  0  0
   -1.0927    0.2331    0.0343 N   0  0  0  0  0  0  0  0  0  0  0  0
    0.1758   -0.4531   -0.1589 C   0  0  1  0  0  0  0  0  0  0  0  0
    1.2002    0.4048   -0.9472 C   0  0  0  0  0  0  0  0  0  0  0  0
    2.0422    1.0800    0.1691 C   0  0  0  0  0  0  0  0  0  0  0  0
    1.4697    0.6692    1.4123 O   0  0  0  0  0  0  0  0  0  0  0  0
    0.9011   -0.6121    1.1829 C   0  0  0  0  0  0  0  0  0  0  0  0
   -3.1091    0.4646   -0.2239 H   0  0  0  0  0  0  0  0  0  0  0  0
   -1.0991    1.0431    0.6356 H   0  0  0  0  0  0  0  0  0  0  0  0
   -0.0543   -1.3963   -0.6535 H   0  0  0  0  0  0  0  0  0  0  0  0
    1.8236   -0.2304   -1.5813 H   0  0  0  0  0  0  0  0  0  0  0  0
    0.6927    1.1241   -1.5919 H   0  0  0  0  0  0  0  0  0  0  0  0
    3.0932    0.7617    0.1149 H   0  0  0  0  0  0  0  0  0  0  0  0
    2.0156    2.1724    0.1395 H   0  0  0  0  0  0  0  0  0  0  0  0
    0.2363   -0.8495    2.0161 H   0  0  0  0  0  0  0  0  0  0  0  0
    1.6803   -1.3886    1.1109 H   0  0  0  0  0  0  0  0  0  0  0  0
  1  2  2  0  0  0  0
  2  9  1  0  0  0  0
  2  3  1  0  0  0  0
  3 10  1  0  0  0  0
  4 11  1  6  0  0  0
  4  3  1  0  0  0  0
  4  8  1  0  0  0  0
  5  4  1  0  0  0  0
  5  6  1  0  0  0  0
  6  7  1  0  0  0  0
  8  7  1  0  0  0  0
  8 16  1  0  0  0  0
 12  5  1  0  0  0  0
 13  5  1  0  0  0  0
 14  6  1  0  0  0  0
 15  6  1  0  0  0  0
 17  8  1  0  0  0  0
M  END
