18
title
O -0.37409583 -3.1392527 -0.15052195
C -0.75062436 -2.0207982 -0.33891222
O -0.06793663 -0.94054115 0.07197901
C -0.59328014 0.37142572 -0.23632033
C -0.6100665 1.2113377 1.0623302
C 0.6189203 2.1594343 0.98217535
C 1.4543468 1.6384293 -0.20435342
C 0.39138272 1.0898157 -1.1676259
H -1.6933957 -1.7606369 -0.860678
H -1.588483 0.24893843 -0.6772006
H -1.5457233 1.770496 1.1480147
H -0.55738217 0.5360557 1.9191401
H 0.28860953 3.1844673 0.7821518
H 1.1852757 2.1844678 1.9161096
H 2.0858989 2.408986 -0.653639
H 2.106434 0.82037413 0.11948799
H 0.7821325 0.4247752 -1.941665
H -0.13250074 1.9161426 -1.6644055
