20
title
O -1.6650966 -2.4012063 1.3755527
C -0.93553764 -2.1023884 0.46559536
C 0.33195975 -1.2890427 0.5909606
C 0.34591356 -0.079221494 -0.3541279
C -0.69848484 1.0051825 -0.024499198
C -0.20991401 2.2704685 -0.7704773
C 1.3073071 2.0427735 -1.0480225
C 1.663436 0.7147343 -0.3491322
H -1.1649398 -2.4253612 -0.57887125
H 0.45135096 -0.9825952 1.6352755
H 1.1690291 -1.9554307 0.33383444
H 0.16614391 -0.43722415 -1.3793079
H -1.7177896 0.71693707 -0.29850832
H -0.69979775 1.1772501 1.0591813
H -0.7546303 2.4019983 -1.7100896
H -0.3881357 3.173218 -0.18020947
H 1.4850861 1.9580915 -2.1249406
H 1.9258126 2.871475 -0.69347143
H 1.9662036 0.8987298 0.68992835
H 2.4861417 0.18092535 -0.8348081
