title
 OpenBabel02282110003D

 18 18  0  0  0  0  0  0  0  0999 V2000
   -0.3741   -3.1393   -0.1505 O   0  0  0  0  0  0  0  0  0  0  0  0
   -0.7506   -2.0208   -0.3389 C   0  0  0  0  0  0  0  0  0  0  0  0
   -0.0679   -0.9405    0.0720 O   0  0  0  0  0  0  0  0  0  0  0  0
   -0.5933    0.3714   -0.2363 C   0  0  0  0  0  0  0  0  0  0  0  0
   -0.6101    1.2113    1.0623 C   0  0  0  0  0  0  0  0  0  0  0  0
    0.6189    2.1594    0.9822 C   0  0  0  0  0  0  0  0  0  0  0  0
    1.4543    1.6384   -0.2044 C   0  0  0  0  0  0  0  0  0  0  0  0
    0.3914    1.0898   -1.1676 C   0  0  0  0  0  0  0  0  0  0  0  0
   -1.6934   -1.7606   -0.8607 H   0  0  0  0  0  0  0  0  0  0  0  0
   -1.5885    0.2489   -0.6772 H   0  0  0  0  0  0  0  0  0  0  0  0
   -1.5457    1.7705    1.1480 H   0  0  0  0  0  0  0  0  0  0  0  0
   -0.5574    0.5361    1.9191 H   0  0  0  0  0  0  0  0  0  0  0  0
    0.2886    3.1845    0.7822 H   0  0  0  0  0  0  0  0  0  0  0  0
    1.1853    2.1845    1.9161 H   0  0  0  0  0  0  0  0  0  0  0  0
    2.0859    2.4090   -0.6536 H   0  0  0  0  0  0  0  0  0  0  0  0
    2.1064    0.8204    0.1195 H   0  0  0  0  0  0  0  0  0  0  0  0
    0.7821    0.4248   -1.9417 H   0  0  0  0  0  0  0  0  0  0  0  0
   -0.1325    1.9161   -1.6644 H   0  0  0  0  0  0  0  0  0  0  0  0
  2  1  2  0  0  0  0
  2  3  1  0  0  0  0
  4  3  1  0  0  0  0
  4  5  1  0  0  0  0
  5 11  1  0  0  0  0
  5 12  1  0  0  0  0
  6  5  1  0  0  0  0
  6 14  1  0  0  0  0
  7 16  1  0  0  0  0
  7  6  1  0  0  0  0
  8  4  1  0  0  0  0
  8  7  1  0  0  0  0
  9  2  1  0  0  0  0
 10  4  1  0  0  0  0
 13  6  1  0  0  0  0
 15  7  1  0  0  0  0
 17  8  1  0  0  0  0
 18  8  1  0  0  0  0
M  END
