16
title
O -0.9718873 -2.9534583 -0.06050818
C -0.95660245 -1.8309618 0.34646165
O 0.12136371 -1.0282667 0.22428915
C -0.039669093 0.33652493 0.6644304
C 1.365165 0.9682085 0.7185439
C 1.3291252 2.0369208 -0.3983782
C 0.10441465 1.620085 -1.2199385
O -0.79614955 1.06516 -0.25107145
H -1.8023881 -1.344788 0.8681289
H -0.58391434 0.33361527 1.6138391
H 1.5657246 1.4000566 1.700571
H 2.1113617 0.19493361 0.5296075
H 1.1745718 3.0330489 0.024979753
H 2.2453146 2.059625 -0.9919684
H -0.41283137 2.4465744 -1.7106713
H 0.3609895 0.86340946 -1.9730724
