18
title
C -0.0715663 3.8426793 -0.052882943
C -0.0069511766 2.389746 -0.046604417
C 0.06428498 1.1840041 -0.044767365
C 0.07922324 -0.23111393 -0.028726088
C 1.1466544 -1.0309982 -0.18124032
C 0.78020006 -2.4917681 -0.16149534
C -0.6756347 -2.4835708 0.3720509
C -1.1980236 -1.0486715 0.12110743
H 0.5243165 4.2712936 0.7612623
H 0.31199062 4.2554297 -0.99314487
H -1.1011653 4.1970463 0.06890753
H 2.1575081 -0.6753783 -0.34330237
H 0.8434451 -2.918245 -1.1738038
H 1.4529661 -3.0924475 0.4614931
H -1.3019245 -3.248419 -0.09379953
H -0.6669538 -2.6836379 1.4480704
H -1.8340497 -0.6791518 0.9316029
H -1.7944093 -0.97917867 -0.7984904
