title
 OpenBabel02282110003D

 18 18  0  0  1  0  0  0  0  0999 V2000
    0.3272    3.6811   -0.5263 C   0  0  0  0  0  0  0  0  0  0  0  0
    0.2907    2.2253   -0.5161 C   0  0  0  0  0  0  0  0  0  0  0  0
    0.2611    1.0211   -0.5095 C   0  0  0  0  0  0  0  0  0  0  0  0
    0.2221   -0.4381   -0.4919 C   0  0  1  0  0  0  0  0  0  0  0  0
    0.9775   -1.0824    0.7136 C   0  0  0  0  0  0  0  0  0  0  0  0
    0.1728   -2.3560    1.0688 C   0  0  0  0  0  0  0  0  0  0  0  0
   -1.1904   -2.0694    0.4838 C   0  0  0  0  0  0  0  0  0  0  0  0
   -1.1723   -1.0360   -0.3532 C   0  0  0  0  0  0  0  0  0  0  0  0
    1.0685    4.0664    0.1828 H   0  0  0  0  0  0  0  0  0  0  0  0
    0.5875    4.0682   -1.5179 H   0  0  0  0  0  0  0  0  0  0  0  0
   -0.6442    4.1069   -0.2504 H   0  0  0  0  0  0  0  0  0  0  0  0
    0.6621   -0.7999   -1.4352 H   0  0  0  0  0  0  0  0  0  0  0  0
    2.0272   -1.2802    0.4851 H   0  0  0  0  0  0  0  0  0  0  0  0
    0.9471   -0.3815    1.5521 H   0  0  0  0  0  0  0  0  0  0  0  0
    0.6076   -3.2560    0.6106 H   0  0  0  0  0  0  0  0  0  0  0  0
    0.1460   -2.5449    2.1478 H   0  0  0  0  0  0  0  0  0  0  0  0
   -2.0617   -2.6767    0.7039 H   0  0  0  0  0  0  0  0  0  0  0  0
   -2.0130   -0.6539   -0.9199 H   0  0  0  0  0  0  0  0  0  0  0  0
  1  2  1  0  0  0  0
  1 11  1  0  0  0  0
  1  9  1  0  0  0  0
  2  3  3  0  0  0  0
  3  4  1  0  0  0  0
  4 12  1  6  0  0  0
  4  8  1  0  0  0  0
  4  5  1  0  0  0  0
  5  6  1  0  0  0  0
  5 14  1  0  0  0  0
  6 16  1  0  0  0  0
  7 17  1  0  0  0  0
  7  6  1  0  0  0  0
  8  7  2  0  0  0  0
 10  1  1  0  0  0  0
 13  5  1  0  0  0  0
 15  6  1  0  0  0  0
 18  8  1  0  0  0  0
M  END
