16
title
C 0.22909115 3.6103737 -0.24379109
C 0.21533063 2.1624603 -0.39068365
C 0.21124464 0.96389437 -0.505593
C 0.19904299 -0.49477056 -0.66095275
O 1.0300227 -1.1445699 0.3127138
C 0.24123545 -1.9749427 1.1613412
C -1.1452693 -1.9262199 0.5856879
C -1.1747398 -1.0976703 -0.4487282
H 0.9043612 3.915436 0.56322825
H 0.5679799 4.102145 -1.1622442
H -0.7675229 3.9982214 -0.0056481385
H 0.5948414 -0.7425437 -1.6587478
H 0.6639129 -2.9907498 1.1651441
H 0.27213195 -1.605607 2.1992466
H -1.9756448 -2.4906402 0.99065053
H -2.0230548 -0.8322966 -1.0647857
