16
title
C -0.059895393 3.8698757 -0.0674243
C 0.017340379 2.4180193 -0.052258216
C 0.1002753 1.2134593 -0.0432951
C 0.120930746 -0.19800967 -0.018521067
C 1.1530021 -1.0310208 -0.19411246
C 0.69264877 -2.452527 -0.07944309
O -0.70639896 -2.3777905 0.18005174
C -1.1282935 -1.0218843 0.23114792
H 0.58768535 4.309994 0.6993847
H 0.2541205 4.274091 -1.0364871
H -1.0819063 4.2157507 0.12178513
H 2.1777842 -0.7462229 -0.39101443
H 0.8729761 -3.0281324 -1.0021307
H 1.1975968 -2.9929023 0.7379969
H -1.5738688 -0.7979099 1.2121197
H -1.8989521 -0.8333339 -0.5314444
