20
title
C 0.600052 3.5965402 -1.1617451
C 0.49883604 2.1845078 -0.8199788
C 0.4197092 1.0151396 -0.5409365
C 0.30729526 -0.39347988 -0.190249
C 0.4764965 -0.70226675 1.3167772
C -0.06130267 -2.1411648 1.4733611
C -1.0616113 -2.3546233 0.29602614
C -1.0686103 -1.0310948 -0.49904457
H -0.3204659 3.9613516 -1.6313928
H 0.78184444 4.211183 -0.27282888
H 1.4222591 3.780134 -1.8626246
H 1.0740987 -0.9588998 -0.7403959
H 1.5093267 -0.58651763 1.6551734
H -0.13447735 0.005741067 1.887468
H 0.7581828 -2.8639655 1.410314
H -0.5322966 -2.289112 2.4488137
H -0.7275115 -3.1801834 -0.3402295
H -2.0633903 -2.6173887 0.6462008
H -1.8530115 -0.3604179 -0.1313807
H -1.2355859 -1.1699862 -1.5702505
