title
 OpenBabel02282110003D

 18 18  0  0  0  0  0  0  0  0999 V2000
   -0.0716    3.8427   -0.0529 C   0  0  0  0  0  0  0  0  0  0  0  0
   -0.0070    2.3897   -0.0466 C   0  0  0  0  0  0  0  0  0  0  0  0
    0.0643    1.1840   -0.0448 C   0  0  0  0  0  0  0  0  0  0  0  0
    0.0792   -0.2311   -0.0287 C   0  0  0  0  0  0  0  0  0  0  0  0
    1.1467   -1.0310   -0.1812 C   0  0  0  0  0  0  0  0  0  0  0  0
    0.7802   -2.4918   -0.1615 C   0  0  0  0  0  0  0  0  0  0  0  0
   -0.6756   -2.4836    0.3721 C   0  0  0  0  0  0  0  0  0  0  0  0
   -1.1980   -1.0487    0.1211 C   0  0  0  0  0  0  0  0  0  0  0  0
    0.5243    4.2713    0.7613 H   0  0  0  0  0  0  0  0  0  0  0  0
    0.3120    4.2554   -0.9931 H   0  0  0  0  0  0  0  0  0  0  0  0
   -1.1012    4.1970    0.0689 H   0  0  0  0  0  0  0  0  0  0  0  0
    2.1575   -0.6754   -0.3433 H   0  0  0  0  0  0  0  0  0  0  0  0
    0.8434   -2.9182   -1.1738 H   0  0  0  0  0  0  0  0  0  0  0  0
    1.4530   -3.0924    0.4615 H   0  0  0  0  0  0  0  0  0  0  0  0
   -1.3019   -3.2484   -0.0938 H   0  0  0  0  0  0  0  0  0  0  0  0
   -0.6670   -2.6836    1.4481 H   0  0  0  0  0  0  0  0  0  0  0  0
   -1.8340   -0.6792    0.9316 H   0  0  0  0  0  0  0  0  0  0  0  0
   -1.7944   -0.9792   -0.7985 H   0  0  0  0  0  0  0  0  0  0  0  0
  1  2  1  0  0  0  0
  1 11  1  0  0  0  0
  1  9  1  0  0  0  0
  2  3  3  0  0  0  0
  3  4  1  0  0  0  0
  4  8  1  0  0  0  0
  5  6  1  0  0  0  0
  5  4  2  0  0  0  0
  6  7  1  0  0  0  0
  6 14  1  0  0  0  0
  7 16  1  0  0  0  0
  8  7  1  0  0  0  0
  8 17  1  0  0  0  0
 10  1  1  0  0  0  0
 12  5  1  0  0  0  0
 13  6  1  0  0  0  0
 15  7  1  0  0  0  0
 18  8  1  0  0  0  0
M  END
