18
title
C 0.098024875 3.4841802 -0.44067046
C 0.2701922 2.0390966 -0.47969642
C 0.41060698 0.8434174 -0.5218786
C 0.5737125 -0.6151029 -0.5694446
C 1.0578376 -1.2023531 0.770893
C -0.26522735 -1.3316997 1.5407684
C -1.2786725 -1.6465508 0.42168212
O -0.6630522 -1.2869693 -0.8205587
H 0.6626495 3.9741485 -1.241564
H -0.95545703 3.7590017 -0.56352514
H 0.44068733 3.903404 0.51185894
H 1.2429248 -0.87755764 -1.3962951
H 1.5005819 -2.1861906 0.5862813
H 1.7958632 -0.5726303 1.2702808
H -0.23875903 -2.1056404 2.3110259
H -0.51067334 -0.3821758 2.024341
H -1.5231515 -2.7147455 0.37406248
H -2.2153125 -1.0901865 0.5484735
