19
title
C -2.3748705 2.415382 0.67727464
C -1.5101509 1.1745366 0.8807059
N -0.84191257 0.8094559 -0.3661224
C 0.039396375 -0.08837772 -0.33635643
C 0.8279281 -0.61077857 -1.5186853
C 2.0437512 -1.269092 -0.8514706
C 1.4545904 -1.7099322 0.495351
O 0.4346963 -0.7472125 0.80229527
H -1.7623699 3.2651367 0.36033437
H -3.1254401 2.23843 -0.09894487
H -2.890774 2.6884284 1.6036713
H -0.77492064 1.3492056 1.6792431
H -2.1336527 0.33711272 1.2263615
H 0.22288379 -1.351744 -2.0550365
H 1.0664562 0.19008452 -2.2183924
H 2.461967 -2.103644 -1.4175949
H 2.8378181 -0.5331085 -0.69183433
H 0.9956277 -2.7052307 0.43179792
H 2.1747627 -1.7112631 1.3170149
