17
title
C 0.55725545 2.4728615 -2.300691
C -0.07405316 1.2551986 -1.6322609
N 0.639961 0.9184134 -0.40542376
C 0.21718472 -0.046765044 0.29059446
O -0.8831972 -0.82104355 -0.021909365
C -1.0675147 -1.8153381 0.987491
C 0.04363949 -1.579092 1.9699737
C 0.7783455 -0.54972774 1.5488139
H 1.605788 2.2776983 -2.5450926
H 0.028048046 2.729628 -3.224122
H 0.5265476 3.3385985 -1.6321902
H -1.135076 1.4489901 -1.4161572
H -0.06407248 0.3984774 -2.3223553
H -2.0646443 -1.6973915 1.4335197
H -1.0252305 -2.8112395 0.5254737
H 0.1833551 -2.175012 2.8616738
H 1.6506865 -0.1080571 2.0064893
