16
title
C 0.050992288 3.463807 -0.49847382
C 0.22052634 2.0187042 -0.5103533
C 0.36452904 0.82324684 -0.5246389
C 0.54454774 -0.63938 -0.5466716
O 1.0254905 -1.1334953 0.6862167
C -0.12514746 -1.3372486 1.5021142
C -1.2938799 -1.4624972 0.4889952
O -0.67010725 -1.3200672 -0.7844115
H 0.69988376 3.94329 -1.2393214
H -0.98240197 3.7434938 -0.73042214
H 0.29865858 3.883948 0.48237526
H 1.2533767 -0.9335203 -1.326691
H 0.03855636 -2.243846 2.0899866
H -0.27636027 -0.49153355 2.1840646
H -1.7862518 -2.4378085 0.51255846
H -2.0450356 -0.6788821 0.6468326
