title
 OpenBabel02282110003D

 18 18  0  0  1  0  0  0  0  0999 V2000
    0.5253    3.6779   -0.9394 C   0  0  0  0  0  0  0  0  0  0  0  0
    0.4591    2.2410   -0.7129 C   0  0  0  0  0  0  0  0  0  0  0  0
    0.4091    1.0515   -0.5301 C   0  0  0  0  0  0  0  0  0  0  0  0
    0.3273   -0.3822   -0.3032 C   0  0  1  0  0  0  0  0  0  0  0  0
    0.7371   -0.8487    1.1214 C   0  0  0  0  0  0  0  0  0  0  0  0
   -0.1490   -2.0975    1.3598 C   0  0  0  0  0  0  0  0  0  0  0  0
   -0.9945   -2.2383    0.2185 O   0  0  0  0  0  0  0  0  0  0  0  0
   -1.0955   -0.9739   -0.4039 C   0  0  0  0  0  0  0  0  0  0  0  0
    1.1501    3.9161   -1.8075 H   0  0  0  0  0  0  0  0  0  0  0  0
   -0.4695    4.0989   -1.1231 H   0  0  0  0  0  0  0  0  0  0  0  0
    0.9496    4.1993   -0.0741 H   0  0  0  0  0  0  0  0  0  0  0  0
    0.9510   -0.9070   -1.0372 H   0  0  0  0  0  0  0  0  0  0  0  0
    1.8046   -1.0682    1.1855 H   0  0  0  0  0  0  0  0  0  0  0  0
    0.5147   -0.0626    1.8467 H   0  0  0  0  0  0  0  0  0  0  0  0
    0.4277   -3.0224    1.4563 H   0  0  0  0  0  0  0  0  0  0  0  0
   -0.7545   -1.9790    2.2699 H   0  0  0  0  0  0  0  0  0  0  0  0
   -1.8134   -0.3164    0.1133 H   0  0  0  0  0  0  0  0  0  0  0  0
   -1.4338   -1.1239   -1.4318 H   0  0  0  0  0  0  0  0  0  0  0  0
  1  2  1  0  0  0  0
  1 11  1  0  0  0  0
  2  3  3  0  0  0  0
  3  4  1  0  0  0  0
  4 12  1  6  0  0  0
  4  5  1  0  0  0  0
  5 13  1  0  0  0  0
  5  6  1  0  0  0  0
  5 14  1  0  0  0  0
  6 15  1  0  0  0  0
  6 16  1  0  0  0  0
  7  6  1  0  0  0  0
  8  4  1  0  0  0  0
  8 17  1  0  0  0  0
  8  7  1  0  0  0  0
  9  1  1  0  0  0  0
 10  1  1  0  0  0  0
 18  8  1  0  0  0  0
M  END
