title
 OpenBabel02282110003D

 17 17  0  0  0  0  0  0  0  0999 V2000
    1.6261    2.5633    1.6705 C   0  0  0  0  0  0  0  0  0  0  0  0
    1.4187    1.3675    0.7452 C   0  0  0  0  0  0  0  0  0  0  0  0
    0.0257    0.9380    0.7623 N   0  0  0  0  0  0  0  0  0  0  0  0
   -0.3036   -0.0485    0.0408 C   0  0  0  0  0  0  0  0  0  0  0  0
   -1.6897   -0.6701   -0.1013 C   0  0  0  0  0  0  0  0  0  0  0  0
   -1.5557   -1.7858   -1.0519 N   0  0  0  0  0  0  0  0  0  0  0  0
   -0.3267   -1.8028   -1.3917 C   0  0  0  0  0  0  0  0  0  0  0  0
    0.4825   -0.8342   -0.8118 N   0  0  0  0  0  0  0  0  0  0  0  0
    2.6706    2.8910    1.6620 H   0  0  0  0  0  0  0  0  0  0  0  0
    0.9957    3.4006    1.3577 H   0  0  0  0  0  0  0  0  0  0  0  0
    1.3510    2.3030    2.6966 H   0  0  0  0  0  0  0  0  0  0  0  0
    1.7276    1.6401   -0.2788 H   0  0  0  0  0  0  0  0  0  0  0  0
    2.0823    0.5433    1.0590 H   0  0  0  0  0  0  0  0  0  0  0  0
   -2.0635   -1.0324    0.8623 H   0  0  0  0  0  0  0  0  0  0  0  0
   -2.4171    0.0608   -0.4707 H   0  0  0  0  0  0  0  0  0  0  0  0
    0.1063   -2.5131   -2.0891 H   0  0  0  0  0  0  0  0  0  0  0  0
    1.4665   -0.7151   -0.9752 H   0  0  0  0  0  0  0  0  0  0  0  0
  1 11  1  0  0  0  0
  2  3  1  0  0  0  0
  2 13  1  0  0  0  0
  2  1  1  0  0  0  0
  4  3  2  0  0  0  0
  5  4  1  0  0  0  0
  5 14  1  0  0  0  0
  6  5  1  0  0  0  0
  7  6  2  0  0  0  0
  7  8  1  0  0  0  0
  8  4  1  0  0  0  0
  9  1  1  0  0  0  0
 10  1  1  0  0  0  0
 12  2  1  0  0  0  0
 15  5  1  0  0  0  0
 16  7  1  0  0  0  0
 17  8  1  0  0  0  0
M  END
