16
title
C 0.2604742 3.6594312 -0.62961316
C 0.31578976 2.2064848 -0.5691866
C 0.3563102 1.0037639 -0.5264951
C 0.4223767 -0.45166677 -0.46893567
C 0.8770235 -0.9931304 0.9221329
O 0.01916169 -2.0965939 1.1483474
C -1.1920373 -1.7157912 0.54761297
O -0.8582001 -1.0747633 -0.6645828
H 0.8686635 4.0469475 -1.4541496
H -0.7672676 4.0055485 -0.7845638
H 0.62689173 4.11261 0.29796356
H 1.0808568 -0.82391924 -1.262732
H 1.9105467 -1.3431897 0.92885345
H 0.7455873 -0.21922535 1.6906081
H -1.7837498 -2.609589 0.33251464
H -1.7558429 -1.0296559 1.2059057
