title
 OpenBabel02282110003D

 16 16  0  0  1  0  0  0  0  0999 V2000
    0.2605    3.6594   -0.6296 C   0  0  0  0  0  0  0  0  0  0  0  0
    0.3158    2.2065   -0.5692 C   0  0  0  0  0  0  0  0  0  0  0  0
    0.3563    1.0038   -0.5265 C   0  0  0  0  0  0  0  0  0  0  0  0
    0.4224   -0.4517   -0.4689 C   0  0  1  0  0  0  0  0  0  0  0  0
    0.8770   -0.9931    0.9221 C   0  0  0  0  0  0  0  0  0  0  0  0
    0.0192   -2.0966    1.1483 O   0  0  0  0  0  0  0  0  0  0  0  0
   -1.1920   -1.7158    0.5476 C   0  0  0  0  0  0  0  0  0  0  0  0
   -0.8582   -1.0748   -0.6646 O   0  0  0  0  0  0  0  0  0  0  0  0
    0.8687    4.0469   -1.4541 H   0  0  0  0  0  0  0  0  0  0  0  0
   -0.7673    4.0055   -0.7846 H   0  0  0  0  0  0  0  0  0  0  0  0
    0.6269    4.1126    0.2980 H   0  0  0  0  0  0  0  0  0  0  0  0
    1.0809   -0.8239   -1.2627 H   0  0  0  0  0  0  0  0  0  0  0  0
    1.9105   -1.3432    0.9289 H   0  0  0  0  0  0  0  0  0  0  0  0
    0.7456   -0.2192    1.6906 H   0  0  0  0  0  0  0  0  0  0  0  0
   -1.7837   -2.6096    0.3325 H   0  0  0  0  0  0  0  0  0  0  0  0
   -1.7558   -1.0297    1.2059 H   0  0  0  0  0  0  0  0  0  0  0  0
  1  2  1  0  0  0  0
  1 11  1  0  0  0  0
  2  3  3  0  0  0  0
  3  4  1  0  0  0  0
  4 12  1  6  0  0  0
  4  5  1  0  0  0  0
  5 13  1  0  0  0  0
  5  6  1  0  0  0  0
  5 14  1  0  0  0  0
  7  6  1  0  0  0  0
  7 16  1  0  0  0  0
  8  4  1  0  0  0  0
  8  7  1  0  0  0  0
  9  1  1  0  0  0  0
 10  1  1  0  0  0  0
 15  7  1  0  0  0  0
M  END
