20
title
C -0.5511335 3.4496691 0.9966831
C -0.4729227 1.9213166 0.99729306
C -0.031647302 1.3508801 -0.3654554
C 0.04736664 -0.14470886 -0.4006182
C -0.6805568 -1.0006618 -1.1141123
C -0.24777684 -2.411915 -0.84393215
O 0.8022578 -2.3024585 0.11482538
C 1.0446408 -0.93340087 0.41571492
H 0.4223105 3.8960772 0.7647467
H -1.2657439 3.809733 0.24815919
H -0.86905706 3.8319097 1.9715036
H 0.22389147 1.5908096 1.7769912
H -1.4494863 1.4968157 1.2597915
H -0.7250508 1.6952524 -1.1416754
H 0.9514315 1.7751265 -0.6183326
H -1.4719867 -0.7466793 -1.808982
H -1.0589383 -3.0363195 -0.43590605
H 0.12221702 -2.9199817 -1.7497491
H 2.083796 -0.6657431 0.15854587
H 0.932297 -0.76832795 1.4990017
