title
 OpenBabel02282110003D

 19 19  0  0  0  0  0  0  0  0999 V2000
    1.0950    3.2158   -0.0626 C   0  0  0  0  0  0  0  0  0  0  0  0
    1.2021    1.7029   -0.0678 C   0  0  0  0  0  0  0  0  0  0  0  0
   -0.1334    1.1715   -0.0203 O   0  0  0  0  0  0  0  0  0  0  0  0
   -0.2367   -0.1609   -0.0148 C   0  0  0  0  0  0  0  0  0  0  0  0
    0.7431   -0.9730   -0.0404 N   0  0  0  0  0  0  0  0  0  0  0  0
    0.1986   -2.3355   -0.0590 C   0  0  0  0  0  0  0  0  0  0  0  0
   -1.3160   -2.2269    0.2814 C   0  0  0  0  0  0  0  0  0  0  0  0
   -1.6316   -0.7460   -0.0062 C   0  0  0  0  0  0  0  0  0  0  0  0
    2.0944    3.6597   -0.0983 H   0  0  0  0  0  0  0  0  0  0  0  0
    0.5292    3.5703   -0.9289 H   0  0  0  0  0  0  0  0  0  0  0  0
    0.5931    3.5686    0.8429 H   0  0  0  0  0  0  0  0  0  0  0  0
    1.7014    1.3275   -0.9674 H   0  0  0  0  0  0  0  0  0  0  0  0
    1.7642    1.3263    0.7935 H   0  0  0  0  0  0  0  0  0  0  0  0
    0.3618   -2.7727   -1.0535 H   0  0  0  0  0  0  0  0  0  0  0  0
    0.7416   -2.9673    0.6516 H   0  0  0  0  0  0  0  0  0  0  0  0
   -1.9328   -2.9196   -0.2954 H   0  0  0  0  0  0  0  0  0  0  0  0
   -1.4792   -2.4467    1.3407 H   0  0  0  0  0  0  0  0  0  0  0  0
   -2.2757   -0.2675    0.7363 H   0  0  0  0  0  0  0  0  0  0  0  0
   -2.1020   -0.5907   -0.9849 H   0  0  0  0  0  0  0  0  0  0  0  0
  1 11  1  0  0  0  0
  2  1  1  0  0  0  0
  2  3  1  0  0  0  0
  2 13  1  0  0  0  0
  3  4  1  0  0  0  0
  4  8  1  0  0  0  0
  5  4  2  0  0  0  0
  6  5  1  0  0  0  0
  6  7  1  0  0  0  0
  6 15  1  0  0  0  0
  7 17  1  0  0  0  0
  8  7  1  0  0  0  0
  8 18  1  0  0  0  0
  9  1  1  0  0  0  0
 10  1  1  0  0  0  0
 12  2  1  0  0  0  0
 14  6  1  0  0  0  0
 16  7  1  0  0  0  0
 19  8  1  0  0  0  0
M  END
