title
 OpenBabel02282110003D

 22 22  0  0  1  0  0  0  0  0999 V2000
    1.3964    3.2768   -0.4688 C   0  0  0  0  0  0  0  0  0  0  0  0
    1.3816    1.7474   -0.3958 C   0  0  0  0  0  0  0  0  0  0  0  0
   -0.0331    1.1573   -0.4390 C   0  0  0  0  0  0  0  0  0  0  0  0
   -0.0772   -0.3720   -0.3878 C   0  0  1  0  0  0  0  0  0  0  0  0
    0.4677   -1.0057    0.9247 C   0  0  0  0  0  0  0  0  0  0  0  0
   -0.4041   -2.2240    1.1152 C   0  0  0  0  0  0  0  0  0  0  0  0
   -1.4692   -2.2058    0.3160 C   0  0  0  0  0  0  0  0  0  0  0  0
   -1.5024   -0.9711   -0.5518 C   0  0  0  0  0  0  0  0  0  0  0  0
    2.4176    3.6699   -0.4393 H   0  0  0  0  0  0  0  0  0  0  0  0
    0.9286    3.6337   -1.3933 H   0  0  0  0  0  0  0  0  0  0  0  0
    0.8458    3.7182    0.3695 H   0  0  0  0  0  0  0  0  0  0  0  0
    1.9691    1.3346   -1.2269 H   0  0  0  0  0  0  0  0  0  0  0  0
    1.8870    1.4221    0.5224 H   0  0  0  0  0  0  0  0  0  0  0  0
   -0.6225    1.5616    0.3970 H   0  0  0  0  0  0  0  0  0  0  0  0
   -0.5346    1.5007   -1.3547 H   0  0  0  0  0  0  0  0  0  0  0  0
    0.5346   -0.7604   -1.2127 H   0  0  0  0  0  0  0  0  0  0  0  0
    1.5348   -1.2476    0.8623 H   0  0  0  0  0  0  0  0  0  0  0  0
    0.3611   -0.3175    1.7777 H   0  0  0  0  0  0  0  0  0  0  0  0
   -0.1859   -2.9900    1.8517 H   0  0  0  0  0  0  0  0  0  0  0  0
   -2.2540   -2.9546    0.3003 H   0  0  0  0  0  0  0  0  0  0  0  0
   -2.2746   -0.2708   -0.1975 H   0  0  0  0  0  0  0  0  0  0  0  0
   -1.7443   -1.1842   -1.5997 H   0  0  0  0  0  0  0  0  0  0  0  0
  1  9  1  0  0  0  0
  1  2  1  0  0  0  0
  1 11  1  0  0  0  0
  2 13  1  0  0  0  0
  3  2  1  0  0  0  0
  3  4  1  0  0  0  0
  3 14  1  0  0  0  0
  4 16  1  6  0  0  0
  4  5  1  0  0  0  0
  5  6  1  0  0  0  0
  5 18  1  0  0  0  0
  6 19  1  0  0  0  0
  7  6  2  0  0  0  0
  8  4  1  0  0  0  0
  8 21  1  0  0  0  0
  8  7  1  0  0  0  0
 10  1  1  0  0  0  0
 12  2  1  0  0  0  0
 15  3  1  0  0  0  0
 17  5  1  0  0  0  0
 20  7  1  0  0  0  0
 22  8  1  0  0  0  0
M  END
