title
 OpenBabel02282110003D

 19 19  0  0  1  0  0  0  0  0999 V2000
    1.3173    3.2211    0.3370 C   0  0  0  0  0  0  0  0  0  0  0  0
    1.3259    1.6970    0.4797 C   0  0  0  0  0  0  0  0  0  0  0  0
   -0.0798    1.0883    0.4566 C   0  0  0  0  0  0  0  0  0  0  0  0
   -0.1009   -0.4291    0.5891 C   0  0  1  0  0  0  0  0  0  0  0  0
   -1.5109   -1.0757    0.4942 C   0  0  0  0  0  0  0  0  0  0  0  0
   -1.4688   -1.9339   -0.7034 N   0  0  0  0  0  0  0  0  0  0  0  0
   -0.2929   -1.8224   -1.1594 C   0  0  0  0  0  0  0  0  0  0  0  0
    0.6104   -1.0315   -0.5351 O   0  0  0  0  0  0  0  0  0  0  0  0
    2.3328    3.6279    0.3584 H   0  0  0  0  0  0  0  0  0  0  0  0
    0.8559    3.5279   -0.6082 H   0  0  0  0  0  0  0  0  0  0  0  0
    0.7519    3.6939    1.1481 H   0  0  0  0  0  0  0  0  0  0  0  0
    1.9181    1.2495   -0.3259 H   0  0  0  0  0  0  0  0  0  0  0  0
    1.8237    1.4179    1.4180 H   0  0  0  0  0  0  0  0  0  0  0  0
   -0.6804    1.5025    1.2784 H   0  0  0  0  0  0  0  0  0  0  0  0
   -0.5953    1.3633   -0.4736 H   0  0  0  0  0  0  0  0  0  0  0  0
    0.4355   -0.7376    1.4933 H   0  0  0  0  0  0  0  0  0  0  0  0
   -1.7578   -1.6794    1.3733 H   0  0  0  0  0  0  0  0  0  0  0  0
   -2.2995   -0.3223    0.3835 H   0  0  0  0  0  0  0  0  0  0  0  0
    0.0878   -2.3241   -2.0427 H   0  0  0  0  0  0  0  0  0  0  0  0
  1  9  1  0  0  0  0
  1  2  1  0  0  0  0
  1 11  1  0  0  0  0
  2 13  1  0  0  0  0
  3  2  1  0  0  0  0
  3  4  1  0  0  0  0
  3 14  1  0  0  0  0
  4 16  1  1  0  0  0
  5  4  1  0  0  0  0
  5 17  1  0  0  0  0
  6  5  1  0  0  0  0
  7  6  2  0  0  0  0
  7  8  1  0  0  0  0
  8  4  1  0  0  0  0
 10  1  1  0  0  0  0
 12  2  1  0  0  0  0
 15  3  1  0  0  0  0
 18  5  1  0  0  0  0
 19  7  1  0  0  0  0
M  END
