18
title
C -0.3989084 3.310684 0.77590525
O -0.42564866 1.9036903 0.8056897
C 0.18332389 1.3222034 -0.32123798
C 0.122879654 -0.16493504 -0.22817606
C -0.4038097 -0.91550726 0.7335213
C -0.23205559 -2.3683474 0.3986842
O 0.4488425 -2.389005 -0.8553043
C 0.69669247 -1.0603718 -1.2973845
H 0.6314523 3.6999023 0.75401074
H -0.9351254 3.7116282 -0.09892625
H -0.89096963 3.6651802 1.6845137
H -0.31319696 1.6618049 -1.2503996
H 1.2365543 1.651519 -0.4075964
H -0.8875972 -0.55320424 1.6296848
H 0.36201766 -2.9087603 1.1531599
H -1.1941808 -2.8978574 0.3081993
H 0.22282657 -0.89579934 -2.2797058
H 1.7799305 -0.90576214 -1.4360352
