20
title
C 1.9462641 2.727381 -0.4906252
C 1.721276 1.2648405 -0.1441991
O 0.3904578 0.92567617 -0.48020765
C 0.06767564 -0.43333817 -0.27500403
C -0.07871229 -0.8539882 1.2181149
C -1.2858183 -1.7596207 1.201188
C -1.9445913 -1.697777 0.044947173
C -1.3012469 -0.7396531 -0.9252455
H 2.9706357 3.0251641 -0.2473236
H 1.7770934 2.898717 -1.5575031
H 1.2568592 3.3644283 0.07083389
H 2.4258947 0.62220913 -0.69985163
H 1.9087158 1.0932351 0.92812026
H 0.84148884 -1.0635526 -0.7427033
H 0.8190349 -1.342031 1.6137955
H -0.25727922 0.035851248 1.838646
H -1.5793316 -2.3566031 2.057887
H -2.8569703 -2.2369843 -0.18484734
H -1.8759449 0.19206154 -1.0145086
H -1.1995122 -1.1448078 -1.9377364
