title
 OpenBabel02282110003D

 17 17  0  0  1  0  0  0  0  0999 V2000
    0.3266    3.1016   -0.9742 C   0  0  0  0  0  0  0  0  0  0  0  0
    0.5059    1.7049   -1.0272 O   0  0  0  0  0  0  0  0  0  0  0  0
   -0.5033    0.9928   -0.3515 C   0  0  0  0  0  0  0  0  0  0  0  0
   -0.1632   -0.4873   -0.4696 C   0  0  1  0  0  0  0  0  0  0  0  0
    1.1118   -0.9142    0.3031 C   0  0  0  0  0  0  0  0  0  0  0  0
    0.6257   -1.7900    1.3866 N   0  0  0  0  0  0  0  0  0  0  0  0
   -0.6218   -1.8960    1.2060 C   0  0  0  0  0  0  0  0  0  0  0  0
   -1.2198   -1.2487    0.1727 O   0  0  0  0  0  0  0  0  0  0  0  0
    0.3351    3.4739    0.0619 H   0  0  0  0  0  0  0  0  0  0  0  0
    1.1546    3.5577   -1.5217 H   0  0  0  0  0  0  0  0  0  0  0  0
   -0.6222    3.4074   -1.4418 H   0  0  0  0  0  0  0  0  0  0  0  0
   -0.5478    1.2778    0.7139 H   0  0  0  0  0  0  0  0  0  0  0  0
   -1.4948    1.1895   -0.7901 H   0  0  0  0  0  0  0  0  0  0  0  0
   -0.1383   -0.7729   -1.5245 H   0  0  0  0  0  0  0  0  0  0  0  0
    1.8202   -1.4642   -0.3239 H   0  0  0  0  0  0  0  0  0  0  0  0
    1.6441   -0.0518    0.7157 H   0  0  0  0  0  0  0  0  0  0  0  0
   -1.3012   -2.4812    1.8159 H   0  0  0  0  0  0  0  0  0  0  0  0
  1  9  1  0  0  0  0
  2  1  1  0  0  0  0
  2  3  1  0  0  0  0
  3 12  1  0  0  0  0
  4 14  1  6  0  0  0
  4  3  1  0  0  0  0
  4  8  1  0  0  0  0
  4  5  1  0  0  0  0
  5 16  1  0  0  0  0
  5  6  1  0  0  0  0
  7  6  2  0  0  0  0
  7 17  1  0  0  0  0
  8  7  1  0  0  0  0
 10  1  1  0  0  0  0
 11  1  1  0  0  0  0
 13  3  1  0  0  0  0
 15  5  1  0  0  0  0
M  END
