20
title
O 1.293648 3.0981462 -0.51492625
C 1.3821218 1.6848563 -0.40261522
C -0.033409618 1.1224316 -0.4402217
C -0.09019115 -0.40461534 -0.3688101
C 0.43718055 -1.029041 0.95550835
C -0.44777623 -2.2376258 1.1494757
C -1.5067235 -2.214939 0.34243298
C -1.5216767 -0.98713464 -0.5355331
H 2.183645 3.4592614 -0.47087732
H 1.9721011 1.2558526 -1.230109
H 1.8805326 1.3933129 0.53572446
H -0.60544693 1.5568833 0.3898152
H -0.5117836 1.4713181 -1.3637503
H 0.52102286 -0.8128697 -1.1845962
H 1.5025951 -1.2818928 0.9054793
H 0.32824394 -0.330988 1.7999992
H -0.24239042 -2.9993622 1.8938668
H -2.2992022 -2.9553564 0.327096
H -2.2863982 -0.274597 -0.19055158
H -1.7601715 -1.2054732 -1.5829688
