title
 OpenBabel02282110003D

 17 17  0  0  1  0  0  0  0  0999 V2000
   -1.3685    2.8262    0.9121 C   0  0  0  0  0  0  0  0  0  0  0  0
   -1.2609    1.3148    1.0026 C   0  0  0  0  0  0  0  0  0  0  0  0
   -0.5525    0.8492   -0.1456 O   0  0  0  0  0  0  0  0  0  0  0  0
   -0.4452   -0.5256   -0.2406 C   0  0  1  0  0  0  0  0  0  0  0  0
    0.2886   -0.9031   -1.5430 C   0  0  0  0  0  0  0  0  0  0  0  0
    1.6136   -1.3832   -1.1212 N   0  0  0  0  0  0  0  0  0  0  0  0
    1.5704   -1.4190    0.1433 C   0  0  0  0  0  0  0  0  0  0  0  0
    0.4346   -1.0514    0.7931 O   0  0  0  0  0  0  0  0  0  0  0  0
   -0.3741    3.2806    0.8877 H   0  0  0  0  0  0  0  0  0  0  0  0
   -1.9035    3.1223    0.0054 H   0  0  0  0  0  0  0  0  0  0  0  0
   -1.9080    3.2189    1.7789 H   0  0  0  0  0  0  0  0  0  0  0  0
   -0.7296    1.0110    1.9133 H   0  0  0  0  0  0  0  0  0  0  0  0
   -2.2595    0.8503    1.0292 H   0  0  0  0  0  0  0  0  0  0  0  0
   -1.4175   -1.0107   -0.0850 H   0  0  0  0  0  0  0  0  0  0  0  0
   -0.2308   -1.6899   -2.0992 H   0  0  0  0  0  0  0  0  0  0  0  0
    0.3774   -0.0257   -2.1889 H   0  0  0  0  0  0  0  0  0  0  0  0
    2.3779   -1.7371    0.7935 H   0  0  0  0  0  0  0  0  0  0  0  0
  1  2  1  0  0  0  0
  1 11  1  0  0  0  0
  2 13  1  0  0  0  0
  2 12  1  0  0  0  0
  3  2  1  0  0  0  0
  4  3  1  0  0  0  0
  4 14  1  1  0  0  0
  4  8  1  0  0  0  0
  5  6  1  0  0  0  0
  5  4  1  0  0  0  0
  6  7  2  0  0  0  0
  7  8  1  0  0  0  0
  7 17  1  0  0  0  0
  9  1  1  0  0  0  0
 10  1  1  0  0  0  0
 15  5  1  0  0  0  0
 16  5  1  0  0  0  0
M  END
