title
 OpenBabel02282110003D

 20 20  0  0  1  0  0  0  0  0999 V2000
   -1.0633    3.0077    1.1541 C   0  0  0  0  0  0  0  0  0  0  0  0
   -0.9113    1.5004    1.2786 C   0  0  0  0  0  0  0  0  0  0  0  0
   -0.4609    0.9950    0.0384 O   0  0  0  0  0  0  0  0  0  0  0  0
   -0.3476   -0.4207   -0.0179 C   0  0  1  0  0  0  0  0  0  0  0  0
   -0.2056   -0.8504   -1.4952 C   0  0  0  0  0  0  0  0  0  0  0  0
    0.8593   -1.9743   -1.5170 C   0  0  0  0  0  0  0  0  0  0  0  0
    1.5499   -1.8161   -0.1835 C   0  0  0  0  0  0  0  0  0  0  0  0
    0.9029   -0.9828    0.6278 C   0  0  0  0  0  0  0  0  0  0  0  0
   -0.1049    3.4693    0.8995 H   0  0  0  0  0  0  0  0  0  0  0  0
   -1.7814    3.2561    0.3674 H   0  0  0  0  0  0  0  0  0  0  0  0
   -1.4160    3.4363    2.0971 H   0  0  0  0  0  0  0  0  0  0  0  0
   -0.2014    1.2568    2.0859 H   0  0  0  0  0  0  0  0  0  0  0  0
   -1.8750    1.0355    1.5497 H   0  0  0  0  0  0  0  0  0  0  0  0
   -1.2483   -0.8582    0.4486 H   0  0  0  0  0  0  0  0  0  0  0  0
   -1.1574   -1.1503   -1.9389 H   0  0  0  0  0  0  0  0  0  0  0  0
    0.1547    0.0251   -2.0428 H   0  0  0  0  0  0  0  0  0  0  0  0
    0.3987   -2.9684   -1.5987 H   0  0  0  0  0  0  0  0  0  0  0  0
    1.5495   -1.8894   -2.3643 H   0  0  0  0  0  0  0  0  0  0  0  0
    2.4553   -2.3581    0.0698 H   0  0  0  0  0  0  0  0  0  0  0  0
    1.1937   -0.7414    1.6438 H   0  0  0  0  0  0  0  0  0  0  0  0
  1  2  1  0  0  0  0
  1 11  1  0  0  0  0
  2 13  1  0  0  0  0
  2 12  1  0  0  0  0
  3  2  1  0  0  0  0
  4  3  1  0  0  0  0
  4 14  1  1  0  0  0
  4  8  1  0  0  0  0
  5  4  1  0  0  0  0
  6  5  1  0  0  0  0
  6  7  1  0  0  0  0
  7 19  1  0  0  0  0
  7  8  2  0  0  0  0
  8 20  1  0  0  0  0
  9  1  1  0  0  0  0
 10  1  1  0  0  0  0
 15  5  1  0  0  0  0
 16  5  1  0  0  0  0
 17  6  1  0  0  0  0
 18  6  1  0  0  0  0
M  END
