title
 OpenBabel02282110003D

 20 20  0  0  1  0  0  0  0  0999 V2000
   -0.9713    3.1850   -1.0529 C   0  0  0  0  0  0  0  0  0  0  0  0
   -1.0567    1.6599   -0.9560 C   0  0  0  0  0  0  0  0  0  0  0  0
   -0.3734    1.1003    0.2958 C   0  0  0  0  0  0  0  0  0  0  0  0
   -0.4365   -0.4293    0.3822 C   0  0  1  0  0  0  0  0  0  0  0  0
    0.2207   -1.0201   -0.7482 O   0  0  0  0  0  0  0  0  0  0  0  0
    1.2286   -1.9320   -0.3237 C   0  0  0  0  0  0  0  0  0  0  0  0
    1.2198   -1.8560    1.1772 C   0  0  0  0  0  0  0  0  0  0  0  0
    0.2720   -1.0162    1.5746 C   0  0  0  0  0  0  0  0  0  0  0  0
    0.0710    3.5221   -1.0834 H   0  0  0  0  0  0  0  0  0  0  0  0
   -1.4663    3.5558   -1.9560 H   0  0  0  0  0  0  0  0  0  0  0  0
   -1.4473    3.6666   -0.1910 H   0  0  0  0  0  0  0  0  0  0  0  0
   -2.1103    1.3492   -0.9605 H   0  0  0  0  0  0  0  0  0  0  0  0
   -0.5981    1.2007   -1.8382 H   0  0  0  0  0  0  0  0  0  0  0  0
    0.6807    1.4053    0.3181 H   0  0  0  0  0  0  0  0  0  0  0  0
   -0.8444    1.5181    1.1967 H   0  0  0  0  0  0  0  0  0  0  0  0
   -1.4986   -0.7334    0.3661 H   0  0  0  0  0  0  0  0  0  0  0  0
    0.9995   -2.9461   -0.6908 H   0  0  0  0  0  0  0  0  0  0  0  0
    2.1997   -1.6462   -0.7576 H   0  0  0  0  0  0  0  0  0  0  0  0
    1.8958   -2.4236    1.8041 H   0  0  0  0  0  0  0  0  0  0  0  0
    0.0148   -0.7575    2.5941 H   0  0  0  0  0  0  0  0  0  0  0  0
  1  2  1  0  0  0  0
  1 11  1  0  0  0  0
  2  3  1  0  0  0  0
  3 14  1  0  0  0  0
  3  4  1  0  0  0  0
  3 15  1  0  0  0  0
  4 16  1  1  0  0  0
  4  8  1  0  0  0  0
  5  6  1  0  0  0  0
  5  4  1  0  0  0  0
  6  7  1  0  0  0  0
  7  8  2  0  0  0  0
  7 19  1  0  0  0  0
  8 20  1  0  0  0  0
  9  1  1  0  0  0  0
 10  1  1  0  0  0  0
 12  2  1  0  0  0  0
 13  2  1  0  0  0  0
 17  6  1  0  0  0  0
 18  6  1  0  0  0  0
M  END
