20
title
O 1.2523881 3.1112735 0.5992471
C 1.3833934 1.7013333 0.48584554
C -0.018159473 1.1052916 0.44335133
C -0.04349872 -0.42876774 0.37688017
C -1.4747026 -1.0203047 0.50700927
C -1.5061433 -2.2699955 -0.40732086
C -0.35279164 -2.0217636 -1.3508649
C 0.4357576 -1.0356624 -0.9281463
H 2.133844 3.4953077 0.6049154
H 1.9422582 1.429768 -0.42392457
H 1.9370921 1.2829498 1.3431655
H -0.5524376 1.4405719 1.340954
H -0.55533355 1.523036 -0.41689968
H 0.58914614 -0.808739 1.1961656
H -1.7449183 -1.2401817 1.5432028
H -2.1939635 -0.28187996 0.1350106
H -1.3457811 -3.19748 0.1611324
H -2.465498 -2.391105 -0.92308396
H -0.18553206 -2.6186163 -2.2411888
H 1.3440173 -0.7121678 -1.4254007
