22
title
C 1.3866135 3.3467176 0.6179158
C 1.362564 1.8223753 0.47650647
C -0.058810297 1.2446928 0.4742828
C -0.11416501 -0.2809799 0.3806165
C -1.5306883 -0.88096 0.40648037
C -1.3055463 -2.265471 -0.20572814
O -0.22160608 -2.127578 -1.1247799
C 0.42450202 -0.87158537 -0.9336813
H 2.4108098 3.73241 0.6205347
H 0.8514239 3.8293533 -0.20748416
H 0.9079954 3.6645913 1.550987
H 1.878861 1.5349836 -0.44831726
H 1.9346278 1.3684833 1.2967451
H -0.57597417 1.5663326 1.3884094
H -0.62667376 1.6752765 -0.36300763
H 0.45938176 -0.70989823 1.2141305
H -1.9646759 -0.9239099 1.4089531
H -2.1993766 -0.2845743 -0.22602764
H -1.0405154 -3.0015097 0.5687945
H -2.1799302 -2.6471782 -0.74487895
H 0.19344443 -0.20161918 -1.7784445
H 1.5081699 -1.032912 -0.92199737
