18
title
C -0.85974264 2.993995 -1.0098051
C -1.001767 1.4822905 -1.0406175
O -0.38413134 0.95166147 0.12588917
C -0.5034068 -0.44018003 0.24932526
O 0.2490755 -1.1447114 -0.7298166
C 1.387772 -1.7537767 -0.1277832
C 1.1802937 -1.5855144 1.3503867
C 0.08961579 -0.8620079 1.5674073
H 0.19590232 3.279629 -0.9938987
H -1.3256811 3.4379342 -1.8948076
H -1.3393308 3.4091449 -0.11862488
H -2.065274 1.1913632 -1.0630826
H -0.5278398 1.0615695 -1.9372807
H -1.5603031 -0.72262603 0.10730456
H 1.4265181 -2.807529 -0.43660796
H 2.3195825 -1.2767552 -0.4699139
H 1.8527385 -1.99554 2.093116
H -0.32119462 -0.54470617 2.5157745
