title
 OpenBabel02282110003D

 18 18  0  0  1  0  0  0  0  0999 V2000
    1.2323    3.0547   -0.2667 O   0  0  0  0  0  0  0  0  0  0  0  0
    1.3254    1.6392   -0.3521 C   0  0  0  0  0  0  0  0  0  0  0  0
   -0.0911    1.0844   -0.4246 C   0  0  0  0  0  0  0  0  0  0  0  0
   -0.1190   -0.4398   -0.5706 C   0  0  1  0  0  0  0  0  0  0  0  0
    0.5331   -1.0607    0.5469 O   0  0  0  0  0  0  0  0  0  0  0  0
   -0.3331   -2.0027    1.1734 C   0  0  0  0  0  0  0  0  0  0  0  0
   -1.6260   -1.9116    0.4133 C   0  0  0  0  0  0  0  0  0  0  0  0
   -1.5018   -1.0363   -0.5764 C   0  0  0  0  0  0  0  0  0  0  0  0
    2.1187    3.4043   -0.1385 H   0  0  0  0  0  0  0  0  0  0  0  0
    1.8896    1.3313   -1.2488 H   0  0  0  0  0  0  0  0  0  0  0  0
    1.8378    1.2129    0.5213 H   0  0  0  0  0  0  0  0  0  0  0  0
   -0.6411    1.3736    0.4776 H   0  0  0  0  0  0  0  0  0  0  0  0
   -0.6053    1.5371   -1.2815 H   0  0  0  0  0  0  0  0  0  0  0  0
    0.4298   -0.7133   -1.4897 H   0  0  0  0  0  0  0  0  0  0  0  0
    0.1087   -3.0115    1.1255 H   0  0  0  0  0  0  0  0  0  0  0  0
   -0.4486   -1.7531    2.2397 H   0  0  0  0  0  0  0  0  0  0  0  0
   -2.5028   -2.4957    0.6627 H   0  0  0  0  0  0  0  0  0  0  0  0
   -2.2559   -0.7582   -1.3017 H   0  0  0  0  0  0  0  0  0  0  0  0
  1  9  1  0  0  0  0
  2  1  1  0  0  0  0
  2 11  1  0  0  0  0
  3  2  1  0  0  0  0
  3 12  1  0  0  0  0
  4 14  1  6  0  0  0
  4  3  1  0  0  0  0
  4  5  1  0  0  0  0
  5  6  1  0  0  0  0
  6 16  1  0  0  0  0
  7 17  1  0  0  0  0
  7  6  1  0  0  0  0
  8  4  1  0  0  0  0
  8  7  2  0  0  0  0
 10  2  1  0  0  0  0
 13  3  1  0  0  0  0
 15  6  1  0  0  0  0
 18  8  1  0  0  0  0
M  END
