18
title
C -1.0654244 3.1148648 -0.19454707
O -1.1556914 1.7191296 -0.039218083
C -0.037194367 1.0329531 -0.55487573
C -0.27334267 -0.4646801 -0.3450845
O 0.79523194 -1.1907974 -0.95510143
C 1.3990425 -2.0725303 -0.010046436
C 0.6896256 -1.8009859 1.2869577
C -0.26233554 -0.8955533 1.0961986
H -0.99081826 3.4024456 -1.2551686
H -1.9741976 3.5517604 0.22682874
H -0.19267106 3.5295737 0.33425325
H 0.09244884 1.2340683 -1.6307093
H 0.8901615 1.3367658 -0.041970804
H -1.2269679 -0.72288555 -0.8340442
H 1.2809926 -3.1173759 -0.3403638
H 2.4802203 -1.8726021 0.044822797
H 0.94381416 -2.297041 2.2151732
H -0.94823927 -0.49079862 1.8276272
