title
 OpenBabel02282110003D

 22 22  0  0  0  0  0  0  0  0999 V2000
    0.9568    3.1100    0.0522 C   0  0  0  0  0  0  0  0  0  0  0  0
    1.3429    1.6416   -0.0231 C   0  0  0  0  0  0  0  0  0  0  0  0
    0.1910    0.8939   -0.3498 O   0  0  0  0  0  0  0  0  0  0  0  0
    0.4117   -0.5044   -0.4992 C   0  0  0  0  0  0  0  0  0  0  0  0
    0.4954   -1.2343    0.8723 C   0  0  0  0  0  0  0  0  0  0  0  0
   -0.8985   -1.8832    1.1046 C   0  0  0  0  0  0  0  0  0  0  0  0
   -1.8075   -1.2936    0.0084 C   0  0  0  0  0  0  0  0  0  0  0  0
   -0.8420   -1.0837   -1.1667 C   0  0  0  0  0  0  0  0  0  0  0  0
    1.8297    3.7234    0.2955 H   0  0  0  0  0  0  0  0  0  0  0  0
    0.5482    3.4484   -0.9042 H   0  0  0  0  0  0  0  0  0  0  0  0
    0.1964    3.2673    0.8226 H   0  0  0  0  0  0  0  0  0  0  0  0
    2.1232    1.4850   -0.7881 H   0  0  0  0  0  0  0  0  0  0  0  0
    1.7706    1.3128    0.9383 H   0  0  0  0  0  0  0  0  0  0  0  0
    1.3181   -0.6596   -1.1031 H   0  0  0  0  0  0  0  0  0  0  0  0
    1.2907   -1.9856    0.8724 H   0  0  0  0  0  0  0  0  0  0  0  0
    0.7412   -0.5131    1.6564 H   0  0  0  0  0  0  0  0  0  0  0  0
   -0.8298   -2.9700    0.9823 H   0  0  0  0  0  0  0  0  0  0  0  0
   -1.2819   -1.7027    2.1124 H   0  0  0  0  0  0  0  0  0  0  0  0
   -2.6558   -1.9393   -0.2353 H   0  0  0  0  0  0  0  0  0  0  0  0
   -2.2053   -0.3238    0.3249 H   0  0  0  0  0  0  0  0  0  0  0  0
   -1.2186   -0.4180   -1.9467 H   0  0  0  0  0  0  0  0  0  0  0  0
   -0.5935   -2.0475   -1.6279 H   0  0  0  0  0  0  0  0  0  0  0  0
  1  9  1  0  0  0  0
  1 11  1  0  0  0  0
  2  1  1  0  0  0  0
  2 13  1  0  0  0  0
  3  2  1  0  0  0  0
  4  3  1  0  0  0  0
  4  5  1  0  0  0  0
  5 15  1  0  0  0  0
  5  6  1  0  0  0  0
  5 16  1  0  0  0  0
  6 18  1  0  0  0  0
  7 20  1  0  0  0  0
  7  6  1  0  0  0  0
  8  4  1  0  0  0  0
  8  7  1  0  0  0  0
 10  1  1  0  0  0  0
 12  2  1  0  0  0  0
 14  4  1  0  0  0  0
 17  6  1  0  0  0  0
 19  7  1  0  0  0  0
 21  8  1  0  0  0  0
 22  8  1  0  0  0  0
M  END
