20
title
C -0.39553502 3.1963634 1.5526804
C -0.30012542 1.6713654 1.4637865
C 0.33743802 1.1936272 0.15515222
C 0.4348605 -0.31634554 0.064794086
O -0.8576514 -0.90708715 0.080592774
C -0.8266546 -2.0498326 -0.76817083
C 0.5984672 -2.037817 -1.3614008
O 1.0271634 -0.70292264 -1.1537697
H 0.59500647 3.661591 1.4946405
H -0.9987706 3.603212 0.733545
H -0.85684186 3.511441 2.4937704
H 0.28268787 1.2901305 2.3129041
H -1.2978623 1.2281259 1.5530472
H -0.2437105 1.5408099 -0.706764
H 1.3502467 1.6016408 0.052208442
H 1.0249771 -0.7261358 0.9090385
H -1.0287285 -2.9636812 -0.19620274
H -1.5993825 -1.9408633 -1.537884
H 1.2536067 -2.7465487 -0.8323841
H 0.6340865 -2.2541761 -2.4311936
