20
title
C -0.6565007 3.0835924 0.88421154
C -0.7994524 1.5985651 1.1730566
O -0.48377553 0.88287425 -0.0052582715
C -0.61655873 -0.52510214 0.10478883
C -0.53604615 -1.1075583 -1.3107518
C 0.97573525 -1.239999 -1.498521
O 1.4663019 -1.6658492 -0.23104079
C 0.60096365 -1.1840255 0.79470724
H 0.36885086 3.318532 0.58495593
H -1.3265 3.3825543 0.073184185
H -0.90203947 3.6706746 1.7741876
H -0.13431647 1.3071537 2.0019782
H -1.8293548 1.3614763 1.4905535
H -1.5579909 -0.7701299 0.61682546
H -1.0102379 -2.093468 -1.3371912
H -1.0218052 -0.45467874 -2.0377755
H 1.2676299 -1.9883361 -2.240947
H 1.4153163 -0.272531 -1.7836965
H 1.1281269 -0.45586798 1.4248593
H 0.3029349 -2.030914 1.4261459
