title
 OpenBabel02282110003D

 20 20  0  0  1  0  0  0  0  0999 V2000
   -0.6565    3.0836    0.8842 C   0  0  0  0  0  0  0  0  0  0  0  0
   -0.7995    1.5986    1.1731 C   0  0  0  0  0  0  0  0  0  0  0  0
   -0.4838    0.8829   -0.0053 O   0  0  0  0  0  0  0  0  0  0  0  0
   -0.6166   -0.5251    0.1048 C   0  0  1  0  0  0  0  0  0  0  0  0
   -0.5360   -1.1076   -1.3108 C   0  0  0  0  0  0  0  0  0  0  0  0
    0.9757   -1.2400   -1.4985 C   0  0  0  0  0  0  0  0  0  0  0  0
    1.4663   -1.6658   -0.2310 O   0  0  0  0  0  0  0  0  0  0  0  0
    0.6010   -1.1840    0.7947 C   0  0  0  0  0  0  0  0  0  0  0  0
    0.3689    3.3185    0.5850 H   0  0  0  0  0  0  0  0  0  0  0  0
   -1.3265    3.3826    0.0732 H   0  0  0  0  0  0  0  0  0  0  0  0
   -0.9020    3.6707    1.7742 H   0  0  0  0  0  0  0  0  0  0  0  0
   -0.1343    1.3072    2.0020 H   0  0  0  0  0  0  0  0  0  0  0  0
   -1.8294    1.3615    1.4906 H   0  0  0  0  0  0  0  0  0  0  0  0
   -1.5580   -0.7701    0.6168 H   0  0  0  0  0  0  0  0  0  0  0  0
   -1.0102   -2.0935   -1.3372 H   0  0  0  0  0  0  0  0  0  0  0  0
   -1.0218   -0.4547   -2.0378 H   0  0  0  0  0  0  0  0  0  0  0  0
    1.2676   -1.9883   -2.2409 H   0  0  0  0  0  0  0  0  0  0  0  0
    1.4153   -0.2725   -1.7837 H   0  0  0  0  0  0  0  0  0  0  0  0
    1.1281   -0.4559    1.4249 H   0  0  0  0  0  0  0  0  0  0  0  0
    0.3029   -2.0309    1.4261 H   0  0  0  0  0  0  0  0  0  0  0  0
  1  2  1  0  0  0  0
  1 11  1  0  0  0  0
  2 13  1  0  0  0  0
  2 12  1  0  0  0  0
  3  4  1  0  0  0  0
  3  2  1  0  0  0  0
  4 14  1  1  0  0  0
  4  8  1  0  0  0  0
  5  4  1  0  0  0  0
  6  5  1  0  0  0  0
  6  7  1  0  0  0  0
  7  8  1  0  0  0  0
  8 19  1  0  0  0  0
  8 20  1  0  0  0  0
  9  1  1  0  0  0  0
 10  1  1  0  0  0  0
 15  5  1  0  0  0  0
 16  5  1  0  0  0  0
 17  6  1  0  0  0  0
 18  6  1  0  0  0  0
M  END
