20
title
C -0.65018743 2.999737 1.0679998
C -0.9912297 1.521148 1.0005474
O -0.35701552 0.96790373 -0.14577861
C -0.5865717 -0.40794337 -0.31595287
C 0.09550015 -0.8387147 -1.6323607
C 1.2264528 -1.7885062 -1.1781416
C 1.337091 -1.47485 0.3185741
O -0.0015782904 -1.1796185 0.71539706
H 0.43112305 3.1407502 1.1542294
H -0.9910909 3.5172706 0.16661082
H -1.1297193 3.4614775 1.9364266
H -0.6537062 0.9975185 1.9040402
H -2.0819876 1.3764225 0.92554367
H -1.6657093 -0.612496 -0.2704384
H -0.6111563 -1.3266581 -2.306503
H 0.47935668 0.05367183 -2.130331
H 0.935087 -2.833429 -1.3187149
H 2.163317 -1.6241385 -1.7156646
H 1.6886399 -2.3105164 0.9281944
H 1.991143 -0.6090621 0.49526957
