title
 OpenBabel02282110003D

 20 20  0  0  1  0  0  0  0  0999 V2000
   -0.6502    2.9997    1.0680 C   0  0  0  0  0  0  0  0  0  0  0  0
   -0.9912    1.5211    1.0005 C   0  0  0  0  0  0  0  0  0  0  0  0
   -0.3570    0.9679   -0.1458 O   0  0  0  0  0  0  0  0  0  0  0  0
   -0.5866   -0.4079   -0.3160 C   0  0  1  0  0  0  0  0  0  0  0  0
    0.0955   -0.8387   -1.6324 C   0  0  0  0  0  0  0  0  0  0  0  0
    1.2265   -1.7885   -1.1781 C   0  0  0  0  0  0  0  0  0  0  0  0
    1.3371   -1.4748    0.3186 C   0  0  0  0  0  0  0  0  0  0  0  0
   -0.0016   -1.1796    0.7154 O   0  0  0  0  0  0  0  0  0  0  0  0
    0.4311    3.1408    1.1542 H   0  0  0  0  0  0  0  0  0  0  0  0
   -0.9911    3.5173    0.1666 H   0  0  0  0  0  0  0  0  0  0  0  0
   -1.1297    3.4615    1.9364 H   0  0  0  0  0  0  0  0  0  0  0  0
   -0.6537    0.9975    1.9040 H   0  0  0  0  0  0  0  0  0  0  0  0
   -2.0820    1.3764    0.9255 H   0  0  0  0  0  0  0  0  0  0  0  0
   -1.6657   -0.6125   -0.2704 H   0  0  0  0  0  0  0  0  0  0  0  0
   -0.6112   -1.3267   -2.3065 H   0  0  0  0  0  0  0  0  0  0  0  0
    0.4794    0.0537   -2.1303 H   0  0  0  0  0  0  0  0  0  0  0  0
    0.9351   -2.8334   -1.3187 H   0  0  0  0  0  0  0  0  0  0  0  0
    2.1633   -1.6241   -1.7157 H   0  0  0  0  0  0  0  0  0  0  0  0
    1.6886   -2.3105    0.9282 H   0  0  0  0  0  0  0  0  0  0  0  0
    1.9911   -0.6091    0.4953 H   0  0  0  0  0  0  0  0  0  0  0  0
  1  9  1  0  0  0  0
  1 11  1  0  0  0  0
  2  1  1  0  0  0  0
  2 12  1  0  0  0  0
  3  2  1  0  0  0  0
  4 14  1  6  0  0  0
  4  3  1  0  0  0  0
  4  8  1  0  0  0  0
  5  6  1  0  0  0  0
  5  4  1  0  0  0  0
  6  7  1  0  0  0  0
  7 20  1  0  0  0  0
  7  8  1  0  0  0  0
  7 19  1  0  0  0  0
 10  1  1  0  0  0  0
 13  2  1  0  0  0  0
 15  5  1  0  0  0  0
 16  5  1  0  0  0  0
 17  6  1  0  0  0  0
 18  6  1  0  0  0  0
M  END
