20
title
O 1.2173804 3.1176379 0.60445386
C 1.3189948 1.7185388 0.37541318
C -0.06781383 1.1169697 0.564947
C -0.08947058 -0.39518675 0.4114197
C -1.4795842 -1.0553192 0.5741133
C -1.490525 -2.1749194 -0.4991764
C -0.084384754 -2.0752847 -1.1251787
O 0.3357388 -0.73986995 -0.9059064
H 2.0696867 3.515031 0.40478688
H 1.6766357 1.4990554 -0.63985974
H 2.0252864 1.2507739 1.0820111
H -0.43447027 1.3817791 1.5637425
H -0.7556347 1.5625952 -0.1628743
H 0.6100227 -0.8483399 1.1377017
H -1.6217856 -1.4407417 1.5867628
H -2.2718382 -0.32483432 0.38690585
H -1.6809402 -3.165433 -0.078670934
H -2.2601266 -1.9828624 -1.2508506
H 0.60803103 -2.781331 -0.6366574
H -0.062218983 -2.2648673 -2.2013664
