20
title
C 0.79098755 3.268005 -0.5641569
C 0.7375786 1.8133432 -0.52204525
C 0.69955134 0.6082363 -0.49025404
C 0.6743197 -0.8257226 -0.4664778
C 0.21020198 -1.5863312 0.778256
C -0.1706388 -0.8619338 2.049343
C -0.6510132 -1.5918716 -0.4577661
C -1.9783145 -0.8734971 -0.54529023
H 1.8258674 3.6268983 -0.60158396
H 0.2721201 3.6663096 -1.4436766
H 0.32330033 3.7104647 0.32271886
H 1.4803053 -1.2929767 -1.0260602
H 0.7600067 -2.5081205 0.9523496
H -0.61876565 0.11276165 1.8460561
H -0.8836263 -1.4502517 2.6376731
H 0.7134853 -0.6890489 2.672282
H -0.61984426 -2.5169964 -1.0282396
H -1.9447218 0.10734144 -0.066754594
H -2.2601085 -0.71432793 -1.5916607
H -2.7737234 -1.4589895 -0.070825174
