16
title
C 0.5854436 3.2937284 -0.5272779
C 0.63893205 1.83851 -0.53522027
C 0.7314504 0.6349332 -0.5233838
C 0.7572758 -0.7944644 -0.5237165
C 0.29248872 -1.5948766 0.711241
O -0.12113044 -0.94772416 1.8581928
C -0.5957731 -1.5168058 -0.49397707
O -1.738304 -0.7324007 -0.314016
H 1.5905296 3.721628 -0.44376412
H 0.13215682 3.6885645 -1.4433787
H -0.0008719249 3.663823 0.32096514
H 1.5316006 -1.2638825 -1.1238728
H 0.83688605 -2.5124109 0.91310656
H -0.9901718 -0.5733698 1.6473032
H -0.74507225 -2.375089 -1.1437453
H -1.5566684 0.1423569 -0.68738264
