title
 OpenBabel02282110003D

 20 20  0  0  1  0  0  0  0  0999 V2000
    1.2174    3.1176    0.6045 O   0  0  0  0  0  0  0  0  0  0  0  0
    1.3190    1.7185    0.3754 C   0  0  0  0  0  0  0  0  0  0  0  0
   -0.0678    1.1170    0.5649 C   0  0  0  0  0  0  0  0  0  0  0  0
   -0.0895   -0.3952    0.4114 C   0  0  1  0  0  0  0  0  0  0  0  0
   -1.4796   -1.0553    0.5741 C   0  0  0  0  0  0  0  0  0  0  0  0
   -1.4905   -2.1749   -0.4992 C   0  0  0  0  0  0  0  0  0  0  0  0
   -0.0844   -2.0753   -1.1252 C   0  0  0  0  0  0  0  0  0  0  0  0
    0.3357   -0.7399   -0.9059 O   0  0  0  0  0  0  0  0  0  0  0  0
    2.0697    3.5150    0.4048 H   0  0  0  0  0  0  0  0  0  0  0  0
    1.6766    1.4991   -0.6399 H   0  0  0  0  0  0  0  0  0  0  0  0
    2.0253    1.2508    1.0820 H   0  0  0  0  0  0  0  0  0  0  0  0
   -0.4345    1.3818    1.5637 H   0  0  0  0  0  0  0  0  0  0  0  0
   -0.7556    1.5626   -0.1629 H   0  0  0  0  0  0  0  0  0  0  0  0
    0.6100   -0.8483    1.1377 H   0  0  0  0  0  0  0  0  0  0  0  0
   -1.6218   -1.4407    1.5868 H   0  0  0  0  0  0  0  0  0  0  0  0
   -2.2718   -0.3248    0.3869 H   0  0  0  0  0  0  0  0  0  0  0  0
   -1.6809   -3.1654   -0.0787 H   0  0  0  0  0  0  0  0  0  0  0  0
   -2.2601   -1.9829   -1.2509 H   0  0  0  0  0  0  0  0  0  0  0  0
    0.6080   -2.7813   -0.6367 H   0  0  0  0  0  0  0  0  0  0  0  0
   -0.0622   -2.2649   -2.2014 H   0  0  0  0  0  0  0  0  0  0  0  0
  2  3  1  0  0  0  0
  2  1  1  0  0  0  0
  2 11  1  0  0  0  0
  3 12  1  0  0  0  0
  4  3  1  0  0  0  0
  4  5  1  0  0  0  0
  4 14  1  1  0  0  0
  5 15  1  0  0  0  0
  6 17  1  0  0  0  0
  6  5  1  0  0  0  0
  7  8  1  0  0  0  0
  7 19  1  0  0  0  0
  7  6  1  0  0  0  0
  8  4  1  0  0  0  0
  9  1  1  0  0  0  0
 10  2  1  0  0  0  0
 13  3  1  0  0  0  0
 16  5  1  0  0  0  0
 18  6  1  0  0  0  0
 20  7  1  0  0  0  0
M  END
