title
 OpenBabel02282110003D

 19 19  0  0  1  0  0  0  0  0999 V2000
    0.7364    3.2663   -0.6715 C   0  0  0  0  0  0  0  0  0  0  0  0
    0.6886    1.8135   -0.5906 C   0  0  0  0  0  0  0  0  0  0  0  0
    0.6564    0.6098   -0.5222 C   0  0  0  0  0  0  0  0  0  0  0  0
    0.6356   -0.8272   -0.4892 C   0  0  1  0  0  0  0  0  0  0  0  0
    0.2425   -1.5661    0.7667 C   0  0  1  0  0  0  0  0  0  0  0  0
   -0.0916   -0.8404    2.0505 C   0  0  0  0  0  0  0  0  0  0  0  0
   -0.6291   -1.5880   -0.4014 N   0  0  0  0  0  0  0  0  0  0  0  0
   -1.8934   -0.8647   -0.3844 C   0  0  0  0  0  0  0  0  0  0  0  0
    1.6623    3.6589   -0.2365 H   0  0  0  0  0  0  0  0  0  0  0  0
    0.6858    3.6112   -1.7103 H   0  0  0  0  0  0  0  0  0  0  0  0
   -0.1008    3.7216   -0.1309 H   0  0  0  0  0  0  0  0  0  0  0  0
    1.3672   -1.2964   -1.1450 H   0  0  0  0  0  0  0  0  0  0  0  0
    0.7411   -2.5226    0.9254 H   0  0  0  0  0  0  0  0  0  0  0  0
   -0.4142    0.1874    1.8765 H   0  0  0  0  0  0  0  0  0  0  0  0
   -0.8791   -1.3665    2.6013 H   0  0  0  0  0  0  0  0  0  0  0  0
    0.7940   -0.8054    2.6933 H   0  0  0  0  0  0  0  0  0  0  0  0
   -1.8545    0.1320    0.0736 H   0  0  0  0  0  0  0  0  0  0  0  0
   -2.2373   -0.7453   -1.4165 H   0  0  0  0  0  0  0  0  0  0  0  0
   -2.6332   -1.4690    0.1501 H   0  0  0  0  0  0  0  0  0  0  0  0
  1  2  1  0  0  0  0
  1  9  1  0  0  0  0
  1 11  1  0  0  0  0
  2  3  3  0  0  0  0
  3  4  1  0  0  0  0
  4  7  1  0  0  0  0
  4  5  1  1  0  0  0
  5 13  1  1  0  0  0
  5  6  1  0  0  0  0
  6 15  1  0  0  0  0
  6 16  1  0  0  0  0
  7  8  1  0  0  0  0
  7  5  1  0  0  0  0
  8 17  1  0  0  0  0
  8 19  1  0  0  0  0
 10  1  1  0  0  0  0
 12  4  1  0  0  0  0
 14  6  1  0  0  0  0
 18  8  1  0  0  0  0
M  END
