18
title
O 1.2101116 3.1628456 0.33454612
C 1.3369266 1.7493488 0.38538587
C -0.06783258 1.1613315 0.42050225
C -0.072222225 -0.35852703 0.5145421
C -1.4772398 -0.9938336 0.5142382
O -1.3043771 -2.1859725 -0.23534565
C -0.36845422 -1.8424855 -1.2228192
O 0.5582323 -0.9533377 -0.630568
H 2.0899456 3.5390103 0.24106863
H 1.871731 1.357486 -0.4911781
H 1.8948025 1.430899 1.282011
H -0.60357404 1.5772434 1.28355
H -0.6090764 1.4759787 -0.47924715
H 0.4886769 -0.67970043 1.4038457
H -1.8399844 -1.25887 1.5090657
H -2.2075503 -0.3258079 0.030368848
H 0.14650798 -2.7497375 -1.5543966
H -0.8644147 -1.3540221 -2.0818057
