19
title
C -0.9096835 1.4609829 1.8948941
C -0.86309767 -0.008679325 1.5300356
C -0.6933328 -0.51458377 0.13061894
C -0.5558231 0.41891626 -1.0695144
C 0.17983161 -0.196923 -2.1707728
C 0.7823516 -0.7224829 -3.068137
N 0.35829434 -0.71119714 1.1249259
C 1.6291903 -0.010761129 1.0211641
H -0.34502336 2.1030502 1.2167547
H -1.9475925 1.8110005 1.8940734
H -0.5127152 1.6167454 2.9040968
H -1.485747 -0.6153393 2.188921
H -1.1999835 -1.4412125 -0.13863908
H -1.564009 0.6867157 -1.4131125
H -0.07279428 1.3609241 -0.7950095
H 1.3163837 -1.1803849 -3.863294
H 1.57854 1.0375963 0.6934437
H 2.1174371 -0.02834447 2.0009105
H 2.2671592 -0.5497396 0.3145868
