title
 OpenBabel02282110003D

 16 16  0  0  1  0  0  0  0  0999 V2000
    1.1007    1.1021   -0.5117 O   0  0  0  0  0  0  0  0  0  0  0  0
    1.2880   -0.2589   -0.2412 C   0  0  1  0  0  0  0  0  0  0  0  0
    1.1072   -0.6118    1.2109 C   0  0  1  0  0  0  0  0  0  0  0  0
    0.7488    0.4250    2.0657 O   0  0  0  0  0  0  0  0  0  0  0  0
    0.0957   -1.0991    0.1798 C   0  0  1  0  0  0  0  0  0  0  0  0
   -1.3027   -0.4936    0.1706 C   0  0  0  0  0  0  0  0  0  0  0  0
   -1.6802    0.0592   -1.1300 C   0  0  0  0  0  0  0  0  0  0  0  0
   -1.9407    0.5241   -2.2096 C   0  0  0  0  0  0  0  0  0  0  0  0
    0.3791    1.1889   -1.1500 H   0  0  0  0  0  0  0  0  0  0  0  0
    2.0787   -0.7309   -0.8206 H   0  0  0  0  0  0  0  0  0  0  0  0
    1.7648   -1.3401    1.6760 H   0  0  0  0  0  0  0  0  0  0  0  0
    0.8514    1.2375    1.5473 H   0  0  0  0  0  0  0  0  0  0  0  0
    0.1492   -2.1468   -0.0990 H   0  0  0  0  0  0  0  0  0  0  0  0
   -2.0316   -1.2554    0.4693 H   0  0  0  0  0  0  0  0  0  0  0  0
   -1.3532    0.2914    0.9338 H   0  0  0  0  0  0  0  0  0  0  0  0
   -2.2063    0.9194   -3.1591 H   0  0  0  0  0  0  0  0  0  0  0  0
  1  2  1  0  0  0  0
  2  5  1  6  0  0  0
  3  2  1  6  0  0  0
  3 11  1  0  0  0  0
  3  4  1  0  0  0  0
  5  3  1  1  0  0  0
  6  5  1  0  0  0  0
  6 14  1  0  0  0  0
  6 15  1  0  0  0  0
  7  6  1  0  0  0  0
  8  7  3  0  0  0  0
  9  1  1  0  0  0  0
 10  2  1  0  0  0  0
 12  4  1  0  0  0  0
 13  5  1  0  0  0  0
 16  8  1  0  0  0  0
M  END
