20
title
C -0.60578984 0.5265027 -1.8618507
C -0.38846096 -0.8126201 -1.1873164
C 0.9847742 -1.3486993 -0.8325855
C 2.2685485 -0.5975551 -1.1173813
C 0.02006212 -0.950519 0.26818687
C 0.2521885 0.25004798 1.1726886
C -1.0479419 0.7324172 1.7819178
O -1.4529115 1.865328 1.7401929
H 0.10778922 1.2885022 -1.5406069
H -0.5116089 0.42966783 -2.9490697
H -1.6082528 0.91279423 -1.6486233
H -1.0935638 -1.5685153 -1.5253394
H 1.0956153 -2.423714 -0.9557551
H 2.1630075 0.48406982 -1.008613
H 3.0670917 -0.91853356 -0.43909538
H 2.6091604 -0.78999573 -2.1407044
H -0.4390394 -1.7827197 0.79821134
H 0.91362685 -0.046186157 2.0010529
H 0.7193876 1.0943626 0.66351444
H -1.6380471 -0.066705115 2.2909439
