17
title
C -1.3237401 1.7321415 -1.3483683
C -1.2761194 0.22495478 -1.2151258
C 0.030623864 -0.5326549 -1.3465145
O 1.2278478 0.18415478 -1.4380398
C -0.6615407 -0.47233135 -0.011598332
C -0.039986063 0.31942746 1.131601
C 0.6902079 -0.54663295 2.0583875
N 1.2521939 -1.2401372 2.7921314
H -0.3678419 2.1929321 -1.0892423
H -1.5585536 2.0186474 -2.37932
H -2.0966306 2.166724 -0.70561504
H -2.1458344 -0.28304297 -1.6242151
H 0.030441713 -1.4843055 -1.8761585
H 1.3081234 0.52637154 -2.33452
H -1.1555641 -1.3834527 0.31001964
H 0.6572072 1.0654887 0.74231327
H -0.81100595 0.85274184 1.700075
