title
 OpenBabel02282110003D

 20 20  0  0  1  0  0  0  0  0999 V2000
   -0.6058    0.5265   -1.8619 C   0  0  0  0  0  0  0  0  0  0  0  0
   -0.3885   -0.8126   -1.1873 C   0  0  1  0  0  0  0  0  0  0  0  0
    0.9848   -1.3487   -0.8326 C   0  0  1  0  0  0  0  0  0  0  0  0
    2.2685   -0.5976   -1.1174 C   0  0  0  0  0  0  0  0  0  0  0  0
    0.0201   -0.9505    0.2682 C   0  0  1  0  0  0  0  0  0  0  0  0
    0.2522    0.2500    1.1727 C   0  0  0  0  0  0  0  0  0  0  0  0
   -1.0479    0.7324    1.7819 C   0  0  0  0  0  0  0  0  0  0  0  0
   -1.4529    1.8653    1.7402 O   0  0  0  0  0  0  0  0  0  0  0  0
    0.1078    1.2885   -1.5406 H   0  0  0  0  0  0  0  0  0  0  0  0
   -0.5116    0.4297   -2.9491 H   0  0  0  0  0  0  0  0  0  0  0  0
   -1.6083    0.9128   -1.6486 H   0  0  0  0  0  0  0  0  0  0  0  0
   -1.0936   -1.5685   -1.5253 H   0  0  0  0  0  0  0  0  0  0  0  0
    1.0956   -2.4237   -0.9558 H   0  0  0  0  0  0  0  0  0  0  0  0
    2.1630    0.4841   -1.0086 H   0  0  0  0  0  0  0  0  0  0  0  0
    3.0671   -0.9185   -0.4391 H   0  0  0  0  0  0  0  0  0  0  0  0
    2.6092   -0.7900   -2.1407 H   0  0  0  0  0  0  0  0  0  0  0  0
   -0.4390   -1.7827    0.7982 H   0  0  0  0  0  0  0  0  0  0  0  0
    0.9136   -0.0462    2.0011 H   0  0  0  0  0  0  0  0  0  0  0  0
    0.7194    1.0944    0.6635 H   0  0  0  0  0  0  0  0  0  0  0  0
   -1.6380   -0.0667    2.2909 H   0  0  0  0  0  0  0  0  0  0  0  0
  1 11  1  0  0  0  0
  1  9  1  0  0  0  0
  1  2  1  0  0  0  0
  2  3  1  6  0  0  0
  3  5  1  1  0  0  0
  4 14  1  0  0  0  0
  4  3  1  0  0  0  0
  4 15  1  0  0  0  0
  5  2  1  6  0  0  0
  5 17  1  0  0  0  0
  5  6  1  0  0  0  0
  6  7  1  0  0  0  0
  6 18  1  0  0  0  0
  7 20  1  0  0  0  0
  8  7  2  0  0  0  0
 10  1  1  0  0  0  0
 12  2  1  0  0  0  0
 13  3  1  0  0  0  0
 16  4  1  0  0  0  0
 19  6  1  0  0  0  0
M  END
