title
 OpenBabel02282110003D

 19 19  0  0  1  0  0  0  0  0999 V2000
   -0.9097    1.4610    1.8949 C   0  0  0  0  0  0  0  0  0  0  0  0
   -0.8631   -0.0087    1.5300 C   0  0  1  0  0  0  0  0  0  0  0  0
   -0.6933   -0.5146    0.1306 C   0  0  1  0  0  0  0  0  0  0  0  0
   -0.5558    0.4189   -1.0695 C   0  0  0  0  0  0  0  0  0  0  0  0
    0.1798   -0.1969   -2.1708 C   0  0  0  0  0  0  0  0  0  0  0  0
    0.7824   -0.7225   -3.0681 C   0  0  0  0  0  0  0  0  0  0  0  0
    0.3583   -0.7112    1.1249 N   0  0  0  0  0  0  0  0  0  0  0  0
    1.6292   -0.0108    1.0212 C   0  0  0  0  0  0  0  0  0  0  0  0
   -0.3450    2.1031    1.2168 H   0  0  0  0  0  0  0  0  0  0  0  0
   -1.9476    1.8110    1.8941 H   0  0  0  0  0  0  0  0  0  0  0  0
   -0.5127    1.6167    2.9041 H   0  0  0  0  0  0  0  0  0  0  0  0
   -1.4857   -0.6153    2.1889 H   0  0  0  0  0  0  0  0  0  0  0  0
   -1.2000   -1.4412   -0.1386 H   0  0  0  0  0  0  0  0  0  0  0  0
   -1.5640    0.6867   -1.4131 H   0  0  0  0  0  0  0  0  0  0  0  0
   -0.0728    1.3609   -0.7950 H   0  0  0  0  0  0  0  0  0  0  0  0
    1.3164   -1.1804   -3.8633 H   0  0  0  0  0  0  0  0  0  0  0  0
    1.5785    1.0376    0.6934 H   0  0  0  0  0  0  0  0  0  0  0  0
    2.1174   -0.0283    2.0009 H   0  0  0  0  0  0  0  0  0  0  0  0
    2.2672   -0.5497    0.3146 H   0  0  0  0  0  0  0  0  0  0  0  0
  1 11  1  0  0  0  0
  2  3  1  6  0  0  0
  2  1  1  0  0  0  0
  2 12  1  0  0  0  0
  3 13  1  6  0  0  0
  3  7  1  0  0  0  0
  4 15  1  0  0  0  0
  4  3  1  0  0  0  0
  5  4  1  0  0  0  0
  6  5  3  0  0  0  0
  7  2  1  0  0  0  0
  8  7  1  0  0  0  0
  8 18  1  0  0  0  0
  9  1  1  0  0  0  0
 10  1  1  0  0  0  0
 14  4  1  0  0  0  0
 16  6  1  0  0  0  0
 17  8  1  0  0  0  0
 19  8  1  0  0  0  0
M  END
