title
 OpenBabel02282110003D

 18 18  0  0  1  0  0  0  0  0999 V2000
   -1.1135    1.7402   -1.4491 C   0  0  0  0  0  0  0  0  0  0  0  0
   -1.2183    0.2394   -1.2836 C   0  0  1  0  0  0  0  0  0  0  0  0
    0.0175   -0.6170   -1.1650 C   0  0  1  0  0  0  0  0  0  0  0  0
    1.2476    0.0457   -1.1295 O   0  0  0  0  0  0  0  0  0  0  0  0
   -0.9081   -0.4781    0.0221 C   0  0  1  0  0  0  0  0  0  0  0  0
   -0.4163    0.2635    1.2612 C   0  0  0  0  0  0  0  0  0  0  0  0
    0.6916   -0.4357    1.9125 C   0  0  0  0  0  0  0  0  0  0  0  0
    1.6154   -1.0296    2.4043 C   0  0  0  0  0  0  0  0  0  0  0  0
   -0.1632    2.1198   -1.0691 H   0  0  0  0  0  0  0  0  0  0  0  0
   -1.1630    2.0050   -2.5104 H   0  0  0  0  0  0  0  0  0  0  0  0
   -1.9314    2.2607   -0.9388 H   0  0  0  0  0  0  0  0  0  0  0  0
   -2.0288   -0.2115   -1.8502 H   0  0  0  0  0  0  0  0  0  0  0  0
    0.0334   -1.5703   -1.6927 H   0  0  0  0  0  0  0  0  0  0  0  0
    1.7502   -0.3148   -0.3883 H   0  0  0  0  0  0  0  0  0  0  0  0
   -1.5194   -1.3460    0.2521 H   0  0  0  0  0  0  0  0  0  0  0  0
   -0.0900    1.2747    1.0018 H   0  0  0  0  0  0  0  0  0  0  0  0
   -1.2426    0.3838    1.9723 H   0  0  0  0  0  0  0  0  0  0  0  0
    2.4199   -1.5470    2.8657 H   0  0  0  0  0  0  0  0  0  0  0  0
  1  2  1  0  0  0  0
  1  9  1  0  0  0  0
  1 11  1  0  0  0  0
  2  3  1  6  0  0  0
  3  4  1  0  0  0  0
  3  5  1  1  0  0  0
  4 14  1  0  0  0  0
  5  2  1  6  0  0  0
  5 15  1  0  0  0  0
  5  6  1  0  0  0  0
  6  7  1  0  0  0  0
  6 17  1  0  0  0  0
  7  8  3  0  0  0  0
  8 18  1  0  0  0  0
 10  1  1  0  0  0  0
 12  2  1  0  0  0  0
 13  3  1  0  0  0  0
 16  6  1  0  0  0  0
M  END
