18
title
C -1.5184199 1.4358834 0.2886473
C -1.59852 -0.056403924 0.048990406
C -1.107876 -0.7078218 -1.2356604
C -0.49953544 0.08031147 -2.3766882
C -0.3619318 -0.927734 0.04956176
O 0.9117427 -0.3126535 0.137766
C 1.3894267 -0.09762707 1.3816476
O 2.4560113 0.39973637 1.5827202
H -0.58758163 1.8660313 -0.085581414
H -2.3486676 1.9523526 -0.20411418
H -1.579127 1.6614954 1.3590533
H -2.4728184 -0.52520245 0.49423504
H -1.6906557 -1.5657752 -1.5609819
H 0.1824788 0.85550267 -2.024782
H 0.072634466 -0.58224803 -3.0340216
H -1.2810632 0.5557225 -2.9783492
H -0.39082026 -1.9062214 0.5210611
H 0.69309235 -0.43618938 2.1724465
