title
 OpenBabel02282110003D

 19 19  0  0  1  0  0  0  0  0999 V2000
   -0.9812    1.3417    1.9606 C   0  0  0  0  0  0  0  0  0  0  0  0
   -0.8123   -0.1312    1.6518 C   0  0  1  0  0  0  0  0  0  0  0  0
   -0.6837   -0.6741    0.2618 C   0  0  1  0  0  0  0  0  0  0  0  0
   -0.7073    0.2069   -0.9779 C   0  0  0  0  0  0  0  0  0  0  0  0
    0.0375   -0.4370   -2.1313 C   0  0  0  0  0  0  0  0  0  0  0  0
    0.8741    0.1117   -2.8001 O   0  0  0  0  0  0  0  0  0  0  0  0
    0.4440   -0.7298    1.1933 N   0  0  0  0  0  0  0  0  0  0  0  0
    1.6295    0.0906    0.9866 C   0  0  0  0  0  0  0  0  0  0  0  0
   -0.5265    2.0008    1.2193 H   0  0  0  0  0  0  0  0  0  0  0  0
   -2.0469    1.5888    2.0145 H   0  0  0  0  0  0  0  0  0  0  0  0
   -0.5404    1.5811    2.9345 H   0  0  0  0  0  0  0  0  0  0  0  0
   -1.3314   -0.7668    2.3703 H   0  0  0  0  0  0  0  0  0  0  0  0
   -1.1172   -1.6578    0.0715 H   0  0  0  0  0  0  0  0  0  0  0  0
   -1.7557    0.3185   -1.2936 H   0  0  0  0  0  0  0  0  0  0  0  0
   -0.2994    1.2062   -0.8238 H   0  0  0  0  0  0  0  0  0  0  0  0
   -0.2529   -1.4955   -2.3300 H   0  0  0  0  0  0  0  0  0  0  0  0
    1.4545    1.1052    0.6034 H   0  0  0  0  0  0  0  0  0  0  0  0
    2.1593    0.1800    1.9403 H   0  0  0  0  0  0  0  0  0  0  0  0
    2.2928   -0.4209    0.2822 H   0  0  0  0  0  0  0  0  0  0  0  0
  1 10  1  0  0  0  0
  1 11  1  0  0  0  0
  2  3  1  6  0  0  0
  2  1  1  0  0  0  0
  2 12  1  0  0  0  0
  3 13  1  6  0  0  0
  3  7  1  0  0  0  0
  4 15  1  0  0  0  0
  4  3  1  0  0  0  0
  5  4  1  0  0  0  0
  6  5  2  0  0  0  0
  7  2  1  0  0  0  0
  8  7  1  0  0  0  0
  8 18  1  0  0  0  0
  9  1  1  0  0  0  0
 14  4  1  0  0  0  0
 16  5  1  0  0  0  0
 17  8  1  0  0  0  0
 19  8  1  0  0  0  0
M  END
