title
 OpenBabel02282110003D

 16 16  0  0  1  0  0  0  0  0999 V2000
    1.3424    1.3525   -0.3915 O   0  0  0  0  0  0  0  0  0  0  0  0
    1.4876   -0.0260   -0.2333 C   0  0  1  0  0  0  0  0  0  0  0  0
    1.2787   -0.5874    1.1520 C   0  0  1  0  0  0  0  0  0  0  0  0
    0.8851    0.3497    2.1249 O   0  0  0  0  0  0  0  0  0  0  0  0
    0.2627   -0.8790    0.0711 C   0  0  1  0  0  0  0  0  0  0  0  0
   -1.1255   -0.2653    0.1047 C   0  0  0  0  0  0  0  0  0  0  0  0
   -1.6185    0.0447   -1.2954 C   0  0  0  0  0  0  0  0  0  0  0  0
   -2.6555   -0.3552   -1.7595 O   0  0  0  0  0  0  0  0  0  0  0  0
    1.1455    1.7049    0.4880 H   0  0  0  0  0  0  0  0  0  0  0  0
    2.2630   -0.4329   -0.8752 H   0  0  0  0  0  0  0  0  0  0  0  0
    1.8930   -1.4040    1.5241 H   0  0  0  0  0  0  0  0  0  0  0  0
    1.6720    0.6192    2.6111 H   0  0  0  0  0  0  0  0  0  0  0  0
    0.2962   -1.8936   -0.3169 H   0  0  0  0  0  0  0  0  0  0  0  0
   -1.8438   -0.9275    0.5960 H   0  0  0  0  0  0  0  0  0  0  0  0
   -1.0993    0.6760    0.6646 H   0  0  0  0  0  0  0  0  0  0  0  0
   -0.9285    0.6896   -1.8823 H   0  0  0  0  0  0  0  0  0  0  0  0
  1  2  1  0  0  0  0
  1  9  1  0  0  0  0
  2  5  1  6  0  0  0
  3  2  1  6  0  0  0
  3 11  1  0  0  0  0
  3  4  1  0  0  0  0
  4 12  1  0  0  0  0
  5  6  1  0  0  0  0
  5  3  1  1  0  0  0
  6 14  1  0  0  0  0
  6 15  1  0  0  0  0
  7  6  1  0  0  0  0
  8  7  2  0  0  0  0
 10  2  1  0  0  0  0
 13  5  1  0  0  0  0
 16  7  1  0  0  0  0
M  END
