19
title
C -1.4169976 1.3394578 0.18688387
C -1.3645855 -0.14182888 -0.11252968
C -0.80635804 -0.71329767 -1.3995565
C -0.24836539 0.14953254 -2.5116665
C -0.06580054 -0.9211482 -0.094076686
N 1.177286 -0.23617102 0.11131293
C 1.5952023 0.18112533 1.3398371
O 0.9374236 0.13422999 2.3557172
H -0.5532156 1.8751353 -0.2126337
H -2.3179135 1.7911397 -0.24222405
H -1.4300814 1.502568 1.2680796
H -2.2033978 -0.6943736 0.30237934
H -1.3117942 -1.603848 -1.7643058
H 0.2924477 1.0201049 -2.133667
H 0.44029832 -0.4224739 -3.1447334
H -1.0533108 0.5179577 -3.1562965
H -0.10057282 -1.9133424 0.34968346
H 1.8607877 -0.24482259 -0.63055336
H 2.626897 0.58820456 1.3022906
