title
 OpenBabel02282110003D

 17 17  0  0  1  0  0  0  0  0999 V2000
   -1.2614    1.4986   -1.4317 C   0  0  0  0  0  0  0  0  0  0  0  0
   -1.1501   -0.0086   -1.3734 C   0  0  1  0  0  0  0  0  0  0  0  0
    0.2036   -0.7026   -1.4005 C   0  0  1  0  0  0  0  0  0  0  0  0
    1.3809    0.0408   -1.4008 O   0  0  0  0  0  0  0  0  0  0  0  0
   -0.6361   -0.7200   -0.1455 C   0  0  1  0  0  0  0  0  0  0  0  0
   -0.1662    0.1135    0.8943 O   0  0  0  0  0  0  0  0  0  0  0  0
    0.4051   -0.5081    1.9543 C   0  0  0  0  0  0  0  0  0  0  0  0
    0.9595    0.1790    2.8530 N   0  0  0  0  0  0  0  0  0  0  0  0
   -0.3887    1.9842   -0.9929 H   0  0  0  0  0  0  0  0  0  0  0  0
   -1.3393    1.8293   -2.4719 H   0  0  0  0  0  0  0  0  0  0  0  0
   -2.1475    1.8504   -0.8945 H   0  0  0  0  0  0  0  0  0  0  0  0
   -1.9479   -0.5436   -1.8829 H   0  0  0  0  0  0  0  0  0  0  0  0
    0.3078   -1.6171   -1.9770 H   0  0  0  0  0  0  0  0  0  0  0  0
    1.4617    0.4676   -0.5386 H   0  0  0  0  0  0  0  0  0  0  0  0
   -1.1211   -1.6280    0.2037 H   0  0  0  0  0  0  0  0  0  0  0  0
    0.3080   -1.6010    1.9211 H   0  0  0  0  0  0  0  0  0  0  0  0
    1.3159   -0.4284    3.5878 H   0  0  0  0  0  0  0  0  0  0  0  0
  1  2  1  0  0  0  0
  1  9  1  0  0  0  0
  1 11  1  0  0  0  0
  2  3  1  6  0  0  0
  3  5  1  1  0  0  0
  4  3  1  0  0  0  0
  4 14  1  0  0  0  0
  5  2  1  6  0  0  0
  5 15  1  0  0  0  0
  5  6  1  0  0  0  0
  6  7  1  0  0  0  0
  7  8  2  0  0  0  0
  8 17  1  0  0  0  0
 10  1  1  0  0  0  0
 12  2  1  0  0  0  0
 13  3  1  0  0  0  0
 16  7  1  0  0  0  0
M  END
