16
title
O 1.3424037 1.3525255 -0.39148244
C 1.4876486 -0.02595076 -0.23334268
C 1.2787493 -0.58741915 1.1519583
O 0.8850588 0.34965268 2.12491
C 0.26266006 -0.87902987 0.071051426
C -1.1255441 -0.265251 0.10472224
C -1.618509 0.04472551 -1.295386
O -2.6555164 -0.355219 -1.7595408
H 1.1455294 1.7048503 0.48804945
H 2.263014 -0.43291104 -0.8751755
H 1.8929771 -1.4039651 1.524148
H 1.6720327 0.6191636 2.6110983
H 0.29615155 -1.8935628 -0.31692934
H -1.8438096 -0.9274657 0.5959521
H -1.0993204 0.67595696 0.66460574
H -0.9285195 0.6896263 -1.8822699
