title
 OpenBabel02282110003D

 18 18  0  0  1  0  0  0  0  0999 V2000
   -1.3498    1.7441   -1.3451 C   0  0  0  0  0  0  0  0  0  0  0  0
   -1.3013    0.2314   -1.3309 C   0  0  1  0  0  0  0  0  0  0  0  0
    0.0168   -0.5091   -1.4431 C   0  0  1  0  0  0  0  0  0  0  0  0
    1.2156    0.2103   -1.4138 O   0  0  0  0  0  0  0  0  0  0  0  0
   -0.7525   -0.5535   -0.1491 C   0  0  1  0  0  0  0  0  0  0  0  0
   -0.2140    0.1215    1.0977 C   0  0  0  0  0  0  0  0  0  0  0  0
    0.5314   -0.8471    1.9970 C   0  0  0  0  0  0  0  0  0  0  0  0
    1.5061   -0.5713    2.6453 O   0  0  0  0  0  0  0  0  0  0  0  0
   -0.4139    2.1798   -0.9891 H   0  0  0  0  0  0  0  0  0  0  0  0
   -1.5235    2.1143   -2.3617 H   0  0  0  0  0  0  0  0  0  0  0  0
   -2.1618    2.1243   -0.7161 H   0  0  0  0  0  0  0  0  0  0  0  0
   -2.1388   -0.2432   -1.8367 H   0  0  0  0  0  0  0  0  0  0  0  0
    0.0487   -1.4149   -2.0483 H   0  0  0  0  0  0  0  0  0  0  0  0
    1.3354    0.6329   -2.2708 H   0  0  0  0  0  0  0  0  0  0  0  0
   -1.2614   -1.4935    0.0538 H   0  0  0  0  0  0  0  0  0  0  0  0
    0.4532    0.9535    0.8714 H   0  0  0  0  0  0  0  0  0  0  0  0
   -1.0511    0.5163    1.6945 H   0  0  0  0  0  0  0  0  0  0  0  0
    0.0876   -1.8712    2.0401 H   0  0  0  0  0  0  0  0  0  0  0  0
  1  2  1  0  0  0  0
  1  9  1  0  0  0  0
  1 11  1  0  0  0  0
  2  3  1  6  0  0  0
  3  4  1  0  0  0  0
  3  5  1  1  0  0  0
  5  2  1  6  0  0  0
  5 15  1  0  0  0  0
  5  6  1  0  0  0  0
  6 17  1  0  0  0  0
  6  7  1  0  0  0  0
  7 18  1  0  0  0  0
  7  8  2  0  0  0  0
 10  1  1  0  0  0  0
 12  2  1  0  0  0  0
 13  3  1  0  0  0  0
 14  4  1  0  0  0  0
 16  6  1  0  0  0  0
M  END
