17
title
C -1.1851689 1.585431 -1.085226
C -0.99021155 0.08898889 -1.1737118
C 0.33260593 -0.5157522 -1.5643458
O 1.3906039 0.38441756 -1.7728738
C -0.1679198 -0.6805008 -0.1465295
N 0.558682 0.017367216 0.86720735
C 0.32177922 -0.14633617 2.194793
O -0.53432775 -0.86289495 2.6691098
H -0.28222314 2.0934005 -0.74300164
H -1.4458145 1.999485 -2.0643966
H -1.9945087 1.8263465 -0.38875437
H -1.8548505 -0.4557224 -1.5439252
H 0.33662042 -1.3809197 -2.2247152
H 2.2136683 -0.114128605 -1.7276708
H -0.53432024 -1.6412905 0.1944099
H 1.3108274 0.6167569 0.5630879
H 1.0209762 0.45515907 2.809878
