19
title
C -1.7695655 1.2048556 1.4082038
C -1.513943 -0.22028214 0.9688065
C -1.3207572 -0.6271843 -0.4593912
C -1.3731403 0.34131962 -1.6210513
N -0.20576455 -0.68745136 0.49796972
C 0.9174534 0.22603388 0.38956863
C 2.1095955 -0.50260293 -0.21554056
O 2.9821622 0.034529906 -0.8459796
H -1.3637093 1.3758137 2.411572
H -1.3308716 1.950012 0.74216795
H -2.8474457 1.3926601 1.4562036
H -1.9971406 -0.9495688 1.6200099
H -1.6729023 -1.6221489 -0.7320889
H -1.1546223 1.373901 -1.3435025
H -0.6646536 0.048977625 -2.4042587
H -2.3749263 0.3260746 -2.0628633
H 0.75800145 1.1495568 -0.18190828
H 1.2197832 0.5252585 1.4044477
H 2.110298 -1.5959647 -0.009544047
