title
 OpenBabel02282110003D

 21 21  0  0  1  0  0  0  0  0999 V2000
   -0.9729    1.2667    2.0452 C   0  0  0  0  0  0  0  0  0  0  0  0
   -0.8915   -0.1974    1.6655 C   0  0  1  0  0  0  0  0  0  0  0  0
   -0.6310   -0.6714    0.2691 C   0  0  1  0  0  0  0  0  0  0  0  0
   -0.4362    0.2671   -0.9047 C   0  0  0  0  0  0  0  0  0  0  0  0
    0.3142   -0.3965   -2.0564 C   0  0  0  0  0  0  0  0  0  0  0  0
    0.3782    0.5372   -3.1236 O   0  0  0  0  0  0  0  0  0  0  0  0
    0.3599   -0.8837    1.3329 N   0  0  0  0  0  0  0  0  0  0  0  0
    1.6202   -0.1581    1.3404 C   0  0  0  0  0  0  0  0  0  0  0  0
   -0.3848    1.9201    1.3988 H   0  0  0  0  0  0  0  0  0  0  0  0
   -2.0138    1.6037    1.9946 H   0  0  0  0  0  0  0  0  0  0  0  0
   -0.6305    1.4177    3.0751 H   0  0  0  0  0  0  0  0  0  0  0  0
   -1.5500   -0.8189    2.2738 H   0  0  0  0  0  0  0  0  0  0  0  0
   -1.1174   -1.6036   -0.0256 H   0  0  0  0  0  0  0  0  0  0  0  0
   -1.4189    0.5836   -1.2765 H   0  0  0  0  0  0  0  0  0  0  0  0
    0.0964    1.1796   -0.6265 H   0  0  0  0  0  0  0  0  0  0  0  0
    1.3213   -0.6955   -1.7250 H   0  0  0  0  0  0  0  0  0  0  0  0
   -0.2133   -1.3159   -2.3594 H   0  0  0  0  0  0  0  0  0  0  0  0
    0.8544    0.1292   -3.8525 H   0  0  0  0  0  0  0  0  0  0  0  0
    1.5900    0.8713    0.9563 H   0  0  0  0  0  0  0  0  0  0  0  0
    1.9936   -0.1175    2.3692 H   0  0  0  0  0  0  0  0  0  0  0  0
    2.3513   -0.7157    0.7452 H   0  0  0  0  0  0  0  0  0  0  0  0
  1 11  1  0  0  0  0
  2  3  1  6  0  0  0
  2  1  1  0  0  0  0
  2 12  1  0  0  0  0
  3 13  1  6  0  0  0
  3  7  1  0  0  0  0
  4 15  1  0  0  0  0
  4  3  1  0  0  0  0
  5 16  1  0  0  0  0
  5  4  1  0  0  0  0
  6  5  1  0  0  0  0
  7  8  1  0  0  0  0
  7  2  1  0  0  0  0
  8 20  1  0  0  0  0
  9  1  1  0  0  0  0
 10  1  1  0  0  0  0
 14  4  1  0  0  0  0
 17  5  1  0  0  0  0
 18  6  1  0  0  0  0
 19  8  1  0  0  0  0
 21  8  1  0  0  0  0
M  END
