title
 OpenBabel02282110003D

 20 20  0  0  1  0  0  0  0  0999 V2000
   -1.4589    1.5878   -1.3974 C   0  0  0  0  0  0  0  0  0  0  0  0
   -1.1941    0.0976   -1.3948 C   0  0  1  0  0  0  0  0  0  0  0  0
    0.2105   -0.4340   -1.2420 C   0  0  1  0  0  0  0  0  0  0  0  0
    1.2341    0.4893   -1.0425 O   0  0  0  0  0  0  0  0  0  0  0  0
   -0.7990   -0.6678   -0.1379 C   0  0  1  0  0  0  0  0  0  0  0  0
   -0.6470   -0.0007    1.2160 C   0  0  0  0  0  0  0  0  0  0  0  0
    0.3824   -0.6833    2.1132 C   0  0  0  0  0  0  0  0  0  0  0  0
    1.6858   -0.4568    1.5684 O   0  0  0  0  0  0  0  0  0  0  0  0
   -0.6539    2.1337   -0.9023 H   0  0  0  0  0  0  0  0  0  0  0  0
   -1.5139    1.9586   -2.4266 H   0  0  0  0  0  0  0  0  0  0  0  0
   -2.4067    1.8337   -0.9057 H   0  0  0  0  0  0  0  0  0  0  0  0
   -1.8263   -0.4646   -2.0777 H   0  0  0  0  0  0  0  0  0  0  0  0
    0.4913   -1.2936   -1.8526 H   0  0  0  0  0  0  0  0  0  0  0  0
    1.6848    0.2267   -0.2249 H   0  0  0  0  0  0  0  0  0  0  0  0
   -1.1900   -1.6818   -0.0728 H   0  0  0  0  0  0  0  0  0  0  0  0
   -0.3588    1.0485    1.1073 H   0  0  0  0  0  0  0  0  0  0  0  0
   -1.6099   -0.0080    1.7424 H   0  0  0  0  0  0  0  0  0  0  0  0
    0.3256   -0.2711    3.1314 H   0  0  0  0  0  0  0  0  0  0  0  0
    0.1743   -1.7618    2.1751 H   0  0  0  0  0  0  0  0  0  0  0  0
    2.3159   -1.0377    2.0031 H   0  0  0  0  0  0  0  0  0  0  0  0
  1  2  1  0  0  0  0
  1 11  1  0  0  0  0
  1  9  1  0  0  0  0
  2  3  1  6  0  0  0
  3  4  1  0  0  0  0
  3  5  1  1  0  0  0
  4 14  1  0  0  0  0
  5  2  1  6  0  0  0
  5 15  1  0  0  0  0
  5  6  1  0  0  0  0
  6 17  1  0  0  0  0
  6  7  1  0  0  0  0
  7 19  1  0  0  0  0
  7 18  1  0  0  0  0
  8 20  1  0  0  0  0
  8  7  1  0  0  0  0
 10  1  1  0  0  0  0
 12  2  1  0  0  0  0
 13  3  1  0  0  0  0
 16  6  1  0  0  0  0
M  END
