22
title
C -0.6716137 0.19433211 -2.1120276
C -0.41723555 -1.0250374 -1.2500963
C 0.9708028 -1.4467739 -0.81063074
C 2.2253149 -0.68430066 -1.1847388
C -0.025496004 -0.9428278 0.21593392
C 0.149162 0.36537838 0.96014136
C -1.1618835 0.87451947 1.5511736
O -0.88286763 2.0692525 2.2668474
H -0.026136128 1.0380338 -1.8573971
H -0.5038421 -0.03551288 -3.1704597
H -1.7083033 0.5353209 -2.0112314
H -1.0831914 -1.8504195 -1.4920534
H 1.129908 -2.522674 -0.78998333
H 2.0748386 0.39722264 -1.2118108
H 3.0297499 -0.88269985 -0.46755058
H 2.584371 -0.98907363 -2.1742418
H -0.4583871 -1.72083 0.8427116
H 0.86595213 0.23653327 1.7810242
H 0.55948216 1.1492478 0.31728667
H -1.8900062 1.052104 0.74366874
H -1.5930661 0.105039164 2.212986
H -1.7069352 2.3963015 2.6387393
