15
title
O 0.75125504 1.5024332 -0.16437477
C 1.267256 0.23582609 -0.39264193
C 1.316523 -0.64157987 0.8383364
O 0.7838338 -0.09250186 1.9933127
C 0.3699203 -0.98723924 -0.29809898
O -1.0175389 -0.94271106 -0.0066512395
C -1.8619977 -0.16826202 -0.68597764
N -1.5358285 0.7905886 -1.4516449
H -0.037716698 1.5694115 -0.7452576
H 2.0692914 0.17845754 -1.128149
H 2.1644468 -1.2947745 1.0212432
H 0.5611246 0.8233758 1.7617787
H 0.60622555 -1.8308476 -0.9408027
H -2.885138 -0.4804078 -0.45954964
H -2.359545 1.2365716 -1.845638
