21
title
C -0.97285634 1.2667255 2.0451696
C -0.8914651 -0.19742538 1.6654574
C -0.63102573 -0.67138475 0.26909626
C -0.43622684 0.2670705 -0.9046891
C 0.31424165 -0.3965454 -2.056444
O 0.37816703 0.537203 -3.1236367
N 0.35987127 -0.88366365 1.3328828
C 1.620213 -0.1581138 1.3404368
H -0.38475645 1.9201016 1.3987834
H -2.013845 1.6037202 1.9946076
H -0.6304804 1.4177047 3.0751235
H -1.5500394 -0.8189307 2.2737982
H -1.1174027 -1.6035622 -0.025572643
H -1.4188682 0.5835663 -1.2765124
H 0.09638272 1.1796108 -0.62648654
H 1.3213346 -0.6954595 -1.7250025
H -0.21328916 -1.3158549 -2.359438
H 0.85443854 0.12924215 -3.8524685
H 1.5900061 0.87126905 0.9562863
H 1.993607 -0.117538124 2.369175
H 2.351275 -0.7157431 0.7452235
