title
 OpenBabel02282110003D

 22 22  0  0  1  0  0  0  0  0999 V2000
    1.1632    2.1970    1.8951 C   0  0  0  0  0  0  0  0  0  0  0  0
    1.2264    1.0016    1.1583 O   0  0  0  0  0  0  0  0  0  0  0  0
    0.3982    1.0239    0.0088 C   0  0  0  0  0  0  0  0  0  0  0  0
    0.5888   -0.2678   -0.7407 C   0  0  1  0  0  0  0  0  0  0  0  0
   -0.0677   -1.5583   -0.2933 C   0  0  1  0  0  0  0  0  0  0  0  0
   -0.9415   -1.6406    0.9405 C   0  0  0  0  0  0  0  0  0  0  0  0
   -0.5048   -0.8973   -1.5849 C   0  0  1  0  0  0  0  0  0  0  0  0
   -1.8740   -0.2794   -1.7856 C   0  0  0  0  0  0  0  0  0  0  0  0
    1.8306    2.0903    2.7540 H   0  0  0  0  0  0  0  0  0  0  0  0
    1.4884    3.0656    1.2993 H   0  0  0  0  0  0  0  0  0  0  0  0
    0.1440    2.4015    2.2623 H   0  0  0  0  0  0  0  0  0  0  0  0
   -0.6503    1.1781    0.3062 H   0  0  0  0  0  0  0  0  0  0  0  0
    0.6712    1.8793   -0.6341 H   0  0  0  0  0  0  0  0  0  0  0  0
    1.5988   -0.3684   -1.1293 H   0  0  0  0  0  0  0  0  0  0  0  0
    0.5533   -2.4412   -0.4253 H   0  0  0  0  0  0  0  0  0  0  0  0
   -1.6025   -0.7778    1.0514 H   0  0  0  0  0  0  0  0  0  0  0  0
   -1.5752   -2.5340    0.9102 H   0  0  0  0  0  0  0  0  0  0  0  0
   -0.3242   -1.6937    1.8430 H   0  0  0  0  0  0  0  0  0  0  0  0
   -0.1368   -1.3826   -2.4860 H   0  0  0  0  0  0  0  0  0  0  0  0
   -2.2762    0.1752   -0.8775 H   0  0  0  0  0  0  0  0  0  0  0  0
   -1.8445    0.4988   -2.5566 H   0  0  0  0  0  0  0  0  0  0  0  0
   -2.5928   -1.0390   -2.1131 H   0  0  0  0  0  0  0  0  0  0  0  0
  1 11  1  0  0  0  0
  1  9  1  0  0  0  0
  2  1  1  0  0  0  0
  3 12  1  0  0  0  0
  3  2  1  0  0  0  0
  4  5  1  1  0  0  0
  4  3  1  0  0  0  0
  5  7  1  6  0  0  0
  5  6  1  0  0  0  0
  6 16  1  0  0  0  0
  6 18  1  0  0  0  0
  7  4  1  1  0  0  0
  8  7  1  0  0  0  0
  8 20  1  0  0  0  0
 10  1  1  0  0  0  0
 13  3  1  0  0  0  0
 14  4  1  0  0  0  0
 15  5  1  0  0  0  0
 17  6  1  0  0  0  0
 19  7  1  0  0  0  0
 21  8  1  0  0  0  0
 22  8  1  0  0  0  0
M  END
