title
 OpenBabel02282110003D

 21 21  0  0  1  0  0  0  0  0999 V2000
    0.5534    2.9339   -0.9385 C   0  0  0  0  0  0  0  0  0  0  0  0
    0.2332    1.5787   -1.1362 O   0  0  0  0  0  0  0  0  0  0  0  0
    0.8005    0.7326   -0.1538 C   0  0  0  0  0  0  0  0  0  0  0  0
    0.4475   -0.6899   -0.5076 C   0  0  1  0  0  0  0  0  0  0  0  0
    0.2851   -1.7667    0.5219 C   0  0  1  0  0  0  0  0  0  0  0  0
    0.4704   -1.5533    2.0109 C   0  0  0  0  0  0  0  0  0  0  0  0
   -0.8652   -1.2790   -0.2403 N   0  0  0  0  0  0  0  0  0  0  0  0
   -1.9109   -0.4891    0.3921 C   0  0  0  0  0  0  0  0  0  0  0  0
    1.6411    3.1076   -0.9741 H   0  0  0  0  0  0  0  0  0  0  0  0
    0.0791    3.5035   -1.7414 H   0  0  0  0  0  0  0  0  0  0  0  0
    0.1813    3.3077    0.0294 H   0  0  0  0  0  0  0  0  0  0  0  0
    1.8993    0.8427   -0.1436 H   0  0  0  0  0  0  0  0  0  0  0  0
    0.4429    1.0218    0.8451 H   0  0  0  0  0  0  0  0  0  0  0  0
    0.8491   -0.9722   -1.4810 H   0  0  0  0  0  0  0  0  0  0  0  0
    0.5858   -2.7685    0.2124 H   0  0  0  0  0  0  0  0  0  0  0  0
    0.2096   -0.5491    2.3485 H   0  0  0  0  0  0  0  0  0  0  0  0
   -0.1436   -2.2637    2.5756 H   0  0  0  0  0  0  0  0  0  0  0  0
    1.5152   -1.7343    2.2854 H   0  0  0  0  0  0  0  0  0  0  0  0
   -1.5958    0.1422    1.2350 H   0  0  0  0  0  0  0  0  0  0  0  0
   -2.3533    0.1642   -0.3651 H   0  0  0  0  0  0  0  0  0  0  0  0
   -2.6883   -1.1677    0.7582 H   0  0  0  0  0  0  0  0  0  0  0  0
  1 11  1  0  0  0  0
  2  1  1  0  0  0  0
  2  3  1  0  0  0  0
  3 12  1  0  0  0  0
  3 13  1  0  0  0  0
  4  7  1  0  0  0  0
  4  3  1  0  0  0  0
  4  5  1  1  0  0  0
  5 15  1  6  0  0  0
  5  6  1  0  0  0  0
  6 18  1  0  0  0  0
  6 16  1  0  0  0  0
  6 17  1  0  0  0  0
  7  8  1  0  0  0  0
  7  5  1  0  0  0  0
  8 21  1  0  0  0  0
  8 19  1  0  0  0  0
  9  1  1  0  0  0  0
 10  1  1  0  0  0  0
 14  4  1  0  0  0  0
 20  8  1  0  0  0  0
M  END
