title
 OpenBabel02282110003D

 22 22  0  0  1  0  0  0  0  0999 V2000
   -0.9417    2.5050    1.5801 C   0  0  0  0  0  0  0  0  0  0  0  0
   -1.1202    1.0222    1.3039 C   0  0  0  0  0  0  0  0  0  0  0  0
    0.0966    0.5155    0.7763 O   0  0  0  0  0  0  0  0  0  0  0  0
    0.0565   -0.8520    0.5119 C   0  0  1  0  0  0  0  0  0  0  0  0
   -0.3732   -1.3409   -0.8599 C   0  0  1  0  0  0  0  0  0  0  0  0
   -0.8683   -0.3782   -1.9182 C   0  0  0  0  0  0  0  0  0  0  0  0
    1.0908   -1.3874   -0.4369 C   0  0  1  0  0  0  0  0  0  0  0  0
    2.1431   -0.4817   -1.0414 C   0  0  0  0  0  0  0  0  0  0  0  0
   -0.1253    2.6674    2.2896 H   0  0  0  0  0  0  0  0  0  0  0  0
   -0.7045    3.0429    0.6575 H   0  0  0  0  0  0  0  0  0  0  0  0
   -1.8587    2.9276    2.0015 H   0  0  0  0  0  0  0  0  0  0  0  0
   -1.3757    0.4838    2.2316 H   0  0  0  0  0  0  0  0  0  0  0  0
   -1.9437    0.8518    0.5941 H   0  0  0  0  0  0  0  0  0  0  0  0
   -0.2150   -1.4554    1.3804 H   0  0  0  0  0  0  0  0  0  0  0  0
   -0.8762   -2.3052   -0.8693 H   0  0  0  0  0  0  0  0  0  0  0  0
   -0.4905    0.6323   -1.7491 H   0  0  0  0  0  0  0  0  0  0  0  0
   -0.5565   -0.6916   -2.9207 H   0  0  0  0  0  0  0  0  0  0  0  0
   -1.9627   -0.3274   -1.9156 H   0  0  0  0  0  0  0  0  0  0  0  0
    1.4604   -2.3798   -0.1903 H   0  0  0  0  0  0  0  0  0  0  0  0
    1.7875    0.5450   -1.1393 H   0  0  0  0  0  0  0  0  0  0  0  0
    3.0356   -0.4571   -0.4070 H   0  0  0  0  0  0  0  0  0  0  0  0
    2.4491   -0.8379   -2.0312 H   0  0  0  0  0  0  0  0  0  0  0  0
  1 11  1  0  0  0  0
  1  9  1  0  0  0  0
  2  1  1  0  0  0  0
  2 12  1  0  0  0  0
  3  2  1  0  0  0  0
  4  5  1  6  0  0  0
  4  3  1  0  0  0  0
  4 14  1  0  0  0  0
  5  7  1  6  0  0  0
  6 18  1  0  0  0  0
  6 16  1  0  0  0  0
  6  5  1  0  0  0  0
  7 19  1  0  0  0  0
  7  4  1  1  0  0  0
  8  7  1  0  0  0  0
  8 21  1  0  0  0  0
 10  1  1  0  0  0  0
 13  2  1  0  0  0  0
 15  5  1  0  0  0  0
 17  6  1  0  0  0  0
 20  8  1  0  0  0  0
 22  8  1  0  0  0  0
M  END
