title
 OpenBabel02282110003D

 18 18  0  0  1  0  0  0  0  0999 V2000
    1.5657    2.6055   -0.0745 C   0  0  0  0  0  0  0  0  0  0  0  0
    1.5287    1.1333    0.2916 C   0  0  0  0  0  0  0  0  0  0  0  0
    0.6580    0.4684   -0.6306 O   0  0  0  0  0  0  0  0  0  0  0  0
    0.5140   -0.8942   -0.3992 C   0  0  1  0  0  0  0  0  0  0  0  0
   -0.3625   -1.3654    0.7591 C   0  0  1  0  0  0  0  0  0  0  0  0
   -0.9319   -0.4244    1.6095 O   0  0  0  0  0  0  0  0  0  0  0  0
   -0.8875   -1.3925   -0.6624 C   0  0  1  0  0  0  0  0  0  0  0  0
   -1.8484   -0.4108   -0.9365 O   0  0  0  0  0  0  0  0  0  0  0  0
    2.2375    3.1448    0.5997 H   0  0  0  0  0  0  0  0  0  0  0  0
    1.9208    2.7421   -1.1001 H   0  0  0  0  0  0  0  0  0  0  0  0
    0.5690    3.0493    0.0071 H   0  0  0  0  0  0  0  0  0  0  0  0
    2.5336    0.6904    0.2211 H   0  0  0  0  0  0  0  0  0  0  0  0
    1.1572    0.9820    1.3110 H   0  0  0  0  0  0  0  0  0  0  0  0
    1.3629   -1.5121   -0.6944 H   0  0  0  0  0  0  0  0  0  0  0  0
   -0.0985   -2.2972    1.2521 H   0  0  0  0  0  0  0  0  0  0  0  0
   -1.6901   -0.0650    1.1227 H   0  0  0  0  0  0  0  0  0  0  0  0
   -1.0570   -2.3272   -1.1879 H   0  0  0  0  0  0  0  0  0  0  0  0
   -1.3524    0.3828   -1.1871 H   0  0  0  0  0  0  0  0  0  0  0  0
  1 11  1  0  0  0  0
  1  2  1  0  0  0  0
  1  9  1  0  0  0  0
  2 13  1  0  0  0  0
  3  4  1  0  0  0  0
  3  2  1  0  0  0  0
  4  5  1  1  0  0  0
  5  7  1  6  0  0  0
  5 15  1  0  0  0  0
  5  6  1  0  0  0  0
  7  4  1  6  0  0  0
  8  7  1  0  0  0  0
 10  1  1  0  0  0  0
 12  2  1  0  0  0  0
 14  4  1  0  0  0  0
 16  6  1  0  0  0  0
 17  7  1  0  0  0  0
 18  8  1  0  0  0  0
M  END
