21
title
C 0.55344915 2.9339333 -0.93850493
O 0.23318659 1.5787362 -1.1362199
C 0.8004869 0.7325809 -0.15381528
C 0.44754753 -0.6898528 -0.50758076
C 0.28509995 -1.7667121 0.52190566
C 0.47037396 -1.5533034 2.0109396
N -0.8651551 -1.2789696 -0.2403083
C -1.9108784 -0.489122 0.39212084
H 1.6411109 3.1076343 -0.97411835
H 0.079062976 3.503543 -1.7413566
H 0.181343 3.3076634 0.029361717
H 1.8993468 0.8426636 -0.14358689
H 0.44289097 1.0217808 0.84505415
H 0.84908104 -0.9721697 -1.4809635
H 0.58581173 -2.7684815 0.2124164
H 0.20960085 -0.5491412 2.3484726
H -0.14362837 -2.263693 2.575644
H 1.515239 -1.7343413 2.2853909
H -1.5957632 0.14223865 1.2349935
H -2.353346 0.16416016 -0.3651173
H -2.688309 -1.1677319 0.7581537
