title
 OpenBabel02282110003D

 20 20  0  0  1  0  0  0  0  0999 V2000
   -0.8122    2.5367    1.5961 C   0  0  0  0  0  0  0  0  0  0  0  0
   -0.6371    1.0291    1.6332 C   0  0  0  0  0  0  0  0  0  0  0  0
   -0.6611    0.5404    0.2925 O   0  0  0  0  0  0  0  0  0  0  0  0
   -0.4949   -0.8482    0.2179 C   0  0  1  0  0  0  0  0  0  0  0  0
   -0.1808   -1.4199   -1.1455 C   0  0  1  0  0  0  0  0  0  0  0  0
   -0.1675   -0.5604   -2.3897 C   0  0  0  0  0  0  0  0  0  0  0  0
    0.9113   -1.3117   -0.0919 C   0  0  1  0  0  0  0  0  0  0  0  0
    1.8972   -0.3301   -0.2054 O   0  0  0  0  0  0  0  0  0  0  0  0
    0.0053    3.0110    1.0449 H   0  0  0  0  0  0  0  0  0  0  0  0
   -1.7535    2.8015    1.1064 H   0  0  0  0  0  0  0  0  0  0  0  0
   -0.8220    2.9417    2.6122 H   0  0  0  0  0  0  0  0  0  0  0  0
    0.3095    0.7512    2.1195 H   0  0  0  0  0  0  0  0  0  0  0  0
   -1.4505    0.5579    2.2066 H   0  0  0  0  0  0  0  0  0  0  0  0
   -1.1326   -1.4105    0.8998 H   0  0  0  0  0  0  0  0  0  0  0  0
   -0.5690   -2.4247   -1.2956 H   0  0  0  0  0  0  0  0  0  0  0  0
    0.2968    0.4096   -2.2053 H   0  0  0  0  0  0  0  0  0  0  0  0
    0.3979   -1.0533   -3.1871 H   0  0  0  0  0  0  0  0  0  0  0  0
   -1.1834   -0.3795   -2.7551 H   0  0  0  0  0  0  0  0  0  0  0  0
    1.3024   -2.2184    0.3592 H   0  0  0  0  0  0  0  0  0  0  0  0
    1.4384    0.5185   -0.1447 H   0  0  0  0  0  0  0  0  0  0  0  0
  1  2  1  0  0  0  0
  1 11  1  0  0  0  0
  2 12  1  0  0  0  0
  2 13  1  0  0  0  0
  3  2  1  0  0  0  0
  4  5  1  6  0  0  0
  4  3  1  0  0  0  0
  4 14  1  0  0  0  0
  5  7  1  1  0  0  0
  6 16  1  0  0  0  0
  6  5  1  0  0  0  0
  7  4  1  1  0  0  0
  7 19  1  0  0  0  0
  8 20  1  0  0  0  0
  8  7  1  0  0  0  0
  9  1  1  0  0  0  0
 10  1  1  0  0  0  0
 15  5  1  0  0  0  0
 17  6  1  0  0  0  0
 18  6  1  0  0  0  0
M  END
