14
title
N 0.7668162 1.9233857 -0.26400876
C 0.96816236 0.6583496 -0.713767
O 2.0054872 0.242949 -1.1899908
C -0.279681 -0.22153948 -0.6180387
C -0.07404973 -1.7039351 -0.26608932
O -0.88127005 -1.5190127 0.9525155
C -1.0520037 -0.18687747 0.68350863
N -1.6055655 0.7361797 1.331145
H 1.5594009 2.5448117 -0.23705949
H -0.043259587 2.1301312 0.3058351
H -0.90501857 -0.043016482 -1.4964925
H -0.53665996 -2.4380069 -0.9269245
H 0.9518547 -1.9824553 -0.023113033
H -2.0008278 0.41079366 2.2137508
