15
title
C 0.7108797 2.2590437 -0.10254252
C 0.862356 0.8386256 -0.5997902
O 1.9238793 0.35282633 -0.9160207
C -0.42615873 0.033192173 -0.6203666
C -0.32220417 -1.4756094 -0.94895625
N -0.7899578 -1.7406591 0.42076853
C -0.87845594 -0.43459794 0.8081368
O -1.1642394 0.11822529 1.8353274
H 1.6893284 2.7307239 -0.0071149208
H 0.09015345 2.837338 -0.79688835
H 0.18899475 2.2510297 0.86156523
H -1.2218676 0.5778447 -1.1348691
H -1.0012378 -1.8351399 -1.7266994
H 0.700875 -1.8017057 -1.1463596
H -0.88766843 -2.5936399 0.9509913
