15
title
N 0.9013005 1.890539 -0.1815901
C 1.0229102 0.61021477 -0.6363362
O 2.0550323 0.1213615 -1.0465336
C -0.29752237 -0.16024166 -0.61286783
C -0.2455731 -1.708317 -0.50166494
C -1.1871965 -1.6649911 0.744461
C -1.0773891 -0.13702434 0.7134066
O -1.3799827 0.75434625 1.4583107
H 1.7539219 2.4141982 -0.057023723
H 0.105888 2.1311808 0.39406744
H -0.92192286 0.20718226 -1.4354103
H -0.63256854 -2.2525325 -1.3626511
H 0.76328963 -2.0595918 -0.28327528
H -2.209388 -2.0095253 0.5576845
H -0.83119947 -2.1345325 1.6655275
