title
 OpenBabel02282110003D

 16 16  0  0  0  0  0  0  0  0999 V2000
    1.1890    1.8798   -0.3089 C   0  0  0  0  0  0  0  0  0  0  0  0
    1.2693    0.3826   -0.1314 C   0  0  0  0  0  0  0  0  0  0  0  0
    2.2996   -0.2591   -0.1221 O   0  0  0  0  0  0  0  0  0  0  0  0
    0.0584   -0.2722    0.0296 N   0  0  0  0  0  0  0  0  0  0  0  0
   -0.1730   -1.7106    0.2205 C   0  0  0  0  0  0  0  0  0  0  0  0
   -1.6958   -1.3909    0.2829 C   0  0  0  0  0  0  0  0  0  0  0  0
   -1.2979    0.0767    0.0774 C   0  0  0  0  0  0  0  0  0  0  0  0
   -1.8312    1.2171   -0.0263 N   0  0  0  0  0  0  0  0  0  0  0  0
    2.2007    2.2684   -0.4236 H   0  0  0  0  0  0  0  0  0  0  0  0
    0.5795    2.1316   -1.1812 H   0  0  0  0  0  0  0  0  0  0  0  0
    0.6943    2.3430    0.5493 H   0  0  0  0  0  0  0  0  0  0  0  0
    0.1531   -2.3163   -0.6280 H   0  0  0  0  0  0  0  0  0  0  0  0
    0.2708   -2.1008    1.1391 H   0  0  0  0  0  0  0  0  0  0  0  0
   -2.2967   -1.8118   -0.5253 H   0  0  0  0  0  0  0  0  0  0  0  0
   -2.1791   -1.5965    1.2398 H   0  0  0  0  0  0  0  0  0  0  0  0
   -2.8449    1.1489    0.0494 H   0  0  0  0  0  0  0  0  0  0  0  0
  1  2  1  0  0  0  0
  1 11  1  0  0  0  0
  2  3  2  0  0  0  0
  2  4  1  0  0  0  0
  4  7  1  0  0  0  0
  4  5  1  0  0  0  0
  5  6  1  0  0  0  0
  5 13  1  0  0  0  0
  6 15  1  0  0  0  0
  7  6  1  0  0  0  0
  8 16  1  0  0  0  0
  8  7  2  0  0  0  0
  9  1  1  0  0  0  0
 10  1  1  0  0  0  0
 12  5  1  0  0  0  0
 14  6  1  0  0  0  0
M  END
