title
 OpenBabel02282110003D

 14 14  0  0  1  0  0  0  0  0999 V2000
    0.7668    1.9234   -0.2640 N   0  0  0  0  0  0  0  0  0  0  0  0
    0.9682    0.6583   -0.7138 C   0  0  0  0  0  0  0  0  0  0  0  0
    2.0055    0.2429   -1.1900 O   0  0  0  0  0  0  0  0  0  0  0  0
   -0.2797   -0.2215   -0.6180 C   0  0  1  0  0  0  0  0  0  0  0  0
   -0.0740   -1.7039   -0.2661 C   0  0  0  0  0  0  0  0  0  0  0  0
   -0.8813   -1.5190    0.9525 O   0  0  0  0  0  0  0  0  0  0  0  0
   -1.0520   -0.1869    0.6835 C   0  0  0  0  0  0  0  0  0  0  0  0
   -1.6056    0.7362    1.3311 N   0  0  0  0  0  0  0  0  0  0  0  0
    1.5594    2.5448   -0.2371 H   0  0  0  0  0  0  0  0  0  0  0  0
   -0.0433    2.1301    0.3058 H   0  0  0  0  0  0  0  0  0  0  0  0
   -0.9050   -0.0430   -1.4965 H   0  0  0  0  0  0  0  0  0  0  0  0
   -0.5367   -2.4380   -0.9269 H   0  0  0  0  0  0  0  0  0  0  0  0
    0.9519   -1.9825   -0.0231 H   0  0  0  0  0  0  0  0  0  0  0  0
   -2.0008    0.4108    2.2138 H   0  0  0  0  0  0  0  0  0  0  0  0
  1  9  1  0  0  0  0
  1 10  1  0  0  0  0
  2  4  1  0  0  0  0
  2  1  1  0  0  0  0
  3  2  2  0  0  0  0
  4 11  1  6  0  0  0
  4  5  1  0  0  0  0
  4  7  1  0  0  0  0
  5 13  1  0  0  0  0
  5  6  1  0  0  0  0
  7  6  1  0  0  0  0
  7  8  2  0  0  0  0
  8 14  1  0  0  0  0
 12  5  1  0  0  0  0
M  END
