14
title
N 0.80290073 1.8925718 -0.24094713
C 0.98206615 0.620536 -0.69376534
O 2.0279331 0.18383366 -1.1306562
C -0.29790244 -0.20789075 -0.6379221
C -0.15124486 -1.7285278 -0.37619084
N -0.93875086 -1.5167127 0.8522199
C -1.0511448 -0.16274995 0.7155451
O -1.5052383 0.7183756 1.4032855
H 1.620674 2.4762104 -0.16052148
H -0.002091685 2.1038 0.33384195
H -0.93753946 0.049310677 -1.4859475
H -0.63343024 -2.385186 -1.1043593
H 0.88060826 -2.042686 -0.20579669
H -1.1616797 -2.1253092 1.6257819
