13
title
N 0.7695517 1.927804 -0.30830508
C 0.982205 0.6490715 -0.7184646
O 2.035174 0.22106324 -1.1422386
C -0.27169582 -0.22344641 -0.63922244
C -0.08788422 -1.7024591 -0.2806292
O -0.87681454 -1.4985228 0.95001453
C -1.0428144 -0.17404227 0.68045944
O -1.5775151 0.6633733 1.3397688
H 1.5650133 2.5449004 -0.263006
H -0.053926915 2.157874 0.22872964
H -0.9049577 -0.028211819 -1.5082209
H -0.57462806 -2.4315445 -0.92830235
H 0.9346286 -1.9964983 -0.045390636
