title
 OpenBabel02282110003D

 13 13  0  0  1  0  0  0  0  0999 V2000
    1.0241    1.8248   -0.3841 N   0  0  0  0  0  0  0  0  0  0  0  0
    1.1136    0.4745   -0.5678 C   0  0  0  0  0  0  0  0  0  0  0  0
    2.1400   -0.1419   -0.7259 O   0  0  0  0  0  0  0  0  0  0  0  0
   -0.2731   -0.1908   -0.6128 C   0  0  1  0  0  0  0  0  0  0  0  0
   -0.2732   -1.6014   -0.3528 O   0  0  0  0  0  0  0  0  0  0  0  0
   -1.1135   -1.4900    0.8171 C   0  0  0  0  0  0  0  0  0  0  0  0
   -1.1559    0.0270    0.6208 C   0  0  0  0  0  0  0  0  0  0  0  0
   -1.6037    0.9815    1.1825 O   0  0  0  0  0  0  0  0  0  0  0  0
    1.8877    2.3301   -0.2585 H   0  0  0  0  0  0  0  0  0  0  0  0
    0.1836    2.2251    0.0067 H   0  0  0  0  0  0  0  0  0  0  0  0
   -0.7586    0.0648   -1.5651 H   0  0  0  0  0  0  0  0  0  0  0  0
   -2.0758   -2.0044    0.7061 H   0  0  0  0  0  0  0  0  0  0  0  0
   -0.6169   -1.8294    1.7345 H   0  0  0  0  0  0  0  0  0  0  0  0
  1  9  1  0  0  0  0
  1 10  1  0  0  0  0
  2  1  1  0  0  0  0
  3  2  2  0  0  0  0
  4 11  1  6  0  0  0
  4  2  1  0  0  0  0
  4  5  1  0  0  0  0
  4  7  1  0  0  0  0
  5  6  1  0  0  0  0
  6 13  1  0  0  0  0
  7  6  1  0  0  0  0
  7  8  2  0  0  0  0
 12  6  1  0  0  0  0
M  END
