18
title
C 1.0112641 2.3844445 0.3962504
C 1.0072155 0.8523027 0.31312436
C 1.7202129 0.21973494 1.5163722
C -0.4252386 0.31722698 0.19595024
C -1.2129141 0.5533667 -1.1087978
O -1.3000988 -0.8917766 -1.3316189
C -0.5815933 -1.1582701 -0.19308285
O -0.24538623 -2.2222815 0.21950053
H 2.0357137 2.7667184 0.44518653
H 0.52645916 2.842703 -0.47237965
H 0.4846874 2.7281117 1.2943571
H 1.545716 0.55686325 -0.5986151
H 1.2398651 0.5213311 2.454849
H 1.6956593 -0.8714766 1.4618161
H 2.7648196 0.5433035 1.5595409
H -0.99649024 0.55859643 1.0987494
H -2.2085583 0.9909203 -1.0158793
H -0.65716803 1.030878 -1.9194231
