title
 OpenBabel02282110003D

 19 19  0  0  1  0  0  0  0  0999 V2000
    0.9946    2.3794    0.3832 C   0  0  0  0  0  0  0  0  0  0  0  0
    0.9912    0.8487    0.2721 C   0  0  0  0  0  0  0  0  0  0  0  0
    1.7546    0.2006    1.4364 C   0  0  0  0  0  0  0  0  0  0  0  0
   -0.4367    0.3006    0.2010 C   0  0  1  0  0  0  0  0  0  0  0  0
   -1.2824    0.5920   -1.0791 C   0  0  0  0  0  0  0  0  0  0  0  0
   -1.3614   -0.8574   -1.2768 N   0  0  0  0  0  0  0  0  0  0  0  0
   -0.5831   -1.1942   -0.1972 C   0  0  0  0  0  0  0  0  0  0  0  0
   -0.1786   -2.2475    0.2216 O   0  0  0  0  0  0  0  0  0  0  0  0
    2.0190    2.7656    0.4042 H   0  0  0  0  0  0  0  0  0  0  0  0
    0.4776    2.8522   -0.4586 H   0  0  0  0  0  0  0  0  0  0  0  0
    0.4987    2.7043    1.3056 H   0  0  0  0  0  0  0  0  0  0  0  0
    1.4981    0.5724   -0.6641 H   0  0  0  0  0  0  0  0  0  0  0  0
    1.3103    0.4870    2.3974 H   0  0  0  0  0  0  0  0  0  0  0  0
    1.7263   -0.8893    1.3652 H   0  0  0  0  0  0  0  0  0  0  0  0
    2.7996    0.5269    1.4445 H   0  0  0  0  0  0  0  0  0  0  0  0
   -0.9792    0.5275    1.1252 H   0  0  0  0  0  0  0  0  0  0  0  0
   -2.2491    1.0774   -0.9136 H   0  0  0  0  0  0  0  0  0  0  0  0
   -0.7383    1.1197   -1.8702 H   0  0  0  0  0  0  0  0  0  0  0  0
   -1.7485   -1.4184   -2.0211 H   0  0  0  0  0  0  0  0  0  0  0  0
  1  9  1  0  0  0  0
  1 11  1  0  0  0  0
  2  1  1  0  0  0  0
  2  3  1  0  0  0  0
  3 15  1  0  0  0  0
  3 13  1  0  0  0  0
  4  2  1  0  0  0  0
  4 16  1  1  0  0  0
  5 17  1  0  0  0  0
  5  4  1  0  0  0  0
  6  5  1  0  0  0  0
  6  7  1  0  0  0  0
  7  4  1  0  0  0  0
  7  8  2  0  0  0  0
 10  1  1  0  0  0  0
 12  2  1  0  0  0  0
 14  3  1  0  0  0  0
 18  5  1  0  0  0  0
 19  6  1  0  0  0  0
M  END
