19
title
C 0.99462306 2.3794262 0.3832089
C 0.9911818 0.84871256 0.272097
C 1.7545974 0.20058927 1.4363575
C -0.43668383 0.30061582 0.20098837
C -1.2823535 0.592037 -1.0791388
N -1.3613771 -0.85740167 -1.2767715
C -0.5831248 -1.1942284 -0.19724587
O -0.17859799 -2.2475352 0.2216372
H 2.0190022 2.7655535 0.40417442
H 0.4776482 2.85221 -0.45863795
H 0.49865395 2.7042782 1.3055755
H 1.4981043 0.572416 -0.66405
H 1.3103149 0.48697263 2.3973587
H 1.7263397 -0.88933676 1.3651818
H 2.7995994 0.52685195 1.4444904
H -0.9792239 0.527513 1.1252173
H -2.2490723 1.0773767 -0.91356665
H -0.738308 1.1196656 -1.8702303
H -1.748474 -1.4183942 -2.0210507
