19
title
C 1.0061032 2.366133 0.36815563
C 1.0087336 0.8325323 0.31328127
C 1.7218965 0.22735552 1.5296757
C -0.42200872 0.2927516 0.2002268
C -1.2087404 0.55032915 -1.1061949
O -1.3138341 -0.88967824 -1.3366045
C -0.5927359 -1.1648973 -0.19369474
N -0.22270809 -2.2630937 0.28729856
H 2.0283542 2.7544055 0.41660592
H 0.5246564 2.8076339 -0.511212
H 0.4728519 2.7241523 1.2568319
H 1.5500903 0.5211774 -0.59141135
H 1.2375454 0.5454773 2.4608288
H 1.6991718 -0.86450636 1.4945782
H 2.7649934 0.5573789 1.5691601
H -0.99095106 0.5459886 1.101133
H -2.1977184 1.004085 -1.0100712
H -0.6465415 1.0297121 -1.9125463
H -0.5259112 -3.0456264 -0.29520565
