title
 OpenBabel02282110003D

 18 18  0  0  1  0  0  0  0  0999 V2000
    1.1385    2.0029   -0.7359 C   0  0  0  0  0  0  0  0  0  0  0  0
    1.1282    0.4731   -0.7408 C   0  0  1  0  0  0  0  0  0  0  0  0
    1.8583   -0.0604    0.3612 O   0  0  0  0  0  0  0  0  0  0  0  0
   -0.2958   -0.0924   -0.7649 C   0  0  1  0  0  0  0  0  0  0  0  0
   -0.5152   -1.6397   -0.7664 C   0  0  0  0  0  0  0  0  0  0  0  0
   -1.5737   -1.5035    0.3713 C   0  0  0  0  0  0  0  0  0  0  0  0
   -1.0531   -0.0775    0.5772 C   0  0  0  0  0  0  0  0  0  0  0  0
   -1.0483    0.6829    1.5066 O   0  0  0  0  0  0  0  0  0  0  0  0
    2.1669    2.3698   -0.6805 H   0  0  0  0  0  0  0  0  0  0  0  0
    0.6749    2.4043   -1.6431 H   0  0  0  0  0  0  0  0  0  0  0  0
    0.5809    2.3838    0.1261 H   0  0  0  0  0  0  0  0  0  0  0  0
    1.6610    0.1065   -1.6270 H   0  0  0  0  0  0  0  0  0  0  0  0
    1.5013    0.3450    1.1609 H   0  0  0  0  0  0  0  0  0  0  0  0
   -0.8916    0.3949   -1.5461 H   0  0  0  0  0  0  0  0  0  0  0  0
   -0.8616   -2.0792   -1.7020 H   0  0  0  0  0  0  0  0  0  0  0  0
    0.3830   -2.1565   -0.4240 H   0  0  0  0  0  0  0  0  0  0  0  0
   -2.6030   -1.5017   -0.0030 H   0  0  0  0  0  0  0  0  0  0  0  0
   -1.5140   -2.1719    1.2333 H   0  0  0  0  0  0  0  0  0  0  0  0
  1  9  1  0  0  0  0
  1 11  1  0  0  0  0
  2 12  1  6  0  0  0
  2  1  1  0  0  0  0
  2  3  1  0  0  0  0
  3 13  1  0  0  0  0
  4 14  1  6  0  0  0
  4  2  1  0  0  0  0
  4  7  1  0  0  0  0
  5  4  1  0  0  0  0
  5 16  1  0  0  0  0
  5  6  1  0  0  0  0
  6  7  1  0  0  0  0
  6 18  1  0  0  0  0
  7  8  2  0  0  0  0
 10  1  1  0  0  0  0
 15  5  1  0  0  0  0
 17  6  1  0  0  0  0
M  END
