18
title
C 1.085386 2.0277817 -0.81395894
N 1.1183187 0.57630754 -0.6597681
C 1.9277004 0.17576759 0.48601243
C -0.19259049 -0.017971825 -0.70874035
C -0.33298424 -1.5587007 -0.80017906
O -1.2060572 -1.5576605 0.3706381
C -1.0480291 -0.1976421 0.55512387
N -1.4574164 0.5558601 1.4701332
H 2.1094923 2.4013617 -0.9136788
H 0.5399056 2.2894368 -1.7261363
H 0.6100305 2.5466092 0.034561425
H 1.5313671 0.54467434 1.4460841
H 1.9998786 -0.9140859 0.5422465
H 2.9417734 0.5660405 0.35822174
H -0.76621044 0.48295423 -1.4935086
H -0.8507422 -1.9498147 -1.6787254
H 0.5782543 -2.1301289 -0.6117913
H -1.9915391 0.039141644 2.1720715
