title
 OpenBabel02282110003D

 17 17  0  0  1  0  0  0  0  0999 V2000
    1.0467    2.0214   -0.7675 C   0  0  0  0  0  0  0  0  0  0  0  0
    1.0852    0.4926   -0.7909 C   0  0  1  0  0  0  0  0  0  0  0  0
    1.8451   -0.0329    0.2949 O   0  0  0  0  0  0  0  0  0  0  0  0
   -0.3254   -0.1043   -0.7988 C   0  0  1  0  0  0  0  0  0  0  0  0
   -0.4607   -1.6542   -0.7196 C   0  0  0  0  0  0  0  0  0  0  0  0
   -1.2252   -1.4590    0.5218 N   0  0  0  0  0  0  0  0  0  0  0  0
   -1.0171   -0.1059    0.5911 C   0  0  0  0  0  0  0  0  0  0  0  0
   -1.2271    0.7168    1.4472 O   0  0  0  0  0  0  0  0  0  0  0  0
    2.0631    2.4197   -0.7073 H   0  0  0  0  0  0  0  0  0  0  0  0
    0.5711    2.4177   -1.6704 H   0  0  0  0  0  0  0  0  0  0  0  0
    0.4735    2.3729    0.0970 H   0  0  0  0  0  0  0  0  0  0  0  0
    1.6160    0.1526   -1.6887 H   0  0  0  0  0  0  0  0  0  0  0  0
    1.5103    0.3758    1.1026 H   0  0  0  0  0  0  0  0  0  0  0  0
   -0.9403    0.3476   -1.5815 H   0  0  0  0  0  0  0  0  0  0  0  0
   -1.0264   -2.1353   -1.5220 H   0  0  0  0  0  0  0  0  0  0  0  0
    0.4971   -2.1593   -0.5669 H   0  0  0  0  0  0  0  0  0  0  0  0
   -1.4663   -2.1108    1.2548 H   0  0  0  0  0  0  0  0  0  0  0  0
  1  9  1  0  0  0  0
  1 11  1  0  0  0  0
  2 12  1  6  0  0  0
  2  1  1  0  0  0  0
  2  3  1  0  0  0  0
  3 13  1  0  0  0  0
  4 14  1  6  0  0  0
  4  2  1  0  0  0  0
  4  5  1  0  0  0  0
  4  7  1  0  0  0  0
  5 16  1  0  0  0  0
  5  6  1  0  0  0  0
  6  7  1  0  0  0  0
  6 17  1  0  0  0  0
  7  8  2  0  0  0  0
 10  1  1  0  0  0  0
 15  5  1  0  0  0  0
M  END
