title
 OpenBabel02282110003D

 18 18  0  0  1  0  0  0  0  0999 V2000
    1.0854    2.0278   -0.8140 C   0  0  0  0  0  0  0  0  0  0  0  0
    1.1183    0.5763   -0.6598 N   0  0  0  0  0  0  0  0  0  0  0  0
    1.9277    0.1758    0.4860 C   0  0  0  0  0  0  0  0  0  0  0  0
   -0.1926   -0.0180   -0.7087 C   0  0  1  0  0  0  0  0  0  0  0  0
   -0.3330   -1.5587   -0.8002 C   0  0  0  0  0  0  0  0  0  0  0  0
   -1.2061   -1.5577    0.3706 O   0  0  0  0  0  0  0  0  0  0  0  0
   -1.0480   -0.1976    0.5551 C   0  0  0  0  0  0  0  0  0  0  0  0
   -1.4574    0.5559    1.4701 N   0  0  0  0  0  0  0  0  0  0  0  0
    2.1095    2.4014   -0.9137 H   0  0  0  0  0  0  0  0  0  0  0  0
    0.5399    2.2894   -1.7261 H   0  0  0  0  0  0  0  0  0  0  0  0
    0.6100    2.5466    0.0346 H   0  0  0  0  0  0  0  0  0  0  0  0
    1.5314    0.5447    1.4461 H   0  0  0  0  0  0  0  0  0  0  0  0
    1.9999   -0.9141    0.5422 H   0  0  0  0  0  0  0  0  0  0  0  0
    2.9418    0.5660    0.3582 H   0  0  0  0  0  0  0  0  0  0  0  0
   -0.7662    0.4830   -1.4935 H   0  0  0  0  0  0  0  0  0  0  0  0
   -0.8507   -1.9498   -1.6787 H   0  0  0  0  0  0  0  0  0  0  0  0
    0.5783   -2.1301   -0.6118 H   0  0  0  0  0  0  0  0  0  0  0  0
   -1.9915    0.0391    2.1721 H   0  0  0  0  0  0  0  0  0  0  0  0
  1  2  1  0  0  0  0
  1 11  1  0  0  0  0
  2  3  1  0  0  0  0
  3 13  1  0  0  0  0
  3 12  1  0  0  0  0
  4 15  1  6  0  0  0
  4  2  1  0  0  0  0
  4  7  1  0  0  0  0
  5  4  1  0  0  0  0
  5 17  1  0  0  0  0
  5  6  1  0  0  0  0
  6  7  1  0  0  0  0
  7  8  2  0  0  0  0
  8 18  1  0  0  0  0
  9  1  1  0  0  0  0
 10  1  1  0  0  0  0
 14  3  1  0  0  0  0
 16  5  1  0  0  0  0
M  END
