title
 OpenBabel02282110003D

 17 17  0  0  1  0  0  0  0  0999 V2000
    1.0093    2.0191    0.9421 C   0  0  0  0  0  0  0  0  0  0  0  0
    0.8366    1.1065   -0.2736 C   0  0  1  0  0  0  0  0  0  0  0  0
    1.8415    0.1025   -0.3244 O   0  0  0  0  0  0  0  0  0  0  0  0
   -0.5685    0.4861   -0.3112 C   0  0  1  0  0  0  0  0  0  0  0  0
   -0.9047   -0.3063   -1.5276 N   0  0  0  0  0  0  0  0  0  0  0  0
   -1.3028   -1.5048   -0.7425 C   0  0  0  0  0  0  0  0  0  0  0  0
   -0.7436   -0.8093    0.5042 C   0  0  0  0  0  0  0  0  0  0  0  0
   -0.4618   -1.1426    1.6181 O   0  0  0  0  0  0  0  0  0  0  0  0
    2.0293    2.4111    0.9710 H   0  0  0  0  0  0  0  0  0  0  0  0
    0.3132    2.8638    0.9113 H   0  0  0  0  0  0  0  0  0  0  0  0
    0.8228    1.4633    1.8683 H   0  0  0  0  0  0  0  0  0  0  0  0
    0.9681    1.6817   -1.1977 H   0  0  0  0  0  0  0  0  0  0  0  0
    1.8696   -0.3241    0.5402 H   0  0  0  0  0  0  0  0  0  0  0  0
   -1.3217    1.2415   -0.0412 H   0  0  0  0  0  0  0  0  0  0  0  0
   -1.6594    0.0908   -2.0738 H   0  0  0  0  0  0  0  0  0  0  0  0
   -2.3828   -1.6929   -0.6636 H   0  0  0  0  0  0  0  0  0  0  0  0
   -0.8036   -2.4333   -1.0401 H   0  0  0  0  0  0  0  0  0  0  0  0
  1  9  1  0  0  0  0
  1 11  1  0  0  0  0
  2 12  1  6  0  0  0
  2  1  1  0  0  0  0
  3  2  1  0  0  0  0
  3 13  1  0  0  0  0
  4  2  1  0  0  0  0
  4 14  1  1  0  0  0
  4  7  1  0  0  0  0
  5  6  1  0  0  0  0
  5  4  1  0  0  0  0
  6 16  1  0  0  0  0
  6  7  1  0  0  0  0
  7  8  2  0  0  0  0
 10  1  1  0  0  0  0
 15  5  1  0  0  0  0
 17  6  1  0  0  0  0
M  END
