17
title
C -1.28884 2.0082185 -0.4613255
C -1.256445 0.48076144 -0.5210802
O -0.7083027 0.008145814 -1.7456806
C -0.5052262 -0.12156897 0.67412734
C -0.2908392 -1.65024 0.7017213
O 1.1619987 -1.4503297 0.6829233
C 1.0107322 -0.08981376 0.5806937
N 1.8617134 0.81778115 0.40245506
H -0.271057 2.4100485 -0.4201001
H -1.7923325 2.4033225 -1.3475838
H -1.8250501 2.356603 0.42751202
H -2.2823193 0.09208808 -0.5088022
H 0.15775804 0.42237234 -1.8486629
H -0.8824757 0.28622317 1.6156962
H -0.60025734 -2.1822376 1.6033559
H -0.61241686 -2.1729906 -0.20097536
H 2.807901 0.43581396 0.34772232
