title
 OpenBabel02282110003D

 22 22  0  0  1  0  0  0  0  0999 V2000
   -0.8762    2.3684   -0.3803 C   0  0  0  0  0  0  0  0  0  0  0  0
   -0.4495    0.9556   -0.8089 C   0  0  0  0  0  0  0  0  0  0  0  0
    0.2723    1.0013   -2.1635 C   0  0  0  0  0  0  0  0  0  0  0  0
    0.4235    0.3155    0.2708 C   0  0  1  0  0  0  0  0  0  0  0  0
   -0.1752    0.0820    1.6739 C   0  0  0  0  0  0  0  0  0  0  0  0
    0.2595   -1.2901    1.6867 O   0  0  0  0  0  0  0  0  0  0  0  0
    0.7016   -1.2207    0.3071 C   0  0  1  0  0  0  0  0  0  0  0  0
   -0.0989   -2.1674   -0.5713 C   0  0  0  0  0  0  0  0  0  0  0  0
   -0.0025    3.0180   -0.2495 H   0  0  0  0  0  0  0  0  0  0  0  0
   -1.5211    2.8288   -1.1359 H   0  0  0  0  0  0  0  0  0  0  0  0
   -1.4278    2.3568    0.5654 H   0  0  0  0  0  0  0  0  0  0  0  0
   -1.3607    0.3529   -0.9233 H   0  0  0  0  0  0  0  0  0  0  0  0
    1.1780    1.6163   -2.0993 H   0  0  0  0  0  0  0  0  0  0  0  0
    0.5708    0.0056   -2.5040 H   0  0  0  0  0  0  0  0  0  0  0  0
   -0.3700    1.4385   -2.9350 H   0  0  0  0  0  0  0  0  0  0  0  0
    1.3652    0.8722    0.3336 H   0  0  0  0  0  0  0  0  0  0  0  0
    0.2559    0.6607    2.4992 H   0  0  0  0  0  0  0  0  0  0  0  0
   -1.2710    0.1625    1.7244 H   0  0  0  0  0  0  0  0  0  0  0  0
    1.7682   -1.4733    0.2372 H   0  0  0  0  0  0  0  0  0  0  0  0
   -1.1665   -1.9302   -0.5583 H   0  0  0  0  0  0  0  0  0  0  0  0
    0.2529   -2.1482   -1.6078 H   0  0  0  0  0  0  0  0  0  0  0  0
    0.0212   -3.1878   -0.1938 H   0  0  0  0  0  0  0  0  0  0  0  0
  1  9  1  0  0  0  0
  1 11  1  0  0  0  0
  2  1  1  0  0  0  0
  2  4  1  0  0  0  0
  3 13  1  0  0  0  0
  3  2  1  0  0  0  0
  4  7  1  6  0  0  0
  4 16  1  0  0  0  0
  4  5  1  0  0  0  0
  5  6  1  0  0  0  0
  5 18  1  0  0  0  0
  5 17  1  0  0  0  0
  7 19  1  6  0  0  0
  7  6  1  0  0  0  0
  8 20  1  0  0  0  0
  8 22  1  0  0  0  0
  8  7  1  0  0  0  0
 10  1  1  0  0  0  0
 12  2  1  0  0  0  0
 14  3  1  0  0  0  0
 15  3  1  0  0  0  0
 21  8  1  0  0  0  0
M  END
