title
 OpenBabel02282110003D

 24 24  0  0  1  0  0  0  0  0999 V2000
    0.7157    2.3873   -0.4877 C   0  0  0  0  0  0  0  0  0  0  0  0
    0.8973    0.9693    0.0736 C   0  0  0  0  0  0  0  0  0  0  0  0
    1.6133    1.0122    1.4316 C   0  0  0  0  0  0  0  0  0  0  0  0
   -0.4481    0.2505    0.1787 C   0  0  1  0  0  0  0  0  0  0  0  0
   -1.3206    0.0398   -1.0901 C   0  0  0  0  0  0  0  0  0  0  0  0
   -1.7685   -1.3261   -0.5073 C   0  0  0  0  0  0  0  0  0  0  0  0
   -0.5371   -1.2942    0.4465 C   0  0  1  0  0  0  0  0  0  0  0  0
    0.6321   -2.1354   -0.0636 C   0  0  0  0  0  0  0  0  0  0  0  0
    1.6795    2.8972   -0.5917 H   0  0  0  0  0  0  0  0  0  0  0  0
    0.2366    2.3731   -1.4718 H   0  0  0  0  0  0  0  0  0  0  0  0
    0.0904    2.9942    0.1785 H   0  0  0  0  0  0  0  0  0  0  0  0
    1.5318    0.4117   -0.6297 H   0  0  0  0  0  0  0  0  0  0  0  0
    1.0301    1.5897    2.1592 H   0  0  0  0  0  0  0  0  0  0  0  0
    1.7600    0.0105    1.8473 H   0  0  0  0  0  0  0  0  0  0  0  0
    2.5969    1.4862    1.3457 H   0  0  0  0  0  0  0  0  0  0  0  0
   -1.0533    0.7636    0.9386 H   0  0  0  0  0  0  0  0  0  0  0  0
   -2.0944    0.7809   -1.3050 H   0  0  0  0  0  0  0  0  0  0  0  0
   -0.7056   -0.0823   -1.9879 H   0  0  0  0  0  0  0  0  0  0  0  0
   -2.7140   -1.2478    0.0367 H   0  0  0  0  0  0  0  0  0  0  0  0
   -1.8350   -2.1725   -1.1969 H   0  0  0  0  0  0  0  0  0  0  0  0
   -0.7457   -1.5647    1.4864 H   0  0  0  0  0  0  0  0  0  0  0  0
    0.8563   -1.9283   -1.1159 H   0  0  0  0  0  0  0  0  0  0  0  0
    1.5474   -1.9596    0.5106 H   0  0  0  0  0  0  0  0  0  0  0  0
    0.3918   -3.2015    0.0140 H   0  0  0  0  0  0  0  0  0  0  0  0
  1  2  1  0  0  0  0
  1 11  1  0  0  0  0
  2  4  1  0  0  0  0
  2  3  1  0  0  0  0
  3 14  1  0  0  0  0
  3 13  1  0  0  0  0
  4  7  1  1  0  0  0
  4 16  1  0  0  0  0
  5  6  1  0  0  0  0
  5  4  1  0  0  0  0
  6 19  1  0  0  0  0
  6  7  1  0  0  0  0
  7 21  1  1  0  0  0
  8 24  1  0  0  0  0
  8  7  1  0  0  0  0
  8 23  1  0  0  0  0
  9  1  1  0  0  0  0
 10  1  1  0  0  0  0
 12  2  1  0  0  0  0
 15  3  1  0  0  0  0
 17  5  1  0  0  0  0
 18  5  1  0  0  0  0
 20  6  1  0  0  0  0
 22  8  1  0  0  0  0
M  END
