title
 OpenBabel02282110003D

 20 20  0  0  1  0  0  0  0  0999 V2000
    0.8211    2.3273    0.0018 C   0  0  0  0  0  0  0  0  0  0  0  0
    0.9126    0.8097    0.2076 C   0  0  0  0  0  0  0  0  0  0  0  0
    1.7719    0.4494    1.4275 C   0  0  0  0  0  0  0  0  0  0  0  0
   -0.4882    0.2225    0.3498 C   0  0  1  0  0  0  0  0  0  0  0  0
   -1.3550    0.5361   -0.7728 O   0  0  0  0  0  0  0  0  0  0  0  0
   -1.5535   -0.8541   -1.0874 C   0  0  0  0  0  0  0  0  0  0  0  0
   -0.6856   -1.2971    0.1105 C   0  0  1  0  0  0  0  0  0  0  0  0
    0.5111   -1.9817   -0.1836 O   0  0  0  0  0  0  0  0  0  0  0  0
    1.8131    2.7543   -0.1777 H   0  0  0  0  0  0  0  0  0  0  0  0
    0.1812    2.5656   -0.8514 H   0  0  0  0  0  0  0  0  0  0  0  0
    0.4023    2.8199    0.8879 H   0  0  0  0  0  0  0  0  0  0  0  0
    1.3683    0.3618   -0.6828 H   0  0  0  0  0  0  0  0  0  0  0  0
    2.7777    0.8701    1.3275 H   0  0  0  0  0  0  0  0  0  0  0  0
    1.3367    0.8554    2.3491 H   0  0  0  0  0  0  0  0  0  0  0  0
    1.8655   -0.6337    1.5372 H   0  0  0  0  0  0  0  0  0  0  0  0
   -0.9429    0.5776    1.2866 H   0  0  0  0  0  0  0  0  0  0  0  0
   -2.6131   -1.1378   -1.0562 H   0  0  0  0  0  0  0  0  0  0  0  0
   -1.1282   -1.1276   -2.0618 H   0  0  0  0  0  0  0  0  0  0  0  0
   -1.2446   -1.8015    0.9079 H   0  0  0  0  0  0  0  0  0  0  0  0
    0.3051   -2.9117   -0.3180 H   0  0  0  0  0  0  0  0  0  0  0  0
  1  2  1  0  0  0  0
  1 11  1  0  0  0  0
  2  4  1  0  0  0  0
  2  3  1  0  0  0  0
  3 15  1  0  0  0  0
  3 14  1  0  0  0  0
  4  7  1  1  0  0  0
  4 16  1  0  0  0  0
  5  4  1  0  0  0  0
  6 17  1  0  0  0  0
  6  5  1  0  0  0  0
  6  7  1  0  0  0  0
  7 19  1  1  0  0  0
  8  7  1  0  0  0  0
  9  1  1  0  0  0  0
 10  1  1  0  0  0  0
 12  2  1  0  0  0  0
 13  3  1  0  0  0  0
 18  6  1  0  0  0  0
 20  8  1  0  0  0  0
M  END
