22
title
C 0.8359738 2.4089334 0.17225978
C 0.88968885 0.8825303 0.2574255
O 1.5913898 0.45367378 1.4269404
C -0.49467617 0.2493447 0.18632534
C -1.3072228 0.3361348 -1.136042
C -1.8012977 -1.1138953 -0.8867557
C -0.64750177 -1.3092986 0.14359327
C 0.55163527 -2.0814848 -0.40108642
H 1.8436414 2.828598 0.23601258
H 0.37941208 2.7392046 -0.76647013
H 0.24020523 2.8226705 0.99591315
H 1.5006155 0.5062708 -0.57174486
H 1.0835203 0.7453964 2.1923907
H -1.0975767 0.64803433 1.014819
H -2.0603418 1.1235244 -1.2171423
H -0.6497726 0.40149838 -2.0092595
H -2.7881684 -1.136021 -0.4160178
H -1.8131609 -1.7925202 -1.7442591
H -0.952627 -1.752659 1.0960898
H 0.8585305 -1.7172967 -1.3884237
H 1.4095167 -1.9950565 0.27153784
H 0.3020239 -3.142473 -0.5108559
