title
 OpenBabel02282110003D

 20 20  0  0  1  0  0  0  0  0999 V2000
   -0.4359    2.3335   -0.6981 C   0  0  0  0  0  0  0  0  0  0  0  0
   -0.3339    0.8183   -0.8481 C   0  0  1  0  0  0  0  0  0  0  0  0
    0.1721    0.4290   -2.1240 O   0  0  0  0  0  0  0  0  0  0  0  0
    0.5288    0.2062    0.2531 C   0  0  1  0  0  0  0  0  0  0  0  0
    0.0145    0.4793    1.5762 O   0  0  0  0  0  0  0  0  0  0  0  0
    0.0182   -0.9228    1.9212 C   0  0  0  0  0  0  0  0  0  0  0  0
    0.4960   -1.3272    0.5076 C   0  0  1  0  0  0  0  0  0  0  0  0
   -0.4412   -2.1974   -0.3201 C   0  0  0  0  0  0  0  0  0  0  0  0
    0.5551    2.7988   -0.7812 H   0  0  0  0  0  0  0  0  0  0  0  0
   -1.0785    2.7529   -1.4769 H   0  0  0  0  0  0  0  0  0  0  0  0
   -0.8447    2.5906    0.2827 H   0  0  0  0  0  0  0  0  0  0  0  0
   -1.3386    0.3858   -0.7986 H   0  0  0  0  0  0  0  0  0  0  0  0
    1.0107    0.8856   -2.2562 H   0  0  0  0  0  0  0  0  0  0  0  0
    1.5534    0.6017    0.1459 H   0  0  0  0  0  0  0  0  0  0  0  0
    0.7134   -1.1383    2.7422 H   0  0  0  0  0  0  0  0  0  0  0  0
   -0.9827   -1.2750    2.2024 H   0  0  0  0  0  0  0  0  0  0  0  0
    1.4983   -1.7629    0.5051 H   0  0  0  0  0  0  0  0  0  0  0  0
   -1.4786   -1.8540   -0.2536 H   0  0  0  0  0  0  0  0  0  0  0  0
   -0.1531   -2.1889   -1.3745 H   0  0  0  0  0  0  0  0  0  0  0  0
   -0.4156   -3.2320    0.0385 H   0  0  0  0  0  0  0  0  0  0  0  0
  1 11  1  0  0  0  0
  2 12  1  1  0  0  0
  2  1  1  0  0  0  0
  2  4  1  0  0  0  0
  3  2  1  0  0  0  0
  4  7  1  6  0  0  0
  4  5  1  0  0  0  0
  5  6  1  0  0  0  0
  6 16  1  0  0  0  0
  6 15  1  0  0  0  0
  7 17  1  1  0  0  0
  7  6  1  0  0  0  0
  8 18  1  0  0  0  0
  8 20  1  0  0  0  0
  8  7  1  0  0  0  0
  9  1  1  0  0  0  0
 10  1  1  0  0  0  0
 13  3  1  0  0  0  0
 14  4  1  0  0  0  0
 19  8  1  0  0  0  0
M  END
