title
 OpenBabel02282110003D

 22 22  0  0  1  0  0  0  0  0999 V2000
    0.8360    2.4089    0.1723 C   0  0  0  0  0  0  0  0  0  0  0  0
    0.8897    0.8825    0.2574 C   0  0  1  0  0  0  0  0  0  0  0  0
    1.5914    0.4537    1.4269 O   0  0  0  0  0  0  0  0  0  0  0  0
   -0.4947    0.2493    0.1863 C   0  0  1  0  0  0  0  0  0  0  0  0
   -1.3072    0.3361   -1.1360 C   0  0  0  0  0  0  0  0  0  0  0  0
   -1.8013   -1.1139   -0.8868 C   0  0  0  0  0  0  0  0  0  0  0  0
   -0.6475   -1.3093    0.1436 C   0  0  1  0  0  0  0  0  0  0  0  0
    0.5516   -2.0815   -0.4011 C   0  0  0  0  0  0  0  0  0  0  0  0
    1.8436    2.8286    0.2360 H   0  0  0  0  0  0  0  0  0  0  0  0
    0.3794    2.7392   -0.7665 H   0  0  0  0  0  0  0  0  0  0  0  0
    0.2402    2.8227    0.9959 H   0  0  0  0  0  0  0  0  0  0  0  0
    1.5006    0.5063   -0.5717 H   0  0  0  0  0  0  0  0  0  0  0  0
    1.0835    0.7454    2.1924 H   0  0  0  0  0  0  0  0  0  0  0  0
   -1.0976    0.6480    1.0148 H   0  0  0  0  0  0  0  0  0  0  0  0
   -2.0603    1.1235   -1.2171 H   0  0  0  0  0  0  0  0  0  0  0  0
   -0.6498    0.4015   -2.0093 H   0  0  0  0  0  0  0  0  0  0  0  0
   -2.7882   -1.1360   -0.4160 H   0  0  0  0  0  0  0  0  0  0  0  0
   -1.8132   -1.7925   -1.7443 H   0  0  0  0  0  0  0  0  0  0  0  0
   -0.9526   -1.7527    1.0961 H   0  0  0  0  0  0  0  0  0  0  0  0
    0.8585   -1.7173   -1.3884 H   0  0  0  0  0  0  0  0  0  0  0  0
    1.4095   -1.9951    0.2715 H   0  0  0  0  0  0  0  0  0  0  0  0
    0.3020   -3.1425   -0.5109 H   0  0  0  0  0  0  0  0  0  0  0  0
  1  9  1  0  0  0  0
  1  2  1  0  0  0  0
  1 11  1  0  0  0  0
  2 12  1  6  0  0  0
  2  3  1  0  0  0  0
  3 13  1  0  0  0  0
  4  7  1  1  0  0  0
  4  2  1  0  0  0  0
  4 14  1  0  0  0  0
  5  6  1  0  0  0  0
  5  4  1  0  0  0  0
  6 17  1  0  0  0  0
  6  7  1  0  0  0  0
  7 19  1  1  0  0  0
  8  7  1  0  0  0  0
  8 21  1  0  0  0  0
 10  1  1  0  0  0  0
 15  5  1  0  0  0  0
 16  5  1  0  0  0  0
 18  6  1  0  0  0  0
 20  8  1  0  0  0  0
 22  8  1  0  0  0  0
M  END
