title
 OpenBabel02282110003D

 22 22  0  0  1  0  0  0  0  0999 V2000
    0.1236    2.2831    0.9269 C   0  0  0  0  0  0  0  0  0  0  0  0
   -0.4960    0.8856    0.7809 C   0  0  0  0  0  0  0  0  0  0  0  0
   -2.0293    0.9490    0.8205 C   0  0  0  0  0  0  0  0  0  0  0  0
   -0.0182    0.2407   -0.5148 C   0  0  1  0  0  0  0  0  0  0  0  0
    1.4257    0.2182   -0.6399 O   0  0  0  0  0  0  0  0  0  0  0  0
    1.4015   -1.1361   -1.1289 C   0  0  0  0  0  0  0  0  0  0  0  0
   -0.0886   -1.2983   -0.7575 C   0  0  1  0  0  0  0  0  0  0  0  0
   -0.3488   -2.2127    0.4345 C   0  0  0  0  0  0  0  0  0  0  0  0
    1.2137    2.2306    0.8775 H   0  0  0  0  0  0  0  0  0  0  0  0
   -0.2200    2.9489    0.1260 H   0  0  0  0  0  0  0  0  0  0  0  0
   -0.1610    2.7367    1.8819 H   0  0  0  0  0  0  0  0  0  0  0  0
   -0.1451    0.2719    1.6200 H   0  0  0  0  0  0  0  0  0  0  0  0
   -2.4150    1.5716    0.0045 H   0  0  0  0  0  0  0  0  0  0  0  0
   -2.4866   -0.0411    0.7275 H   0  0  0  0  0  0  0  0  0  0  0  0
   -2.3742    1.3881    1.7619 H   0  0  0  0  0  0  0  0  0  0  0  0
   -0.4541    0.7958   -1.3628 H   0  0  0  0  0  0  0  0  0  0  0  0
    1.6184   -1.1867   -2.2048 H   0  0  0  0  0  0  0  0  0  0  0  0
    2.1104   -1.7791   -0.5926 H   0  0  0  0  0  0  0  0  0  0  0  0
   -0.7359   -1.5795   -1.5922 H   0  0  0  0  0  0  0  0  0  0  0  0
    0.3118   -1.9771    1.2749 H   0  0  0  0  0  0  0  0  0  0  0  0
   -1.3826   -2.1469    0.7873 H   0  0  0  0  0  0  0  0  0  0  0  0
   -0.1632   -3.2554    0.1536 H   0  0  0  0  0  0  0  0  0  0  0  0
  1 11  1  0  0  0  0
  2  3  1  0  0  0  0
  2  1  1  0  0  0  0
  2 12  1  0  0  0  0
  3 15  1  0  0  0  0
  4  7  1  6  0  0  0
  4  2  1  0  0  0  0
  5  4  1  0  0  0  0
  6  7  1  0  0  0  0
  6  5  1  0  0  0  0
  6 18  1  0  0  0  0
  7 19  1  6  0  0  0
  7  8  1  0  0  0  0
  8 21  1  0  0  0  0
  8 20  1  0  0  0  0
  9  1  1  0  0  0  0
 10  1  1  0  0  0  0
 13  3  1  0  0  0  0
 14  3  1  0  0  0  0
 16  4  1  0  0  0  0
 17  6  1  0  0  0  0
 22  8  1  0  0  0  0
M  END
