20
title
C 0.81686 2.4215987 0.1624911
C 0.8681823 0.8941286 0.22819166
O 1.6615151 0.4503964 1.3288546
C -0.5266374 0.27740327 0.27819523
C -1.3958466 0.36031878 -0.9951957
O -1.4847319 -1.0710459 -1.0935233
C -0.6864659 -1.2614998 0.10451054
C 0.5260854 -2.1373248 -0.14426006
H 1.8296744 2.8326836 0.14399487
H 0.28635332 2.7673776 -0.7306743
H 0.29635236 2.8299356 1.038171
H 1.3984022 0.52146417 -0.65589684
H 1.2656062 0.8034181 2.13374
H -1.039931 0.65078 1.1720253
H -2.3793921 0.83095056 -0.87254745
H -0.90511376 0.8020346 -1.874047
H -1.3018138 -1.7071649 0.8986585
H 1.130552 -1.75655 -0.97206205
H 1.153608 -2.1833906 0.74968654
H 0.20011595 -3.149304 -0.40429294
