title
 OpenBabel02282110003D

 22 22  0  0  1  0  0  0  0  0999 V2000
    0.8905    2.3921    0.1440 C   0  0  0  0  0  0  0  0  0  0  0  0
    0.9417    0.8653    0.2930 C   0  0  0  0  0  0  0  0  0  0  0  0
    1.6598    0.4545    1.5858 C   0  0  0  0  0  0  0  0  0  0  0  0
   -0.4638    0.2700    0.2284 C   0  0  1  0  0  0  0  0  0  0  0  0
   -1.3007    0.3963   -1.0784 C   0  0  0  0  0  0  0  0  0  0  0  0
   -1.8187   -1.0475   -0.8405 C   0  0  0  0  0  0  0  0  0  0  0  0
   -0.6384   -1.2752    0.1437 C   0  0  1  0  0  0  0  0  0  0  0  0
    0.5041   -1.8470   -0.4741 O   0  0  0  0  0  0  0  0  0  0  0  0
    1.8983    2.8209    0.1422 H   0  0  0  0  0  0  0  0  0  0  0  0
    0.3993    2.6909   -0.7879 H   0  0  0  0  0  0  0  0  0  0  0  0
    0.3376    2.8505    0.9733 H   0  0  0  0  0  0  0  0  0  0  0  0
    1.5088    0.4543   -0.5508 H   0  0  0  0  0  0  0  0  0  0  0  0
    1.7482   -0.6332    1.6545 H   0  0  0  0  0  0  0  0  0  0  0  0
    2.6692    0.8779    1.6251 H   0  0  0  0  0  0  0  0  0  0  0  0
    1.1176    0.8125    2.4700 H   0  0  0  0  0  0  0  0  0  0  0  0
   -1.0544    0.6367    1.0781 H   0  0  0  0  0  0  0  0  0  0  0  0
   -2.0430    1.1958   -1.1313 H   0  0  0  0  0  0  0  0  0  0  0  0
   -0.6566    0.4555   -1.9601 H   0  0  0  0  0  0  0  0  0  0  0  0
   -2.7851   -1.0650   -0.3280 H   0  0  0  0  0  0  0  0  0  0  0  0
   -1.8635   -1.7210   -1.7012 H   0  0  0  0  0  0  0  0  0  0  0  0
   -0.8721   -1.7975    1.0814 H   0  0  0  0  0  0  0  0  0  0  0  0
    0.2886   -2.7546   -0.7108 H   0  0  0  0  0  0  0  0  0  0  0  0
  1  2  1  0  0  0  0
  1 11  1  0  0  0  0
  2  3  1  0  0  0  0
  3 14  1  0  0  0  0
  3 13  1  0  0  0  0
  3 15  1  0  0  0  0
  4  7  1  1  0  0  0
  4  2  1  0  0  0  0
  4 16  1  0  0  0  0
  5  6  1  0  0  0  0
  5  4  1  0  0  0  0
  6 19  1  0  0  0  0
  6  7  1  0  0  0  0
  7 21  1  1  0  0  0
  8  7  1  0  0  0  0
  9  1  1  0  0  0  0
 10  1  1  0  0  0  0
 12  2  1  0  0  0  0
 17  5  1  0  0  0  0
 18  5  1  0  0  0  0
 20  6  1  0  0  0  0
 22  8  1  0  0  0  0
M  END
