title
 OpenBabel02282110003D

 20 20  0  0  1  0  0  0  0  0999 V2000
    0.9256    2.3503    0.0724 C   0  0  0  0  0  0  0  0  0  0  0  0
    0.9221    0.8388    0.3070 C   0  0  1  0  0  0  0  0  0  0  0  0
    1.5340    0.5061    1.5531 O   0  0  0  0  0  0  0  0  0  0  0  0
   -0.4782    0.2438    0.2179 C   0  0  1  0  0  0  0  0  0  0  0  0
   -1.3079    0.3622   -1.0936 C   0  0  0  0  0  0  0  0  0  0  0  0
   -1.8331   -1.0760   -0.8357 C   0  0  0  0  0  0  0  0  0  0  0  0
   -0.6333   -1.3006    0.1278 C   0  0  1  0  0  0  0  0  0  0  0  0
    0.4995   -1.8405   -0.5296 O   0  0  0  0  0  0  0  0  0  0  0  0
    1.9427    2.7422    0.1594 H   0  0  0  0  0  0  0  0  0  0  0  0
    0.5397    2.6027   -0.9204 H   0  0  0  0  0  0  0  0  0  0  0  0
    0.2977    2.8627    0.8133 H   0  0  0  0  0  0  0  0  0  0  0  0
    1.5513    0.3503   -0.4431 H   0  0  0  0  0  0  0  0  0  0  0  0
    1.0446    0.9629    2.2466 H   0  0  0  0  0  0  0  0  0  0  0  0
   -1.0762    0.6099    1.0635 H   0  0  0  0  0  0  0  0  0  0  0  0
   -2.0413    1.1688   -1.1592 H   0  0  0  0  0  0  0  0  0  0  0  0
   -0.6597    0.4011   -1.9730 H   0  0  0  0  0  0  0  0  0  0  0  0
   -2.7893   -1.0781   -0.3039 H   0  0  0  0  0  0  0  0  0  0  0  0
   -1.9000   -1.7562   -1.6893 H   0  0  0  0  0  0  0  0  0  0  0  0
   -0.8342   -1.8346    1.0652 H   0  0  0  0  0  0  0  0  0  0  0  0
    0.3030   -2.7550   -0.7551 H   0  0  0  0  0  0  0  0  0  0  0  0
  1  9  1  0  0  0  0
  1  2  1  0  0  0  0
  1 11  1  0  0  0  0
  2 12  1  6  0  0  0
  2  3  1  0  0  0  0
  3 13  1  0  0  0  0
  4  7  1  1  0  0  0
  4  2  1  0  0  0  0
  4 14  1  0  0  0  0
  5  6  1  0  0  0  0
  5  4  1  0  0  0  0
  6 17  1  0  0  0  0
  6  7  1  0  0  0  0
  7 19  1  1  0  0  0
  8  7  1  0  0  0  0
 10  1  1  0  0  0  0
 15  5  1  0  0  0  0
 16  5  1  0  0  0  0
 18  6  1  0  0  0  0
 20  8  1  0  0  0  0
M  END
