19
title
C -1.4312527 1.1076404 -0.9380952
C -0.94546545 -0.33525538 -1.0267807
C 0.10137051 -0.5998663 -2.149243
C 1.2236834 -0.63138014 -1.0798265
C 0.15256512 -0.75924826 0.029869104
C 0.323695 0.13444711 1.2443943
N -0.3493424 -0.27357593 2.3616705
O 0.9849035 1.1574756 1.2279611
H -0.5949875 1.8096724 -0.87744033
H -2.0298042 1.3583683 -1.8205905
H -2.0565407 1.2649387 -0.052350618
H -1.8072892 -1.0095004 -1.0428865
H -0.045888126 -1.5672183 -2.6373825
H 0.17904037 0.16742046 -2.9244237
H 1.9589554 -1.4362304 -1.1459975
H 1.7476135 0.32138115 -0.982056
H -0.002109527 -1.797512 0.33989456
H -0.9316695 -1.0919111 2.3687282
H -0.33899876 0.32324338 3.1725583
