title
 OpenBabel02282110003D

 18 18  0  0  1  0  0  0  0  0999 V2000
   -1.5909    1.0073   -0.8375 C   0  0  0  0  0  0  0  0  0  0  0  0
   -0.9093   -0.3380   -0.9925 C   0  0  1  0  0  0  0  0  0  0  0  0
    0.1085   -0.3178   -2.0120 O   0  0  0  0  0  0  0  0  0  0  0  0
    1.1263   -0.7589   -1.0900 C   0  0  0  0  0  0  0  0  0  0  0  0
    0.1347   -0.8147    0.0848 C   0  0  1  0  0  0  0  0  0  0  0  0
    0.3881    0.1391    1.2377 C   0  0  0  0  0  0  0  0  0  0  0  0
   -0.3683   -0.1444    2.5216 C   0  0  0  0  0  0  0  0  0  0  0  0
    1.1371    1.0844    1.1297 O   0  0  0  0  0  0  0  0  0  0  0  0
   -0.8704    1.7877   -0.5806 H   0  0  0  0  0  0  0  0  0  0  0  0
   -2.0697    1.2775   -1.7838 H   0  0  0  0  0  0  0  0  0  0  0  0
   -2.3672    0.9682   -0.0650 H   0  0  0  0  0  0  0  0  0  0  0  0
   -1.6550   -1.1168   -1.2042 H   0  0  0  0  0  0  0  0  0  0  0  0
    1.5578   -1.7225   -1.3845 H   0  0  0  0  0  0  0  0  0  0  0  0
    1.9177   -0.0132   -0.9657 H   0  0  0  0  0  0  0  0  0  0  0  0
   -0.0852   -1.8159    0.4611 H   0  0  0  0  0  0  0  0  0  0  0  0
   -0.0123   -1.0848    2.9596 H   0  0  0  0  0  0  0  0  0  0  0  0
   -0.2183    0.6677    3.2337 H   0  0  0  0  0  0  0  0  0  0  0  0
   -1.4375   -0.2765    2.3212 H   0  0  0  0  0  0  0  0  0  0  0  0
  1  9  1  0  0  0  0
  1 11  1  0  0  0  0
  2  1  1  0  0  0  0
  2  5  1  1  0  0  0
  3  4  1  0  0  0  0
  3  2  1  0  0  0  0
  4 14  1  0  0  0  0
  4  5  1  0  0  0  0
  5 15  1  1  0  0  0
  5  6  1  0  0  0  0
  6  7  1  0  0  0  0
  7 16  1  0  0  0  0
  7 17  1  0  0  0  0
  8  6  2  0  0  0  0
 10  1  1  0  0  0  0
 12  2  1  0  0  0  0
 13  4  1  0  0  0  0
 18  7  1  0  0  0  0
M  END
