title
 OpenBabel02282110003D

 19 19  0  0  1  0  0  0  0  0999 V2000
   -1.3359    1.7981   -0.7177 C   0  0  0  0  0  0  0  0  0  0  0  0
   -0.8764    0.3655   -0.9358 C   0  0  1  0  0  0  0  0  0  0  0  0
    0.0195    0.0583   -2.1754 C   0  0  0  0  0  0  0  0  0  0  0  0
    1.0853   -0.5185   -1.2021 C   0  0  0  0  0  0  0  0  0  0  0  0
    0.2402   -0.0812   -0.0866 N   0  0  0  0  0  0  0  0  0  0  0  0
    0.2014   -0.4048    1.2346 C   0  0  0  0  0  0  0  0  0  0  0  0
    1.4491   -1.0910    1.7687 C   0  0  0  0  0  0  0  0  0  0  0  0
   -0.7702   -0.1475    1.9273 O   0  0  0  0  0  0  0  0  0  0  0  0
   -0.4955    2.4948   -0.8045 H   0  0  0  0  0  0  0  0  0  0  0  0
   -2.0910    2.0712   -1.4629 H   0  0  0  0  0  0  0  0  0  0  0  0
   -1.7726    1.9013    0.2782 H   0  0  0  0  0  0  0  0  0  0  0  0
   -1.7337   -0.3140   -0.8470 H   0  0  0  0  0  0  0  0  0  0  0  0
   -0.3922   -0.6512   -2.8933 H   0  0  0  0  0  0  0  0  0  0  0  0
    0.3475    0.9548   -2.7048 H   0  0  0  0  0  0  0  0  0  0  0  0
    1.2147   -1.6063   -1.2614 H   0  0  0  0  0  0  0  0  0  0  0  0
    2.0744   -0.0484   -1.2362 H   0  0  0  0  0  0  0  0  0  0  0  0
    2.3591   -0.5559    1.4796 H   0  0  0  0  0  0  0  0  0  0  0  0
    1.3806   -1.1404    2.8551 H   0  0  0  0  0  0  0  0  0  0  0  0
    1.5267   -2.1097    1.3721 H   0  0  0  0  0  0  0  0  0  0  0  0
  1 11  1  0  0  0  0
  2 12  1  1  0  0  0
  2  1  1  0  0  0  0
  2  5  1  0  0  0  0
  3  4  1  0  0  0  0
  3  2  1  0  0  0  0
  4  5  1  0  0  0  0
  5  6  1  0  0  0  0
  6  7  1  0  0  0  0
  6  8  2  0  0  0  0
  7 18  1  0  0  0  0
  9  1  1  0  0  0  0
 10  1  1  0  0  0  0
 13  3  1  0  0  0  0
 14  3  1  0  0  0  0
 15  4  1  0  0  0  0
 16  4  1  0  0  0  0
 17  7  1  0  0  0  0
 19  7  1  0  0  0  0
M  END
