17
title
C 0.13475606 1.5238857 -1.4781535
C -0.32936114 0.07627422 -1.4187522
C 0.74198693 -1.0284673 -1.5651594
O 0.43552116 -1.5738273 -0.25891376
C -0.57677186 -0.56810826 -0.022434717
C -0.31425524 0.31219578 1.1949041
N 0.8441101 0.027059298 1.8409064
O -1.093142 1.1938444 1.5072436
H 1.0201665 1.6835321 -0.8540583
H 0.39162633 1.8019323 -2.505652
H -0.6481308 2.1981106 -1.1214591
H -1.1811502 -0.07420007 -2.0856607
H 0.57400256 -1.7664763 -2.3571982
H 1.7774451 -0.66972476 -1.6217855
H -1.5701985 -1.0131375 0.103208534
H 1.3778418 -0.7753109 1.548105
H 1.0613229 0.5076248 2.6978014
