title
 OpenBabel02282110003D

 20 20  0  0  1  0  0  0  0  0999 V2000
   -1.4360    1.0851   -0.9437 C   0  0  0  0  0  0  0  0  0  0  0  0
   -0.9388   -0.3561   -1.0046 C   0  0  1  0  0  0  0  0  0  0  0  0
    0.0895   -0.6253   -2.1422 C   0  0  0  0  0  0  0  0  0  0  0  0
    1.2372   -0.5880   -1.1007 C   0  0  0  0  0  0  0  0  0  0  0  0
    0.1971   -0.7411    0.0342 C   0  0  1  0  0  0  0  0  0  0  0  0
    0.3353    0.1446    1.2543 C   0  0  0  0  0  0  0  0  0  0  0  0
   -0.4595   -0.2679    2.4808 C   0  0  0  0  0  0  0  0  0  0  0  0
    1.0210    1.1441    1.2460 O   0  0  0  0  0  0  0  0  0  0  0  0
   -0.6062    1.7978   -0.9192 H   0  0  0  0  0  0  0  0  0  0  0  0
   -2.0482    1.3067   -1.8246 H   0  0  0  0  0  0  0  0  0  0  0  0
   -2.0529    1.2663   -0.0566 H   0  0  0  0  0  0  0  0  0  0  0  0
   -1.7923   -1.0399   -0.9851 H   0  0  0  0  0  0  0  0  0  0  0  0
   -0.0385   -1.6145   -2.5902 H   0  0  0  0  0  0  0  0  0  0  0  0
    0.1225    0.1156   -2.9458 H   0  0  0  0  0  0  0  0  0  0  0  0
    2.0040   -1.3625   -1.1699 H   0  0  0  0  0  0  0  0  0  0  0  0
    1.7247    0.3868   -1.0363 H   0  0  0  0  0  0  0  0  0  0  0  0
    0.0660   -1.7821    0.3456 H   0  0  0  0  0  0  0  0  0  0  0  0
   -0.0472   -1.1980    2.8904 H   0  0  0  0  0  0  0  0  0  0  0  0
   -0.4143    0.5132    3.2408 H   0  0  0  0  0  0  0  0  0  0  0  0
   -1.5023   -0.4763    2.2160 H   0  0  0  0  0  0  0  0  0  0  0  0
  1  9  1  0  0  0  0
  1 11  1  0  0  0  0
  2 12  1  0  0  0  0
  2  1  1  0  0  0  0
  2  5  1  1  0  0  0
  3  4  1  0  0  0  0
  3  2  1  0  0  0  0
  4 16  1  0  0  0  0
  4  5  1  0  0  0  0
  5 17  1  1  0  0  0
  5  6  1  0  0  0  0
  6  7  1  0  0  0  0
  7 18  1  0  0  0  0
  7 19  1  0  0  0  0
  8  6  2  0  0  0  0
 10  1  1  0  0  0  0
 13  3  1  0  0  0  0
 14  3  1  0  0  0  0
 15  4  1  0  0  0  0
 20  7  1  0  0  0  0
M  END
