17
title
C 1.0480283 2.1140873 0.48244518
C 0.8060321 0.6596675 0.8382585
O 0.7311403 0.26717943 1.9781085
C 0.6176813 -0.2754541 -0.34826836
N 0.16613437 -1.6421025 -0.051678754
C -0.7214969 -1.6430049 -1.2342098
C -0.6870716 -0.09338074 -1.2035369
O -1.7516739 0.52406687 -0.5235456
H 1.8198196 2.2186468 -0.2873449
H 0.118224755 2.526195 0.07285621
H 1.3299097 2.6739292 1.37502
H 1.507365 -0.20641683 -0.9976294
H 0.87606317 -2.3621712 0.0039658193
H -0.27450544 -2.0443468 -2.155759
H -1.7002714 -2.1098807 -1.0776732
H -0.584878 0.42560628 -2.156668
H -1.870796 0.05940921 0.31466615
