18
title
C -1.5909164 1.0072885 -0.8375105
C -0.9093209 -0.33799586 -0.99248284
O 0.10852156 -0.31779668 -2.011955
C 1.1263036 -0.7588605 -1.0900146
C 0.13468197 -0.81474966 0.08476218
C 0.3881009 0.13905351 1.2377032
C -0.36830938 -0.14442125 2.521623
O 1.1371275 1.0844331 1.1297265
H -0.87044007 1.7876639 -0.5805765
H -2.0696828 1.2775046 -1.7838143
H -2.367205 0.9681943 -0.06500856
H -1.6549873 -1.1168272 -1.2041804
H 1.5577724 -1.7224783 -1.3844986
H 1.9176686 -0.013228785 -0.9656964
H -0.085217796 -1.8159232 0.46107873
H -0.012316549 -1.0847508 2.9595642
H -0.2183359 0.66773874 3.2336617
H -1.4375383 -0.2764503 2.321179
