18
title
C -1.3079029 1.8521662 -0.7708796
C -0.8494223 0.41072133 -0.90258205
C -0.02917024 -0.0028913706 -2.160981
C 1.0401087 -0.58836424 -1.2013041
N 0.3180901 0.035785638 -0.07995556
C 0.21701732 -0.3916898 1.2227088
N 1.316192 -1.1102581 1.6744453
O -0.7658821 -0.17661451 1.9106275
H -0.47822824 2.5436366 -0.9508057
H -2.1030943 2.0669906 -1.4931799
H -1.6964581 2.0280468 0.23545654
H -1.6923736 -0.2645721 -0.70950276
H -0.50712514 -0.71461445 -2.8342175
H 0.32901266 0.85267544 -2.7370572
H 1.0526091 -1.6840662 -1.1513691
H 2.0666883 -0.23031013 -1.3401818
H 2.2121558 -0.9129395 1.2547482
H 1.3372647 -1.2023001 2.6787364
