title
 OpenBabel02282110003D

 17 17  0  0  1  0  0  0  0  0999 V2000
   -1.5653    1.0196   -0.8707 C   0  0  0  0  0  0  0  0  0  0  0  0
   -0.9136   -0.3423   -1.0036 C   0  0  1  0  0  0  0  0  0  0  0  0
    0.1153   -0.3665   -2.0146 O   0  0  0  0  0  0  0  0  0  0  0  0
    1.1202   -0.7728   -1.0639 C   0  0  0  0  0  0  0  0  0  0  0  0
    0.1048   -0.8150    0.0920 C   0  0  1  0  0  0  0  0  0  0  0  0
    0.3685    0.1513    1.2333 C   0  0  0  0  0  0  0  0  0  0  0  0
   -0.2560   -0.1611    2.4057 N   0  0  0  0  0  0  0  0  0  0  0  0
    1.0548    1.1490    1.1083 O   0  0  0  0  0  0  0  0  0  0  0  0
   -0.8255    1.7829   -0.6195 H   0  0  0  0  0  0  0  0  0  0  0  0
   -2.0408    1.2878   -1.8192 H   0  0  0  0  0  0  0  0  0  0  0  0
   -2.3376    1.0045   -0.0933 H   0  0  0  0  0  0  0  0  0  0  0  0
   -1.6745   -1.1076   -1.2113 H   0  0  0  0  0  0  0  0  0  0  0  0
    1.5734   -1.7349   -1.3292 H   0  0  0  0  0  0  0  0  0  0  0  0
    1.8952   -0.0111   -0.9345 H   0  0  0  0  0  0  0  0  0  0  0  0
   -0.1149   -1.8174    0.4662 H   0  0  0  0  0  0  0  0  0  0  0  0
   -0.7979   -0.9984    2.5241 H   0  0  0  0  0  0  0  0  0  0  0  0
   -0.1396    0.4588    3.1906 H   0  0  0  0  0  0  0  0  0  0  0  0
  1  9  1  0  0  0  0
  1 11  1  0  0  0  0
  2  1  1  0  0  0  0
  2  5  1  1  0  0  0
  3  4  1  0  0  0  0
  3  2  1  0  0  0  0
  4 14  1  0  0  0  0
  4  5  1  0  0  0  0
  5 15  1  1  0  0  0
  5  6  1  0  0  0  0
  6  7  1  0  0  0  0
  7 16  1  0  0  0  0
  7 17  1  0  0  0  0
  8  6  2  0  0  0  0
 10  1  1  0  0  0  0
 12  2  1  0  0  0  0
 13  4  1  0  0  0  0
M  END
