title
 OpenBabel02282110003D

 17 17  0  0  1  0  0  0  0  0999 V2000
    0.5558    2.3526    0.5426 N   0  0  0  0  0  0  0  0  0  0  0  0
    0.5674    1.0322    0.2201 C   0  0  0  0  0  0  0  0  0  0  0  0
    1.6143    0.4456   -0.0355 O   0  0  0  0  0  0  0  0  0  0  0  0
   -0.7851    0.3541    0.1713 C   0  0  1  0  0  0  0  0  0  0  0  0
   -1.2584    0.0901   -1.3002 C   0  0  0  0  0  0  0  0  0  0  0  0
   -0.7080   -1.3556   -1.2054 C   0  0  0  0  0  0  0  0  0  0  0  0
   -0.6825   -1.2073    0.3416 C   0  0  1  0  0  0  0  0  0  0  0  0
    0.3654   -1.7497    1.0787 O   0  0  0  0  0  0  0  0  0  0  0  0
    1.4319    2.8485    0.5708 H   0  0  0  0  0  0  0  0  0  0  0  0
   -0.2913    2.8446    0.7637 H   0  0  0  0  0  0  0  0  0  0  0  0
   -1.5009    0.8688    0.8186 H   0  0  0  0  0  0  0  0  0  0  0  0
   -2.3481    0.1276   -1.3701 H   0  0  0  0  0  0  0  0  0  0  0  0
   -0.8361    0.7361   -2.0724 H   0  0  0  0  0  0  0  0  0  0  0  0
   -1.3089   -2.1634   -1.6288 H   0  0  0  0  0  0  0  0  0  0  0  0
    0.3103   -1.4183   -1.5952 H   0  0  0  0  0  0  0  0  0  0  0  0
   -1.6110   -1.5814    0.7845 H   0  0  0  0  0  0  0  0  0  0  0  0
    1.1667   -1.3085    0.7537 H   0  0  0  0  0  0  0  0  0  0  0  0
  1  9  1  0  0  0  0
  1 10  1  0  0  0  0
  2  1  1  0  0  0  0
  3  2  2  0  0  0  0
  4  2  1  0  0  0  0
  4  7  1  1  0  0  0
  4 11  1  0  0  0  0
  5  6  1  0  0  0  0
  5  4  1  0  0  0  0
  6  7  1  0  0  0  0
  7 16  1  1  0  0  0
  7  8  1  0  0  0  0
 12  5  1  0  0  0  0
 13  5  1  0  0  0  0
 14  6  1  0  0  0  0
 15  6  1  0  0  0  0
 17  8  1  0  0  0  0
M  END
