title
 OpenBabel02282110003D

 19 19  0  0  1  0  0  0  0  0999 V2000
   -1.1505    0.9230   -1.8537 C   0  0  0  0  0  0  0  0  0  0  0  0
   -0.9951    0.0777   -0.6895 N   0  0  0  0  0  0  0  0  0  0  0  0
   -2.0643    0.1217    0.3334 C   0  0  0  0  0  0  0  0  0  0  0  0
   -0.9902    0.0899    1.4456 C   0  0  0  0  0  0  0  0  0  0  0  0
    0.0205    0.4372    0.3276 C   0  0  1  0  0  0  0  0  0  0  0  0
    1.3305   -0.3434    0.3024 C   0  0  0  0  0  0  0  0  0  0  0  0
    1.9013   -0.6896   -1.0570 C   0  0  0  0  0  0  0  0  0  0  0  0
    1.8717   -0.6566    1.3383 O   0  0  0  0  0  0  0  0  0  0  0  0
   -0.2685    0.8507   -2.4983 H   0  0  0  0  0  0  0  0  0  0  0  0
   -2.0153    0.5892   -2.4368 H   0  0  0  0  0  0  0  0  0  0  0  0
   -1.3022    1.9893   -1.5974 H   0  0  0  0  0  0  0  0  0  0  0  0
   -2.6237    1.0705    0.3239 H   0  0  0  0  0  0  0  0  0  0  0  0
   -2.7782   -0.7068    0.2792 H   0  0  0  0  0  0  0  0  0  0  0  0
   -1.0953    0.8120    2.2540 H   0  0  0  0  0  0  0  0  0  0  0  0
   -0.8114   -0.8993    1.8680 H   0  0  0  0  0  0  0  0  0  0  0  0
    0.2736    1.5141    0.3171 H   0  0  0  0  0  0  0  0  0  0  0  0
    2.1089    0.2245   -1.6258 H   0  0  0  0  0  0  0  0  0  0  0  0
    2.8212   -1.2632   -0.9387 H   0  0  0  0  0  0  0  0  0  0  0  0
    1.1625   -1.2612   -1.6273 H   0  0  0  0  0  0  0  0  0  0  0  0
  1 11  1  0  0  0  0
  1  2  1  0  0  0  0
  2  5  1  0  0  0  0
  2  3  1  0  0  0  0
  3  4  1  0  0  0  0
  4 15  1  0  0  0  0
  4 14  1  0  0  0  0
  5 16  1  6  0  0  0
  5  4  1  0  0  0  0
  6  5  1  0  0  0  0
  6  8  2  0  0  0  0
  7 18  1  0  0  0  0
  7  6  1  0  0  0  0
  9  1  1  0  0  0  0
 10  1  1  0  0  0  0
 12  3  1  0  0  0  0
 13  3  1  0  0  0  0
 17  7  1  0  0  0  0
 19  7  1  0  0  0  0
M  END
