title
 OpenBabel02282110003D

 20 20  0  0  1  0  0  0  0  0999 V2000
   -0.6690    2.2389   -0.1650 C   0  0  0  0  0  0  0  0  0  0  0  0
   -0.3738    0.7388   -0.3748 C   0  0  1  0  0  0  0  0  0  0  0  0
    0.3721    0.5221   -1.6165 C   0  0  0  0  0  0  0  0  0  0  0  0
    1.0026    0.3614   -2.6278 C   0  0  0  0  0  0  0  0  0  0  0  0
    0.3754    0.1561    0.8202 C   0  0  1  0  0  0  0  0  0  0  0  0
   -0.3718   -0.2911    2.0546 C   0  0  0  0  0  0  0  0  0  0  0  0
    0.3353   -1.3081    1.1882 C   0  0  1  0  0  0  0  0  0  0  0  0
   -0.4392   -2.3392    0.3954 C   0  0  0  0  0  0  0  0  0  0  0  0
    0.2629    2.8031   -0.0637 H   0  0  0  0  0  0  0  0  0  0  0  0
   -1.2236    2.6507   -1.0123 H   0  0  0  0  0  0  0  0  0  0  0  0
   -1.2586    2.3810    0.7453 H   0  0  0  0  0  0  0  0  0  0  0  0
   -1.3371    0.2210   -0.4664 H   0  0  0  0  0  0  0  0  0  0  0  0
    1.5518    0.2105   -3.5239 H   0  0  0  0  0  0  0  0  0  0  0  0
    1.3279    0.6511    0.9930 H   0  0  0  0  0  0  0  0  0  0  0  0
    0.0326   -0.0477    3.0311 H   0  0  0  0  0  0  0  0  0  0  0  0
   -1.4576   -0.2766    2.0116 H   0  0  0  0  0  0  0  0  0  0  0  0
    1.2697   -1.6895    1.5926 H   0  0  0  0  0  0  0  0  0  0  0  0
   -1.4084   -1.9582    0.0602 H   0  0  0  0  0  0  0  0  0  0  0  0
    0.1161   -2.6579   -0.4929 H   0  0  0  0  0  0  0  0  0  0  0  0
   -0.6352   -3.2269    1.0068 H   0  0  0  0  0  0  0  0  0  0  0  0
  1  9  1  0  0  0  0
  1 11  1  0  0  0  0
  2 12  1  6  0  0  0
  2  1  1  0  0  0  0
  2  5  1  0  0  0  0
  3  2  1  0  0  0  0
  4  3  3  0  0  0  0
  5 14  1  0  0  0  0
  5  7  1  6  0  0  0
  5  6  1  0  0  0  0
  6 15  1  0  0  0  0
  7 17  1  1  0  0  0
  7  6  1  0  0  0  0
  8 20  1  0  0  0  0
  8  7  1  0  0  0  0
 10  1  1  0  0  0  0
 13  4  1  0  0  0  0
 16  6  1  0  0  0  0
 18  8  1  0  0  0  0
 19  8  1  0  0  0  0
M  END
