17
title
N 0.555791 2.352558 0.5426453
C 0.56739056 1.0322119 0.22010428
O 1.6143175 0.44560584 -0.035497498
C -0.7851121 0.35411116 0.17126736
C -1.2583687 0.09011404 -1.3001677
C -0.7079622 -1.3556066 -1.2054439
C -0.6825265 -1.2072644 0.3415694
O 0.3653534 -1.7497318 1.078669
H 1.4319335 2.8485472 0.57080704
H -0.29126403 2.8445647 0.7637178
H -1.5009035 0.8688428 0.8185906
H -2.3480709 0.12761174 -1.3700564
H -0.83608323 0.73606133 -2.0724056
H -1.3089155 -2.1634462 -1.6288441
H 0.31030744 -1.4182522 -1.5951556
H -1.6110429 -1.5814266 0.7844578
H 1.1666993 -1.3085485 0.7537032
