18
title
C 0.22679806 2.15478 0.684249
C -0.21533488 0.68415797 0.53222257
C -1.671401 0.55317616 0.5181447
C -2.8688643 0.4541277 0.47984347
C 0.3726734 0.08876878 -0.7414494
O 1.7752715 -0.18010062 -0.7302939
C 0.87122434 -1.2881526 -0.87486726
C 0.85916895 -2.330733 0.21306908
H 1.3185447 2.2092786 0.69566166
H -0.14540017 2.7581298 -0.149073
H -0.16065304 2.5811355 1.6127117
H 0.18042073 0.123384714 1.3861116
H -3.92648 0.3616715 0.45913416
H 0.019834315 0.58449847 -1.6487373
H 0.8629031 -1.7018899 -1.8856591
H 0.8794729 -1.8867196 1.2101073
H -0.035828672 -2.9559722 0.12736595
H 1.7343112 -2.9817922 0.11748037
