16
title
N 0.669286 1.8947961 -0.41845718
C 0.75377387 0.6514202 -0.967402
O 1.5875009 0.3231841 -1.7891407
C -0.32257012 -0.34022608 -0.5274224
N 0.20542784 -1.5639545 0.12233026
C -1.027662 -1.6750754 0.9353397
C -1.2470558 -0.15821104 0.71691716
O -0.7286323 0.6624566 1.7500614
H 1.4097353 2.5443811 -0.6344333
H 0.124990724 2.026413 0.42265666
H -0.9406733 -0.547664 -1.4153562
H 0.42818353 -2.335465 -0.49594113
H -1.8321302 -2.2713091 0.4805807
H -0.8756893 -2.0058734 1.9685715
H -2.2632732 0.18986402 0.5327053
H 0.12870742 0.2949793 2.0005
