title
 OpenBabel02282110003D

 18 18  0  0  1  0  0  0  0  0999 V2000
   -1.1297    1.3241   -1.6115 C   0  0  0  0  0  0  0  0  0  0  0  0
   -0.9690    0.2044   -0.7054 N   0  0  0  0  0  0  0  0  0  0  0  0
   -2.0812   -0.1282    0.2117 C   0  0  0  0  0  0  0  0  0  0  0  0
   -1.0444   -0.4453    1.3140 C   0  0  0  0  0  0  0  0  0  0  0  0
   -0.0361    0.3488    0.4342 C   0  0  1  0  0  0  0  0  0  0  0  0
    1.3602   -0.2412    0.2688 C   0  0  0  0  0  0  0  0  0  0  0  0
    1.4775   -1.0566   -0.8109 N   0  0  0  0  0  0  0  0  0  0  0  0
    2.2525   -0.0079    1.0626 O   0  0  0  0  0  0  0  0  0  0  0  0
   -0.1873    1.5121   -2.1362 H   0  0  0  0  0  0  0  0  0  0  0  0
   -1.8933    1.0893   -2.3605 H   0  0  0  0  0  0  0  0  0  0  0  0
   -1.4287    2.2545   -1.0954 H   0  0  0  0  0  0  0  0  0  0  0  0
   -2.6972    0.7491    0.4650 H   0  0  0  0  0  0  0  0  0  0  0  0
   -2.7388   -0.9319   -0.1347 H   0  0  0  0  0  0  0  0  0  0  0  0
   -1.2346   -0.0546    2.3124 H   0  0  0  0  0  0  0  0  0  0  0  0
   -0.7954   -1.5061    1.3760 H   0  0  0  0  0  0  0  0  0  0  0  0
    0.0755    1.3845    0.7858 H   0  0  0  0  0  0  0  0  0  0  0  0
    0.6657   -1.2142   -1.3870 H   0  0  0  0  0  0  0  0  0  0  0  0
    2.3425   -1.5424   -0.9757 H   0  0  0  0  0  0  0  0  0  0  0  0
  1 11  1  0  0  0  0
  1  2  1  0  0  0  0
  2  3  1  0  0  0  0
  2  5  1  0  0  0  0
  3 12  1  0  0  0  0
  3  4  1  0  0  0  0
  4 15  1  0  0  0  0
  4 14  1  0  0  0  0
  5 16  1  1  0  0  0
  5  4  1  0  0  0  0
  6  5  1  0  0  0  0
  6  8  2  0  0  0  0
  7  6  1  0  0  0  0
  9  1  1  0  0  0  0
 10  1  1  0  0  0  0
 13  3  1  0  0  0  0
 17  7  1  0  0  0  0
 18  7  1  0  0  0  0
M  END
