title
 OpenBabel02282110003D

 19 19  0  0  1  0  0  0  0  0999 V2000
    0.7255   -0.6792   -2.1241 C   0  0  0  0  0  0  0  0  0  0  0  0
    0.5971   -0.2622   -0.6436 C   0  0  1  0  0  0  0  0  0  0  0  0
    1.3974    0.9315   -0.3643 C   0  0  0  0  0  0  0  0  0  0  0  0
    2.0449    1.9226   -0.1547 C   0  0  0  0  0  0  0  0  0  0  0  0
   -0.8723   -0.0287   -0.2902 C   0  0  1  0  0  0  0  0  0  0  0  0
   -1.7254   -1.1574    0.1829 C   0  0  0  0  0  0  0  0  0  0  0  0
   -1.3964   -0.0483    1.0700 N   0  0  0  0  0  0  0  0  0  0  0  0
   -0.5121   -0.3063    2.1970 C   0  0  0  0  0  0  0  0  0  0  0  0
    1.7722   -0.8456   -2.3907 H   0  0  0  0  0  0  0  0  0  0  0  0
    0.1643   -1.6001   -2.3065 H   0  0  0  0  0  0  0  0  0  0  0  0
    0.3297    0.1024   -2.7795 H   0  0  0  0  0  0  0  0  0  0  0  0
    0.9830   -1.0847   -0.0297 H   0  0  0  0  0  0  0  0  0  0  0  0
    2.6195    2.7939    0.0408 H   0  0  0  0  0  0  0  0  0  0  0  0
   -1.3301    0.7420   -0.9099 H   0  0  0  0  0  0  0  0  0  0  0  0
   -2.7659   -1.2445   -0.1197 H   0  0  0  0  0  0  0  0  0  0  0  0
   -1.2241   -2.1110    0.3554 H   0  0  0  0  0  0  0  0  0  0  0  0
    0.2129   -1.1201    2.0364 H   0  0  0  0  0  0  0  0  0  0  0  0
    0.0440    0.6047    2.4353 H   0  0  0  0  0  0  0  0  0  0  0  0
   -1.1243   -0.5739    3.0640 H   0  0  0  0  0  0  0  0  0  0  0  0
  1  2  1  0  0  0  0
  2  3  1  0  0  0  0
  2  5  1  0  0  0  0
  2 12  1  1  0  0  0
  3  4  3  0  0  0  0
  4 13  1  0  0  0  0
  5 14  1  6  0  0  0
  5  6  1  0  0  0  0
  5  7  1  0  0  0  0
  6 16  1  0  0  0  0
  6  7  1  0  0  0  0
  7  8  1  0  0  0  0
  8 18  1  0  0  0  0
  8 19  1  0  0  0  0
  9  1  1  0  0  0  0
 10  1  1  0  0  0  0
 11  1  1  0  0  0  0
 15  6  1  0  0  0  0
 17  8  1  0  0  0  0
M  END
