title
 OpenBabel02282110003D

 18 18  0  0  1  0  0  0  0  0999 V2000
    0.2268    2.1548    0.6842 C   0  0  0  0  0  0  0  0  0  0  0  0
   -0.2153    0.6842    0.5322 C   0  0  1  0  0  0  0  0  0  0  0  0
   -1.6714    0.5532    0.5181 C   0  0  0  0  0  0  0  0  0  0  0  0
   -2.8689    0.4541    0.4798 C   0  0  0  0  0  0  0  0  0  0  0  0
    0.3727    0.0888   -0.7414 C   0  0  1  0  0  0  0  0  0  0  0  0
    1.7753   -0.1801   -0.7303 O   0  0  0  0  0  0  0  0  0  0  0  0
    0.8712   -1.2882   -0.8749 C   0  0  1  0  0  0  0  0  0  0  0  0
    0.8592   -2.3307    0.2131 C   0  0  0  0  0  0  0  0  0  0  0  0
    1.3185    2.2093    0.6957 H   0  0  0  0  0  0  0  0  0  0  0  0
   -0.1454    2.7581   -0.1491 H   0  0  0  0  0  0  0  0  0  0  0  0
   -0.1607    2.5811    1.6127 H   0  0  0  0  0  0  0  0  0  0  0  0
    0.1804    0.1234    1.3861 H   0  0  0  0  0  0  0  0  0  0  0  0
   -3.9265    0.3617    0.4591 H   0  0  0  0  0  0  0  0  0  0  0  0
    0.0198    0.5845   -1.6487 H   0  0  0  0  0  0  0  0  0  0  0  0
    0.8629   -1.7019   -1.8857 H   0  0  0  0  0  0  0  0  0  0  0  0
    0.8795   -1.8867    1.2101 H   0  0  0  0  0  0  0  0  0  0  0  0
   -0.0358   -2.9560    0.1274 H   0  0  0  0  0  0  0  0  0  0  0  0
    1.7343   -2.9818    0.1175 H   0  0  0  0  0  0  0  0  0  0  0  0
  1  9  1  0  0  0  0
  1 11  1  0  0  0  0
  2  1  1  0  0  0  0
  2 12  1  1  0  0  0
  3  2  1  0  0  0  0
  4  3  3  0  0  0  0
  5  7  1  6  0  0  0
  5  6  1  0  0  0  0
  5  2  1  0  0  0  0
  7 15  1  6  0  0  0
  7  6  1  0  0  0  0
  7  8  1  0  0  0  0
  8 16  1  0  0  0  0
 10  1  1  0  0  0  0
 13  4  1  0  0  0  0
 14  5  1  0  0  0  0
 17  8  1  0  0  0  0
 18  8  1  0  0  0  0
M  END
