19
title
C 1.4154834 1.6612788 0.7447776
C 0.39289314 0.52619 0.57363755
C -0.94742316 0.95636934 0.9799164
C -2.0392244 1.318444 1.327928
N 0.3801486 0.117268704 -0.83672297
C 1.3315626 -0.91678876 -1.2394285
C -0.13218777 -1.2024856 -1.216587
C -0.72973555 -2.186026 -0.23299482
H 2.4121592 1.3083422 0.46395096
H 1.1488134 2.5029423 0.101758495
H 1.4423615 2.0002596 1.7834427
H 0.69583124 -0.30144146 1.2380893
H -3.0058281 1.6357445 1.6322293
H 1.8638636 -0.7405954 -2.170529
H 1.9308954 -1.3875403 -0.459168
H -0.6606313 -1.1694609 -2.1685002
H -0.1284272 -2.2934353 0.67326105
H -1.737801 -1.8804328 0.06362434
H -0.799891 -3.174473 -0.699154
