title
 OpenBabel02282110003D

 18 18  0  0  1  0  0  0  0  0999 V2000
   -0.8826    1.6028   -1.8905 C   0  0  0  0  0  0  0  0  0  0  0  0
   -0.9083    0.1015   -1.6979 C   0  0  1  0  0  0  0  0  0  0  0  0
    0.3516   -0.7267   -1.7709 C   0  0  0  0  0  0  0  0  0  0  0  0
   -0.3764   -0.5740   -0.4557 C   0  0  1  0  0  0  0  0  0  0  0  0
    0.2361    0.2254    0.6823 C   0  0  1  0  0  0  0  0  0  0  0  0
   -0.7487    0.9315    1.4384 O   0  0  0  0  0  0  0  0  0  0  0  0
    1.0537   -0.6365    1.5452 C   0  0  0  0  0  0  0  0  0  0  0  0
    1.6795   -1.3658    2.2677 C   0  0  0  0  0  0  0  0  0  0  0  0
    0.0608    2.0447   -1.5571 H   0  0  0  0  0  0  0  0  0  0  0  0
   -1.0011    1.8556   -2.9496 H   0  0  0  0  0  0  0  0  0  0  0  0
   -1.6885    2.0878   -1.3309 H   0  0  0  0  0  0  0  0  0  0  0  0
   -1.7967   -0.3722   -2.1085 H   0  0  0  0  0  0  0  0  0  0  0  0
    0.3318   -1.6908   -2.2665 H   0  0  0  0  0  0  0  0  0  0  0  0
    1.2914   -0.1933   -1.8823 H   0  0  0  0  0  0  0  0  0  0  0  0
   -0.9276   -1.4451   -0.1095 H   0  0  0  0  0  0  0  0  0  0  0  0
    0.8757    1.0122    0.2683 H   0  0  0  0  0  0  0  0  0  0  0  0
   -1.2583    0.2774    1.9295 H   0  0  0  0  0  0  0  0  0  0  0  0
    2.2489   -1.9973    2.9041 H   0  0  0  0  0  0  0  0  0  0  0  0
  1  2  1  0  0  0  0
  1  9  1  0  0  0  0
  1 11  1  0  0  0  0
  2  4  1  1  0  0  0
  3  2  1  0  0  0  0
  3  4  1  0  0  0  0
  4 15  1  1  0  0  0
  4  5  1  0  0  0  0
  5 16  1  6  0  0  0
  5  6  1  0  0  0  0
  5  7  1  0  0  0  0
  6 17  1  0  0  0  0
  7  8  3  0  0  0  0
  8 18  1  0  0  0  0
 10  1  1  0  0  0  0
 12  2  1  0  0  0  0
 13  3  1  0  0  0  0
 14  3  1  0  0  0  0
M  END
