17
title
C -0.7511832 2.1642804 -0.20197833
C -0.34651455 0.6888955 -0.39058492
C 0.45525113 0.5333916 -1.612246
N 1.0961124 0.43484935 -2.5689855
C 0.4177805 0.14081453 0.80887455
C -0.33957535 -0.24520059 2.0645845
C 0.2901254 -1.304125 1.1920916
O -0.5318538 -2.0875986 0.37811026
H 0.13159429 2.7965686 -0.07143294
H -1.3087281 2.5312464 -1.0672644
H -1.3788908 2.2609107 0.6876602
H -1.2461357 0.07916593 -0.52441823
H 1.396883 0.5886193 0.95040864
H 0.09702698 -0.018539915 3.0308843
H -1.422514 -0.17721792 2.026681
H 1.1856362 -1.805029 1.5576051
H -0.9783947 -2.7337816 0.9347072
