18
title
C -0.7345045 2.1869438 -0.08231571
C -0.36835068 0.7198117 -0.37993932
C 0.41648883 0.6102594 -1.6155968
N 1.0460775 0.5291233 -2.5815399
C 0.39452654 0.094724566 0.7829903
N -0.42584416 -0.32317463 1.9263073
C 0.31949407 -1.3416568 1.1621968
C -0.4799873 -2.3893728 0.4254536
H 0.16534992 2.7910233 0.06573574
H -1.3080943 2.6241546 -0.9029705
H -1.3358821 2.221488 0.8292969
H -1.294727 0.15568063 -0.52662957
H 1.3377583 0.5984867 0.9916133
H 0.03700806 -0.106307834 2.804129
H 1.2255291 -1.7278525 1.6281356
H -1.4189016 -1.984162 0.04207562
H 0.09367771 -2.7968087 -0.4133415
H -0.73052394 -3.2161086 1.098179
