17
title
C -0.88472784 1.6163533 -1.8999845
C -0.924985 0.11568533 -1.7051669
C 0.32658547 -0.7228476 -1.770933
C -0.4061138 -0.56370425 -0.45807305
C 0.20590383 0.23575772 0.6752684
O -0.75250787 0.90813226 1.4754503
C 1.0637246 -0.6377103 1.5097857
N 1.7031678 -1.3359995 2.1723359
H 0.062146127 2.051393 -1.5670083
H -0.99681246 1.865062 -2.9603486
H -1.6892898 2.1109362 -1.3469698
H -1.8167583 -0.35158202 -2.1149852
H 0.30036396 -1.6901598 -2.2590437
H 1.2720543 -0.19943595 -1.8795078
H -0.9640129 -1.430439 -0.111427814
H 0.843317 1.0279813 0.2714313
H -1.3510184 0.248435 1.8445883
