17
title
C 0.3998814 2.1578238 -0.60298973
C 0.52304703 0.70442545 -0.10198722
C 1.2076328 0.64209306 1.1939288
N 1.7327727 0.5937091 2.2223165
C -0.8507073 0.05231223 0.010526199
O -1.471714 -0.29502252 -1.2236401
C -1.1380225 -1.3543315 -0.30966318
C -0.1246885 -2.3758793 -0.755869
H 1.3847823 2.6161482 -0.7169648
H -0.10718595 2.157043 -1.5706563
H -0.18215267 2.762525 0.0979284
H 1.1220261 0.13738427 -0.8209835
H -1.5089366 0.55547 0.721976
H -2.013127 -1.780829 0.18424894
H 0.73007 -1.920609 -1.2599217
H 0.23948309 -2.946961 0.10439911
H -0.5884713 -3.0796127 -1.4544071
