title
 OpenBabel02282110003D

 17 17  0  0  1  0  0  0  0  0999 V2000
   -0.7512    2.1643   -0.2020 C   0  0  0  0  0  0  0  0  0  0  0  0
   -0.3465    0.6889   -0.3906 C   0  0  1  0  0  0  0  0  0  0  0  0
    0.4553    0.5334   -1.6122 C   0  0  0  0  0  0  0  0  0  0  0  0
    1.0961    0.4348   -2.5690 N   0  0  0  0  0  0  0  0  0  0  0  0
    0.4178    0.1408    0.8089 C   0  0  1  0  0  0  0  0  0  0  0  0
   -0.3396   -0.2452    2.0646 C   0  0  0  0  0  0  0  0  0  0  0  0
    0.2901   -1.3041    1.1921 C   0  0  1  0  0  0  0  0  0  0  0  0
   -0.5319   -2.0876    0.3781 O   0  0  0  0  0  0  0  0  0  0  0  0
    0.1316    2.7966   -0.0714 H   0  0  0  0  0  0  0  0  0  0  0  0
   -1.3087    2.5312   -1.0673 H   0  0  0  0  0  0  0  0  0  0  0  0
   -1.3789    2.2609    0.6877 H   0  0  0  0  0  0  0  0  0  0  0  0
   -1.2461    0.0792   -0.5244 H   0  0  0  0  0  0  0  0  0  0  0  0
    1.3969    0.5886    0.9504 H   0  0  0  0  0  0  0  0  0  0  0  0
    0.0970   -0.0185    3.0309 H   0  0  0  0  0  0  0  0  0  0  0  0
   -1.4225   -0.1772    2.0267 H   0  0  0  0  0  0  0  0  0  0  0  0
    1.1856   -1.8050    1.5576 H   0  0  0  0  0  0  0  0  0  0  0  0
   -0.9784   -2.7338    0.9347 H   0  0  0  0  0  0  0  0  0  0  0  0
  1  9  1  0  0  0  0
  1 11  1  0  0  0  0
  2 12  1  6  0  0  0
  2  1  1  0  0  0  0
  2  5  1  0  0  0  0
  3  2  1  0  0  0  0
  4  3  3  0  0  0  0
  5 13  1  0  0  0  0
  5  7  1  6  0  0  0
  5  6  1  0  0  0  0
  6 14  1  0  0  0  0
  7 16  1  1  0  0  0
  7  6  1  0  0  0  0
  8 17  1  0  0  0  0
  8  7  1  0  0  0  0
 10  1  1  0  0  0  0
 15  6  1  0  0  0  0
M  END
