18
title
C -1.477206 1.2042661 -1.4356614
C -1.3750716 -0.28740665 -1.1951798
C -0.0911146 -1.0492171 -1.422753
C -0.6518694 -0.9144017 -0.025053866
C 0.059925355 -0.1591293 1.0950552
N 0.69769865 -1.1374936 1.9884535
C 1.0292654 0.8477114 0.6103982
N 1.8377714 1.6068696 0.2809868
H -0.54549617 1.7275267 -1.2115754
H -1.7201005 1.4011916 -2.4853604
H -2.270686 1.6507871 -0.8255373
H -2.2790291 -0.82610863 -1.4696175
H -0.12382015 -2.0203438 -1.9041404
H 0.78963953 -0.46093315 -1.6617608
H -1.1207799 -1.7991487 0.39455688
H -0.68795997 0.3791074 1.6916994
H 1.4078336 -1.6490098 1.470661
H 1.1794522 -0.6575128 2.7435265
