18
title
C -2.1879892 -0.731623 0.45905003
C -0.84570074 -0.30253726 -0.16793859
C -1.0299422 0.88435847 -1.0146399
N -1.1792568 1.820461 -1.6760299
C 0.19711627 -0.03076536 0.91667926
C 1.0765933 -1.1377739 1.3936511
N 1.632469 -0.0005753694 0.67411184
C 2.1651282 -0.2160806 -0.66392285
H -2.5682964 0.046203308 1.1269457
H -2.9392955 -0.9163893 -0.31226546
H -2.0452166 -1.6467446 1.0393524
H -0.4930668 -1.1087655 -0.81971663
H -0.13372125 0.72034043 1.6331843
H 1.3461655 -1.2280699 2.4426165
H 0.9992004 -2.0875888 0.8623215
H 1.6874734 -1.036559 -1.2229815
H 2.0638099 0.70394284 -1.2465355
H 3.2300346 -0.45152754 -0.57716334
