title
 OpenBabel02282110003D

 18 18  0  0  1  0  0  0  0  0999 V2000
   -0.1178    1.6479   -1.6158 C   0  0  0  0  0  0  0  0  0  0  0  0
    0.2644    0.5222   -0.6430 C   0  0  1  0  0  0  0  0  0  0  0  0
    1.2769    0.9888    0.3201 C   0  0  0  0  0  0  0  0  0  0  0  0
    2.0849    1.3476    1.0638 N   0  0  0  0  0  0  0  0  0  0  0  0
   -0.9252    0.0876    0.0882 N   0  0  0  0  0  0  0  0  0  0  0  0
   -1.7194   -0.9820   -0.5177 C   0  0  0  0  0  0  0  0  0  0  0  0
   -0.9532   -1.2308    0.7365 C   0  0  1  0  0  0  0  0  0  0  0  0
    0.2297   -2.1741    0.7695 C   0  0  0  0  0  0  0  0  0  0  0  0
    0.7614    2.0110   -2.1535 H   0  0  0  0  0  0  0  0  0  0  0  0
   -0.8415    1.2668   -2.3411 H   0  0  0  0  0  0  0  0  0  0  0  0
   -0.5729    2.4765   -1.0695 H   0  0  0  0  0  0  0  0  0  0  0  0
    0.7333   -0.2912   -1.2211 H   0  0  0  0  0  0  0  0  0  0  0  0
   -2.7959   -0.8363   -0.5086 H   0  0  0  0  0  0  0  0  0  0  0  0
   -1.3335   -1.4480   -1.4248 H   0  0  0  0  0  0  0  0  0  0  0  0
   -1.5086   -1.1991    1.6722 H   0  0  0  0  0  0  0  0  0  0  0  0
    0.7108   -2.2851   -0.2057 H   0  0  0  0  0  0  0  0  0  0  0  0
    0.9840   -1.8364    1.4872 H   0  0  0  0  0  0  0  0  0  0  0  0
   -0.1064   -3.1683    1.0812 H   0  0  0  0  0  0  0  0  0  0  0  0
  1 11  1  0  0  0  0
  1  2  1  0  0  0  0
  2 12  1  6  0  0  0
  2  5  1  0  0  0  0
  2  3  1  0  0  0  0
  3  4  3  0  0  0  0
  5  7  1  0  0  0  0
  6 13  1  0  0  0  0
  6  5  1  0  0  0  0
  6  7  1  0  0  0  0
  7  8  1  0  0  0  0
  7 15  1  1  0  0  0
  8 18  1  0  0  0  0
  8 17  1  0  0  0  0
  9  1  1  0  0  0  0
 10  1  1  0  0  0  0
 14  6  1  0  0  0  0
 16  8  1  0  0  0  0
M  END
