16
title
N -1.341845 0.6987437 -0.44914165
C -0.05434087 0.10446482 -0.84956163
C 0.80802864 1.0694396 -1.5650723
N 1.4585304 1.8492906 -2.1176717
C 0.6933144 -0.5088216 0.33283597
C 0.49600476 -0.018521734 1.7593161
C -0.045942128 -1.3622059 1.3370838
O -1.4087896 -1.6097294 1.2280569
H -1.1816723 1.5752747 0.039075874
H -1.8910618 0.92079294 -1.2738968
H -0.28716525 -0.7028669 -1.5554082
H 1.6972616 -0.8235861 0.064975284
H 1.3666123 0.03740775 2.4035857
H -0.23913775 0.7581042 1.9420792
H 0.4681247 -2.246534 1.7004751
H -1.7988691 -0.84859884 0.76570755
