16
title
C -1.1873554 1.1709551 -1.6702656
C -1.3596553 -0.22567014 -1.1347203
O -0.23550181 -1.1248854 -1.163016
C -0.8003958 -0.8034676 0.10218864
C 0.12126943 -0.20165537 1.163983
N 1.0294838 -1.1978704 1.7509845
C 0.9425234 0.92957145 0.706145
N 1.601546 1.819303 0.37836486
H -0.24154757 1.6223484 -1.377243
H -1.2344612 1.145842 -2.7638965
H -2.0077882 1.8063016 -1.3190246
H -2.282089 -0.7074554 -1.4692405
H -1.3748629 -1.6210581 0.55075556
H -0.5146796 0.17715307 1.9753264
H 0.48050913 -1.9311069 2.1907995
H 1.563256 -1.6365998 1.0046726
