title
 OpenBabel02282110003D

 17 17  0  0  1  0  0  0  0  0999 V2000
   -2.1089    0.9388   -0.9886 C   0  0  0  0  0  0  0  0  0  0  0  0
   -1.4400   -0.3425   -1.1733 N   0  0  0  0  0  0  0  0  0  0  0  0
   -0.1677   -0.3662   -1.8815 C   0  0  0  0  0  0  0  0  0  0  0  0
   -0.2334   -0.6543   -0.4197 C   0  0  1  0  0  0  0  0  0  0  0  0
    0.3704    0.3123    0.5911 C   0  0  1  0  0  0  0  0  0  0  0  0
   -0.4210    0.3930    1.7761 O   0  0  0  0  0  0  0  0  0  0  0  0
    1.7559   -0.0677    0.8849 C   0  0  0  0  0  0  0  0  0  0  0  0
    2.8729   -0.4286    1.1443 C   0  0  0  0  0  0  0  0  0  0  0  0
   -1.4372    1.8116   -0.9970 H   0  0  0  0  0  0  0  0  0  0  0  0
   -2.8327    1.0708   -1.7986 H   0  0  0  0  0  0  0  0  0  0  0  0
   -2.6446    0.9302   -0.0359 H   0  0  0  0  0  0  0  0  0  0  0  0
   -0.0250   -1.1686   -2.6003 H   0  0  0  0  0  0  0  0  0  0  0  0
    0.2709    0.5884   -2.1747 H   0  0  0  0  0  0  0  0  0  0  0  0
   -0.1791   -1.6925   -0.0907 H   0  0  0  0  0  0  0  0  0  0  0  0
    0.3599    1.3280    0.1836 H   0  0  0  0  0  0  0  0  0  0  0  0
   -0.3464   -0.4526    2.2333 H   0  0  0  0  0  0  0  0  0  0  0  0
    3.8671   -0.7263    1.3708 H   0  0  0  0  0  0  0  0  0  0  0  0
  1 11  1  0  0  0  0
  2  1  1  0  0  0  0
  2  4  1  0  0  0  0
  3  2  1  0  0  0  0
  3  4  1  0  0  0  0
  4 14  1  1  0  0  0
  4  5  1  0  0  0  0
  5 15  1  6  0  0  0
  5  7  1  0  0  0  0
  5  6  1  0  0  0  0
  6 16  1  0  0  0  0
  7  8  3  0  0  0  0
  8 17  1  0  0  0  0
  9  1  1  0  0  0  0
 10  1  1  0  0  0  0
 12  3  1  0  0  0  0
 13  3  1  0  0  0  0
M  END
