15
title
C -0.8990097 1.6246566 -1.919802
C -1.0137835 0.15544848 -1.6087111
O 0.18746473 -0.6329279 -1.6213144
C -0.5159171 -0.5035371 -0.3915876
C 0.18647994 0.25090167 0.72969353
O -0.73299986 0.761057 1.6776434
C 1.1953536 -0.6158132 1.3738147
N 1.946196 -1.3157344 1.9041153
H -0.035261553 2.0860152 -1.4374303
H -0.79381883 1.7676866 -2.9997733
H -1.8027167 2.1505187 -1.5954305
H -1.8535625 -0.3417858 -2.0979266
H -1.0172703 -1.413879 -0.05407284
H 0.70665646 1.1164434 0.31271008
H -1.1150529 0.021554217 2.164523
