title
 OpenBabel02282110003D

 17 17  0  0  1  0  0  0  0  0999 V2000
   -0.8967    1.5996   -1.9228 C   0  0  0  0  0  0  0  0  0  0  0  0
   -0.9321    0.1132   -1.6605 C   0  0  1  0  0  0  0  0  0  0  0  0
    0.3465   -0.6198   -1.6905 N   0  0  0  0  0  0  0  0  0  0  0  0
   -0.4081   -0.5407   -0.4322 C   0  0  1  0  0  0  0  0  0  0  0  0
    0.2416    0.2355    0.7056 C   0  0  1  0  0  0  0  0  0  0  0  0
   -0.7325    0.9037    1.5057 O   0  0  0  0  0  0  0  0  0  0  0  0
    1.0920   -0.6438    1.5137 C   0  0  0  0  0  0  0  0  0  0  0  0
    1.7357   -1.3965    2.1955 C   0  0  0  0  0  0  0  0  0  0  0  0
    0.0151    2.0541   -1.5300 H   0  0  0  0  0  0  0  0  0  0  0  0
   -0.9270    1.7969   -2.9996 H   0  0  0  0  0  0  0  0  0  0  0  0
   -1.7563    2.0942   -1.4595 H   0  0  0  0  0  0  0  0  0  0  0  0
   -1.7905   -0.3919   -2.1033 H   0  0  0  0  0  0  0  0  0  0  0  0
    0.2408   -1.5352   -2.1177 H   0  0  0  0  0  0  0  0  0  0  0  0
   -0.9305   -1.4365   -0.0969 H   0  0  0  0  0  0  0  0  0  0  0  0
    0.8588    1.0277    0.2721 H   0  0  0  0  0  0  0  0  0  0  0  0
   -1.1452    0.2437    2.0735 H   0  0  0  0  0  0  0  0  0  0  0  0
    2.3273   -2.0443    2.7942 H   0  0  0  0  0  0  0  0  0  0  0  0
  1  2  1  0  0  0  0
  1  9  1  0  0  0  0
  1 11  1  0  0  0  0
  2  4  1  1  0  0  0
  3  2  1  0  0  0  0
  3  4  1  0  0  0  0
  4 14  1  1  0  0  0
  4  5  1  0  0  0  0
  5 15  1  6  0  0  0
  5  6  1  0  0  0  0
  5  7  1  0  0  0  0
  6 16  1  0  0  0  0
  7  8  3  0  0  0  0
  8 17  1  0  0  0  0
 10  1  1  0  0  0  0
 12  2  1  0  0  0  0
 13  3  1  0  0  0  0
M  END
