title
 OpenBabel02282110003D

 17 17  0  0  1  0  0  0  0  0999 V2000
   -2.1502    1.1683   -1.1084 C   0  0  0  0  0  0  0  0  0  0  0  0
   -1.4969   -0.1919   -1.1856 C   0  0  1  0  0  0  0  0  0  0  0  0
   -0.1473   -0.2611   -1.7661 N   0  0  0  0  0  0  0  0  0  0  0  0
   -0.3351   -0.6341   -0.3617 C   0  0  1  0  0  0  0  0  0  0  0  0
    0.3360    0.2524    0.6860 C   0  0  1  0  0  0  0  0  0  0  0  0
   -0.2953    0.2414    2.0102 N   0  0  0  0  0  0  0  0  0  0  0  0
    1.7469   -0.1460    0.8260 C   0  0  0  0  0  0  0  0  0  0  0  0
    2.8421   -0.5003    0.9232 N   0  0  0  0  0  0  0  0  0  0  0  0
   -1.4277    1.9520   -0.8699 H   0  0  0  0  0  0  0  0  0  0  0  0
   -2.6016    1.4240   -2.0725 H   0  0  0  0  0  0  0  0  0  0  0  0
   -2.9459    1.1810   -0.3551 H   0  0  0  0  0  0  0  0  0  0  0  0
   -2.1844   -0.9945   -1.4524 H   0  0  0  0  0  0  0  0  0  0  0  0
   -0.0265   -1.0813   -2.3525 H   0  0  0  0  0  0  0  0  0  0  0  0
   -0.2998   -1.6929   -0.1055 H   0  0  0  0  0  0  0  0  0  0  0  0
    0.3329    1.2832    0.3171 H   0  0  0  0  0  0  0  0  0  0  0  0
   -1.2698    0.5100    1.9088 H   0  0  0  0  0  0  0  0  0  0  0  0
   -0.2895   -0.7020    2.3885 H   0  0  0  0  0  0  0  0  0  0  0  0
  1  9  1  0  0  0  0
  1 11  1  0  0  0  0
  2  1  1  0  0  0  0
  2  4  1  1  0  0  0
  3  2  1  0  0  0  0
  3  4  1  0  0  0  0
  4 14  1  1  0  0  0
  4  5  1  0  0  0  0
  5 15  1  6  0  0  0
  5  7  1  0  0  0  0
  5  6  1  0  0  0  0
  6 17  1  0  0  0  0
  7  8  3  0  0  0  0
 10  1  1  0  0  0  0
 12  2  1  0  0  0  0
 13  3  1  0  0  0  0
 16  6  1  0  0  0  0
M  END
