title
 OpenBabel02282110003D

 17 17  0  0  1  0  0  0  0  0999 V2000
   -1.6632    1.1706   -1.5113 C   0  0  0  0  0  0  0  0  0  0  0  0
   -1.2003   -0.2090   -1.4590 N   0  0  0  0  0  0  0  0  0  0  0  0
    0.1805   -0.4966   -1.8217 C   0  0  0  0  0  0  0  0  0  0  0  0
   -0.2875   -0.6429   -0.4140 C   0  0  1  0  0  0  0  0  0  0  0  0
    0.2190    0.2972    0.6729 C   0  0  1  0  0  0  0  0  0  0  0  0
   -0.8120    0.4792    1.6991 N   0  0  0  0  0  0  0  0  0  0  0  0
    1.4976   -0.2238    1.2090 C   0  0  0  0  0  0  0  0  0  0  0  0
    2.4747   -0.6367    1.6697 N   0  0  0  0  0  0  0  0  0  0  0  0
   -0.8691    1.9241   -1.3856 H   0  0  0  0  0  0  0  0  0  0  0  0
   -2.1265    1.3413   -2.4876 H   0  0  0  0  0  0  0  0  0  0  0  0
   -2.4132    1.3277   -0.7322 H   0  0  0  0  0  0  0  0  0  0  0  0
    0.3493   -1.3715   -2.4432 H   0  0  0  0  0  0  0  0  0  0  0  0
    0.8384    0.3464   -2.0359 H   0  0  0  0  0  0  0  0  0  0  0  0
   -0.4974   -1.6431   -0.0346 H   0  0  0  0  0  0  0  0  0  0  0  0
    0.4322    1.2786    0.2377 H   0  0  0  0  0  0  0  0  0  0  0  0
   -1.0418   -0.4192    2.1162 H   0  0  0  0  0  0  0  0  0  0  0  0
   -0.4586    1.0641    2.4510 H   0  0  0  0  0  0  0  0  0  0  0  0
  1  2  1  0  0  0  0
  1  9  1  0  0  0  0
  1 11  1  0  0  0  0
  2  4  1  0  0  0  0
  3  2  1  0  0  0  0
  3  4  1  0  0  0  0
  4 14  1  1  0  0  0
  4  5  1  0  0  0  0
  5 15  1  6  0  0  0
  5  7  1  0  0  0  0
  5  6  1  0  0  0  0
  6 16  1  0  0  0  0
  6 17  1  0  0  0  0
  7  8  3  0  0  0  0
 10  1  1  0  0  0  0
 12  3  1  0  0  0  0
 13  3  1  0  0  0  0
M  END
