title
 OpenBabel02282110003D

 16 16  0  0  1  0  0  0  0  0999 V2000
   -0.7922    1.6034   -1.9711 C   0  0  0  0  0  0  0  0  0  0  0  0
   -0.9343    0.1404   -1.6408 C   0  0  1  0  0  0  0  0  0  0  0  0
    0.2587   -0.6595   -1.6038 O   0  0  0  0  0  0  0  0  0  0  0  0
   -0.4841   -0.5022   -0.3975 C   0  0  1  0  0  0  0  0  0  0  0  0
    0.1860    0.2534    0.7445 C   0  0  1  0  0  0  0  0  0  0  0  0
   -0.7985    0.7981    1.6211 O   0  0  0  0  0  0  0  0  0  0  0  0
    1.1304   -0.6114    1.4549 C   0  0  0  0  0  0  0  0  0  0  0  0
    1.8559   -1.3529    2.0620 C   0  0  0  0  0  0  0  0  0  0  0  0
    0.0558    2.0622   -1.4595 H   0  0  0  0  0  0  0  0  0  0  0  0
   -0.6426    1.7302   -3.0483 H   0  0  0  0  0  0  0  0  0  0  0  0
   -1.7022    2.1436   -1.6903 H   0  0  0  0  0  0  0  0  0  0  0  0
   -1.7627   -0.3535   -2.1533 H   0  0  0  0  0  0  0  0  0  0  0  0
   -1.0083   -1.4021   -0.0672 H   0  0  0  0  0  0  0  0  0  0  0  0
    0.7268    1.1101    0.3320 H   0  0  0  0  0  0  0  0  0  0  0  0
   -1.0762    0.0962    2.2197 H   0  0  0  0  0  0  0  0  0  0  0  0
    2.5175   -1.9947    2.5900 H   0  0  0  0  0  0  0  0  0  0  0  0
  1 11  1  0  0  0  0
  1  2  1  0  0  0  0
  1  9  1  0  0  0  0
  2  3  1  0  0  0  0
  2  4  1  1  0  0  0
  3  4  1  0  0  0  0
  4 13  1  1  0  0  0
  4  5  1  0  0  0  0
  5 14  1  6  0  0  0
  5  7  1  0  0  0  0
  5  6  1  0  0  0  0
  6 15  1  0  0  0  0
  7  8  3  0  0  0  0
  8 16  1  0  0  0  0
 10  1  1  0  0  0  0
 12  2  1  0  0  0  0
M  END
