16
title
C -0.7922227 1.6034175 -1.971137
C -0.93425006 0.14041692 -1.6407652
O 0.25869367 -0.6595359 -1.6038358
C -0.4840579 -0.50220245 -0.3974625
C 0.18597516 0.25338593 0.74445975
O -0.7984966 0.79808325 1.6210762
C 1.1303687 -0.61135066 1.4549371
C 1.8559215 -1.3528808 2.0620072
H 0.05576285 2.0622425 -1.4594523
H -0.64260215 1.7301735 -3.0482545
H -1.7022173 2.1436267 -1.6903082
H -1.76267 -0.35353014 -2.153277
H -1.0083363 -1.4021302 -0.0672257
H 0.7267948 1.1100829 0.3319596
H -1.0762136 0.09615504 2.2196574
H 2.5175316 -1.9946512 2.5900407
