17
title
C -2.150219 1.1682867 -1.1083897
C -1.4968958 -0.19186042 -1.1855769
N -0.14728367 -0.2611068 -1.7661453
C -0.33506846 -0.6340662 -0.36167458
C 0.33598745 0.25240847 0.6860176
N -0.29525292 0.24137567 2.010228
C 1.746913 -0.14600909 0.82597643
N 2.8420773 -0.50034434 0.9232243
H -1.4276961 1.9520046 -0.86988306
H -2.601629 1.4240385 -2.0724928
H -2.9458895 1.1810466 -0.35513774
H -2.1844182 -0.9944884 -1.4523839
H -0.026509527 -1.0813476 -2.3525028
H -0.2998017 -1.6929411 -0.10546402
H 0.33285928 1.2832425 0.31712052
H -1.2697613 0.5100449 1.908827
H -0.28953803 -0.7019898 2.3885415
