title
 OpenBabel02282110003D

 16 16  0  0  1  0  0  0  0  0999 V2000
   -0.9398    1.6191   -1.9109 C   0  0  0  0  0  0  0  0  0  0  0  0
   -0.9777    0.1325   -1.6512 C   0  0  1  0  0  0  0  0  0  0  0  0
    0.2961   -0.6045   -1.6898 N   0  0  0  0  0  0  0  0  0  0  0  0
   -0.4481   -0.5289   -0.4277 C   0  0  1  0  0  0  0  0  0  0  0  0
    0.2205    0.2435    0.6987 C   0  0  1  0  0  0  0  0  0  0  0  0
   -0.7072    0.8696    1.5661 O   0  0  0  0  0  0  0  0  0  0  0  0
    1.1311   -0.6485    1.4496 C   0  0  0  0  0  0  0  0  0  0  0  0
    1.7995   -1.3724    2.0535 N   0  0  0  0  0  0  0  0  0  0  0  0
   -0.0251    2.0729   -1.5238 H   0  0  0  0  0  0  0  0  0  0  0  0
   -0.9733    1.8148   -2.9875 H   0  0  0  0  0  0  0  0  0  0  0  0
   -1.7976    2.1155   -1.4465 H   0  0  0  0  0  0  0  0  0  0  0  0
   -1.8420   -0.3700   -2.0848 H   0  0  0  0  0  0  0  0  0  0  0  0
    0.1925   -1.5190   -2.1191 H   0  0  0  0  0  0  0  0  0  0  0  0
   -0.9709   -1.4228   -0.0878 H   0  0  0  0  0  0  0  0  0  0  0  0
    0.8217    1.0476    0.2676 H   0  0  0  0  0  0  0  0  0  0  0  0
   -1.2177    0.1847    2.0130 H   0  0  0  0  0  0  0  0  0  0  0  0
  1  2  1  0  0  0  0
  1  9  1  0  0  0  0
  1 11  1  0  0  0  0
  2  4  1  1  0  0  0
  3  2  1  0  0  0  0
  3  4  1  0  0  0  0
  4 14  1  1  0  0  0
  4  5  1  0  0  0  0
  5 15  1  6  0  0  0
  5  7  1  0  0  0  0
  5  6  1  0  0  0  0
  6 16  1  0  0  0  0
  7  8  3  0  0  0  0
 10  1  1  0  0  0  0
 12  2  1  0  0  0  0
 13  3  1  0  0  0  0
M  END
