19
title
C 0.28426787 2.2106867 -0.53764355
C 0.41129923 0.74524826 -0.08179043
C 1.1215314 0.6855729 1.2572709
O 2.185495 0.16063069 1.4592401
C -0.9647736 0.10806738 0.04367293
N -1.6369545 -0.2625653 -1.211962
C -1.2698148 -1.3199482 -0.2508835
C -0.25243166 -2.3422692 -0.6976585
H 1.2669216 2.66624 -0.6898711
H -0.26942673 2.2497096 -1.479379
H -0.25766334 2.8118956 0.20180435
H 1.0174038 0.18908046 -0.80002946
H 0.57053304 1.195834 2.0852938
H -1.5838037 0.57253164 0.81316346
H -2.630273 -0.054319154 -1.162844
H -2.0844433 -1.739491 0.33942726
H 0.50237256 -1.8969305 -1.3486263
H 0.2529053 -2.7928054 0.1630296
H -0.74333745 -3.143643 -1.2599748
