19
title
C -1.8366976 0.88069683 -1.3937279
C -1.2881454 -0.52864385 -1.3974159
C 0.13462445 -0.77645224 -1.8328564
C -0.25038233 -0.9889361 -0.38974825
N 0.22710702 -0.10814521 0.6348194
C -0.63913745 0.115585506 1.7839178
C 1.5399987 0.27380657 0.7062794
O 2.039362 0.904998 1.61441
H -1.0989836 1.590068 -1.0079001
H -2.10436 1.1952894 -2.408003
H -2.736655 0.95925075 -0.77470994
H -2.0076642 -1.2942768 -1.6744664
H 0.37192938 -1.650686 -2.4281628
H 0.72704166 0.09959668 -2.0723896
H -0.343668 -2.0262132 -0.06675198
H -0.9037227 -0.83588326 2.2628334
H -0.09571698 0.7367858 2.4956641
H -1.5619808 0.6181149 1.4808091
H 2.1087108 -0.052451935 -0.1824092
