title
 OpenBabel02282110003D

 19 19  0  0  1  0  0  0  0  0999 V2000
    1.1716   -0.7730    1.8863 C   0  0  0  0  0  0  0  0  0  0  0  0
    0.1720   -0.2983    0.8142 C   0  0  1  0  0  0  0  0  0  0  0  0
   -0.5822    0.9127    1.3369 C   0  0  0  0  0  0  0  0  0  0  0  0
   -1.7671    0.9578    1.5425 O   0  0  0  0  0  0  0  0  0  0  0  0
    0.9128    0.0795   -0.4631 C   0  0  1  0  0  0  0  0  0  0  0  0
    1.1790   -0.9331   -1.5263 C   0  0  0  0  0  0  0  0  0  0  0  0
    0.2796    0.1854   -1.7763 N   0  0  0  0  0  0  0  0  0  0  0  0
   -1.1398   -0.1048   -1.9357 C   0  0  0  0  0  0  0  0  0  0  0  0
    1.7388   -1.6331    1.5200 H   0  0  0  0  0  0  0  0  0  0  0  0
    1.8878    0.0184    2.1346 H   0  0  0  0  0  0  0  0  0  0  0  0
    0.6560   -1.0639    2.8060 H   0  0  0  0  0  0  0  0  0  0  0  0
   -0.5650   -1.0822    0.6236 H   0  0  0  0  0  0  0  0  0  0  0  0
    0.0696    1.7985    1.5327 H   0  0  0  0  0  0  0  0  0  0  0  0
    1.6679    0.8505   -0.3005 H   0  0  0  0  0  0  0  0  0  0  0  0
    2.1160   -0.9347   -2.0776 H   0  0  0  0  0  0  0  0  0  0  0  0
    0.7352   -1.9191   -1.3840 H   0  0  0  0  0  0  0  0  0  0  0  0
   -1.4928   -0.9906   -1.3858 H   0  0  0  0  0  0  0  0  0  0  0  0
   -1.7287    0.7567   -1.6077 H   0  0  0  0  0  0  0  0  0  0  0  0
   -1.3393   -0.2702   -2.9990 H   0  0  0  0  0  0  0  0  0  0  0  0
  1 10  1  0  0  0  0
  1 11  1  0  0  0  0
  2 12  1  6  0  0  0
  2  3  1  0  0  0  0
  2  1  1  0  0  0  0
  3 13  1  0  0  0  0
  3  4  2  0  0  0  0
  5 14  1  1  0  0  0
  5  2  1  0  0  0  0
  6 16  1  0  0  0  0
  6  5  1  0  0  0  0
  7  6  1  0  0  0  0
  7  5  1  0  0  0  0
  8  7  1  0  0  0  0
  8 18  1  0  0  0  0
  8 17  1  0  0  0  0
  9  1  1  0  0  0  0
 15  6  1  0  0  0  0
 19  8  1  0  0  0  0
M  END
