title
 OpenBabel02282110003D

 17 17  0  0  1  0  0  0  0  0999 V2000
   -2.0533    0.9876   -1.2562 C   0  0  0  0  0  0  0  0  0  0  0  0
   -1.3922   -0.3008   -1.4010 N   0  0  0  0  0  0  0  0  0  0  0  0
   -0.0744   -0.3392   -2.0125 C   0  0  0  0  0  0  0  0  0  0  0  0
   -0.2523   -0.6416   -0.5584 C   0  0  1  0  0  0  0  0  0  0  0  0
    0.2980    0.3014    0.5030 C   0  0  1  0  0  0  0  0  0  0  0  0
   -0.4467    0.2207    1.6873 O   0  0  0  0  0  0  0  0  0  0  0  0
    1.7533   -0.0356    0.7691 C   0  0  0  0  0  0  0  0  0  0  0  0
    2.1380   -0.3559    1.8678 O   0  0  0  0  0  0  0  0  0  0  0  0
   -1.3697    1.8473   -1.1709 H   0  0  0  0  0  0  0  0  0  0  0  0
   -2.6838    1.1526   -2.1352 H   0  0  0  0  0  0  0  0  0  0  0  0
   -2.6913    0.9656   -0.3684 H   0  0  0  0  0  0  0  0  0  0  0  0
    0.1089   -1.1372   -2.7270 H   0  0  0  0  0  0  0  0  0  0  0  0
    0.3955    0.6122   -2.2670 H   0  0  0  0  0  0  0  0  0  0  0  0
   -0.2555   -1.6799   -0.2296 H   0  0  0  0  0  0  0  0  0  0  0  0
    0.2907    1.3321    0.1075 H   0  0  0  0  0  0  0  0  0  0  0  0
    0.1856   -0.0370    2.3773 H   0  0  0  0  0  0  0  0  0  0  0  0
    2.4380    0.0213   -0.1001 H   0  0  0  0  0  0  0  0  0  0  0  0
  1  9  1  0  0  0  0
  1 11  1  0  0  0  0
  2  1  1  0  0  0  0
  2  4  1  0  0  0  0
  3  2  1  0  0  0  0
  3  4  1  0  0  0  0
  4 14  1  1  0  0  0
  4  5  1  0  0  0  0
  5 15  1  6  0  0  0
  5  7  1  0  0  0  0
  5  6  1  0  0  0  0
  6 16  1  0  0  0  0
  7  8  2  0  0  0  0
 10  1  1  0  0  0  0
 12  3  1  0  0  0  0
 13  3  1  0  0  0  0
 17  7  1  0  0  0  0
M  END
