17
title
C -0.5086584 1.5815039 -2.2167635
C -0.7699538 0.13687414 -1.8699036
N 0.39510286 -0.75052756 -1.7091861
C -0.4750918 -0.4872592 -0.5509845
C 0.16000389 0.2565925 0.61475694
O -0.81898206 0.7602696 1.4806601
C 1.0957154 -0.67682505 1.359037
O 0.9614836 -0.8968051 2.5397575
H 0.39471233 1.9558196 -1.730288
H -0.3695674 1.6923676 -3.2972527
H -1.3525505 2.2102852 -1.9151313
H -1.6337138 -0.29046488 -2.3783624
H 0.21342002 -1.6724511 -2.0946326
H -1.1542512 -1.27364 -0.2245784
H 0.7916119 1.0651388 0.21032678
H -0.6060398 0.39064214 2.3529427
H 1.8981324 -1.1436539 0.75703347
