17
title
C -0.17022407 1.8325007 0.21155286
N 0.40447268 0.49467108 0.27519894
C 1.0197227 0.07349317 1.4207065
O 1.0778083 0.6978742 2.4594338
C 0.49951625 -0.24748649 -0.9413749
C 0.18919387 -1.7309825 -0.9541942
C -0.7574176 -0.7576895 -1.606577
O -1.9647954 -0.45537436 -0.9802352
H 0.40094727 2.4692733 -0.47606325
H -1.2060282 1.7773503 -0.13029979
H -0.12508497 2.2593527 1.2133145
H 1.4649446 -0.9310142 1.2979692
H 1.2785634 0.09045981 -1.6252786
H 0.7994591 -2.3818505 -1.5696154
H -0.15066883 -2.1631005 -0.020102637
H -0.7780567 -0.7176037 -2.6951718
H -2.5299325 -1.2337228 -1.0157845
