15
title
C -1.3411412 1.3904113 -1.5388575
C -1.0616767 -0.09390827 -1.5436723
C 0.2629659 -0.6485708 -1.9254943
C -0.1749992 -0.77331865 -0.47134912
C 0.51205975 0.04935942 0.54015744
O 1.1338878 1.0677584 0.33090472
C 0.3909056 -0.4581271 1.926818
N 0.29741308 -0.8587953 3.0075738
H -0.46562275 1.9634799 -1.2283973
H -1.621769 1.7143724 -2.5467155
H -2.1697297 1.6350774 -0.86660916
H -1.9192994 -0.71225774 -1.7950398
H 0.31858727 -1.5686862 -2.495674
H 1.0674512 0.058508314 -2.0989892
H -0.51594317 -1.7394987 -0.11869727
