title
 OpenBabel02282110003D

 14 14  0  0  1  0  0  0  0  0999 V2000
   -0.4208    1.1346   -2.1128 C   0  0  0  0  0  0  0  0  0  0  0  0
   -0.7650   -0.2410   -1.6110 C   0  0  1  0  0  0  0  0  0  0  0  0
    0.2923   -1.1798   -1.4750 O   0  0  0  0  0  0  0  0  0  0  0  0
   -0.3598   -0.7761   -0.2800 C   0  0  1  0  0  0  0  0  0  0  0  0
    0.4291    0.0627    0.6870 C   0  0  0  0  0  0  0  0  0  0  0  0
    1.4478    0.6508    0.3963 O   0  0  0  0  0  0  0  0  0  0  0  0
   -0.1540    0.1353    2.0168 C   0  0  0  0  0  0  0  0  0  0  0  0
   -0.6470    0.1817    3.1141 C   0  0  0  0  0  0  0  0  0  0  0  0
    0.4846    1.5111   -1.6354 H   0  0  0  0  0  0  0  0  0  0  0  0
   -0.2562    1.0982   -3.1948 H   0  0  0  0  0  0  0  0  0  0  0  0
   -1.2487    1.8257   -1.9230 H   0  0  0  0  0  0  0  0  0  0  0  0
   -1.6836   -0.6723   -2.0151 H   0  0  0  0  0  0  0  0  0  0  0  0
   -0.9981   -1.5272    0.1855 H   0  0  0  0  0  0  0  0  0  0  0  0
   -1.0695    0.2365    4.0883 H   0  0  0  0  0  0  0  0  0  0  0  0
  1 11  1  0  0  0  0
  1  9  1  0  0  0  0
  1  2  1  0  0  0  0
  2  3  1  0  0  0  0
  2  4  1  1  0  0  0
  3  4  1  0  0  0  0
  4 13  1  1  0  0  0
  4  5  1  0  0  0  0
  5  7  1  0  0  0  0
  6  5  2  0  0  0  0
  7  8  3  0  0  0  0
  8 14  1  0  0  0  0
 10  1  1  0  0  0  0
 12  2  1  0  0  0  0
M  END
