15
title
C -1.3659718 2.0499136 -0.5182337
C -1.6700416 0.57401526 -0.42694265
C -0.9702236 -0.42699224 -1.311745
N -0.68247247 -0.3419773 0.10144365
C 0.4858588 -0.069301486 0.7531726
O 0.6214746 0.73899585 1.650726
C 1.6813439 -0.94458145 0.35459626
O 1.7173847 -1.6700004 -0.6030407
H -0.3635 2.2244747 -0.91948503
H -2.0908926 2.5393956 -1.1759415
H -1.4172747 2.519069 0.46771812
H -2.6870885 0.32904658 -0.1250866
H -1.4855849 -1.3258523 -1.6379321
H -0.217857 -0.05449778 -2.0014572
H 2.5366242 -0.79953545 1.0465804
