15
title
C -2.0279305 0.6741724 -1.03136
N -1.2489892 -0.5462408 -1.2273228
C -0.0010960713 -0.4644248 -1.9399574
C -0.0015168801 -0.7697032 -0.4667827
C 0.5501756 0.26582822 0.46081042
O 0.5860031 1.4565011 0.2092886
C 1.0447897 -0.25360525 1.7249826
C 1.4650935 -0.6968617 2.7625008
H -1.4237318 1.5758194 -0.88199455
H -2.6578894 0.80518806 -1.9164099
H -2.6828587 0.5388784 -0.1653372
H 0.21351808 -1.2710145 -2.6364532
H 0.3744406 0.5194801 -2.2162101
H 0.12560982 -1.7947118 -0.13091207
H 1.8382307 -1.0706071 3.6851807
