14
title
O 1.8986198 1.2382358 -0.28844473
C 1.8244107 -0.12023727 -0.09618289
C 1.4441295 -0.73052776 1.1967812
C 0.4398698 -0.83343214 0.039259903
C -0.7260438 0.06109401 0.06556336
O -0.6880673 1.183738 0.562442
C -1.9327248 -0.43195197 -0.5663332
C -2.9323957 -0.85803896 -1.0839589
H 1.1291856 1.6362237 0.15597586
H 2.53762 -0.64245284 -0.72545314
H 1.9106295 -1.6579707 1.5095837
H 1.1574224 -0.055324793 1.9965588
H 0.30826762 -1.7930562 -0.4443869
H -3.822748 -1.2175648 -1.5402368
