14
title
C -0.84666103 1.2789046 -1.9407669
C -0.829047 -0.1970375 -1.6383055
N 0.44959858 -0.8829019 -1.7039709
C -0.20214126 -0.78613627 -0.3883074
C 0.45261815 0.08266744 0.6277576
O 1.241049 0.9683555 0.4094022
C 0.01583538 -0.19869472 2.0164418
N -0.32665223 -0.42810494 3.0969214
H 0.05043725 1.7654138 -1.5558338
H -0.8822407 1.4291234 -3.0247955
H -1.7309006 1.7538924 -1.5040951
H -1.709787 -0.7473177 -1.9693937
H 0.3527017 -1.8307697 -2.058483
H -0.6927127 -1.66386 0.024940794
