16
title
C -1.1029364 1.6431457 -1.5481242
C -1.1603854 0.13782021 -1.4314053
C -0.038171194 -0.7312044 -1.8724898
C -0.33799812 -0.6411908 -0.38085306
C 0.6169547 0.06210675 0.48941803
O 1.4048975 0.9237841 0.14782214
C 0.61983263 -0.33717406 1.9738045
O -0.081111215 -1.1920385 2.447472
H -0.09528085 2.0199404 -1.3635298
H -1.4046785 1.948989 -2.5558121
H -1.7845379 2.1215026 -0.83696485
H -2.1548219 -0.28391373 -1.5531206
H -0.24852265 -1.6775005 -2.3578103
H 0.8783064 -0.24047199 -2.1841428
H -0.84073913 -1.4729575 0.096349716
H 1.3532686 0.25136995 2.5647063
