title
 OpenBabel02282110003D

 14 14  0  0  1  0  0  0  0  0999 V2000
   -1.9453    0.7604   -1.1768 C   0  0  0  0  0  0  0  0  0  0  0  0
   -1.2022   -0.4895   -1.3201 N   0  0  0  0  0  0  0  0  0  0  0  0
    0.0871   -0.4662   -1.9502 C   0  0  0  0  0  0  0  0  0  0  0  0
   -0.0216   -0.7655   -0.4749 C   0  0  1  0  0  0  0  0  0  0  0  0
    0.5098    0.2492    0.4713 C   0  0  0  0  0  0  0  0  0  0  0  0
    0.5970    1.4396    0.2669 O   0  0  0  0  0  0  0  0  0  0  0  0
    0.9410   -0.3072    1.7729 C   0  0  0  0  0  0  0  0  0  0  0  0
    1.2912   -0.7453    2.7843 N   0  0  0  0  0  0  0  0  0  0  0  0
   -1.3178    1.6409   -0.9989 H   0  0  0  0  0  0  0  0  0  0  0  0
   -2.5143    0.9056   -2.0995 H   0  0  0  0  0  0  0  0  0  0  0  0
   -2.6548    0.6556   -0.3511 H   0  0  0  0  0  0  0  0  0  0  0  0
    0.3170   -1.2915   -2.6189 H   0  0  0  0  0  0  0  0  0  0  0  0
    0.5242    0.4970   -2.2089 H   0  0  0  0  0  0  0  0  0  0  0  0
    0.0429   -1.7923   -0.1269 H   0  0  0  0  0  0  0  0  0  0  0  0
  1  9  1  0  0  0  0
  1 11  1  0  0  0  0
  2  1  1  0  0  0  0
  2  4  1  0  0  0  0
  3  2  1  0  0  0  0
  3  4  1  0  0  0  0
  4 14  1  1  0  0  0
  4  5  1  0  0  0  0
  5  7  1  0  0  0  0
  6  5  2  0  0  0  0
  7  8  3  0  0  0  0
 10  1  1  0  0  0  0
 12  3  1  0  0  0  0
 13  3  1  0  0  0  0
M  END
