title
 OpenBabel02282110003D

 19 19  0  0  1  0  0  0  0  0999 V2000
    0.1658    2.4760    1.9119 C   0  0  0  0  0  0  0  0  0  0  0  0
    0.6247    1.0485    1.6311 C   0  0  0  0  0  0  0  0  0  0  0  0
   -0.1162    0.3829    0.4805 C   0  0  0  0  0  0  0  0  0  0  0  0
   -0.9634    0.9688   -0.1641 O   0  0  0  0  0  0  0  0  0  0  0  0
    0.2794   -1.0370    0.1974 C   0  0  1  0  0  0  0  0  0  0  0  0
   -0.7219   -1.9364   -0.4706 C   0  0  0  0  0  0  0  0  0  0  0  0
    0.4718   -1.5467   -1.1767 N   0  0  0  0  0  0  0  0  0  0  0  0
    0.3440   -0.6494   -2.3233 C   0  0  0  0  0  0  0  0  0  0  0  0
    0.3056    3.1098    1.0326 H   0  0  0  0  0  0  0  0  0  0  0  0
   -0.8979    2.5016    2.1626 H   0  0  0  0  0  0  0  0  0  0  0  0
    0.7287    2.9071    2.7444 H   0  0  0  0  0  0  0  0  0  0  0  0
    1.6988    1.0110    1.3989 H   0  0  0  0  0  0  0  0  0  0  0  0
    0.5088    0.4080    2.5173 H   0  0  0  0  0  0  0  0  0  0  0  0
    0.9794   -1.4680    0.9095 H   0  0  0  0  0  0  0  0  0  0  0  0
   -0.7839   -2.9771   -0.1618 H   0  0  0  0  0  0  0  0  0  0  0  0
   -1.6624   -1.4628   -0.7470 H   0  0  0  0  0  0  0  0  0  0  0  0
   -0.4471    0.1012   -2.2225 H   0  0  0  0  0  0  0  0  0  0  0  0
    1.2994   -0.1387   -2.4800 H   0  0  0  0  0  0  0  0  0  0  0  0
    0.1446   -1.2686   -3.2034 H   0  0  0  0  0  0  0  0  0  0  0  0
  1 10  1  0  0  0  0
  1 11  1  0  0  0  0
  2  1  1  0  0  0  0
  2 13  1  0  0  0  0
  3  2  1  0  0  0  0
  4  3  2  0  0  0  0
  5  3  1  0  0  0  0
  5 14  1  1  0  0  0
  6 15  1  0  0  0  0
  6  5  1  0  0  0  0
  7  6  1  0  0  0  0
  7  5  1  0  0  0  0
  8 17  1  0  0  0  0
  8  7  1  0  0  0  0
  9  1  1  0  0  0  0
 12  2  1  0  0  0  0
 16  6  1  0  0  0  0
 18  8  1  0  0  0  0
 19  8  1  0  0  0  0
M  END
