19
title
C 0.16576548 2.4760196 1.9119493
C 0.62469894 1.0485386 1.6310718
C -0.11624711 0.38288948 0.48053384
O -0.9634094 0.9688249 -0.16407706
C 0.2794109 -1.0369594 0.19737588
C -0.7219033 -1.936436 -0.47061956
N 0.4718439 -1.5466636 -1.1766585
C 0.34404254 -0.6494397 -2.3232594
H 0.3055517 3.1097546 1.0326456
H -0.8978789 2.501609 2.162595
H 0.72873116 2.9070663 2.7443762
H 1.6988283 1.0109938 1.3988794
H 0.5087804 0.40802163 2.5172749
H 0.9794245 -1.4679664 0.9094893
H -0.7839189 -2.9770844 -0.16177978
H -1.6623862 -1.462766 -0.74700534
H -0.44713005 0.10123628 -2.2225056
H 1.2993737 -0.1386515 -2.4800148
H 0.14455922 -1.2685977 -3.2033563
