15
title
C -1.9558378 0.48291054 -1.3514559
N -0.8918819 -0.5063186 -1.505632
C 0.40510035 -0.060466763 -1.9315705
C 0.21786712 -0.5698671 -0.52474326
C 0.33512318 0.40104124 0.5888358
O 0.10315441 1.5933635 0.53023773
C 0.7924541 -0.16183253 1.942758
O 1.0755689 -1.314418 2.1364942
H -1.6172023 1.4584675 -0.9844928
H -2.4254785 0.6117561 -2.3312702
H -2.7083576 0.08672866 -0.6632012
H 0.9294214 -0.6974986 -2.6392627
H 0.5803094 1.0097542 -2.0316415
H 0.52524686 -1.5788019 -0.27332452
H 0.846987 0.6241983 2.7252698
