title
 OpenBabel02282110003D

 15 15  0  0  1  0  0  0  0  0999 V2000
   -1.9558    0.4829   -1.3515 C   0  0  0  0  0  0  0  0  0  0  0  0
   -0.8919   -0.5063   -1.5056 N   0  0  0  0  0  0  0  0  0  0  0  0
    0.4051   -0.0605   -1.9316 C   0  0  0  0  0  0  0  0  0  0  0  0
    0.2179   -0.5699   -0.5247 C   0  0  1  0  0  0  0  0  0  0  0  0
    0.3351    0.4010    0.5888 C   0  0  0  0  0  0  0  0  0  0  0  0
    0.1032    1.5934    0.5302 O   0  0  0  0  0  0  0  0  0  0  0  0
    0.7925   -0.1618    1.9428 C   0  0  0  0  0  0  0  0  0  0  0  0
    1.0756   -1.3144    2.1365 O   0  0  0  0  0  0  0  0  0  0  0  0
   -1.6172    1.4585   -0.9845 H   0  0  0  0  0  0  0  0  0  0  0  0
   -2.4255    0.6118   -2.3313 H   0  0  0  0  0  0  0  0  0  0  0  0
   -2.7084    0.0867   -0.6632 H   0  0  0  0  0  0  0  0  0  0  0  0
    0.9294   -0.6975   -2.6393 H   0  0  0  0  0  0  0  0  0  0  0  0
    0.5803    1.0098   -2.0316 H   0  0  0  0  0  0  0  0  0  0  0  0
    0.5252   -1.5788   -0.2733 H   0  0  0  0  0  0  0  0  0  0  0  0
    0.8470    0.6242    2.7253 H   0  0  0  0  0  0  0  0  0  0  0  0
  1  9  1  0  0  0  0
  1 11  1  0  0  0  0
  2  1  1  0  0  0  0
  2  4  1  0  0  0  0
  3  2  1  0  0  0  0
  3  4  1  0  0  0  0
  4 14  1  1  0  0  0
  4  5  1  0  0  0  0
  5  7  1  0  0  0  0
  6  5  2  0  0  0  0
  7  8  2  0  0  0  0
  7 15  1  0  0  0  0
 10  1  1  0  0  0  0
 12  3  1  0  0  0  0
 13  3  1  0  0  0  0
M  END
