title
 OpenBabel02282110003D

 18 18  0  0  1  0  0  0  0  0999 V2000
   -1.3750    1.2823   -1.7111 C   0  0  0  0  0  0  0  0  0  0  0  0
   -1.1323   -0.2096   -1.6946 C   0  0  1  0  0  0  0  0  0  0  0  0
    0.1978   -0.7987   -2.0133 C   0  0  0  0  0  0  0  0  0  0  0  0
   -0.3207   -0.9055   -0.5856 C   0  0  1  0  0  0  0  0  0  0  0  0
    0.3428   -0.1209    0.4765 C   0  0  0  0  0  0  0  0  0  0  0  0
    0.9801    0.9004    0.2797 O   0  0  0  0  0  0  0  0  0  0  0  0
    0.2149   -0.6339    1.9064 C   0  0  0  0  0  0  0  0  0  0  0  0
    0.8735    0.2022    2.8068 O   0  0  0  0  0  0  0  0  0  0  0  0
   -0.5024    1.8320   -1.3546 H   0  0  0  0  0  0  0  0  0  0  0  0
   -1.5970    1.6109   -2.7322 H   0  0  0  0  0  0  0  0  0  0  0  0
   -2.2302    1.5511   -1.0820 H   0  0  0  0  0  0  0  0  0  0  0  0
   -1.9892   -0.8038   -2.0022 H   0  0  0  0  0  0  0  0  0  0  0  0
    0.2556   -1.7150   -2.5896 H   0  0  0  0  0  0  0  0  0  0  0  0
    1.0266   -0.1111   -2.1450 H   0  0  0  0  0  0  0  0  0  0  0  0
   -0.7033   -1.8688   -0.2632 H   0  0  0  0  0  0  0  0  0  0  0  0
   -0.8590   -0.7204    2.1449 H   0  0  0  0  0  0  0  0  0  0  0  0
    0.6186   -1.6607    1.9373 H   0  0  0  0  0  0  0  0  0  0  0  0
    1.2550    0.9047    2.2542 H   0  0  0  0  0  0  0  0  0  0  0  0
  1  2  1  0  0  0  0
  1  9  1  0  0  0  0
  1 11  1  0  0  0  0
  2  4  1  1  0  0  0
  3  2  1  0  0  0  0
  3  4  1  0  0  0  0
  4 15  1  1  0  0  0
  4  5  1  0  0  0  0
  5  7  1  0  0  0  0
  6  5  2  0  0  0  0
  7 17  1  0  0  0  0
  7 16  1  0  0  0  0
  7  8  1  0  0  0  0
 10  1  1  0  0  0  0
 12  2  1  0  0  0  0
 13  3  1  0  0  0  0
 14  3  1  0  0  0  0
 18  8  1  0  0  0  0
M  END
