18
title
C -0.9145488 2.4150317 -1.7577404
C -0.8094417 0.89406216 -1.6924508
C -0.045840137 0.38095698 -0.48399243
O 0.4350974 1.1489589 0.3408611
C 0.062719055 -1.0834672 -0.32747087
C 1.3312862 -1.6450994 0.33271864
C 0.08225978 -1.6163657 1.1304202
O -0.10166406 -0.7638406 2.196765
H 0.07687534 2.873933 -1.7863742
H -1.4663763 2.7248867 -2.6494472
H -1.4287579 2.8088837 -0.87753296
H -1.803314 0.42487133 -1.6777178
H -0.32010698 0.4882304 -2.5892048
H -0.4240262 -1.6921368 -1.0812263
H 1.7016418 -2.5894194 -0.05056389
H 2.0888588 -0.9074779 0.57668644
H -0.45028523 -2.5495698 1.283725
H 0.23126204 0.108548895 1.9205918
