18
title
C -1.3749539 1.2822521 -1.7110928
C -1.1322793 -0.20960753 -1.6945578
C 0.1977658 -0.79866093 -2.0133266
C -0.32073787 -0.9055301 -0.5855961
C 0.34283242 -0.12089252 0.4764839
O 0.9801157 0.90035737 0.27966222
C 0.21489856 -0.6338922 1.906365
O 0.8734601 0.20222573 2.806756
H -0.5023739 1.8319525 -1.3546474
H -1.5969642 1.6109138 -2.7321608
H -2.2301834 1.5510868 -1.081986
H -1.9891535 -0.80382335 -2.0022
H 0.2556319 -1.7150311 -2.5895765
H 1.02661 -0.11106147 -2.1449523
H -0.7032762 -1.8687557 -0.26322296
H -0.8590213 -0.7204156 2.1448627
H 0.61863905 -1.6607296 1.9372936
H 1.2550203 0.9047121 2.2541738
