title
 OpenBabel02282110003D

 14 14  0  0  1  0  0  0  0  0999 V2000
    1.8643    1.3904   -0.0303 O   0  0  0  0  0  0  0  0  0  0  0  0
    1.7970    0.0383   -0.2603 C   0  0  1  0  0  0  0  0  0  0  0  0
    1.5636   -0.9493    0.8109 C   0  0  0  0  0  0  0  0  0  0  0  0
    0.4206   -0.7157   -0.1888 C   0  0  1  0  0  0  0  0  0  0  0  0
   -0.7038    0.1065    0.2344 C   0  0  0  0  0  0  0  0  0  0  0  0
   -0.6319    1.0256    1.0423 O   0  0  0  0  0  0  0  0  0  0  0  0
   -2.0668   -0.1595   -0.4118 C   0  0  0  0  0  0  0  0  0  0  0  0
   -2.2679   -1.0257   -1.2211 O   0  0  0  0  0  0  0  0  0  0  0  0
    1.1876    1.6146    0.6309 H   0  0  0  0  0  0  0  0  0  0  0  0
    2.4141   -0.2432   -1.1068 H   0  0  0  0  0  0  0  0  0  0  0  0
    2.0480   -1.9178    0.7588 H   0  0  0  0  0  0  0  0  0  0  0  0
    1.3900   -0.5650    1.8113 H   0  0  0  0  0  0  0  0  0  0  0  0
    0.2053   -1.4765   -0.9273 H   0  0  0  0  0  0  0  0  0  0  0  0
   -2.8520    0.5350   -0.0468 H   0  0  0  0  0  0  0  0  0  0  0  0
  1  9  1  0  0  0  0
  2  4  1  6  0  0  0
  2  1  1  0  0  0  0
  2  3  1  0  0  0  0
  3 12  1  0  0  0  0
  4 13  1  6  0  0  0
  4  5  1  0  0  0  0
  4  3  1  0  0  0  0
  5  6  2  0  0  0  0
  7 14  1  0  0  0  0
  7  5  1  0  0  0  0
  8  7  2  0  0  0  0
 10  2  1  0  0  0  0
 11  3  1  0  0  0  0
M  END
