title
 OpenBabel02282110003D

 18 18  0  0  1  0  0  0  0  0999 V2000
   -1.4954    2.6704    0.3256 C   0  0  0  0  0  0  0  0  0  0  0  0
   -1.4254    1.2240    0.2777 N   0  0  0  0  0  0  0  0  0  0  0  0
   -0.3135    0.5562   -0.1584 C   0  0  0  0  0  0  0  0  0  0  0  0
    0.6911    1.1256   -0.5458 O   0  0  0  0  0  0  0  0  0  0  0  0
   -0.4506   -0.9434   -0.0848 C   0  0  1  0  0  0  0  0  0  0  0  0
    0.3409   -1.7322   -1.0435 N   0  0  0  0  0  0  0  0  0  0  0  0
    0.6679   -1.8342    0.3775 C   0  0  1  0  0  0  0  0  0  0  0  0
    2.0178   -1.3261    0.8195 C   0  0  0  0  0  0  0  0  0  0  0  0
   -1.6593    3.0303    1.3478 H   0  0  0  0  0  0  0  0  0  0  0  0
   -0.5399    3.0505   -0.0377 H   0  0  0  0  0  0  0  0  0  0  0  0
   -2.2988    3.0539   -0.3134 H   0  0  0  0  0  0  0  0  0  0  0  0
   -2.2246    0.6921    0.5782 H   0  0  0  0  0  0  0  0  0  0  0  0
   -1.4554   -1.2989    0.1423 H   0  0  0  0  0  0  0  0  0  0  0  0
   -0.2006   -2.5337   -1.3553 H   0  0  0  0  0  0  0  0  0  0  0  0
    0.3261   -2.7308    0.8962 H   0  0  0  0  0  0  0  0  0  0  0  0
    2.2714   -0.4130    0.2814 H   0  0  0  0  0  0  0  0  0  0  0  0
    2.0170   -1.1189    1.8952 H   0  0  0  0  0  0  0  0  0  0  0  0
    2.7839   -2.0837    0.6225 H   0  0  0  0  0  0  0  0  0  0  0  0
  1  9  1  0  0  0  0
  2  1  1  0  0  0  0
  2 12  1  0  0  0  0
  3  5  1  0  0  0  0
  3  2  1  0  0  0  0
  4  3  2  0  0  0  0
  5 13  1  0  0  0  0
  5  7  1  1  0  0  0
  6  5  1  0  0  0  0
  6  7  1  0  0  0  0
  7  8  1  0  0  0  0
  7 15  1  1  0  0  0
  8 17  1  0  0  0  0
 10  1  1  0  0  0  0
 11  1  1  0  0  0  0
 14  6  1  0  0  0  0
 16  8  1  0  0  0  0
 18  8  1  0  0  0  0
M  END
