19
title
C -1.5853093 2.6261253 0.65985906
C -1.6627146 1.1221164 0.41617635
C -0.37178814 0.5259815 -0.13199286
O 0.59177625 1.209425 -0.39657336
C -0.3812878 -0.968793 -0.29070586
N 0.5609176 -1.5643525 -1.2577838
C 0.7699126 -1.8352983 0.15851898
C 2.025861 -1.2910092 0.7918688
H -0.8045887 2.8633766 1.3872597
H -1.337772 3.1560469 -0.2631384
H -2.5381835 3.008051 1.0367825
H -1.9226007 0.5786896 1.3359685
H -2.4670906 0.87535846 -0.29230195
H -1.3671538 -1.4218407 -0.20167558
H 0.11531173 -2.3522105 -1.7205689
H 0.46043432 -2.814223 0.5264185
H 2.2573483 -0.30341977 0.39220443
H 1.9126614 -1.2213578 1.8791078
H 2.866804 -1.9608827 0.58286095
