18
title
C -0.6487758 2.6934988 0.9783721
N -0.3960192 1.2681563 1.0526944
C 0.24633798 0.6070428 0.036297496
O 0.49910775 1.1022308 -1.0456777
N 0.6413884 -0.6937484 0.39289862
C -0.27114865 -1.7296124 0.8615505
C 0.42358622 -1.8455262 -0.4629163
C -0.35159183 -1.7414548 -1.7553997
H 0.106651686 3.2809615 1.516415
H -0.6203244 2.9771981 -0.074044414
H -1.6347814 2.9299974 1.390366
H -0.3844782 0.83221775 1.9603297
H 0.062076595 -2.3068197 1.7206974
H -1.3370107 -1.5099401 0.8405146
H 1.2899209 -2.5041366 -0.50863034
H -1.257779 -1.1420527 -1.6347723
H 0.253647 -1.269047 -2.5325313
H -0.64100844 -2.7422721 -2.0927413
