title
 OpenBabel02282110003D

 19 19  0  0  1  0  0  0  0  0999 V2000
   -1.5853    2.6261    0.6599 C   0  0  0  0  0  0  0  0  0  0  0  0
   -1.6627    1.1221    0.4162 C   0  0  0  0  0  0  0  0  0  0  0  0
   -0.3718    0.5260   -0.1320 C   0  0  0  0  0  0  0  0  0  0  0  0
    0.5918    1.2094   -0.3966 O   0  0  0  0  0  0  0  0  0  0  0  0
   -0.3813   -0.9688   -0.2907 C   0  0  1  0  0  0  0  0  0  0  0  0
    0.5609   -1.5644   -1.2578 N   0  0  0  0  0  0  0  0  0  0  0  0
    0.7699   -1.8353    0.1585 C   0  0  1  0  0  0  0  0  0  0  0  0
    2.0259   -1.2910    0.7919 C   0  0  0  0  0  0  0  0  0  0  0  0
   -0.8046    2.8634    1.3873 H   0  0  0  0  0  0  0  0  0  0  0  0
   -1.3378    3.1560   -0.2631 H   0  0  0  0  0  0  0  0  0  0  0  0
   -2.5382    3.0081    1.0368 H   0  0  0  0  0  0  0  0  0  0  0  0
   -1.9226    0.5787    1.3360 H   0  0  0  0  0  0  0  0  0  0  0  0
   -2.4671    0.8754   -0.2923 H   0  0  0  0  0  0  0  0  0  0  0  0
   -1.3672   -1.4218   -0.2017 H   0  0  0  0  0  0  0  0  0  0  0  0
    0.1153   -2.3522   -1.7206 H   0  0  0  0  0  0  0  0  0  0  0  0
    0.4604   -2.8142    0.5264 H   0  0  0  0  0  0  0  0  0  0  0  0
    2.2573   -0.3034    0.3922 H   0  0  0  0  0  0  0  0  0  0  0  0
    1.9127   -1.2214    1.8791 H   0  0  0  0  0  0  0  0  0  0  0  0
    2.8668   -1.9609    0.5829 H   0  0  0  0  0  0  0  0  0  0  0  0
  1 11  1  0  0  0  0
  1  9  1  0  0  0  0
  2  1  1  0  0  0  0
  2 12  1  0  0  0  0
  3  2  1  0  0  0  0
  4  3  2  0  0  0  0
  5 14  1  0  0  0  0
  5  3  1  0  0  0  0
  5  7  1  1  0  0  0
  6  5  1  0  0  0  0
  6  7  1  0  0  0  0
  7 16  1  1  0  0  0
  7  8  1  0  0  0  0
  8 18  1  0  0  0  0
 10  1  1  0  0  0  0
 13  2  1  0  0  0  0
 15  6  1  0  0  0  0
 17  8  1  0  0  0  0
 19  8  1  0  0  0  0
M  END
