17
title
C -1.9762745 0.66140586 -1.3019289
N -1.288781 -0.6217555 -1.4340152
C 0.015487182 -0.646819 -2.0407403
C -0.1316445 -0.9415326 -0.572359
C 0.43170488 0.02946332 0.40471563
O 0.5819541 1.2185726 0.18403764
C 0.8279352 -0.5219525 1.7672399
O 1.3707571 0.47035298 2.5808609
H -1.3121465 1.5110118 -1.1094599
H -2.5240183 0.8355102 -2.2329042
H -2.7049336 0.5894472 -0.48885491
H 0.21938835 -1.4714296 -2.7190237
H 0.49212885 0.30121097 -2.2844183
H -0.11978473 -1.9767847 -0.23843853
H -0.06971897 -0.97689223 2.2218666
H 1.5408685 -1.3495008 1.6101397
H 1.3166997 1.2840956 2.0532756
