17
title
C -0.7039391 2.504802 -0.86907107
N -0.54666084 1.0797174 -0.6627557
C -0.45199448 0.52390796 0.5730595
O -0.4485864 1.1416973 1.6237476
C -0.35891855 -0.98519796 0.56913835
O -0.37898704 -1.6610565 -0.6942739
C 0.82607764 -1.7208791 0.083553456
C 2.0637968 -1.0724537 -0.4761123
H -1.670863 2.737461 -1.329116
H -0.65216804 2.9840186 0.109629095
H 0.09126793 2.9048183 -1.5073439
H -0.6074343 0.43813527 -1.4387147
H -0.9581818 -1.4404299 1.3559282
H 0.98830837 -2.7017405 0.5336276
H 1.8537186 -0.07401259 -0.8632695
H 2.8265114 -0.9905612 0.30507272
H 2.4760964 -1.6833591 -1.285788
