18
title
C -1.495365 2.6703868 0.3256387
N -1.4253796 1.2240211 0.27774593
C -0.31345862 0.55621135 -0.1584098
O 0.69114214 1.1255941 -0.5458013
C -0.45055336 -0.94344634 -0.084760815
N 0.34089857 -1.7321874 -1.0434535
C 0.66793317 -1.8341588 0.3775261
C 2.0177813 -1.3261396 0.8194937
H -1.6593366 3.0303438 1.3478299
H -0.53990906 3.0504904 -0.037688855
H -2.2987597 3.0538924 -0.31343874
H -2.2245543 0.69206506 0.5782354
H -1.4554104 -1.2989403 0.14227673
H -0.20057781 -2.5337262 -1.3553433
H 0.32610196 -2.73078 0.89623487
H 2.2713926 -0.41299504 0.28138655
H 2.0169704 -1.1188873 1.8951862
H 2.7839308 -2.08373 0.6224743
