title
 OpenBabel02282110003D

 17 17  0  0  1  0  0  0  0  0999 V2000
   -1.9763    0.6614   -1.3019 C   0  0  0  0  0  0  0  0  0  0  0  0
   -1.2888   -0.6218   -1.4340 N   0  0  0  0  0  0  0  0  0  0  0  0
    0.0155   -0.6468   -2.0407 C   0  0  0  0  0  0  0  0  0  0  0  0
   -0.1316   -0.9415   -0.5724 C   0  0  1  0  0  0  0  0  0  0  0  0
    0.4317    0.0295    0.4047 C   0  0  0  0  0  0  0  0  0  0  0  0
    0.5820    1.2186    0.1840 O   0  0  0  0  0  0  0  0  0  0  0  0
    0.8279   -0.5220    1.7672 C   0  0  0  0  0  0  0  0  0  0  0  0
    1.3708    0.4704    2.5809 O   0  0  0  0  0  0  0  0  0  0  0  0
   -1.3121    1.5110   -1.1095 H   0  0  0  0  0  0  0  0  0  0  0  0
   -2.5240    0.8355   -2.2329 H   0  0  0  0  0  0  0  0  0  0  0  0
   -2.7049    0.5894   -0.4889 H   0  0  0  0  0  0  0  0  0  0  0  0
    0.2194   -1.4714   -2.7190 H   0  0  0  0  0  0  0  0  0  0  0  0
    0.4921    0.3012   -2.2844 H   0  0  0  0  0  0  0  0  0  0  0  0
   -0.1198   -1.9768   -0.2384 H   0  0  0  0  0  0  0  0  0  0  0  0
   -0.0697   -0.9769    2.2219 H   0  0  0  0  0  0  0  0  0  0  0  0
    1.5409   -1.3495    1.6101 H   0  0  0  0  0  0  0  0  0  0  0  0
    1.3167    1.2841    2.0533 H   0  0  0  0  0  0  0  0  0  0  0  0
  1  9  1  0  0  0  0
  1 11  1  0  0  0  0
  2  1  1  0  0  0  0
  2  4  1  0  0  0  0
  3  2  1  0  0  0  0
  3  4  1  0  0  0  0
  4 14  1  1  0  0  0
  4  5  1  0  0  0  0
  5  7  1  0  0  0  0
  6  5  2  0  0  0  0
  7 15  1  0  0  0  0
  7  8  1  0  0  0  0
 10  1  1  0  0  0  0
 12  3  1  0  0  0  0
 13  3  1  0  0  0  0
 16  7  1  0  0  0  0
 17  8  1  0  0  0  0
M  END
