19
title
C -0.44115016 2.5167594 1.6542577
N -0.33646664 1.0809916 1.4932905
C -0.33861408 0.47328138 0.2685597
O -0.43812642 1.1019341 -0.7762009
C -0.21229483 -1.0171968 0.32129776
C -0.7161233 -1.8114887 -0.86716473
C 0.7565417 -1.7491049 -0.61066186
C 1.7020384 -1.0237309 -1.5419768
H -0.5655151 2.9444869 0.65888536
H -1.3052077 2.7867153 2.2718334
H 0.4610245 2.9383411 2.1128619
H -0.23184387 0.5085358 2.3137944
H -0.341791 -1.4621338 1.3036653
H -1.2552174 -2.7317345 -0.67202675
H -1.1002512 -1.2074093 -1.6820971
H 1.1815326 -2.6389136 -0.1517476
H 1.2445949 -0.11400492 -1.9335726
H 2.6280625 -0.7464519 -1.0258328
H 1.972551 -1.6710879 -2.3835526
