16
title
O 1.9256928 2.2331269 0.093038045
C 1.873693 0.8405494 0.13453169
C 0.44303623 0.3325431 0.2080337
O -0.4711015 1.1532184 0.2219747
C 0.21042304 -1.1136534 0.22001325
C -1.02068 -1.6397624 0.9760066
C -1.0789897 -1.604167 -0.50252503
O -1.8758156 -0.726848 -1.2017262
H 0.9992771 2.522062 0.114767484
H 2.3469806 0.3908616 -0.7551909
H 2.42128 0.4432206 1.0060406
H 1.0897335 -1.7467213 0.17606945
H -0.90386456 -2.5904772 1.4838725
H -1.5880256 -0.8873913 1.5140177
H -0.9653048 -2.5376449 -1.0439048
H -1.8081403 0.13983868 -0.76709366
