title
 OpenBabel02282110003D

 17 17  0  0  1  0  0  0  0  0999 V2000
   -0.5128    2.5179   -1.1041 C   0  0  0  0  0  0  0  0  0  0  0  0
   -0.7789    1.1277   -0.8966 O   0  0  0  0  0  0  0  0  0  0  0  0
   -0.2008    0.6023    0.2074 C   0  0  0  0  0  0  0  0  0  0  0  0
    0.5200    1.2145    0.9591 O   0  0  0  0  0  0  0  0  0  0  0  0
   -0.6192   -0.7027    0.3944 N   0  0  0  0  0  0  0  0  0  0  0  0
   -0.5720   -1.7516   -0.6055 C   0  0  0  0  0  0  0  0  0  0  0  0
    0.2801   -1.8180    0.6307 C   0  0  1  0  0  0  0  0  0  0  0  0
    1.7771   -1.6375    0.5549 C   0  0  0  0  0  0  0  0  0  0  0  0
    0.5597    2.6977   -1.2145 H   0  0  0  0  0  0  0  0  0  0  0  0
   -1.0401    2.7857   -2.0202 H   0  0  0  0  0  0  0  0  0  0  0  0
   -0.8821    3.1126   -0.2646 H   0  0  0  0  0  0  0  0  0  0  0  0
   -1.4683   -2.3592   -0.6955 H   0  0  0  0  0  0  0  0  0  0  0  0
   -0.0733   -1.5270   -1.5452 H   0  0  0  0  0  0  0  0  0  0  0  0
   -0.0600   -2.4723    1.4318 H   0  0  0  0  0  0  0  0  0  0  0  0
    2.0663   -1.0556   -0.3251 H   0  0  0  0  0  0  0  0  0  0  0  0
    2.1493   -1.1113    1.4379 H   0  0  0  0  0  0  0  0  0  0  0  0
    2.2673   -2.6145    0.4970 H   0  0  0  0  0  0  0  0  0  0  0  0
  1  2  1  0  0  0  0
  1 11  1  0  0  0  0
  2  3  1  0  0  0  0
  3  5  1  0  0  0  0
  3  4  2  0  0  0  0
  5  7  1  0  0  0  0
  6  5  1  0  0  0  0
  6  7  1  0  0  0  0
  7 14  1  1  0  0  0
  8  7  1  0  0  0  0
  8 16  1  0  0  0  0
  9  1  1  0  0  0  0
 10  1  1  0  0  0  0
 12  6  1  0  0  0  0
 13  6  1  0  0  0  0
 15  8  1  0  0  0  0
 17  8  1  0  0  0  0
M  END
