title
 OpenBabel02282110003D

 21 21  0  0  1  0  0  0  0  0999 V2000
    0.3302    2.0825   -0.5045 C   0  0  0  0  0  0  0  0  0  0  0  0
   -0.0069    0.5892   -0.3828 C   0  0  1  0  0  0  0  0  0  0  0  0
    0.4887   -0.1903   -1.6047 C   0  0  0  0  0  0  0  0  0  0  0  0
   -0.1618    0.3243   -2.7576 O   0  0  0  0  0  0  0  0  0  0  0  0
    0.5973    0.0111    0.8857 C   0  0  1  0  0  0  0  0  0  0  0  0
   -0.0780    0.1583    2.2069 C   0  0  0  0  0  0  0  0  0  0  0  0
    0.0806   -1.1594    1.6032 N   0  0  0  0  0  0  0  0  0  0  0  0
   -1.1247   -1.8354    1.1474 C   0  0  0  0  0  0  0  0  0  0  0  0
    1.4155    2.2395   -0.4787 H   0  0  0  0  0  0  0  0  0  0  0  0
   -0.0460    2.4822   -1.4483 H   0  0  0  0  0  0  0  0  0  0  0  0
   -0.1084    2.6522    0.3200 H   0  0  0  0  0  0  0  0  0  0  0  0
   -1.0972    0.4845   -0.3537 H   0  0  0  0  0  0  0  0  0  0  0  0
    1.5839   -0.0838   -1.6830 H   0  0  0  0  0  0  0  0  0  0  0  0
    0.2731   -1.2619   -1.4750 H   0  0  0  0  0  0  0  0  0  0  0  0
    0.1868   -0.1312   -3.5290 H   0  0  0  0  0  0  0  0  0  0  0  0
    1.6887    0.0377    0.8836 H   0  0  0  0  0  0  0  0  0  0  0  0
    0.4906    0.3466    3.1143 H   0  0  0  0  0  0  0  0  0  0  0  0
   -1.0744    0.6018    2.1984 H   0  0  0  0  0  0  0  0  0  0  0  0
   -1.9135   -1.1697    0.7636 H   0  0  0  0  0  0  0  0  0  0  0  0
   -0.8681   -2.5528    0.3608 H   0  0  0  0  0  0  0  0  0  0  0  0
   -1.5445   -2.3966    1.9887 H   0  0  0  0  0  0  0  0  0  0  0  0
  1  9  1  0  0  0  0
  1  2  1  0  0  0  0
  1 11  1  0  0  0  0
  2 12  1  1  0  0  0
  2  5  1  0  0  0  0
  3 14  1  0  0  0  0
  3  2  1  0  0  0  0
  4  3  1  0  0  0  0
  5 16  1  1  0  0  0
  5  7  1  0  0  0  0
  5  6  1  0  0  0  0
  6 17  1  0  0  0  0
  7  6  1  0  0  0  0
  8  7  1  0  0  0  0
  8 21  1  0  0  0  0
 10  1  1  0  0  0  0
 13  3  1  0  0  0  0
 15  4  1  0  0  0  0
 18  6  1  0  0  0  0
 19  8  1  0  0  0  0
 20  8  1  0  0  0  0
M  END
