title
 OpenBabel02282110003D

 16 16  0  0  1  0  0  0  0  0999 V2000
   -0.4975    2.4172    1.5925 C   0  0  0  0  0  0  0  0  0  0  0  0
   -0.4793    0.9835    1.5386 O   0  0  0  0  0  0  0  0  0  0  0  0
   -0.2650    0.4527    0.3249 C   0  0  0  0  0  0  0  0  0  0  0  0
   -0.1061    1.1292   -0.6771 O   0  0  0  0  0  0  0  0  0  0  0  0
   -0.2167   -1.0187    0.3558 C   0  0  1  0  0  0  0  0  0  0  0  0
   -0.7769   -1.7624   -0.8647 C   0  0  0  0  0  0  0  0  0  0  0  0
    0.6978   -1.6864   -0.6924 C   0  0  1  0  0  0  0  0  0  0  0  0
    1.5079   -0.9364   -1.5198 O   0  0  0  0  0  0  0  0  0  0  0  0
    0.4612    2.8265    1.2650 H   0  0  0  0  0  0  0  0  0  0  0  0
   -1.2881    2.8164    0.9528 H   0  0  0  0  0  0  0  0  0  0  0  0
   -0.6850    2.6698    2.6359 H   0  0  0  0  0  0  0  0  0  0  0  0
   -0.3146   -1.4750    1.3321 H   0  0  0  0  0  0  0  0  0  0  0  0
   -1.2936   -2.6957   -0.6715 H   0  0  0  0  0  0  0  0  0  0  0  0
   -1.2163   -1.1346   -1.6325 H   0  0  0  0  0  0  0  0  0  0  0  0
    1.2160   -2.5748   -0.3462 H   0  0  0  0  0  0  0  0  0  0  0  0
    1.0871   -0.0658   -1.6212 H   0  0  0  0  0  0  0  0  0  0  0  0
  1 11  1  0  0  0  0
  2  1  1  0  0  0  0
  3  5  1  0  0  0  0
  3  2  1  0  0  0  0
  4  3  2  0  0  0  0
  5  7  1  6  0  0  0
  5 12  1  0  0  0  0
  6  7  1  0  0  0  0
  6 13  1  0  0  0  0
  6  5  1  0  0  0  0
  7 15  1  1  0  0  0
  8  7  1  0  0  0  0
  9  1  1  0  0  0  0
 10  1  1  0  0  0  0
 14  6  1  0  0  0  0
 16  8  1  0  0  0  0
M  END
