20
title
C -0.5474137 2.1277442 -0.051043004
C -0.21467134 0.6418061 -0.22882529
C 0.6303489 0.40241745 -1.4915823
O 0.003138541 0.8663504 -2.6796496
C 0.49795687 0.07398591 0.9853206
C -0.29016745 -0.38765368 2.1974916
C 0.4154309 -1.3884662 1.3166515
O -0.3312138 -2.1899447 0.4435354
H 0.3609922 2.7091758 0.14856355
H -1.003489 2.526356 -0.96054786
H -1.2339194 2.2842672 0.78665316
H -1.1489722 0.079855 -0.35892788
H 1.5721555 0.960649 -1.4202243
H 0.8811328 -0.66515046 -1.5645409
H -0.77133316 0.31490687 -2.8303251
H 1.4569519 0.54340637 1.1961317
H 0.096364856 -0.19441558 3.1923687
H -1.3720573 -0.34970936 2.1144724
H 1.310827 -1.8673459 1.7129147
H -0.79780084 -2.8479316 0.96900374
