title
 OpenBabel02282110003D

 18 18  0  0  1  0  0  0  0  0999 V2000
   -0.4052    2.3548    1.6880 C   0  0  0  0  0  0  0  0  0  0  0  0
   -0.2812    0.9338    1.5649 O   0  0  0  0  0  0  0  0  0  0  0  0
   -0.3121    0.4607    0.2990 C   0  0  0  0  0  0  0  0  0  0  0  0
   -0.4353    1.1751   -0.6698 O   0  0  0  0  0  0  0  0  0  0  0  0
   -0.1787   -1.0163    0.2910 C   0  0  1  0  0  0  0  0  0  0  0  0
   -0.7428   -1.7788   -0.8953 C   0  0  0  0  0  0  0  0  0  0  0  0
    0.7390   -1.7088   -0.7226 C   0  0  1  0  0  0  0  0  0  0  0  0
    1.6222   -0.9456   -1.6838 C   0  0  0  0  0  0  0  0  0  0  0  0
    0.4165    2.8613    1.1750 H   0  0  0  0  0  0  0  0  0  0  0  0
   -1.3493    2.6999    1.2586 H   0  0  0  0  0  0  0  0  0  0  0  0
   -0.3734    2.5641    2.7575 H   0  0  0  0  0  0  0  0  0  0  0  0
   -0.2442   -1.4714    1.2711 H   0  0  0  0  0  0  0  0  0  0  0  0
   -1.2644   -2.7069   -0.6902 H   0  0  0  0  0  0  0  0  0  0  0  0
   -1.1805   -1.1616   -1.6726 H   0  0  0  0  0  0  0  0  0  0  0  0
    1.1996   -2.6034   -0.3107 H   0  0  0  0  0  0  0  0  0  0  0  0
    1.1325   -0.0362   -2.0355 H   0  0  0  0  0  0  0  0  0  0  0  0
    2.5684   -0.6627   -1.2097 H   0  0  0  0  0  0  0  0  0  0  0  0
    1.8593   -1.5703   -2.5519 H   0  0  0  0  0  0  0  0  0  0  0  0
  1 11  1  0  0  0  0
  2  1  1  0  0  0  0
  3  2  1  0  0  0  0
  4  3  2  0  0  0  0
  5  7  1  6  0  0  0
  5  3  1  0  0  0  0
  5 12  1  0  0  0  0
  6  7  1  0  0  0  0
  6 13  1  0  0  0  0
  6  5  1  0  0  0  0
  7 15  1  1  0  0  0
  8 17  1  0  0  0  0
  8  7  1  0  0  0  0
  9  1  1  0  0  0  0
 10  1  1  0  0  0  0
 14  6  1  0  0  0  0
 16  8  1  0  0  0  0
 18  8  1  0  0  0  0
M  END
