title
 OpenBabel02282110003D

 20 20  0  0  1  0  0  0  0  0999 V2000
   -0.5474    2.1277   -0.0510 C   0  0  0  0  0  0  0  0  0  0  0  0
   -0.2147    0.6418   -0.2288 C   0  0  1  0  0  0  0  0  0  0  0  0
    0.6303    0.4024   -1.4916 C   0  0  0  0  0  0  0  0  0  0  0  0
    0.0031    0.8664   -2.6796 O   0  0  0  0  0  0  0  0  0  0  0  0
    0.4980    0.0740    0.9853 C   0  0  1  0  0  0  0  0  0  0  0  0
   -0.2902   -0.3877    2.1975 C   0  0  0  0  0  0  0  0  0  0  0  0
    0.4154   -1.3885    1.3167 C   0  0  1  0  0  0  0  0  0  0  0  0
   -0.3312   -2.1899    0.4435 O   0  0  0  0  0  0  0  0  0  0  0  0
    0.3610    2.7092    0.1486 H   0  0  0  0  0  0  0  0  0  0  0  0
   -1.0035    2.5264   -0.9605 H   0  0  0  0  0  0  0  0  0  0  0  0
   -1.2339    2.2843    0.7867 H   0  0  0  0  0  0  0  0  0  0  0  0
   -1.1490    0.0799   -0.3589 H   0  0  0  0  0  0  0  0  0  0  0  0
    1.5722    0.9606   -1.4202 H   0  0  0  0  0  0  0  0  0  0  0  0
    0.8811   -0.6652   -1.5645 H   0  0  0  0  0  0  0  0  0  0  0  0
   -0.7713    0.3149   -2.8303 H   0  0  0  0  0  0  0  0  0  0  0  0
    1.4570    0.5434    1.1961 H   0  0  0  0  0  0  0  0  0  0  0  0
    0.0964   -0.1944    3.1924 H   0  0  0  0  0  0  0  0  0  0  0  0
   -1.3721   -0.3497    2.1145 H   0  0  0  0  0  0  0  0  0  0  0  0
    1.3108   -1.8673    1.7129 H   0  0  0  0  0  0  0  0  0  0  0  0
   -0.7978   -2.8479    0.9690 H   0  0  0  0  0  0  0  0  0  0  0  0
  1  9  1  0  0  0  0
  1 11  1  0  0  0  0
  2 12  1  6  0  0  0
  2  1  1  0  0  0  0
  2  5  1  0  0  0  0
  3 13  1  0  0  0  0
  3  2  1  0  0  0  0
  4  3  1  0  0  0  0
  5 16  1  0  0  0  0
  5  7  1  6  0  0  0
  5  6  1  0  0  0  0
  6 17  1  0  0  0  0
  7 19  1  1  0  0  0
  7  6  1  0  0  0  0
  8 20  1  0  0  0  0
  8  7  1  0  0  0  0
 10  1  1  0  0  0  0
 14  3  1  0  0  0  0
 15  4  1  0  0  0  0
 18  6  1  0  0  0  0
M  END
