title
 OpenBabel02282110003D

 17 17  0  0  1  0  0  0  0  0999 V2000
   -0.1232    2.5591   -0.5164 C   0  0  0  0  0  0  0  0  0  0  0  0
   -0.1697    1.2576    0.0818 O   0  0  0  0  0  0  0  0  0  0  0  0
    0.7264    0.3788   -0.3996 C   0  0  0  0  0  0  0  0  0  0  0  0
    1.5202    0.6399   -1.2720 O   0  0  0  0  0  0  0  0  0  0  0  0
    0.6498   -0.9721    0.2389 C   0  0  1  0  0  0  0  0  0  0  0  0
    0.0214   -1.1285    1.5612 N   0  0  0  0  0  0  0  0  0  0  0  0
   -0.6097   -1.7749    0.4140 C   0  0  1  0  0  0  0  0  0  0  0  0
   -1.9868   -1.3084    0.0113 C   0  0  0  0  0  0  0  0  0  0  0  0
   -0.3231    2.4998   -1.5893 H   0  0  0  0  0  0  0  0  0  0  0  0
   -0.8946    3.1424   -0.0138 H   0  0  0  0  0  0  0  0  0  0  0  0
    0.8592    3.0141   -0.3685 H   0  0  0  0  0  0  0  0  0  0  0  0
    1.5475   -1.5411    0.0138 H   0  0  0  0  0  0  0  0  0  0  0  0
    0.5545   -1.7927    2.1159 H   0  0  0  0  0  0  0  0  0  0  0  0
   -0.4500   -2.8478    0.3034 H   0  0  0  0  0  0  0  0  0  0  0  0
   -2.0870   -0.2316    0.1474 H   0  0  0  0  0  0  0  0  0  0  0  0
   -2.1871   -1.5563   -1.0366 H   0  0  0  0  0  0  0  0  0  0  0  0
   -2.7441   -1.8071    0.6256 H   0  0  0  0  0  0  0  0  0  0  0  0
  1 11  1  0  0  0  0
  1 10  1  0  0  0  0
  1  2  1  0  0  0  0
  3  2  1  0  0  0  0
  3  5  1  0  0  0  0
  4  3  2  0  0  0  0
  5  7  1  6  0  0  0
  5  6  1  0  0  0  0
  6 13  1  0  0  0  0
  7 14  1  6  0  0  0
  7  6  1  0  0  0  0
  8 15  1  0  0  0  0
  8  7  1  0  0  0  0
  8 17  1  0  0  0  0
  9  1  1  0  0  0  0
 12  5  1  0  0  0  0
 16  8  1  0  0  0  0
M  END
