title
 OpenBabel02282110003D

 16 16  0  0  1  0  0  0  0  0999 V2000
    0.6501    2.6374    1.1523 C   0  0  0  0  0  0  0  0  0  0  0  0
    0.6651    1.2062    1.2364 O   0  0  0  0  0  0  0  0  0  0  0  0
   -0.0944    0.5690    0.3229 C   0  0  0  0  0  0  0  0  0  0  0  0
   -0.7628    1.1264   -0.5096 O   0  0  0  0  0  0  0  0  0  0  0  0
    0.0444   -0.9141    0.5078 C   0  0  1  0  0  0  0  0  0  0  0  0
   -1.0207   -1.7187    0.0165 O   0  0  0  0  0  0  0  0  0  0  0  0
    0.2324   -1.8270   -0.6483 C   0  0  1  0  0  0  0  0  0  0  0  0
    0.3076   -1.3816   -2.0842 C   0  0  0  0  0  0  0  0  0  0  0  0
    1.3119    2.9882    1.9439 H   0  0  0  0  0  0  0  0  0  0  0  0
    1.0101    2.9693    0.1752 H   0  0  0  0  0  0  0  0  0  0  0  0
   -0.3628    3.0195    1.3012 H   0  0  0  0  0  0  0  0  0  0  0  0
    0.4506   -1.2073    1.4738 H   0  0  0  0  0  0  0  0  0  0  0  0
    0.7678   -2.7508   -0.4174 H   0  0  0  0  0  0  0  0  0  0  0  0
   -0.2182   -0.4375   -2.2269 H   0  0  0  0  0  0  0  0  0  0  0  0
    1.3534   -1.2668   -2.3890 H   0  0  0  0  0  0  0  0  0  0  0  0
   -0.1462   -2.1417   -2.7285 H   0  0  0  0  0  0  0  0  0  0  0  0
  1  2  1  0  0  0  0
  1 11  1  0  0  0  0
  1  9  1  0  0  0  0
  3  5  1  0  0  0  0
  3  2  1  0  0  0  0
  4  3  2  0  0  0  0
  5  7  1  6  0  0  0
  5 12  1  0  0  0  0
  6  5  1  0  0  0  0
  7 13  1  1  0  0  0
  7  6  1  0  0  0  0
  8  7  1  0  0  0  0
 10  1  1  0  0  0  0
 14  8  1  0  0  0  0
 15  8  1  0  0  0  0
 16  8  1  0  0  0  0
M  END
