18
title
C -0.4052173 2.3548195 1.6880443
O -0.2811714 0.9338385 1.5648699
C -0.31211907 0.4606896 0.29897016
O -0.43529016 1.1751467 -0.6698362
C -0.17871702 -1.0162922 0.29099244
C -0.74281305 -1.7788436 -0.89525336
C 0.7390103 -1.7088172 -0.72264737
C 1.622194 -0.9456218 -1.683773
H 0.4164857 2.8612883 1.1750308
H -1.3492775 2.6998863 1.2585899
H -0.3734122 2.5640728 2.757535
H -0.2441616 -1.471437 1.2711387
H -1.2643552 -2.7068574 -0.69024104
H -1.1804678 -1.1616216 -1.6725888
H 1.1995634 -2.6033628 -0.31070405
H 1.1324968 -0.03616815 -2.0354872
H 2.5684042 -0.6626975 -1.2096524
H 1.8592768 -1.5702941 -2.551937
