title
 OpenBabel02282110003D

 17 17  0  0  1  0  0  0  0  0999 V2000
   -1.6080    2.4414   -0.2494 C   0  0  0  0  0  0  0  0  0  0  0  0
   -1.5184    1.0409    0.0399 O   0  0  0  0  0  0  0  0  0  0  0  0
   -0.3337    0.4670   -0.2538 C   0  0  0  0  0  0  0  0  0  0  0  0
    0.6061    1.0746   -0.7123 O   0  0  0  0  0  0  0  0  0  0  0  0
   -0.3745   -0.9899    0.0723 C   0  0  1  0  0  0  0  0  0  0  0  0
    0.5401   -1.8972   -0.6976 C   0  0  0  0  0  0  0  0  0  0  0  0
    0.7610   -1.6744    0.7105 N   0  0  0  0  0  0  0  0  0  0  0  0
    1.9455   -0.9263    1.1262 C   0  0  0  0  0  0  0  0  0  0  0  0
   -1.4224    2.6287   -1.3101 H   0  0  0  0  0  0  0  0  0  0  0  0
   -2.6224    2.7354    0.0197 H   0  0  0  0  0  0  0  0  0  0  0  0
   -0.8777    3.0035    0.3381 H   0  0  0  0  0  0  0  0  0  0  0  0
   -1.3472   -1.3442    0.3971 H   0  0  0  0  0  0  0  0  0  0  0  0
    0.1867   -2.8849   -0.9827 H   0  0  0  0  0  0  0  0  0  0  0  0
    1.2024   -1.4051   -1.4080 H   0  0  0  0  0  0  0  0  0  0  0  0
    2.2362   -0.1247    0.4384 H   0  0  0  0  0  0  0  0  0  0  0  0
    1.7604   -0.4945    2.1147 H   0  0  0  0  0  0  0  0  0  0  0  0
    2.7700   -1.6398    1.2184 H   0  0  0  0  0  0  0  0  0  0  0  0
  1 10  1  0  0  0  0
  1  2  1  0  0  0  0
  1 11  1  0  0  0  0
  3  2  1  0  0  0  0
  3  5  1  0  0  0  0
  4  3  2  0  0  0  0
  5 12  1  1  0  0  0
  5  7  1  0  0  0  0
  6  5  1  0  0  0  0
  6  7  1  0  0  0  0
  7  8  1  0  0  0  0
  8 17  1  0  0  0  0
  8 16  1  0  0  0  0
  9  1  1  0  0  0  0
 13  6  1  0  0  0  0
 14  6  1  0  0  0  0
 15  8  1  0  0  0  0
M  END
