title
 OpenBabel02282110003D

 24 24  0  0  1  0  0  0  0  0999 V2000
    0.5592    2.9151   -0.9799 C   0  0  0  0  0  0  0  0  0  0  0  0
    0.9427    1.6904   -0.1432 C   0  0  0  0  0  0  0  0  0  0  0  0
    0.1487    0.4083   -0.4659 C   0  0  1  0  0  0  0  0  0  0  0  0
    0.4000   -0.0912   -1.8976 C   0  0  0  0  0  0  0  0  0  0  0  0
    0.4837   -0.6791    0.5424 C   0  0  1  0  0  0  0  0  0  0  0  0
   -0.1429   -0.7052    1.9166 C   0  0  0  0  0  0  0  0  0  0  0  0
   -0.4614   -1.7988    0.9234 C   0  0  1  0  0  0  0  0  0  0  0  0
   -1.8555   -1.9481    0.3521 C   0  0  0  0  0  0  0  0  0  0  0  0
    0.7752    2.7726   -2.0432 H   0  0  0  0  0  0  0  0  0  0  0  0
   -0.5098    3.1389   -0.8861 H   0  0  0  0  0  0  0  0  0  0  0  0
    1.1119    3.8010   -0.6509 H   0  0  0  0  0  0  0  0  0  0  0  0
    2.0152    1.4838   -0.2653 H   0  0  0  0  0  0  0  0  0  0  0  0
    0.7994    1.9234    0.9189 H   0  0  0  0  0  0  0  0  0  0  0  0
   -0.9183    0.6539   -0.3729 H   0  0  0  0  0  0  0  0  0  0  0  0
   -0.1707   -1.0024   -2.1004 H   0  0  0  0  0  0  0  0  0  0  0  0
    0.1170    0.6531   -2.6476 H   0  0  0  0  0  0  0  0  0  0  0  0
    1.4615   -0.3255   -2.0451 H   0  0  0  0  0  0  0  0  0  0  0  0
    1.5331   -0.9696    0.5091 H   0  0  0  0  0  0  0  0  0  0  0  0
    0.4744   -0.9324    2.7791 H   0  0  0  0  0  0  0  0  0  0  0  0
   -0.9271    0.0205    2.1157 H   0  0  0  0  0  0  0  0  0  0  0  0
    0.0266   -2.7517    1.1155 H   0  0  0  0  0  0  0  0  0  0  0  0
   -2.4913   -2.5239    1.0341 H   0  0  0  0  0  0  0  0  0  0  0  0
   -2.3417   -0.9809    0.1959 H   0  0  0  0  0  0  0  0  0  0  0  0
   -1.8442   -2.4734   -0.6098 H   0  0  0  0  0  0  0  0  0  0  0  0
  1 10  1  0  0  0  0
  1 11  1  0  0  0  0
  1  2  1  0  0  0  0
  2 13  1  0  0  0  0
  3 14  1  1  0  0  0
  3  2  1  0  0  0  0
  3  5  1  0  0  0  0
  4  3  1  0  0  0  0
  5  7  1  6  0  0  0
  5  6  1  0  0  0  0
  6 20  1  0  0  0  0
  6 19  1  0  0  0  0
  7 21  1  1  0  0  0
  7  6  1  0  0  0  0
  8  7  1  0  0  0  0
  8 22  1  0  0  0  0
  9  1  1  0  0  0  0
 12  2  1  0  0  0  0
 15  4  1  0  0  0  0
 16  4  1  0  0  0  0
 17  4  1  0  0  0  0
 18  5  1  0  0  0  0
 23  8  1  0  0  0  0
 24  8  1  0  0  0  0
M  END
