21
title
C 1.1449256 1.807443 0.42511752
C 0.3332417 0.5229355 0.6041894
C -1.0687476 0.81197405 1.1659057
O -1.8289428 1.6037965 0.27625164
N 0.12671661 -0.107383795 -0.70565146
C 1.2350731 -0.78747934 -1.3627172
C 0.06734502 -1.5663247 -0.85819215
C 0.21637309 -2.541797 0.28954625
H 2.1121387 1.602451 -0.04303295
H 0.5960566 2.515858 -0.19960825
H 1.3299348 2.2765794 1.3963542
H 0.86166334 -0.13637953 1.3110511
H -1.5751479 -0.14418589 1.3803616
H -0.9901899 1.3617389 2.1103866
H -1.6522887 1.2283106 -0.5980128
H 1.3675838 -0.5832441 -2.4223664
H 2.1654952 -0.89435273 -0.80502963
H -0.6811081 -1.8710974 -1.588695
H 1.0458789 -2.2874398 0.95354253
H -0.69797635 -2.5968366 0.89024925
H 0.41021466 -3.5435758 -0.10820415
