18
title
C -0.71133286 1.552276 -2.1802738
C -0.90714717 0.09118797 -1.8719164
O 0.26236382 -0.7330953 -1.7600003
C -0.56330276 -0.5670429 -0.6018678
C 0.07044711 0.12008898 0.58439255
O -0.9630096 0.46822375 1.4866481
C 1.0760163 -0.8030409 1.2820292
O 1.4889594 -0.23354374 2.5229647
H 0.09447708 1.9924895 -1.5900223
H -0.46433702 1.682078 -3.2391367
H -1.6340126 2.106554 -1.979094
H -1.7067981 -0.38204125 -2.445862
H -1.1397347 -1.4523879 -0.32413372
H 0.6125488 1.0181193 0.24311091
H -0.53615004 0.5262375 2.3526752
H 0.5882914 -1.748732 1.5407584
H 1.925316 -1.0185052 0.6218271
H 2.0847945 0.49859744 2.3305357
