19
title
C -0.002210201 1.5950192 -1.8100078
C -0.57326925 0.19996761 -1.7287012
N 0.34944218 -0.87825656 -1.3238001
C -0.7877373 -0.5197769 -0.44235533
C -0.50429237 0.062568024 0.95150083
O -1.4915701 -0.38468182 1.8750507
C 0.9057568 -0.26008186 1.4759053
O 1.9345212 0.26069313 0.66643566
H 0.72948486 1.761569 -1.0160627
H 0.4973548 1.7492405 -2.7721713
H -0.7973516 2.3430653 -1.7201636
H -1.2754972 -0.050380256 -2.5224862
H 0.1669429 -1.7404182 -1.8275272
H -1.6255605 -1.2145522 -0.4227988
H -0.6197013 1.1508764 0.92480916
H -1.321212 -1.3158647 2.058459
H 1.0103841 0.1792063 2.4731314
H 0.99151736 -1.3572606 1.590082
H 1.8172443 -0.17490073 -0.19561453
