22
title
C 1.7765017 2.2963583 -1.0675205
C 1.297897 0.8416353 -1.0798303
C -0.034103215 0.59901905 -0.34132743
C -1.2279773 1.3013101 -1.0055345
C -0.30051023 -0.8905692 -0.26225573
O 0.5406556 -1.6750793 0.5916683
C -0.85771155 -1.6046069 0.90030855
C -1.2499516 -0.9676821 2.2092016
H 2.752024 2.3887124 -1.5550907
H 1.0848337 2.9627779 -1.5922016
H 1.8831676 2.668189 -0.04205517
H 1.1994278 0.49437743 -2.117819
H 2.059441 0.20615393 -0.61385
H 0.07812974 0.98469645 0.67886883
H -2.1552882 1.1104207 -0.4558082
H -1.084203 2.3841107 -1.0473677
H -1.3705884 0.9450628 -2.0328505
H -0.46997893 -1.351948 -1.2405411
H -1.3913141 -2.5336514 0.68442994
H -0.70833755 -0.037545316 2.3907518
H -2.324959 -0.75668085 2.2238293
H -1.033637 -1.6505005 3.037673
