20
title
C 0.99169946 1.8208053 -0.39060813
C 0.15151715 0.53547657 -0.39893422
C 0.20611185 -0.18482164 -1.7573045
O -0.28548998 0.6002188 -2.8307438
C 0.62432384 -0.40131205 0.6928521
O 0.34359044 -0.033503976 2.0485516
C -0.24498612 -1.2376775 1.5403794
C -1.7489909 -1.2958763 1.4564677
H 2.045377 1.6083109 -0.6110451
H 0.62396634 2.5394423 -1.129987
H 0.94480705 2.3005886 0.5904947
H -0.8920902 0.80743384 -0.21119241
H 1.2357864 -0.528052 -1.9541572
H -0.42960346 -1.0761297 -1.7273607
H 0.3416369 1.3114486 -2.9909813
H 1.649342 -0.75760365 0.54972106
H 0.21081287 -2.1425793 1.9497329
H -2.17211 -0.3796421 1.040792
H -2.064121 -2.1416967 0.83562213
H -2.1737921 -1.4399383 2.4554763
