title
 OpenBabel02282110003D

 18 18  0  0  1  0  0  0  0  0999 V2000
   -0.7113    1.5523   -2.1803 C   0  0  0  0  0  0  0  0  0  0  0  0
   -0.9071    0.0912   -1.8719 C   0  0  1  0  0  0  0  0  0  0  0  0
    0.2624   -0.7331   -1.7600 O   0  0  0  0  0  0  0  0  0  0  0  0
   -0.5633   -0.5670   -0.6019 C   0  0  1  0  0  0  0  0  0  0  0  0
    0.0704    0.1201    0.5844 C   0  0  1  0  0  0  0  0  0  0  0  0
   -0.9630    0.4682    1.4866 O   0  0  0  0  0  0  0  0  0  0  0  0
    1.0760   -0.8030    1.2820 C   0  0  0  0  0  0  0  0  0  0  0  0
    1.4890   -0.2335    2.5230 O   0  0  0  0  0  0  0  0  0  0  0  0
    0.0945    1.9925   -1.5900 H   0  0  0  0  0  0  0  0  0  0  0  0
   -0.4643    1.6821   -3.2391 H   0  0  0  0  0  0  0  0  0  0  0  0
   -1.6340    2.1066   -1.9791 H   0  0  0  0  0  0  0  0  0  0  0  0
   -1.7068   -0.3820   -2.4459 H   0  0  0  0  0  0  0  0  0  0  0  0
   -1.1397   -1.4524   -0.3241 H   0  0  0  0  0  0  0  0  0  0  0  0
    0.6125    1.0181    0.2431 H   0  0  0  0  0  0  0  0  0  0  0  0
   -0.5362    0.5262    2.3527 H   0  0  0  0  0  0  0  0  0  0  0  0
    0.5883   -1.7487    1.5408 H   0  0  0  0  0  0  0  0  0  0  0  0
    1.9253   -1.0185    0.6218 H   0  0  0  0  0  0  0  0  0  0  0  0
    2.0848    0.4986    2.3305 H   0  0  0  0  0  0  0  0  0  0  0  0
  1 11  1  0  0  0  0
  1  2  1  0  0  0  0
  1  9  1  0  0  0  0
  2  3  1  0  0  0  0
  2  4  1  1  0  0  0
  3  4  1  0  0  0  0
  4 13  1  1  0  0  0
  4  5  1  0  0  0  0
  5 14  1  6  0  0  0
  5  7  1  0  0  0  0
  5  6  1  0  0  0  0
  6 15  1  0  0  0  0
  7 16  1  0  0  0  0
  7  8  1  0  0  0  0
 10  1  1  0  0  0  0
 12  2  1  0  0  0  0
 17  7  1  0  0  0  0
 18  8  1  0  0  0  0
M  END
