title
 OpenBabel02282110003D

 20 20  0  0  1  0  0  0  0  0999 V2000
    0.9917    1.8208   -0.3906 C   0  0  0  0  0  0  0  0  0  0  0  0
    0.1515    0.5355   -0.3989 C   0  0  1  0  0  0  0  0  0  0  0  0
    0.2061   -0.1848   -1.7573 C   0  0  0  0  0  0  0  0  0  0  0  0
   -0.2855    0.6002   -2.8307 O   0  0  0  0  0  0  0  0  0  0  0  0
    0.6243   -0.4013    0.6929 C   0  0  1  0  0  0  0  0  0  0  0  0
    0.3436   -0.0335    2.0486 O   0  0  0  0  0  0  0  0  0  0  0  0
   -0.2450   -1.2377    1.5404 C   0  0  1  0  0  0  0  0  0  0  0  0
   -1.7490   -1.2959    1.4565 C   0  0  0  0  0  0  0  0  0  0  0  0
    2.0454    1.6083   -0.6110 H   0  0  0  0  0  0  0  0  0  0  0  0
    0.6240    2.5394   -1.1300 H   0  0  0  0  0  0  0  0  0  0  0  0
    0.9448    2.3006    0.5905 H   0  0  0  0  0  0  0  0  0  0  0  0
   -0.8921    0.8074   -0.2112 H   0  0  0  0  0  0  0  0  0  0  0  0
    1.2358   -0.5281   -1.9542 H   0  0  0  0  0  0  0  0  0  0  0  0
   -0.4296   -1.0761   -1.7274 H   0  0  0  0  0  0  0  0  0  0  0  0
    0.3416    1.3114   -2.9910 H   0  0  0  0  0  0  0  0  0  0  0  0
    1.6493   -0.7576    0.5497 H   0  0  0  0  0  0  0  0  0  0  0  0
    0.2108   -2.1426    1.9497 H   0  0  0  0  0  0  0  0  0  0  0  0
   -2.1721   -0.3796    1.0408 H   0  0  0  0  0  0  0  0  0  0  0  0
   -2.0641   -2.1417    0.8356 H   0  0  0  0  0  0  0  0  0  0  0  0
   -2.1738   -1.4399    2.4555 H   0  0  0  0  0  0  0  0  0  0  0  0
  1 11  1  0  0  0  0
  2  1  1  0  0  0  0
  2 12  1  1  0  0  0
  2  5  1  0  0  0  0
  3 14  1  0  0  0  0
  3  2  1  0  0  0  0
  4  3  1  0  0  0  0
  5  7  1  6  0  0  0
  5  6  1  0  0  0  0
  7 17  1  1  0  0  0
  7  6  1  0  0  0  0
  8  7  1  0  0  0  0
  8 20  1  0  0  0  0
  9  1  1  0  0  0  0
 10  1  1  0  0  0  0
 13  3  1  0  0  0  0
 15  4  1  0  0  0  0
 16  5  1  0  0  0  0
 18  8  1  0  0  0  0
 19  8  1  0  0  0  0
M  END
