20
title
C -1.0045717 1.4997337 -1.9957821
C -1.0611763 -0.0024686148 -1.8178943
C 0.16789003 -0.86030877 -1.9746703
C -0.47086358 -0.70055455 -0.6111995
C 0.23047598 0.05160162 0.49197313
O -0.6829507 0.80078703 1.3128154
C 1.0561694 -0.86658484 1.3994324
O 1.6272854 -0.1402269 2.464665
H -0.035647083 1.9101979 -1.6986217
H -1.1653632 1.7684216 -3.045398
H -1.7703853 2.0001404 -1.3947457
H -1.9836667 -0.44924858 -2.1807368
H 0.088970974 -1.819131 -2.4748313
H 1.1126808 -0.35129532 -2.1416898
H -1.0292593 -1.5648719 -0.25225726
H 0.9023425 0.80994505 0.07718382
H -1.4255368 0.22231658 1.5216053
H 0.40614992 -1.6823026 1.7684779
H 1.8712236 -1.3297153 0.83305883
H 0.9336582 0.4700079 2.749238
