title
 OpenBabel02282110003D

 20 20  0  0  1  0  0  0  0  0999 V2000
   -1.0046    1.4997   -1.9958 C   0  0  0  0  0  0  0  0  0  0  0  0
   -1.0612   -0.0025   -1.8179 C   0  0  1  0  0  0  0  0  0  0  0  0
    0.1679   -0.8603   -1.9747 C   0  0  0  0  0  0  0  0  0  0  0  0
   -0.4709   -0.7006   -0.6112 C   0  0  1  0  0  0  0  0  0  0  0  0
    0.2305    0.0516    0.4920 C   0  0  1  0  0  0  0  0  0  0  0  0
   -0.6830    0.8008    1.3128 O   0  0  0  0  0  0  0  0  0  0  0  0
    1.0562   -0.8666    1.3994 C   0  0  0  0  0  0  0  0  0  0  0  0
    1.6273   -0.1402    2.4647 O   0  0  0  0  0  0  0  0  0  0  0  0
   -0.0356    1.9102   -1.6986 H   0  0  0  0  0  0  0  0  0  0  0  0
   -1.1654    1.7684   -3.0454 H   0  0  0  0  0  0  0  0  0  0  0  0
   -1.7704    2.0001   -1.3947 H   0  0  0  0  0  0  0  0  0  0  0  0
   -1.9837   -0.4492   -2.1807 H   0  0  0  0  0  0  0  0  0  0  0  0
    0.0890   -1.8191   -2.4748 H   0  0  0  0  0  0  0  0  0  0  0  0
    1.1127   -0.3513   -2.1417 H   0  0  0  0  0  0  0  0  0  0  0  0
   -1.0293   -1.5649   -0.2523 H   0  0  0  0  0  0  0  0  0  0  0  0
    0.9023    0.8099    0.0772 H   0  0  0  0  0  0  0  0  0  0  0  0
   -1.4255    0.2223    1.5216 H   0  0  0  0  0  0  0  0  0  0  0  0
    0.4061   -1.6823    1.7685 H   0  0  0  0  0  0  0  0  0  0  0  0
    1.8712   -1.3297    0.8331 H   0  0  0  0  0  0  0  0  0  0  0  0
    0.9337    0.4700    2.7492 H   0  0  0  0  0  0  0  0  0  0  0  0
  1  2  1  0  0  0  0
  1  9  1  0  0  0  0
  1 11  1  0  0  0  0
  2  4  1  1  0  0  0
  3  2  1  0  0  0  0
  3  4  1  0  0  0  0
  4 15  1  1  0  0  0
  4  5  1  0  0  0  0
  5 16  1  6  0  0  0
  5  6  1  0  0  0  0
  5  7  1  0  0  0  0
  6 17  1  0  0  0  0
  7 18  1  0  0  0  0
  7  8  1  0  0  0  0
  8 20  1  0  0  0  0
 10  1  1  0  0  0  0
 12  2  1  0  0  0  0
 13  3  1  0  0  0  0
 14  3  1  0  0  0  0
 19  7  1  0  0  0  0
M  END
