title
 OpenBabel02282110003D

 22 22  0  0  1  0  0  0  0  0999 V2000
    1.7704    2.5627    0.0557 C   0  0  0  0  0  0  0  0  0  0  0  0
    1.6800    1.0366    0.1149 C   0  0  0  0  0  0  0  0  0  0  0  0
    0.2628    0.5039   -0.1434 C   0  0  1  0  0  0  0  0  0  0  0  0
   -0.2357    0.9445   -1.4103 O   0  0  0  0  0  0  0  0  0  0  0  0
    0.1985   -1.0036   -0.0144 C   0  0  1  0  0  0  0  0  0  0  0  0
   -0.1333   -1.6658    1.3048 C   0  0  0  0  0  0  0  0  0  0  0  0
   -1.1059   -1.7480    0.1535 C   0  0  1  0  0  0  0  0  0  0  0  0
   -2.4454   -1.0444    0.1991 C   0  0  0  0  0  0  0  0  0  0  0  0
    2.8016    2.9057    0.1837 H   0  0  0  0  0  0  0  0  0  0  0  0
    1.3984    2.9310   -0.9038 H   0  0  0  0  0  0  0  0  0  0  0  0
    1.1653    3.0236    0.8446 H   0  0  0  0  0  0  0  0  0  0  0  0
    2.3583    0.5923   -0.6287 H   0  0  0  0  0  0  0  0  0  0  0  0
    2.0179    0.6696    1.0918 H   0  0  0  0  0  0  0  0  0  0  0  0
   -0.4171    0.9628    0.5840 H   0  0  0  0  0  0  0  0  0  0  0  0
    0.2708    0.4896   -2.0923 H   0  0  0  0  0  0  0  0  0  0  0  0
    0.9515   -1.5126   -0.6162 H   0  0  0  0  0  0  0  0  0  0  0  0
    0.4200   -2.5506    1.6002 H   0  0  0  0  0  0  0  0  0  0  0  0
   -0.3987   -1.0153    2.1335 H   0  0  0  0  0  0  0  0  0  0  0  0
   -1.1390   -2.7099   -0.3528 H   0  0  0  0  0  0  0  0  0  0  0  0
   -2.4054   -0.1264    0.7920 H   0  0  0  0  0  0  0  0  0  0  0  0
   -2.7834   -0.7698   -0.8051 H   0  0  0  0  0  0  0  0  0  0  0  0
   -3.2052   -1.6915    0.6510 H   0  0  0  0  0  0  0  0  0  0  0  0
  1  2  1  0  0  0  0
  1  9  1  0  0  0  0
  1 11  1  0  0  0  0
  2 13  1  0  0  0  0
  3  5  1  0  0  0  0
  3  2  1  0  0  0  0
  3 14  1  1  0  0  0
  4  3  1  0  0  0  0
  5  7  1  6  0  0  0
  5  6  1  0  0  0  0
  6 17  1  0  0  0  0
  6 18  1  0  0  0  0
  7 19  1  6  0  0  0
  7  8  1  0  0  0  0
  7  6  1  0  0  0  0
  8 22  1  0  0  0  0
  8 20  1  0  0  0  0
 10  1  1  0  0  0  0
 12  2  1  0  0  0  0
 15  4  1  0  0  0  0
 16  5  1  0  0  0  0
 21  8  1  0  0  0  0
M  END
