title
 OpenBabel02282110003D

 23 23  0  0  1  0  0  0  0  0999 V2000
    0.6274    2.7226   -1.4079 C   0  0  0  0  0  0  0  0  0  0  0  0
    1.0144    1.5784   -0.4656 C   0  0  0  0  0  0  0  0  0  0  0  0
    0.0838    0.3493   -0.5240 C   0  0  1  0  0  0  0  0  0  0  0  0
    0.0966   -0.3312   -1.9025 C   0  0  0  0  0  0  0  0  0  0  0  0
    0.4937   -0.6399    0.5569 C   0  0  1  0  0  0  0  0  0  0  0  0
    0.0395   -0.4928    1.9697 C   0  0  0  0  0  0  0  0  0  0  0  0
   -0.3985   -1.6296    1.1675 N   0  0  0  0  0  0  0  0  0  0  0  0
   -1.8049   -1.6888    0.8016 C   0  0  0  0  0  0  0  0  0  0  0  0
    0.6984    2.4323   -2.4605 H   0  0  0  0  0  0  0  0  0  0  0  0
   -0.4003    3.0563   -1.2239 H   0  0  0  0  0  0  0  0  0  0  0  0
    1.2857    3.5849   -1.2623 H   0  0  0  0  0  0  0  0  0  0  0  0
    2.0425    1.2569   -0.6820 H   0  0  0  0  0  0  0  0  0  0  0  0
    1.0255    1.9525    0.5653 H   0  0  0  0  0  0  0  0  0  0  0  0
   -0.9357    0.7000   -0.3186 H   0  0  0  0  0  0  0  0  0  0  0  0
    1.1077   -0.6719   -2.1557 H   0  0  0  0  0  0  0  0  0  0  0  0
   -0.5598   -1.2062   -1.9180 H   0  0  0  0  0  0  0  0  0  0  0  0
   -0.2354    0.3465   -2.6939 H   0  0  0  0  0  0  0  0  0  0  0  0
    1.4961   -1.0419    0.3974 H   0  0  0  0  0  0  0  0  0  0  0  0
    0.6992   -0.7154    2.8049 H   0  0  0  0  0  0  0  0  0  0  0  0
   -0.6886    0.2951    2.1680 H   0  0  0  0  0  0  0  0  0  0  0  0
   -2.3508   -2.1890    1.6083 H   0  0  0  0  0  0  0  0  0  0  0  0
   -2.2834   -0.7111    0.6329 H   0  0  0  0  0  0  0  0  0  0  0  0
   -1.9237   -2.2903   -0.1056 H   0  0  0  0  0  0  0  0  0  0  0  0
  1 11  1  0  0  0  0
  1 10  1  0  0  0  0
  1  2  1  0  0  0  0
  2 13  1  0  0  0  0
  3  2  1  0  0  0  0
  3 14  1  1  0  0  0
  3  5  1  0  0  0  0
  4  3  1  0  0  0  0
  5 18  1  6  0  0  0
  5  7  1  0  0  0  0
  5  6  1  0  0  0  0
  6 20  1  0  0  0  0
  6 19  1  0  0  0  0
  7  6  1  0  0  0  0
  8  7  1  0  0  0  0
  8 21  1  0  0  0  0
  9  1  1  0  0  0  0
 12  2  1  0  0  0  0
 15  4  1  0  0  0  0
 16  4  1  0  0  0  0
 17  4  1  0  0  0  0
 22  8  1  0  0  0  0
 23  8  1  0  0  0  0
M  END
