title
 OpenBabel02282110003D

 22 22  0  0  1  0  0  0  0  0999 V2000
    1.7765    2.2964   -1.0675 C   0  0  0  0  0  0  0  0  0  0  0  0
    1.2979    0.8416   -1.0798 C   0  0  0  0  0  0  0  0  0  0  0  0
   -0.0341    0.5990   -0.3413 C   0  0  1  0  0  0  0  0  0  0  0  0
   -1.2280    1.3013   -1.0055 C   0  0  0  0  0  0  0  0  0  0  0  0
   -0.3005   -0.8906   -0.2623 C   0  0  1  0  0  0  0  0  0  0  0  0
    0.5407   -1.6751    0.5917 O   0  0  0  0  0  0  0  0  0  0  0  0
   -0.8577   -1.6046    0.9003 C   0  0  1  0  0  0  0  0  0  0  0  0
   -1.2500   -0.9677    2.2092 C   0  0  0  0  0  0  0  0  0  0  0  0
    2.7520    2.3887   -1.5551 H   0  0  0  0  0  0  0  0  0  0  0  0
    1.0848    2.9628   -1.5922 H   0  0  0  0  0  0  0  0  0  0  0  0
    1.8832    2.6682   -0.0421 H   0  0  0  0  0  0  0  0  0  0  0  0
    1.1994    0.4944   -2.1178 H   0  0  0  0  0  0  0  0  0  0  0  0
    2.0594    0.2062   -0.6139 H   0  0  0  0  0  0  0  0  0  0  0  0
    0.0781    0.9847    0.6789 H   0  0  0  0  0  0  0  0  0  0  0  0
   -2.1553    1.1104   -0.4558 H   0  0  0  0  0  0  0  0  0  0  0  0
   -1.0842    2.3841   -1.0474 H   0  0  0  0  0  0  0  0  0  0  0  0
   -1.3706    0.9451   -2.0329 H   0  0  0  0  0  0  0  0  0  0  0  0
   -0.4700   -1.3519   -1.2405 H   0  0  0  0  0  0  0  0  0  0  0  0
   -1.3913   -2.5337    0.6844 H   0  0  0  0  0  0  0  0  0  0  0  0
   -0.7083   -0.0375    2.3908 H   0  0  0  0  0  0  0  0  0  0  0  0
   -2.3250   -0.7567    2.2238 H   0  0  0  0  0  0  0  0  0  0  0  0
   -1.0336   -1.6505    3.0377 H   0  0  0  0  0  0  0  0  0  0  0  0
  1 11  1  0  0  0  0
  2  1  1  0  0  0  0
  2 13  1  0  0  0  0
  2  3  1  0  0  0  0
  3  5  1  0  0  0  0
  3 14  1  1  0  0  0
  4 15  1  0  0  0  0
  4  3  1  0  0  0  0
  5  6  1  0  0  0  0
  5  7  1  1  0  0  0
  6  7  1  0  0  0  0
  7 19  1  6  0  0  0
  7  8  1  0  0  0  0
  8 21  1  0  0  0  0
  8 20  1  0  0  0  0
  8 22  1  0  0  0  0
  9  1  1  0  0  0  0
 10  1  1  0  0  0  0
 12  2  1  0  0  0  0
 16  4  1  0  0  0  0
 17  4  1  0  0  0  0
 18  5  1  0  0  0  0
M  END
