20
title
C 0.72940093 2.630924 0.4942676
O 0.063763276 1.4446448 0.1278783
C 0.9238937 0.34741628 -0.16918375
C 1.5405673 -0.28839564 1.0789089
C 0.121436685 -0.64601135 -1.0126649
O -0.13099477 -1.9512757 -0.4801605
C -1.2513312 -1.0896467 -0.7128105
C -2.0756946 -0.6606418 0.47305712
H 1.2520325 2.5473938 1.4579457
H 1.4633014 2.9353263 -0.2690213
H -0.031182272 3.4111068 0.5807404
H 1.7439342 0.7218424 -0.80456626
H 0.77120143 -0.684204 1.744185
H 2.1897695 -1.1200112 0.7909238
H 2.1449955 0.43952626 1.6271695
H 0.41443706 -0.66469884 -2.063473
H -1.8469677 -1.3945135 -1.5770694
H -1.4588684 -0.29177105 1.2912658
H -2.7559412 0.14440435 0.17769746
H -2.6798747 -1.5021204 0.8295206
