title
 OpenBabel02282110003D

 21 21  0  0  1  0  0  0  0  0999 V2000
    0.8352    2.3341   -0.5515 C   0  0  0  0  0  0  0  0  0  0  0  0
    0.8267    0.9712   -0.1895 O   0  0  0  0  0  0  0  0  0  0  0  0
   -0.1083    0.1715   -0.9050 C   0  0  1  0  0  0  0  0  0  0  0  0
    0.4027   -0.1635   -2.3124 C   0  0  0  0  0  0  0  0  0  0  0  0
   -0.3813   -1.1136   -0.1321 C   0  0  1  0  0  0  0  0  0  0  0  0
    0.4609   -1.5401    1.0220 C   0  0  0  0  0  0  0  0  0  0  0  0
   -0.9378   -1.1729    1.2180 N   0  0  0  0  0  0  0  0  0  0  0  0
   -1.2346    0.0584    1.9404 C   0  0  0  0  0  0  0  0  0  0  0  0
    1.5338    2.8388    0.1205 H   0  0  0  0  0  0  0  0  0  0  0  0
    1.1714    2.4946   -1.5855 H   0  0  0  0  0  0  0  0  0  0  0  0
   -0.1600    2.7909   -0.4368 H   0  0  0  0  0  0  0  0  0  0  0  0
   -1.0541    0.7345   -0.9967 H   0  0  0  0  0  0  0  0  0  0  0  0
   -0.3397   -0.7493   -2.8628 H   0  0  0  0  0  0  0  0  0  0  0  0
    0.6031    0.7426   -2.8902 H   0  0  0  0  0  0  0  0  0  0  0  0
    1.3274   -0.7449   -2.2482 H   0  0  0  0  0  0  0  0  0  0  0  0
   -0.7878   -1.8891   -0.7807 H   0  0  0  0  0  0  0  0  0  0  0  0
    0.7041   -2.5896    1.1705 H   0  0  0  0  0  0  0  0  0  0  0  0
    1.2227   -0.8359    1.3463 H   0  0  0  0  0  0  0  0  0  0  0  0
   -0.4897    0.8519    1.8039 H   0  0  0  0  0  0  0  0  0  0  0  0
   -2.2121    0.4347    1.6188 H   0  0  0  0  0  0  0  0  0  0  0  0
   -1.3057   -0.1766    3.0074 H   0  0  0  0  0  0  0  0  0  0  0  0
  1 11  1  0  0  0  0
  1  2  1  0  0  0  0
  1  9  1  0  0  0  0
  3 12  1  6  0  0  0
  3  2  1  0  0  0  0
  3  5  1  0  0  0  0
  4 15  1  0  0  0  0
  4  3  1  0  0  0  0
  5 16  1  6  0  0  0
  5  6  1  0  0  0  0
  5  7  1  0  0  0  0
  6 17  1  0  0  0  0
  6  7  1  0  0  0  0
  6 18  1  0  0  0  0
  7  8  1  0  0  0  0
  8 21  1  0  0  0  0
 10  1  1  0  0  0  0
 13  4  1  0  0  0  0
 14  4  1  0  0  0  0
 19  8  1  0  0  0  0
 20  8  1  0  0  0  0
M  END
