title
 OpenBabel02282110003D

 20 20  0  0  1  0  0  0  0  0999 V2000
    0.7294    2.6309    0.4943 C   0  0  0  0  0  0  0  0  0  0  0  0
    0.0638    1.4446    0.1279 O   0  0  0  0  0  0  0  0  0  0  0  0
    0.9239    0.3474   -0.1692 C   0  0  1  0  0  0  0  0  0  0  0  0
    1.5406   -0.2884    1.0789 C   0  0  0  0  0  0  0  0  0  0  0  0
    0.1214   -0.6460   -1.0127 C   0  0  1  0  0  0  0  0  0  0  0  0
   -0.1310   -1.9513   -0.4802 O   0  0  0  0  0  0  0  0  0  0  0  0
   -1.2513   -1.0896   -0.7128 C   0  0  1  0  0  0  0  0  0  0  0  0
   -2.0757   -0.6606    0.4731 C   0  0  0  0  0  0  0  0  0  0  0  0
    1.2520    2.5474    1.4579 H   0  0  0  0  0  0  0  0  0  0  0  0
    1.4633    2.9353   -0.2690 H   0  0  0  0  0  0  0  0  0  0  0  0
   -0.0312    3.4111    0.5807 H   0  0  0  0  0  0  0  0  0  0  0  0
    1.7439    0.7218   -0.8046 H   0  0  0  0  0  0  0  0  0  0  0  0
    0.7712   -0.6842    1.7442 H   0  0  0  0  0  0  0  0  0  0  0  0
    2.1898   -1.1200    0.7909 H   0  0  0  0  0  0  0  0  0  0  0  0
    2.1450    0.4395    1.6272 H   0  0  0  0  0  0  0  0  0  0  0  0
    0.4144   -0.6647   -2.0635 H   0  0  0  0  0  0  0  0  0  0  0  0
   -1.8470   -1.3945   -1.5771 H   0  0  0  0  0  0  0  0  0  0  0  0
   -1.4589   -0.2918    1.2913 H   0  0  0  0  0  0  0  0  0  0  0  0
   -2.7559    0.1444    0.1777 H   0  0  0  0  0  0  0  0  0  0  0  0
   -2.6799   -1.5021    0.8295 H   0  0  0  0  0  0  0  0  0  0  0  0
  1 11  1  0  0  0  0
  1  9  1  0  0  0  0
  2  1  1  0  0  0  0
  3 12  1  6  0  0  0
  3  2  1  0  0  0  0
  3  4  1  0  0  0  0
  4 15  1  0  0  0  0
  4 13  1  0  0  0  0
  5  7  1  6  0  0  0
  5  6  1  0  0  0  0
  5  3  1  0  0  0  0
  7 17  1  6  0  0  0
  7  6  1  0  0  0  0
  7  8  1  0  0  0  0
  8 20  1  0  0  0  0
  8 18  1  0  0  0  0
 10  1  1  0  0  0  0
 14  4  1  0  0  0  0
 16  5  1  0  0  0  0
 19  8  1  0  0  0  0
M  END
