21
title
C -0.49881452 2.6770191 -1.1007059
O -0.35059994 1.6338542 -0.16736726
C -0.47551137 0.32476938 -0.71580505
C 0.7183413 -0.07197983 -1.586718
C -0.7839493 -0.5719942 0.47435814
N -0.4887269 -2.0085557 0.39294595
C 0.16074546 -1.2012067 1.4409124
C 1.6681077 -1.1012576 1.4456271
H -0.49744695 3.6148329 -0.5387937
H 0.32015258 2.710819 -1.8339543
H -1.4495641 2.5977192 -1.6526371
H -1.3771337 0.30023864 -1.3552401
H 0.71025574 -1.1510643 -1.7555362
H 0.67453814 0.42922464 -2.557755
H 1.6583827 0.20680128 -1.1049726
H -1.7384506 -0.2892412 0.9184554
H -1.254634 -2.5605557 0.767173
H -0.25932056 -1.2970124 2.4429977
H 2.0830038 -1.2165946 0.4447853
H 1.9915118 -0.13658376 1.8505648
H 2.0941992 -1.8901404 2.075466
