title
 OpenBabel02282110003D

 22 22  0  0  1  0  0  0  0  0999 V2000
    0.5866    2.2990   -0.8737 C   0  0  0  0  0  0  0  0  0  0  0  0
    0.6288    0.9272   -0.5568 O   0  0  0  0  0  0  0  0  0  0  0  0
   -0.6110    0.2413   -0.7064 C   0  0  1  0  0  0  0  0  0  0  0  0
   -0.9068   -0.0507   -2.1834 C   0  0  0  0  0  0  0  0  0  0  0  0
   -0.5665   -1.0525    0.0936 C   0  0  1  0  0  0  0  0  0  0  0  0
    0.7379   -1.7060    0.4852 C   0  0  0  0  0  0  0  0  0  0  0  0
   -0.1810   -1.1589    1.5529 C   0  0  1  0  0  0  0  0  0  0  0  0
    0.2110    0.0283    2.4065 C   0  0  0  0  0  0  0  0  0  0  0  0
    1.5713    2.7123   -0.6406 H   0  0  0  0  0  0  0  0  0  0  0  0
    0.3776    2.4824   -1.9374 H   0  0  0  0  0  0  0  0  0  0  0  0
   -0.1711    2.8311   -0.2774 H   0  0  0  0  0  0  0  0  0  0  0  0
   -1.4151    0.8836   -0.3056 H   0  0  0  0  0  0  0  0  0  0  0  0
   -1.8769   -0.5468   -2.2887 H   0  0  0  0  0  0  0  0  0  0  0  0
   -0.9398    0.8666   -2.7780 H   0  0  0  0  0  0  0  0  0  0  0  0
   -0.1348   -0.7060   -2.5978 H   0  0  0  0  0  0  0  0  0  0  0  0
   -1.3589   -1.7307   -0.2129 H   0  0  0  0  0  0  0  0  0  0  0  0
    0.8412   -2.7798    0.3720 H   0  0  0  0  0  0  0  0  0  0  0  0
    1.6374   -1.1378    0.2788 H   0  0  0  0  0  0  0  0  0  0  0  0
   -0.7475   -1.9124    2.0964 H   0  0  0  0  0  0  0  0  0  0  0  0
    0.8043    0.7441    1.8361 H   0  0  0  0  0  0  0  0  0  0  0  0
   -0.6732    0.5500    2.7921 H   0  0  0  0  0  0  0  0  0  0  0  0
    0.8013   -0.2974    3.2706 H   0  0  0  0  0  0  0  0  0  0  0  0
  1  9  1  0  0  0  0
  1  2  1  0  0  0  0
  1 11  1  0  0  0  0
  3  2  1  0  0  0  0
  3 12  1  1  0  0  0
  3  5  1  0  0  0  0
  4  3  1  0  0  0  0
  5  6  1  0  0  0  0
  5  7  1  1  0  0  0
  6  7  1  0  0  0  0
  7 19  1  1  0  0  0
  7  8  1  0  0  0  0
  8 21  1  0  0  0  0
  8 22  1  0  0  0  0
 10  1  1  0  0  0  0
 13  4  1  0  0  0  0
 14  4  1  0  0  0  0
 15  4  1  0  0  0  0
 16  5  1  0  0  0  0
 17  6  1  0  0  0  0
 18  6  1  0  0  0  0
 20  8  1  0  0  0  0
M  END
