title
 OpenBabel02282110003D

 21 21  0  0  1  0  0  0  0  0999 V2000
    1.7069    2.0355   -1.6293 C   0  0  0  0  0  0  0  0  0  0  0  0
    0.8761    0.7510   -1.5962 C   0  0  0  0  0  0  0  0  0  0  0  0
    0.2228    0.4922   -0.2309 C   0  0  1  0  0  0  0  0  0  0  0  0
   -0.5998    1.5883    0.1769 O   0  0  0  0  0  0  0  0  0  0  0  0
   -0.5670   -0.8020   -0.2388 C   0  0  1  0  0  0  0  0  0  0  0  0
    0.0421   -2.0926    0.1984 C   0  0  0  0  0  0  0  0  0  0  0  0
   -1.0222   -1.4735    0.9753 N   0  0  0  0  0  0  0  0  0  0  0  0
   -0.6845   -0.9160    2.2789 C   0  0  0  0  0  0  0  0  0  0  0  0
    2.5535    1.9747   -0.9364 H   0  0  0  0  0  0  0  0  0  0  0  0
    2.1076    2.2226   -2.6300 H   0  0  0  0  0  0  0  0  0  0  0  0
    1.0981    2.8935   -1.3330 H   0  0  0  0  0  0  0  0  0  0  0  0
    0.0843    0.7979   -2.3581 H   0  0  0  0  0  0  0  0  0  0  0  0
    1.4977   -0.1146   -1.8562 H   0  0  0  0  0  0  0  0  0  0  0  0
    1.0088    0.4467    0.5305 H   0  0  0  0  0  0  0  0  0  0  0  0
   -1.3596    1.6178   -0.4160 H   0  0  0  0  0  0  0  0  0  0  0  0
   -1.3076   -0.8388   -1.0421 H   0  0  0  0  0  0  0  0  0  0  0  0
   -0.2017   -3.0253   -0.3041 H   0  0  0  0  0  0  0  0  0  0  0  0
    1.0561   -2.0465    0.5978 H   0  0  0  0  0  0  0  0  0  0  0  0
    0.3649   -0.5995    2.3832 H   0  0  0  0  0  0  0  0  0  0  0  0
   -1.3201   -0.0487    2.4748 H   0  0  0  0  0  0  0  0  0  0  0  0
   -0.8810   -1.6761    3.0417 H   0  0  0  0  0  0  0  0  0  0  0  0
  1  2  1  0  0  0  0
  1 11  1  0  0  0  0
  1  9  1  0  0  0  0
  2  3  1  0  0  0  0
  3  4  1  0  0  0  0
  3 14  1  1  0  0  0
  5 16  1  6  0  0  0
  5  3  1  0  0  0  0
  5  6  1  0  0  0  0
  5  7  1  0  0  0  0
  6 18  1  0  0  0  0
  6  7  1  0  0  0  0
  7  8  1  0  0  0  0
  8 19  1  0  0  0  0
  8 20  1  0  0  0  0
  8 21  1  0  0  0  0
 10  1  1  0  0  0  0
 12  2  1  0  0  0  0
 13  2  1  0  0  0  0
 15  4  1  0  0  0  0
 17  6  1  0  0  0  0
M  END
