20
title
C 0.57792723 3.9485557 -0.2140048
C 0.605733 2.517971 0.0568969
C 0.63607085 1.3349576 0.2792239
C 0.6456148 -0.10094424 0.5520321
C -0.7171644 -0.74858636 0.33832094
C -1.1390638 -1.235852 -1.025215
C -0.88441586 -2.2304096 0.084219605
C 0.27648973 -3.199956 0.018816998
H 1.4025918 4.2471004 -0.87107176
H -0.35662153 4.2435517 -0.70440376
H 0.66419107 4.5329905 0.70898265
H 1.3957626 -0.58500403 -0.08461074
H 0.9757347 -0.27273318 1.5861012
H -1.4981121 -0.2874603 0.93651515
H -2.156148 -1.0579019 -1.3568864
H -0.4003289 -1.1808598 -1.8198537
H -1.7769135 -2.6596513 0.53358144
H 1.1456493 -2.7690449 -0.48652607
H 0.59547776 -3.5145888 1.0191272
H -0.0054809023 -4.1011353 -0.53682977
