title
 OpenBabel02282110003D

 18 18  0  0  1  0  0  0  0  0999 V2000
    0.6137    3.9348   -0.2342 C   0  0  0  0  0  0  0  0  0  0  0  0
    0.5945    2.5134    0.0824 C   0  0  0  0  0  0  0  0  0  0  0  0
    0.5871    1.3383    0.3452 C   0  0  0  0  0  0  0  0  0  0  0  0
    0.5554   -0.0874    0.6621 C   0  0  0  0  0  0  0  0  0  0  0  0
   -0.7826   -0.7376    0.3375 C   0  0  1  0  0  0  0  0  0  0  0  0
   -1.0884   -1.1759   -1.0796 C   0  0  0  0  0  0  0  0  0  0  0  0
   -0.8465   -2.1998    0.0027 C   0  0  1  0  0  0  0  0  0  0  0  0
    0.3614   -2.9071    0.0281 O   0  0  0  0  0  0  0  0  0  0  0  0
    1.4728    4.1930   -0.8638 H   0  0  0  0  0  0  0  0  0  0  0  0
   -0.2914    4.2359   -0.7737 H   0  0  0  0  0  0  0  0  0  0  0  0
    0.6747    4.5466    0.6729 H   0  0  0  0  0  0  0  0  0  0  0  0
    1.3477   -0.6163    0.1219 H   0  0  0  0  0  0  0  0  0  0  0  0
    0.7769   -0.2326    1.7280 H   0  0  0  0  0  0  0  0  0  0  0  0
   -1.6174   -0.3430    0.9088 H   0  0  0  0  0  0  0  0  0  0  0  0
   -2.0915   -1.0469   -1.4711 H   0  0  0  0  0  0  0  0  0  0  0  0
   -0.2951   -1.0453   -1.8090 H   0  0  0  0  0  0  0  0  0  0  0  0
   -1.7049   -2.7606    0.3729 H   0  0  0  0  0  0  0  0  0  0  0  0
    0.3639   -3.5171   -0.7165 H   0  0  0  0  0  0  0  0  0  0  0  0
  1  2  1  0  0  0  0
  1 11  1  0  0  0  0
  2  3  3  0  0  0  0
  3  4  1  0  0  0  0
  4 13  1  0  0  0  0
  5  7  1  1  0  0  0
  5  4  1  0  0  0  0
  5 14  1  0  0  0  0
  6  7  1  0  0  0  0
  6  5  1  0  0  0  0
  7  8  1  0  0  0  0
  7 17  1  1  0  0  0
  9  1  1  0  0  0  0
 10  1  1  0  0  0  0
 12  4  1  0  0  0  0
 15  6  1  0  0  0  0
 16  6  1  0  0  0  0
 18  8  1  0  0  0  0
M  END
