title
 OpenBabel02282110003D

 18 18  0  0  1  0  0  0  0  0999 V2000
    0.5638    3.9393   -0.2632 C   0  0  0  0  0  0  0  0  0  0  0  0
    0.6171    2.5162    0.0396 C   0  0  0  0  0  0  0  0  0  0  0  0
    0.6678    1.3386    0.2836 C   0  0  0  0  0  0  0  0  0  0  0  0
    0.6954   -0.0905    0.5824 C   0  0  0  0  0  0  0  0  0  0  0  0
   -0.6703   -0.7407    0.4219 C   0  0  1  0  0  0  0  0  0  0  0  0
   -1.0548   -1.1515   -0.8903 O   0  0  0  0  0  0  0  0  0  0  0  0
   -0.8780   -2.1643    0.1089 C   0  0  1  0  0  0  0  0  0  0  0  0
    0.2170   -3.1782   -0.1079 C   0  0  0  0  0  0  0  0  0  0  0  0
    1.2988    4.2111   -1.0291 H   0  0  0  0  0  0  0  0  0  0  0  0
   -0.4245    4.2280   -0.6378 H   0  0  0  0  0  0  0  0  0  0  0  0
    0.7714    4.5462    0.6251 H   0  0  0  0  0  0  0  0  0  0  0  0
    1.4180   -0.5943   -0.0674 H   0  0  0  0  0  0  0  0  0  0  0  0
    1.0362   -0.2470    1.6157 H   0  0  0  0  0  0  0  0  0  0  0  0
   -1.4608   -0.2280    0.9730 H   0  0  0  0  0  0  0  0  0  0  0  0
   -1.8202   -2.5977    0.4529 H   0  0  0  0  0  0  0  0  0  0  0  0
    1.1518   -2.7138   -0.4275 H   0  0  0  0  0  0  0  0  0  0  0  0
    0.4029   -3.7403    0.8139 H   0  0  0  0  0  0  0  0  0  0  0  0
   -0.0836   -3.8944   -0.8798 H   0  0  0  0  0  0  0  0  0  0  0  0
  1  2  1  0  0  0  0
  1 11  1  0  0  0  0
  2  3  3  0  0  0  0
  3  4  1  0  0  0  0
  4 13  1  0  0  0  0
  5  7  1  1  0  0  0
  5  4  1  0  0  0  0
  5 14  1  0  0  0  0
  6  7  1  0  0  0  0
  6  5  1  0  0  0  0
  7 15  1  1  0  0  0
  8  7  1  0  0  0  0
  8 17  1  0  0  0  0
  9  1  1  0  0  0  0
 10  1  1  0  0  0  0
 12  4  1  0  0  0  0
 16  8  1  0  0  0  0
 18  8  1  0  0  0  0
M  END
