title
 OpenBabel02282110003D

 18 18  0  0  1  0  0  0  0  0999 V2000
    1.7244    2.4122   -0.0202 O   0  0  0  0  0  0  0  0  0  0  0  0
    1.7164    1.0032    0.0631 C   0  0  0  0  0  0  0  0  0  0  0  0
    0.2931    0.4576   -0.0102 C   0  0  1  0  0  0  0  0  0  0  0  0
   -0.2354    0.9483   -1.2431 O   0  0  0  0  0  0  0  0  0  0  0  0
    0.2407   -1.0571    0.0485 C   0  0  1  0  0  0  0  0  0  0  0  0
   -0.2495   -1.7447    1.3108 C   0  0  0  0  0  0  0  0  0  0  0  0
   -1.1073   -1.7131    0.0735 C   0  0  1  0  0  0  0  0  0  0  0  0
   -2.2025   -0.8367   -0.0023 O   0  0  0  0  0  0  0  0  0  0  0  0
    1.1316    2.6241   -0.7523 H   0  0  0  0  0  0  0  0  0  0  0  0
    2.3113    0.5475   -0.7466 H   0  0  0  0  0  0  0  0  0  0  0  0
    2.1759    0.7246    1.0170 H   0  0  0  0  0  0  0  0  0  0  0  0
   -0.2802    0.8775    0.8278 H   0  0  0  0  0  0  0  0  0  0  0  0
   -1.1725    0.7202   -1.2450 H   0  0  0  0  0  0  0  0  0  0  0  0
    1.0072   -1.5627   -0.5323 H   0  0  0  0  0  0  0  0  0  0  0  0
    0.1972   -2.6867    1.6088 H   0  0  0  0  0  0  0  0  0  0  0  0
   -0.5445   -1.1005    2.1331 H   0  0  0  0  0  0  0  0  0  0  0  0
   -1.2354   -2.6401   -0.4833 H   0  0  0  0  0  0  0  0  0  0  0  0
   -2.9092   -1.1709    0.5591 H   0  0  0  0  0  0  0  0  0  0  0  0
  1  2  1  0  0  0  0
  2 11  1  0  0  0  0
  3  5  1  0  0  0  0
  3  2  1  0  0  0  0
  3 12  1  1  0  0  0
  4  3  1  0  0  0  0
  5  7  1  6  0  0  0
  5  6  1  0  0  0  0
  6 15  1  0  0  0  0
  6 16  1  0  0  0  0
  7 17  1  6  0  0  0
  7  6  1  0  0  0  0
  8  7  1  0  0  0  0
  8 18  1  0  0  0  0
  9  1  1  0  0  0  0
 10  2  1  0  0  0  0
 13  4  1  0  0  0  0
 14  5  1  0  0  0  0
M  END
