16
title
C -1.3778929 0.882768 -1.9221997
C -1.2461154 -0.6169468 -1.8037851
C 0.070472345 -1.2990277 -2.0159721
C -0.5297399 -1.2573621 -0.61197656
C 0.07222961 -0.45894352 0.40627438
C 0.5737735 0.20442756 1.2887725
C 1.1420723 0.9524632 2.2713587
C 1.6467272 1.616637 3.1456134
H -0.48703837 1.3901649 -1.5419902
H -1.5157498 1.1760515 -2.9683867
H -2.2373145 1.2506936 -1.3522198
H -2.1202786 -1.1754763 -2.1278074
H 0.09817265 -2.2625308 -2.5122838
H 0.940035 -0.67433584 -2.1876829
H -0.9574707 -2.1905675 -0.2559045
H 2.0909681 2.1998396 3.9131744
