title
 OpenBabel02282110003D

 16 16  0  0  1  0  0  0  0  0999 V2000
   -1.3779    0.8828   -1.9222 C   0  0  0  0  0  0  0  0  0  0  0  0
   -1.2461   -0.6169   -1.8038 C   0  0  1  0  0  0  0  0  0  0  0  0
    0.0705   -1.2990   -2.0160 C   0  0  0  0  0  0  0  0  0  0  0  0
   -0.5297   -1.2574   -0.6120 C   0  0  1  0  0  0  0  0  0  0  0  0
    0.0722   -0.4589    0.4063 C   0  0  0  0  0  0  0  0  0  0  0  0
    0.5738    0.2044    1.2888 C   0  0  0  0  0  0  0  0  0  0  0  0
    1.1421    0.9525    2.2714 C   0  0  0  0  0  0  0  0  0  0  0  0
    1.6467    1.6166    3.1456 C   0  0  0  0  0  0  0  0  0  0  0  0
   -0.4870    1.3902   -1.5420 H   0  0  0  0  0  0  0  0  0  0  0  0
   -1.5157    1.1761   -2.9684 H   0  0  0  0  0  0  0  0  0  0  0  0
   -2.2373    1.2507   -1.3522 H   0  0  0  0  0  0  0  0  0  0  0  0
   -2.1203   -1.1755   -2.1278 H   0  0  0  0  0  0  0  0  0  0  0  0
    0.0982   -2.2625   -2.5123 H   0  0  0  0  0  0  0  0  0  0  0  0
    0.9400   -0.6743   -2.1877 H   0  0  0  0  0  0  0  0  0  0  0  0
   -0.9575   -2.1906   -0.2559 H   0  0  0  0  0  0  0  0  0  0  0  0
    2.0910    2.1998    3.9132 H   0  0  0  0  0  0  0  0  0  0  0  0
  1  2  1  0  0  0  0
  1  9  1  0  0  0  0
  1 11  1  0  0  0  0
  2  4  1  1  0  0  0
  3  2  1  0  0  0  0
  3  4  1  0  0  0  0
  4 15  1  1  0  0  0
  4  5  1  0  0  0  0
  5  6  3  0  0  0  0
  6  7  1  0  0  0  0
  7  8  3  0  0  0  0
  8 16  1  0  0  0  0
 10  1  1  0  0  0  0
 12  2  1  0  0  0  0
 13  3  1  0  0  0  0
 14  3  1  0  0  0  0
M  END
