title
 OpenBabel02282110003D

 15 15  0  0  1  0  0  0  0  0999 V2000
   -1.3808    0.8924   -1.9290 C   0  0  0  0  0  0  0  0  0  0  0  0
   -1.2539   -0.6086   -1.8230 C   0  0  1  0  0  0  0  0  0  0  0  0
    0.0580   -1.2942   -2.0366 C   0  0  0  0  0  0  0  0  0  0  0  0
   -0.5452   -1.2642   -0.6320 C   0  0  1  0  0  0  0  0  0  0  0  0
    0.0582   -0.4751    0.3879 C   0  0  0  0  0  0  0  0  0  0  0  0
    0.5628    0.1866    1.2678 C   0  0  0  0  0  0  0  0  0  0  0  0
    1.1365    0.9340    2.2531 C   0  0  0  0  0  0  0  0  0  0  0  0
    1.6259    1.5729    3.0921 N   0  0  0  0  0  0  0  0  0  0  0  0
   -0.4825    1.3962   -1.5614 H   0  0  0  0  0  0  0  0  0  0  0  0
   -1.5318    1.1896   -2.9718 H   0  0  0  0  0  0  0  0  0  0  0  0
   -2.2314    1.2600   -1.3463 H   0  0  0  0  0  0  0  0  0  0  0  0
   -2.1309   -1.1625   -2.1468 H   0  0  0  0  0  0  0  0  0  0  0  0
    0.0845   -2.2570   -2.5338 H   0  0  0  0  0  0  0  0  0  0  0  0
    0.9316   -0.6732   -2.2003 H   0  0  0  0  0  0  0  0  0  0  0  0
   -0.9754   -2.1962   -0.2775 H   0  0  0  0  0  0  0  0  0  0  0  0
  1  2  1  0  0  0  0
  1  9  1  0  0  0  0
  1 11  1  0  0  0  0
  2  4  1  1  0  0  0
  3  2  1  0  0  0  0
  3  4  1  0  0  0  0
  4 15  1  1  0  0  0
  4  5  1  0  0  0  0
  5  6  3  0  0  0  0
  6  7  1  0  0  0  0
  7  8  3  0  0  0  0
 10  1  1  0  0  0  0
 12  2  1  0  0  0  0
 13  3  1  0  0  0  0
 14  3  1  0  0  0  0
M  END
