18
title
O 1.7243679 2.412203 -0.020186383
C 1.7164087 1.0032403 0.06306381
C 0.29310456 0.45764586 -0.010238279
O -0.235411 0.9482941 -1.2430981
C 0.24065666 -1.0571375 0.048465446
C -0.24952324 -1.7446599 1.3107549
C -1.1073344 -1.7130742 0.07351318
O -2.2025354 -0.8367213 -0.0023274985
H 1.1315897 2.624116 -0.75231946
H 2.3113353 0.5474581 -0.74663186
H 2.1758902 0.72455627 1.0169728
H -0.28015837 0.87752014 0.82784456
H -1.172487 0.72019655 -1.2449924
H 1.0072297 -1.5627227 -0.5322613
H 0.19722442 -2.6867445 1.6088305
H -0.5445041 -1.1005204 2.133122
H -1.235445 -2.640096 -0.483303
H -2.9091566 -1.170898 0.5591215
