title
 OpenBabel02282110003D

 15 15  0  0  1  0  0  0  0  0999 V2000
   -1.3881    0.8838   -1.9526 C   0  0  0  0  0  0  0  0  0  0  0  0
   -1.2672   -0.6066   -1.7676 C   0  0  1  0  0  0  0  0  0  0  0  0
    0.0572   -1.1969   -1.9677 N   0  0  0  0  0  0  0  0  0  0  0  0
   -0.5383   -1.2202   -0.6048 C   0  0  1  0  0  0  0  0  0  0  0  0
    0.0962   -0.4361    0.4119 C   0  0  0  0  0  0  0  0  0  0  0  0
    0.6038    0.2097    1.3022 C   0  0  0  0  0  0  0  0  0  0  0  0
    1.1772    0.9392    2.2960 C   0  0  0  0  0  0  0  0  0  0  0  0
    1.6855    1.5871    3.1798 C   0  0  0  0  0  0  0  0  0  0  0  0
   -0.5076    1.3934   -1.5555 H   0  0  0  0  0  0  0  0  0  0  0  0
   -1.4773    1.1294   -3.0159 H   0  0  0  0  0  0  0  0  0  0  0  0
   -2.2749    1.2674   -1.4377 H   0  0  0  0  0  0  0  0  0  0  0  0
   -2.1242   -1.1853   -2.1113 H   0  0  0  0  0  0  0  0  0  0  0  0
   -0.0166   -2.1253   -2.3761 H   0  0  0  0  0  0  0  0  0  0  0  0
   -0.9278   -2.1737   -0.2527 H   0  0  0  0  0  0  0  0  0  0  0  0
    2.1346    2.1570    3.9547 H   0  0  0  0  0  0  0  0  0  0  0  0
  1  2  1  0  0  0  0
  1  9  1  0  0  0  0
  1 11  1  0  0  0  0
  2  4  1  1  0  0  0
  3  2  1  0  0  0  0
  3  4  1  0  0  0  0
  4 14  1  1  0  0  0
  4  5  1  0  0  0  0
  5  6  3  0  0  0  0
  6  7  1  0  0  0  0
  7  8  3  0  0  0  0
  8 15  1  0  0  0  0
 10  1  1  0  0  0  0
 12  2  1  0  0  0  0
 13  3  1  0  0  0  0
M  END
