18
title
C 0.5638341 3.9392695 -0.2632372
C 0.61711323 2.516176 0.039611984
C 0.6677884 1.3386176 0.28360087
C 0.69536275 -0.090521045 0.5823632
C -0.67028016 -0.74073905 0.42187956
O -1.0547773 -1.1514802 -0.89029187
C -0.8780146 -2.1643426 0.10886261
C 0.21701548 -3.1781924 -0.10794961
H 1.2987626 4.211059 -1.029059
H -0.42450207 4.227972 -0.6377813
H 0.77138436 4.546222 0.62508625
H 1.4179622 -0.5942921 -0.06738453
H 1.0361801 -0.24697083 1.6156573
H -1.460759 -0.22803801 0.9730158
H -1.8202347 -2.5977194 0.4528959
H 1.1517841 -2.7138207 -0.42750087
H 0.4028803 -3.740311 0.81386286
H -0.08356255 -3.8943737 -0.87981695
