18
title
C 0.6137355 3.9347897 -0.2342324
C 0.594482 2.5134444 0.08240085
C 0.5870687 1.3383403 0.345194
C 0.55537343 -0.08740595 0.66208005
C -0.7825945 -0.73760253 0.33749896
C -1.0884073 -1.1759377 -1.0795915
C -0.8464896 -2.1997545 0.002734916
O 0.3613553 -2.90712 0.028120743
H 1.4728106 4.1929917 -0.86378545
H -0.29142657 4.23589 -0.77372366
H 0.67472756 4.5466375 0.6729081
H 1.3476877 -0.61630636 0.12185669
H 0.7768723 -0.23259118 1.7280041
H -1.6174239 -0.34301046 0.90880543
H -2.0915415 -1.0468519 -1.4710572
H -0.29513952 -1.0452871 -1.8090191
H -1.7048658 -2.7606027 0.37291422
H 0.36390713 -3.5171015 -0.71646595
