title
 OpenBabel02282110003D

 15 15  0  0  1  0  0  0  0  0999 V2000
   -1.3022    1.0171   -2.0951 C   0  0  0  0  0  0  0  0  0  0  0  0
   -1.2231   -0.4801   -1.9462 C   0  0  1  0  0  0  0  0  0  0  0  0
    0.0824   -1.1038   -2.1389 N   0  0  0  0  0  0  0  0  0  0  0  0
   -0.5319   -1.1481   -0.7856 C   0  0  1  0  0  0  0  0  0  0  0  0
    0.1054   -0.3999    0.2543 C   0  0  0  0  0  0  0  0  0  0  0  0
    0.6085    0.2172    1.1646 C   0  0  0  0  0  0  0  0  0  0  0  0
    1.2386    0.9750    2.2115 C   0  0  0  0  0  0  0  0  0  0  0  0
    1.0803    0.7777    3.3953 O   0  0  0  0  0  0  0  0  0  0  0  0
   -0.4085    1.4932   -1.6866 H   0  0  0  0  0  0  0  0  0  0  0  0
   -1.3822    1.2875   -3.1530 H   0  0  0  0  0  0  0  0  0  0  0  0
   -2.1800    1.4124   -1.5742 H   0  0  0  0  0  0  0  0  0  0  0  0
   -2.0933   -1.0263   -2.3094 H   0  0  0  0  0  0  0  0  0  0  0  0
   -0.0091   -2.0193   -2.5721 H   0  0  0  0  0  0  0  0  0  0  0  0
   -0.9597   -2.0943   -0.4619 H   0  0  0  0  0  0  0  0  0  0  0  0
    1.9044    1.7826    1.8439 H   0  0  0  0  0  0  0  0  0  0  0  0
  1  2  1  0  0  0  0
  1  9  1  0  0  0  0
  1 11  1  0  0  0  0
  2  4  1  1  0  0  0
  3  2  1  0  0  0  0
  3  4  1  0  0  0  0
  4 14  1  1  0  0  0
  4  5  1  0  0  0  0
  5  6  3  0  0  0  0
  6  7  1  0  0  0  0
  7  8  2  0  0  0  0
 10  1  1  0  0  0  0
 12  2  1  0  0  0  0
 13  3  1  0  0  0  0
 15  7  1  0  0  0  0
M  END
