title
 OpenBabel02282110003D

 13 13  0  0  1  0  0  0  0  0999 V2000
   -1.3936    0.9063   -1.9477 C   0  0  0  0  0  0  0  0  0  0  0  0
   -1.2822   -0.5818   -1.7636 C   0  0  1  0  0  0  0  0  0  0  0  0
    0.0012   -1.1753   -1.9357 O   0  0  0  0  0  0  0  0  0  0  0  0
   -0.5735   -1.2149   -0.6214 C   0  0  1  0  0  0  0  0  0  0  0  0
    0.0703   -0.4386    0.3995 C   0  0  0  0  0  0  0  0  0  0  0  0
    0.6006    0.1881    1.2869 C   0  0  0  0  0  0  0  0  0  0  0  0
    1.1989    0.9025    2.2838 C   0  0  0  0  0  0  0  0  0  0  0  0
    1.7053    1.5130    3.1327 N   0  0  0  0  0  0  0  0  0  0  0  0
   -0.5701    1.4273   -1.4552 H   0  0  0  0  0  0  0  0  0  0  0  0
   -1.3734    1.1524   -3.0139 H   0  0  0  0  0  0  0  0  0  0  0  0
   -2.3400    1.2700   -1.5347 H   0  0  0  0  0  0  0  0  0  0  0  0
   -2.0962   -1.1737   -2.1864 H   0  0  0  0  0  0  0  0  0  0  0  0
   -0.8972   -2.2044   -0.2997 H   0  0  0  0  0  0  0  0  0  0  0  0
  1  2  1  0  0  0  0
  1 11  1  0  0  0  0
  1  9  1  0  0  0  0
  2  4  1  1  0  0  0
  3  2  1  0  0  0  0
  3  4  1  0  0  0  0
  4 13  1  1  0  0  0
  4  5  1  0  0  0  0
  5  6  3  0  0  0  0
  6  7  1  0  0  0  0
  7  8  3  0  0  0  0
 10  1  1  0  0  0  0
 12  2  1  0  0  0  0
M  END
