14
title
C -1.3892344 0.8880299 -1.9458424
C -1.2679194 -0.5978614 -1.7458675
O 0.019635802 -1.182379 -1.9175781
C -0.5527921 -1.2079835 -0.5968345
C 0.08360327 -0.42146483 0.41947502
C 0.60713637 0.21100019 1.3098812
C 1.19677 0.9278175 2.3031402
C 1.7196863 1.5639675 3.1865149
H -0.57843935 1.4177835 -1.441603
H -1.3535944 1.1275651 -3.013414
H -2.3450668 1.2474121 -1.5505997
H -2.0788918 -1.1971445 -2.1653197
H -0.8698348 -2.1997895 -0.2737972
H 2.1806664 2.123836 3.96209
