15
title
C -1.302164 1.0171201 -2.095121
C -1.2231297 -0.48012254 -1.9461778
N 0.082417294 -1.103848 -2.1388783
C -0.53188276 -1.1480863 -0.7855605
C 0.105357334 -0.39986324 0.2543297
C 0.6085289 0.21720305 1.1646447
C 1.2385979 0.974993 2.2114813
O 1.0802851 0.7776805 3.3953335
H -0.40854707 1.4932293 -1.6866196
H -1.3821871 1.2875197 -3.152982
H -2.1799867 1.4124379 -1.5741783
H -2.093255 -1.0262611 -2.30943
H -0.0090514 -2.0193443 -2.5721464
H -0.95974255 -2.09427 -0.46193752
H 1.9043591 1.7825668 1.843929
