title
 OpenBabel02282110003D

 14 14  0  0  1  0  0  0  0  0999 V2000
   -1.3915    0.8991   -1.9590 C   0  0  0  0  0  0  0  0  0  0  0  0
   -1.2750   -0.5934   -1.7902 C   0  0  1  0  0  0  0  0  0  0  0  0
    0.0456   -1.1873   -1.9864 N   0  0  0  0  0  0  0  0  0  0  0  0
   -0.5556   -1.2265   -0.6294 C   0  0  1  0  0  0  0  0  0  0  0  0
    0.0825   -0.4527    0.3921 C   0  0  0  0  0  0  0  0  0  0  0  0
    0.5928    0.1893    1.2809 C   0  0  0  0  0  0  0  0  0  0  0  0
    1.1724    0.9156    2.2797 C   0  0  0  0  0  0  0  0  0  0  0  0
    1.6637    1.5341    3.1321 N   0  0  0  0  0  0  0  0  0  0  0  0
   -0.5048    1.4035   -1.5693 H   0  0  0  0  0  0  0  0  0  0  0  0
   -1.4905    1.1520   -3.0194 H   0  0  0  0  0  0  0  0  0  0  0  0
   -2.2721    1.2811   -1.4331 H   0  0  0  0  0  0  0  0  0  0  0  0
   -2.1334   -1.1672   -2.1382 H   0  0  0  0  0  0  0  0  0  0  0  0
   -0.0225   -2.1111   -2.4060 H   0  0  0  0  0  0  0  0  0  0  0  0
   -0.9520   -2.1773   -0.2795 H   0  0  0  0  0  0  0  0  0  0  0  0
  1  2  1  0  0  0  0
  1  9  1  0  0  0  0
  1 11  1  0  0  0  0
  2  4  1  1  0  0  0
  3  2  1  0  0  0  0
  3  4  1  0  0  0  0
  4 14  1  1  0  0  0
  4  5  1  0  0  0  0
  5  6  3  0  0  0  0
  6  7  1  0  0  0  0
  7  8  3  0  0  0  0
 10  1  1  0  0  0  0
 12  2  1  0  0  0  0
 13  3  1  0  0  0  0
M  END
