title
 OpenBabel02282110003D

 17 17  0  0  1  0  0  0  0  0999 V2000
   -1.4922    1.3804   -1.8057 C   0  0  0  0  0  0  0  0  0  0  0  0
   -0.7779    0.0498   -1.8982 C   0  0  1  0  0  0  0  0  0  0  0  0
    0.6604   -0.0827   -1.4347 C   0  0  0  0  0  0  0  0  0  0  0  0
   -0.4588   -0.7414   -0.6661 C   0  0  1  0  0  0  0  0  0  0  0  0
   -0.8795   -0.1999    0.5597 O   0  0  0  0  0  0  0  0  0  0  0  0
   -0.1667   -0.6729    1.6745 C   0  0  0  0  0  0  0  0  0  0  0  0
    1.1952   -0.1129    1.7951 C   0  0  0  0  0  0  0  0  0  0  0  0
    2.2563    0.3302    1.9066 N   0  0  0  0  0  0  0  0  0  0  0  0
   -1.2096    1.9158   -0.8967 H   0  0  0  0  0  0  0  0  0  0  0  0
   -1.2457    2.0111   -2.6660 H   0  0  0  0  0  0  0  0  0  0  0  0
   -2.5788    1.2448   -1.7874 H   0  0  0  0  0  0  0  0  0  0  0  0
   -1.0535   -0.5522   -2.7600 H   0  0  0  0  0  0  0  0  0  0  0  0
    1.3492   -0.7099   -1.9896 H   0  0  0  0  0  0  0  0  0  0  0  0
    1.1103    0.7934   -0.9814 H   0  0  0  0  0  0  0  0  0  0  0  0
   -0.5475   -1.8276   -0.7046 H   0  0  0  0  0  0  0  0  0  0  0  0
   -0.7370   -0.3811    2.5617 H   0  0  0  0  0  0  0  0  0  0  0  0
   -0.0880   -1.7705    1.6715 H   0  0  0  0  0  0  0  0  0  0  0  0
  1 11  1  0  0  0  0
  1  9  1  0  0  0  0
  2  1  1  0  0  0  0
  2  3  1  0  0  0  0
  2  4  1  1  0  0  0
  3 14  1  0  0  0  0
  3  4  1  0  0  0  0
  4 15  1  6  0  0  0
  4  5  1  0  0  0  0
  5  6  1  0  0  0  0
  6  7  1  0  0  0  0
  6 16  1  0  0  0  0
  7  8  3  0  0  0  0
 10  1  1  0  0  0  0
 12  2  1  0  0  0  0
 13  3  1  0  0  0  0
 17  6  1  0  0  0  0
M  END
