title
 OpenBabel02282110003D

 18 18  0  0  1  0  0  0  0  0999 V2000
   -0.9357    1.4592   -2.2130 C   0  0  0  0  0  0  0  0  0  0  0  0
   -1.0548   -0.0413   -2.0477 C   0  0  1  0  0  0  0  0  0  0  0  0
    0.1822   -0.9116   -1.9576 C   0  0  0  0  0  0  0  0  0  0  0  0
   -0.7377   -0.7434   -0.7564 C   0  0  1  0  0  0  0  0  0  0  0  0
   -0.3651   -0.0097    0.4242 N   0  0  0  0  0  0  0  0  0  0  0  0
    0.6589   -0.6839    1.2151 C   0  0  0  0  0  0  0  0  0  0  0  0
    1.0161    0.1047    2.3974 C   0  0  0  0  0  0  0  0  0  0  0  0
    1.3164    0.7375    3.3158 N   0  0  0  0  0  0  0  0  0  0  0  0
   -0.0357    1.8600   -1.7347 H   0  0  0  0  0  0  0  0  0  0  0  0
   -0.8703    1.7214   -3.2740 H   0  0  0  0  0  0  0  0  0  0  0  0
   -1.8018    1.9812   -1.7920 H   0  0  0  0  0  0  0  0  0  0  0  0
   -1.8913   -0.4695   -2.5935 H   0  0  0  0  0  0  0  0  0  0  0  0
    0.2055   -1.8624   -2.4792 H   0  0  0  0  0  0  0  0  0  0  0  0
    1.1370   -0.3941   -1.9274 H   0  0  0  0  0  0  0  0  0  0  0  0
   -1.3633   -1.6010   -0.5174 H   0  0  0  0  0  0  0  0  0  0  0  0
   -0.0704    0.9331    0.2020 H   0  0  0  0  0  0  0  0  0  0  0  0
    0.2637   -1.6506    1.5518 H   0  0  0  0  0  0  0  0  0  0  0  0
    1.5854   -0.9059    0.6565 H   0  0  0  0  0  0  0  0  0  0  0  0
  1  2  1  0  0  0  0
  1 11  1  0  0  0  0
  1  9  1  0  0  0  0
  2  3  1  0  0  0  0
  2  4  1  1  0  0  0
  3 14  1  0  0  0  0
  3  4  1  0  0  0  0
  4 15  1  1  0  0  0
  4  5  1  0  0  0  0
  5  6  1  0  0  0  0
  6 17  1  0  0  0  0
  6  7  1  0  0  0  0
  7  8  3  0  0  0  0
 10  1  1  0  0  0  0
 12  2  1  0  0  0  0
 13  3  1  0  0  0  0
 16  5  1  0  0  0  0
 18  6  1  0  0  0  0
M  END
