title
 OpenBabel02282110003D

 14 14  0  0  1  0  0  0  0  0999 V2000
    2.3341    0.8415    0.2460 O   0  0  0  0  0  0  0  0  0  0  0  0
    2.2681   -0.5230    0.0176 C   0  0  1  0  0  0  0  0  0  0  0  0
    1.7411   -1.3482    1.1307 C   0  0  0  0  0  0  0  0  0  0  0  0
    0.8936   -1.2013   -0.1405 C   0  0  1  0  0  0  0  0  0  0  0  0
   -0.2815   -0.4015   -0.1278 C   0  0  0  0  0  0  0  0  0  0  0  0
   -1.2826    0.2792   -0.1556 C   0  0  0  0  0  0  0  0  0  0  0  0
   -2.4534    1.1090   -0.1462 C   0  0  0  0  0  0  0  0  0  0  0  0
   -3.4535    0.9037   -0.7985 O   0  0  0  0  0  0  0  0  0  0  0  0
    2.1027    1.3022   -0.5683 H   0  0  0  0  0  0  0  0  0  0  0  0
    3.0597   -0.9399   -0.6046 H   0  0  0  0  0  0  0  0  0  0  0  0
    2.1733   -2.3230    1.3219 H   0  0  0  0  0  0  0  0  0  0  0  0
    1.3919   -0.8078    2.0020 H   0  0  0  0  0  0  0  0  0  0  0  0
    0.8667   -2.0644   -0.7990 H   0  0  0  0  0  0  0  0  0  0  0  0
   -2.3750    1.9878    0.5270 H   0  0  0  0  0  0  0  0  0  0  0  0
  2  4  1  6  0  0  0
  2  1  1  0  0  0  0
  2  3  1  0  0  0  0
  3 11  1  0  0  0  0
  3 12  1  0  0  0  0
  4 13  1  6  0  0  0
  4  5  1  0  0  0  0
  4  3  1  0  0  0  0
  6  7  1  0  0  0  0
  6  5  3  0  0  0  0
  7 14  1  0  0  0  0
  8  7  2  0  0  0  0
  9  1  1  0  0  0  0
 10  2  1  0  0  0  0
M  END
