18
title
C -0.9357305 1.45919 -2.212988
C -1.0547651 -0.04128682 -2.0477304
C 0.18217468 -0.91158205 -1.9575672
C -0.7376818 -0.74335665 -0.7563955
N -0.36506867 -0.009699795 0.4241919
C 0.6588564 -0.68385565 1.2150865
C 1.0161157 0.10468953 2.3974416
N 1.3164248 0.7374914 3.3157985
H -0.03565251 1.8600411 -1.7347319
H -0.87028694 1.7214146 -3.2740052
H -1.8017541 1.9811952 -1.7919693
H -1.8912703 -0.469528 -2.5935097
H 0.20552671 -1.8623838 -2.4792216
H 1.1370192 -0.39412472 -1.9273682
H -1.3633192 -1.600976 -0.5173808
H -0.07042586 0.9331291 0.20195907
H 0.26374984 -1.6505507 1.5517986
H 1.5854437 -0.90589345 0.65646785
