title
 OpenBabel02282110003D

 19 19  0  0  1  0  0  0  0  0999 V2000
   -1.2711    1.2539   -2.2610 C   0  0  0  0  0  0  0  0  0  0  0  0
   -1.2337   -0.2207   -1.9216 C   0  0  1  0  0  0  0  0  0  0  0  0
    0.0485   -0.9807   -1.8870 C   0  0  0  0  0  0  0  0  0  0  0  0
   -0.7073   -0.7430   -0.6585 N   0  0  0  0  0  0  0  0  0  0  0  0
   -0.1369    0.1670    0.3241 C   0  0  0  0  0  0  0  0  0  0  0  0
    0.6423   -0.6479    1.3739 C   0  0  0  0  0  0  0  0  0  0  0  0
    1.2290    0.1920    2.4095 C   0  0  0  0  0  0  0  0  0  0  0  0
    1.7000    0.9110    3.2499 C   0  0  0  0  0  0  0  0  0  0  0  0
   -0.3389    1.7665   -2.0125 H   0  0  0  0  0  0  0  0  0  0  0  0
   -1.4425    1.3814   -3.3351 H   0  0  0  0  0  0  0  0  0  0  0  0
   -2.0884    1.7602   -1.7352 H   0  0  0  0  0  0  0  0  0  0  0  0
   -2.1225   -0.7612   -2.2463 H   0  0  0  0  0  0  0  0  0  0  0  0
    0.1044   -2.0115   -2.2273 H   0  0  0  0  0  0  0  0  0  0  0  0
    0.9618   -0.4040   -2.0371 H   0  0  0  0  0  0  0  0  0  0  0  0
    0.5369    0.9238   -0.1067 H   0  0  0  0  0  0  0  0  0  0  0  0
   -0.9535    0.7031    0.8198 H   0  0  0  0  0  0  0  0  0  0  0  0
   -0.0355   -1.3861    1.8176 H   0  0  0  0  0  0  0  0  0  0  0  0
    1.4304   -1.2200    0.8678 H   0  0  0  0  0  0  0  0  0  0  0  0
    2.1211    1.5334    3.9999 H   0  0  0  0  0  0  0  0  0  0  0  0
  1  9  1  0  0  0  0
  1  2  1  0  0  0  0
  1 11  1  0  0  0  0
  2 12  1  6  0  0  0
  2  3  1  0  0  0  0
  2  4  1  0  0  0  0
  3  4  1  0  0  0  0
  4  5  1  0  0  0  0
  5 16  1  0  0  0  0
  5  6  1  0  0  0  0
  6 17  1  0  0  0  0
  6  7  1  0  0  0  0
  7  8  3  0  0  0  0
  8 19  1  0  0  0  0
 10  1  1  0  0  0  0
 13  3  1  0  0  0  0
 14  3  1  0  0  0  0
 15  5  1  0  0  0  0
 18  6  1  0  0  0  0
M  END
