16
title
O 2.2201977 1.1108752 -0.3863954
C 1.974635 -0.026106123 0.37969637
C 0.8373589 -0.04113122 1.3787196
C 0.7446478 -0.8338414 0.08855156
O -0.0037866333 -0.32201192 -0.9783221
C -1.3818413 -0.67103136 -0.9795926
C -2.1983929 0.05060907 -0.0022434061
C -2.8968573 0.64432675 0.7746432
H 1.5014707 1.1694953 -1.0290769
H 2.8898866 -0.5538927 0.63093585
H 0.95286995 -0.58566743 2.309977
H 0.23751454 0.858937 1.4362527
H 0.7797746 -1.9225549 0.12248953
H -1.7379826 -0.44631287 -1.9905493
H -1.4941176 -1.7547604 -0.8265182
H -3.5092168 1.1660212 1.4682964
