18
title
O 2.2771444 1.4051079 0.019483041
C 2.3222077 0.010234387 -0.07390974
C 1.7157365 -0.830068 1.0228095
C 1.0212958 -0.6963697 -0.32255358
C -0.27389777 0.077433534 -0.43834317
C -1.491736 -0.7597735 0.009137911
C -2.7524495 -0.037383296 -0.10714052
C -3.7780342 0.5810471 -0.212078
H 2.893577 1.6762502 0.70733714
H 3.205696 -0.38067627 -0.57895154
H 2.1854424 -1.7698338 1.2923093
H 1.2737079 -0.28693795 1.8526886
H 1.0864279 -1.5656881 -0.9729912
H -0.21454726 0.98935497 0.16088288
H -0.4245051 0.3994654 -1.4750673
H -1.5433089 -1.6804357 -0.58740854
H -1.3464404 -1.0824021 1.0480554
H -4.6893606 1.1180043 -0.3014535
