title
 OpenBabel02282110003D

 16 16  0  0  1  0  0  0  0  0999 V2000
    2.2202    1.1109   -0.3864 O   0  0  0  0  0  0  0  0  0  0  0  0
    1.9746   -0.0261    0.3797 C   0  0  1  0  0  0  0  0  0  0  0  0
    0.8374   -0.0411    1.3787 C   0  0  0  0  0  0  0  0  0  0  0  0
    0.7446   -0.8338    0.0886 C   0  0  1  0  0  0  0  0  0  0  0  0
   -0.0038   -0.3220   -0.9783 O   0  0  0  0  0  0  0  0  0  0  0  0
   -1.3818   -0.6710   -0.9796 C   0  0  0  0  0  0  0  0  0  0  0  0
   -2.1984    0.0506   -0.0022 C   0  0  0  0  0  0  0  0  0  0  0  0
   -2.8969    0.6443    0.7746 C   0  0  0  0  0  0  0  0  0  0  0  0
    1.5015    1.1695   -1.0291 H   0  0  0  0  0  0  0  0  0  0  0  0
    2.8899   -0.5539    0.6309 H   0  0  0  0  0  0  0  0  0  0  0  0
    0.9529   -0.5857    2.3100 H   0  0  0  0  0  0  0  0  0  0  0  0
    0.2375    0.8589    1.4363 H   0  0  0  0  0  0  0  0  0  0  0  0
    0.7798   -1.9226    0.1225 H   0  0  0  0  0  0  0  0  0  0  0  0
   -1.7380   -0.4463   -1.9905 H   0  0  0  0  0  0  0  0  0  0  0  0
   -1.4941   -1.7548   -0.8265 H   0  0  0  0  0  0  0  0  0  0  0  0
   -3.5092    1.1660    1.4683 H   0  0  0  0  0  0  0  0  0  0  0  0
  1  2  1  0  0  0  0
  2  4  1  6  0  0  0
  2 10  1  0  0  0  0
  2  3  1  0  0  0  0
  3 12  1  0  0  0  0
  3 11  1  0  0  0  0
  4 13  1  1  0  0  0
  4  3  1  0  0  0  0
  5  4  1  0  0  0  0
  6  5  1  0  0  0  0
  6 15  1  0  0  0  0
  6  7  1  0  0  0  0
  7  8  3  0  0  0  0
  8 16  1  0  0  0  0
  9  1  1  0  0  0  0
 14  6  1  0  0  0  0
M  END
