title
 OpenBabel02282110003D

 17 17  0  0  1  0  0  0  0  0999 V2000
    2.2684    1.4305    0.0294 O   0  0  0  0  0  0  0  0  0  0  0  0
    2.3398    0.0378   -0.0608 C   0  0  1  0  0  0  0  0  0  0  0  0
    1.7339   -0.8100    1.0303 C   0  0  0  0  0  0  0  0  0  0  0  0
    1.0512   -0.6871   -0.3224 C   0  0  1  0  0  0  0  0  0  0  0  0
   -0.2477    0.0773   -0.4527 C   0  0  0  0  0  0  0  0  0  0  0  0
   -1.4529   -0.7710    0.0066 C   0  0  0  0  0  0  0  0  0  0  0  0
   -2.7226   -0.0580   -0.1131 C   0  0  0  0  0  0  0  0  0  0  0  0
   -3.7185    0.5198   -0.2133 N   0  0  0  0  0  0  0  0  0  0  0  0
    2.8845    1.7181    0.7110 H   0  0  0  0  0  0  0  0  0  0  0  0
    3.2325   -0.3407   -0.5584 H   0  0  0  0  0  0  0  0  0  0  0  0
    2.2115   -1.7446    1.3031 H   0  0  0  0  0  0  0  0  0  0  0  0
    1.2795   -0.2713    1.8564 H   0  0  0  0  0  0  0  0  0  0  0  0
    1.1315   -1.5551   -0.9725 H   0  0  0  0  0  0  0  0  0  0  0  0
   -0.1971    0.9962    0.1359 H   0  0  0  0  0  0  0  0  0  0  0  0
   -0.4006    0.3832   -1.4935 H   0  0  0  0  0  0  0  0  0  0  0  0
   -1.5172   -1.6931   -0.5831 H   0  0  0  0  0  0  0  0  0  0  0  0
   -1.3200   -1.0768    1.0505 H   0  0  0  0  0  0  0  0  0  0  0  0
  1  9  1  0  0  0  0
  2  4  1  6  0  0  0
  2  1  1  0  0  0  0
  2  3  1  0  0  0  0
  3 11  1  0  0  0  0
  3 12  1  0  0  0  0
  4 13  1  6  0  0  0
  4  3  1  0  0  0  0
  5  4  1  0  0  0  0
  5  6  1  0  0  0  0
  5 14  1  0  0  0  0
  6 17  1  0  0  0  0
  7  6  1  0  0  0  0
  8  7  3  0  0  0  0
 10  2  1  0  0  0  0
 15  5  1  0  0  0  0
 16  6  1  0  0  0  0
M  END
