18
title
C -1.1844001 1.4410264 -2.2595322
C -1.3037196 -0.020074267 -1.9096617
O -0.09236866 -0.77643967 -1.7934213
C -0.90928555 -0.6224359 -0.6239592
C -0.30642694 0.123452164 0.5408617
C 0.82575697 -0.6969237 1.1993636
C 1.4184966 -0.022146381 2.346485
C 1.8879619 0.55824035 3.2886808
H -0.39363152 1.9349679 -1.6922578
H -0.9547437 1.5525069 -3.3243544
H -2.1309872 1.9573557 -2.066199
H -2.085478 -0.5458629 -2.4631858
H -1.4261554 -1.5432754 -0.3390491
H 0.09517795 1.0878013 0.22184622
H -1.0880607 0.32606807 1.2823359
H 0.43682545 -1.675677 1.5097982
H 1.5951867 -0.89854705 0.44461548
H 2.313469 1.0588502 4.122569
