title
 OpenBabel02282110003D

 19 19  0  0  1  0  0  0  0  0999 V2000
   -1.0486    0.8541   -2.0122 C   0  0  0  0  0  0  0  0  0  0  0  0
   -0.7392   -0.5652   -1.9315 N   0  0  0  0  0  0  0  0  0  0  0  0
    0.6269   -0.9728   -2.2366 C   0  0  0  0  0  0  0  0  0  0  0  0
    0.1016   -1.0819   -0.8455 C   0  0  1  0  0  0  0  0  0  0  0  0
    0.6597   -0.2322    0.2773 C   0  0  0  0  0  0  0  0  0  0  0  0
   -0.3531   -0.0457    1.4299 C   0  0  0  0  0  0  0  0  0  0  0  0
    0.1940    0.7145    2.5466 C   0  0  0  0  0  0  0  0  0  0  0  0
    0.6731    1.3447    3.4512 C   0  0  0  0  0  0  0  0  0  0  0  0
   -0.2226    1.5268   -1.7324 H   0  0  0  0  0  0  0  0  0  0  0  0
   -1.3298    1.0883   -3.0441 H   0  0  0  0  0  0  0  0  0  0  0  0
   -1.9080    1.0791   -1.3718 H   0  0  0  0  0  0  0  0  0  0  0  0
    0.7403   -1.8525   -2.8653 H   0  0  0  0  0  0  0  0  0  0  0  0
    1.3609   -0.1876   -2.4213 H   0  0  0  0  0  0  0  0  0  0  0  0
   -0.2252   -2.0682   -0.5128 H   0  0  0  0  0  0  0  0  0  0  0  0
    1.5572   -0.7210    0.6738 H   0  0  0  0  0  0  0  0  0  0  0  0
    0.9810    0.7477   -0.0857 H   0  0  0  0  0  0  0  0  0  0  0  0
   -1.2528    0.4543    1.0505 H   0  0  0  0  0  0  0  0  0  0  0  0
   -0.6831   -1.0313    1.7837 H   0  0  0  0  0  0  0  0  0  0  0  0
    1.0830    1.8992    4.2584 H   0  0  0  0  0  0  0  0  0  0  0  0
  1  2  1  0  0  0  0
  1  9  1  0  0  0  0
  1 11  1  0  0  0  0
  2  4  1  0  0  0  0
  3  2  1  0  0  0  0
  3  4  1  0  0  0  0
  4 14  1  1  0  0  0
  4  5  1  0  0  0  0
  5 15  1  0  0  0  0
  5  6  1  0  0  0  0
  6 18  1  0  0  0  0
  6  7  1  0  0  0  0
  7  8  3  0  0  0  0
  8 19  1  0  0  0  0
 10  1  1  0  0  0  0
 12  3  1  0  0  0  0
 13  3  1  0  0  0  0
 16  5  1  0  0  0  0
 17  6  1  0  0  0  0
M  END
