20
title
C -1.1133835 1.5396045 -2.4469535
C -1.1160885 0.04284055 -2.2218392
C 0.1741067 -0.7398201 -2.1429274
C -0.7009132 -0.60096145 -0.9172734
C -0.23515196 0.18914168 0.28859103
C 0.64546025 -0.65735275 1.22988
C 1.1918727 0.16004054 2.3756158
O 1.0302297 -0.08305504 3.543709
H -0.25357375 2.0260515 -1.9775227
H -1.068826 1.7674224 -3.517609
H -2.0197 2.0075333 -2.0462878
H -1.9328136 -0.4661463 -2.7280903
H 0.24321519 -1.7021502 -2.6382623
H 1.0981151 -0.16786988 -2.159965
H -1.2672901 -1.4904028 -0.6494118
H 0.32999834 1.0723319 -0.03126966
H -1.1018572 0.5633726 0.8485714
H 0.09442173 -1.5098754 1.6377593
H 1.49972 -1.0445895 0.65611947
H 1.7786127 1.055049 2.0556371
