17
title
C -1.0697742 1.5082221 -2.391951
C -1.1701837 0.07791303 -1.915033
N 0.07125328 -0.5887808 -1.4908199
C -0.999934 -0.37095466 -0.50407666
C -0.65611005 0.54682076 0.6396776
O 0.07680986 -0.16777864 1.6466838
C 1.4214531 -0.18722442 1.5296532
O 2.1174767 -0.81795985 2.267443
H -0.31371143 2.0668337 -1.8364766
H -0.78569776 1.5330067 -3.449111
H -2.0312262 2.0228422 -2.2905605
H -1.8705525 -0.52604586 -2.4914699
H 0.093819596 -1.5582386 -1.7931396
H -1.5842156 -1.2371671 -0.19813076
H -0.07365193 1.4052918 0.29134068
H -1.5569727 0.91474134 1.1378349
H 1.7902347 0.4414724 0.69877726
