18
title
C -1.060032 1.5390831 -2.4420557
C -1.2253864 0.082693085 -2.092035
O -0.035583083 -0.69518816 -1.9026837
C -0.9147715 -0.52243793 -0.7848854
C -0.36073202 0.21721092 0.41000578
C 0.71383816 -0.62027705 1.1320848
C 1.3642331 0.14923537 2.2568667
O 1.4013239 -0.20291524 3.4073465
H -0.28954667 2.0225952 -1.838674
H -0.77383864 1.6399672 -3.4940941
H -2.0050747 2.0745778 -2.3004296
H -1.9827524 -0.43214607 -2.6878312
H -1.4632899 -1.4310888 -0.5232358
H 0.0708012 1.173035 0.09787939
H -1.1826519 0.44270235 1.1009114
H 0.29984075 -1.5493085 1.5347025
H 1.492977 -0.8757487 0.4005663
H 1.8256255 1.1153415 1.9402125
