title
 OpenBabel02282110003D

 17 17  0  0  1  0  0  0  0  0999 V2000
   -1.1854    1.3070   -2.5119 C   0  0  0  0  0  0  0  0  0  0  0  0
   -1.4637    0.0396   -1.7446 C   0  0  1  0  0  0  0  0  0  0  0  0
   -0.4229   -0.9438   -1.6795 O   0  0  0  0  0  0  0  0  0  0  0  0
   -0.8598   -0.3331   -0.4546 C   0  0  1  0  0  0  0  0  0  0  0  0
    0.1731    0.4823    0.2852 C   0  0  0  0  0  0  0  0  0  0  0  0
    1.1949   -0.3841    0.8511 N   0  0  0  0  0  0  0  0  0  0  0  0
    1.4807   -0.4282    2.1796 C   0  0  0  0  0  0  0  0  0  0  0  0
    0.9557    0.2562    3.0324 O   0  0  0  0  0  0  0  0  0  0  0  0
   -0.1892    1.7033   -2.3077 H   0  0  0  0  0  0  0  0  0  0  0  0
   -1.2558    1.1136   -3.5873 H   0  0  0  0  0  0  0  0  0  0  0  0
   -1.9265    2.0734   -2.2614 H   0  0  0  0  0  0  0  0  0  0  0  0
   -2.4466   -0.3920   -1.9462 H   0  0  0  0  0  0  0  0  0  0  0  0
   -1.4270   -1.0084    0.1892 H   0  0  0  0  0  0  0  0  0  0  0  0
    0.6334    1.2213   -0.3776 H   0  0  0  0  0  0  0  0  0  0  0  0
   -0.2842    1.0119    1.1252 H   0  0  0  0  0  0  0  0  0  0  0  0
    1.6701   -1.0187    0.2283 H   0  0  0  0  0  0  0  0  0  0  0  0
    2.2686   -1.1743    2.4031 H   0  0  0  0  0  0  0  0  0  0  0  0
  1  9  1  0  0  0  0
  1 11  1  0  0  0  0
  1  2  1  0  0  0  0
  2  3  1  0  0  0  0
  2  4  1  1  0  0  0
  3  4  1  0  0  0  0
  4 13  1  1  0  0  0
  4  5  1  0  0  0  0
  5  6  1  0  0  0  0
  5 15  1  0  0  0  0
  6  7  1  0  0  0  0
  7 17  1  0  0  0  0
  7  8  2  0  0  0  0
 10  1  1  0  0  0  0
 12  2  1  0  0  0  0
 14  5  1  0  0  0  0
 16  6  1  0  0  0  0
M  END
