title
 OpenBabel02282110003D

 18 18  0  0  1  0  0  0  0  0999 V2000
   -1.2401    1.3009   -2.5056 C   0  0  0  0  0  0  0  0  0  0  0  0
   -1.4799    0.0077   -1.7633 C   0  0  1  0  0  0  0  0  0  0  0  0
   -0.3742   -0.9666   -1.7157 N   0  0  0  0  0  0  0  0  0  0  0  0
   -0.8617   -0.3596   -0.4597 C   0  0  1  0  0  0  0  0  0  0  0  0
    0.1400    0.4945    0.2852 C   0  0  0  0  0  0  0  0  0  0  0  0
    1.2121   -0.3261    0.8260 N   0  0  0  0  0  0  0  0  0  0  0  0
    1.5125   -0.3959    2.1482 C   0  0  0  0  0  0  0  0  0  0  0  0
    0.9623    0.2311    3.0299 O   0  0  0  0  0  0  0  0  0  0  0  0
   -0.2091    1.6431   -2.3961 H   0  0  0  0  0  0  0  0  0  0  0  0
   -1.4286    1.1621   -3.5755 H   0  0  0  0  0  0  0  0  0  0  0  0
   -1.9107    2.0885   -2.1455 H   0  0  0  0  0  0  0  0  0  0  0  0
   -2.4766   -0.4052   -1.9175 H   0  0  0  0  0  0  0  0  0  0  0  0
   -0.7267   -1.9144   -1.8139 H   0  0  0  0  0  0  0  0  0  0  0  0
   -1.4583   -0.9959    0.1923 H   0  0  0  0  0  0  0  0  0  0  0  0
    0.5589    1.2600   -0.3753 H   0  0  0  0  0  0  0  0  0  0  0  0
   -0.3285    0.9972    1.1344 H   0  0  0  0  0  0  0  0  0  0  0  0
    1.7093   -0.9169    0.1777 H   0  0  0  0  0  0  0  0  0  0  0  0
    2.3416   -1.1061    2.3408 H   0  0  0  0  0  0  0  0  0  0  0  0
  1  9  1  0  0  0  0
  1 11  1  0  0  0  0
  1  2  1  0  0  0  0
  2  3  1  0  0  0  0
  2  4  1  1  0  0  0
  3  4  1  0  0  0  0
  4 14  1  1  0  0  0
  4  5  1  0  0  0  0
  5  6  1  0  0  0  0
  5 16  1  0  0  0  0
  6  7  1  0  0  0  0
  7 18  1  0  0  0  0
  7  8  2  0  0  0  0
 10  1  1  0  0  0  0
 12  2  1  0  0  0  0
 13  3  1  0  0  0  0
 15  5  1  0  0  0  0
 17  6  1  0  0  0  0
M  END
