18
title
C -1.2291558 1.5451859 -2.3406088
C -1.2092288 0.072030194 -1.9878271
C 0.08642642 -0.65048754 -1.7148346
C -0.9126335 -0.45060104 -0.5976929
C -0.605917 0.46174535 0.5599032
O 0.09062843 -0.2540731 1.5967379
C 1.4248605 -0.11241302 1.6714575
O 2.0996046 -0.7135604 2.452312
H -0.42950982 2.1020095 -1.8435297
H -1.0921766 1.6795591 -3.4188983
H -2.1818223 2.012255 -2.0674486
H -1.9577247 -0.50707716 -2.5225825
H 0.23311238 -1.6501106 -2.1077216
H 0.99069625 -0.04849492 -1.6906981
H -1.473843 -1.3307309 -0.29684287
H -0.010188415 1.3271217 0.24719983
H -1.5202177 0.8338917 1.0309634
H 1.8197885 0.62733954 0.9463306
