title
 OpenBabel02282110003D

 18 18  0  0  1  0  0  0  0  0999 V2000
   -1.1713    1.3237   -1.7303 C   0  0  0  0  0  0  0  0  0  0  0  0
   -0.9972   -0.1643   -1.9386 C   0  0  1  0  0  0  0  0  0  0  0  0
    0.3353   -0.7044   -2.4278 C   0  0  0  0  0  0  0  0  0  0  0  0
   -0.1061   -0.9802   -1.0269 C   0  0  1  0  0  0  0  0  0  0  0  0
    0.6199   -0.3492   -0.0133 O   0  0  0  0  0  0  0  0  0  0  0  0
   -0.0732   -0.2786    1.2120 C   0  0  0  0  0  0  0  0  0  0  0  0
    0.8383    0.3852    2.2289 C   0  0  0  0  0  0  0  0  0  0  0  0
    0.5109    0.6256    3.3601 O   0  0  0  0  0  0  0  0  0  0  0  0
   -0.2824    1.7557   -1.2626 H   0  0  0  0  0  0  0  0  0  0  0  0
   -1.3344    1.8378   -2.6834 H   0  0  0  0  0  0  0  0  0  0  0  0
   -2.0307    1.5409   -1.0863 H   0  0  0  0  0  0  0  0  0  0  0  0
   -1.8802   -0.6822   -2.3045 H   0  0  0  0  0  0  0  0  0  0  0  0
    0.3559   -1.5220   -3.1394 H   0  0  0  0  0  0  0  0  0  0  0  0
    1.1405    0.0145   -2.5384 H   0  0  0  0  0  0  0  0  0  0  0  0
   -0.4240   -1.9916   -0.7695 H   0  0  0  0  0  0  0  0  0  0  0  0
   -1.0060    0.3000    1.1325 H   0  0  0  0  0  0  0  0  0  0  0  0
   -0.3442   -1.2808    1.5845 H   0  0  0  0  0  0  0  0  0  0  0  0
    1.8475    0.6290    1.8296 H   0  0  0  0  0  0  0  0  0  0  0  0
  1  9  1  0  0  0  0
  1 11  1  0  0  0  0
  2  1  1  0  0  0  0
  2  4  1  1  0  0  0
  3  2  1  0  0  0  0
  3  4  1  0  0  0  0
  4 15  1  1  0  0  0
  4  5  1  0  0  0  0
  5  6  1  0  0  0  0
  6 17  1  0  0  0  0
  6  7  1  0  0  0  0
  7  8  2  0  0  0  0
 10  1  1  0  0  0  0
 12  2  1  0  0  0  0
 13  3  1  0  0  0  0
 14  3  1  0  0  0  0
 16  6  1  0  0  0  0
 18  7  1  0  0  0  0
M  END
