title
 OpenBabel02282110003D

 18 18  0  0  1  0  0  0  0  0999 V2000
   -1.0600    1.5391   -2.4421 C   0  0  0  0  0  0  0  0  0  0  0  0
   -1.2254    0.0827   -2.0920 C   0  0  1  0  0  0  0  0  0  0  0  0
   -0.0356   -0.6952   -1.9027 O   0  0  0  0  0  0  0  0  0  0  0  0
   -0.9148   -0.5224   -0.7849 C   0  0  1  0  0  0  0  0  0  0  0  0
   -0.3607    0.2172    0.4100 C   0  0  0  0  0  0  0  0  0  0  0  0
    0.7138   -0.6203    1.1321 C   0  0  0  0  0  0  0  0  0  0  0  0
    1.3642    0.1492    2.2569 C   0  0  0  0  0  0  0  0  0  0  0  0
    1.4013   -0.2029    3.4073 O   0  0  0  0  0  0  0  0  0  0  0  0
   -0.2895    2.0226   -1.8387 H   0  0  0  0  0  0  0  0  0  0  0  0
   -0.7738    1.6400   -3.4941 H   0  0  0  0  0  0  0  0  0  0  0  0
   -2.0051    2.0746   -2.3004 H   0  0  0  0  0  0  0  0  0  0  0  0
   -1.9828   -0.4321   -2.6878 H   0  0  0  0  0  0  0  0  0  0  0  0
   -1.4633   -1.4311   -0.5232 H   0  0  0  0  0  0  0  0  0  0  0  0
    0.0708    1.1730    0.0979 H   0  0  0  0  0  0  0  0  0  0  0  0
   -1.1827    0.4427    1.1009 H   0  0  0  0  0  0  0  0  0  0  0  0
    0.2998   -1.5493    1.5347 H   0  0  0  0  0  0  0  0  0  0  0  0
    1.4930   -0.8757    0.4006 H   0  0  0  0  0  0  0  0  0  0  0  0
    1.8256    1.1153    1.9402 H   0  0  0  0  0  0  0  0  0  0  0  0
  1 11  1  0  0  0  0
  1  2  1  0  0  0  0
  1  9  1  0  0  0  0
  2  3  1  0  0  0  0
  2  4  1  1  0  0  0
  3  4  1  0  0  0  0
  4 13  1  1  0  0  0
  4  5  1  0  0  0  0
  5 15  1  0  0  0  0
  5  6  1  0  0  0  0
  6 16  1  0  0  0  0
  6  7  1  0  0  0  0
  7  8  2  0  0  0  0
 10  1  1  0  0  0  0
 12  2  1  0  0  0  0
 14  5  1  0  0  0  0
 17  6  1  0  0  0  0
 18  7  1  0  0  0  0
M  END
