16
title
O 2.5240445 1.4382766 -0.119385645
C 2.3276253 0.063796215 -0.29097685
C 1.7302278 -0.7500037 0.8245893
C 0.9022857 -0.4081141 -0.40000677
C -0.2212342 0.58517313 -0.27587005
O -1.3484722 0.0013972338 0.40374362
C -2.4298618 -0.3179013 -0.32567826
O -3.3996847 -0.83652675 0.14106768
H 3.2462204 1.5599095 0.50555253
H 3.0561204 -0.42051968 -0.94058555
H 2.0551336 -1.7745621 0.96509534
H 1.4815525 -0.22039339 1.7383447
H 0.7183217 -1.2150152 -1.10361
H 0.090612054 1.4466565 0.31568503
H -0.5366293 0.947339 -1.2626257
H -2.3239653 -0.04172307 -1.3943701
