17
title
O 2.3976896 1.3770604 0.31401953
C 2.273233 0.056653783 -0.12946284
C 1.777489 -1.0026625 0.8237277
C 0.87982506 -0.47528103 -0.28625488
C -0.31489116 0.3902728 0.050769888
N -1.4577025 -0.4023816 0.48533505
C -2.6496696 -0.4201575 -0.16712163
O -2.927114 0.23539439 -1.1495233
H 3.1699727 1.4272116 0.88668287
H 3.004755 -0.24124186 -0.8802757
H 2.1755261 -2.0089543 0.7529215
H 1.5583899 -0.66794056 1.8335204
H 0.7197303 -1.1424378 -1.1283523
H -0.040346205 1.1178782 0.8205522
H -0.65209943 0.9477747 -0.8258953
H -1.3373433 -1.0248002 1.2688651
H -3.3656054 -1.1172599 0.31367603
