title
 OpenBabel02282110003D

 19 19  0  0  1  0  0  0  0  0999 V2000
   -0.1827    3.2190    1.5409 C   0  0  0  0  0  0  0  0  0  0  0  0
   -0.7565    2.0442    0.9196 N   0  0  0  0  0  0  0  0  0  0  0  0
    0.0263    1.2746    0.3079 C   0  0  0  0  0  0  0  0  0  0  0  0
   -0.4416    0.1550   -0.2912 O   0  0  0  0  0  0  0  0  0  0  0  0
    0.5075   -0.5955   -1.0094 C   0  0  1  0  0  0  0  0  0  0  0  0
    1.4580   -1.4928   -0.2567 C   0  0  0  0  0  0  0  0  0  0  0  0
    0.3015   -2.0798   -1.0429 C   0  0  1  0  0  0  0  0  0  0  0  0
   -0.8679   -2.7192   -0.3273 C   0  0  0  0  0  0  0  0  0  0  0  0
    0.9071    3.3144    1.4027 H   0  0  0  0  0  0  0  0  0  0  0  0
   -0.6601    4.1190    1.1365 H   0  0  0  0  0  0  0  0  0  0  0  0
   -0.3919    3.2060    2.6168 H   0  0  0  0  0  0  0  0  0  0  0  0
    1.1121    1.4206    0.2052 H   0  0  0  0  0  0  0  0  0  0  0  0
    0.8582   -0.0971   -1.9105 H   0  0  0  0  0  0  0  0  0  0  0  0
    2.4715   -1.6059   -0.6257 H   0  0  0  0  0  0  0  0  0  0  0  0
    1.3640   -1.4979    0.8244 H   0  0  0  0  0  0  0  0  0  0  0  0
    0.5664   -2.5486   -1.9868 H   0  0  0  0  0  0  0  0  0  0  0  0
   -1.1268   -2.1647    0.5773 H   0  0  0  0  0  0  0  0  0  0  0  0
   -1.7559   -2.7394   -0.9675 H   0  0  0  0  0  0  0  0  0  0  0  0
   -0.6313   -3.7503   -0.0448 H   0  0  0  0  0  0  0  0  0  0  0  0
  1 11  1  0  0  0  0
  2  1  1  0  0  0  0
  3  2  2  0  0  0  0
  4  3  1  0  0  0  0
  5  7  1  6  0  0  0
  5  4  1  0  0  0  0
  5  6  1  0  0  0  0
  6 15  1  0  0  0  0
  7 16  1  6  0  0  0
  7  8  1  0  0  0  0
  7  6  1  0  0  0  0
  8 19  1  0  0  0  0
  8 17  1  0  0  0  0
  9  1  1  0  0  0  0
 10  1  1  0  0  0  0
 12  3  1  0  0  0  0
 13  5  1  0  0  0  0
 14  6  1  0  0  0  0
 18  8  1  0  0  0  0
M  END
