18
title
O 2.3443327 1.4513123 0.30256763
C 2.42526 0.075750634 0.06267353
C 1.7403946 -0.886654 1.0015206
C 1.1636628 -0.61047673 -0.37599802
C -0.12790073 0.16580202 -0.5214894
C -1.3724686 -0.71336323 -0.29418457
C -2.6522028 0.048161283 -0.5470194
O -3.555607 0.16943812 0.23973538
H 2.8891804 1.6518607 1.0704277
H 3.356775 -0.24847762 -0.40149286
H 2.2017245 -1.8471752 1.2035736
H 1.2180443 -0.4461052 1.8452713
H 1.2959629 -1.4014249 -1.110573
H -0.12808456 1.002916 0.18250816
H -0.17382802 0.60993874 -1.5247197
H -1.3490504 -1.558593 -0.9984201
H -1.3978604 -1.1202914 0.72047645
H -2.7092035 0.5201513 -1.5574094
