19
title
C -0.1826797 3.219034 1.5409311
N -0.7565116 2.0441682 0.91960746
C 0.026266653 1.274607 0.30793083
O -0.44155243 0.15502223 -0.2912289
C 0.50751746 -0.5954667 -1.0094358
C 1.4579703 -1.492846 -0.25673664
C 0.3014768 -2.0797584 -1.0429469
C -0.8678881 -2.7192323 -0.32727396
H 0.9071074 3.3144376 1.4026873
H -0.6601096 4.1189637 1.1365337
H -0.3918687 3.205952 2.6167996
H 1.1121418 1.4206266 0.20524873
H 0.858218 -0.097070485 -1.9104606
H 2.471473 -1.6059327 -0.6257231
H 1.3640245 -1.4978528 0.8244034
H 0.5664348 -2.548629 -1.9868301
H -1.1267513 -2.1646502 0.57727957
H -1.7558692 -2.7394135 -0.9674889
H -0.63128394 -3.750261 -0.04480349
