title
 OpenBabel02282110003D

 17 17  0  0  1  0  0  0  0  0999 V2000
   -1.0553    3.0588    1.1409 C   0  0  0  0  0  0  0  0  0  0  0  0
   -0.2741    1.8497    1.3013 N   0  0  0  0  0  0  0  0  0  0  0  0
   -0.0006    1.1954    0.2661 C   0  0  0  0  0  0  0  0  0  0  0  0
    0.7437    0.0600    0.3539 O   0  0  0  0  0  0  0  0  0  0  0  0
    0.9333   -0.6282   -0.8628 C   0  0  1  0  0  0  0  0  0  0  0  0
    1.2632   -2.0889   -0.7028 C   0  0  0  0  0  0  0  0  0  0  0  0
   -0.1081   -1.6718   -1.1839 C   0  0  1  0  0  0  0  0  0  0  0  0
   -1.2300   -1.7890   -0.3690 O   0  0  0  0  0  0  0  0  0  0  0  0
   -0.4923    3.9127    1.5342 H   0  0  0  0  0  0  0  0  0  0  0  0
   -1.3342    3.2780    0.0975 H   0  0  0  0  0  0  0  0  0  0  0  0
   -1.9733    2.9830    1.7342 H   0  0  0  0  0  0  0  0  0  0  0  0
   -0.3072    1.4547   -0.7577 H   0  0  0  0  0  0  0  0  0  0  0  0
    1.4120   -0.0402   -1.6418 H   0  0  0  0  0  0  0  0  0  0  0  0
    1.9607   -2.5388   -1.4004 H   0  0  0  0  0  0  0  0  0  0  0  0
    1.3382   -2.4494    0.3179 H   0  0  0  0  0  0  0  0  0  0  0  0
   -0.3694   -1.8464   -2.2222 H   0  0  0  0  0  0  0  0  0  0  0  0
   -1.0103   -1.4100    0.4911 H   0  0  0  0  0  0  0  0  0  0  0  0
  1  2  1  0  0  0  0
  1  9  1  0  0  0  0
  1 11  1  0  0  0  0
  3  4  1  0  0  0  0
  3  2  2  0  0  0  0
  5  7  1  6  0  0  0
  5  6  1  0  0  0  0
  5  4  1  0  0  0  0
  6 15  1  0  0  0  0
  7 16  1  6  0  0  0
  7  6  1  0  0  0  0
  7  8  1  0  0  0  0
  8 17  1  0  0  0  0
 10  1  1  0  0  0  0
 12  3  1  0  0  0  0
 13  5  1  0  0  0  0
 14  6  1  0  0  0  0
M  END
