title
 OpenBabel02282110003D

 16 16  0  0  1  0  0  0  0  0999 V2000
    1.9245    1.1672   -0.2106 O   0  0  0  0  0  0  0  0  0  0  0  0
    2.1170   -0.1805    0.0933 C   0  0  1  0  0  0  0  0  0  0  0  0
    1.9427   -0.6808    1.5111 C   0  0  0  0  0  0  0  0  0  0  0  0
    0.9151   -1.0148    0.4624 C   0  0  1  0  0  0  0  0  0  0  0  0
   -0.2967   -0.3172    0.5673 O   0  0  0  0  0  0  0  0  0  0  0  0
   -1.0260   -0.3003   -0.6476 C   0  0  0  0  0  0  0  0  0  0  0  0
   -2.3322    0.4331   -0.3991 C   0  0  0  0  0  0  0  0  0  0  0  0
   -3.1456    0.6490   -1.2565 O   0  0  0  0  0  0  0  0  0  0  0  0
    1.0855    1.4250    0.1916 H   0  0  0  0  0  0  0  0  0  0  0  0
    2.8991   -0.6081   -0.5243 H   0  0  0  0  0  0  0  0  0  0  0  0
    2.5793   -1.4773    1.8802 H   0  0  0  0  0  0  0  0  0  0  0  0
    1.6488    0.0522    2.2556 H   0  0  0  0  0  0  0  0  0  0  0  0
    0.8132   -2.0404    0.1085 H   0  0  0  0  0  0  0  0  0  0  0  0
   -0.4695    0.1988   -1.4537 H   0  0  0  0  0  0  0  0  0  0  0  0
   -1.2566   -1.3222   -0.9890 H   0  0  0  0  0  0  0  0  0  0  0  0
   -2.4725    0.7515    0.6577 H   0  0  0  0  0  0  0  0  0  0  0  0
  1  2  1  0  0  0  0
  1  9  1  0  0  0  0
  2  4  1  6  0  0  0
  2  3  1  0  0  0  0
  3 11  1  0  0  0  0
  3 12  1  0  0  0  0
  4 13  1  6  0  0  0
  4  5  1  0  0  0  0
  4  3  1  0  0  0  0
  6  7  1  0  0  0  0
  6  5  1  0  0  0  0
  7 16  1  0  0  0  0
  8  7  2  0  0  0  0
 10  2  1  0  0  0  0
 14  6  1  0  0  0  0
 15  6  1  0  0  0  0
M  END
