title
 OpenBabel02282110003D

 16 16  0  0  1  0  0  0  0  0999 V2000
   -1.6770    0.7377   -1.6870 C   0  0  0  0  0  0  0  0  0  0  0  0
   -1.2033   -0.6832   -1.8328 C   0  0  1  0  0  0  0  0  0  0  0  0
    0.1485   -0.8871   -2.2324 O   0  0  0  0  0  0  0  0  0  0  0  0
   -0.2283   -1.3124   -0.9091 C   0  0  1  0  0  0  0  0  0  0  0  0
    0.3394   -0.6089    0.2079 C   0  0  0  0  0  0  0  0  0  0  0  0
    0.8247   -0.0442    1.1563 C   0  0  0  0  0  0  0  0  0  0  0  0
    1.3653    0.6521    2.3229 C   0  0  0  0  0  0  0  0  0  0  0  0
    0.5407    1.7119    2.7864 O   0  0  0  0  0  0  0  0  0  0  0  0
   -0.9558    1.3339   -1.1244 H   0  0  0  0  0  0  0  0  0  0  0  0
   -1.8144    1.1917   -2.6737 H   0  0  0  0  0  0  0  0  0  0  0  0
   -2.6404    0.7651   -1.1668 H   0  0  0  0  0  0  0  0  0  0  0  0
   -1.9083   -1.3655   -2.3132 H   0  0  0  0  0  0  0  0  0  0  0  0
   -0.2717   -2.3958   -0.7965 H   0  0  0  0  0  0  0  0  0  0  0  0
    1.5658   -0.0812    3.1204 H   0  0  0  0  0  0  0  0  0  0  0  0
    2.3269    1.1119    2.0692 H   0  0  0  0  0  0  0  0  0  0  0  0
   -0.3399    1.3506    2.9315 H   0  0  0  0  0  0  0  0  0  0  0  0
  1 11  1  0  0  0  0
  1  9  1  0  0  0  0
  2  1  1  0  0  0  0
  2  4  1  1  0  0  0
  3  2  1  0  0  0  0
  3  4  1  0  0  0  0
  4 13  1  1  0  0  0
  4  5  1  0  0  0  0
  5  6  3  0  0  0  0
  6  7  1  0  0  0  0
  7  8  1  0  0  0  0
  7 14  1  0  0  0  0
  8 16  1  0  0  0  0
 10  1  1  0  0  0  0
 12  2  1  0  0  0  0
 15  7  1  0  0  0  0
M  END
