17
title
C -1.3402294 0.53215414 -1.9437464
N -1.0228754 -0.8897807 -1.8958013
C 0.34288907 -1.2711486 -2.1945295
C -0.17667495 -1.378355 -0.78805095
C 0.32534373 -0.50059354 0.23214811
C 0.7255707 0.22343953 1.1107812
C 1.175871 1.0786983 2.2072275
O 0.11491097 1.6987655 2.9217088
H -0.5183277 1.1842766 -1.6144117
H -1.6025194 0.78980774 -2.9743338
H -2.2086732 0.72800463 -1.308019
H 0.47429538 -2.1730206 -2.7867763
H 1.0701383 -0.48264864 -2.3813565
H -0.4743752 -2.3630016 -0.43417126
H 1.822107 0.49077997 2.8790843
H 1.7904204 1.8989339 1.8195784
H -0.5076947 1.0069733 3.168709
