title
 OpenBabel02282110003D

 18 18  0  0  1  0  0  0  0  0999 V2000
   -1.3103    2.8882    2.0355 C   0  0  0  0  0  0  0  0  0  0  0  0
   -1.3030    1.3485    2.0222 C   0  0  0  0  0  0  0  0  0  0  0  0
   -0.6557    0.7883    0.8412 C   0  0  0  0  0  0  0  0  0  0  0  0
   -0.1091    0.3447   -0.1375 C   0  0  0  0  0  0  0  0  0  0  0  0
    0.5252   -0.1530   -1.3277 C   0  0  1  0  0  0  0  0  0  0  0  0
    1.8033   -0.8050   -1.1887 O   0  0  0  0  0  0  0  0  0  0  0  0
    0.6945   -1.5989   -1.6041 C   0  0  1  0  0  0  0  0  0  0  0  0
    0.2225   -2.6753   -0.6643 C   0  0  0  0  0  0  0  0  0  0  0  0
   -0.2905    3.2812    2.0135 H   0  0  0  0  0  0  0  0  0  0  0  0
   -1.8427    3.2819    1.1655 H   0  0  0  0  0  0  0  0  0  0  0  0
   -1.8044    3.2581    2.9387 H   0  0  0  0  0  0  0  0  0  0  0  0
   -0.7942    0.9754    2.9202 H   0  0  0  0  0  0  0  0  0  0  0  0
   -2.3334    0.9749    2.0838 H   0  0  0  0  0  0  0  0  0  0  0  0
    0.4727    0.5153   -2.1877 H   0  0  0  0  0  0  0  0  0  0  0  0
    0.7312   -1.8822   -2.6586 H   0  0  0  0  0  0  0  0  0  0  0  0
    0.1318   -2.2896    0.3531 H   0  0  0  0  0  0  0  0  0  0  0  0
   -0.7528   -3.0572   -0.9843 H   0  0  0  0  0  0  0  0  0  0  0  0
    0.9284   -3.5122   -0.6619 H   0  0  0  0  0  0  0  0  0  0  0  0
  1 11  1  0  0  0  0
  2  1  1  0  0  0  0
  2 13  1  0  0  0  0
  2 12  1  0  0  0  0
  3  2  1  0  0  0  0
  4  3  3  0  0  0  0
  5  7  1  6  0  0  0
  5  6  1  0  0  0  0
  5  4  1  0  0  0  0
  7 15  1  6  0  0  0
  7  6  1  0  0  0  0
  7  8  1  0  0  0  0
  8 18  1  0  0  0  0
  8 16  1  0  0  0  0
  9  1  1  0  0  0  0
 10  1  1  0  0  0  0
 14  5  1  0  0  0  0
 17  8  1  0  0  0  0
M  END
