title
 OpenBabel02282110003D

 18 18  0  0  1  0  0  0  0  0999 V2000
   -1.4819    0.8275   -1.8121 C   0  0  0  0  0  0  0  0  0  0  0  0
   -1.1727   -0.6472   -1.9159 C   0  0  1  0  0  0  0  0  0  0  0  0
    0.1933   -1.1281   -2.3027 C   0  0  0  0  0  0  0  0  0  0  0  0
   -0.2987   -1.3488   -0.8755 C   0  0  1  0  0  0  0  0  0  0  0  0
    0.2874   -0.6206    0.2098 C   0  0  0  0  0  0  0  0  0  0  0  0
    0.7859   -0.0095    1.1237 C   0  0  0  0  0  0  0  0  0  0  0  0
    1.3357    0.7234    2.2616 C   0  0  0  0  0  0  0  0  0  0  0  0
    0.4224    1.6466    2.8439 O   0  0  0  0  0  0  0  0  0  0  0  0
   -0.6345    1.3802   -1.3979 H   0  0  0  0  0  0  0  0  0  0  0  0
   -1.7136    1.2450   -2.7979 H   0  0  0  0  0  0  0  0  0  0  0  0
   -2.3435    1.0063   -1.1601 H   0  0  0  0  0  0  0  0  0  0  0  0
   -1.9998   -1.2584   -2.2677 H   0  0  0  0  0  0  0  0  0  0  0  0
    0.2890   -2.0025   -2.9368 H   0  0  0  0  0  0  0  0  0  0  0  0
    0.9706   -0.3839   -2.4359 H   0  0  0  0  0  0  0  0  0  0  0  0
   -0.5906   -2.3671   -0.6340 H   0  0  0  0  0  0  0  0  0  0  0  0
    1.7056    0.0040    3.0103 H   0  0  0  0  0  0  0  0  0  0  0  0
    2.1995    1.3212    1.9489 H   0  0  0  0  0  0  0  0  0  0  0  0
   -0.4046    1.1747    2.9872 H   0  0  0  0  0  0  0  0  0  0  0  0
  1  9  1  0  0  0  0
  1 11  1  0  0  0  0
  2  1  1  0  0  0  0
  2  4  1  1  0  0  0
  3  2  1  0  0  0  0
  3  4  1  0  0  0  0
  4 15  1  1  0  0  0
  4  5  1  0  0  0  0
  5  6  3  0  0  0  0
  6  7  1  0  0  0  0
  7  8  1  0  0  0  0
  7 16  1  0  0  0  0
  8 18  1  0  0  0  0
 10  1  1  0  0  0  0
 12  2  1  0  0  0  0
 13  3  1  0  0  0  0
 14  3  1  0  0  0  0
 17  7  1  0  0  0  0
M  END
