16
title
C -1.6769747 0.73767716 -1.687039
C -1.2033362 -0.68321556 -1.8328253
O 0.14854613 -0.88713783 -2.232415
C -0.22828707 -1.3123921 -0.90908617
C 0.33940628 -0.6088771 0.20789596
C 0.82465476 -0.044193044 1.1563361
C 1.3652631 0.65205556 2.3228936
O 0.5407409 1.7118814 2.7863903
H -0.9558197 1.3338606 -1.1243783
H -1.8144366 1.1917487 -2.6736681
H -2.6404243 0.7651085 -1.1668471
H -1.9082854 -1.3654519 -2.3131547
H -0.2717009 -2.3957655 -0.7964595
H 1.5658199 -0.0811822 3.1204114
H 2.3268528 1.1119225 2.0692108
H -0.33994392 1.3505878 2.9315205
