title
 OpenBabel02282110003D

 17 17  0  0  1  0  0  0  0  0999 V2000
   -1.3402    0.5322   -1.9437 C   0  0  0  0  0  0  0  0  0  0  0  0
   -1.0229   -0.8898   -1.8958 N   0  0  0  0  0  0  0  0  0  0  0  0
    0.3429   -1.2711   -2.1945 C   0  0  0  0  0  0  0  0  0  0  0  0
   -0.1767   -1.3784   -0.7881 C   0  0  1  0  0  0  0  0  0  0  0  0
    0.3253   -0.5006    0.2321 C   0  0  0  0  0  0  0  0  0  0  0  0
    0.7256    0.2234    1.1108 C   0  0  0  0  0  0  0  0  0  0  0  0
    1.1759    1.0787    2.2072 C   0  0  0  0  0  0  0  0  0  0  0  0
    0.1149    1.6988    2.9217 O   0  0  0  0  0  0  0  0  0  0  0  0
   -0.5183    1.1843   -1.6144 H   0  0  0  0  0  0  0  0  0  0  0  0
   -1.6025    0.7898   -2.9743 H   0  0  0  0  0  0  0  0  0  0  0  0
   -2.2087    0.7280   -1.3080 H   0  0  0  0  0  0  0  0  0  0  0  0
    0.4743   -2.1730   -2.7868 H   0  0  0  0  0  0  0  0  0  0  0  0
    1.0701   -0.4826   -2.3814 H   0  0  0  0  0  0  0  0  0  0  0  0
   -0.4744   -2.3630   -0.4342 H   0  0  0  0  0  0  0  0  0  0  0  0
    1.8221    0.4908    2.8791 H   0  0  0  0  0  0  0  0  0  0  0  0
    1.7904    1.8989    1.8196 H   0  0  0  0  0  0  0  0  0  0  0  0
   -0.5077    1.0070    3.1687 H   0  0  0  0  0  0  0  0  0  0  0  0
  1  2  1  0  0  0  0
  1  9  1  0  0  0  0
  1 11  1  0  0  0  0
  2  4  1  0  0  0  0
  3  2  1  0  0  0  0
  3  4  1  0  0  0  0
  4 14  1  1  0  0  0
  4  5  1  0  0  0  0
  5  6  3  0  0  0  0
  6  7  1  0  0  0  0
  7 15  1  0  0  0  0
  7  8  1  0  0  0  0
  8 17  1  0  0  0  0
 10  1  1  0  0  0  0
 12  3  1  0  0  0  0
 13  3  1  0  0  0  0
 16  7  1  0  0  0  0
M  END
