18
title
C -1.310335 2.8881812 2.0354714
C -1.3030494 1.348492 2.022211
C -0.6557435 0.7882573 0.8411636
C -0.10907604 0.34472817 -0.13747828
C 0.5251788 -0.15296263 -1.3276802
O 1.8033307 -0.80497915 -1.1887249
C 0.6945081 -1.5989032 -1.6041034
C 0.2225226 -2.6752527 -0.6643085
H -0.29050827 3.2812471 2.0135152
H -1.8426782 3.2819352 1.1654696
H -1.8043816 3.2580569 2.938721
H -0.7941588 0.9753523 2.9201977
H -2.3334248 0.97489154 2.083821
H 0.47270513 0.5153469 -2.187682
H 0.73122835 -1.8821974 -2.6585553
H 0.13184105 -2.2895668 0.3531415
H -0.75284654 -3.0572126 -0.9843144
H 0.9283986 -3.5122044 -0.6618907
