17
title
C -1.5568285 0.80873716 -1.792366
C -1.2044748 -0.6546587 -1.8673248
N 0.16716528 -0.99017566 -2.2553475
C -0.2890765 -1.318256 -0.8788521
C 0.31627274 -0.6082392 0.21282002
C 0.81274796 -0.024727412 1.144012
C 1.3699694 0.68575203 2.2932315
O 0.49848473 1.6719596 2.8318157
H -0.73384583 1.3801227 -1.3583648
H -1.7618424 1.2037754 -2.7928321
H -2.4496233 0.9609474 -1.176711
H -1.9967778 -1.299644 -2.246747
H 0.18723583 -1.842017 -2.8104389
H -0.5029891 -2.3651676 -0.6716702
H 1.6690991 -0.045769818 3.0613642
H 2.279205 1.2219099 1.9990797
H -0.35514212 1.250761 2.9764447
