title
 OpenBabel02282110003D

 22 22  0  0  1  0  0  0  0  0999 V2000
    1.6427    3.5387   -0.3435 C   0  0  0  0  0  0  0  0  0  0  0  0
    1.6863    2.0832    0.1294 C   0  0  0  0  0  0  0  0  0  0  0  0
    0.3176    1.3967    0.0872 C   0  0  0  0  0  0  0  0  0  0  0  0
    0.3550   -0.0634    0.5607 C   0  0  0  0  0  0  0  0  0  0  0  0
   -1.0090   -0.7085    0.5148 C   0  0  1  0  0  0  0  0  0  0  0  0
   -1.5297   -1.0589   -0.7759 O   0  0  0  0  0  0  0  0  0  0  0  0
   -1.2834   -2.1126    0.1630 C   0  0  1  0  0  0  0  0  0  0  0  0
   -0.2411   -3.1399   -0.1979 C   0  0  0  0  0  0  0  0  0  0  0  0
    2.6343    4.0008   -0.3086 H   0  0  0  0  0  0  0  0  0  0  0  0
    1.2785    3.6083   -1.3745 H   0  0  0  0  0  0  0  0  0  0  0  0
    0.9735    4.1389    0.2831 H   0  0  0  0  0  0  0  0  0  0  0  0
    2.3939    1.5176   -0.4914 H   0  0  0  0  0  0  0  0  0  0  0  0
    2.0824    2.0412    1.1531 H   0  0  0  0  0  0  0  0  0  0  0  0
   -0.3928    1.9621    0.7065 H   0  0  0  0  0  0  0  0  0  0  0  0
   -0.0794    1.4247   -0.9353 H   0  0  0  0  0  0  0  0  0  0  0  0
    1.0604   -0.6280   -0.0571 H   0  0  0  0  0  0  0  0  0  0  0  0
    0.7282   -0.1081    1.5935 H   0  0  0  0  0  0  0  0  0  0  0  0
   -1.7484   -0.2173    1.1541 H   0  0  0  0  0  0  0  0  0  0  0  0
   -2.1997   -2.5408    0.5775 H   0  0  0  0  0  0  0  0  0  0  0  0
    0.6614   -2.6817   -0.6065 H   0  0  0  0  0  0  0  0  0  0  0  0
    0.0332   -3.7302    0.6833 H   0  0  0  0  0  0  0  0  0  0  0  0
   -0.6387   -3.8294   -0.9502 H   0  0  0  0  0  0  0  0  0  0  0  0
  1  9  1  0  0  0  0
  1  2  1  0  0  0  0
  1 11  1  0  0  0  0
  2 13  1  0  0  0  0
  3  2  1  0  0  0  0
  3  4  1  0  0  0  0
  3 14  1  0  0  0  0
  4 17  1  0  0  0  0
  5  7  1  1  0  0  0
  5  4  1  0  0  0  0
  5 18  1  0  0  0  0
  6  7  1  0  0  0  0
  6  5  1  0  0  0  0
  7 19  1  1  0  0  0
  8  7  1  0  0  0  0
  8 21  1  0  0  0  0
 10  1  1  0  0  0  0
 12  2  1  0  0  0  0
 15  3  1  0  0  0  0
 16  4  1  0  0  0  0
 20  8  1  0  0  0  0
 22  8  1  0  0  0  0
M  END
