title
 OpenBabel02282110003D

 17 17  0  0  1  0  0  0  0  0999 V2000
   -0.2624    3.1628    1.7214 C   0  0  0  0  0  0  0  0  0  0  0  0
   -0.5941    1.8088    1.4338 O   0  0  0  0  0  0  0  0  0  0  0  0
    0.1997    1.1925    0.5398 C   0  0  0  0  0  0  0  0  0  0  0  0
   -0.0240   -0.0010    0.2030 N   0  0  0  0  0  0  0  0  0  0  0  0
    0.8150   -0.6213   -0.7605 C   0  0  1  0  0  0  0  0  0  0  0  0
    1.1937   -2.0773   -0.5012 C   0  0  0  0  0  0  0  0  0  0  0  0
    0.1408   -1.7439   -1.5230 C   0  0  1  0  0  0  0  0  0  0  0  0
   -1.2003   -2.0048   -1.2686 O   0  0  0  0  0  0  0  0  0  0  0  0
    0.7540    3.2499    2.1238 H   0  0  0  0  0  0  0  0  0  0  0  0
   -0.3559    3.7959    0.8309 H   0  0  0  0  0  0  0  0  0  0  0  0
   -0.9749    3.4991    2.4751 H   0  0  0  0  0  0  0  0  0  0  0  0
    1.0269    1.8055    0.1535 H   0  0  0  0  0  0  0  0  0  0  0  0
    1.5407    0.0074   -1.2788 H   0  0  0  0  0  0  0  0  0  0  0  0
    2.1710   -2.4100   -0.8344 H   0  0  0  0  0  0  0  0  0  0  0  0
    0.8506   -2.5019    0.4354 H   0  0  0  0  0  0  0  0  0  0  0  0
    0.3866   -1.8655   -2.5738 H   0  0  0  0  0  0  0  0  0  0  0  0
   -1.4496   -1.4169   -0.5399 H   0  0  0  0  0  0  0  0  0  0  0  0
  1  9  1  0  0  0  0
  1 11  1  0  0  0  0
  2  1  1  0  0  0  0
  3  2  1  0  0  0  0
  4  3  2  0  0  0  0
  5  7  1  6  0  0  0
  5  6  1  0  0  0  0
  5  4  1  0  0  0  0
  6 15  1  0  0  0  0
  7 16  1  6  0  0  0
  7  8  1  0  0  0  0
  7  6  1  0  0  0  0
  8 17  1  0  0  0  0
 10  1  1  0  0  0  0
 12  3  1  0  0  0  0
 13  5  1  0  0  0  0
 14  6  1  0  0  0  0
M  END
