22
title
C -1.0837607 3.5334463 -1.381533
C -0.6988921 2.0620773 -1.5576211
C -0.10586491 1.4369893 -0.29043347
C 0.28005657 -0.037044674 -0.4654227
C 0.877577 -0.6466426 0.78588146
C -0.0237436 -1.1600586 1.8959403
C 0.7822793 -2.1200259 1.0552797
O 0.1380296 -2.9026377 0.089769915
H -0.21318915 4.1400747 -1.1075782
H -1.5038573 3.9516065 -2.3018177
H -1.8309844 3.6551347 -0.5891941
H -1.581661 1.4856142 -1.8649552
H 0.023132414 1.9677179 -2.3797145
H 0.77804583 2.0132134 0.0180064
H -0.82616 1.5275246 0.53407115
H -0.59592867 -0.6213624 -0.76604
H 1.0001811 -0.12879077 -1.2900715
H 1.8036563 -0.17943993 1.1135476
H 0.25493142 -1.0002784 2.932055
H -1.0919491 -1.1340371 1.7027009
H 1.6421618 -2.6002753 1.5230434
H -0.3786757 -3.5720847 0.54957074
