title
 OpenBabel02282110003D

 21 21  0  0  1  0  0  0  0  0999 V2000
   -1.2164    1.4175   -2.5347 C   0  0  0  0  0  0  0  0  0  0  0  0
   -1.2541   -0.0488   -2.1600 C   0  0  1  0  0  0  0  0  0  0  0  0
   -0.0041   -0.8524   -2.0332 C   0  0  0  0  0  0  0  0  0  0  0  0
   -0.8223   -0.5636   -0.8590 N   0  0  0  0  0  0  0  0  0  0  0  0
   -0.2759    0.3412    0.1458 C   0  0  0  0  0  0  0  0  0  0  0  0
    0.4654   -0.4577    1.2184 C   0  0  0  0  0  0  0  0  0  0  0  0
    1.0191    0.4214    2.3312 C   0  0  0  0  0  0  0  0  0  0  0  0
    1.7020   -0.4177    3.2510 O   0  0  0  0  0  0  0  0  0  0  0  0
   -0.2805    1.9017   -2.2464 H   0  0  0  0  0  0  0  0  0  0  0  0
   -1.3221    1.5244   -3.6195 H   0  0  0  0  0  0  0  0  0  0  0  0
   -2.0419    1.9674   -2.0686 H   0  0  0  0  0  0  0  0  0  0  0  0
   -2.1413   -0.5640   -2.5277 H   0  0  0  0  0  0  0  0  0  0  0  0
    0.0365   -1.8915   -2.3504 H   0  0  0  0  0  0  0  0  0  0  0  0
    0.9368   -0.3110   -2.1403 H   0  0  0  0  0  0  0  0  0  0  0  0
    0.4043    1.0999   -0.2784 H   0  0  0  0  0  0  0  0  0  0  0  0
   -1.1152    0.8843    0.5993 H   0  0  0  0  0  0  0  0  0  0  0  0
   -0.2107   -1.2037    1.6482 H   0  0  0  0  0  0  0  0  0  0  0  0
    1.2955   -1.0086    0.7607 H   0  0  0  0  0  0  0  0  0  0  0  0
    1.6979    1.1807    1.9075 H   0  0  0  0  0  0  0  0  0  0  0  0
    0.1954    0.9643    2.8241 H   0  0  0  0  0  0  0  0  0  0  0  0
    2.0418    0.1319    3.9630 H   0  0  0  0  0  0  0  0  0  0  0  0
  1  9  1  0  0  0  0
  1  2  1  0  0  0  0
  1 11  1  0  0  0  0
  2 12  1  6  0  0  0
  2  3  1  0  0  0  0
  2  4  1  0  0  0  0
  3  4  1  0  0  0  0
  4  5  1  0  0  0  0
  5 16  1  0  0  0  0
  5  6  1  0  0  0  0
  6 17  1  0  0  0  0
  6  7  1  0  0  0  0
  7 20  1  0  0  0  0
  7  8  1  0  0  0  0
  8 21  1  0  0  0  0
 10  1  1  0  0  0  0
 13  3  1  0  0  0  0
 14  3  1  0  0  0  0
 15  5  1  0  0  0  0
 18  6  1  0  0  0  0
 19  7  1  0  0  0  0
M  END
