title
 OpenBabel02282110003D

 20 20  0  0  1  0  0  0  0  0999 V2000
   -1.4232    1.0904   -1.3706 C   0  0  0  0  0  0  0  0  0  0  0  0
   -1.0290   -0.3184   -1.7580 C   0  0  1  0  0  0  0  0  0  0  0  0
    0.3636   -0.6046   -2.2896 C   0  0  0  0  0  0  0  0  0  0  0  0
   -0.0329   -1.1151   -0.9408 C   0  0  1  0  0  0  0  0  0  0  0  0
    0.6087   -0.5287    0.1500 O   0  0  0  0  0  0  0  0  0  0  0  0
   -0.1235   -0.6104    1.3671 C   0  0  0  0  0  0  0  0  0  0  0  0
    0.6490    0.2134    2.3862 C   0  0  0  0  0  0  0  0  0  0  0  0
    0.8094    1.5504    1.9518 O   0  0  0  0  0  0  0  0  0  0  0  0
   -0.6570    1.5590   -0.7474 H   0  0  0  0  0  0  0  0  0  0  0  0
   -1.5715    1.7172   -2.2566 H   0  0  0  0  0  0  0  0  0  0  0  0
   -2.3585    1.0974   -0.8005 H   0  0  0  0  0  0  0  0  0  0  0  0
   -1.8273   -0.9065   -2.2039 H   0  0  0  0  0  0  0  0  0  0  0  0
    0.4940   -1.3103   -3.1023 H   0  0  0  0  0  0  0  0  0  0  0  0
    1.0645    0.2240   -2.2923 H   0  0  0  0  0  0  0  0  0  0  0  0
   -0.2123   -2.1842   -0.8196 H   0  0  0  0  0  0  0  0  0  0  0  0
   -1.1334   -0.2001    1.2318 H   0  0  0  0  0  0  0  0  0  0  0  0
   -0.2139   -1.6576    1.6973 H   0  0  0  0  0  0  0  0  0  0  0  0
    0.0989    0.2433    3.3322 H   0  0  0  0  0  0  0  0  0  0  0  0
    1.6224   -0.2660    2.5754 H   0  0  0  0  0  0  0  0  0  0  0  0
    1.2035    1.4902    1.0739 H   0  0  0  0  0  0  0  0  0  0  0  0
  1 11  1  0  0  0  0
  1  9  1  0  0  0  0
  2  1  1  0  0  0  0
  2  4  1  1  0  0  0
  3  2  1  0  0  0  0
  3  4  1  0  0  0  0
  4 15  1  1  0  0  0
  4  5  1  0  0  0  0
  5  6  1  0  0  0  0
  6 17  1  0  0  0  0
  6  7  1  0  0  0  0
  7 19  1  0  0  0  0
  7 18  1  0  0  0  0
  8  7  1  0  0  0  0
 10  1  1  0  0  0  0
 12  2  1  0  0  0  0
 13  3  1  0  0  0  0
 14  3  1  0  0  0  0
 16  6  1  0  0  0  0
 20  8  1  0  0  0  0
M  END
