21
title
C -1.2164071 1.4174987 -2.5346522
C -1.2540908 -0.04878936 -2.1600103
C -0.0040682037 -0.8524235 -2.0332158
N -0.8222872 -0.5636129 -0.8590303
C -0.27591044 0.34118754 0.14575727
C 0.46536237 -0.4576771 1.2184399
C 1.0191468 0.42144385 2.3311799
O 1.7020353 -0.41768622 3.2509906
H -0.28047878 1.9016895 -2.246361
H -1.3220836 1.5243803 -3.6195252
H -2.0419037 1.9674093 -2.0686305
H -2.1413224 -0.56401515 -2.5276704
H 0.036482386 -1.8914647 -2.3504415
H 0.93679494 -0.31102398 -2.1403408
H 0.40433782 1.0998628 -0.27839464
H -1.1151952 0.8843184 0.59932905
H -0.21067996 -1.2037308 1.6482033
H 1.2954727 -1.0085832 0.7607084
H 1.6978596 1.1807425 1.9074644
H 0.19535653 0.96432215 2.8240874
H 2.041833 0.13185875 3.9630082
