title
 OpenBabel02282110003D

 19 19  0  0  1  0  0  0  0  0999 V2000
   -0.1837    3.2084    1.6286 C   0  0  0  0  0  0  0  0  0  0  0  0
   -0.4819    1.8277    1.4741 O   0  0  0  0  0  0  0  0  0  0  0  0
    0.1854    1.1971    0.4849 C   0  0  0  0  0  0  0  0  0  0  0  0
    0.0030   -0.0299    0.2723 N   0  0  0  0  0  0  0  0  0  0  0  0
    0.7255   -0.6452   -0.7835 C   0  0  1  0  0  0  0  0  0  0  0  0
    1.1845   -2.0745   -0.5741 C   0  0  0  0  0  0  0  0  0  0  0  0
    0.0666   -1.7845   -1.5412 C   0  0  1  0  0  0  0  0  0  0  0  0
   -1.3528   -2.2078   -1.2392 C   0  0  0  0  0  0  0  0  0  0  0  0
    0.8726    3.3672    1.8793 H   0  0  0  0  0  0  0  0  0  0  0  0
   -0.4282    3.7780    0.7232 H   0  0  0  0  0  0  0  0  0  0  0  0
   -0.8025    3.5668    2.4521 H   0  0  0  0  0  0  0  0  0  0  0  0
    0.8729    1.8399   -0.0864 H   0  0  0  0  0  0  0  0  0  0  0  0
    1.3905   -0.0001   -1.3636 H   0  0  0  0  0  0  0  0  0  0  0  0
    2.1585   -2.3618   -0.9553 H   0  0  0  0  0  0  0  0  0  0  0  0
    0.9163   -2.5214    0.3769 H   0  0  0  0  0  0  0  0  0  0  0  0
    0.3380   -1.8308   -2.5932 H   0  0  0  0  0  0  0  0  0  0  0  0
   -1.5830   -2.0693   -0.1808 H   0  0  0  0  0  0  0  0  0  0  0  0
   -2.0726   -1.6151   -1.8149 H   0  0  0  0  0  0  0  0  0  0  0  0
   -1.5075   -3.2621   -1.4943 H   0  0  0  0  0  0  0  0  0  0  0  0
  1  9  1  0  0  0  0
  1 11  1  0  0  0  0
  2  1  1  0  0  0  0
  3  2  1  0  0  0  0
  4  3  2  0  0  0  0
  5  7  1  6  0  0  0
  5  6  1  0  0  0  0
  5  4  1  0  0  0  0
  6 15  1  0  0  0  0
  7 16  1  6  0  0  0
  7  8  1  0  0  0  0
  7  6  1  0  0  0  0
  8 17  1  0  0  0  0
 10  1  1  0  0  0  0
 12  3  1  0  0  0  0
 13  5  1  0  0  0  0
 14  6  1  0  0  0  0
 18  8  1  0  0  0  0
 19  8  1  0  0  0  0
M  END
