title
 OpenBabel02282110003D

 24 24  0  0  1  0  0  0  0  0999 V2000
   -1.0688    3.5482   -1.3579 C   0  0  0  0  0  0  0  0  0  0  0  0
   -0.7407    2.0637   -1.5395 C   0  0  0  0  0  0  0  0  0  0  0  0
   -0.1148    1.4279   -0.2939 C   0  0  0  0  0  0  0  0  0  0  0  0
    0.2222   -0.0592   -0.4689 C   0  0  0  0  0  0  0  0  0  0  0  0
    0.8448   -0.6674    0.7719 C   0  0  1  0  0  0  0  0  0  0  0  0
   -0.0152   -1.2130    1.8902 C   0  0  0  0  0  0  0  0  0  0  0  0
    0.8385   -2.1509    1.0690 C   0  0  1  0  0  0  0  0  0  0  0  0
    0.2145   -3.1781    0.1487 C   0  0  0  0  0  0  0  0  0  0  0  0
   -0.1674    4.1272   -1.1274 H   0  0  0  0  0  0  0  0  0  0  0  0
   -1.5155    3.9743   -2.2618 H   0  0  0  0  0  0  0  0  0  0  0  0
   -1.7755    3.6991   -0.5341 H   0  0  0  0  0  0  0  0  0  0  0  0
   -1.6552    1.5160   -1.8044 H   0  0  0  0  0  0  0  0  0  0  0  0
   -0.0584    1.9404   -2.3913 H   0  0  0  0  0  0  0  0  0  0  0  0
    0.7988    1.9774   -0.0267 H   0  0  0  0  0  0  0  0  0  0  0  0
   -0.7963    1.5446    0.5595 H   0  0  0  0  0  0  0  0  0  0  0  0
   -0.6916   -0.6028   -0.7376 H   0  0  0  0  0  0  0  0  0  0  0  0
    0.9065   -0.1759   -1.3213 H   0  0  0  0  0  0  0  0  0  0  0  0
    1.7445   -0.1469    1.0949 H   0  0  0  0  0  0  0  0  0  0  0  0
    0.2588   -1.0102    2.9200 H   0  0  0  0  0  0  0  0  0  0  0  0
   -1.0877   -1.2435    1.7175 H   0  0  0  0  0  0  0  0  0  0  0  0
    1.7355   -2.5109    1.5677 H   0  0  0  0  0  0  0  0  0  0  0  0
   -0.7131   -2.8155   -0.3031 H   0  0  0  0  0  0  0  0  0  0  0  0
    0.8942   -3.4533   -0.6660 H   0  0  0  0  0  0  0  0  0  0  0  0
   -0.0289   -4.0935    0.6998 H   0  0  0  0  0  0  0  0  0  0  0  0
  1  9  1  0  0  0  0
  1 11  1  0  0  0  0
  2  1  1  0  0  0  0
  2  3  1  0  0  0  0
  3 14  1  0  0  0  0
  3 15  1  0  0  0  0
  4  3  1  0  0  0  0
  4  5  1  0  0  0  0
  5  7  1  6  0  0  0
  5 18  1  0  0  0  0
  5  6  1  0  0  0  0
  6 19  1  0  0  0  0
  7 21  1  1  0  0  0
  7  6  1  0  0  0  0
  8 24  1  0  0  0  0
  8  7  1  0  0  0  0
 10  1  1  0  0  0  0
 12  2  1  0  0  0  0
 13  2  1  0  0  0  0
 16  4  1  0  0  0  0
 17  4  1  0  0  0  0
 20  6  1  0  0  0  0
 22  8  1  0  0  0  0
 23  8  1  0  0  0  0
M  END
