22
title
C 1.6427236 3.5387378 -0.343504
C 1.6863248 2.083231 0.12943605
C 0.31760934 1.3967474 0.087203436
C 0.3549582 -0.06340326 0.5607479
C -1.0090007 -0.70850027 0.51480556
O -1.5297385 -1.0588871 -0.7759084
C -1.28344 -2.1125557 0.1629688
C -0.24108823 -3.1398728 -0.19794534
H 2.6343453 4.000777 -0.30857053
H 1.278508 3.6082575 -1.3744748
H 0.9735114 4.1388693 0.28311524
H 2.3939025 1.5175674 -0.49137405
H 2.0823748 2.0411668 1.1530552
H -0.39283714 1.9620712 0.7065258
H -0.07941516 1.4247105 -0.9353075
H 1.060397 -0.627957 -0.057060786
H 0.7282136 -0.10814442 1.5934833
H -1.7483743 -0.21729697 1.1541082
H -2.199657 -2.540808 0.57750297
H 0.6613956 -2.6816509 -0.6064595
H 0.033172056 -3.7302344 0.6833479
H -0.6387394 -3.8294103 -0.95015305
