22
title
C 1.3688369 3.4424958 -0.13673212
O 1.3920218 2.078827 0.20347077
C 0.13781662 1.4513348 0.043173067
C 0.27207416 -0.016242051 0.43512273
C -1.0403203 -0.75998044 0.3025866
C -1.4756793 -1.3474531 -1.0228422
C -1.1283568 -2.2604299 0.1286892
C 0.087256506 -3.1607423 0.07895709
H 2.376157 3.8378031 0.017236337
H 1.0838286 3.5984356 -1.1899474
H 0.6649987 4.0109296 0.49284574
H -0.622369 1.9486096 0.67178667
H -0.2066137 1.537262 -1.0018139
H 1.0443065 -0.4687796 -0.19516852
H 0.6407123 -0.06697204 1.46727
H -1.8407055 -0.32920888 0.90124786
H -2.5110545 -1.2518966 -1.3317076
H -0.7639918 -1.2953284 -1.8422552
H -1.9809724 -2.7164502 0.6264159
H 0.9159251 -2.702959 -0.46840033
H 0.44841552 -3.4035773 1.0848222
H -0.15233295 -4.1044 -0.4236996
