22
title
C -0.65214014 3.2854867 1.5713987
C -0.99982023 1.8122618 1.4375209
O -0.2868326 1.2783545 0.3431338
C -0.5561769 -0.09160174 0.117718466
C 0.21515085 -0.5367267 -1.0957974
C 1.6546848 -0.9763551 -0.97724617
C 0.59089506 -1.982305 -1.3424906
C 0.22051157 -3.115001 -0.40766263
H 0.4215192 3.4125564 1.7368581
H -0.9235089 3.827094 0.66073877
H -1.1893965 3.7306242 2.4143062
H -0.74242413 1.269102 2.3638055
H -2.0860348 1.6840943 1.2861946
H -0.27654532 -0.68339896 1.004679
H -1.639811 -0.24038267 -0.036555048
H -0.03488652 0.040294997 -1.9819576
H 2.363995 -0.65486836 -1.731834
H 2.0699782 -1.0339899 0.024732595
H 0.5681664 -2.2690585 -2.3911076
H 0.31674746 -2.8296497 0.6436795
H -0.81030047 -3.450483 -0.5690707
H 0.87774825 -3.976393 -0.5707301
