23
title
C 1.488079 3.6027238 -0.235193
C 1.5622501 2.1120143 0.106631346
C 0.20497712 1.4082063 0.013513761
C 0.2761298 -0.08205672 0.3513629
N -1.0535618 -0.6787347 0.28716353
C -1.4687837 -1.2852268 -0.9743007
C -1.2094795 -2.1331623 0.22487879
C -0.046956096 -3.1017387 0.27162722
H 2.4698474 4.0806217 -0.15875302
H 1.121123 3.756474 -1.2561579
H 0.8068415 4.129893 0.44185433
H 2.2773438 1.6183792 -0.56515324
H 1.9667977 1.9894993 1.120351
H -0.51555127 1.8857632 0.6883691
H -0.20140067 1.5241778 -1.0003783
H 1.003363 -0.56970733 -0.32062498
H 0.65332484 -0.2099094 1.3742964
H -2.481038 -1.0678358 -1.3063537
H -0.7322292 -1.3378282 -1.7772248
H -2.0772543 -2.4751937 0.7888201
H 0.78054005 -2.7967498 -0.3730982
H 0.33863375 -3.2093446 1.2918047
H -0.3768368 -4.0918574 -0.06073565
