21
title
C -0.91592145 2.9691658 1.5167718
C -0.41717216 1.5594889 1.7852509
O 0.039287657 1.0028508 0.5694126
C 0.535233 -0.31292155 0.7103605
C 1.0609728 -0.771559 -0.6252605
C 1.0046446 -2.2145095 -1.0022293
N 0.19380882 -1.2328284 -1.7072276
C -1.2488693 -1.2639709 -1.5144559
H -0.11155772 3.5893764 1.1113443
H -1.7347064 2.9546244 0.79183096
H -1.2779573 3.4287913 2.4413035
H 0.3995882 1.5722322 2.527422
H -1.2240944 0.9375618 2.2100346
H 1.3552455 -0.3378301 1.4492924
H -0.25177494 -0.98437333 1.0879493
H 1.8992169 -0.17357984 -0.9796771
H 1.8118312 -2.6736805 -1.5672418
H 0.5011486 -2.8872273 -0.30667534
H -1.5745647 -1.6871142 -0.55113065
H -1.6406183 -0.24588493 -1.5905625
H -1.6935217 -1.8702061 -2.3101172
