21
title
C -0.97133684 0.9187399 -2.1310468
N -0.6225482 -0.49297407 -2.1235726
C 0.742829 -0.852393 -2.4878318
C 0.26298204 -1.0339352 -1.0874593
C 0.8329293 -0.2165469 0.055661384
C -0.13310346 -0.09284341 1.2411051
C 0.46502855 0.6723534 2.4138424
O -0.50840443 0.7244899 3.445566
H -0.15753642 1.5992168 -1.8348097
H -1.2801547 1.1940907 -3.1448343
H -1.8219836 1.0890183 -1.463023
H 0.85665053 -1.6987681 -3.160938
H 1.4522318 -0.041692797 -2.6589248
H -0.030054951 -2.040398 -0.7862393
H 1.7588781 -0.7051178 0.3895015
H 1.1294595 0.7789626 -0.29368895
H -1.0553387 0.41130528 0.9304735
H -0.42773062 -1.0901287 1.5900738
H 1.3839844 0.16804877 2.756718
H 0.75512356 1.6853496 2.0878565
H -0.13410398 1.2057908 4.1890035
