title
 OpenBabel02282110003D

 22 22  0  0  1  0  0  0  0  0999 V2000
    1.3688    3.4425   -0.1367 C   0  0  0  0  0  0  0  0  0  0  0  0
    1.3920    2.0788    0.2035 O   0  0  0  0  0  0  0  0  0  0  0  0
    0.1378    1.4513    0.0432 C   0  0  0  0  0  0  0  0  0  0  0  0
    0.2721   -0.0162    0.4351 C   0  0  0  0  0  0  0  0  0  0  0  0
   -1.0403   -0.7600    0.3026 C   0  0  1  0  0  0  0  0  0  0  0  0
   -1.4757   -1.3475   -1.0228 C   0  0  0  0  0  0  0  0  0  0  0  0
   -1.1284   -2.2604    0.1287 C   0  0  1  0  0  0  0  0  0  0  0  0
    0.0873   -3.1607    0.0790 C   0  0  0  0  0  0  0  0  0  0  0  0
    2.3762    3.8378    0.0172 H   0  0  0  0  0  0  0  0  0  0  0  0
    1.0838    3.5984   -1.1899 H   0  0  0  0  0  0  0  0  0  0  0  0
    0.6650    4.0109    0.4928 H   0  0  0  0  0  0  0  0  0  0  0  0
   -0.6224    1.9486    0.6718 H   0  0  0  0  0  0  0  0  0  0  0  0
   -0.2066    1.5373   -1.0018 H   0  0  0  0  0  0  0  0  0  0  0  0
    1.0443   -0.4688   -0.1952 H   0  0  0  0  0  0  0  0  0  0  0  0
    0.6407   -0.0670    1.4673 H   0  0  0  0  0  0  0  0  0  0  0  0
   -1.8407   -0.3292    0.9012 H   0  0  0  0  0  0  0  0  0  0  0  0
   -2.5111   -1.2519   -1.3317 H   0  0  0  0  0  0  0  0  0  0  0  0
   -0.7640   -1.2953   -1.8423 H   0  0  0  0  0  0  0  0  0  0  0  0
   -1.9810   -2.7165    0.6264 H   0  0  0  0  0  0  0  0  0  0  0  0
    0.9159   -2.7030   -0.4684 H   0  0  0  0  0  0  0  0  0  0  0  0
    0.4484   -3.4036    1.0848 H   0  0  0  0  0  0  0  0  0  0  0  0
   -0.1523   -4.1044   -0.4237 H   0  0  0  0  0  0  0  0  0  0  0  0
  1  9  1  0  0  0  0
  1  2  1  0  0  0  0
  1 11  1  0  0  0  0
  3  2  1  0  0  0  0
  3  4  1  0  0  0  0
  3 12  1  0  0  0  0
  4 15  1  0  0  0  0
  5  7  1  1  0  0  0
  5  4  1  0  0  0  0
  5 16  1  0  0  0  0
  6  7  1  0  0  0  0
  6  5  1  0  0  0  0
  7 19  1  1  0  0  0
  8  7  1  0  0  0  0
  8 21  1  0  0  0  0
 10  1  1  0  0  0  0
 13  3  1  0  0  0  0
 14  4  1  0  0  0  0
 17  6  1  0  0  0  0
 18  6  1  0  0  0  0
 20  8  1  0  0  0  0
 22  8  1  0  0  0  0
M  END
