22
title
C -1.4610455 3.2477212 -1.1504498
C -0.6828814 1.9404252 -1.3179815
C -0.32124373 1.304026 0.016664587
O 0.39794794 0.10797029 -0.23258284
C 0.77512026 -0.56551236 0.9251388
C -0.22100088 -1.4727466 1.6112393
C 0.9445361 -2.0523865 0.82912093
C 0.7060785 -2.7757237 -0.4776331
H -0.8810254 3.9890018 -0.58954495
H -1.7070841 3.6861403 -2.1218438
H -2.4012933 3.0871663 -0.61132866
H -1.2702423 1.2199388 -1.8989278
H 0.24039796 2.1162264 -1.8818438
H 0.29256156 1.9962046 0.61814636
H -1.2288274 1.0869945 0.602799
H 1.4700156 -0.0073717297 1.5556649
H -0.22320947 -1.5373609 2.694046
H -1.2004185 -1.5486863 1.1493484
H 1.754392 -2.4589846 1.4295396
H -0.06504801 -2.272516 -1.0649889
H 1.6176394 -2.8024008 -1.0845495
H 0.38917974 -3.809253 -0.30137178
