21
title
C -0.69693327 3.3212419 1.5385113
C -0.95656914 1.8248692 1.49076
O -0.33009183 1.2954944 0.34177008
C -0.51713055 -0.09696664 0.1969122
C 0.19863474 -0.5360669 -1.0527885
N 1.588821 -0.999807 -0.910351
C 0.55558753 -1.948332 -1.3586497
C 0.25476635 -3.1249647 -0.4590039
H 0.37723923 3.5218253 1.58302
H -1.0993642 3.8089519 0.645994
H -1.1707169 3.7635236 2.420058
H -0.56428516 1.335367 2.3986516
H -2.0414908 1.6212913 1.4621778
H -0.12104881 -0.63441074 1.0711658
H -1.5943799 -0.33006397 0.11877373
H -0.032294217 0.0977733 -1.9078705
H 2.1546607 -0.68022835 -1.6913271
H 0.5486306 -2.1970117 -2.420004
H 0.32082796 -2.8476696 0.59510463
H -0.7482105 -3.5202966 -0.65404195
H 0.9734385 -3.9326339 -0.6350979
