20
title
C 1.3690774 3.404642 -0.28157818
O 1.375647 2.0939713 0.22925615
C 0.15522479 1.4184389 0.02080991
C 0.28583953 0.0072811865 0.58641857
C -0.9998274 -0.7686044 0.44307005
O -1.3626649 -1.2089316 -0.8745108
C -1.0960772 -2.2030284 0.12139241
C 0.07485531 -3.123923 -0.10669611
H 2.349837 3.8414426 -0.077547394
H 1.1922892 3.419665 -1.3688996
H 0.5965513 4.027539 0.19765045
H -0.6727228 1.9573033 0.515292
H -0.08655073 1.3699242 -1.05353
H 1.1093562 -0.49760878 0.07570774
H 0.5507463 0.075268745 1.6487668
H -1.840287 -0.33987868 0.9959798
H -1.9975579 -2.7117493 0.47180828
H 0.95663935 -2.5855353 -0.4585389
H 0.3310971 -3.651077 0.81885433
H -0.18234397 -3.877022 -0.8589829
