title
 OpenBabel02282110003D

 16 16  0  0  1  0  0  0  0  0999 V2000
    0.2061    2.5857    0.0307 C   0  0  0  0  0  0  0  0  0  0  0  0
    0.2873    1.1476   -0.4432 C   0  0  0  0  0  0  0  0  0  0  0  0
    1.3242    0.6464   -0.8174 O   0  0  0  0  0  0  0  0  0  0  0  0
   -0.9964    0.3742   -0.4082 C   0  0  1  0  0  0  0  0  0  0  0  0
   -1.0730   -0.9280   -1.1587 C   0  0  0  0  0  0  0  0  0  0  0  0
   -1.0294   -0.9772    0.3450 C   0  0  1  0  0  0  0  0  0  0  0  0
    0.1113   -1.4764    1.0530 C   0  0  0  0  0  0  0  0  0  0  0  0
    1.0374   -1.9164    1.6806 C   0  0  0  0  0  0  0  0  0  0  0  0
    1.1935    3.0465   -0.0072 H   0  0  0  0  0  0  0  0  0  0  0  0
   -0.4905    3.1533   -0.5975 H   0  0  0  0  0  0  0  0  0  0  0  0
   -0.1842    2.6250    1.0542 H   0  0  0  0  0  0  0  0  0  0  0  0
   -1.9019    0.9624   -0.3044 H   0  0  0  0  0  0  0  0  0  0  0  0
   -2.0045   -1.1851   -1.6490 H   0  0  0  0  0  0  0  0  0  0  0  0
   -0.1631   -1.2094   -1.6756 H   0  0  0  0  0  0  0  0  0  0  0  0
   -1.9784   -1.1661    0.8392 H   0  0  0  0  0  0  0  0  0  0  0  0
    1.8698   -2.3003    2.2162 H   0  0  0  0  0  0  0  0  0  0  0  0
  1 11  1  0  0  0  0
  2  4  1  0  0  0  0
  2  1  1  0  0  0  0
  3  2  2  0  0  0  0
  4 12  1  0  0  0  0
  4  6  1  1  0  0  0
  5  4  1  0  0  0  0
  5  6  1  0  0  0  0
  6 15  1  1  0  0  0
  6  7  1  0  0  0  0
  7  8  3  0  0  0  0
  8 16  1  0  0  0  0
  9  1  1  0  0  0  0
 10  1  1  0  0  0  0
 13  5  1  0  0  0  0
 14  5  1  0  0  0  0
M  END
