title
 OpenBabel02282110003D

 21 21  0  0  1  0  0  0  0  0999 V2000
    1.5007    3.2121   -0.2216 C   0  0  0  0  0  0  0  0  0  0  0  0
    1.4596    1.8601   -0.6073 O   0  0  0  0  0  0  0  0  0  0  0  0
    0.2401    1.2321   -0.2794 C   0  0  0  0  0  0  0  0  0  0  0  0
    0.3072   -0.2211   -0.7396 C   0  0  0  0  0  0  0  0  0  0  0  0
   -0.9952   -0.9624   -0.5163 C   0  0  1  0  0  0  0  0  0  0  0  0
   -1.0265   -2.4465   -0.3750 C   0  0  0  0  0  0  0  0  0  0  0  0
   -1.3779   -1.5926    0.7528 N   0  0  0  0  0  0  0  0  0  0  0  0
   -0.4677   -1.5721    1.8873 C   0  0  0  0  0  0  0  0  0  0  0  0
    2.4764    3.6080   -0.5143 H   0  0  0  0  0  0  0  0  0  0  0  0
    0.7142    3.8039   -0.7169 H   0  0  0  0  0  0  0  0  0  0  0  0
    1.3814    3.3318    0.8674 H   0  0  0  0  0  0  0  0  0  0  0  0
    0.0576    1.2886    0.8074 H   0  0  0  0  0  0  0  0  0  0  0  0
   -0.6041    1.7480   -0.7707 H   0  0  0  0  0  0  0  0  0  0  0  0
    0.5400   -0.2304   -1.8114 H   0  0  0  0  0  0  0  0  0  0  0  0
    1.1431   -0.7180   -0.2386 H   0  0  0  0  0  0  0  0  0  0  0  0
   -1.8472   -0.4929   -1.0094 H   0  0  0  0  0  0  0  0  0  0  0  0
   -1.8329   -3.0360   -0.8043 H   0  0  0  0  0  0  0  0  0  0  0  0
   -0.0616   -2.9539   -0.3466 H   0  0  0  0  0  0  0  0  0  0  0  0
    0.5970   -1.6849    1.6302 H   0  0  0  0  0  0  0  0  0  0  0  0
   -0.5906   -0.6336    2.4380 H   0  0  0  0  0  0  0  0  0  0  0  0
   -0.7350   -2.3933    2.5605 H   0  0  0  0  0  0  0  0  0  0  0  0
  1 11  1  0  0  0  0
  2  3  1  0  0  0  0
  2  1  1  0  0  0  0
  3 12  1  0  0  0  0
  4  5  1  0  0  0  0
  4  3  1  0  0  0  0
  4 15  1  0  0  0  0
  5 16  1  6  0  0  0
  5  6  1  0  0  0  0
  5  7  1  0  0  0  0
  6 18  1  0  0  0  0
  6  7  1  0  0  0  0
  7  8  1  0  0  0  0
  8 20  1  0  0  0  0
  8 21  1  0  0  0  0
  9  1  1  0  0  0  0
 10  1  1  0  0  0  0
 13  3  1  0  0  0  0
 14  4  1  0  0  0  0
 17  6  1  0  0  0  0
 19  8  1  0  0  0  0
M  END
