title
 OpenBabel02282110003D

 20 20  0  0  1  0  0  0  0  0999 V2000
   -0.9131    3.4011   -1.1554 C   0  0  0  0  0  0  0  0  0  0  0  0
   -0.5279    2.0613   -1.3328 O   0  0  0  0  0  0  0  0  0  0  0  0
   -0.0846    1.4539   -0.1384 C   0  0  0  0  0  0  0  0  0  0  0  0
    0.3043    0.0119   -0.4419 C   0  0  0  0  0  0  0  0  0  0  0  0
    0.8229   -0.7111    0.7824 C   0  0  1  0  0  0  0  0  0  0  0  0
   -0.1457   -1.3034    1.7938 C   0  0  0  0  0  0  0  0  0  0  0  0
    0.6883   -2.2005    0.9132 C   0  0  1  0  0  0  0  0  0  0  0  0
    0.0858   -2.8787   -0.1513 O   0  0  0  0  0  0  0  0  0  0  0  0
   -0.0795    4.0234   -0.7907 H   0  0  0  0  0  0  0  0  0  0  0  0
   -1.2373    3.7824   -2.1271 H   0  0  0  0  0  0  0  0  0  0  0  0
   -1.7465    3.4982   -0.4405 H   0  0  0  0  0  0  0  0  0  0  0  0
    0.7772    2.0082    0.2751 H   0  0  0  0  0  0  0  0  0  0  0  0
   -0.8788    1.4839    0.6277 H   0  0  0  0  0  0  0  0  0  0  0  0
   -0.5601   -0.5184   -0.8500 H   0  0  0  0  0  0  0  0  0  0  0  0
    1.0683    0.0144   -1.2285 H   0  0  0  0  0  0  0  0  0  0  0  0
    1.7383   -0.2966    1.1983 H   0  0  0  0  0  0  0  0  0  0  0  0
    0.0803   -1.2409    2.8528 H   0  0  0  0  0  0  0  0  0  0  0  0
   -1.2012   -1.2386    1.5482 H   0  0  0  0  0  0  0  0  0  0  0  0
    1.5161   -2.7356    1.3788 H   0  0  0  0  0  0  0  0  0  0  0  0
   -0.4678   -3.5751    0.2164 H   0  0  0  0  0  0  0  0  0  0  0  0
  1  9  1  0  0  0  0
  1 11  1  0  0  0  0
  2  1  1  0  0  0  0
  2  3  1  0  0  0  0
  3 12  1  0  0  0  0
  3 13  1  0  0  0  0
  4  3  1  0  0  0  0
  4  5  1  0  0  0  0
  5  7  1  6  0  0  0
  5 16  1  0  0  0  0
  5  6  1  0  0  0  0
  6 17  1  0  0  0  0
  7 19  1  1  0  0  0
  7  6  1  0  0  0  0
  8 20  1  0  0  0  0
  8  7  1  0  0  0  0
 10  1  1  0  0  0  0
 14  4  1  0  0  0  0
 15  4  1  0  0  0  0
 18  6  1  0  0  0  0
M  END
