title
 OpenBabel02282110003D

 18 18  0  0  1  0  0  0  0  0999 V2000
    1.3703    1.4880    0.2929 O   0  0  0  0  0  0  0  0  0  0  0  0
    1.7797    0.4262    1.1296 C   0  0  0  0  0  0  0  0  0  0  0  0
    0.6299   -0.4722    1.5778 C   0  0  0  0  0  0  0  0  0  0  0  0
    0.0867   -1.1650    0.4521 O   0  0  0  0  0  0  0  0  0  0  0  0
   -1.2099   -0.8644    0.0387 C   0  0  1  0  0  0  0  0  0  0  0  0
   -1.6943    0.5611   -0.1116 C   0  0  0  0  0  0  0  0  0  0  0  0
   -1.2989   -0.2305   -1.3291 C   0  0  1  0  0  0  0  0  0  0  0  0
   -0.0730    0.1155   -1.9237 O   0  0  0  0  0  0  0  0  0  0  0  0
    1.0373    1.1122   -0.5372 H   0  0  0  0  0  0  0  0  0  0  0  0
    2.5462   -0.1994    0.6445 H   0  0  0  0  0  0  0  0  0  0  0  0
    2.2406    0.8786    2.0158 H   0  0  0  0  0  0  0  0  0  0  0  0
    1.0017   -1.2230    2.2879 H   0  0  0  0  0  0  0  0  0  0  0  0
   -0.1459    0.1208    2.0734 H   0  0  0  0  0  0  0  0  0  0  0  0
   -1.9434   -1.6215    0.3107 H   0  0  0  0  0  0  0  0  0  0  0  0
   -2.7481    0.7494    0.0615 H   0  0  0  0  0  0  0  0  0  0  0  0
   -1.0215    1.3580    0.1818 H   0  0  0  0  0  0  0  0  0  0  0  0
   -2.0592   -0.5607   -2.0330 H   0  0  0  0  0  0  0  0  0  0  0  0
    0.4943   -0.6632   -1.8508 H   0  0  0  0  0  0  0  0  0  0  0  0
  1  2  1  0  0  0  0
  2  3  1  0  0  0  0
  2 11  1  0  0  0  0
  3 13  1  0  0  0  0
  3 12  1  0  0  0  0
  4  3  1  0  0  0  0
  5  7  1  6  0  0  0
  5 14  1  0  0  0  0
  5  4  1  0  0  0  0
  6  5  1  0  0  0  0
  6 15  1  0  0  0  0
  6 16  1  0  0  0  0
  7 17  1  6  0  0  0
  7  6  1  0  0  0  0
  8 18  1  0  0  0  0
  8  7  1  0  0  0  0
  9  1  1  0  0  0  0
 10  2  1  0  0  0  0
M  END
