title
 OpenBabel02282110003D

 20 20  0  0  1  0  0  0  0  0999 V2000
    1.3691    3.4046   -0.2816 C   0  0  0  0  0  0  0  0  0  0  0  0
    1.3756    2.0940    0.2293 O   0  0  0  0  0  0  0  0  0  0  0  0
    0.1552    1.4184    0.0208 C   0  0  0  0  0  0  0  0  0  0  0  0
    0.2858    0.0073    0.5864 C   0  0  0  0  0  0  0  0  0  0  0  0
   -0.9998   -0.7686    0.4431 C   0  0  1  0  0  0  0  0  0  0  0  0
   -1.3627   -1.2089   -0.8745 O   0  0  0  0  0  0  0  0  0  0  0  0
   -1.0961   -2.2030    0.1214 C   0  0  1  0  0  0  0  0  0  0  0  0
    0.0749   -3.1239   -0.1067 C   0  0  0  0  0  0  0  0  0  0  0  0
    2.3498    3.8414   -0.0775 H   0  0  0  0  0  0  0  0  0  0  0  0
    1.1923    3.4197   -1.3689 H   0  0  0  0  0  0  0  0  0  0  0  0
    0.5966    4.0275    0.1977 H   0  0  0  0  0  0  0  0  0  0  0  0
   -0.6727    1.9573    0.5153 H   0  0  0  0  0  0  0  0  0  0  0  0
   -0.0866    1.3699   -1.0535 H   0  0  0  0  0  0  0  0  0  0  0  0
    1.1094   -0.4976    0.0757 H   0  0  0  0  0  0  0  0  0  0  0  0
    0.5507    0.0753    1.6488 H   0  0  0  0  0  0  0  0  0  0  0  0
   -1.8403   -0.3399    0.9960 H   0  0  0  0  0  0  0  0  0  0  0  0
   -1.9976   -2.7117    0.4718 H   0  0  0  0  0  0  0  0  0  0  0  0
    0.9566   -2.5855   -0.4585 H   0  0  0  0  0  0  0  0  0  0  0  0
    0.3311   -3.6511    0.8189 H   0  0  0  0  0  0  0  0  0  0  0  0
   -0.1823   -3.8770   -0.8590 H   0  0  0  0  0  0  0  0  0  0  0  0
  1  9  1  0  0  0  0
  1 11  1  0  0  0  0
  1  2  1  0  0  0  0
  3  2  1  0  0  0  0
  3 12  1  0  0  0  0
  3  4  1  0  0  0  0
  4 15  1  0  0  0  0
  5  7  1  1  0  0  0
  5  4  1  0  0  0  0
  5 16  1  0  0  0  0
  6  7  1  0  0  0  0
  6  5  1  0  0  0  0
  7 17  1  1  0  0  0
  8  7  1  0  0  0  0
  8 19  1  0  0  0  0
 10  1  1  0  0  0  0
 13  3  1  0  0  0  0
 14  4  1  0  0  0  0
 18  8  1  0  0  0  0
 20  8  1  0  0  0  0
M  END
