15
title
C 1.8174245 0.6773085 -0.12880692
C 0.7673252 0.21946001 -1.112663
O 0.6774046 0.65732044 -2.2382267
C -0.20269847 -0.85347545 -0.6818686
N 0.06132507 -1.6109128 0.5437545
C -1.1159469 -0.7321653 0.5194314
C -1.1535984 0.40050492 1.4031008
C -1.248221 1.3434103 2.1429222
H 2.467591 1.4067508 -0.61256784
H 1.3429556 1.1206156 0.7522724
H 2.394644 -0.18000054 0.23018762
H -0.64989936 -1.3582814 -1.5355225
H -0.21934831 -2.581969 0.43685815
H -2.0868206 -1.20347 0.37568972
H -1.3202537 2.1767766 2.7975903
