18
title
O 1.3703492 1.4879696 0.29287034
C 1.7797496 0.42615542 1.1295648
C 0.6298911 -0.47221202 1.5777967
O 0.086690225 -1.1650044 0.45208055
C -1.2099223 -0.8644302 0.03865666
C -1.6942532 0.5610743 -0.1115927
C -1.2989113 -0.23051815 -1.3290659
O -0.07296272 0.11547638 -1.9236783
H 1.0373219 1.1121588 -0.5372303
H 2.5461776 -0.19937028 0.64453757
H 2.2406402 0.87863505 2.0157745
H 1.0016731 -1.2229829 2.2878664
H -0.14587852 0.12084926 2.073421
H -1.9433966 -1.6214575 0.3106727
H -2.7481074 0.7493756 0.06151218
H -1.0215054 1.3580252 0.18184097
H -2.059185 -0.56067836 -2.033022
H 0.49428192 -0.6632472 -1.8508216
