21
title
C 1.5007267 3.2121258 -0.22156352
O 1.4595841 1.8601198 -0.6073107
C 0.24007733 1.2321452 -0.27944347
C 0.30724546 -0.22106479 -0.7396009
C -0.9951555 -0.96238804 -0.51627415
C -1.026457 -2.4465446 -0.3749662
N -1.3778552 -1.5926182 0.75284296
C -0.467734 -1.5721366 1.8873391
H 2.4763753 3.6079578 -0.514313
H 0.71420854 3.8039129 -0.7169439
H 1.3813624 3.3317695 0.8673585
H 0.057644084 1.2886008 0.807437
H -0.60411924 1.7480426 -0.77067935
H 0.5400065 -0.2303872 -1.8114078
H 1.1430734 -0.71800375 -0.23861907
H -1.847226 -0.4928901 -1.0094056
H -1.8329152 -3.0360265 -0.8042613
H -0.061571762 -2.9538589 -0.3465733
H 0.59701836 -1.684937 1.6302459
H -0.5906071 -0.6335676 2.43801
H -0.7350041 -2.3932724 2.5605125
