title
 OpenBabel02282110003D

 13 13  0  0  1  0  0  0  0  0999 V2000
    1.5450    1.9484    0.9251 C   0  0  0  0  0  0  0  0  0  0  0  0
    0.8424    0.6189    0.7658 C   0  0  0  0  0  0  0  0  0  0  0  0
    0.2436    0.0616    1.6500 O   0  0  0  0  0  0  0  0  0  0  0  0
    0.9224    0.0028   -0.6207 C   0  0  1  0  0  0  0  0  0  0  0  0
    0.6502   -1.3872   -0.7183 O   0  0  0  0  0  0  0  0  0  0  0  0
   -0.3058   -0.5116   -1.2871 C   0  0  1  0  0  0  0  0  0  0  0  0
   -1.6112   -0.4352   -0.6649 C   0  0  0  0  0  0  0  0  0  0  0  0
   -2.6871   -0.3600   -0.2513 N   0  0  0  0  0  0  0  0  0  0  0  0
    2.6249    1.8227    0.7819 H   0  0  0  0  0  0  0  0  0  0  0  0
    1.2030    2.6582    0.1626 H   0  0  0  0  0  0  0  0  0  0  0  0
    1.3521    2.3505    1.9196 H   0  0  0  0  0  0  0  0  0  0  0  0
    1.7149    0.3651   -1.2760 H   0  0  0  0  0  0  0  0  0  0  0  0
   -0.3374   -0.4970   -2.3758 H   0  0  0  0  0  0  0  0  0  0  0  0
  1 11  1  0  0  0  0
  2  1  1  0  0  0  0
  2  3  2  0  0  0  0
  4  6  1  6  0  0  0
  4  2  1  0  0  0  0
  5  4  1  0  0  0  0
  6 13  1  6  0  0  0
  6  5  1  0  0  0  0
  6  7  1  0  0  0  0
  7  8  3  0  0  0  0
  9  1  1  0  0  0  0
 10  1  1  0  0  0  0
 12  4  1  0  0  0  0
M  END
