title
 OpenBabel02282110003D

 12 12  0  0  1  0  0  0  0  0999 V2000
    1.6504    0.6953   -0.1638 N   0  0  0  0  0  0  0  0  0  0  0  0
    0.8217    0.1080   -1.0578 C   0  0  0  0  0  0  0  0  0  0  0  0
    0.7190    0.4010   -2.2311 O   0  0  0  0  0  0  0  0  0  0  0  0
   -0.0253   -1.0127   -0.4872 C   0  0  1  0  0  0  0  0  0  0  0  0
    0.1833   -1.4182    0.8655 O   0  0  0  0  0  0  0  0  0  0  0  0
   -1.0554   -0.7786    0.5545 C   0  0  1  0  0  0  0  0  0  0  0  0
   -1.2795    0.5273    1.1368 C   0  0  0  0  0  0  0  0  0  0  0  0
   -1.4867    1.5566    1.6189 N   0  0  0  0  0  0  0  0  0  0  0  0
    2.1991    1.4876   -0.4538 H   0  0  0  0  0  0  0  0  0  0  0  0
    1.6827    0.3833    0.7922 H   0  0  0  0  0  0  0  0  0  0  0  0
   -0.2190   -1.8127   -1.1983 H   0  0  0  0  0  0  0  0  0  0  0  0
   -1.9268   -1.4300    0.5716 H   0  0  0  0  0  0  0  0  0  0  0  0
  1 10  1  0  0  0  0
  2  4  1  0  0  0  0
  2  1  1  0  0  0  0
  3  2  2  0  0  0  0
  4  6  1  1  0  0  0
  4  5  1  0  0  0  0
  6 12  1  6  0  0  0
  6  5  1  0  0  0  0
  6  7  1  0  0  0  0
  7  8  3  0  0  0  0
  9  1  1  0  0  0  0
 11  4  1  0  0  0  0
M  END
