14
title
C 0.83011734 1.7946553 -1.7010124
C 0.76647353 0.5090307 -0.90043664
O 1.6987332 0.06575394 -0.27791545
C -0.57662797 -0.18834622 -0.9203385
O -0.6314081 -1.5173244 -0.43500254
C -1.2766901 -0.52174085 0.35625425
C -0.7338637 -0.21641032 1.6504859
C -0.34390175 0.047162343 2.7556655
H 1.795547 2.2767286 -1.5463076
H 0.69369173 1.5820698 -2.7680042
H 0.021926468 2.473736 -1.4053462
H -1.2101355 0.01719125 -1.7849772
H -2.365663 -0.5555865 0.31154647
H 0.025402552 0.27311894 3.7257388
