15
title
C 1.7447996 2.0409956 0.89918786
C 0.79966223 0.86555284 0.7610997
O -0.01753088 0.5816923 1.6050063
C 0.9387186 0.064224094 -0.5119248
N 0.91923517 -1.3982687 -0.37454194
C -0.19894035 -0.76025903 -1.0663584
C -1.5381697 -0.8580239 -0.394
O -2.5619955 -0.60352826 -0.97790545
H 2.7855077 1.6990465 0.8537006
H 1.6037147 2.7390523 0.06543099
H 1.5645465 2.5542872 1.8436944
H 1.6086329 0.48916286 -1.2569586
H 1.5629019 -1.8215911 -1.0378036
H -0.2559882 -0.7954953 -2.152691
H -1.506157 -1.2035983 0.6534783
