title
 OpenBabel02282110003D

 13 13  0  0  1  0  0  0  0  0999 V2000
    0.8521    2.1871    0.2510 N   0  0  0  0  0  0  0  0  0  0  0  0
    0.8724    0.8176    0.3414 C   0  0  0  0  0  0  0  0  0  0  0  0
    1.7827    0.1161   -0.0287 O   0  0  0  0  0  0  0  0  0  0  0  0
   -0.2945    0.3023    0.9607 N   0  0  0  0  0  0  0  0  0  0  0  0
   -1.6338    0.4631    0.4318 C   0  0  0  0  0  0  0  0  0  0  0  0
   -0.9610   -0.8874    0.4727 C   0  0  1  0  0  0  0  0  0  0  0  0
   -0.5911   -1.5092   -0.7799 C   0  0  0  0  0  0  0  0  0  0  0  0
   -0.3631   -2.0487   -1.7760 N   0  0  0  0  0  0  0  0  0  0  0  0
    1.7421    2.6128    0.0455 H   0  0  0  0  0  0  0  0  0  0  0  0
    0.2332    2.7077    0.8512 H   0  0  0  0  0  0  0  0  0  0  0  0
   -2.4146    0.6884    1.1529 H   0  0  0  0  0  0  0  0  0  0  0  0
   -1.7464    0.9203   -0.5479 H   0  0  0  0  0  0  0  0  0  0  0  0
   -1.2456   -1.5977    1.2440 H   0  0  0  0  0  0  0  0  0  0  0  0
  1  2  1  0  0  0  0
  1 10  1  0  0  0  0
  2  4  1  0  0  0  0
  3  2  2  0  0  0  0
  5  6  1  0  0  0  0
  5  4  1  0  0  0  0
  5 11  1  0  0  0  0
  6  4  1  0  0  0  0
  6 13  1  1  0  0  0
  7  6  1  0  0  0  0
  8  7  3  0  0  0  0
  9  1  1  0  0  0  0
 12  5  1  0  0  0  0
M  END
