title
 OpenBabel02282110003D

 14 14  0  0  1  0  0  0  0  0999 V2000
    0.7088    1.8555   -1.7769 N   0  0  0  0  0  0  0  0  0  0  0  0
    0.6874    0.8249   -0.8836 C   0  0  0  0  0  0  0  0  0  0  0  0
    1.6064    0.5898   -0.1253 O   0  0  0  0  0  0  0  0  0  0  0  0
   -0.5929    0.0226   -0.9012 C   0  0  1  0  0  0  0  0  0  0  0  0
   -0.4492   -1.4326   -0.8347 N   0  0  0  0  0  0  0  0  0  0  0  0
   -1.0474   -0.7443    0.3125 C   0  0  1  0  0  0  0  0  0  0  0  0
   -0.2652   -0.7871    1.5943 C   0  0  0  0  0  0  0  0  0  0  0  0
   -0.7713   -0.5114    2.6537 O   0  0  0  0  0  0  0  0  0  0  0  0
    1.5539    2.3989   -1.8476 H   0  0  0  0  0  0  0  0  0  0  0  0
   -0.0007    1.9806   -2.4770 H   0  0  0  0  0  0  0  0  0  0  0  0
   -1.3954    0.4237   -1.5189 H   0  0  0  0  0  0  0  0  0  0  0  0
   -1.1628   -1.8855   -1.3991 H   0  0  0  0  0  0  0  0  0  0  0  0
   -2.1248   -0.7799    0.4625 H   0  0  0  0  0  0  0  0  0  0  0  0
    0.7831   -1.1118    1.4867 H   0  0  0  0  0  0  0  0  0  0  0  0
  1  2  1  0  0  0  0
  2  3  2  0  0  0  0
  4  2  1  0  0  0  0
  4  5  1  0  0  0  0
  4  6  1  1  0  0  0
  5  6  1  0  0  0  0
  6 13  1  1  0  0  0
  6  7  1  0  0  0  0
  7  8  2  0  0  0  0
  9  1  1  0  0  0  0
 10  1  1  0  0  0  0
 11  4  1  0  0  0  0
 12  5  1  0  0  0  0
 14  7  1  0  0  0  0
M  END
