14
title
C 0.90768814 1.8315686 -1.8299164
C 0.8209011 0.562462 -1.0106319
O 1.7725443 0.05705387 -0.46596643
C -0.56546813 -0.046084754 -0.9141535
O -0.6550197 -1.4202627 -0.59410995
C -1.1353301 -0.51163083 0.38746282
C -0.3606458 -0.43728906 1.6716889
O -0.8633427 -0.032876007 2.6897843
H 1.9149635 2.2433963 -1.7691036
H 0.65858376 1.6202604 -2.8767025
H 0.17898396 2.5690465 -1.473365
H -1.2874256 0.301766 -1.6544244
H -2.2172627 -0.45581365 0.50665075
H 0.6839669 -0.7903019 1.6038018
