title
 OpenBabel02282110003D

 16 16  0  0  1  0  0  0  0  0999 V2000
    0.2670    2.7185   -0.3525 C   0  0  0  0  0  0  0  0  0  0  0  0
    0.3909    1.2292   -0.6011 C   0  0  0  0  0  0  0  0  0  0  0  0
    1.4497    0.7070   -0.8788 O   0  0  0  0  0  0  0  0  0  0  0  0
   -0.8828    0.4425   -0.4944 C   0  0  1  0  0  0  0  0  0  0  0  0
   -0.9805   -0.8793   -1.1986 C   0  0  0  0  0  0  0  0  0  0  0  0
   -0.9292   -0.8796    0.3067 C   0  0  1  0  0  0  0  0  0  0  0  0
    0.2646   -1.4208    1.0121 C   0  0  0  0  0  0  0  0  0  0  0  0
    0.1901   -1.9686    2.0860 O   0  0  0  0  0  0  0  0  0  0  0  0
    1.2441    3.1937   -0.4401 H   0  0  0  0  0  0  0  0  0  0  0  0
   -0.4281    3.1648   -1.0733 H   0  0  0  0  0  0  0  0  0  0  0  0
   -0.1498    2.9017    0.6446 H   0  0  0  0  0  0  0  0  0  0  0  0
   -1.7877    1.0335   -0.4033 H   0  0  0  0  0  0  0  0  0  0  0  0
   -1.9163   -1.1453   -1.6751 H   0  0  0  0  0  0  0  0  0  0  0  0
   -0.0792   -1.1926   -1.7155 H   0  0  0  0  0  0  0  0  0  0  0  0
   -1.8545   -1.0503    0.8466 H   0  0  0  0  0  0  0  0  0  0  0  0
    1.2267   -1.3053    0.4782 H   0  0  0  0  0  0  0  0  0  0  0  0
  1 11  1  0  0  0  0
  2  4  1  0  0  0  0
  2  1  1  0  0  0  0
  3  2  2  0  0  0  0
  4 12  1  0  0  0  0
  4  6  1  1  0  0  0
  5  4  1  0  0  0  0
  5  6  1  0  0  0  0
  6 15  1  1  0  0  0
  6  7  1  0  0  0  0
  7  8  2  0  0  0  0
  9  1  1  0  0  0  0
 10  1  1  0  0  0  0
 13  5  1  0  0  0  0
 14  5  1  0  0  0  0
 16  7  1  0  0  0  0
M  END
