title
 OpenBabel02282110003D

 14 14  0  0  1  0  0  0  0  0999 V2000
    0.8133    2.1626    0.1249 N   0  0  0  0  0  0  0  0  0  0  0  0
    0.8812    0.7989    0.3216 C   0  0  0  0  0  0  0  0  0  0  0  0
    1.8334    0.1189    0.0195 O   0  0  0  0  0  0  0  0  0  0  0  0
   -0.2675    0.2850    0.9581 N   0  0  0  0  0  0  0  0  0  0  0  0
   -1.6215    0.4686    0.4765 C   0  0  0  0  0  0  0  0  0  0  0  0
   -0.9757   -0.8970    0.4842 C   0  0  1  0  0  0  0  0  0  0  0  0
   -0.6460   -1.5284   -0.7646 C   0  0  0  0  0  0  0  0  0  0  0  0
   -0.4079   -2.0884   -1.8005 C   0  0  0  0  0  0  0  0  0  0  0  0
    1.7031    2.5992   -0.0591 H   0  0  0  0  0  0  0  0  0  0  0  0
    0.1708    2.6968    0.6882 H   0  0  0  0  0  0  0  0  0  0  0  0
   -2.3699    0.7127    1.2264 H   0  0  0  0  0  0  0  0  0  0  0  0
   -1.7589    0.9327   -0.4967 H   0  0  0  0  0  0  0  0  0  0  0  0
   -1.2521   -1.5824    1.2823 H   0  0  0  0  0  0  0  0  0  0  0  0
   -0.1708   -2.5755   -2.7139 H   0  0  0  0  0  0  0  0  0  0  0  0
  1  2  1  0  0  0  0
  1 10  1  0  0  0  0
  2  4  1  0  0  0  0
  3  2  2  0  0  0  0
  5  6  1  0  0  0  0
  5  4  1  0  0  0  0
  5 11  1  0  0  0  0
  6  4  1  0  0  0  0
  6 13  1  1  0  0  0
  7  6  1  0  0  0  0
  8  7  3  0  0  0  0
  9  1  1  0  0  0  0
 12  5  1  0  0  0  0
 14  8  1  0  0  0  0
M  END
