15
title
C 0.844218 2.211687 0.22783811
C 0.83326966 0.72105116 0.49058482
O 1.8053169 0.008784488 0.42529106
N -0.40877903 0.22387923 0.9170148
C -1.6881611 0.3384388 0.284695
C -1.0026335 -1.0075077 0.44699898
C -0.46814477 -1.6230757 -0.8160039
O -0.1149552 -0.97539836 -1.7688488
H 1.8728588 2.5708032 0.25432566
H 0.4319573 2.4035974 -0.7692176
H 0.23287128 2.7527392 0.9545259
H -2.5282779 0.5854314 0.928515
H -1.7283053 0.71762764 -0.73371255
H -1.338345 -1.6998284 1.2148452
H -0.43939745 -2.732343 -0.8228679
