title
 OpenBabel02282110003D

 15 15  0  0  1  0  0  0  0  0999 V2000
    1.7448    2.0410    0.8992 C   0  0  0  0  0  0  0  0  0  0  0  0
    0.7997    0.8656    0.7611 C   0  0  0  0  0  0  0  0  0  0  0  0
   -0.0175    0.5817    1.6050 O   0  0  0  0  0  0  0  0  0  0  0  0
    0.9387    0.0642   -0.5119 C   0  0  1  0  0  0  0  0  0  0  0  0
    0.9192   -1.3983   -0.3745 N   0  0  0  0  0  0  0  0  0  0  0  0
   -0.1989   -0.7603   -1.0664 C   0  0  1  0  0  0  0  0  0  0  0  0
   -1.5382   -0.8580   -0.3940 C   0  0  0  0  0  0  0  0  0  0  0  0
   -2.5620   -0.6035   -0.9779 O   0  0  0  0  0  0  0  0  0  0  0  0
    2.7855    1.6990    0.8537 H   0  0  0  0  0  0  0  0  0  0  0  0
    1.6037    2.7391    0.0654 H   0  0  0  0  0  0  0  0  0  0  0  0
    1.5645    2.5543    1.8437 H   0  0  0  0  0  0  0  0  0  0  0  0
    1.6086    0.4892   -1.2570 H   0  0  0  0  0  0  0  0  0  0  0  0
    1.5629   -1.8216   -1.0378 H   0  0  0  0  0  0  0  0  0  0  0  0
   -0.2560   -0.7955   -2.1527 H   0  0  0  0  0  0  0  0  0  0  0  0
   -1.5062   -1.2036    0.6535 H   0  0  0  0  0  0  0  0  0  0  0  0
  1 11  1  0  0  0  0
  2  1  1  0  0  0  0
  2  3  2  0  0  0  0
  4  6  1  6  0  0  0
  4  5  1  0  0  0  0
  4  2  1  0  0  0  0
  6 14  1  6  0  0  0
  6  7  1  0  0  0  0
  6  5  1  0  0  0  0
  7 15  1  0  0  0  0
  8  7  2  0  0  0  0
  9  1  1  0  0  0  0
 10  1  1  0  0  0  0
 12  4  1  0  0  0  0
 13  5  1  0  0  0  0
M  END
