15
title
N 0.26365954 2.5219753 0.53529984
C 0.2973346 1.3658848 -0.18704574
O 1.2624714 1.0429704 -0.8575488
C -0.9598377 0.5453214 -0.110569276
C -1.223119 -0.43499446 -1.2106477
C -0.8776232 -0.9689456 0.1597508
C 0.41892767 -1.6651243 0.38471517
O 0.5373346 -2.577128 1.1684912
H 1.1041094 3.0756092 0.57444966
H -0.47884274 2.7311947 1.1790061
H -1.8165128 1.0283628 0.34823686
H -2.2393897 -0.56533957 -1.5621282
H -0.44673997 -0.4962021 -1.965753
H -1.6850567 -1.3722752 0.7617387
H 1.2662235 -1.2994527 -0.2249846
