title
 OpenBabel02282110003D

 14 14  0  0  1  0  0  0  0  0999 V2000
    0.8276    2.0756    0.2620 N   0  0  0  0  0  0  0  0  0  0  0  0
    0.8098    0.7249    0.4980 C   0  0  0  0  0  0  0  0  0  0  0  0
    1.7724   -0.0017    0.3985 O   0  0  0  0  0  0  0  0  0  0  0  0
   -0.4523    0.2640    0.9384 N   0  0  0  0  0  0  0  0  0  0  0  0
   -1.6840    0.3618    0.1922 C   0  0  0  0  0  0  0  0  0  0  0  0
   -1.0210   -0.9721    0.4295 C   0  0  1  0  0  0  0  0  0  0  0  0
   -0.3895   -1.6290   -0.7713 C   0  0  0  0  0  0  0  0  0  0  0  0
   -0.1369   -1.0441   -1.7930 O   0  0  0  0  0  0  0  0  0  0  0  0
    1.7435    2.4889    0.1931 H   0  0  0  0  0  0  0  0  0  0  0  0
    0.0966    2.6523    0.6445 H   0  0  0  0  0  0  0  0  0  0  0  0
   -2.5700    0.6283    0.7622 H   0  0  0  0  0  0  0  0  0  0  0  0
   -1.6300    0.7267   -0.8304 H   0  0  0  0  0  0  0  0  0  0  0  0
   -1.3994   -1.6491    1.1915 H   0  0  0  0  0  0  0  0  0  0  0  0
   -0.1919   -2.7149   -0.6579 H   0  0  0  0  0  0  0  0  0  0  0  0
  1  2  1  0  0  0  0
  1 10  1  0  0  0  0
  2  4  1  0  0  0  0
  3  2  2  0  0  0  0
  5  6  1  0  0  0  0
  5 11  1  0  0  0  0
  5  4  1  0  0  0  0
  6  4  1  0  0  0  0
  6 13  1  1  0  0  0
  7 14  1  0  0  0  0
  7  6  1  0  0  0  0
  8  7  2  0  0  0  0
  9  1  1  0  0  0  0
 12  5  1  0  0  0  0
M  END
