title
 OpenBabel02282110003D

 19 19  0  0  1  0  0  0  0  0999 V2000
    1.2076    1.3235    0.6261 C   0  0  0  0  0  0  0  0  0  0  0  0
    0.9198   -0.1750    0.7845 C   0  0  0  0  0  0  0  0  0  0  0  0
    1.4242   -0.6886    2.1376 C   0  0  0  0  0  0  0  0  0  0  0  0
   -0.4977   -0.5880    0.6655 N   0  0  0  0  0  0  0  0  0  0  0  0
   -1.5729    0.3660    0.4787 C   0  0  0  0  0  0  0  0  0  0  0  0
   -1.1916   -0.5697   -0.6308 C   0  0  1  0  0  0  0  0  0  0  0  0
   -0.5664   -0.0745   -1.8275 C   0  0  0  0  0  0  0  0  0  0  0  0
   -0.0406    0.2776   -2.8514 C   0  0  0  0  0  0  0  0  0  0  0  0
    2.2862    1.4954    0.6977 H   0  0  0  0  0  0  0  0  0  0  0  0
    0.8749    1.7075   -0.3410 H   0  0  0  0  0  0  0  0  0  0  0  0
    0.7278    1.9054    1.4210 H   0  0  0  0  0  0  0  0  0  0  0  0
    1.4534   -0.7102   -0.0104 H   0  0  0  0  0  0  0  0  0  0  0  0
    0.8998   -0.1882    2.9591 H   0  0  0  0  0  0  0  0  0  0  0  0
    1.2463   -1.7627    2.2304 H   0  0  0  0  0  0  0  0  0  0  0  0
    2.4962   -0.4975    2.2528 H   0  0  0  0  0  0  0  0  0  0  0  0
   -2.4806    0.1780    1.0477 H   0  0  0  0  0  0  0  0  0  0  0  0
   -1.3375    1.4160    0.3279 H   0  0  0  0  0  0  0  0  0  0  0  0
   -1.8121   -1.4491   -0.7954 H   0  0  0  0  0  0  0  0  0  0  0  0
    0.4175    0.6024   -3.7527 H   0  0  0  0  0  0  0  0  0  0  0  0
  1  9  1  0  0  0  0
  1  2  1  0  0  0  0
  1 11  1  0  0  0  0
  2  3  1  0  0  0  0
  3 14  1  0  0  0  0
  3 15  1  0  0  0  0
  3 13  1  0  0  0  0
  4  2  1  0  0  0  0
  5  4  1  0  0  0  0
  5 16  1  0  0  0  0
  6 18  1  6  0  0  0
  6  5  1  0  0  0  0
  6  4  1  0  0  0  0
  7  6  1  0  0  0  0
  8  7  3  0  0  0  0
 10  1  1  0  0  0  0
 12  2  1  0  0  0  0
 17  5  1  0  0  0  0
 19  8  1  0  0  0  0
M  END
