18
title
C 0.52137965 2.4663293 -0.32070023
C 0.59629196 1.0445144 0.2539449
C 1.2058337 1.024669 1.6629018
C -0.78237164 0.42258543 0.27623746
O -1.3519433 0.028590312 -0.9696728
C -1.0403907 -1.0056921 -0.018526752
C 0.010181839 -1.9292203 -0.35494056
C 0.8677174 -2.7323518 -0.61047345
H 1.5192537 2.910927 -0.3879026
H 0.08105569 2.458828 -1.3218368
H -0.09095723 3.1170409 0.31496522
H 1.2186053 0.4321593 -0.40795997
H 0.5892193 1.5936352 2.3687975
H 1.2983788 0.0023579502 2.0422735
H 2.2028706 1.4755609 1.6584475
H -1.494448 0.90786296 0.9502839
H -1.9199457 -1.4646927 0.4329408
H 1.626593 -3.437277 -0.8457392
