title
 OpenBabel02282110003D

 19 19  0  0  1  0  0  0  0  0999 V2000
    0.4977    2.5188   -0.2729 C   0  0  0  0  0  0  0  0  0  0  0  0
    0.5701    1.0670    0.2192 C   0  0  0  0  0  0  0  0  0  0  0  0
    1.2023    0.9637    1.6137 C   0  0  0  0  0  0  0  0  0  0  0  0
   -0.8102    0.4433    0.2159 C   0  0  1  0  0  0  0  0  0  0  0  0
   -1.3463    0.0090   -1.0755 N   0  0  0  0  0  0  0  0  0  0  0  0
   -1.0443   -1.0149   -0.0422 C   0  0  1  0  0  0  0  0  0  0  0  0
    0.0238   -1.9394   -0.3082 C   0  0  0  0  0  0  0  0  0  0  0  0
    0.9083   -2.7329   -0.4935 C   0  0  0  0  0  0  0  0  0  0  0  0
    1.4958    2.9658   -0.3210 H   0  0  0  0  0  0  0  0  0  0  0  0
    0.0523    2.5682   -1.2708 H   0  0  0  0  0  0  0  0  0  0  0  0
   -0.1089    3.1357    0.4018 H   0  0  0  0  0  0  0  0  0  0  0  0
    1.1827    0.4938   -0.4856 H   0  0  0  0  0  0  0  0  0  0  0  0
    0.6045    1.5008    2.3603 H   0  0  0  0  0  0  0  0  0  0  0  0
    1.2850   -0.0796    1.9333 H   0  0  0  0  0  0  0  0  0  0  0  0
    2.2059    1.4005    1.6196 H   0  0  0  0  0  0  0  0  0  0  0  0
   -1.5105    0.8984    0.9188 H   0  0  0  0  0  0  0  0  0  0  0  0
   -2.3520    0.1518   -1.1199 H   0  0  0  0  0  0  0  0  0  0  0  0
   -1.8939   -1.4571    0.4745 H   0  0  0  0  0  0  0  0  0  0  0  0
    1.6897   -3.4294   -0.6716 H   0  0  0  0  0  0  0  0  0  0  0  0
  1  2  1  0  0  0  0
  1 11  1  0  0  0  0
  2  3  1  0  0  0  0
  3 15  1  0  0  0  0
  3 14  1  0  0  0  0
  3 13  1  0  0  0  0
  4  6  1  1  0  0  0
  4  2  1  0  0  0  0
  4 16  1  0  0  0  0
  5  6  1  0  0  0  0
  5  4  1  0  0  0  0
  6 18  1  1  0  0  0
  7  6  1  0  0  0  0
  8  7  3  0  0  0  0
  9  1  1  0  0  0  0
 10  1  1  0  0  0  0
 12  2  1  0  0  0  0
 17  5  1  0  0  0  0
 19  8  1  0  0  0  0
M  END
