title
 OpenBabel02282110003D

 13 13  0  0  1  0  0  0  0  0999 V2000
    1.0440    1.3367   -2.0213 N   0  0  0  0  0  0  0  0  0  0  0  0
    0.8749    0.4699   -0.9856 C   0  0  0  0  0  0  0  0  0  0  0  0
    1.7386    0.2266   -0.1681 O   0  0  0  0  0  0  0  0  0  0  0  0
   -0.5075   -0.1513   -0.9327 C   0  0  1  0  0  0  0  0  0  0  0  0
   -0.5810   -1.4893   -0.4793 O   0  0  0  0  0  0  0  0  0  0  0  0
   -1.1551   -0.4935    0.3630 C   0  0  1  0  0  0  0  0  0  0  0  0
   -0.4913   -0.2638    1.6931 C   0  0  0  0  0  0  0  0  0  0  0  0
   -1.0750    0.2824    2.5954 O   0  0  0  0  0  0  0  0  0  0  0  0
    1.9442    1.7748   -2.1314 H   0  0  0  0  0  0  0  0  0  0  0  0
    0.3557    1.4640   -2.7421 H   0  0  0  0  0  0  0  0  0  0  0  0
   -1.1769    0.0809   -1.7635 H   0  0  0  0  0  0  0  0  0  0  0  0
   -2.2443   -0.4645    0.3952 H   0  0  0  0  0  0  0  0  0  0  0  0
    0.5410   -0.6439    1.7695 H   0  0  0  0  0  0  0  0  0  0  0  0
  1  2  1  0  0  0  0
  2  4  1  0  0  0  0
  2  3  2  0  0  0  0
  4  5  1  0  0  0  0
  4  6  1  1  0  0  0
  5  6  1  0  0  0  0
  6 12  1  1  0  0  0
  6  7  1  0  0  0  0
  7 13  1  0  0  0  0
  7  8  2  0  0  0  0
  9  1  1  0  0  0  0
 10  1  1  0  0  0  0
 11  4  1  0  0  0  0
M  END
