18
title
C 0.50778556 2.5165312 -0.2931782
C 0.51758957 1.0562447 0.16517389
O 1.0983758 0.92463005 1.4592003
C -0.8678148 0.4430387 0.116867945
C -1.4357197 -0.094111905 -1.1645473
C -1.0655096 -1.0581957 -0.045299333
C 0.05028686 -1.9452201 -0.20148844
C 0.97328496 -2.704852 -0.33717856
H 1.5145739 2.937699 -0.22832401
H 0.15335241 2.6067429 -1.3246418
H -0.15622112 3.1185493 0.34041587
H 1.1770741 0.47491455 -0.48834038
H 0.5731702 1.451835 2.0715094
H -1.5799546 0.9192204 0.78939587
H -2.4881656 0.052657735 -1.379309
H -0.7923316 -0.10003494 -2.037788
H -1.8990242 -1.4797417 0.5092369
H 1.7939289 -3.3694642 -0.4451984
