title
 OpenBabel02282110003D

 18 18  0  0  1  0  0  0  0  0999 V2000
    0.5078    2.5165   -0.2932 C   0  0  0  0  0  0  0  0  0  0  0  0
    0.5176    1.0562    0.1652 C   0  0  1  0  0  0  0  0  0  0  0  0
    1.0984    0.9246    1.4592 O   0  0  0  0  0  0  0  0  0  0  0  0
   -0.8678    0.4430    0.1169 C   0  0  1  0  0  0  0  0  0  0  0  0
   -1.4357   -0.0941   -1.1645 C   0  0  0  0  0  0  0  0  0  0  0  0
   -1.0655   -1.0582   -0.0453 C   0  0  1  0  0  0  0  0  0  0  0  0
    0.0503   -1.9452   -0.2015 C   0  0  0  0  0  0  0  0  0  0  0  0
    0.9733   -2.7049   -0.3372 C   0  0  0  0  0  0  0  0  0  0  0  0
    1.5146    2.9377   -0.2283 H   0  0  0  0  0  0  0  0  0  0  0  0
    0.1534    2.6067   -1.3246 H   0  0  0  0  0  0  0  0  0  0  0  0
   -0.1562    3.1185    0.3404 H   0  0  0  0  0  0  0  0  0  0  0  0
    1.1771    0.4749   -0.4883 H   0  0  0  0  0  0  0  0  0  0  0  0
    0.5732    1.4518    2.0715 H   0  0  0  0  0  0  0  0  0  0  0  0
   -1.5800    0.9192    0.7894 H   0  0  0  0  0  0  0  0  0  0  0  0
   -2.4882    0.0527   -1.3793 H   0  0  0  0  0  0  0  0  0  0  0  0
   -0.7923   -0.1000   -2.0378 H   0  0  0  0  0  0  0  0  0  0  0  0
   -1.8990   -1.4797    0.5092 H   0  0  0  0  0  0  0  0  0  0  0  0
    1.7939   -3.3695   -0.4452 H   0  0  0  0  0  0  0  0  0  0  0  0
  1  9  1  0  0  0  0
  1  2  1  0  0  0  0
  1 11  1  0  0  0  0
  2 12  1  6  0  0  0
  2  3  1  0  0  0  0
  3 13  1  0  0  0  0
  4  6  1  1  0  0  0
  4  2  1  0  0  0  0
  4 14  1  0  0  0  0
  5  6  1  0  0  0  0
  5  4  1  0  0  0  0
  6 17  1  1  0  0  0
  7  6  1  0  0  0  0
  8  7  3  0  0  0  0
 10  1  1  0  0  0  0
 15  5  1  0  0  0  0
 16  5  1  0  0  0  0
 18  8  1  0  0  0  0
M  END
