19
title
C 0.82413393 1.7395505 1.972702
C 0.84406 0.6550481 0.8862374
C 1.8916131 -0.42738402 1.1793058
C -0.5377795 0.04101883 0.752339
N -1.5344051 0.7517924 -0.033848375
C -1.0845941 -0.5764102 -0.5077424
C -0.3208031 -0.58396673 -1.7856609
O -0.1901136 -1.5626115 -2.4786198
H 1.8027251 2.221216 2.0631955
H 0.083807886 2.5105953 1.7397392
H 0.5734795 1.3113528 2.9509902
H 1.0918126 1.1378064 -0.065663725
H 1.6719297 -0.94305104 2.1218228
H 1.9225526 -1.181287 0.38628632
H 2.8901587 0.011406766 1.2687455
H -0.88257116 -0.45434242 1.6624644
H -2.4615452 0.6790033 0.3750955
H -1.736329 -1.4380126 -0.38365385
H 0.12006599 0.39755505 -2.0635505
