17
title
C 0.5235786 2.53574 -0.2661835
C 0.5253673 1.0655007 0.15663587
O 1.1112303 0.88944685 1.4398857
C -0.8694979 0.46871677 0.10583499
C -1.43678 -0.08067147 -1.1677556
C -1.0778067 -1.0319859 -0.034215786
C 0.044437923 -1.9156543 -0.18896858
N 0.9383057 -2.637081 -0.32747567
H 1.5359714 2.943074 -0.20601001
H 0.15631436 2.6548934 -1.2900637
H -0.12450238 3.1288972 0.3916787
H 1.1732426 0.4961904 -0.51975185
H 0.6398047 1.4542109 2.062487
H -1.579022 0.94911253 0.77705836
H -2.4894984 0.056830246 -1.3851117
H -0.79301524 -0.10279063 -2.0402858
H -1.9000615 -1.4652144 0.5248737
