title
 OpenBabel02282110003D

 16 16  0  0  1  0  0  0  0  0999 V2000
    1.1541    1.3002   -0.5829 C   0  0  0  0  0  0  0  0  0  0  0  0
    0.6053    0.9119    0.7870 C   0  0  1  0  0  0  0  0  0  0  0  0
    0.3670    2.0636    1.5963 O   0  0  0  0  0  0  0  0  0  0  0  0
   -0.6673    0.0722    0.7495 C   0  0  1  0  0  0  0  0  0  0  0  0
   -1.4759    0.0767   -0.4281 O   0  0  0  0  0  0  0  0  0  0  0  0
   -0.8871   -1.1715   -0.0227 C   0  0  1  0  0  0  0  0  0  0  0  0
    0.0889   -1.7915   -0.8783 C   0  0  0  0  0  0  0  0  0  0  0  0
    0.8690   -2.3894   -1.5710 C   0  0  0  0  0  0  0  0  0  0  0  0
    2.0241    1.9472   -0.4458 H   0  0  0  0  0  0  0  0  0  0  0  0
    1.4500    0.4235   -1.1616 H   0  0  0  0  0  0  0  0  0  0  0  0
    0.3955    1.8382   -1.1603 H   0  0  0  0  0  0  0  0  0  0  0  0
    1.3601    0.3429    1.3438 H   0  0  0  0  0  0  0  0  0  0  0  0
   -0.2037    2.6569    1.0946 H   0  0  0  0  0  0  0  0  0  0  0  0
   -1.2354    0.1592    1.6778 H   0  0  0  0  0  0  0  0  0  0  0  0
   -1.6103   -1.8749    0.3918 H   0  0  0  0  0  0  0  0  0  0  0  0
    1.5646   -2.9020   -2.1890 H   0  0  0  0  0  0  0  0  0  0  0  0
  1  9  1  0  0  0  0
  1  2  1  0  0  0  0
  2 12  1  1  0  0  0
  2  3  1  0  0  0  0
  4  6  1  1  0  0  0
  4  2  1  0  0  0  0
  4 14  1  0  0  0  0
  5  6  1  0  0  0  0
  5  4  1  0  0  0  0
  6 15  1  1  0  0  0
  7  6  1  0  0  0  0
  8  7  3  0  0  0  0
 10  1  1  0  0  0  0
 11  1  1  0  0  0  0
 13  3  1  0  0  0  0
 16  8  1  0  0  0  0
M  END
