16
title
C 1.6649617 -0.046627805 -1.5116488
C 0.7336741 1.0120596 -0.9646502
O 1.0471938 2.1731567 -0.8384835
C -0.6872521 0.6035506 -0.6371836
O -1.0437905 -0.7787864 -0.68244463
C -1.0744597 -0.11894469 0.5914439
C -0.10892351 -0.6190223 1.636762
O -0.5474171 -1.8499134 2.1822076
H 2.6781905 0.3518073 -1.571837
H 1.6381358 -0.9626941 -0.9179651
H 1.322798 -0.32609925 -2.5160549
H -1.42495 1.2910281 -1.0524513
H -2.0846295 0.052738234 0.9662086
H 0.90618026 -0.6950479 1.2235478
H -0.07469888 0.0925874 2.468511
H -0.61790675 -2.4760349 1.4528633
