18
title
C 0.61193734 2.1217902 0.8310924
C 0.50277245 1.4096079 -0.5160285
O 1.6402434 0.5898543 -0.77371395
C -0.80611926 0.6425388 -0.6551873
C -0.9507262 -0.55089694 -1.5305344
C -1.0894767 -0.72724324 -0.021550726
C -0.06907005 -1.5108764 0.712575
O -0.2722085 -2.050415 1.7753295
H 1.5345509 2.7079694 0.880176
H -0.23237224 2.799995 0.9865823
H 0.6091249 1.3972129 1.654275
H 0.502385 2.1666431 -1.3134321
H 2.0497038 0.36654505 0.06778594
H -1.668744 1.3036594 -0.60750514
H -1.8419334 -0.67107385 -2.1355076
H -0.03782571 -0.94197744 -1.9673814
H -2.0860834 -0.8507474 0.3897098
H 0.91405773 -1.5984325 0.20375848
