18
title
C 0.2719669 2.884006 -0.36229938
C 0.39172992 1.3795818 -0.52696425
O 1.4533597 0.85319495 -0.79498494
C -0.8744153 0.6063441 -0.34918672
C -1.0232036 -0.73063064 -1.0611869
C -0.90363824 -0.7171552 0.42269033
C 0.31222355 -1.274817 1.1191357
O 0.07512139 -2.6670153 1.3058943
H 1.2473282 3.3527699 -0.4957692
H -0.4356459 3.2884738 -1.0954828
H -0.12675683 3.1278498 0.6291801
H -1.7671739 1.2144377 -0.24762738
H -1.9805838 -0.9529779 -1.5179726
H -0.1504149 -1.0465968 -1.6225903
H -1.8227757 -0.8737645 0.98089945
H 1.2067851 -1.0898008 0.5147839
H 0.44902164 -0.7673693 2.0883949
H 0.8702458 -3.050896 1.6868504
