17
title
C 2.073794 1.667215 1.2160296
C 1.0331517 0.58714443 0.9829133
O 0.27114174 0.22703883 1.8502043
C 1.0128076 0.013871913 -0.4109524
N 0.4381244 -1.3322012 -0.5927022
C -0.25817505 -0.196758 -1.1910833
C -1.6444271 0.068977036 -0.64801246
O -2.5589416 -0.89055496 -1.1591915
H 1.9692471 2.0713346 2.2231028
H 3.0813892 1.2537541 1.0884295
H 1.9656744 2.470882 0.4783253
H 1.881895 0.27307892 -1.0128348
H 0.97837496 -1.8386693 -1.2890216
H -0.16596642 -0.06328466 -2.268549
H -1.6204672 0.06611364 0.44613355
H -2.0012298 1.0462769 -0.9898229
H -2.2838616 -1.7410076 -0.798492
