title
 OpenBabel02282110003D

 16 16  0  0  1  0  0  0  0  0999 V2000
    0.3593    2.3087    1.0215 C   0  0  0  0  0  0  0  0  0  0  0  0
    0.4982    1.3943   -0.1959 C   0  0  1  0  0  0  0  0  0  0  0  0
    1.5819    0.4851   -0.0607 O   0  0  0  0  0  0  0  0  0  0  0  0
   -0.8147    0.6842   -0.4940 C   0  0  1  0  0  0  0  0  0  0  0  0
   -0.8642   -0.2192   -1.5887 O   0  0  0  0  0  0  0  0  0  0  0  0
   -1.0459   -0.7631   -0.2807 C   0  0  1  0  0  0  0  0  0  0  0  0
    0.0219   -1.7086    0.1964 C   0  0  0  0  0  0  0  0  0  0  0  0
   -0.0090   -2.2208    1.2887 O   0  0  0  0  0  0  0  0  0  0  0  0
    1.3041    2.8251    1.2098 H   0  0  0  0  0  0  0  0  0  0  0  0
   -0.4189    3.0622    0.8675 H   0  0  0  0  0  0  0  0  0  0  0  0
    0.0927    1.7301    1.9144 H   0  0  0  0  0  0  0  0  0  0  0  0
    0.7387    2.0011   -1.0790 H   0  0  0  0  0  0  0  0  0  0  0  0
    1.6685    0.2534    0.8710 H   0  0  0  0  0  0  0  0  0  0  0  0
   -1.6916    1.3329   -0.4223 H   0  0  0  0  0  0  0  0  0  0  0  0
   -2.0597   -1.0792   -0.0302 H   0  0  0  0  0  0  0  0  0  0  0  0
    0.8085   -1.9229   -0.5514 H   0  0  0  0  0  0  0  0  0  0  0  0
  1  9  1  0  0  0  0
  1 11  1  0  0  0  0
  2 12  1  6  0  0  0
  2  3  1  0  0  0  0
  2  1  1  0  0  0  0
  3 13  1  0  0  0  0
  4 14  1  0  0  0  0
  4  6  1  1  0  0  0
  4  2  1  0  0  0  0
  5  4  1  0  0  0  0
  5  6  1  0  0  0  0
  6 15  1  1  0  0  0
  6  7  1  0  0  0  0
  7  8  2  0  0  0  0
 10  1  1  0  0  0  0
 16  7  1  0  0  0  0
M  END
