18
title
C -0.0076394444 2.191249 1.5412862
C 0.21393885 0.6862504 1.7310585
C 1.1599325 0.09310233 0.7077303
C 1.1644338 -1.37861 0.41804913
N 0.70939106 -0.41797906 -0.5769384
C -0.60421634 -0.33895308 -1.0522077
N -1.0629046 -1.5339664 -1.5692065
O -1.2673429 0.67871857 -1.050528
H 0.94172275 2.7368279 1.5872704
H -0.47365788 2.3806853 0.57263494
H -0.65660673 2.589641 2.327147
H 0.6398511 0.49240658 2.7245562
H -0.7450572 0.15884887 1.69033
H 2.1180818 0.6081842 0.63701355
H 2.0927238 -1.8990148 0.19437005
H 0.4064974 -1.9824697 0.9131129
H -0.3818291 -2.2210946 -1.8510888
H -1.8690102 -1.4435436 -2.1677196
