title
 OpenBabel02282110003D

 18 18  0  0  1  0  0  0  0  0999 V2000
   -0.6261    2.9812   -0.2340 C   0  0  0  0  0  0  0  0  0  0  0  0
   -0.7914    1.4650   -0.1728 C   0  0  0  0  0  0  0  0  0  0  0  0
    0.3352    0.8258   -0.8632 N   0  0  0  0  0  0  0  0  0  0  0  0
    1.5269    0.5175   -0.1021 C   0  0  0  0  0  0  0  0  0  0  0  0
    0.6613   -0.5870   -0.6214 C   0  0  1  0  0  0  0  0  0  0  0  0
   -0.0936   -1.4143    0.3856 C   0  0  0  0  0  0  0  0  0  0  0  0
   -0.4519   -2.6512   -0.0691 N   0  0  0  0  0  0  0  0  0  0  0  0
   -0.3591   -1.0352    1.5137 O   0  0  0  0  0  0  0  0  0  0  0  0
    0.2729    3.2991    0.3046 H   0  0  0  0  0  0  0  0  0  0  0  0
   -0.5384    3.3231   -1.2694 H   0  0  0  0  0  0  0  0  0  0  0  0
   -1.4858    3.4773    0.2267 H   0  0  0  0  0  0  0  0  0  0  0  0
   -0.8913    1.1268    0.8650 H   0  0  0  0  0  0  0  0  0  0  0  0
   -1.7040    1.1682   -0.7039 H   0  0  0  0  0  0  0  0  0  0  0  0
    2.4785    0.7238   -0.5853 H   0  0  0  0  0  0  0  0  0  0  0  0
    1.4968    0.6584    0.9769 H   0  0  0  0  0  0  0  0  0  0  0  0
    0.9661   -1.1165   -1.5228 H   0  0  0  0  0  0  0  0  0  0  0  0
   -0.3371   -2.9247   -1.0288 H   0  0  0  0  0  0  0  0  0  0  0  0
   -1.0025   -3.2358    0.5382 H   0  0  0  0  0  0  0  0  0  0  0  0
  1  2  1  0  0  0  0
  1 11  1  0  0  0  0
  1  9  1  0  0  0  0
  2 12  1  0  0  0  0
  3  5  1  0  0  0  0
  3  2  1  0  0  0  0
  3  4  1  0  0  0  0
  4 15  1  0  0  0  0
  5 16  1  6  0  0  0
  5  4  1  0  0  0  0
  5  6  1  0  0  0  0
  6  8  2  0  0  0  0
  7  6  1  0  0  0  0
  7 18  1  0  0  0  0
 10  1  1  0  0  0  0
 13  2  1  0  0  0  0
 14  4  1  0  0  0  0
 17  7  1  0  0  0  0
M  END
