title
 OpenBabel02282110003D

 17 17  0  0  1  0  0  0  0  0999 V2000
    1.2438    2.6003    0.9692 C   0  0  0  0  0  0  0  0  0  0  0  0
    0.1334    1.5470    0.8642 C   0  0  0  0  0  0  0  0  0  0  0  0
   -0.0880    1.1067   -0.5613 C   0  0  1  0  0  0  0  0  0  0  0  0
    0.8886    0.2395   -1.1603 O   0  0  0  0  0  0  0  0  0  0  0  0
   -0.4408   -0.2637   -0.9835 C   0  0  1  0  0  0  0  0  0  0  0  0
   -0.6475   -1.4057   -0.0147 C   0  0  0  0  0  0  0  0  0  0  0  0
    0.4834   -1.8079    0.6260 N   0  0  0  0  0  0  0  0  0  0  0  0
   -1.7477   -1.8959    0.1467 O   0  0  0  0  0  0  0  0  0  0  0  0
    2.1938    2.2006    0.6017 H   0  0  0  0  0  0  0  0  0  0  0  0
    1.0053    3.4910    0.3778 H   0  0  0  0  0  0  0  0  0  0  0  0
    1.3856    2.9162    2.0066 H   0  0  0  0  0  0  0  0  0  0  0  0
    0.3722    0.6797    1.4857 H   0  0  0  0  0  0  0  0  0  0  0  0
   -0.8116    1.9587    1.2403 H   0  0  0  0  0  0  0  0  0  0  0  0
   -0.4097    1.9038   -1.2356 H   0  0  0  0  0  0  0  0  0  0  0  0
   -1.0248   -0.3838   -1.8946 H   0  0  0  0  0  0  0  0  0  0  0  0
    1.3737   -1.4413    0.3320 H   0  0  0  0  0  0  0  0  0  0  0  0
    0.4405   -2.6255    1.2115 H   0  0  0  0  0  0  0  0  0  0  0  0
  1 11  1  0  0  0  0
  2  1  1  0  0  0  0
  2 13  1  0  0  0  0
  2 12  1  0  0  0  0
  3  5  1  1  0  0  0
  3  2  1  0  0  0  0
  4  5  1  0  0  0  0
  4  3  1  0  0  0  0
  5 15  1  6  0  0  0
  5  6  1  0  0  0  0
  6  8  2  0  0  0  0
  6  7  1  0  0  0  0
  7 17  1  0  0  0  0
  9  1  1  0  0  0  0
 10  1  1  0  0  0  0
 14  3  1  0  0  0  0
 16  7  1  0  0  0  0
M  END
