title
 OpenBabel02282110003D

 18 18  0  0  1  0  0  0  0  0999 V2000
   -0.0076    2.1912    1.5413 C   0  0  0  0  0  0  0  0  0  0  0  0
    0.2139    0.6863    1.7311 C   0  0  0  0  0  0  0  0  0  0  0  0
    1.1599    0.0931    0.7077 C   0  0  1  0  0  0  0  0  0  0  0  0
    1.1644   -1.3786    0.4180 C   0  0  0  0  0  0  0  0  0  0  0  0
    0.7094   -0.4180   -0.5769 N   0  0  0  0  0  0  0  0  0  0  0  0
   -0.6042   -0.3390   -1.0522 C   0  0  0  0  0  0  0  0  0  0  0  0
   -1.0629   -1.5340   -1.5692 N   0  0  0  0  0  0  0  0  0  0  0  0
   -1.2673    0.6787   -1.0505 O   0  0  0  0  0  0  0  0  0  0  0  0
    0.9417    2.7368    1.5873 H   0  0  0  0  0  0  0  0  0  0  0  0
   -0.4737    2.3807    0.5726 H   0  0  0  0  0  0  0  0  0  0  0  0
   -0.6566    2.5896    2.3271 H   0  0  0  0  0  0  0  0  0  0  0  0
    0.6399    0.4924    2.7246 H   0  0  0  0  0  0  0  0  0  0  0  0
   -0.7451    0.1588    1.6903 H   0  0  0  0  0  0  0  0  0  0  0  0
    2.1181    0.6082    0.6370 H   0  0  0  0  0  0  0  0  0  0  0  0
    2.0927   -1.8990    0.1944 H   0  0  0  0  0  0  0  0  0  0  0  0
    0.4065   -1.9825    0.9131 H   0  0  0  0  0  0  0  0  0  0  0  0
   -0.3818   -2.2211   -1.8511 H   0  0  0  0  0  0  0  0  0  0  0  0
   -1.8690   -1.4435   -2.1677 H   0  0  0  0  0  0  0  0  0  0  0  0
  1  9  1  0  0  0  0
  1  2  1  0  0  0  0
  1 11  1  0  0  0  0
  2 12  1  0  0  0  0
  3 14  1  6  0  0  0
  3  2  1  0  0  0  0
  4  3  1  0  0  0  0
  4 16  1  0  0  0  0
  5  4  1  0  0  0  0
  5  3  1  0  0  0  0
  6  8  2  0  0  0  0
  6  5  1  0  0  0  0
  7  6  1  0  0  0  0
 10  1  1  0  0  0  0
 13  2  1  0  0  0  0
 15  4  1  0  0  0  0
 17  7  1  0  0  0  0
 18  7  1  0  0  0  0
M  END
