title
 OpenBabel02282110003D

 20 20  0  0  1  0  0  0  0  0999 V2000
    0.5690    3.0757   -0.1243 C   0  0  0  0  0  0  0  0  0  0  0  0
    0.5990    1.6168    0.3478 C   0  0  0  0  0  0  0  0  0  0  0  0
   -0.7618    0.9611    0.2345 C   0  0  1  0  0  0  0  0  0  0  0  0
   -1.2387    0.3454   -1.0378 C   0  0  0  0  0  0  0  0  0  0  0  0
   -0.9555   -0.5617    0.1486 C   0  0  1  0  0  0  0  0  0  0  0  0
    0.2198   -1.4788    0.0864 C   0  0  0  0  0  0  0  0  0  0  0  0
    0.1589   -2.6932    0.9963 C   0  0  0  0  0  0  0  0  0  0  0  0
    1.1713   -1.2793   -0.6425 O   0  0  0  0  0  0  0  0  0  0  0  0
    1.5546    3.5405   -0.0240 H   0  0  0  0  0  0  0  0  0  0  0  0
    0.2708    3.1427   -1.1757 H   0  0  0  0  0  0  0  0  0  0  0  0
   -0.1412    3.6719    0.4600 H   0  0  0  0  0  0  0  0  0  0  0  0
    1.3266    1.0475   -0.2356 H   0  0  0  0  0  0  0  0  0  0  0  0
    0.9339    1.5783    1.3927 H   0  0  0  0  0  0  0  0  0  0  0  0
   -1.5317    1.4418    0.8352 H   0  0  0  0  0  0  0  0  0  0  0  0
   -2.2725    0.4671   -1.3410 H   0  0  0  0  0  0  0  0  0  0  0  0
   -0.5201    0.2647   -1.8471 H   0  0  0  0  0  0  0  0  0  0  0  0
   -1.8092   -0.9491    0.6951 H   0  0  0  0  0  0  0  0  0  0  0  0
   -0.7071   -3.3141    0.7386 H   0  0  0  0  0  0  0  0  0  0  0  0
    1.0728   -3.2796    0.8970 H   0  0  0  0  0  0  0  0  0  0  0  0
    0.0262   -2.3824    2.0390 H   0  0  0  0  0  0  0  0  0  0  0  0
  1  9  1  0  0  0  0
  1  2  1  0  0  0  0
  1 11  1  0  0  0  0
  2 13  1  0  0  0  0
  3  5  1  1  0  0  0
  3  2  1  0  0  0  0
  3 14  1  0  0  0  0
  4  5  1  0  0  0  0
  4  3  1  0  0  0  0
  5 17  1  1  0  0  0
  6  5  1  0  0  0  0
  6  7  1  0  0  0  0
  7 20  1  0  0  0  0
  8  6  2  0  0  0  0
 10  1  1  0  0  0  0
 12  2  1  0  0  0  0
 15  4  1  0  0  0  0
 16  4  1  0  0  0  0
 18  7  1  0  0  0  0
 19  7  1  0  0  0  0
M  END
