title
 OpenBabel02282110003D

 19 19  0  0  1  0  0  0  0  0999 V2000
   -0.3835    3.0694    0.4767 C   0  0  0  0  0  0  0  0  0  0  0  0
   -0.7179    1.5912    0.2441 C   0  0  0  0  0  0  0  0  0  0  0  0
    0.1966    0.9600   -0.7861 C   0  0  1  0  0  0  0  0  0  0  0  0
    1.5404    0.4130   -0.4195 C   0  0  0  0  0  0  0  0  0  0  0  0
    0.4551   -0.5460   -0.8658 C   0  0  1  0  0  0  0  0  0  0  0  0
   -0.1247   -1.4709    0.1587 C   0  0  0  0  0  0  0  0  0  0  0  0
   -0.6985   -2.6022   -0.3564 N   0  0  0  0  0  0  0  0  0  0  0  0
   -0.0810   -1.2651    1.3604 O   0  0  0  0  0  0  0  0  0  0  0  0
    0.6403    3.1874    0.8466 H   0  0  0  0  0  0  0  0  0  0  0  0
   -0.4700    3.6511   -0.4484 H   0  0  0  0  0  0  0  0  0  0  0  0
   -1.0601    3.5141    1.2131 H   0  0  0  0  0  0  0  0  0  0  0  0
   -0.6440    1.0336    1.1808 H   0  0  0  0  0  0  0  0  0  0  0  0
   -1.7591    1.5014   -0.0934 H   0  0  0  0  0  0  0  0  0  0  0  0
    0.1400    1.4272   -1.7677 H   0  0  0  0  0  0  0  0  0  0  0  0
    2.3841    0.5683   -1.0823 H   0  0  0  0  0  0  0  0  0  0  0  0
    1.7784    0.3609    0.6378 H   0  0  0  0  0  0  0  0  0  0  0  0
    0.5376   -0.9552   -1.8681 H   0  0  0  0  0  0  0  0  0  0  0  0
   -0.8775   -2.7047   -1.3398 H   0  0  0  0  0  0  0  0  0  0  0  0
   -1.1888   -3.2056    0.2837 H   0  0  0  0  0  0  0  0  0  0  0  0
  1  9  1  0  0  0  0
  1 11  1  0  0  0  0
  2  1  1  0  0  0  0
  2 12  1  0  0  0  0
  3  5  1  6  0  0  0
  3  4  1  0  0  0  0
  3  2  1  0  0  0  0
  4 16  1  0  0  0  0
  5 17  1  6  0  0  0
  5  4  1  0  0  0  0
  5  6  1  0  0  0  0
  6  8  2  0  0  0  0
  7  6  1  0  0  0  0
  7 19  1  0  0  0  0
 10  1  1  0  0  0  0
 13  2  1  0  0  0  0
 14  3  1  0  0  0  0
 15  4  1  0  0  0  0
 18  7  1  0  0  0  0
M  END
