title
 OpenBabel02282110003D

 17 17  0  0  1  0  0  0  0  0999 V2000
   -0.8723    2.1695   -0.5482 C   0  0  0  0  0  0  0  0  0  0  0  0
   -1.2799    1.0842    0.2782 O   0  0  0  0  0  0  0  0  0  0  0  0
   -0.2997    0.7008    1.1798 C   0  0  1  0  0  0  0  0  0  0  0  0
   -0.4124   -0.6846    1.7294 C   0  0  0  0  0  0  0  0  0  0  0  0
    0.7205   -0.3470    0.7769 C   0  0  1  0  0  0  0  0  0  0  0  0
    0.7706   -0.8228   -0.6555 C   0  0  0  0  0  0  0  0  0  0  0  0
    0.1561   -2.0113   -0.9124 N   0  0  0  0  0  0  0  0  0  0  0  0
    1.3392   -0.1822   -1.5215 O   0  0  0  0  0  0  0  0  0  0  0  0
    0.0156    1.9091   -1.1343 H   0  0  0  0  0  0  0  0  0  0  0  0
   -1.7081    2.3848   -1.2174 H   0  0  0  0  0  0  0  0  0  0  0  0
   -0.6613    3.0651    0.0554 H   0  0  0  0  0  0  0  0  0  0  0  0
    0.0470    1.4974    1.8403 H   0  0  0  0  0  0  0  0  0  0  0  0
   -0.1859   -0.8615    2.7748 H   0  0  0  0  0  0  0  0  0  0  0  0
   -1.2423   -1.2638    1.3382 H   0  0  0  0  0  0  0  0  0  0  0  0
    1.7137   -0.2251    1.1985 H   0  0  0  0  0  0  0  0  0  0  0  0
   -0.1960   -2.5965   -0.1768 H   0  0  0  0  0  0  0  0  0  0  0  0
    0.2178   -2.3831   -1.8461 H   0  0  0  0  0  0  0  0  0  0  0  0
  1 11  1  0  0  0  0
  1  2  1  0  0  0  0
  2  3  1  0  0  0  0
  3  5  1  6  0  0  0
  3  4  1  0  0  0  0
  3 12  1  0  0  0  0
  4 13  1  0  0  0  0
  5 15  1  1  0  0  0
  5  4  1  0  0  0  0
  6  5  1  0  0  0  0
  7  6  1  0  0  0  0
  7 16  1  0  0  0  0
  8  6  2  0  0  0  0
  9  1  1  0  0  0  0
 10  1  1  0  0  0  0
 14  4  1  0  0  0  0
 17  7  1  0  0  0  0
M  END
