18
title
C 0.43673024 2.6499636 0.7606572
O -0.15733601 1.5419272 0.11195625
C 0.737254 0.81289077 -0.6540687
C 1.6866125 -0.15358286 -0.01881419
C 0.48671663 -0.6786967 -0.7859603
C -0.64029825 -1.2831168 0.004081743
C -1.7430265 -1.9233406 -0.8181176
O -0.6728847 -1.2530951 1.213134
H 1.2352185 2.3361871 1.4466786
H 0.85818255 3.3644264 0.037190095
H -0.3525199 3.1450737 1.3301154
H 1.0704582 1.324141 -1.5599585
H 2.675416 -0.28414813 -0.4432114
H 1.6012051 -0.2814559 1.0551751
H 0.6326961 -1.0889299 -1.7799146
H -1.3385162 -2.7416728 -1.4252026
H -2.5239854 -2.3058314 -0.1602795
H -2.1674483 -1.1901066 -1.5133166
