21
title
C 1.4385086 2.3094134 -0.52542
C 0.8124604 1.2137249 0.34921318
C 0.579227 1.7004592 1.7860287
C -0.48622653 0.7358415 -0.2732937
N -0.40003154 -0.20276573 -1.4051896
C -1.0588219 -0.6332996 -0.1517944
C -0.39025983 -1.8038121 0.5326443
O -0.5115458 -2.9794216 -0.25135484
H 2.3992293 2.6389732 -0.11689907
H 1.6062262 1.9434333 -1.5426054
H 0.7843255 3.1880655 -0.58377737
H 1.508919 0.3684226 0.37152314
H 0.16616663 0.9071545 2.417331
H 1.514764 2.0418394 2.2403674
H -0.12369254 2.5420592 1.8068274
H -1.2294073 1.5308869 -0.3638303
H -1.092456 0.02150974 -2.113769
H -2.145345 -0.7049991 -0.17568651
H 0.66390294 -1.5764378 0.7426771
H -0.88148856 -2.0164149 1.4881915
H -0.1562995 -2.7483497 -1.118278
