16
title
N 1.1336464 1.5099082 -2.045746
C 0.9573164 0.62230206 -1.021
O 1.8186553 0.40752506 -0.19171195
C -0.40774164 -0.023511244 -1.0102566
N -0.50167733 -1.3680185 -0.41737413
C -1.1885167 -0.2591524 0.24828763
C -0.69255656 0.06875412 1.639055
O -1.1599253 -0.9039217 2.5644686
H 2.0334857 1.952849 -2.1341994
H 0.46766365 1.6214457 -2.7892807
H -1.009955 0.17029746 -1.8968977
H -1.1528798 -1.9332548 -0.9552295
H -2.2712526 -0.20717569 0.13662131
H 0.39883676 0.14014442 1.6329195
H -1.106794 1.0282128 1.9666531
H -0.7305139 -1.7316478 2.3209047
