title
 OpenBabel02282110003D

 18 18  0  0  1  0  0  0  0  0999 V2000
    0.4367    2.6500    0.7607 C   0  0  0  0  0  0  0  0  0  0  0  0
   -0.1573    1.5419    0.1120 O   0  0  0  0  0  0  0  0  0  0  0  0
    0.7373    0.8129   -0.6541 C   0  0  1  0  0  0  0  0  0  0  0  0
    1.6866   -0.1536   -0.0188 C   0  0  0  0  0  0  0  0  0  0  0  0
    0.4867   -0.6787   -0.7860 C   0  0  1  0  0  0  0  0  0  0  0  0
   -0.6403   -1.2831    0.0041 C   0  0  0  0  0  0  0  0  0  0  0  0
   -1.7430   -1.9233   -0.8181 C   0  0  0  0  0  0  0  0  0  0  0  0
   -0.6729   -1.2531    1.2131 O   0  0  0  0  0  0  0  0  0  0  0  0
    1.2352    2.3362    1.4467 H   0  0  0  0  0  0  0  0  0  0  0  0
    0.8582    3.3644    0.0372 H   0  0  0  0  0  0  0  0  0  0  0  0
   -0.3525    3.1451    1.3301 H   0  0  0  0  0  0  0  0  0  0  0  0
    1.0705    1.3241   -1.5600 H   0  0  0  0  0  0  0  0  0  0  0  0
    2.6754   -0.2841   -0.4432 H   0  0  0  0  0  0  0  0  0  0  0  0
    1.6012   -0.2815    1.0552 H   0  0  0  0  0  0  0  0  0  0  0  0
    0.6327   -1.0889   -1.7799 H   0  0  0  0  0  0  0  0  0  0  0  0
   -1.3385   -2.7417   -1.4252 H   0  0  0  0  0  0  0  0  0  0  0  0
   -2.5240   -2.3058   -0.1603 H   0  0  0  0  0  0  0  0  0  0  0  0
   -2.1674   -1.1901   -1.5133 H   0  0  0  0  0  0  0  0  0  0  0  0
  1 11  1  0  0  0  0
  1  9  1  0  0  0  0
  2  1  1  0  0  0  0
  3  5  1  6  0  0  0
  3  4  1  0  0  0  0
  3  2  1  0  0  0  0
  4 14  1  0  0  0  0
  5 15  1  6  0  0  0
  5  4  1  0  0  0  0
  5  6  1  0  0  0  0
  6  8  2  0  0  0  0
  7 17  1  0  0  0  0
  7  6  1  0  0  0  0
 10  1  1  0  0  0  0
 12  3  1  0  0  0  0
 13  4  1  0  0  0  0
 16  7  1  0  0  0  0
 18  7  1  0  0  0  0
M  END
