22
title
C -0.5732712 2.4442298 -1.3433799
C 0.14429648 1.1325402 -0.99004054
C 1.6297293 1.1960381 -1.3761107
C -0.027193112 0.8183644 0.48804107
C -1.2714906 0.15255475 1.0199825
C 0.051435668 -0.57261825 1.0814974
C 0.2801132 -1.8124559 0.25814214
O -0.2857404 -2.912358 0.96315044
H -0.14112203 3.2861485 -0.78926647
H -0.48333392 2.669405 -2.411349
H -1.6375297 2.393188 -1.0938288
H -0.32586917 0.33123565 -1.5745467
H 2.1443877 1.9831727 -0.8122233
H 2.1389885 0.2506758 -1.1646652
H 1.7537813 1.4175491 -2.441546
H 0.3917913 1.5941783 1.1276804
H -1.7164643 0.5116618 1.9412944
H -1.992703 -0.20827174 0.292051
H 0.51210576 -0.63702726 2.0637553
H -0.18115239 -1.7058985 -0.7354043
H 1.3604553 -1.9658072 0.101194076
H -0.07179181 -3.7158153 0.47944745
