title
 OpenBabel02282110003D

 20 20  0  0  1  0  0  0  0  0999 V2000
   -0.2715    2.6147   -0.6434 C   0  0  0  0  0  0  0  0  0  0  0  0
   -0.2456    1.0908   -0.5432 C   0  0  1  0  0  0  0  0  0  0  0  0
    0.4380    0.5217   -1.6787 O   0  0  0  0  0  0  0  0  0  0  0  0
    0.3534    0.6114    0.7630 C   0  0  1  0  0  0  0  0  0  0  0  0
   -0.5210    0.2262    1.9345 C   0  0  0  0  0  0  0  0  0  0  0  0
    0.2578   -0.8355    1.2005 C   0  0  1  0  0  0  0  0  0  0  0  0
   -0.4418   -1.8686    0.3382 C   0  0  0  0  0  0  0  0  0  0  0  0
    0.3215   -2.2464   -0.7886 O   0  0  0  0  0  0  0  0  0  0  0  0
    0.7426    3.0256   -0.5647 H   0  0  0  0  0  0  0  0  0  0  0  0
   -0.6961    2.9298   -1.6001 H   0  0  0  0  0  0  0  0  0  0  0  0
   -0.8677    3.0449    0.1671 H   0  0  0  0  0  0  0  0  0  0  0  0
   -1.2673    0.7107   -0.6411 H   0  0  0  0  0  0  0  0  0  0  0  0
    1.3585    0.8064   -1.6382 H   0  0  0  0  0  0  0  0  0  0  0  0
    1.2860    1.1137    1.0170 H   0  0  0  0  0  0  0  0  0  0  0  0
   -0.2126    0.5153    2.9329 H   0  0  0  0  0  0  0  0  0  0  0  0
   -1.5963    0.2492    1.7808 H   0  0  0  0  0  0  0  0  0  0  0  0
    1.1431   -1.2173    1.7018 H   0  0  0  0  0  0  0  0  0  0  0  0
   -0.6061   -2.7808    0.9233 H   0  0  0  0  0  0  0  0  0  0  0  0
   -1.4403   -1.5005    0.0482 H   0  0  0  0  0  0  0  0  0  0  0  0
    0.4554   -1.4353   -1.3037 H   0  0  0  0  0  0  0  0  0  0  0  0
  1  9  1  0  0  0  0
  1  2  1  0  0  0  0
  1 11  1  0  0  0  0
  2 12  1  6  0  0  0
  2  4  1  0  0  0  0
  3 13  1  0  0  0  0
  3  2  1  0  0  0  0
  4 14  1  0  0  0  0
  4  6  1  6  0  0  0
  4  5  1  0  0  0  0
  5 15  1  0  0  0  0
  6 17  1  1  0  0  0
  6  5  1  0  0  0  0
  7 18  1  0  0  0  0
  7  6  1  0  0  0  0
  8  7  1  0  0  0  0
 10  1  1  0  0  0  0
 16  5  1  0  0  0  0
 19  7  1  0  0  0  0
 20  8  1  0  0  0  0
M  END
