22
title
C 0.10353742 2.4443913 1.0410956
O 0.89103806 1.2715349 1.0203924
C 1.1261362 0.78551424 -0.26576275
C 1.7221141 -0.5818671 -0.34910303
C 0.29838142 -0.3559953 -0.8264249
C -0.86872953 -0.96260893 -0.064452045
C -2.2025828 -0.34022295 -0.5058966
C -0.90884954 -2.4892488 -0.23212522
H 0.57929426 3.257261 0.47117808
H -0.9013713 2.2776387 0.62984854
H 0.0141060855 2.752716 2.0854964
H 1.4770739 1.5472498 -0.9641711
H 2.5096824 -0.7742437 -1.0690866
H 1.8406966 -1.0967234 0.59921664
H 0.16326527 -0.3398931 -1.9070452
H -0.7187535 -0.7363976 0.9984433
H -2.4015262 -0.5544896 -1.563027
H -3.037776 -0.74524057 0.0751226
H -2.203818 0.74705565 -0.38403028
H 0.0218252 -2.9529433 0.10808373
H -1.7347779 -2.92656 0.33925885
H -1.05214 -2.7633052 -1.2843679
