21
title
C -0.50207436 3.0776145 -0.4037367
C 0.10094214 1.7303191 -0.8159229
C 0.73729366 1.0103754 0.35377395
N -0.15061688 0.32012302 1.3133982
C 0.8115759 -0.4662128 0.51904213
C 0.17080933 -1.487182 -0.42581287
C 0.28309295 -2.9032598 0.15104233
O -1.1830286 -1.1590058 -0.6821413
H 0.25742865 3.7451136 0.019840885
H -0.9517634 3.5876625 -1.2608554
H -1.2808524 2.9354854 0.35223502
H -0.66371626 1.0895174 -1.2607712
H 0.8719851 1.8857756 -1.5820248
H 1.5677227 1.5575207 0.80307174
H 0.15561545 0.44055396 2.273156
H 1.693402 -0.8416069 1.0358377
H 0.6952168 -1.4560634 -1.3908612
H 1.3300554 -3.210371 0.25499958
H -0.19169231 -2.954342 1.137218
H -0.223096 -3.6129303 -0.508198
H -1.4749168 -0.6776853 0.10950361
