title
 OpenBabel02282110003D

 22 22  0  0  1  0  0  0  0  0999 V2000
    0.1035    2.4444    1.0411 C   0  0  0  0  0  0  0  0  0  0  0  0
    0.8910    1.2715    1.0204 O   0  0  0  0  0  0  0  0  0  0  0  0
    1.1261    0.7855   -0.2658 C   0  0  1  0  0  0  0  0  0  0  0  0
    1.7221   -0.5819   -0.3491 C   0  0  0  0  0  0  0  0  0  0  0  0
    0.2984   -0.3560   -0.8264 C   0  0  1  0  0  0  0  0  0  0  0  0
   -0.8687   -0.9626   -0.0645 C   0  0  0  0  0  0  0  0  0  0  0  0
   -2.2026   -0.3402   -0.5059 C   0  0  0  0  0  0  0  0  0  0  0  0
   -0.9088   -2.4892   -0.2321 C   0  0  0  0  0  0  0  0  0  0  0  0
    0.5793    3.2573    0.4712 H   0  0  0  0  0  0  0  0  0  0  0  0
   -0.9014    2.2776    0.6298 H   0  0  0  0  0  0  0  0  0  0  0  0
    0.0141    2.7527    2.0855 H   0  0  0  0  0  0  0  0  0  0  0  0
    1.4771    1.5472   -0.9642 H   0  0  0  0  0  0  0  0  0  0  0  0
    2.5097   -0.7742   -1.0691 H   0  0  0  0  0  0  0  0  0  0  0  0
    1.8407   -1.0967    0.5992 H   0  0  0  0  0  0  0  0  0  0  0  0
    0.1633   -0.3399   -1.9070 H   0  0  0  0  0  0  0  0  0  0  0  0
   -0.7188   -0.7364    0.9984 H   0  0  0  0  0  0  0  0  0  0  0  0
   -2.4015   -0.5545   -1.5630 H   0  0  0  0  0  0  0  0  0  0  0  0
   -3.0378   -0.7452    0.0751 H   0  0  0  0  0  0  0  0  0  0  0  0
   -2.2038    0.7471   -0.3840 H   0  0  0  0  0  0  0  0  0  0  0  0
    0.0218   -2.9529    0.1081 H   0  0  0  0  0  0  0  0  0  0  0  0
   -1.7348   -2.9266    0.3393 H   0  0  0  0  0  0  0  0  0  0  0  0
   -1.0521   -2.7633   -1.2844 H   0  0  0  0  0  0  0  0  0  0  0  0
  1 11  1  0  0  0  0
  2  1  1  0  0  0  0
  3  5  1  6  0  0  0
  3  2  1  0  0  0  0
  4  3  1  0  0  0  0
  4 14  1  0  0  0  0
  5 15  1  6  0  0  0
  5  4  1  0  0  0  0
  5  6  1  0  0  0  0
  6 16  1  0  0  0  0
  7 19  1  0  0  0  0
  7  6  1  0  0  0  0
  7 18  1  0  0  0  0
  8  6  1  0  0  0  0
  8 20  1  0  0  0  0
  8 21  1  0  0  0  0
  9  1  1  0  0  0  0
 10  1  1  0  0  0  0
 12  3  1  0  0  0  0
 13  4  1  0  0  0  0
 17  7  1  0  0  0  0
 22  8  1  0  0  0  0
M  END
