title
 OpenBabel02282110003D

 21 21  0  0  1  0  0  0  0  0999 V2000
   -0.5021    3.0776   -0.4037 C   0  0  0  0  0  0  0  0  0  0  0  0
    0.1009    1.7303   -0.8159 C   0  0  0  0  0  0  0  0  0  0  0  0
    0.7373    1.0104    0.3538 C   0  0  1  0  0  0  0  0  0  0  0  0
   -0.1506    0.3201    1.3134 N   0  0  0  0  0  0  0  0  0  0  0  0
    0.8116   -0.4662    0.5190 C   0  0  1  0  0  0  0  0  0  0  0  0
    0.1708   -1.4872   -0.4258 C   0  0  1  0  0  0  0  0  0  0  0  0
    0.2831   -2.9033    0.1510 C   0  0  0  0  0  0  0  0  0  0  0  0
   -1.1830   -1.1590   -0.6821 O   0  0  0  0  0  0  0  0  0  0  0  0
    0.2574    3.7451    0.0198 H   0  0  0  0  0  0  0  0  0  0  0  0
   -0.9518    3.5877   -1.2609 H   0  0  0  0  0  0  0  0  0  0  0  0
   -1.2809    2.9355    0.3522 H   0  0  0  0  0  0  0  0  0  0  0  0
   -0.6637    1.0895   -1.2608 H   0  0  0  0  0  0  0  0  0  0  0  0
    0.8720    1.8858   -1.5820 H   0  0  0  0  0  0  0  0  0  0  0  0
    1.5677    1.5575    0.8031 H   0  0  0  0  0  0  0  0  0  0  0  0
    0.1556    0.4406    2.2732 H   0  0  0  0  0  0  0  0  0  0  0  0
    1.6934   -0.8416    1.0358 H   0  0  0  0  0  0  0  0  0  0  0  0
    0.6952   -1.4561   -1.3909 H   0  0  0  0  0  0  0  0  0  0  0  0
    1.3301   -3.2104    0.2550 H   0  0  0  0  0  0  0  0  0  0  0  0
   -0.1917   -2.9543    1.1372 H   0  0  0  0  0  0  0  0  0  0  0  0
   -0.2231   -3.6129   -0.5082 H   0  0  0  0  0  0  0  0  0  0  0  0
   -1.4749   -0.6777    0.1095 H   0  0  0  0  0  0  0  0  0  0  0  0
  1  9  1  0  0  0  0
  1 11  1  0  0  0  0
  2  1  1  0  0  0  0
  2  3  1  0  0  0  0
  3  5  1  6  0  0  0
  3 14  1  0  0  0  0
  3  4  1  0  0  0  0
  4 15  1  0  0  0  0
  5 16  1  1  0  0  0
  5  4  1  0  0  0  0
  6 17  1  6  0  0  0
  6  7  1  0  0  0  0
  6  5  1  0  0  0  0
  7 18  1  0  0  0  0
  7 19  1  0  0  0  0
  8  6  1  0  0  0  0
  8 21  1  0  0  0  0
 10  1  1  0  0  0  0
 12  2  1  0  0  0  0
 13  2  1  0  0  0  0
 20  7  1  0  0  0  0
M  END
