18
title
C 0.53452903 2.622658 -0.44351
C 0.704584 1.2720388 0.24990562
O 1.2950002 1.3965455 1.5396535
C -0.6253765 0.54693586 0.359694
O -1.1796393 -0.0038876429 -0.83799446
C -0.8220622 -0.90364885 0.2322295
C 0.25091422 -1.9118109 -0.09235835
O -0.2567455 -2.9308927 -0.9388575
H 1.496105 3.137915 -0.51344806
H 0.12770398 2.4887288 -1.4500425
H -0.16044484 3.2622309 0.11603038
H 1.4042287 0.66172546 -0.327353
H 0.79970115 2.0624874 2.0294278
H -1.3555521 1.0846885 0.97389805
H -1.6889492 -1.3363729 0.7348948
H 1.1243886 -1.4199123 -0.53972524
H 0.5799963 -2.409235 0.82611346
H -0.59058684 -2.4943063 -1.730706
