title
 OpenBabel02282110003D

 20 20  0  0  1  0  0  0  0  0999 V2000
    0.5972    2.7956    0.8156 C   0  0  0  0  0  0  0  0  0  0  0  0
    0.5122    1.8397   -0.3817 C   0  0  0  0  0  0  0  0  0  0  0  0
   -0.7691    1.0387   -0.3546 C   0  0  1  0  0  0  0  0  0  0  0  0
   -0.9240   -0.0694   -1.2659 O   0  0  0  0  0  0  0  0  0  0  0  0
   -0.9145   -0.3378    0.1461 C   0  0  1  0  0  0  0  0  0  0  0  0
    0.2297   -1.2345    0.6226 C   0  0  1  0  0  0  0  0  0  0  0  0
   -0.2513   -2.6805    0.7881 C   0  0  0  0  0  0  0  0  0  0  0  0
    1.3312   -1.1695   -0.2671 O   0  0  0  0  0  0  0  0  0  0  0  0
    1.5065    3.4009    0.7639 H   0  0  0  0  0  0  0  0  0  0  0  0
   -0.2574    3.4808    0.8447 H   0  0  0  0  0  0  0  0  0  0  0  0
    0.6149    2.2466    1.7628 H   0  0  0  0  0  0  0  0  0  0  0  0
    0.5352    2.4167   -1.3150 H   0  0  0  0  0  0  0  0  0  0  0  0
    1.3687    1.1635   -0.3923 H   0  0  0  0  0  0  0  0  0  0  0  0
   -1.6711    1.6545   -0.3045 H   0  0  0  0  0  0  0  0  0  0  0  0
   -1.8906   -0.6188    0.5460 H   0  0  0  0  0  0  0  0  0  0  0  0
    0.5866   -0.8656    1.5938 H   0  0  0  0  0  0  0  0  0  0  0  0
   -1.0322   -2.7547    1.5530 H   0  0  0  0  0  0  0  0  0  0  0  0
   -0.6568   -3.0610   -0.1557 H   0  0  0  0  0  0  0  0  0  0  0  0
    0.5866   -3.3165    1.0836 H   0  0  0  0  0  0  0  0  0  0  0  0
    0.9459   -1.0185   -1.1424 H   0  0  0  0  0  0  0  0  0  0  0  0
  1 10  1  0  0  0  0
  1 11  1  0  0  0  0
  2  3  1  0  0  0  0
  2  1  1  0  0  0  0
  3 14  1  0  0  0  0
  3  5  1  1  0  0  0
  4  3  1  0  0  0  0
  4  5  1  0  0  0  0
  5 15  1  1  0  0  0
  5  6  1  0  0  0  0
  6  7  1  0  0  0  0
  6 16  1  1  0  0  0
  7 19  1  0  0  0  0
  7 17  1  0  0  0  0
  8  6  1  0  0  0  0
  9  1  1  0  0  0  0
 12  2  1  0  0  0  0
 13  2  1  0  0  0  0
 18  7  1  0  0  0  0
 20  8  1  0  0  0  0
M  END
