title
 OpenBabel02282110003D

 18 18  0  0  1  0  0  0  0  0999 V2000
    0.5345    2.6227   -0.4435 C   0  0  0  0  0  0  0  0  0  0  0  0
    0.7046    1.2720    0.2499 C   0  0  1  0  0  0  0  0  0  0  0  0
    1.2950    1.3965    1.5397 O   0  0  0  0  0  0  0  0  0  0  0  0
   -0.6254    0.5469    0.3597 C   0  0  1  0  0  0  0  0  0  0  0  0
   -1.1796   -0.0039   -0.8380 O   0  0  0  0  0  0  0  0  0  0  0  0
   -0.8221   -0.9036    0.2322 C   0  0  1  0  0  0  0  0  0  0  0  0
    0.2509   -1.9118   -0.0924 C   0  0  0  0  0  0  0  0  0  0  0  0
   -0.2567   -2.9309   -0.9389 O   0  0  0  0  0  0  0  0  0  0  0  0
    1.4961    3.1379   -0.5134 H   0  0  0  0  0  0  0  0  0  0  0  0
    0.1277    2.4887   -1.4500 H   0  0  0  0  0  0  0  0  0  0  0  0
   -0.1604    3.2622    0.1160 H   0  0  0  0  0  0  0  0  0  0  0  0
    1.4042    0.6617   -0.3274 H   0  0  0  0  0  0  0  0  0  0  0  0
    0.7997    2.0625    2.0294 H   0  0  0  0  0  0  0  0  0  0  0  0
   -1.3556    1.0847    0.9739 H   0  0  0  0  0  0  0  0  0  0  0  0
   -1.6889   -1.3364    0.7349 H   0  0  0  0  0  0  0  0  0  0  0  0
    1.1244   -1.4199   -0.5397 H   0  0  0  0  0  0  0  0  0  0  0  0
    0.5800   -2.4092    0.8261 H   0  0  0  0  0  0  0  0  0  0  0  0
   -0.5906   -2.4943   -1.7307 H   0  0  0  0  0  0  0  0  0  0  0  0
  1 11  1  0  0  0  0
  1  2  1  0  0  0  0
  2 12  1  6  0  0  0
  2  4  1  0  0  0  0
  2  3  1  0  0  0  0
  3 13  1  0  0  0  0
  4  6  1  1  0  0  0
  4 14  1  0  0  0  0
  5  6  1  0  0  0  0
  5  4  1  0  0  0  0
  6 15  1  1  0  0  0
  7  6  1  0  0  0  0
  7 17  1  0  0  0  0
  8  7  1  0  0  0  0
  9  1  1  0  0  0  0
 10  1  1  0  0  0  0
 16  7  1  0  0  0  0
 18  8  1  0  0  0  0
M  END
