15
title
N 1.1918844 2.0489604 -0.0445311
C 1.2771066 0.70159197 0.01276201
O 2.308959 0.052622408 0.033332616
C -0.06650631 0.023545654 0.03970348
N -1.183985 0.6312249 -0.124450736
C -2.2198505 -0.41735986 -0.033822663
C -1.4534979 -1.772065 -0.10441576
N -0.102109596 -1.331395 0.25142854
H 2.0310318 2.5961947 -0.13112478
H 0.28074208 2.4741654 -0.114848055
H -2.7507484 -0.31121066 0.9213526
H -2.9591696 -0.30380002 -0.8310149
H -1.8352647 -2.5170734 0.5982582
H -1.4829853 -2.204159 -1.1148036
H 0.7229799 -1.8639354 0.019501366
