title
 OpenBabel02282110003D

 15 15  0  0  1  0  0  0  0  0999 V2000
    1.1919    2.0490   -0.0445 N   0  0  0  0  0  0  0  0  0  0  0  0
    1.2771    0.7016    0.0128 C   0  0  0  0  0  0  0  0  0  0  0  0
    2.3090    0.0526    0.0333 O   0  0  0  0  0  0  0  0  0  0  0  0
   -0.0665    0.0235    0.0397 C   0  0  1  0  0  0  0  0  0  0  0  0
   -1.1840    0.6312   -0.1245 N   0  0  0  0  0  0  0  0  0  0  0  0
   -2.2199   -0.4174   -0.0338 C   0  0  0  0  0  0  0  0  0  0  0  0
   -1.4535   -1.7721   -0.1044 C   0  0  0  0  0  0  0  0  0  0  0  0
   -0.1021   -1.3314    0.2514 N   0  0  0  0  0  0  0  0  0  0  0  0
    2.0310    2.5962   -0.1311 H   0  0  0  0  0  0  0  0  0  0  0  0
    0.2807    2.4742   -0.1148 H   0  0  0  0  0  0  0  0  0  0  0  0
   -2.7507   -0.3112    0.9214 H   0  0  0  0  0  0  0  0  0  0  0  0
   -2.9592   -0.3038   -0.8310 H   0  0  0  0  0  0  0  0  0  0  0  0
   -1.8353   -2.5171    0.5983 H   0  0  0  0  0  0  0  0  0  0  0  0
   -1.4830   -2.2042   -1.1148 H   0  0  0  0  0  0  0  0  0  0  0  0
    0.7230   -1.8639    0.0195 H   0  0  0  0  0  0  0  0  0  0  0  0
  1  2  1  0  0  0  0
  2  3  2  0  0  0  0
  4  2  1  6  0  0  0
  4  8  1  0  0  0  0
  5  6  1  0  0  0  0
  5  4  1  0  0  0  0
  6 11  1  0  0  0  0
  7  6  1  0  0  0  0
  7  8  1  0  0  0  0
  7 13  1  0  0  0  0
  9  1  1  0  0  0  0
 10  1  1  0  0  0  0
 12  6  1  0  0  0  0
 14  7  1  0  0  0  0
 15  8  1  0  0  0  0
M  RAD  2   4   2   5   2
M  END
