16
title
C 1.3139558 2.193779 -0.028385038
C 1.3705614 0.6780144 -0.051999513
O 2.4239507 0.07656018 -0.10767924
C 0.070833206 -0.04313418 -0.0037224
C -0.061810732 -1.3718034 -0.016951514
C -1.5076623 -1.7459978 0.042892113
O -2.2159374 -0.51032823 0.09242319
C -1.3031085 0.58343923 0.067355946
H 2.324739 2.6001768 -0.067599475
H 0.7319743 2.5689163 -0.8785247
H 0.8099222 2.5445547 0.8799424
H 0.7554886 -2.079529 -0.06403862
H -1.8234694 -2.3294845 -0.8370041
H -1.7437005 -2.3547044 0.9306956
H -1.4399464 1.2010711 0.96893287
H -1.5197127 1.227023 -0.79975975
