title
 OpenBabel02282110003D

 20 20  0  0  1  0  0  0  0  0999 V2000
   -0.1131    2.9525    0.3442 C   0  0  0  0  0  0  0  0  0  0  0  0
   -0.4437    1.6378   -0.0556 O   0  0  0  0  0  0  0  0  0  0  0  0
    0.6278    0.9579   -0.6310 C   0  0  1  0  0  0  0  0  0  0  0  0
    1.6469    0.2828    0.2545 C   0  0  0  0  0  0  0  0  0  0  0  0
    0.6270   -0.5368   -0.5097 C   0  0  1  0  0  0  0  0  0  0  0  0
   -0.4828   -1.2491    0.2416 C   0  0  1  0  0  0  0  0  0  0  0  0
   -1.6754   -1.5528   -0.6660 C   0  0  0  0  0  0  0  0  0  0  0  0
   -0.0033   -2.4260    0.8908 O   0  0  0  0  0  0  0  0  0  0  0  0
    0.6905    2.9580    1.0940 H   0  0  0  0  0  0  0  0  0  0  0  0
    0.2079    3.5659   -0.5115 H   0  0  0  0  0  0  0  0  0  0  0  0
   -1.0137    3.3937    0.7776 H   0  0  0  0  0  0  0  0  0  0  0  0
    0.9789    1.3989   -1.5660 H   0  0  0  0  0  0  0  0  0  0  0  0
    2.6860    0.2639   -0.0558 H   0  0  0  0  0  0  0  0  0  0  0  0
    1.4933    0.3567    1.3262 H   0  0  0  0  0  0  0  0  0  0  0  0
    0.9879   -1.0780   -1.3833 H   0  0  0  0  0  0  0  0  0  0  0  0
   -0.8168   -0.6014    1.0569 H   0  0  0  0  0  0  0  0  0  0  0  0
   -1.3714   -2.1731   -1.5191 H   0  0  0  0  0  0  0  0  0  0  0  0
   -2.4468   -2.0926   -0.1099 H   0  0  0  0  0  0  0  0  0  0  0  0
   -2.1038   -0.6256   -1.0580 H   0  0  0  0  0  0  0  0  0  0  0  0
    0.2910   -3.0377    0.2070 H   0  0  0  0  0  0  0  0  0  0  0  0
  1 11  1  0  0  0  0
  1  9  1  0  0  0  0
  2  1  1  0  0  0  0
  3  5  1  6  0  0  0
  3  2  1  0  0  0  0
  3  4  1  0  0  0  0
  4 14  1  0  0  0  0
  5 15  1  6  0  0  0
  5  6  1  0  0  0  0
  5  4  1  0  0  0  0
  6  8  1  0  0  0  0
  6 16  1  1  0  0  0
  7 18  1  0  0  0  0
  7  6  1  0  0  0  0
 10  1  1  0  0  0  0
 12  3  1  0  0  0  0
 13  4  1  0  0  0  0
 17  7  1  0  0  0  0
 19  7  1  0  0  0  0
 20  8  1  0  0  0  0
M  END
