16
title
C 1.26409 2.2201054 -0.023206668
C 1.2711674 0.7142543 0.03864906
O 2.2814987 0.043519046 0.076105066
C -0.06169073 0.022519019 0.04084789
N -1.1802856 0.62071055 -0.15375678
C -2.2091725 -0.43552586 -0.08978603
C -1.4356357 -1.7854934 -0.13534606
N -0.09778468 -1.3375385 0.26132888
H 2.2824872 2.5860753 -0.15658875
H 0.6109756 2.5642889 -0.8289665
H 0.8429187 2.6210597 0.90521723
H -2.7647827 -0.32635817 0.85104746
H -2.9288046 -0.3246214 -0.9051555
H -1.834855 -2.5315998 0.55648917
H -1.4336077 -2.2190254 -1.1456909
H 0.72965556 -1.8678944 0.032766454
