15
title
C 1.2286335 2.2176497 0.14114675
C 1.2735397 0.7168872 -0.022652216
O 2.2903893 0.08329229 -0.16949295
C -0.06275919 0.014970344 0.006322943
N -1.178842 0.60907155 0.15692273
C -2.20949 -0.4401953 0.12351893
C -1.4163991 -1.7591622 -0.07504269
O -0.036469966 -1.328047 -0.13978274
H 2.2443216 2.6122775 0.10569945
H 0.6164105 2.6654234 -0.6473615
H 0.7485978 2.4802377 1.0885578
H -2.7824485 -0.42440388 1.0563474
H -2.9127777 -0.23968072 -0.6913832
H -1.5151504 -2.4600453 0.7580312
H -1.6545678 -2.27913 -1.0065433
