title
 OpenBabel02282110003D

 16 16  0  0  0  0  0  0  0  0999 V2000
    1.2406    2.0800    0.1332 N   0  0  0  0  0  0  0  0  0  0  0  0
    1.3126    0.7000    0.0889 C   0  0  0  0  0  0  0  0  0  0  0  0
    2.3855    0.1183    0.1705 O   0  0  0  0  0  0  0  0  0  0  0  0
    0.0242    0.0087   -0.0072 C   0  0  0  0  0  0  0  0  0  0  0  0
   -0.0866   -1.3305   -0.1128 C   0  0  0  0  0  0  0  0  0  0  0  0
   -1.3859   -1.7616   -0.2765 N   0  0  0  0  0  0  0  0  0  0  0  0
   -2.2779   -0.6403    0.0766 C   0  0  0  0  0  0  0  0  0  0  0  0
   -1.3722    0.6082   -0.0970 C   0  0  0  0  0  0  0  0  0  0  0  0
    2.1219    2.5588    0.0310 H   0  0  0  0  0  0  0  0  0  0  0  0
    0.4275    2.5553   -0.2218 H   0  0  0  0  0  0  0  0  0  0  0  0
    0.7329   -2.0366   -0.1242 H   0  0  0  0  0  0  0  0  0  0  0  0
   -1.6285   -2.6787    0.0683 H   0  0  0  0  0  0  0  0  0  0  0  0
   -3.1620   -0.6241   -0.5656 H   0  0  0  0  0  0  0  0  0  0  0  0
   -2.6133   -0.7282    1.1197 H   0  0  0  0  0  0  0  0  0  0  0  0
   -1.5803    1.3646    0.6663 H   0  0  0  0  0  0  0  0  0  0  0  0
   -1.5459    1.0791   -1.0758 H   0  0  0  0  0  0  0  0  0  0  0  0
  2  1  1  0  0  0  0
  2  3  2  0  0  0  0
  4  2  1  0  0  0  0
  5  4  2  0  0  0  0
  6  5  1  0  0  0  0
  6 12  1  0  0  0  0
  6  7  1  0  0  0  0
  7 14  1  0  0  0  0
  8  4  1  0  0  0  0
  8  7  1  0  0  0  0
  8 15  1  0  0  0  0
  9  1  1  0  0  0  0
 10  1  1  0  0  0  0
 11  5  1  0  0  0  0
 13  7  1  0  0  0  0
 16  8  1  0  0  0  0
M  END
