16
title
N 1.2406347 2.0799568 0.13324153
C 1.3125697 0.70000595 0.08887256
O 2.3855104 0.118335426 0.17050815
C 0.024243437 0.008663775 -0.0072320444
C -0.086575784 -1.3304873 -0.11280192
N -1.3858662 -1.7616329 -0.27648664
C -2.27794 -0.640268 0.07663566
C -1.3722439 0.60817736 -0.09698331
H 2.1218657 2.5588024 0.03103997
H 0.42745033 2.555268 -0.22176099
H 0.7329176 -2.0366282 -0.12422589
H -1.6284993 -2.6786673 0.068327926
H -3.1620176 -0.6240869 -0.5655994
H -2.6133468 -0.7282273 1.119659
H -1.5802767 1.3646163 0.6663083
H -1.5458746 1.0790857 -1.0757828
