title
 OpenBabel02282110003D

 15 15  0  0  0  0  0  0  0  0999 V2000
    1.3524   -2.0214   -0.4278 O   0  0  0  0  0  0  0  0  0  0  0  0
    1.3685   -0.8182   -0.1569 C   0  0  0  0  0  0  0  0  0  0  0  0
    2.2799    0.0186    0.0367 O   0  0  0  0  0  0  0  0  0  0  0  0
   -0.0173   -0.1447   -0.0026 C   0  0  0  0  0  0  0  0  0  0  0  0
   -1.2521   -0.6437   -0.0420 C   0  0  0  0  0  0  0  0  0  0  0  0
   -2.3076    0.3892    0.2272 C   0  0  0  0  0  0  0  0  0  0  0  0
   -1.5148    1.6896    0.0803 N   0  0  0  0  0  0  0  0  0  0  0  0
   -1.6281    2.0365   -0.8713 H   0  0  0  0  0  0  0  0  0  0  0  0
   -1.8416    2.4193    0.7139 H   0  0  0  0  0  0  0  0  0  0  0  0
   -0.0254    1.3243    0.2891 C   0  0  0  0  0  0  0  0  0  0  0  0
   -1.4847   -1.6855   -0.2158 H   0  0  0  0  0  0  0  0  0  0  0  0
   -3.1495    0.4161   -0.4718 H   0  0  0  0  0  0  0  0  0  0  0  0
   -2.7149    0.3685    1.2464 H   0  0  0  0  0  0  0  0  0  0  0  0
    0.2402    1.5663    1.3215 H   0  0  0  0  0  0  0  0  0  0  0  0
    0.5961    1.9152   -0.3821 H   0  0  0  0  0  0  0  0  0  0  0  0
  1  2  2  0  0  0  0
  2  4  1  0  0  0  0
  2  3  1  0  0  0  0
  4 10  1  0  0  0  0
  5  4  2  0  0  0  0
  5  6  1  0  0  0  0
  6 13  1  0  0  0  0
  7  6  1  0  0  0  0
  7 10  1  0  0  0  0
  7  9  1  0  0  0  0
  8  7  1  0  0  0  0
 10 14  1  0  0  0  0
 11  5  1  0  0  0  0
 12  6  1  0  0  0  0
 15 10  1  0  0  0  0
M  RAD  1   3   2
M  END
