title
 OpenBabel02282110003D

 14 14  0  0  0  0  0  0  0  0999 V2000
    1.1431    2.0516    0.2042 N   0  0  0  0  0  0  0  0  0  0  0  0
    1.2745    0.7112    0.0489 C   0  0  0  0  0  0  0  0  0  0  0  0
    2.3226    0.1096   -0.0452 O   0  0  0  0  0  0  0  0  0  0  0  0
   -0.0691    0.0145    0.0033 C   0  0  0  0  0  0  0  0  0  0  0  0
   -1.1900    0.6102    0.0974 N   0  0  0  0  0  0  0  0  0  0  0  0
   -2.2209   -0.4356    0.0049 C   0  0  0  0  0  0  0  0  0  0  0  0
   -1.4169   -1.7530   -0.1627 C   0  0  0  0  0  0  0  0  0  0  0  0
   -0.0341   -1.3224   -0.1477 O   0  0  0  0  0  0  0  0  0  0  0  0
    1.9704    2.6214    0.2468 H   0  0  0  0  0  0  0  0  0  0  0  0
    0.2247    2.4589    0.2717 H   0  0  0  0  0  0  0  0  0  0  0  0
   -2.8395   -0.4291    0.9082 H   0  0  0  0  0  0  0  0  0  0  0  0
   -2.8820   -0.2322   -0.8437 H   0  0  0  0  0  0  0  0  0  0  0  0
   -1.5595   -2.4620    0.6567 H   0  0  0  0  0  0  0  0  0  0  0  0
   -1.6023   -2.2632   -1.1112 H   0  0  0  0  0  0  0  0  0  0  0  0
  1  9  1  0  0  0  0
  1 10  1  0  0  0  0
  2  1  1  0  0  0  0
  3  2  2  0  0  0  0
  4  2  1  0  0  0  0
  4  5  2  0  0  0  0
  6  5  1  0  0  0  0
  6 11  1  0  0  0  0
  7  8  1  0  0  0  0
  7  6  1  0  0  0  0
  7 13  1  0  0  0  0
  8  4  1  0  0  0  0
 12  6  1  0  0  0  0
 14  7  1  0  0  0  0
M  END
