title
 OpenBabel02282110003D

 16 16  0  0  0  0  0  0  0  0999 V2000
    1.1253    2.0334    0.0835 N   0  0  0  0  0  0  0  0  0  0  0  0
    1.2026    0.6465   -0.0265 C   0  0  0  0  0  0  0  0  0  0  0  0
    2.2620    0.0439    0.0257 O   0  0  0  0  0  0  0  0  0  0  0  0
   -0.0030    0.0095   -0.1525 N   0  0  0  0  0  0  0  0  0  0  0  0
   -1.3189    0.6195    0.0307 C   0  0  0  0  0  0  0  0  0  0  0  0
   -2.2168   -0.5835    0.1464 C   0  0  0  0  0  0  0  0  0  0  0  0
   -1.5239   -1.7145    0.0558 C   0  0  0  0  0  0  0  0  0  0  0  0
   -0.0564   -1.4537   -0.1325 C   0  0  0  0  0  0  0  0  0  0  0  0
    2.0285    2.4661   -0.0399 H   0  0  0  0  0  0  0  0  0  0  0  0
    0.3777    2.5068   -0.4011 H   0  0  0  0  0  0  0  0  0  0  0  0
   -1.3497    1.2566    0.9278 H   0  0  0  0  0  0  0  0  0  0  0  0
   -1.6052    1.2574   -0.8231 H   0  0  0  0  0  0  0  0  0  0  0  0
   -3.2864   -0.4904    0.2847 H   0  0  0  0  0  0  0  0  0  0  0  0
   -1.9288   -2.7172    0.1060 H   0  0  0  0  0  0  0  0  0  0  0  0
    0.3342   -1.8850   -1.0650 H   0  0  0  0  0  0  0  0  0  0  0  0
    0.5638   -1.8584    0.6782 H   0  0  0  0  0  0  0  0  0  0  0  0
  2  3  2  0  0  0  0
  2  1  1  0  0  0  0
  4  8  1  0  0  0  0
  4  2  1  0  0  0  0
  4  5  1  0  0  0  0
  5  6  1  0  0  0  0
  5 11  1  0  0  0  0
  6 13  1  0  0  0  0
  7 14  1  0  0  0  0
  7  6  2  0  0  0  0
  8  7  1  0  0  0  0
  8 16  1  0  0  0  0
  9  1  1  0  0  0  0
 10  1  1  0  0  0  0
 12  5  1  0  0  0  0
 15  8  1  0  0  0  0
M  END
