18
title
C 1.0007288 2.39895 0.00042456968
C 0.934222 0.90749043 -0.27800888
O 1.9285632 0.22060366 -0.3079994
C -0.46857724 0.32130665 -0.5126386
C -0.44288728 -1.1424248 -1.0188744
C -0.76114607 -2.028171 0.21475148
C -1.3455739 -1.05147 1.2043225
C -1.207025 0.21391745 0.81395626
H 2.0227625 2.6860693 0.25013238
H 0.6723872 2.9548876 -0.88577324
H 0.32605764 2.6768866 0.81670535
H -0.99370706 0.9958412 -1.2023691
H -1.2168255 -1.2731574 -1.7800744
H 0.52159846 -1.3854871 -1.4659842
H -1.4517286 -2.844443 -0.026084209
H 0.14196691 -2.498873 0.62442577
H -1.8075781 -1.3643515 2.1346135
H -1.5351577 1.083942 1.3715363
