14
title
N 1.276617 0.9194314 1.4377061
C 0.6513738 1.186676 0.2662182
O 1.0064092 2.0296636 -0.5345073
C -0.60639036 0.3552801 -0.009133845
C -0.58306336 -0.34132904 -1.397007
N -0.5439997 -1.7809039 -1.0904851
C -0.6427343 -1.876747 0.16453421
O -0.7446842 -0.7472432 0.9255481
H 2.110623 1.4314665 1.6719905
H 0.94493675 0.18377255 2.0370886
H -1.4692322 1.0134641 0.12085202
H -1.4750019 -0.119632795 -1.99043
H 0.28758642 -0.03745873 -1.9827186
H -0.6631458 -2.7989109 0.7340937
