title
 OpenBabel02282110003D

 15 15  0  0  1  0  0  0  0  0999 V2000
   -1.3597    1.7937    1.1695 C   0  0  0  0  0  0  0  0  0  0  0  0
   -0.0592    1.0803    0.8845 C   0  0  0  0  0  0  0  0  0  0  0  0
    0.8484    1.0186    1.6800 O   0  0  0  0  0  0  0  0  0  0  0  0
    0.0607    0.4317   -0.5107 C   0  0  1  0  0  0  0  0  0  0  0  0
    1.3026   -0.4727   -0.6659 C   0  0  0  0  0  0  0  0  0  0  0  0
    0.7424   -1.7835   -0.9449 O   0  0  0  0  0  0  0  0  0  0  0  0
   -0.5924   -1.6085   -0.9651 C   0  0  0  0  0  0  0  0  0  0  0  0
   -1.0931   -0.4586   -0.7656 N   0  0  0  0  0  0  0  0  0  0  0  0
   -1.5147    2.5967    0.4396 H   0  0  0  0  0  0  0  0  0  0  0  0
   -2.1930    1.0962    1.0460 H   0  0  0  0  0  0  0  0  0  0  0  0
   -1.3446    2.2078    2.1780 H   0  0  0  0  0  0  0  0  0  0  0  0
    0.0441    1.2508   -1.2418 H   0  0  0  0  0  0  0  0  0  0  0  0
    1.9480   -0.1971   -1.5022 H   0  0  0  0  0  0  0  0  0  0  0  0
    1.8845   -0.5223    0.2564 H   0  0  0  0  0  0  0  0  0  0  0  0
   -1.1626   -2.5095   -1.1628 H   0  0  0  0  0  0  0  0  0  0  0  0
  1 11  1  0  0  0  0
  2  1  1  0  0  0  0
  2  3  2  0  0  0  0
  4 12  1  6  0  0  0
  4  2  1  0  0  0  0
  5  4  1  0  0  0  0
  5 14  1  0  0  0  0
  6  5  1  0  0  0  0
  7  6  1  0  0  0  0
  7  8  2  0  0  0  0
  8  4  1  0  0  0  0
  9  1  1  0  0  0  0
 10  1  1  0  0  0  0
 13  5  1  0  0  0  0
 15  7  1  0  0  0  0
M  END
