16
title
N 1.1608003 2.059867 0.05108028
C 1.2200358 0.66695505 0.02582403
O 2.2697606 0.052333288 -0.043846533
N 0.003302398 0.02824723 0.047438983
C -0.07456523 -1.4441004 0.025982229
C -1.5973411 -1.7401855 0.105007365
C -2.2242057 -0.38225687 -0.13381998
C -1.2794652 0.55900294 -0.13754483
H 2.0763767 2.4553566 0.2087914
H 0.44450825 2.4802945 0.6249087
H 0.3715132 -1.8180144 -0.90130997
H 0.49737108 -1.8619127 0.8561194
H -1.900342 -2.4841397 -0.6386681
H -1.8812048 -2.1453016 1.085163
H -3.2827437 -0.20593967 -0.2545503
H -1.3944066 1.6225821 -0.2885735
