17
title
C -0.016164433 2.1624632 1.2453951
C -0.014206628 0.6421353 1.2437098
O -0.024422051 -0.017077258 2.270189
N -0.00029012506 0.028498897 0.01922419
C 0.0027609891 -1.4437455 -0.094223835
C 0.02011465 -1.7143949 -1.624796
C 0.024298375 -0.32592833 -2.2259688
C 0.012600441 0.59444886 -1.2612592
H 0.87288135 2.5654552 0.7494786
H -0.8959328 2.5631018 0.7313424
H -0.027272698 2.493758 2.2831511
H 0.8767575 -1.8469623 0.42325374
H -0.8816511 -1.8490592 0.4035757
H 0.9020121 -2.2932663 -1.9230088
H -0.8528921 -2.296443 -1.9423214
H 0.03535656 -0.11799025 -3.2858226
H 0.012038692 1.6695269 -1.3626858
