20
title
C 0.98908806 2.481533 -0.07207849
C 0.9984618 1.0012285 0.271365
O 2.0340824 0.39901972 0.4430519
C -0.36707458 0.324394 0.35799956
C -0.9384661 0.070416875 -1.076936
C -1.7124587 -1.250249 -0.94741607
C -0.827098 -2.080563 -0.0071840673
C -0.34432814 -1.0650672 1.0510942
H 2.0078146 2.8340275 -0.23739368
H 0.3765448 2.6751158 -0.958992
H 0.53833115 3.046418 0.7526541
H -1.0452845 1.0072314 0.88222307
H -1.5503548 0.90114146 -1.4384328
H -0.11315426 -0.061501198 -1.7876467
H -2.6893334 -1.0666963 -0.48217657
H -1.8943325 -1.7297252 -1.9139582
H -1.3469993 -2.9363618 0.43223614
H 0.0305725 -2.473584 -0.56576693
H 0.65843153 -1.2942802 1.4157773
H -1.0204074 -1.0590578 1.9115341
