16
title
C 1.0649605 2.377345 -0.37914136
C 0.9430989 0.8648376 -0.35965982
O 1.8941864 0.12825643 -0.29643804
C -0.49982846 0.3070411 -0.41219485
O -0.5179857 -1.0305054 -0.8657536
C -0.8170152 -1.9133604 0.21443565
C -1.2447976 -1.0125326 1.3390274
C -1.0879303 0.25672174 0.9819907
H 2.0875213 2.6725903 -0.14151894
H 0.80413157 2.7507715 -1.3767378
H 0.3666579 2.842224 0.3254715
H -1.0930413 0.9315996 -1.0988703
H -1.6065627 -2.6097183 -0.10202909
H 0.06818968 -2.5112288 0.47939655
H -1.6137565 -1.3789723 2.288337
H -1.2965044 1.1368341 1.5755347
