title
 OpenBabel02282110003D

 17 17  0  0  1  0  0  0  0  0999 V2000
    0.9395    2.1990   -0.7849 N   0  0  0  0  0  0  0  0  0  0  0  0
    1.0089    0.8831   -0.4266 C   0  0  0  0  0  0  0  0  0  0  0  0
    2.0464    0.3650   -0.0638 O   0  0  0  0  0  0  0  0  0  0  0  0
   -0.3381    0.1441   -0.4751 C   0  0  1  0  0  0  0  0  0  0  0  0
   -0.1748   -1.3932   -0.5650 C   0  0  0  0  0  0  0  0  0  0  0  0
   -1.2047   -1.9968    0.4245 C   0  0  0  0  0  0  0  0  0  0  0  0
   -1.5804   -0.8230    1.2933 C   0  0  0  0  0  0  0  0  0  0  0  0
   -1.1265    0.3308    0.8107 C   0  0  0  0  0  0  0  0  0  0  0  0
    1.7852    2.7451   -0.7696 H   0  0  0  0  0  0  0  0  0  0  0  0
    0.1030    2.6110   -1.1582 H   0  0  0  0  0  0  0  0  0  0  0  0
   -0.9132    0.5459   -1.3230 H   0  0  0  0  0  0  0  0  0  0  0  0
   -0.3015   -1.7637   -1.5848 H   0  0  0  0  0  0  0  0  0  0  0  0
    0.8428   -1.6301   -0.2458 H   0  0  0  0  0  0  0  0  0  0  0  0
   -2.0912   -2.3925   -0.0909 H   0  0  0  0  0  0  0  0  0  0  0  0
   -0.7892   -2.8323    0.9991 H   0  0  0  0  0  0  0  0  0  0  0  0
   -2.1827   -0.9256    2.1896 H   0  0  0  0  0  0  0  0  0  0  0  0
   -1.2924    1.3091    1.2482 H   0  0  0  0  0  0  0  0  0  0  0  0
  1  9  1  0  0  0  0
  1  2  1  0  0  0  0
  2  3  2  0  0  0  0
  4 11  1  6  0  0  0
  4  2  1  0  0  0  0
  4  8  1  0  0  0  0
  5  4  1  0  0  0  0
  5 13  1  0  0  0  0
  5  6  1  0  0  0  0
  6 15  1  0  0  0  0
  6  7  1  0  0  0  0
  7 16  1  0  0  0  0
  8 17  1  0  0  0  0
  8  7  2  0  0  0  0
 10  1  1  0  0  0  0
 12  5  1  0  0  0  0
 14  6  1  0  0  0  0
M  END
