title
 OpenBabel02282110003D

 20 20  0  0  0  0  0  0  0  0999 V2000
    0.9891    2.4815   -0.0721 C   0  0  0  0  0  0  0  0  0  0  0  0
    0.9985    1.0012    0.2714 C   0  0  0  0  0  0  0  0  0  0  0  0
    2.0341    0.3990    0.4431 O   0  0  0  0  0  0  0  0  0  0  0  0
   -0.3671    0.3244    0.3580 C   0  0  0  0  0  0  0  0  0  0  0  0
   -0.9385    0.0704   -1.0769 C   0  0  0  0  0  0  0  0  0  0  0  0
   -1.7125   -1.2502   -0.9474 C   0  0  0  0  0  0  0  0  0  0  0  0
   -0.8271   -2.0806   -0.0072 C   0  0  0  0  0  0  0  0  0  0  0  0
   -0.3443   -1.0651    1.0511 C   0  0  0  0  0  0  0  0  0  0  0  0
    2.0078    2.8340   -0.2374 H   0  0  0  0  0  0  0  0  0  0  0  0
    0.3765    2.6751   -0.9590 H   0  0  0  0  0  0  0  0  0  0  0  0
    0.5383    3.0464    0.7527 H   0  0  0  0  0  0  0  0  0  0  0  0
   -1.0453    1.0072    0.8822 H   0  0  0  0  0  0  0  0  0  0  0  0
   -1.5504    0.9011   -1.4384 H   0  0  0  0  0  0  0  0  0  0  0  0
   -0.1132   -0.0615   -1.7876 H   0  0  0  0  0  0  0  0  0  0  0  0
   -2.6893   -1.0667   -0.4822 H   0  0  0  0  0  0  0  0  0  0  0  0
   -1.8943   -1.7297   -1.9140 H   0  0  0  0  0  0  0  0  0  0  0  0
   -1.3470   -2.9364    0.4322 H   0  0  0  0  0  0  0  0  0  0  0  0
    0.0306   -2.4736   -0.5658 H   0  0  0  0  0  0  0  0  0  0  0  0
    0.6584   -1.2943    1.4158 H   0  0  0  0  0  0  0  0  0  0  0  0
   -1.0204   -1.0591    1.9115 H   0  0  0  0  0  0  0  0  0  0  0  0
  1  2  1  0  0  0  0
  1 11  1  0  0  0  0
  2  4  1  0  0  0  0
  2  3  2  0  0  0  0
  4 12  1  0  0  0  0
  4  8  1  0  0  0  0
  5  6  1  0  0  0  0
  5  4  1  0  0  0  0
  6 15  1  0  0  0  0
  6  7  1  0  0  0  0
  7 17  1  0  0  0  0
  7  8  1  0  0  0  0
  8 19  1  0  0  0  0
  8 20  1  0  0  0  0
  9  1  1  0  0  0  0
 10  1  1  0  0  0  0
 13  5  1  0  0  0  0
 14  5  1  0  0  0  0
 16  6  1  0  0  0  0
 18  7  1  0  0  0  0
M  END
