title
 OpenBabel02282110003D

 15 15  0  0  1  0  0  0  0  0999 V2000
    1.6709    0.6110   -1.0602 N   0  0  0  0  0  0  0  0  0  0  0  0
    0.8443    1.1126   -0.1122 C   0  0  0  0  0  0  0  0  0  0  0  0
    1.1140    2.0259    0.6438 O   0  0  0  0  0  0  0  0  0  0  0  0
   -0.5252    0.4113   -0.0316 C   0  0  1  0  0  0  0  0  0  0  0  0
   -0.6883   -0.6020   -1.0274 O   0  0  0  0  0  0  0  0  0  0  0  0
   -1.0129   -1.8544   -0.4116 C   0  0  0  0  0  0  0  0  0  0  0  0
   -0.9855   -1.5792    1.0648 C   0  0  0  0  0  0  0  0  0  0  0  0
   -0.7142   -0.2987    1.2822 C   0  0  0  0  0  0  0  0  0  0  0  0
    2.5628    1.0499   -1.2156 H   0  0  0  0  0  0  0  0  0  0  0  0
    1.3219   -0.0905   -1.6914 H   0  0  0  0  0  0  0  0  0  0  0  0
   -1.2768    1.2019   -0.1796 H   0  0  0  0  0  0  0  0  0  0  0  0
   -2.0003   -2.1917   -0.7624 H   0  0  0  0  0  0  0  0  0  0  0  0
   -0.2810   -2.6171   -0.7168 H   0  0  0  0  0  0  0  0  0  0  0  0
   -1.1675   -2.3423    1.8103 H   0  0  0  0  0  0  0  0  0  0  0  0
   -0.6146    0.2149    2.2277 H   0  0  0  0  0  0  0  0  0  0  0  0
  1  2  1  0  0  0  0
  2  4  1  0  0  0  0
  2  3  2  0  0  0  0
  4 11  1  6  0  0  0
  4  8  1  0  0  0  0
  5  6  1  0  0  0  0
  5  4  1  0  0  0  0
  6  7  1  0  0  0  0
  7  8  2  0  0  0  0
  7 14  1  0  0  0  0
  8 15  1  0  0  0  0
  9  1  1  0  0  0  0
 10  1  1  0  0  0  0
 12  6  1  0  0  0  0
 13  6  1  0  0  0  0
M  END
