title
 OpenBabel02282110003D

 18 18  0  0  1  0  0  0  0  0999 V2000
   -0.3050    2.3767    1.1740 C   0  0  0  0  0  0  0  0  0  0  0  0
   -0.3505    0.8711    0.9861 C   0  0  0  0  0  0  0  0  0  0  0  0
   -0.3506    0.0966    1.9124 O   0  0  0  0  0  0  0  0  0  0  0  0
   -0.3657    0.3798   -0.4685 C   0  0  1  0  0  0  0  0  0  0  0  0
    1.1001    0.2670   -1.0058 C   0  0  0  0  0  0  0  0  0  0  0  0
    1.1841   -1.1984   -1.4794 C   0  0  0  0  0  0  0  0  0  0  0  0
    0.0924   -1.8716   -0.6435 C   0  0  0  0  0  0  0  0  0  0  0  0
   -0.9491   -0.9029   -0.5776 O   0  0  0  0  0  0  0  0  0  0  0  0
    0.4509    2.8328    0.5249 H   0  0  0  0  0  0  0  0  0  0  0  0
   -1.2712    2.8086    0.8865 H   0  0  0  0  0  0  0  0  0  0  0  0
   -0.0988    2.6185    2.2172 H   0  0  0  0  0  0  0  0  0  0  0  0
   -0.9637    1.0696   -1.0765 H   0  0  0  0  0  0  0  0  0  0  0  0
    1.2978    0.9836   -1.8050 H   0  0  0  0  0  0  0  0  0  0  0  0
    1.8227    0.4549   -0.2057 H   0  0  0  0  0  0  0  0  0  0  0  0
    0.9372   -1.2713   -2.5427 H   0  0  0  0  0  0  0  0  0  0  0  0
    2.1737   -1.6355   -1.3265 H   0  0  0  0  0  0  0  0  0  0  0  0
   -0.3223   -2.7740   -1.1002 H   0  0  0  0  0  0  0  0  0  0  0  0
    0.4527   -2.1165    0.3648 H   0  0  0  0  0  0  0  0  0  0  0  0
  1 11  1  0  0  0  0
  2  1  1  0  0  0  0
  2  3  2  0  0  0  0
  4 12  1  6  0  0  0
  4  2  1  0  0  0  0
  5  4  1  0  0  0  0
  5 14  1  0  0  0  0
  6 16  1  0  0  0  0
  6  5  1  0  0  0  0
  6  7  1  0  0  0  0
  7  8  1  0  0  0  0
  7 18  1  0  0  0  0
  8  4  1  0  0  0  0
  9  1  1  0  0  0  0
 10  1  1  0  0  0  0
 13  5  1  0  0  0  0
 15  6  1  0  0  0  0
 17  7  1  0  0  0  0
M  END
