15
title
N 1.5311393 0.80227506 1.3207369
C 0.8108813 1.1768852 0.23591214
O 1.1428281 2.0324285 -0.56287974
C -0.50902927 0.42228943 0.055745274
C -0.5949117 -0.26708135 -1.3329241
O -1.1225958 -1.5523478 -1.0321363
C -0.6344441 -1.8508853 0.24221763
O -0.6945194 -0.6438838 0.9898527
H 2.3884346 1.2847987 1.5321451
H 1.1533159 0.11991712 1.9560446
H -1.3204947 1.1439319 0.19605958
H -1.273911 0.23315004 -2.0234938
H 0.3982334 -0.33764085 -1.7957273
H -1.277261 -2.5985677 0.7137207
H 0.4093598 -2.2122264 0.19488698
