title
 OpenBabel02282110003D

 15 15  0  0  0  0  0  0  0  0999 V2000
    1.0944    1.6213   -0.4106 N   0  0  0  0  0  0  0  0  0  0  0  0
    1.1670    0.5990    0.4842 C   0  0  0  0  0  0  0  0  0  0  0  0
    2.1695    0.2596    1.0758 O   0  0  0  0  0  0  0  0  0  0  0  0
   -0.1506   -0.1900    0.6673 C   0  0  0  0  0  0  0  0  0  0  0  0
   -1.2666    0.5519    0.1949 O   0  0  0  0  0  0  0  0  0  0  0  0
   -2.0025   -0.2888   -0.6966 C   0  0  0  0  0  0  0  0  0  0  0  0
   -0.9252   -1.2392   -1.2073 C   0  0  0  0  0  0  0  0  0  0  0  0
   -0.1066   -1.4063   -0.0557 O   0  0  0  0  0  0  0  0  0  0  0  0
    1.8964    2.2241   -0.5027 H   0  0  0  0  0  0  0  0  0  0  0  0
    0.1851    1.9627   -0.6743 H   0  0  0  0  0  0  0  0  0  0  0  0
   -0.2505   -0.4364    1.7315 H   0  0  0  0  0  0  0  0  0  0  0  0
   -2.7911   -0.8271   -0.1546 H   0  0  0  0  0  0  0  0  0  0  0  0
   -2.4553    0.3368   -1.4694 H   0  0  0  0  0  0  0  0  0  0  0  0
   -1.2983   -2.2211   -1.5055 H   0  0  0  0  0  0  0  0  0  0  0  0
   -0.3593   -0.7948   -2.0382 H   0  0  0  0  0  0  0  0  0  0  0  0
  1  2  1  0  0  0  0
  2  4  1  0  0  0  0
  2  3  2  0  0  0  0
  4 11  1  0  0  0  0
  5  4  1  0  0  0  0
  6 12  1  0  0  0  0
  6  5  1  0  0  0  0
  7  6  1  0  0  0  0
  7  8  1  0  0  0  0
  8  4  1  0  0  0  0
  9  1  1  0  0  0  0
 10  1  1  0  0  0  0
 13  6  1  0  0  0  0
 14  7  1  0  0  0  0
 15  7  1  0  0  0  0
M  END
