17
title
N 1.1689279 2.1379936 -0.9600182
C 1.0927718 0.9383478 -0.3153
O 2.0100036 0.49848416 0.35292396
C -0.24088493 0.21132228 -0.44619986
C -0.079798736 -1.3115472 -0.68181837
C -1.0911697 -1.9513692 0.30458787
O -1.8838454 -0.88804597 0.8195406
C -1.0388337 0.24188569 0.88023734
H 2.0311563 2.655442 -0.90585184
H 0.43778893 2.4747517 -1.5604587
H -0.8533872 0.6569622 -1.2359942
H -0.29515925 -1.5761718 -1.7192354
H 0.9427287 -1.6150907 -0.45123783
H -1.767027 -2.6710563 -0.16461489
H -0.5589854 -2.4596558 1.122347
H -0.3375496 0.17743757 1.7270374
H -1.6646999 1.129835 0.9989946
