22
title
C -0.55347884 2.035183 1.3212141
C -0.5313572 0.49542153 1.3732514
C -1.953612 -0.061710116 1.5713354
C 0.13404305 -0.095513634 0.1566253
C 1.2549953 -0.8210311 0.14307955
C 1.6311193 -1.302317 -1.2370622
C 0.7181206 -0.45113462 -2.1552718
C -0.44176623 0.024784032 -1.2463465
H 0.45599496 2.4408638 1.2049667
H -1.1604197 2.3973672 0.48433694
H -0.98260015 2.4459317 2.2413526
H 0.067639425 0.20201746 2.245194
H -2.608689 0.2180589 0.7390539
H -1.9452064 -1.1538628 1.6399429
H -2.3991828 0.33406168 2.4900544
H 1.8262284 -1.0816702 1.0288807
H 2.6950378 -1.1700422 -1.4655657
H 1.4284782 -2.3783832 -1.3431523
H 1.2775166 0.4201734 -2.5110795
H 0.37168634 -0.99489737 -3.0380044
H -1.3276112 -0.618101 -1.3507562
H -0.77387714 1.0394303 -1.4932995
