19
title
C 1.1981486 2.1872978 0.19871165
C 1.2499186 0.6685667 0.12160294
O 2.3010159 0.048202086 0.17183565
N 0.052039325 0.029816078 -0.011715266
C -1.2739999 0.64720345 -0.073367774
C -2.1892307 -0.5153218 -0.4890991
C -1.4967775 -1.7426285 0.12613788
C -0.005556405 -1.4353291 -0.062364016
H 2.2088773 2.5504704 0.38179818
H 0.8289733 2.6173131 -0.7387005
H 0.5359137 2.5320206 0.9996518
H -1.5721755 1.0494515 0.9061467
H -1.3012452 1.4744619 -0.7893919
H -3.2181191 -0.37674147 -0.14924116
H -2.205504 -0.6009808 -1.5810577
H -1.7345929 -1.8119494 1.193447
H -1.7931354 -2.6836529 -0.34240732
H 0.36666155 -1.7989215 -1.0291442
H 0.6371164 -1.8643605 0.7098123
