15
title
N 1.0944018 1.6213169 -0.41059577
C 1.1670234 0.59901524 0.48419672
O 2.169531 0.25958505 1.0757799
C -0.15063532 -0.18996069 0.6672842
O -1.2665565 0.5518792 0.19492488
C -2.002468 -0.28879097 -0.69663244
C -0.92519087 -1.2392106 -1.207259
O -0.10664042 -1.4062713 -0.055731285
H 1.8963587 2.2241306 -0.50267655
H 0.18506984 1.9626932 -0.67425805
H -0.25048396 -0.4363686 1.731487
H -2.7910938 -0.8270698 -0.15456007
H -2.4552863 0.33676478 -1.46941
H -1.298265 -2.22114 -1.5054516
H -0.35927567 -0.7947579 -2.038168
