16
title
C 1.4173839 1.4937123 -0.61269873
C 1.2063942 0.57865864 0.5700799
O 1.9364222 0.527032 1.5284907
C -0.028919432 -0.34312162 0.50076956
O -1.189451 0.4396624 0.37092444
C -2.116805 -0.37650433 -0.33704224
C -1.2137847 -1.128851 -1.3199728
O 0.046830323 -1.1743561 -0.64823145
H 2.3033993 2.1083498 -0.45379695
H 1.5321763 0.89374244 -1.5210146
H 0.5342795 2.1246986 -0.7513439
H -0.0558053 -0.9636814 1.4108545
H -2.6284451 -1.0669613 0.34870785
H -2.8540664 0.27236867 -0.81309766
H -1.5557868 -2.1483858 -1.5230229
H -1.1082582 -0.5919661 -2.270827
