20
title
C 1.2140793 2.2093005 0.26462665
C 1.1805599 0.6800928 0.2596027
O 1.9405289 0.15253827 1.3468828
C -0.2407311 0.10791638 0.25036508
C -1.0810317 0.48423004 -1.0042677
C -1.8869153 -0.7635701 -1.2761512
C -1.4581734 -1.802212 -0.56207615
C -0.28797925 -1.4447043 0.32047638
H 2.2481287 2.5628722 0.29893523
H 0.7335234 2.6280248 -0.62487775
H 0.6884403 2.6041458 1.1437457
H 1.7042099 0.31446755 -0.6340802
H 1.5411944 0.4749473 2.1627467
H -0.7639835 0.5024817 1.1333971
H -1.7041517 1.3705937 -0.8396798
H -0.43582678 0.7221124 -1.8642555
H -2.691268 -0.78960633 -2.0033822
H -1.8615836 -2.807677 -0.61781925
H 0.64333135 -1.8893285 -0.057597876
H -0.39572573 -1.8113682 1.3468506
