title
 OpenBabel02282110003D

 20 20  0  0  0  0  0  0  0  0999 V2000
   -0.9908    1.9874   -1.1794 C   0  0  0  0  0  0  0  0  0  0  0  0
   -0.9418    0.4473   -1.1905 C   0  0  0  0  0  0  0  0  0  0  0  0
   -0.3053   -0.0703   -2.4949 C   0  0  0  0  0  0  0  0  0  0  0  0
   -0.2390   -0.0955    0.0248 C   0  0  0  0  0  0  0  0  0  0  0  0
   -0.7383   -0.8733    0.9826 C   0  0  0  0  0  0  0  0  0  0  0  0
    0.3081   -1.1829    2.0121 C   0  0  0  0  0  0  0  0  0  0  0  0
    1.4809   -0.5075    1.5646 O   0  0  0  0  0  0  0  0  0  0  0  0
    1.2131    0.1809    0.3478 C   0  0  0  0  0  0  0  0  0  0  0  0
    0.0139    2.4193   -1.2417 H   0  0  0  0  0  0  0  0  0  0  0  0
   -1.5632    2.3586   -2.0357 H   0  0  0  0  0  0  0  0  0  0  0  0
   -1.4618    2.3618   -0.2657 H   0  0  0  0  0  0  0  0  0  0  0  0
   -1.9754    0.0804   -1.1552 H   0  0  0  0  0  0  0  0  0  0  0  0
    0.7246    0.2861   -2.6054 H   0  0  0  0  0  0  0  0  0  0  0  0
   -0.2872   -1.1639   -2.5197 H   0  0  0  0  0  0  0  0  0  0  0  0
   -0.8713    0.2819   -3.3633 H   0  0  0  0  0  0  0  0  0  0  0  0
   -1.7536   -1.2472    1.0398 H   0  0  0  0  0  0  0  0  0  0  0  0
    0.0324   -0.8261    3.0180 H   0  0  0  0  0  0  0  0  0  0  0  0
    0.5099   -2.2630    2.1004 H   0  0  0  0  0  0  0  0  0  0  0  0
    1.8942   -0.1798   -0.4396 H   0  0  0  0  0  0  0  0  0  0  0  0
    1.4169    1.2559    0.4776 H   0  0  0  0  0  0  0  0  0  0  0  0
  1 11  1  0  0  0  0
  2  1  1  0  0  0  0
  2 12  1  0  0  0  0
  2  4  1  0  0  0  0
  3  2  1  0  0  0  0
  4  8  1  0  0  0  0
  4  5  2  0  0  0  0
  5 16  1  0  0  0  0
  5  6  1  0  0  0  0
  6 18  1  0  0  0  0
  6 17  1  0  0  0  0
  7  6  1  0  0  0  0
  8 20  1  0  0  0  0
  8  7  1  0  0  0  0
  9  1  1  0  0  0  0
 10  1  1  0  0  0  0
 13  3  1  0  0  0  0
 14  3  1  0  0  0  0
 15  3  1  0  0  0  0
 19  8  1  0  0  0  0
M  END
