title
 OpenBabel02282110003D

 18 18  0  0  1  0  0  0  0  0999 V2000
    1.8865    1.4432   -1.0334 C   0  0  0  0  0  0  0  0  0  0  0  0
    1.4514    0.4983    0.0853 C   0  0  1  0  0  0  0  0  0  0  0  0
    1.5341    1.1321    1.3677 O   0  0  0  0  0  0  0  0  0  0  0  0
    0.0879   -0.1044   -0.1078 C   0  0  0  0  0  0  0  0  0  0  0  0
   -0.7834    0.0436   -1.1033 C   0  0  0  0  0  0  0  0  0  0  0  0
   -2.0177   -0.7697   -0.8368 C   0  0  0  0  0  0  0  0  0  0  0  0
   -1.8006   -1.3765    0.4331 O   0  0  0  0  0  0  0  0  0  0  0  0
   -0.5059   -1.0378    0.9207 C   0  0  0  0  0  0  0  0  0  0  0  0
    2.8706    1.8569   -0.8004 H   0  0  0  0  0  0  0  0  0  0  0  0
    1.9447    0.9214   -1.9934 H   0  0  0  0  0  0  0  0  0  0  0  0
    1.1802    2.2745   -1.1405 H   0  0  0  0  0  0  0  0  0  0  0  0
    2.1820   -0.3194    0.1577 H   0  0  0  0  0  0  0  0  0  0  0  0
    0.8861    1.8461    1.3746 H   0  0  0  0  0  0  0  0  0  0  0  0
   -0.6548    0.6392   -1.9981 H   0  0  0  0  0  0  0  0  0  0  0  0
   -2.9310   -0.1542   -0.8042 H   0  0  0  0  0  0  0  0  0  0  0  0
   -2.1812   -1.5432   -1.6056 H   0  0  0  0  0  0  0  0  0  0  0  0
    0.1049   -1.9476    1.0462 H   0  0  0  0  0  0  0  0  0  0  0  0
   -0.5870   -0.5680    1.9107 H   0  0  0  0  0  0  0  0  0  0  0  0
  1  9  1  0  0  0  0
  1  2  1  0  0  0  0
  2 12  1  1  0  0  0
  2  3  1  0  0  0  0
  3 13  1  0  0  0  0
  4  2  1  0  0  0  0
  4  8  1  0  0  0  0
  5  6  1  0  0  0  0
  5  4  2  0  0  0  0
  6 15  1  0  0  0  0
  6  7  1  0  0  0  0
  7  8  1  0  0  0  0
  8 17  1  0  0  0  0
  8 18  1  0  0  0  0
 10  1  1  0  0  0  0
 11  1  1  0  0  0  0
 14  5  1  0  0  0  0
 16  6  1  0  0  0  0
M  END
