22
title
C 1.1773113 2.2073386 0.32826644
C 1.2142746 0.6722019 0.34963554
C 2.000844 0.18304026 1.5740691
C -0.21195674 0.07968975 0.30083978
C -1.0327085 0.50107354 -0.9522735
C -1.9124209 -0.7187283 -1.3216685
C -1.2014707 -1.8615621 -0.6385566
C -0.29305935 -1.4335791 0.23581372
H 2.189958 2.6235018 0.34832668
H 0.676475 2.5933154 -0.5641479
H 0.6427798 2.5948024 1.2044324
H 1.7408541 0.32952762 -0.5532423
H 2.126472 -0.9032465 1.5783409
H 3.0005686 0.62955517 1.5977175
H 1.4920578 0.46512264 2.5039902
H -0.72838473 0.42000794 1.2150491
H -1.616803 1.4104921 -0.79186463
H -0.33786333 0.7043108 -1.775717
H -2.9364917 -0.61610806 -0.93434143
H -2.0096865 -0.8556533 -2.4047759
H -1.4517874 -2.901286 -0.8210422
H 0.30022955 -2.0792794 0.8733183
