title
 OpenBabel02282110003D

 17 17  0  0  1  0  0  0  0  0999 V2000
    1.2355    2.1043   -0.7858 C   0  0  0  0  0  0  0  0  0  0  0  0
    1.1729    0.5852   -0.6210 C   0  0  1  0  0  0  0  0  0  0  0  0
    1.7862    0.1584    0.5857 O   0  0  0  0  0  0  0  0  0  0  0  0
   -0.2569    0.0421   -0.7110 C   0  0  1  0  0  0  0  0  0  0  0  0
   -0.3883   -1.4955   -0.5645 C   0  0  0  0  0  0  0  0  0  0  0  0
   -1.3159   -1.7023    0.5625 N   0  0  0  0  0  0  0  0  0  0  0  0
   -1.5618   -0.5497    1.0183 C   0  0  0  0  0  0  0  0  0  0  0  0
   -1.0135    0.5481    0.4311 O   0  0  0  0  0  0  0  0  0  0  0  0
    2.2681    2.4476   -0.6855 H   0  0  0  0  0  0  0  0  0  0  0  0
    0.8596    2.4112   -1.7675 H   0  0  0  0  0  0  0  0  0  0  0  0
    0.6264    2.5991   -0.0223 H   0  0  0  0  0  0  0  0  0  0  0  0
    1.7518    0.1083   -1.4221 H   0  0  0  0  0  0  0  0  0  0  0  0
    1.2649    0.5302    1.3074 H   0  0  0  0  0  0  0  0  0  0  0  0
   -0.7477    0.4203   -1.6147 H   0  0  0  0  0  0  0  0  0  0  0  0
   -0.7821   -1.9708   -1.4670 H   0  0  0  0  0  0  0  0  0  0  0  0
    0.5757   -1.9571   -0.3264 H   0  0  0  0  0  0  0  0  0  0  0  0
   -2.1950   -0.3275    1.8705 H   0  0  0  0  0  0  0  0  0  0  0  0
  1  9  1  0  0  0  0
  1  2  1  0  0  0  0
  1 11  1  0  0  0  0
  2 12  1  6  0  0  0
  2  3  1  0  0  0  0
  3 13  1  0  0  0  0
  4 14  1  6  0  0  0
  4  2  1  0  0  0  0
  4  5  1  0  0  0  0
  4  8  1  0  0  0  0
  5 16  1  0  0  0  0
  5  6  1  0  0  0  0
  6  7  2  0  0  0  0
  7 17  1  0  0  0  0
  8  7  1  0  0  0  0
 10  1  1  0  0  0  0
 15  5  1  0  0  0  0
M  END
