20
title
C -0.9008582 2.0295079 -1.0771803
C -0.9428041 0.49511483 -1.0959882
O -0.33643684 -0.016773159 -2.2853587
C -0.20572618 -0.10956829 0.06432518
C -0.75189227 -0.7173816 1.1181267
C 0.27950445 -1.2298324 2.093771
C 1.5869106 -0.5534632 1.6040343
C 1.309023 -0.12783223 0.14045951
H 0.13063505 2.3909388 -1.1195885
H -1.4420935 2.438614 -1.939227
H -1.3722787 2.4191563 -0.17008445
H -1.9966986 0.1775356 -1.0430256
H -0.72224605 0.44870958 -3.0343347
H -1.8171651 -0.87611246 1.2541338
H 0.045462634 -0.9847845 3.1362956
H 0.3415127 -2.3267763 2.0458267
H 1.7812456 0.33710206 2.210583
H 2.4611685 -1.202683 1.697924
H 1.7053276 -0.8478006 -0.5865068
H 1.7667247 0.835786 -0.10919264
