title
 OpenBabel02282110003D

 19 19  0  0  1  0  0  0  0  0999 V2000
    1.5085    2.0170   -0.1270 C   0  0  0  0  0  0  0  0  0  0  0  0
    1.2733    0.5348    0.1970 C   0  0  0  0  0  0  0  0  0  0  0  0
    2.0254    0.1253    1.4686 C   0  0  0  0  0  0  0  0  0  0  0  0
   -0.2310    0.2337    0.3208 C   0  0  1  0  0  0  0  0  0  0  0  0
   -1.0454    0.4745   -0.9816 C   0  0  0  0  0  0  0  0  0  0  0  0
   -1.7667   -0.7651   -1.1904 O   0  0  0  0  0  0  0  0  0  0  0  0
   -1.3166   -1.6004   -0.2257 C   0  0  0  0  0  0  0  0  0  0  0  0
   -0.4909   -1.1878    0.6401 N   0  0  0  0  0  0  0  0  0  0  0  0
    2.5777    2.2255   -0.2325 H   0  0  0  0  0  0  0  0  0  0  0  0
    1.0210    2.3245   -1.0584 H   0  0  0  0  0  0  0  0  0  0  0  0
    1.1250    2.6565    0.6772 H   0  0  0  0  0  0  0  0  0  0  0  0
    1.6534   -0.0708   -0.6386 H   0  0  0  0  0  0  0  0  0  0  0  0
    1.6856    0.7154    2.3285 H   0  0  0  0  0  0  0  0  0  0  0  0
    1.8577   -0.9284    1.6987 H   0  0  0  0  0  0  0  0  0  0  0  0
    3.1009    0.2955    1.3542 H   0  0  0  0  0  0  0  0  0  0  0  0
   -0.6300    0.8398    1.1462 H   0  0  0  0  0  0  0  0  0  0  0  0
   -1.7750    1.2839   -0.9112 H   0  0  0  0  0  0  0  0  0  0  0  0
   -0.4086    0.6424   -1.8567 H   0  0  0  0  0  0  0  0  0  0  0  0
   -1.7276   -2.6030   -0.2776 H   0  0  0  0  0  0  0  0  0  0  0  0
  1  2  1  0  0  0  0
  1 11  1  0  0  0  0
  2  4  1  0  0  0  0
  2  3  1  0  0  0  0
  3 14  1  0  0  0  0
  3 13  1  0  0  0  0
  4  8  1  0  0  0  0
  4 16  1  1  0  0  0
  5 17  1  0  0  0  0
  5  4  1  0  0  0  0
  6  5  1  0  0  0  0
  6  7  1  0  0  0  0
  7  8  2  0  0  0  0
  9  1  1  0  0  0  0
 10  1  1  0  0  0  0
 12  2  1  0  0  0  0
 15  3  1  0  0  0  0
 18  5  1  0  0  0  0
 19  7  1  0  0  0  0
M  END
