19
title
C 1.508451 2.0170093 -0.12703879
C 1.2733464 0.53476363 0.1970283
C 2.0253837 0.12534651 1.4686275
C -0.23101558 0.23368809 0.3207909
C -1.045416 0.47453856 -0.98160446
O -1.7666997 -0.76509124 -1.1904365
C -1.3166229 -1.6004485 -0.22567068
N -0.49092355 -1.1878463 0.6400554
H 2.5776587 2.225489 -0.23253144
H 1.0209706 2.324512 -1.058417
H 1.1249605 2.6565263 0.67721874
H 1.6533946 -0.07077672 -0.6385773
H 1.6856184 0.7154328 2.3285356
H 1.8577456 -0.9284161 1.6987463
H 3.1008997 0.2955244 1.3542366
H -0.62997997 0.8398024 1.1462342
H -1.7749969 1.2838798 -0.91122985
H -0.40859178 0.6424012 -1.8566864
H -1.7276024 -2.602974 -0.27759856
