18
title
C 1.1533803 2.1401682 0.18237638
C 1.1450207 0.61775833 0.2631426
O 1.9521807 0.12995304 1.3316506
C -0.2826505 0.05046333 0.39836782
O -1.1018988 0.501433 -0.68342614
C -1.7020844 -0.60801935 -1.350567
C -1.1469687 -1.8231058 -0.6624505
C -0.35015455 -1.450542 0.33184153
H 2.1752033 2.5115216 0.06541774
H 0.54660267 2.4805472 -0.6599252
H 0.73016393 2.5768514 1.0969586
H 1.587723 0.19609003 -0.6466446
H 1.7039521 0.61279726 2.1279259
H -0.69965416 0.42910424 1.3514152
H -2.7996612 -0.5454824 -1.2720537
H -1.4531611 -0.574206 -2.4222946
H -1.3880969 -2.834903 -0.9627541
H 0.20292524 -2.0848715 1.0101869
