title
 OpenBabel02282110003D

 17 17  0  0  1  0  0  0  0  0999 V2000
    0.0701    2.0939    1.5405 C   0  0  0  0  0  0  0  0  0  0  0  0
   -0.0209    0.5817    1.3391 C   0  0  1  0  0  0  0  0  0  0  0  0
   -1.3676    0.1327    1.2852 O   0  0  0  0  0  0  0  0  0  0  0  0
    0.7403    0.1119    0.0843 C   0  0  1  0  0  0  0  0  0  0  0  0
    0.7457   -1.4288   -0.0871 C   0  0  0  0  0  0  0  0  0  0  0  0
    0.1827   -1.6421   -1.4091 O   0  0  0  0  0  0  0  0  0  0  0  0
   -0.1843   -0.4191   -1.8378 C   0  0  0  0  0  0  0  0  0  0  0  0
    0.0614    0.6078   -1.1340 N   0  0  0  0  0  0  0  0  0  0  0  0
    1.1070    2.4084    1.6999 H   0  0  0  0  0  0  0  0  0  0  0  0
   -0.3105    2.6201    0.6599 H   0  0  0  0  0  0  0  0  0  0  0  0
   -0.5200    2.3890    2.4119 H   0  0  0  0  0  0  0  0  0  0  0  0
    0.4135    0.0725    2.2089 H   0  0  0  0  0  0  0  0  0  0  0  0
   -1.7493    0.5206    0.4873 H   0  0  0  0  0  0  0  0  0  0  0  0
    1.7569    0.5219    0.1129 H   0  0  0  0  0  0  0  0  0  0  0  0
    1.7411   -1.8767   -0.0690 H   0  0  0  0  0  0  0  0  0  0  0  0
    0.0959   -1.9274    0.6368 H   0  0  0  0  0  0  0  0  0  0  0  0
   -0.6769   -0.4130   -2.8046 H   0  0  0  0  0  0  0  0  0  0  0  0
  1  9  1  0  0  0  0
  1 11  1  0  0  0  0
  2  1  1  0  0  0  0
  2 12  1  1  0  0  0
  3  2  1  0  0  0  0
  4 14  1  1  0  0  0
  4  2  1  0  0  0  0
  5 15  1  0  0  0  0
  5  4  1  0  0  0  0
  5 16  1  0  0  0  0
  6  5  1  0  0  0  0
  7  6  1  0  0  0  0
  7  8  2  0  0  0  0
  8  4  1  0  0  0  0
 10  1  1  0  0  0  0
 13  3  1  0  0  0  0
 17  7  1  0  0  0  0
M  END
