22
title
C -0.9506722 2.2358317 0.94186044
C -0.9563272 0.7009074 0.9353542
C -2.398133 0.17076737 0.926061
C -0.1426769 0.13380116 -0.23925923
C 1.3426925 0.5393304 -0.2839732
C 1.9432563 -0.5616889 -1.1567318
O 1.2174934 -1.7468467 -0.84617174
C -0.034941986 -1.4061074 -0.2542151
H 0.06268494 2.639443 1.023778
H -1.3956707 2.632443 0.021167893
H -1.533066 2.6244197 1.783807
H -0.47338176 0.3555104 1.8618873
H -2.91908 0.47301143 0.009518523
H -2.4338813 -0.92131853 0.98525333
H -2.965632 0.5674319 1.774242
H -0.61711353 0.4606434 -1.175813
H 1.5107352 1.5390505 -0.69134974
H 1.7733783 0.5046805 0.72433734
H 1.8336424 -0.31593317 -2.2255952
H 3.0050116 -0.7461953 -0.96210563
H -0.066449896 -1.8104362 0.7693118
H -0.84455156 -1.8779888 -0.8238505
