24
title
C 1.2034793 2.243843 0.40286195
C 1.2757068 0.7117185 0.31571648
C 2.0972898 0.15491073 1.4877993
C -0.12619816 0.08184569 0.24082218
C -0.9722898 0.54675734 -0.9771184
C -1.8871589 -0.6499124 -1.3673968
C -1.5889366 -1.7564867 -0.3313359
C -0.15781139 -1.4561639 0.13389087
H 2.2064502 2.682551 0.43414822
H 0.6765226 2.6782758 -0.45150566
H 0.6779207 2.5572789 1.3133837
H 1.7990606 0.45094833 -0.6172727
H 1.5982814 0.3538079 2.4443097
H 2.2456365 -0.9256398 1.4076971
H 3.0860896 0.6240959 1.5290868
H -0.6652336 0.35848844 1.160162
H -1.5489459 1.4468249 -0.7476932
H -0.31069657 0.8068856 -1.8115824
H -2.9461439 -0.37749773 -1.3835317
H -1.6409483 -1.000626 -2.3749044
H -2.2737982 -1.6705048 0.52122396
H -1.7098536 -2.7646844 -0.73831725
H 0.5639316 -1.7889009 -0.6257923
H 0.09960558 -1.9598665 1.0697211
