title
 OpenBabel02282110003D

 20 20  0  0  1  0  0  0  0  0999 V2000
    1.2538    2.1795   -0.7376 C   0  0  0  0  0  0  0  0  0  0  0  0
    1.1683    0.6546   -0.6295 C   0  0  1  0  0  0  0  0  0  0  0  0
    1.8940    0.1781    0.5001 O   0  0  0  0  0  0  0  0  0  0  0  0
   -0.2822    0.1233   -0.6301 C   0  0  1  0  0  0  0  0  0  0  0  0
   -0.3494   -1.4314   -0.6276 C   0  0  0  0  0  0  0  0  0  0  0  0
   -1.4714   -1.8214    0.3693 C   0  0  0  0  0  0  0  0  0  0  0  0
   -1.6941   -0.5518    1.1529 C   0  0  0  0  0  0  0  0  0  0  0  0
   -1.0737    0.4947    0.6091 C   0  0  0  0  0  0  0  0  0  0  0  0
    2.3008    2.4939   -0.7452 H   0  0  0  0  0  0  0  0  0  0  0  0
    0.7762    2.5386   -1.6557 H   0  0  0  0  0  0  0  0  0  0  0  0
    0.7637    2.6688    0.1114 H   0  0  0  0  0  0  0  0  0  0  0  0
    1.6855    0.2170   -1.4929 H   0  0  0  0  0  0  0  0  0  0  0  0
    1.3534    0.3519    1.2804 H   0  0  0  0  0  0  0  0  0  0  0  0
   -0.7769    0.5377   -1.5214 H   0  0  0  0  0  0  0  0  0  0  0  0
   -0.5151   -1.8403   -1.6272 H   0  0  0  0  0  0  0  0  0  0  0  0
    0.6093   -1.8124   -0.2658 H   0  0  0  0  0  0  0  0  0  0  0  0
   -2.3970   -2.1153   -0.1455 H   0  0  0  0  0  0  0  0  0  0  0  0
   -1.1957   -2.6712    1.0044 H   0  0  0  0  0  0  0  0  0  0  0  0
   -2.3367   -0.5098    2.0265 H   0  0  0  0  0  0  0  0  0  0  0  0
   -1.1498    1.5138    0.9738 H   0  0  0  0  0  0  0  0  0  0  0  0
  1  2  1  0  0  0  0
  1 11  1  0  0  0  0
  2 12  1  6  0  0  0
  2  3  1  0  0  0  0
  3 13  1  0  0  0  0
  4 14  1  6  0  0  0
  4  2  1  0  0  0  0
  4  5  1  0  0  0  0
  4  8  1  0  0  0  0
  5 16  1  0  0  0  0
  5  6  1  0  0  0  0
  6 18  1  0  0  0  0
  6  7  1  0  0  0  0
  7 19  1  0  0  0  0
  8 20  1  0  0  0  0
  8  7  2  0  0  0  0
  9  1  1  0  0  0  0
 10  1  1  0  0  0  0
 15  5  1  0  0  0  0
 17  6  1  0  0  0  0
M  END
