20
title
C 1.2537743 2.1794517 -0.73764837
C 1.1682632 0.6546363 -0.6294928
O 1.8939993 0.1781099 0.50014853
C -0.2821639 0.12333982 -0.6301185
C -0.34938958 -1.4313599 -0.62756634
C -1.4714426 -1.8213993 0.36926785
C -1.6941375 -0.5518395 1.152872
C -1.0737256 0.49471644 0.609123
H 2.3007536 2.4939363 -0.7452361
H 0.77618766 2.5385742 -1.6557149
H 0.76372486 2.6687748 0.11142709
H 1.6855431 0.2170196 -1.492881
H 1.3533913 0.3519181 1.2803713
H -0.7769005 0.53767014 -1.521356
H -0.5151432 -1.8402718 -1.6271614
H 0.60931754 -1.8123933 -0.2658233
H -2.3970013 -2.1153402 -0.14552121
H -1.1956619 -2.6711996 1.0043656
H -2.336682 -0.50975776 2.0264564
H -1.1497661 1.5138367 0.9738411
