title
 OpenBabel02282110003D

 20 20  0  0  0  0  0  0  0  0999 V2000
   -0.2821    2.2105   -1.1413 C   0  0  0  0  0  0  0  0  0  0  0  0
   -0.3795    0.6810   -1.1889 C   0  0  0  0  0  0  0  0  0  0  0  0
    0.1778    0.1130   -2.4999 C   0  0  0  0  0  0  0  0  0  0  0  0
    0.3386    0.0649    0.0057 C   0  0  0  0  0  0  0  0  0  0  0  0
   -0.2047    0.5418    1.2308 O   0  0  0  0  0  0  0  0  0  0  0  0
   -0.2340   -0.5396    2.1563 C   0  0  0  0  0  0  0  0  0  0  0  0
    0.3735   -1.7162    1.3698 C   0  0  0  0  0  0  0  0  0  0  0  0
    0.1724   -1.3347    0.0201 O   0  0  0  0  0  0  0  0  0  0  0  0
    0.7609    2.5407   -1.2187 H   0  0  0  0  0  0  0  0  0  0  0  0
   -0.8317    2.6550   -1.9767 H   0  0  0  0  0  0  0  0  0  0  0  0
   -0.6928    2.6020   -0.2080 H   0  0  0  0  0  0  0  0  0  0  0  0
   -1.4320    0.3874   -1.0894 H   0  0  0  0  0  0  0  0  0  0  0  0
    1.2386    0.3653   -2.6171 H   0  0  0  0  0  0  0  0  0  0  0  0
    0.0839   -0.9750   -2.5314 H   0  0  0  0  0  0  0  0  0  0  0  0
   -0.3576    0.5321   -3.3575 H   0  0  0  0  0  0  0  0  0  0  0  0
    1.4197    0.3100   -0.0227 H   0  0  0  0  0  0  0  0  0  0  0  0
    0.3455   -0.2924    3.0535 H   0  0  0  0  0  0  0  0  0  0  0  0
   -1.2724   -0.7335    2.4514 H   0  0  0  0  0  0  0  0  0  0  0  0
    1.4461   -1.8295    1.5897 H   0  0  0  0  0  0  0  0  0  0  0  0
   -0.1270   -2.6712    1.5425 H   0  0  0  0  0  0  0  0  0  0  0  0
  1 11  1  0  0  0  0
  2  1  1  0  0  0  0
  2 12  1  0  0  0  0
  2  4  1  0  0  0  0
  3  2  1  0  0  0  0
  4  8  1  0  0  0  0
  4  5  1  0  0  0  0
  5  6  1  0  0  0  0
  6 18  1  0  0  0  0
  6 17  1  0  0  0  0
  7 20  1  0  0  0  0
  7 19  1  0  0  0  0
  7  6  1  0  0  0  0
  8  7  1  0  0  0  0
  9  1  1  0  0  0  0
 10  1  1  0  0  0  0
 13  3  1  0  0  0  0
 14  3  1  0  0  0  0
 15  3  1  0  0  0  0
 16  4  1  0  0  0  0
M  END
