title
 OpenBabel02282110003D

 20 20  0  0  1  0  0  0  0  0999 V2000
    1.1376    2.1445    0.1884 C   0  0  0  0  0  0  0  0  0  0  0  0
    1.1738    0.6141    0.2819 C   0  0  0  0  0  0  0  0  0  0  0  0
    2.0654    0.1528    1.4424 C   0  0  0  0  0  0  0  0  0  0  0  0
   -0.2557    0.0500    0.4177 C   0  0  1  0  0  0  0  0  0  0  0  0
   -1.0740    0.5119   -0.6670 O   0  0  0  0  0  0  0  0  0  0  0  0
   -1.6583   -0.5828   -1.3636 C   0  0  0  0  0  0  0  0  0  0  0  0
   -1.1497   -1.8090   -0.6614 C   0  0  0  0  0  0  0  0  0  0  0  0
   -0.3672   -1.4517    0.3497 C   0  0  0  0  0  0  0  0  0  0  0  0
    2.1414    2.5482    0.0207 H   0  0  0  0  0  0  0  0  0  0  0  0
    0.4900    2.4679   -0.6291 H   0  0  0  0  0  0  0  0  0  0  0  0
    0.7537    2.5826    1.1181 H   0  0  0  0  0  0  0  0  0  0  0  0
    1.5820    0.2166   -0.6571 H   0  0  0  0  0  0  0  0  0  0  0  0
    1.6469    0.4633    2.4078 H   0  0  0  0  0  0  0  0  0  0  0  0
    2.1886   -0.9343    1.4642 H   0  0  0  0  0  0  0  0  0  0  0  0
    3.0630    0.5959    1.3615 H   0  0  0  0  0  0  0  0  0  0  0  0
   -0.6800    0.4344    1.3633 H   0  0  0  0  0  0  0  0  0  0  0  0
   -2.7574   -0.5074   -1.3279 H   0  0  0  0  0  0  0  0  0  0  0  0
   -1.3692   -0.5519   -2.4262 H   0  0  0  0  0  0  0  0  0  0  0  0
   -1.4119   -2.8161   -0.9600 H   0  0  0  0  0  0  0  0  0  0  0  0
    0.1291   -2.1138    1.0466 H   0  0  0  0  0  0  0  0  0  0  0  0
  1  2  1  0  0  0  0
  1 11  1  0  0  0  0
  2  4  1  0  0  0  0
  2  3  1  0  0  0  0
  3 14  1  0  0  0  0
  3 13  1  0  0  0  0
  4 16  1  1  0  0  0
  5  4  1  0  0  0  0
  6 17  1  0  0  0  0
  6  5  1  0  0  0  0
  6  7  1  0  0  0  0
  7  8  2  0  0  0  0
  8  4  1  0  0  0  0
  8 20  1  0  0  0  0
  9  1  1  0  0  0  0
 10  1  1  0  0  0  0
 12  2  1  0  0  0  0
 15  3  1  0  0  0  0
 18  6  1  0  0  0  0
 19  7  1  0  0  0  0
M  END
