title
 OpenBabel02282110003D

 22 22  0  0  1  0  0  0  0  0999 V2000
   -1.4849    1.9409    0.3453 C   0  0  0  0  0  0  0  0  0  0  0  0
   -0.7440    0.8323   -0.4071 C   0  0  1  0  0  0  0  0  0  0  0  0
   -0.5516    1.1870   -1.7796 O   0  0  0  0  0  0  0  0  0  0  0  0
    0.5703    0.4833    0.2625 C   0  0  1  0  0  0  0  0  0  0  0  0
    0.7205   -0.6223    1.2946 C   0  0  1  0  0  0  0  0  0  0  0  0
   -0.4351   -1.4742    1.7792 C   0  0  0  0  0  0  0  0  0  0  0  0
    1.3458   -0.7728   -0.0772 C   0  0  1  0  0  0  0  0  0  0  0  0
    0.8660   -1.7712   -1.1107 C   0  0  0  0  0  0  0  0  0  0  0  0
   -0.8657    2.8443    0.4096 H   0  0  0  0  0  0  0  0  0  0  0  0
   -2.4117    2.1992   -0.1742 H   0  0  0  0  0  0  0  0  0  0  0  0
   -1.7272    1.6301    1.3668 H   0  0  0  0  0  0  0  0  0  0  0  0
   -1.3909   -0.0484   -0.4529 H   0  0  0  0  0  0  0  0  0  0  0  0
    0.0959    1.9001   -1.8047 H   0  0  0  0  0  0  0  0  0  0  0  0
    1.1780    1.3693    0.4503 H   0  0  0  0  0  0  0  0  0  0  0  0
    1.4261   -0.3928    2.0900 H   0  0  0  0  0  0  0  0  0  0  0  0
   -1.1320   -1.7435    0.9823 H   0  0  0  0  0  0  0  0  0  0  0  0
   -0.0654   -2.4091    2.2151 H   0  0  0  0  0  0  0  0  0  0  0  0
   -1.0087   -0.9548    2.5554 H   0  0  0  0  0  0  0  0  0  0  0  0
    2.4254   -0.6405   -0.0957 H   0  0  0  0  0  0  0  0  0  0  0  0
   -0.2120   -1.9411   -1.0701 H   0  0  0  0  0  0  0  0  0  0  0  0
    1.0950   -1.4184   -2.1210 H   0  0  0  0  0  0  0  0  0  0  0  0
    1.3564   -2.7408   -0.9692 H   0  0  0  0  0  0  0  0  0  0  0  0
  1  9  1  0  0  0  0
  1 11  1  0  0  0  0
  2 12  1  1  0  0  0
  2  4  1  0  0  0  0
  2  1  1  0  0  0  0
  3  2  1  0  0  0  0
  4 14  1  0  0  0  0
  4  5  1  1  0  0  0
  5  7  1  6  0  0  0
  5  6  1  0  0  0  0
  5 15  1  0  0  0  0
  6 17  1  0  0  0  0
  6 18  1  0  0  0  0
  7  4  1  6  0  0  0
  8 20  1  0  0  0  0
  8 22  1  0  0  0  0
  8  7  1  0  0  0  0
 10  1  1  0  0  0  0
 13  3  1  0  0  0  0
 16  6  1  0  0  0  0
 19  7  1  0  0  0  0
 21  8  1  0  0  0  0
M  END
