title
 OpenBabel02282110003D

 20 20  0  0  1  0  0  0  0  0999 V2000
   -1.4041    2.0844   -0.6822 C   0  0  0  0  0  0  0  0  0  0  0  0
   -1.1588    0.5765   -0.7714 C   0  0  1  0  0  0  0  0  0  0  0  0
   -0.4045    0.2409   -1.9271 O   0  0  0  0  0  0  0  0  0  0  0  0
   -0.4547    0.0297    0.4798 C   0  0  1  0  0  0  0  0  0  0  0  0
   -0.3232   -1.4954    0.5344 C   0  0  0  0  0  0  0  0  0  0  0  0
    0.9752   -1.6819    1.3312 C   0  0  0  0  0  0  0  0  0  0  0  0
    1.8171   -0.4938    0.8484 C   0  0  0  0  0  0  0  0  0  0  0  0
    0.8935    0.5315    0.4657 O   0  0  0  0  0  0  0  0  0  0  0  0
   -0.4603    2.6140   -0.5182 H   0  0  0  0  0  0  0  0  0  0  0  0
   -1.8511    2.4464   -1.6117 H   0  0  0  0  0  0  0  0  0  0  0  0
   -2.0782    2.3265    0.1468 H   0  0  0  0  0  0  0  0  0  0  0  0
   -2.1187    0.0561   -0.8793 H   0  0  0  0  0  0  0  0  0  0  0  0
    0.4942    0.5364   -1.7290 H   0  0  0  0  0  0  0  0  0  0  0  0
   -0.9656    0.4056    1.3803 H   0  0  0  0  0  0  0  0  0  0  0  0
   -1.1894   -1.9728    0.9988 H   0  0  0  0  0  0  0  0  0  0  0  0
   -0.2159   -1.8807   -0.4845 H   0  0  0  0  0  0  0  0  0  0  0  0
    0.7799   -1.6001    2.4057 H   0  0  0  0  0  0  0  0  0  0  0  0
    1.4650   -2.6419    1.1512 H   0  0  0  0  0  0  0  0  0  0  0  0
    2.4845   -0.0979    1.6219 H   0  0  0  0  0  0  0  0  0  0  0  0
    2.4309   -0.7677   -0.0211 H   0  0  0  0  0  0  0  0  0  0  0  0
  1  9  1  0  0  0  0
  1 11  1  0  0  0  0
  2 12  1  6  0  0  0
  2  1  1  0  0  0  0
  2  4  1  0  0  0  0
  3 13  1  0  0  0  0
  3  2  1  0  0  0  0
  4  5  1  0  0  0  0
  4 14  1  1  0  0  0
  5 15  1  0  0  0  0
  5  6  1  0  0  0  0
  6 17  1  0  0  0  0
  7  6  1  0  0  0  0
  7 19  1  0  0  0  0
  8  4  1  0  0  0  0
  8  7  1  0  0  0  0
 10  1  1  0  0  0  0
 16  5  1  0  0  0  0
 18  6  1  0  0  0  0
 20  7  1  0  0  0  0
M  END
