18
title
C 1.320534 2.1345243 -0.8064485
C 1.2515832 0.6219985 -0.5889114
O 1.8493979 0.24226055 0.6413929
C -0.18863024 0.09470504 -0.6492146
C -0.31962016 -1.4321263 -0.5837331
O -1.5338694 -1.6188991 0.13425271
C -1.5478312 -0.5995554 1.0924592
O -0.88545215 0.5288411 0.5298204
H 2.352489 2.4791207 -0.703631
H 0.95820016 2.407846 -1.8032277
H 0.7029465 2.6545525 -0.06690515
H 1.8337051 0.11532747 -1.3695718
H 1.2491164 0.56432045 1.3264333
H -0.7029481 0.49362296 -1.5342592
H -0.42357913 -1.9074047 -1.5607027
H 0.53426844 -1.8651166 -0.044304915
H -2.5884213 -0.34735876 1.3240514
H -1.0188476 -0.904094 2.0123997
