23
title
C -2.1697743 1.0686176 -0.0034980357
C -0.69401014 0.9244986 -0.40763354
C -0.08018854 2.293485 -0.7419621
C 0.08270469 0.25251156 0.71496737
C 0.15145221 -1.2308068 0.9137994
C -0.52062815 -2.2309701 -0.0049690483
N 1.3478236 -0.46918502 0.5418439
C 1.9494967 -0.6385635 -0.7714262
H -2.2658224 1.6592288 0.915308
H -2.7439504 1.5773349 -0.78500676
H -2.6328137 0.09396234 0.17794894
H -0.6521933 0.30631164 -1.3103999
H -0.10144064 2.9522815 0.13410978
H 0.96207637 2.200627 -1.0610561
H -0.63725746 2.7883794 -1.5444356
H 0.08214185 0.86502975 1.6203024
H 0.1945664 -1.5841776 1.9451077
H -0.66513884 -1.86314 -1.0222632
H 0.06608644 -3.1547248 -0.06471525
H -1.5057801 -2.4969065 0.39327428
H 1.253332 -0.74361753 -1.615852
H 2.5957 0.22139367 -0.9764884
H 2.584716 -1.5305339 -0.75189775
