22
title
C -1.4849086 1.9408616 0.34528413
C -0.74403626 0.83228123 -0.4070618
O -0.55156916 1.1869689 -1.779567
C 0.57030195 0.48325863 0.2625356
C 0.7204597 -0.6222908 1.294587
C -0.43511865 -1.4741896 1.779236
C 1.3458258 -0.7728216 -0.07723184
C 0.86597556 -1.7712475 -1.1107279
H -0.86573714 2.8443437 0.40962806
H -2.4116642 2.1992226 -0.17416246
H -1.7272239 1.6300654 1.3668042
H -1.3908755 -0.048434768 -0.4528744
H 0.09593305 1.9000758 -1.8047144
H 1.1780223 1.3693213 0.45034435
H 1.4260596 -0.39283052 2.0899677
H -1.1319947 -1.7435495 0.982331
H -0.06543389 -2.409092 2.215092
H -1.0086532 -0.95483154 2.5554414
H 2.425429 -0.64050454 -0.09567709
H -0.21204343 -1.9411258 -1.0701118
H 1.0949928 -1.4184128 -2.1210058
H 1.3564239 -2.7407894 -0.9692342
