20
title
C -1.4041473 2.0843706 -0.6822422
C -1.158796 0.5765225 -0.7714221
O -0.4045035 0.24090092 -1.927124
C -0.4547023 0.029681843 0.47984675
C -0.3231658 -1.4954396 0.5344242
C 0.97516036 -1.6819078 1.3311566
C 1.8170929 -0.49375072 0.848387
O 0.8934808 0.53151935 0.46568707
H -0.46029833 2.6140106 -0.5182002
H -1.8510914 2.4463527 -1.6116582
H -2.0781503 2.3264527 0.1468167
H -2.1187463 0.05614982 -0.87932557
H 0.49423984 0.536357 -1.7290134
H -0.96558326 0.40560126 1.3802775
H -1.1893878 -1.9727784 0.99877965
H -0.2158787 -1.8807038 -0.4845398
H 0.77986765 -1.6001164 2.4057355
H 1.4649591 -2.6419318 1.1512496
H 2.4845433 -0.0979311 1.6218745
H 2.4309058 -0.7677392 -0.021098647
