title
 OpenBabel02282110003D

 20 20  0  0  1  0  0  0  0  0999 V2000
   -1.2006    2.1206   -0.9777 C   0  0  0  0  0  0  0  0  0  0  0  0
   -1.1473    0.5986   -0.8244 C   0  0  1  0  0  0  0  0  0  0  0  0
   -0.3902   -0.0025   -1.8746 O   0  0  0  0  0  0  0  0  0  0  0  0
   -0.5142    0.1514    0.4974 C   0  0  1  0  0  0  0  0  0  0  0  0
   -0.4429   -1.3939    0.6640 C   0  0  0  0  0  0  0  0  0  0  0  0
    1.0639   -1.6690    0.8149 C   0  0  0  0  0  0  0  0  0  0  0  0
    1.6160   -0.4737    1.3469 O   0  0  0  0  0  0  0  0  0  0  0  0
    0.9647    0.5883    0.6689 C   0  0  0  0  0  0  0  0  0  0  0  0
   -0.1950    2.5516   -0.9671 H   0  0  0  0  0  0  0  0  0  0  0  0
   -1.6765    2.3985   -1.9254 H   0  0  0  0  0  0  0  0  0  0  0  0
   -1.7835    2.5760   -0.1703 H   0  0  0  0  0  0  0  0  0  0  0  0
   -2.1798    0.2112   -0.8483 H   0  0  0  0  0  0  0  0  0  0  0  0
   -0.7630    0.2830   -2.7141 H   0  0  0  0  0  0  0  0  0  0  0  0
   -1.1171    0.5790    1.3042 H   0  0  0  0  0  0  0  0  0  0  0  0
   -0.9857   -1.7102    1.5584 H   0  0  0  0  0  0  0  0  0  0  0  0
   -0.8653   -1.9161   -0.1969 H   0  0  0  0  0  0  0  0  0  0  0  0
    1.3014   -2.4839    1.5037 H   0  0  0  0  0  0  0  0  0  0  0  0
    1.5104   -1.8967   -0.1659 H   0  0  0  0  0  0  0  0  0  0  0  0
    1.4215    0.7541   -0.3181 H   0  0  0  0  0  0  0  0  0  0  0  0
    1.0882    1.4916    1.2718 H   0  0  0  0  0  0  0  0  0  0  0  0
  1  9  1  0  0  0  0
  1  2  1  0  0  0  0
  1 11  1  0  0  0  0
  2 12  1  6  0  0  0
  2  4  1  0  0  0  0
  3  2  1  0  0  0  0
  4  5  1  0  0  0  0
  4  8  1  0  0  0  0
  4 14  1  1  0  0  0
  5  6  1  0  0  0  0
  5 15  1  0  0  0  0
  6  7  1  0  0  0  0
  6 17  1  0  0  0  0
  8 20  1  0  0  0  0
  8  7  1  0  0  0  0
 10  1  1  0  0  0  0
 13  3  1  0  0  0  0
 16  5  1  0  0  0  0
 18  6  1  0  0  0  0
 19  8  1  0  0  0  0
M  END
