24
title
C -0.33625007 2.2970066 0.69342244
C -0.782331 0.8540502 0.4090165
C -2.2848337 0.7994212 0.09047505
C 0.029007813 0.25724962 -0.73026395
C 1.4159974 -0.3347874 -0.56104934
C 2.131545 -0.4175934 0.77221256
C 0.24749745 -1.2320002 -0.92339015
C -0.30096942 -2.2854934 0.017782662
H 0.72358114 2.3422332 0.9613688
H -0.48281896 2.9301398 -0.18997282
H -0.9132113 2.7358587 1.5146651
H -0.6142878 0.268586 1.3203534
H -2.5104377 1.3716053 -0.81750774
H -2.6215088 -0.22861043 -0.07347244
H -2.8789 1.225318 0.90632814
H -0.112157024 0.81488043 -1.655983
H 2.0975997 -0.12846926 -1.3834773
H 1.4534103 -0.5938116 1.6103362
H 2.8646815 -1.2323836 0.7698311
H 2.6752381 0.5102427 0.9828193
H 0.23508592 -1.5585428 -1.9610567
H -0.32633683 -1.9561003 1.0590471
H -1.3235766 -2.564256 -0.2604134
H 0.30776593 -3.1961722 -0.020881053
