title
 OpenBabel02282110003D

 23 23  0  0  1  0  0  0  0  0999 V2000
   -2.1698    1.0686   -0.0035 C   0  0  0  0  0  0  0  0  0  0  0  0
   -0.6940    0.9245   -0.4076 C   0  0  0  0  0  0  0  0  0  0  0  0
   -0.0802    2.2935   -0.7420 C   0  0  0  0  0  0  0  0  0  0  0  0
    0.0827    0.2525    0.7150 C   0  0  1  0  0  0  0  0  0  0  0  0
    0.1515   -1.2308    0.9138 C   0  0  1  0  0  0  0  0  0  0  0  0
   -0.5206   -2.2310   -0.0050 C   0  0  0  0  0  0  0  0  0  0  0  0
    1.3478   -0.4692    0.5418 N   0  0  0  0  0  0  0  0  0  0  0  0
    1.9495   -0.6386   -0.7714 C   0  0  0  0  0  0  0  0  0  0  0  0
   -2.2658    1.6592    0.9153 H   0  0  0  0  0  0  0  0  0  0  0  0
   -2.7440    1.5773   -0.7850 H   0  0  0  0  0  0  0  0  0  0  0  0
   -2.6328    0.0940    0.1779 H   0  0  0  0  0  0  0  0  0  0  0  0
   -0.6522    0.3063   -1.3104 H   0  0  0  0  0  0  0  0  0  0  0  0
   -0.1014    2.9523    0.1341 H   0  0  0  0  0  0  0  0  0  0  0  0
    0.9621    2.2006   -1.0611 H   0  0  0  0  0  0  0  0  0  0  0  0
   -0.6373    2.7884   -1.5444 H   0  0  0  0  0  0  0  0  0  0  0  0
    0.0821    0.8650    1.6203 H   0  0  0  0  0  0  0  0  0  0  0  0
    0.1946   -1.5842    1.9451 H   0  0  0  0  0  0  0  0  0  0  0  0
   -0.6651   -1.8631   -1.0223 H   0  0  0  0  0  0  0  0  0  0  0  0
    0.0661   -3.1547   -0.0647 H   0  0  0  0  0  0  0  0  0  0  0  0
   -1.5058   -2.4969    0.3933 H   0  0  0  0  0  0  0  0  0  0  0  0
    1.2533   -0.7436   -1.6159 H   0  0  0  0  0  0  0  0  0  0  0  0
    2.5957    0.2214   -0.9765 H   0  0  0  0  0  0  0  0  0  0  0  0
    2.5847   -1.5305   -0.7519 H   0  0  0  0  0  0  0  0  0  0  0  0
  1 11  1  0  0  0  0
  1  9  1  0  0  0  0
  2  1  1  0  0  0  0
  2  4  1  0  0  0  0
  3  2  1  0  0  0  0
  3 13  1  0  0  0  0
  4  5  1  1  0  0  0
  4 16  1  0  0  0  0
  5 17  1  1  0  0  0
  6 20  1  0  0  0  0
  6  5  1  0  0  0  0
  7  4  1  0  0  0  0
  7  5  1  0  0  0  0
  8 23  1  0  0  0  0
  8  7  1  0  0  0  0
 10  1  1  0  0  0  0
 12  2  1  0  0  0  0
 14  3  1  0  0  0  0
 15  3  1  0  0  0  0
 18  6  1  0  0  0  0
 19  6  1  0  0  0  0
 21  8  1  0  0  0  0
 22  8  1  0  0  0  0
M  END
