16
title
C 0.43845677 2.648294 0.11647211
C 0.40329418 1.1401194 0.041228473
O 1.4526 0.48921126 -0.03547143
C -0.89452076 0.47426623 0.06125795
C -0.9952866 -0.8713758 -0.74425536
O 0.033617806 -1.276396 -1.5637308
C -0.93397164 -0.94643736 0.7319537
O 0.15747643 -1.4280066 1.4182836
H 1.470666 2.9987755 0.091626294
H -0.1202292 3.0812888 -0.7207168
H -0.04763745 2.9919717 1.036304
H -1.7774932 1.0990945 0.12970132
H -1.9586535 -1.0259011 -1.2205559
H 0.8624883 -0.92631936 -1.196309
H -1.855279 -1.1524377 1.2682105
H 0.95458674 -1.039135 1.0208293
