title
 OpenBabel02282110003D

 18 18  0  0  1  0  0  0  0  0999 V2000
   -1.1665    1.8064    0.2100 C   0  0  0  0  0  0  0  0  0  0  0  0
   -1.4502    0.3570   -0.1084 C   0  0  1  0  0  0  0  0  0  0  0  0
   -0.7766   -0.3879   -1.2326 C   0  0  1  0  0  0  0  0  0  0  0  0
    0.2301    0.2409   -2.1689 C   0  0  0  0  0  0  0  0  0  0  0  0
   -0.4705   -0.6996    0.1520 N   0  0  0  0  0  0  0  0  0  0  0  0
    0.7882   -0.5394    0.7360 C   0  0  0  0  0  0  0  0  0  0  0  0
    0.7174   -0.0896    2.0430 N   0  0  0  0  0  0  0  0  0  0  0  0
    1.8357   -0.8036    0.1811 O   0  0  0  0  0  0  0  0  0  0  0  0
   -0.1530    2.1046   -0.0639 H   0  0  0  0  0  0  0  0  0  0  0  0
   -1.8728    2.4478   -0.3278 H   0  0  0  0  0  0  0  0  0  0  0  0
   -1.2859    2.0005    1.2806 H   0  0  0  0  0  0  0  0  0  0  0  0
   -2.4701    0.0533    0.1302 H   0  0  0  0  0  0  0  0  0  0  0  0
   -1.3738   -1.1668   -1.7073 H   0  0  0  0  0  0  0  0  0  0  0  0
    0.8000    1.0445   -1.7014 H   0  0  0  0  0  0  0  0  0  0  0  0
    0.9498   -0.5091   -2.5050 H   0  0  0  0  0  0  0  0  0  0  0  0
   -0.2892    0.6434   -3.0454 H   0  0  0  0  0  0  0  0  0  0  0  0
   -0.1382   -0.2639    2.5465 H   0  0  0  0  0  0  0  0  0  0  0  0
    1.5657   -0.2337    2.5690 H   0  0  0  0  0  0  0  0  0  0  0  0
  1 11  1  0  0  0  0
  2  3  1  6  0  0  0
  2 12  1  0  0  0  0
  2  5  1  0  0  0  0
  2  1  1  0  0  0  0
  3 13  1  6  0  0  0
  3  5  1  0  0  0  0
  4 14  1  0  0  0  0
  4  3  1  0  0  0  0
  5  6  1  0  0  0  0
  6  7  1  0  0  0  0
  7 17  1  0  0  0  0
  7 18  1  0  0  0  0
  8  6  2  0  0  0  0
  9  1  1  0  0  0  0
 10  1  1  0  0  0  0
 15  4  1  0  0  0  0
 16  4  1  0  0  0  0
M  END
