19
title
C -1.7208841 1.0187094 0.93950754
C -1.4635965 -0.36429128 0.3805115
C -0.99652815 -0.6190927 -1.022141
C -0.7335665 0.4779959 -2.0313292
C -0.05394675 -0.91820294 0.14786868
C 1.1658261 -0.095169455 0.4077813
N 2.2318187 -0.812964 0.8843867
O 1.2579286 1.1073172 0.21043585
H -0.95612717 1.7307678 0.6317189
H -2.7007487 1.3828311 0.61080825
H -1.7290999 0.9921532 2.0346603
H -2.1440701 -1.1173882 0.7720038
H -1.3964242 -1.5258169 -1.4708811
H -0.2207705 1.3283563 -1.5837611
H -0.10535742 0.10285838 -2.8465269
H -1.676879 0.82019955 -2.4716797
H 0.07015954 -1.9727008 0.377124
H 2.1435547 -1.7665839 1.1872059
H 3.0485978 -0.29478443 1.1642873
