title
 OpenBabel02282110003D

 18 18  0  0  1  0  0  0  0  0999 V2000
   -0.2092    2.5767    0.2818 C   0  0  0  0  0  0  0  0  0  0  0  0
   -0.5292    1.1012    0.3713 C   0  0  1  0  0  0  0  0  0  0  0  0
    0.3305    0.0758   -0.3119 C   0  0  1  0  0  0  0  0  0  0  0  0
    0.2595    0.1464    1.1471 N   0  0  0  0  0  0  0  0  0  0  0  0
    1.4458    0.5817    1.8729 C   0  0  0  0  0  0  0  0  0  0  0  0
   -0.2505   -1.1327   -1.0009 C   0  0  0  0  0  0  0  0  0  0  0  0
   -1.0128   -1.9143   -0.1856 N   0  0  0  0  0  0  0  0  0  0  0  0
   -0.0692   -1.3424   -2.1857 O   0  0  0  0  0  0  0  0  0  0  0  0
    0.8554    2.7696    0.1338 H   0  0  0  0  0  0  0  0  0  0  0  0
   -0.7459    3.0163   -0.5648 H   0  0  0  0  0  0  0  0  0  0  0  0
   -0.5306    3.1031    1.1875 H   0  0  0  0  0  0  0  0  0  0  0  0
   -1.5956    0.8842    0.4173 H   0  0  0  0  0  0  0  0  0  0  0  0
    1.2213    0.4574   -0.8076 H   0  0  0  0  0  0  0  0  0  0  0  0
    2.0546    1.3273    1.3427 H   0  0  0  0  0  0  0  0  0  0  0  0
    1.1452    1.0036    2.8371 H   0  0  0  0  0  0  0  0  0  0  0  0
    2.0762   -0.2916    2.0656 H   0  0  0  0  0  0  0  0  0  0  0  0
   -0.9396   -1.7720    0.8103 H   0  0  0  0  0  0  0  0  0  0  0  0
   -1.3563   -2.7873   -0.5493 H   0  0  0  0  0  0  0  0  0  0  0  0
  1  2  1  0  0  0  0
  1 11  1  0  0  0  0
  2  3  1  6  0  0  0
  2 12  1  0  0  0  0
  2  4  1  0  0  0  0
  3 13  1  6  0  0  0
  3  4  1  0  0  0  0
  4  5  1  0  0  0  0
  5 16  1  0  0  0  0
  5 15  1  0  0  0  0
  6  3  1  0  0  0  0
  6  7  1  0  0  0  0
  7 17  1  0  0  0  0
  8  6  2  0  0  0  0
  9  1  1  0  0  0  0
 10  1  1  0  0  0  0
 14  5  1  0  0  0  0
 18  7  1  0  0  0  0
M  END
