18
title
C -1.1665252 1.8064053 0.20997523
C -1.4502187 0.35698453 -0.108431295
C -0.7765672 -0.38789284 -1.2326247
C 0.23012358 0.24090411 -2.1689296
N -0.47047144 -0.69955426 0.1520362
C 0.78817636 -0.5394443 0.73603326
N 0.7174333 -0.089551106 2.0429573
O 1.835659 -0.80356604 0.18112253
H -0.15303355 2.1045506 -0.0639016
H -1.8728348 2.4478364 -0.32775298
H -1.2858918 2.0004838 1.2805713
H -2.4700546 0.05325924 0.13017513
H -1.373791 -1.1668094 -1.7072687
H 0.8000198 1.0445464 -1.7014488
H 0.9498494 -0.50908744 -2.5049868
H -0.28923982 0.6433784 -3.0453885
H -0.13819796 -0.26385528 2.5464766
H 1.5656719 -0.23374377 2.5689917
