20
title
C 1.2482795 1.3173084 -1.8162388
C 0.77648634 0.75076354 -0.48002082
O 0.88494724 1.7447338 0.56390476
C -0.63346916 0.19203506 -0.55064267
C -0.9429193 -1.2947294 -0.39064237
C 0.13337679 -2.3439357 -0.21714638
C -1.263357 -0.32914758 0.7227701
O -0.47772148 -0.36320293 1.8755715
H 2.256425 1.7297025 -1.7235696
H 1.2553035 0.5376576 -2.584585
H 0.57903236 2.11595 -2.1595802
H 1.4732388 -0.026535816 -0.15822448
H 0.2666665 2.4539173 0.35281897
H -1.2903637 0.7407253 -1.2234229
H -1.8011626 -1.626877 -0.96905243
H 0.81929594 -2.0747175 0.5885081
H -0.32048443 -3.3027785 0.054002356
H 0.70885885 -2.4981189 -1.13669
H -2.3119872 -0.09413148 0.90517044
H 0.02343794 0.4659761 1.8878818
