21
title
C 1.0267797 1.1516664 -1.9182076
C 0.672317 0.8678613 -0.456838
O 0.6890392 2.0658715 0.3234177
C -0.673378 0.17619385 -0.3449034
C -0.84685004 -1.3121793 -0.27965075
C 0.30506244 -2.2953076 -0.332327
N -1.1490903 -0.4679478 0.8772176
C -0.31354657 -0.4930186 2.0705914
H 1.9638246 1.711688 -1.975588
H 1.1353308 0.22239216 -2.4868283
H 0.24171527 1.7481533 -2.3989754
H 1.4615842 0.25468257 -0.015244035
H -0.048476715 2.6136885 0.031253457
H -1.4578695 0.74487716 -0.8544256
H -1.7493818 -1.7120492 -0.74380714
H 1.2356983 -1.9068332 0.08450475
H 0.051611822 -3.2089827 0.21674761
H 0.5014337 -2.5823581 -1.3711063
H 0.7446036 -0.74162394 1.9108919
H -0.35123447 0.49320537 2.5400496
H -0.7279643 -1.2270924 2.7692297
