title
 OpenBabel02282110003D

 16 16  0  0  1  0  0  0  0  0999 V2000
    0.4385    2.6483    0.1165 C   0  0  0  0  0  0  0  0  0  0  0  0
    0.4033    1.1401    0.0412 C   0  0  0  0  0  0  0  0  0  0  0  0
    1.4526    0.4892   -0.0355 O   0  0  0  0  0  0  0  0  0  0  0  0
   -0.8945    0.4743    0.0613 C   0  0  1  0  0  0  0  0  0  0  0  0
   -0.9953   -0.8714   -0.7443 C   0  0  1  0  0  0  0  0  0  0  0  0
    0.0336   -1.2764   -1.5637 O   0  0  0  0  0  0  0  0  0  0  0  0
   -0.9340   -0.9464    0.7320 C   0  0  1  0  0  0  0  0  0  0  0  0
    0.1575   -1.4280    1.4183 O   0  0  0  0  0  0  0  0  0  0  0  0
    1.4707    2.9988    0.0916 H   0  0  0  0  0  0  0  0  0  0  0  0
   -0.1202    3.0813   -0.7207 H   0  0  0  0  0  0  0  0  0  0  0  0
   -0.0476    2.9920    1.0363 H   0  0  0  0  0  0  0  0  0  0  0  0
   -1.7775    1.0991    0.1297 H   0  0  0  0  0  0  0  0  0  0  0  0
   -1.9587   -1.0259   -1.2206 H   0  0  0  0  0  0  0  0  0  0  0  0
    0.8625   -0.9263   -1.1963 H   0  0  0  0  0  0  0  0  0  0  0  0
   -1.8553   -1.1524    1.2682 H   0  0  0  0  0  0  0  0  0  0  0  0
    0.9546   -1.0391    1.0208 H   0  0  0  0  0  0  0  0  0  0  0  0
  1 11  1  0  0  0  0
  2  4  1  0  0  0  0
  2  1  1  0  0  0  0
  3  2  2  0  0  0  0
  4 12  1  0  0  0  0
  4  7  1  1  0  0  0
  5  4  1  6  0  0  0
  6 14  1  0  0  0  0
  6  5  1  0  0  0  0
  7  5  1  6  0  0  0
  7 15  1  0  0  0  0
  7  8  1  0  0  0  0
  9  1  1  0  0  0  0
 10  1  1  0  0  0  0
 13  5  1  0  0  0  0
 16  8  1  0  0  0  0
M  END
