title
 OpenBabel02282110003D

 15 16  0  0  1  0  0  0  0  0999 V2000
    0.9853    1.9649   -0.1083 N   0  0  0  0  0  0  0  0  0  0  0  0
    0.9160    0.7347    0.1127 C   0  0  0  0  0  0  0  0  0  0  0  0
    1.8647   -0.1719    0.5430 O   0  0  0  0  0  0  0  0  0  0  0  0
    0.9176   -1.2837    0.4583 C   0  0  0  0  0  0  0  0  0  0  0  0
   -0.1990   -0.3047    0.0448 C   0  0  1  0  0  0  0  0  0  0  0  0
   -1.5288   -0.1013    0.7952 C   0  0  0  0  0  0  0  0  0  0  0  0
   -2.1650   -0.2542   -0.6005 C   0  0  0  0  0  0  0  0  0  0  0  0
   -0.8700   -0.5204   -1.1938 O   0  0  0  0  0  0  0  0  0  0  0  0
    1.9264    2.3284    0.0522 H   0  0  0  0  0  0  0  0  0  0  0  0
    1.2012   -1.9903   -0.3253 H   0  0  0  0  0  0  0  0  0  0  0  0
    0.8090   -1.7854    1.4232 H   0  0  0  0  0  0  0  0  0  0  0  0
   -1.7716   -0.8922    1.5070 H   0  0  0  0  0  0  0  0  0  0  0  0
   -1.6413    0.8733    1.2699 H   0  0  0  0  0  0  0  0  0  0  0  0
   -2.8519   -1.0959   -0.7374 H   0  0  0  0  0  0  0  0  0  0  0  0
   -2.6147    0.6554   -1.0112 H   0  0  0  0  0  0  0  0  0  0  0  0
  1  9  1  0  0  0  0
  1  2  2  0  0  0  0
  2  3  1  0  0  0  0
  4  3  1  0  0  0  0
  4 11  1  0  0  0  0
  5  8  1  6  0  0  0
  5  2  1  0  0  0  0
  5  4  1  0  0  0  0
  5  6  1  0  0  0  0
  6 13  1  0  0  0  0
  6 12  1  0  0  0  0
  7  6  1  0  0  0  0
  8  7  1  0  0  0  0
 10  4  1  0  0  0  0
 14  7  1  0  0  0  0
 15  7  1  0  0  0  0
M  END
