15
title
N 0.9696314 2.0000734 -0.1886235
C 0.94348615 0.77518225 0.07185471
O 1.9298083 -0.085078694 0.511222
C 0.99552053 -1.2123812 0.51861805
C -0.1298489 -0.28623375 0.029275635
C -1.4890659 -0.12651043 0.7374889
O -2.2097642 -0.45591316 -0.46477064
C -0.9888187 -0.5538168 -1.2217712
H 1.896394 2.4020624 -0.039706357
H 1.3165367 -1.9921688 -0.1772428
H 0.8815923 -1.620531 1.5264757
H -1.683723 -0.83953047 1.5486374
H -1.6991067 0.8924383 1.0825216
H -0.9139313 0.22175051 -1.9926854
H -0.8597953 -1.5433241 -1.6783662
