title
 OpenBabel02282110003D

 16 17  0  0  1  0  0  0  0  0999 V2000
    0.8777    1.9364   -0.2555 N   0  0  0  0  0  0  0  0  0  0  0  0
    0.8710    0.7279    0.0810 C   0  0  0  0  0  0  0  0  0  0  0  0
    1.8648   -0.0813    0.5871 O   0  0  0  0  0  0  0  0  0  0  0  0
    0.9961   -1.2617    0.5278 C   0  0  0  0  0  0  0  0  0  0  0  0
   -0.1725   -0.3799    0.0435 C   0  0  1  0  0  0  0  0  0  0  0  0
   -1.5075   -0.1901    0.8049 C   0  0  0  0  0  0  0  0  0  0  0  0
   -2.1700   -0.1153   -0.5924 C   0  0  0  0  0  0  0  0  0  0  0  0
   -0.9227   -0.6731   -1.1810 N   0  0  0  0  0  0  0  0  0  0  0  0
    1.7930    2.3664   -0.1114 H   0  0  0  0  0  0  0  0  0  0  0  0
    1.3612   -1.9836   -0.2068 H   0  0  0  0  0  0  0  0  0  0  0  0
    0.8928   -1.7235    1.5130 H   0  0  0  0  0  0  0  0  0  0  0  0
   -1.7914   -1.0770    1.3753 H   0  0  0  0  0  0  0  0  0  0  0  0
   -1.5780    0.6947    1.4369 H   0  0  0  0  0  0  0  0  0  0  0  0
   -3.0560   -0.7340   -0.7637 H   0  0  0  0  0  0  0  0  0  0  0  0
   -2.3860    0.9149   -0.8961 H   0  0  0  0  0  0  0  0  0  0  0  0
   -0.5811   -0.1941   -2.0082 H   0  0  0  0  0  0  0  0  0  0  0  0
  1  9  1  0  0  0  0
  1  2  2  0  0  0  0
  2  3  1  0  0  0  0
  4  3  1  0  0  0  0
  4 11  1  0  0  0  0
  5  2  1  6  0  0  0
  5  4  1  0  0  0  0
  5  6  1  0  0  0  0
  6 12  1  0  0  0  0
  6 13  1  0  0  0  0
  7  6  1  0  0  0  0
  8  7  1  0  0  0  0
  8  5  1  0  0  0  0
 10  4  1  0  0  0  0
 14  7  1  0  0  0  0
 15  7  1  0  0  0  0
 16  8  1  0  0  0  0
M  END
