17
title
N 1.2018201 1.9167892 -0.1192647
C 1.0001595 0.6993943 0.104250245
O 1.8507519 -0.2916343 0.55318516
C 0.77794737 -1.2861012 0.49685767
C -0.20207396 -0.20584391 -0.0064011575
C -1.5403514 0.08165462 0.7246716
C -2.3082108 -0.4986318 -0.49400702
C -1.001171 -0.3839222 -1.3246732
H 2.1689167 2.1814582 0.075049005
H 1.0251063 -2.0849493 -0.20802476
H 0.5784549 -1.6992706 1.4896312
H -1.6819823 -0.39990637 1.695668
H -1.6895244 1.1582015 0.83924156
H -2.6089647 -1.5380455 -0.33699763
H -3.1750002 0.061729565 -0.84936297
H -0.96331143 0.53112394 -1.9209863
H -0.72081554 -1.2298642 -1.957585
