18
title
O -0.8270819 -1.8363452 -0.4061235
C -0.88501936 -0.71144867 0.004368325
C -1.9994353 0.14868392 0.6256634
C -1.0013267 1.3480235 0.6197521
C 0.13222373 0.4351937 0.07580036
C 1.4540226 0.1244842 0.8410334
C 2.1540947 -0.072362885 -0.52856314
C 0.98793375 0.70458066 -1.1934742
H -2.8949666 0.24691261 0.005701517
H -2.3079293 -0.19975625 1.6161219
H -1.2811865 2.1501143 -0.06756092
H -0.80023795 1.7847568 1.600527
H 1.8136084 1.0157818 1.3646575
H 1.4417281 -0.71750736 1.5375736
H 3.1626623 0.33007708 -0.6434067
H 2.1514368 -1.1226039 -0.8279865
H 0.59681654 0.32748476 -2.1415966
H 1.2066543 1.7721275 -1.2955031
