title
 OpenBabel02282110003D

 16 17  0  0  1  0  0  0  0  0999 V2000
   -0.9793   -1.9344   -0.0145 O   0  0  0  0  0  0  0  0  0  0  0  0
   -0.9592   -0.7409   -0.0747 C   0  0  0  0  0  0  0  0  0  0  0  0
   -2.0165    0.3525   -0.3306 C   0  0  0  0  0  0  0  0  0  0  0  0
   -0.8425    1.3307   -0.6332 C   0  0  0  0  0  0  0  0  0  0  0  0
    0.1738    0.3170   -0.0424 C   0  0  1  0  0  0  0  0  0  0  0  0
    0.8971    0.5583    1.3077 C   0  0  0  0  0  0  0  0  0  0  0  0
    2.1614    0.1631    0.5198 C   0  0  0  0  0  0  0  0  0  0  0  0
    1.4077    0.0620   -0.7101 O   0  0  0  0  0  0  0  0  0  0  0  0
   -2.7242    0.1429   -1.1355 H   0  0  0  0  0  0  0  0  0  0  0  0
   -2.5812    0.5977    0.5744 H   0  0  0  0  0  0  0  0  0  0  0  0
   -0.6738    1.4575   -1.7052 H   0  0  0  0  0  0  0  0  0  0  0  0
   -0.8756    2.3110   -0.1547 H   0  0  0  0  0  0  0  0  0  0  0  0
    0.8687    1.5951    1.6472 H   0  0  0  0  0  0  0  0  0  0  0  0
    0.6137   -0.1058    2.1254 H   0  0  0  0  0  0  0  0  0  0  0  0
    2.9511    0.9190    0.4509 H   0  0  0  0  0  0  0  0  0  0  0  0
    2.6032   -0.7988    0.8020 H   0  0  0  0  0  0  0  0  0  0  0  0
  2  5  1  0  0  0  0
  2  1  2  0  0  0  0
  3  2  1  0  0  0  0
  3 10  1  0  0  0  0
  4  3  1  0  0  0  0
  4 12  1  0  0  0  0
  4  5  1  0  0  0  0
  5  8  1  6  0  0  0
  5  6  1  0  0  0  0
  6 13  1  0  0  0  0
  6 14  1  0  0  0  0
  7 16  1  0  0  0  0
  7  6  1  0  0  0  0
  8  7  1  0  0  0  0
  9  3  1  0  0  0  0
 11  4  1  0  0  0  0
 15  7  1  0  0  0  0
M  END
