17
title
O -0.79416937 -1.9320326 -0.1532566
C -0.8689628 -0.7575494 0.055573374
C -1.9979306 0.23160683 0.39361078
N -0.9464899 1.2597615 0.62306494
C 0.1367012 0.39900193 0.101793796
C 1.4933121 0.20209514 0.821945
C 2.1493957 -0.01480569 -0.5680719
C 0.9195402 0.67290246 -1.21827
H -2.6701818 0.40801892 -0.45691356
H -2.6024487 -0.006767169 1.2753267
H -1.0796492 2.117077 0.09887905
H 1.8103361 1.1383978 1.2901639
H 1.5535069 -0.6050632 1.5555304
H 3.1263776 0.4391528 -0.742274
H 2.1960907 -1.0744404 -0.8280733
H 0.51632863 0.2570432 -2.1450505
H 1.0768012 1.7492305 -1.346936
