title
 OpenBabel02282110003D

 17 18  0  0  0  0  0  0  0  0999 V2000
   -0.8323   -1.9086   -0.0455 O   0  0  0  0  0  0  0  0  0  0  0  0
   -0.8848   -0.7064   -0.0269 C   0  0  0  0  0  0  0  0  0  0  0  0
   -1.9249    0.1905   -0.0303 N   0  0  0  0  0  0  0  0  0  0  0  0
   -1.0863    1.3935    0.0038 C   0  0  0  0  0  0  0  0  0  0  0  0
    0.1451    0.4476    0.0098 C   0  0  0  0  0  0  0  0  0  0  0  0
    1.2307    0.3950    1.1136 C   0  0  0  0  0  0  0  0  0  0  0  0
    2.2302   -0.1089    0.0370 C   0  0  0  0  0  0  0  0  0  0  0  0
    1.2684    0.4303   -1.0568 C   0  0  0  0  0  0  0  0  0  0  0  0
   -2.9253    0.0596   -0.0495 H   0  0  0  0  0  0  0  0  0  0  0  0
   -1.1770    2.0303   -0.8831 H   0  0  0  0  0  0  0  0  0  0  0  0
   -1.2082    2.0012    0.9073 H   0  0  0  0  0  0  0  0  0  0  0  0
    1.4828    1.3984    1.4708 H   0  0  0  0  0  0  0  0  0  0  0  0
    1.0349   -0.2507    1.9727 H   0  0  0  0  0  0  0  0  0  0  0  0
    3.2450    0.2930    0.0611 H   0  0  0  0  0  0  0  0  0  0  0  0
    2.2761   -1.1998    0.0200 H   0  0  0  0  0  0  0  0  0  0  0  0
    1.1030   -0.1871   -1.9426 H   0  0  0  0  0  0  0  0  0  0  0  0
    1.5322    1.4446   -1.3722 H   0  0  0  0  0  0  0  0  0  0  0  0
  1  2  2  0  0  0  0
  2  5  1  0  0  0  0
  3  2  1  0  0  0  0
  3  4  1  0  0  0  0
  4  5  1  0  0  0  0
  4 11  1  0  0  0  0
  5  6  1  0  0  0  0
  6 12  1  0  0  0  0
  6 13  1  0  0  0  0
  7 14  1  0  0  0  0
  7  6  1  0  0  0  0
  8  5  1  0  0  0  0
  8  7  1  0  0  0  0
  9  3  1  0  0  0  0
 10  4  1  0  0  0  0
 15  7  1  0  0  0  0
 16  8  1  0  0  0  0
 17  8  1  0  0  0  0
M  END
