15
title
O -1.1048921 -1.8912863 0.08894397
C -0.9907331 -0.69703084 0.037655447
N -1.8903499 0.34078208 -0.0009942446
C -0.9021374 1.4219896 -0.07100692
C 0.19475397 0.32056728 0.025355957
C 1.2874027 0.2588555 1.1075186
C 2.24663 0.08882563 -0.087549366
O 1.1529382 0.23185365 -1.026025
H -2.89886 0.35230294 0.016873838
H -0.88364875 1.9604365 -1.0233138
H -0.94057286 2.1288931 0.764469
H 1.4156779 1.1771208 1.6829399
H 1.2135006 -0.5938752 1.78346
H 3.0009923 0.8711645 -0.22459203
H 2.722127 -0.8939443 -0.17099656
