16
title
O -0.43118075 -1.9873122 -0.3740918
C -0.6708547 -0.8750063 -0.026378406
O -1.8628428 -0.3759817 0.44043556
C -1.2869587 0.96226335 0.61066777
C 0.066368036 0.4574697 0.0957547
C 1.4066803 0.47603226 0.8767942
C 2.1500213 0.5273278 -0.4853236
C 0.824037 0.98394847 -1.1515489
H -1.80514 1.6884115 -0.020491032
H -1.3230752 1.2671752 1.6594211
H 1.5145466 1.4076271 1.440371
H 1.606257 -0.3676225 1.5406573
H 3.010517 1.1937385 -0.5656018
H 2.4396381 -0.47144556 -0.8186489
H 0.5558354 0.547951 -2.116057
H 0.7506072 2.073517 -1.2189977
