title
 OpenBabel02282110003D

 17 18  0  0  0  0  0  0  0  0999 V2000
   -0.7942   -1.9320   -0.1533 O   0  0  0  0  0  0  0  0  0  0  0  0
   -0.8690   -0.7575    0.0556 C   0  0  0  0  0  0  0  0  0  0  0  0
   -1.9979    0.2316    0.3936 C   0  0  0  0  0  0  0  0  0  0  0  0
   -0.9465    1.2598    0.6231 N   0  0  0  0  0  0  0  0  0  0  0  0
    0.1367    0.3990    0.1018 C   0  0  0  0  0  0  0  0  0  0  0  0
    1.4933    0.2021    0.8219 C   0  0  0  0  0  0  0  0  0  0  0  0
    2.1494   -0.0148   -0.5681 C   0  0  0  0  0  0  0  0  0  0  0  0
    0.9195    0.6729   -1.2183 C   0  0  0  0  0  0  0  0  0  0  0  0
   -2.6702    0.4080   -0.4569 H   0  0  0  0  0  0  0  0  0  0  0  0
   -2.6024   -0.0068    1.2753 H   0  0  0  0  0  0  0  0  0  0  0  0
   -1.0796    2.1171    0.0989 H   0  0  0  0  0  0  0  0  0  0  0  0
    1.8103    1.1384    1.2902 H   0  0  0  0  0  0  0  0  0  0  0  0
    1.5535   -0.6051    1.5555 H   0  0  0  0  0  0  0  0  0  0  0  0
    3.1264    0.4392   -0.7423 H   0  0  0  0  0  0  0  0  0  0  0  0
    2.1961   -1.0744   -0.8281 H   0  0  0  0  0  0  0  0  0  0  0  0
    0.5163    0.2570   -2.1451 H   0  0  0  0  0  0  0  0  0  0  0  0
    1.0768    1.7492   -1.3469 H   0  0  0  0  0  0  0  0  0  0  0  0
  1  2  2  0  0  0  0
  2  5  1  0  0  0  0
  2  3  1  0  0  0  0
  3  4  1  0  0  0  0
  3 10  1  0  0  0  0
  5  4  1  0  0  0  0
  5  6  1  0  0  0  0
  6 12  1  0  0  0  0
  6 13  1  0  0  0  0
  7  6  1  0  0  0  0
  8  7  1  0  0  0  0
  8  5  1  0  0  0  0
  9  3  1  0  0  0  0
 11  4  1  0  0  0  0
 14  7  1  0  0  0  0
 15  7  1  0  0  0  0
 16  8  1  0  0  0  0
 17  8  1  0  0  0  0
M  END
