14
title
O -0.7035954 -2.0055406 -0.4505958
C -0.7700437 -0.8917084 -0.046046168
O -1.8440925 -0.25803044 0.5323676
C -1.1179001 1.0074632 0.65572083
C 0.15231544 0.3421485 0.0982559
C 1.4995068 0.23020075 0.83742225
C 2.0949225 0.7405858 -0.4904016
O 0.7696709 0.8789382 -1.0638746
H -1.5437199 1.7723184 0.0031611978
H -1.0890744 1.3417878 1.6950299
H 1.6054877 0.9056752 1.6876047
H 1.7820002 -0.78092706 1.1314988
H 2.6200125 1.7004533 -0.45534632
H 2.6971552 0.013811812 -1.0444453
