title
 OpenBabel02282110003D

 15 16  0  0  1  0  0  0  0  0999 V2000
   -0.5538   -1.9770   -0.4921 O   0  0  0  0  0  0  0  0  0  0  0  0
   -0.7133   -0.8800   -0.0596 C   0  0  0  0  0  0  0  0  0  0  0  0
   -1.8521   -0.3402    0.4836 O   0  0  0  0  0  0  0  0  0  0  0  0
   -1.2282    0.9808    0.6267 C   0  0  0  0  0  0  0  0  0  0  0  0
    0.1029    0.4176    0.0989 C   0  0  1  0  0  0  0  0  0  0  0  0
    1.4279    0.3612    0.8988 C   0  0  0  0  0  0  0  0  0  0  0  0
    2.1324    0.5915   -0.4611 C   0  0  0  0  0  0  0  0  0  0  0  0
    0.8225    1.0038   -1.0316 N   0  0  0  0  0  0  0  0  0  0  0  0
   -1.7089    1.7127   -0.0255 H   0  0  0  0  0  0  0  0  0  0  0  0
   -1.2471    1.3084    1.6684 H   0  0  0  0  0  0  0  0  0  0  0  0
    1.5294    1.2005    1.5895 H   0  0  0  0  0  0  0  0  0  0  0  0
    1.6414   -0.5724    1.4190 H   0  0  0  0  0  0  0  0  0  0  0  0
    2.9004    1.3691   -0.5066 H   0  0  0  0  0  0  0  0  0  0  0  0
    2.5342   -0.3361   -0.8840 H   0  0  0  0  0  0  0  0  0  0  0  0
    0.5935    0.6193   -1.9426 H   0  0  0  0  0  0  0  0  0  0  0  0
  1  2  2  0  0  0  0
  2  3  1  0  0  0  0
  3  4  1  0  0  0  0
  4 10  1  0  0  0  0
  5  2  1  6  0  0  0
  5  4  1  0  0  0  0
  5  6  1  0  0  0  0
  6 12  1  0  0  0  0
  6 11  1  0  0  0  0
  7  6  1  0  0  0  0
  8  7  1  0  0  0  0
  8  5  1  0  0  0  0
  9  4  1  0  0  0  0
 13  7  1  0  0  0  0
 14  7  1  0  0  0  0
 15  8  1  0  0  0  0
M  END
