17
title
O -0.8323038 -1.9086155 -0.045538113
C -0.8847975 -0.7064457 -0.026868217
N -1.9249448 0.19053769 -0.030310635
C -1.0863229 1.3935456 0.0038354897
C 0.14513254 0.4476254 0.009790634
C 1.2306951 0.3949809 1.1135654
C 2.2302384 -0.10893678 0.03696707
C 1.2684163 0.43028975 -1.0567609
H -2.9252837 0.059575446 -0.049517132
H -1.17705 2.0302672 -0.8830532
H -1.2081516 2.0011513 0.90726674
H 1.48275 1.3983548 1.470759
H 1.0349478 -0.25072777 1.972653
H 3.2450447 0.292979 0.06114244
H 2.2761092 -1.1998148 0.020000502
H 1.1030203 -0.18708467 -1.9426378
H 1.5321585 1.4445915 -1.3722032
