title
 OpenBabel02282110003D

 18 19  0  0  1  0  0  0  0  0999 V2000
   -0.8864    1.8328   -1.0913 C   0  0  0  0  0  0  0  0  0  0  0  0
   -0.4464    0.3837   -1.1285 C   0  0  1  0  0  0  0  0  0  0  0  0
    0.8155    0.2093   -1.8190 O   0  0  0  0  0  0  0  0  0  0  0  0
    1.3889   -0.4836   -0.6946 C   0  0  0  0  0  0  0  0  0  0  0  0
    0.1234   -0.2764    0.1500 C   0  0  0  0  0  0  0  0  0  0  0  0
    0.1468    0.4011    1.5326 C   0  0  0  0  0  0  0  0  0  0  0  0
   -0.5367   -0.7118    2.1429 O   0  0  0  0  0  0  0  0  0  0  0  0
   -0.5923   -1.4190    0.8884 C   0  0  0  0  0  0  0  0  0  0  0  0
   -0.1334    2.4630   -0.6084 H   0  0  0  0  0  0  0  0  0  0  0  0
   -1.0331    2.2000   -2.1117 H   0  0  0  0  0  0  0  0  0  0  0  0
   -1.8340    1.9391   -0.5520 H   0  0  0  0  0  0  0  0  0  0  0  0
   -1.2269   -0.2349   -1.5975 H   0  0  0  0  0  0  0  0  0  0  0  0
    1.6227   -1.5319   -0.9271 H   0  0  0  0  0  0  0  0  0  0  0  0
    2.2982    0.0087   -0.3255 H   0  0  0  0  0  0  0  0  0  0  0  0
    1.1480    0.5545    1.9575 H   0  0  0  0  0  0  0  0  0  0  0  0
   -0.4236    1.3339    1.6238 H   0  0  0  0  0  0  0  0  0  0  0  0
   -1.6251   -1.6127    0.5678 H   0  0  0  0  0  0  0  0  0  0  0  0
   -0.0468   -2.3717    0.9249 H   0  0  0  0  0  0  0  0  0  0  0  0
  1  9  1  0  0  0  0
  1 11  1  0  0  0  0
  2 12  1  6  0  0  0
  2  1  1  0  0  0  0
  2  5  1  0  0  0  0
  3  2  1  0  0  0  0
  3  4  1  0  0  0  0
  4 14  1  0  0  0  0
  4  5  1  0  0  0  0
  5  8  1  0  0  0  0
  5  6  1  0  0  0  0
  6 16  1  0  0  0  0
  6 15  1  0  0  0  0
  6  7  1  0  0  0  0
  8 18  1  0  0  0  0
  8  7  1  0  0  0  0
 10  1  1  0  0  0  0
 13  4  1  0  0  0  0
 17  8  1  0  0  0  0
M  END
