title
 OpenBabel02282110003D

 18 19  0  0  1  0  0  0  0  0999 V2000
   -0.8317    1.9020   -1.0953 C   0  0  0  0  0  0  0  0  0  0  0  0
   -0.5004    0.4187   -1.1527 C   0  0  1  0  0  0  0  0  0  0  0  0
    0.8254    0.0075   -1.8281 C   0  0  0  0  0  0  0  0  0  0  0  0
    1.2859   -0.6364   -0.6199 O   0  0  0  0  0  0  0  0  0  0  0  0
    0.1073   -0.2595    0.1003 C   0  0  0  0  0  0  0  0  0  0  0  0
    0.2793    0.4322    1.4673 C   0  0  0  0  0  0  0  0  0  0  0  0
   -0.5736   -0.5394    2.1069 O   0  0  0  0  0  0  0  0  0  0  0  0
   -0.6286   -1.3424    0.9100 C   0  0  0  0  0  0  0  0  0  0  0  0
    0.0189    2.4883   -0.7314 H   0  0  0  0  0  0  0  0  0  0  0  0
   -1.0926    2.2777   -2.0904 H   0  0  0  0  0  0  0  0  0  0  0  0
   -1.6829    2.0963   -0.4344 H   0  0  0  0  0  0  0  0  0  0  0  0
   -1.3576   -0.1445   -1.5338 H   0  0  0  0  0  0  0  0  0  0  0  0
    0.7532   -0.6962   -2.6651 H   0  0  0  0  0  0  0  0  0  0  0  0
    1.4772    0.8421   -2.1172 H   0  0  0  0  0  0  0  0  0  0  0  0
    1.3145    0.3872    1.8304 H   0  0  0  0  0  0  0  0  0  0  0  0
   -0.1043    1.4532    1.5757 H   0  0  0  0  0  0  0  0  0  0  0  0
   -1.6589   -1.5739    0.6117 H   0  0  0  0  0  0  0  0  0  0  0  0
   -0.0520   -2.2725    0.9998 H   0  0  0  0  0  0  0  0  0  0  0  0
  1  9  1  0  0  0  0
  1 11  1  0  0  0  0
  2 12  1  6  0  0  0
  2  1  1  0  0  0  0
  2  5  1  0  0  0  0
  3  2  1  0  0  0  0
  3  4  1  0  0  0  0
  4  5  1  0  0  0  0
  5  8  1  0  0  0  0
  5  6  1  0  0  0  0
  6 16  1  0  0  0  0
  6 15  1  0  0  0  0
  6  7  1  0  0  0  0
  8 18  1  0  0  0  0
  8  7  1  0  0  0  0
 10  1  1  0  0  0  0
 13  3  1  0  0  0  0
 14  3  1  0  0  0  0
 17  8  1  0  0  0  0
M  END
