title
 OpenBabel02282110003D

 22 23  0  0  1  0  0  0  0  0999 V2000
   -1.0766    1.6761   -1.3046 C   0  0  0  0  0  0  0  0  0  0  0  0
   -0.3491    0.3423   -1.2455 C   0  0  1  0  0  0  0  0  0  0  0  0
    1.1551    0.2765   -1.6298 C   0  0  0  0  0  0  0  0  0  0  0  0
    1.3573   -0.7657   -0.4992 C   0  0  0  0  0  0  0  0  0  0  0  0
    0.0166   -0.2905    0.1271 C   0  0  0  0  0  0  0  0  0  0  0  0
    0.1448    0.5691    1.4191 C   0  0  0  0  0  0  0  0  0  0  0  0
   -0.3191   -0.6661    2.2373 C   0  0  0  0  0  0  0  0  0  0  0  0
   -0.8700   -1.2783    0.9213 C   0  0  0  0  0  0  0  0  0  0  0  0
   -0.5351    2.4510   -0.7509 H   0  0  0  0  0  0  0  0  0  0  0  0
   -1.1789    2.0207   -2.3398 H   0  0  0  0  0  0  0  0  0  0  0  0
   -2.0850    1.6056   -0.8802 H   0  0  0  0  0  0  0  0  0  0  0  0
   -0.9038   -0.4039   -1.8296 H   0  0  0  0  0  0  0  0  0  0  0  0
    1.4107   -0.0191   -2.6505 H   0  0  0  0  0  0  0  0  0  0  0  0
    1.6628    1.2203   -1.4052 H   0  0  0  0  0  0  0  0  0  0  0  0
    1.2837   -1.7919   -0.8745 H   0  0  0  0  0  0  0  0  0  0  0  0
    2.2589   -0.6842    0.1149 H   0  0  0  0  0  0  0  0  0  0  0  0
    1.1259    0.9960    1.6468 H   0  0  0  0  0  0  0  0  0  0  0  0
   -0.5980    1.3723    1.4520 H   0  0  0  0  0  0  0  0  0  0  0  0
    0.5267   -1.2379    2.6288 H   0  0  0  0  0  0  0  0  0  0  0  0
   -1.0261   -0.4938    3.0522 H   0  0  0  0  0  0  0  0  0  0  0  0
   -1.9356   -1.0611    0.7870 H   0  0  0  0  0  0  0  0  0  0  0  0
   -0.7099   -2.3462    0.7439 H   0  0  0  0  0  0  0  0  0  0  0  0
  1  2  1  0  0  0  0
  1 11  1  0  0  0  0
  1  9  1  0  0  0  0
  2 12  1  6  0  0  0
  2  5  1  0  0  0  0
  3 14  1  0  0  0  0
  3  2  1  0  0  0  0
  3  4  1  0  0  0  0
  4 16  1  0  0  0  0
  4  5  1  0  0  0  0
  5  8  1  0  0  0  0
  5  6  1  0  0  0  0
  6 18  1  0  0  0  0
  6 17  1  0  0  0  0
  6  7  1  0  0  0  0
  7 19  1  0  0  0  0
  7 20  1  0  0  0  0
  8  7  1  0  0  0  0
 10  1  1  0  0  0  0
 13  3  1  0  0  0  0
 15  4  1  0  0  0  0
 21  8  1  0  0  0  0
 22  8  1  0  0  0  0
M  END
