20
title
C -0.78562516 1.8025113 -1.2486126
C -0.63623583 0.29507056 -1.1164687
C 0.4123685 -0.44846195 -1.9905801
C 0.71259296 -1.3692893 -0.77887535
C 0.030722305 -0.33096087 0.14462411
C 0.8958647 0.5138405 1.1085364
O 0.12215547 0.09106647 2.248977
C -0.7447047 -0.70635045 1.4174839
H 0.18148075 2.3107967 -1.1702987
H -1.2164006 2.0646389 -2.2212017
H -1.4429862 2.2130692 -0.473655
H -1.6172174 -0.18033355 -1.2467808
H 0.06506954 -0.91606313 -2.9148533
H 1.2627531 0.19897127 -2.228626
H 0.14345776 -2.3036888 -0.8207315
H 1.7578154 -1.6108985 -0.5670713
H 1.9471235 0.2051753 1.1875445
H 0.85569644 1.6020494 0.9726759
H -1.7861711 -0.3561501 1.4536856
H -0.7189667 -1.7698395 1.6924368
