title
 OpenBabel02282110003D

 20 21  0  0  1  0  0  0  0  0999 V2000
   -0.7856    1.8025   -1.2486 C   0  0  0  0  0  0  0  0  0  0  0  0
   -0.6362    0.2951   -1.1165 C   0  0  1  0  0  0  0  0  0  0  0  0
    0.4124   -0.4485   -1.9906 C   0  0  0  0  0  0  0  0  0  0  0  0
    0.7126   -1.3693   -0.7789 C   0  0  0  0  0  0  0  0  0  0  0  0
    0.0307   -0.3310    0.1446 C   0  0  0  0  0  0  0  0  0  0  0  0
    0.8959    0.5138    1.1085 C   0  0  0  0  0  0  0  0  0  0  0  0
    0.1222    0.0911    2.2490 O   0  0  0  0  0  0  0  0  0  0  0  0
   -0.7447   -0.7064    1.4175 C   0  0  0  0  0  0  0  0  0  0  0  0
    0.1815    2.3108   -1.1703 H   0  0  0  0  0  0  0  0  0  0  0  0
   -1.2164    2.0646   -2.2212 H   0  0  0  0  0  0  0  0  0  0  0  0
   -1.4430    2.2131   -0.4737 H   0  0  0  0  0  0  0  0  0  0  0  0
   -1.6172   -0.1803   -1.2468 H   0  0  0  0  0  0  0  0  0  0  0  0
    0.0651   -0.9161   -2.9149 H   0  0  0  0  0  0  0  0  0  0  0  0
    1.2628    0.1990   -2.2286 H   0  0  0  0  0  0  0  0  0  0  0  0
    0.1435   -2.3037   -0.8207 H   0  0  0  0  0  0  0  0  0  0  0  0
    1.7578   -1.6109   -0.5671 H   0  0  0  0  0  0  0  0  0  0  0  0
    1.9471    0.2052    1.1875 H   0  0  0  0  0  0  0  0  0  0  0  0
    0.8557    1.6020    0.9727 H   0  0  0  0  0  0  0  0  0  0  0  0
   -1.7862   -0.3562    1.4537 H   0  0  0  0  0  0  0  0  0  0  0  0
   -0.7190   -1.7698    1.6924 H   0  0  0  0  0  0  0  0  0  0  0  0
  1  9  1  0  0  0  0
  1  2  1  0  0  0  0
  1 11  1  0  0  0  0
  2 12  1  6  0  0  0
  2  5  1  0  0  0  0
  3  2  1  0  0  0  0
  3  4  1  0  0  0  0
  4 16  1  0  0  0  0
  4  5  1  0  0  0  0
  5  6  1  0  0  0  0
  5  8  1  0  0  0  0
  6 17  1  0  0  0  0
  6  7  1  0  0  0  0
  8 19  1  0  0  0  0
  8 20  1  0  0  0  0
  8  7  1  0  0  0  0
 10  1  1  0  0  0  0
 13  3  1  0  0  0  0
 14  3  1  0  0  0  0
 15  4  1  0  0  0  0
 18  6  1  0  0  0  0
M  END
