title
 OpenBabel02282110003D

 16 17  0  0  1  0  0  0  0  0999 V2000
   -1.4214   -2.9075    0.3599 C   0  0  0  0  0  0  0  0  0  0  0  0
   -1.4259   -1.7156    0.2067 C   0  0  0  0  0  0  0  0  0  0  0  0
   -1.3970   -0.2670    0.0091 C   0  0  0  0  0  0  0  0  0  0  0  0
    0.0032    0.2957    0.0394 C   0  0  2  0  0  0  0  0  0  0  0  0
    0.7281    0.7262    1.2989 C   0  0  0  0  0  0  0  0  0  0  0  0
    0.5357    1.7037    0.1784 C   0  0  1  0  0  0  0  0  0  0  0  0
    1.5283    1.5160   -0.8320 O   0  0  0  0  0  0  0  0  0  0  0  0
    1.0297    0.1730   -1.0851 C   0  0  0  0  0  0  0  0  0  0  0  0
   -1.4270   -3.9601    0.4990 H   0  0  0  0  0  0  0  0  0  0  0  0
   -1.8746   -0.0231   -0.9498 H   0  0  0  0  0  0  0  0  0  0  0  0
   -2.0032    0.2207    0.7830 H   0  0  0  0  0  0  0  0  0  0  0  0
    0.0824    0.8688    2.1608 H   0  0  0  0  0  0  0  0  0  0  0  0
    1.7264    0.3612    1.5249 H   0  0  0  0  0  0  0  0  0  0  0  0
    0.0599    2.6752    0.2534 H   0  0  0  0  0  0  0  0  0  0  0  0
    1.8091   -0.5908   -0.9860 H   0  0  0  0  0  0  0  0  0  0  0  0
    0.5770    0.1150   -2.0823 H   0  0  0  0  0  0  0  0  0  0  0  0
  1  9  1  0  0  0  0
  2  1  3  0  0  0  0
  3  4  1  0  0  0  0
  3  2  1  0  0  0  0
  3 11  1  0  0  0  0
  4  6  1  6  0  0  0
  4  5  1  0  0  0  0
  5 13  1  0  0  0  0
  5 12  1  0  0  0  0
  6 14  1  1  0  0  0
  6  5  1  0  0  0  0
  7  6  1  0  0  0  0
  8 15  1  0  0  0  0
  8  7  1  0  0  0  0
  8  4  1  0  0  0  0
 10  3  1  0  0  0  0
 16  8  1  0  0  0  0
M  END
