16
title
C -1.4213611 -2.9074888 0.3598604
C -1.425948 -1.715562 0.2067132
C -1.3969694 -0.266989 0.009052144
C 0.0031791318 0.2957455 0.03941696
C 0.7280751 0.7262418 1.2988787
C 0.5357205 1.7037311 0.17840812
O 1.5282559 1.5159748 -0.8319734
C 1.0297396 0.17295039 -1.0850846
H -1.4270076 -3.9600766 0.49903587
H -1.8745614 -0.0230788 -0.9497686
H -2.0032218 0.22071934 0.7830174
H 0.082387745 0.8687866 2.1607893
H 1.7264144 0.36118507 1.5249003
H 0.05986005 2.6752017 0.25340855
H 1.8091102 -0.59083843 -0.9859652
H 0.5770393 0.11504245 -2.0823193
