title
 OpenBabel02282110003D

 16 17  0  0  1  0  0  0  0  0999 V2000
    1.2362    1.7226   -0.2373 O   0  0  0  0  0  0  0  0  0  0  0  0
    1.2370    0.3763    0.1605 C   0  0  1  0  0  0  0  0  0  0  0  0
    1.1085    0.0559    1.6673 C   0  0  0  0  0  0  0  0  0  0  0  0
   -0.0937   -0.7077    1.4221 O   0  0  0  0  0  0  0  0  0  0  0  0
   -0.1428   -0.2993    0.0491 C   0  0  0  0  0  0  0  0  0  0  0  0
   -1.3737    0.4687   -0.4657 C   0  0  0  0  0  0  0  0  0  0  0  0
   -1.5584   -0.4847   -1.5363 O   0  0  0  0  0  0  0  0  0  0  0  0
   -0.5194   -1.3373   -1.0172 C   0  0  0  0  0  0  0  0  0  0  0  0
    2.1414    2.0477   -0.2404 H   0  0  0  0  0  0  0  0  0  0  0  0
    2.0286   -0.1964   -0.3396 H   0  0  0  0  0  0  0  0  0  0  0  0
    1.8943   -0.5528    2.1278 H   0  0  0  0  0  0  0  0  0  0  0  0
    0.9164    0.9464    2.2781 H   0  0  0  0  0  0  0  0  0  0  0  0
   -2.2057    0.4632    0.2499 H   0  0  0  0  0  0  0  0  0  0  0  0
   -1.1949    1.4825   -0.8356 H   0  0  0  0  0  0  0  0  0  0  0  0
    0.2434   -1.5733   -1.7700 H   0  0  0  0  0  0  0  0  0  0  0  0
   -0.9114   -2.2677   -0.5856 H   0  0  0  0  0  0  0  0  0  0  0  0
  1  2  1  0  0  0  0
  2 10  1  6  0  0  0
  2  3  1  0  0  0  0
  3 11  1  0  0  0  0
  3 12  1  0  0  0  0
  4  3  1  0  0  0  0
  5  2  1  0  0  0  0
  5  4  1  0  0  0  0
  6  5  1  0  0  0  0
  6 13  1  0  0  0  0
  7  8  1  0  0  0  0
  7  6  1  0  0  0  0
  8 16  1  0  0  0  0
  8  5  1  0  0  0  0
  9  1  1  0  0  0  0
 14  6  1  0  0  0  0
 15  8  1  0  0  0  0
M  END
