18
title
O 1.1564232 1.6833024 -0.35639492
C 1.1673553 0.36132848 0.1218106
C 1.0796124 0.12494107 1.6455693
O -0.095572196 -0.6922 1.4735863
C -0.20791587 -0.34234998 0.08180017
C -1.440833 0.44937515 -0.41120794
C -1.4172093 -0.41627315 -1.701569
C -0.5189889 -1.4406316 -0.9518958
H 2.0595372 2.0139017 -0.3700351
H 1.9537026 -0.23461744 -0.35990044
H 1.8984559 -0.42437807 2.1242115
H 0.8703313 1.0450276 2.2067099
H -2.301201 0.21866845 0.2232466
H -1.333361 1.5302306 -0.5090947
H -2.374779 -0.7778446 -2.080493
H -0.8834887 0.08094337 -2.5152123
H 0.32460913 -1.8909863 -1.4830831
H -1.1087292 -2.2349803 -0.48502088
