18
title
O 1.4788753 1.396041 -0.5363146
C 1.2504431 0.23295118 0.22051266
C 1.0440347 0.33764702 1.7565695
C -0.1195835 -0.6808541 1.6064016
C -0.17511298 -0.3428192 0.09678376
C -1.3048943 0.5609071 -0.44492298
O -1.6678187 -0.41898423 -1.4411634
C -0.6213535 -1.3096305 -1.0089414
H 2.3952177 1.6650559 -0.41915512
H 1.9891686 -0.5485107 -0.017838782
H 1.8803205 0.07915703 2.4102368
H 0.67569536 1.3339777 2.0168831
H 0.20493023 -1.7112458 1.7819924
H -1.0281674 -0.49921864 2.1852572
H -2.126685 0.75533336 0.2572609
H -0.97349894 1.5023866 -0.8950374
H 0.12096642 -1.4892845 -1.7990612
H -1.0152358 -2.2752779 -0.66305137
