title
 OpenBabel02282110003D

 20 21  0  0  1  0  0  0  0  0999 V2000
    1.7869    1.2953   -0.3704 O   0  0  0  0  0  0  0  0  0  0  0  0
    1.2468    0.1985    0.3221 C   0  0  1  0  0  0  0  0  0  0  0  0
    0.8152    0.3327    1.8055 C   0  0  0  0  0  0  0  0  0  0  0  0
   -0.3482   -0.6469    1.4913 C   0  0  0  0  0  0  0  0  0  0  0  0
   -0.1785   -0.3118   -0.0157 C   0  0  0  0  0  0  0  0  0  0  0  0
   -1.2162    0.6741   -0.6278 C   0  0  0  0  0  0  0  0  0  0  0  0
   -1.8248   -0.5150   -1.4196 C   0  0  0  0  0  0  0  0  0  0  0  0
   -0.5313   -1.3236   -1.1298 C   0  0  0  0  0  0  0  0  0  0  0  0
    1.1991    2.0466   -0.2376 H   0  0  0  0  0  0  0  0  0  0  0  0
    1.9749   -0.6116    0.2011 H   0  0  0  0  0  0  0  0  0  0  0  0
    1.5354    0.0627    2.5810 H   0  0  0  0  0  0  0  0  0  0  0  0
    0.4421    1.3424    2.0114 H   0  0  0  0  0  0  0  0  0  0  0  0
   -0.0771   -1.6849    1.7081 H   0  0  0  0  0  0  0  0  0  0  0  0
   -1.3205   -0.4387    1.9448 H   0  0  0  0  0  0  0  0  0  0  0  0
   -1.8706    1.2163    0.0612 H   0  0  0  0  0  0  0  0  0  0  0  0
   -0.7330    1.3946   -1.2969 H   0  0  0  0  0  0  0  0  0  0  0  0
   -2.6952   -0.9397   -0.9124 H   0  0  0  0  0  0  0  0  0  0  0  0
   -2.0868   -0.3373   -2.4651 H   0  0  0  0  0  0  0  0  0  0  0  0
    0.1825   -1.2693   -1.9585 H   0  0  0  0  0  0  0  0  0  0  0  0
   -0.6419   -2.3707   -0.8333 H   0  0  0  0  0  0  0  0  0  0  0  0
  1  9  1  0  0  0  0
  1  2  1  0  0  0  0
  2 10  1  6  0  0  0
  2  3  1  0  0  0  0
  3 12  1  0  0  0  0
  3 11  1  0  0  0  0
  4 13  1  0  0  0  0
  4  3  1  0  0  0  0
  4 14  1  0  0  0  0
  5  2  1  0  0  0  0
  5  4  1  0  0  0  0
  6  5  1  0  0  0  0
  6 15  1  0  0  0  0
  7  8  1  0  0  0  0
  7 17  1  0  0  0  0
  7  6  1  0  0  0  0
  8 20  1  0  0  0  0
  8  5  1  0  0  0  0
 16  6  1  0  0  0  0
 18  7  1  0  0  0  0
 19  8  1  0  0  0  0
M  END
