title
 OpenBabel02282110003D

 15 16  0  0  1  0  0  0  0  0999 V2000
   -2.0807   -1.7366    1.4654 N   0  0  0  0  0  0  0  0  0  0  0  0
   -1.5290   -1.3720    0.5182 C   0  0  0  0  0  0  0  0  0  0  0  0
   -0.8184   -0.8920   -0.6632 C   0  0  0  0  0  0  0  0  0  0  0  0
    0.3261    0.0268   -0.3176 C   0  0  2  0  0  0  0  0  0  0  0  0
    1.2442   -0.0390    0.8591 C   0  0  0  0  0  0  0  0  0  0  0  0
    0.4954    1.2491    0.5536 C   0  0  1  0  0  0  0  0  0  0  0  0
    1.0992    1.8856   -0.6921 C   0  0  0  0  0  0  0  0  0  0  0  0
    0.9777    0.6366   -1.4355 O   0  0  0  0  0  0  0  0  0  0  0  0
   -0.4357   -1.7539   -1.2248 H   0  0  0  0  0  0  0  0  0  0  0  0
   -1.5233   -0.3716   -1.3218 H   0  0  0  0  0  0  0  0  0  0  0  0
    0.8675   -0.5767    1.7233 H   0  0  0  0  0  0  0  0  0  0  0  0
    2.3160   -0.1099    0.6939 H   0  0  0  0  0  0  0  0  0  0  0  0
   -0.1796    1.7186    1.2555 H   0  0  0  0  0  0  0  0  0  0  0  0
    0.4715    2.6599   -1.1456 H   0  0  0  0  0  0  0  0  0  0  0  0
    2.1373    2.2319   -0.6352 H   0  0  0  0  0  0  0  0  0  0  0  0
  2  1  3  0  0  0  0
  3  4  1  0  0  0  0
  3  2  1  0  0  0  0
  4  6  1  1  0  0  0
  4  5  1  0  0  0  0
  5 11  1  0  0  0  0
  6  5  1  0  0  0  0
  6 13  1  1  0  0  0
  7 15  1  0  0  0  0
  7  6  1  0  0  0  0
  8  7  1  0  0  0  0
  8  4  1  0  0  0  0
  9  3  1  0  0  0  0
 10  3  1  0  0  0  0
 12  5  1  0  0  0  0
 14  7  1  0  0  0  0
M  END
