17
title
N 0.8369377 3.0341272 -0.24060124
C 0.7961998 1.7862022 -0.41626227
O -0.15837355 1.0518433 0.20342994
C -0.08780654 -0.33035302 0.045098808
C -0.25130674 -1.002806 -1.2869545
C -1.2398033 -1.2932472 -0.1769104
C -0.61849886 -2.2771893 0.8235625
C 0.5453147 -1.2594776 1.0826929
H 1.5992694 3.4342117 -0.7839262
H 1.4618427 1.1838567 -1.04684
H -0.63719946 -0.3585949 -2.0705729
H 0.44809797 -1.7643976 -1.626454
H -2.2944944 -1.0816176 -0.29707953
H -1.2319272 -2.4430928 1.7108332
H -0.32795712 -3.2468 0.4080617
H 1.5689169 -1.5937729 0.88519657
H 0.4958498 -0.8330357 2.086572
