16
title
N -1.5661565 -2.7453568 0.39500943
C -1.4687368 -1.6137285 0.18340518
C -1.3188006 -0.18293351 -0.08934588
C 0.12118826 0.26758093 0.011183132
C 0.72087693 0.77254623 1.2611688
N 0.47785947 1.7321844 0.16269185
C 1.6073942 1.5058744 -0.81331956
C 1.1928105 0.030111134 -1.0529071
H -1.7156104 0.026161253 -1.0901456
H -1.9315673 0.3834533 0.6201818
H 0.064252 0.92712516 2.1118793
H 1.7452736 0.5123686 1.5200646
H 1.4831927 2.1506636 -1.6846834
H 2.5954812 1.6808801 -0.376647
H 1.9210529 -0.75781363 -0.8454038
H 0.77600193 -0.13164371 -2.0493321
