title
 OpenBabel02282110003D

 16 17  0  0  1  0  0  0  0  0999 V2000
   -1.4200   -2.7383   -0.6007 N   0  0  0  0  0  0  0  0  0  0  0  0
   -1.4160   -1.6128   -0.3392 C   0  0  0  0  0  0  0  0  0  0  0  0
   -1.3814   -0.1894    0.0071 C   0  0  0  0  0  0  0  0  0  0  0  0
    0.0298    0.3459    0.0504 C   0  0  2  0  0  0  0  0  0  0  0  0
    1.1117   -0.0239    1.0801 C   0  0  0  0  0  0  0  0  0  0  0  0
    1.6572    1.4411    0.9810 C   0  0  0  0  0  0  0  0  0  0  0  0
    0.5558    1.7517   -0.0433 C   0  0  1  0  0  0  0  0  0  0  0  0
    0.6202    0.8409   -1.1834 N   0  0  0  0  0  0  0  0  0  0  0  0
   -1.9572    0.3705   -0.7363 H   0  0  0  0  0  0  0  0  0  0  0  0
   -1.8735   -0.0586    0.9780 H   0  0  0  0  0  0  0  0  0  0  0  0
    0.7075   -0.2460    2.0708 H   0  0  0  0  0  0  0  0  0  0  0  0
    1.7813   -0.8381    0.7867 H   0  0  0  0  0  0  0  0  0  0  0  0
    1.5466    1.9892    1.9192 H   0  0  0  0  0  0  0  0  0  0  0  0
    2.6823    1.5695    0.6190 H   0  0  0  0  0  0  0  0  0  0  0  0
    0.0326    2.6924   -0.1751 H   0  0  0  0  0  0  0  0  0  0  0  0
    1.5568    0.4791   -1.3560 H   0  0  0  0  0  0  0  0  0  0  0  0
  1  2  3  0  0  0  0
  2  3  1  0  0  0  0
  3  4  1  0  0  0  0
  3 10  1  0  0  0  0
  4  7  1  1  0  0  0
  4  5  1  0  0  0  0
  5 11  1  0  0  0  0
  6  5  1  0  0  0  0
  6 13  1  0  0  0  0
  7 15  1  1  0  0  0
  7  6  1  0  0  0  0
  8  7  1  0  0  0  0
  8  4  1  0  0  0  0
  9  3  1  0  0  0  0
 12  5  1  0  0  0  0
 14  6  1  0  0  0  0
 16  8  1  0  0  0  0
M  END
