title
 OpenBabel02282110003D

 15 16  0  0  1  0  0  0  0  0999 V2000
   -1.4031   -2.7566   -0.5571 N   0  0  0  0  0  0  0  0  0  0  0  0
   -1.4019   -1.6228   -0.3367 C   0  0  0  0  0  0  0  0  0  0  0  0
   -1.3902   -0.1883   -0.0374 C   0  0  0  0  0  0  0  0  0  0  0  0
    0.0054    0.3601    0.0923 C   0  0  2  0  0  0  0  0  0  0  0  0
    1.0740    0.0418    1.1527 C   0  0  0  0  0  0  0  0  0  0  0  0
    1.6420    1.4905    0.9381 C   0  0  0  0  0  0  0  0  0  0  0  0
    0.5416    1.7177   -0.1072 C   0  0  1  0  0  0  0  0  0  0  0  0
    0.6996    0.7005   -1.1099 O   0  0  0  0  0  0  0  0  0  0  0  0
   -1.9147    0.3476   -0.8351 H   0  0  0  0  0  0  0  0  0  0  0  0
   -1.9468   -0.0264    0.8932 H   0  0  0  0  0  0  0  0  0  0  0  0
    0.6620   -0.1015    2.1544 H   0  0  0  0  0  0  0  0  0  0  0  0
    1.7301   -0.7938    0.9029 H   0  0  0  0  0  0  0  0  0  0  0  0
    1.5342    2.1195    1.8245 H   0  0  0  0  0  0  0  0  0  0  0  0
    2.6607    1.5682    0.5533 H   0  0  0  0  0  0  0  0  0  0  0  0
    0.0564    2.6375   -0.4142 H   0  0  0  0  0  0  0  0  0  0  0  0
  1  2  3  0  0  0  0
  2  3  1  0  0  0  0
  3  4  1  0  0  0  0
  3 10  1  0  0  0  0
  4  7  1  1  0  0  0
  4  5  1  0  0  0  0
  5 11  1  0  0  0  0
  6  5  1  0  0  0  0
  6 13  1  0  0  0  0
  7 15  1  6  0  0  0
  7  6  1  0  0  0  0
  8  7  1  0  0  0  0
  8  4  1  0  0  0  0
  9  3  1  0  0  0  0
 12  5  1  0  0  0  0
 14  6  1  0  0  0  0
M  END
