title
 OpenBabel02282110003D

 15 16  0  0  1  0  0  0  0  0999 V2000
    0.8485    3.0758   -0.1914 N   0  0  0  0  0  0  0  0  0  0  0  0
    0.8148    1.8332   -0.3914 C   0  0  0  0  0  0  0  0  0  0  0  0
   -0.1364    1.0833    0.2251 O   0  0  0  0  0  0  0  0  0  0  0  0
   -0.0728   -0.2866    0.0271 C   0  0  2  0  0  0  0  0  0  0  0  0
   -0.2230   -0.9689   -1.3155 C   0  0  0  0  0  0  0  0  0  0  0  0
   -1.1770   -1.2813   -0.1917 C   0  0  1  0  0  0  0  0  0  0  0  0
   -0.6003   -2.2221    0.7156 O   0  0  0  0  0  0  0  0  0  0  0  0
    0.4454   -1.2737    1.0694 C   0  0  0  0  0  0  0  0  0  0  0  0
    1.6054    3.4945   -0.7282 H   0  0  0  0  0  0  0  0  0  0  0  0
    1.4770    1.2424   -1.0356 H   0  0  0  0  0  0  0  0  0  0  0  0
   -0.6403   -0.3284   -2.0870 H   0  0  0  0  0  0  0  0  0  0  0  0
    0.4875   -1.7175   -1.6557 H   0  0  0  0  0  0  0  0  0  0  0  0
   -2.2553   -1.1967   -0.2399 H   0  0  0  0  0  0  0  0  0  0  0  0
    1.4516   -1.6876    0.9401 H   0  0  0  0  0  0  0  0  0  0  0  0
    0.3095   -0.9103    2.0935 H   0  0  0  0  0  0  0  0  0  0  0  0
  2  1  2  0  0  0  0
  2  3  1  0  0  0  0
  4  6  1  1  0  0  0
  4  3  1  0  0  0  0
  4  8  1  0  0  0  0
  5  6  1  0  0  0  0
  5  4  1  0  0  0  0
  6 13  1  6  0  0  0
  6  7  1  0  0  0  0
  7  8  1  0  0  0  0
  8 15  1  0  0  0  0
  9  1  1  0  0  0  0
 10  2  1  0  0  0  0
 11  5  1  0  0  0  0
 12  5  1  0  0  0  0
 14  8  1  0  0  0  0
M  END
