16
title
C -1.4026163 -2.838521 -0.43639904
C -1.4142289 -1.649611 -0.26494917
C -1.4051291 -0.2060585 -0.040240794
C -0.012886428 0.35630465 0.06786634
C 1.054621 0.07718336 1.1411693
C 1.623218 1.51755 0.8796499
C 0.52799237 1.7051239 -0.17879657
O 0.6920848 0.6520846 -1.1423817
H -1.3981278 -3.8879433 -0.597874
H -1.9227978 0.30661058 -0.8594267
H -1.9577905 0.023193236 0.88046217
H 0.64052033 -0.033472423 2.1463008
H 1.7127559 -0.7655088 0.9215828
H 1.5091107 2.177377 1.7429377
H 2.6451788 1.5840118 0.4998818
H 0.04794476 2.614641 -0.52303773
