17
title
N -1.4290522 -2.78364 0.46768045
C -1.4081074 -1.6478376 0.2560812
C -1.3550948 -0.20813113 -0.018194718
C 0.057091676 0.32850713 -0.0045195054
C 0.7520489 0.75279087 1.2584109
C 0.5507954 1.7682596 0.16408019
C 1.5943136 1.558335 -0.9399289
C 1.0945632 0.08493822 -1.1108125
H -1.8293445 -0.028725093 -0.99135077
H -1.9667451 0.30859953 0.73056
H 0.10947641 0.87078017 2.125712
H 1.7477026 0.3815977 1.4912945
H -0.024346864 2.6719773 0.32949656
H 1.4096591 2.1625316 -1.8304485
H 2.637497 1.6928905 -0.6373324
H 1.8158405 -0.71542746 -0.921314
H 0.63921446 -0.08321936 -2.0901253
