title
 OpenBabel02282110003D

 17 18  0  0  1  0  0  0  0  0999 V2000
    0.8369    3.0341   -0.2406 N   0  0  0  0  0  0  0  0  0  0  0  0
    0.7962    1.7862   -0.4163 C   0  0  0  0  0  0  0  0  0  0  0  0
   -0.1584    1.0518    0.2034 O   0  0  0  0  0  0  0  0  0  0  0  0
   -0.0878   -0.3304    0.0451 C   0  0  2  0  0  0  0  0  0  0  0  0
   -0.2513   -1.0028   -1.2870 C   0  0  0  0  0  0  0  0  0  0  0  0
   -1.2398   -1.2932   -0.1769 C   0  0  1  0  0  0  0  0  0  0  0  0
   -0.6185   -2.2772    0.8236 C   0  0  0  0  0  0  0  0  0  0  0  0
    0.5453   -1.2595    1.0827 C   0  0  0  0  0  0  0  0  0  0  0  0
    1.5993    3.4342   -0.7839 H   0  0  0  0  0  0  0  0  0  0  0  0
    1.4618    1.1839   -1.0468 H   0  0  0  0  0  0  0  0  0  0  0  0
   -0.6372   -0.3586   -2.0706 H   0  0  0  0  0  0  0  0  0  0  0  0
    0.4481   -1.7644   -1.6265 H   0  0  0  0  0  0  0  0  0  0  0  0
   -2.2945   -1.0816   -0.2971 H   0  0  0  0  0  0  0  0  0  0  0  0
   -1.2319   -2.4431    1.7108 H   0  0  0  0  0  0  0  0  0  0  0  0
   -0.3280   -3.2468    0.4081 H   0  0  0  0  0  0  0  0  0  0  0  0
    1.5689   -1.5938    0.8852 H   0  0  0  0  0  0  0  0  0  0  0  0
    0.4958   -0.8330    2.0866 H   0  0  0  0  0  0  0  0  0  0  0  0
  2  1  2  0  0  0  0
  2  3  1  0  0  0  0
  4  6  1  1  0  0  0
  4  3  1  0  0  0  0
  4  8  1  0  0  0  0
  5  6  1  0  0  0  0
  5  4  1  0  0  0  0
  6 13  1  6  0  0  0
  6  7  1  0  0  0  0
  7  8  1  0  0  0  0
  7 14  1  0  0  0  0
  8 17  1  0  0  0  0
  9  1  1  0  0  0  0
 10  2  1  0  0  0  0
 11  5  1  0  0  0  0
 12  5  1  0  0  0  0
 15  7  1  0  0  0  0
 16  8  1  0  0  0  0
M  END
