title
 OpenBabel02282110003D

 18 19  0  0  1  0  0  0  0  0999 V2000
    0.1310    3.6438   -0.1483 C   0  0  0  0  0  0  0  0  0  0  0  0
    0.1303    2.1884   -0.1432 C   0  0  0  0  0  0  0  0  0  0  0  0
    0.1274    0.9819   -0.1436 C   0  0  0  0  0  0  0  0  0  0  0  0
    0.1465   -0.4411   -0.1154 C   0  0  2  0  0  0  0  0  0  0  0  0
   -0.2293   -1.2949   -1.3085 C   0  0  0  0  0  0  0  0  0  0  0  0
   -1.0231   -1.4577   -0.0499 C   0  0  1  0  0  0  0  0  0  0  0  0
   -0.2493   -2.3107    0.9585 C   0  0  0  0  0  0  0  0  0  0  0  0
    0.9421   -1.3017    0.8879 C   0  0  0  0  0  0  0  0  0  0  0  0
    0.9384    4.0402    0.4779 H   0  0  0  0  0  0  0  0  0  0  0  0
    0.2732    4.0430   -1.1591 H   0  0  0  0  0  0  0  0  0  0  0  0
   -0.8119    4.0484    0.2377 H   0  0  0  0  0  0  0  0  0  0  0  0
   -0.7234   -0.7578   -2.1105 H   0  0  0  0  0  0  0  0  0  0  0  0
    0.4461   -2.0819   -1.6398 H   0  0  0  0  0  0  0  0  0  0  0  0
   -2.0841   -1.2425   -0.0152 H   0  0  0  0  0  0  0  0  0  0  0  0
   -0.7108   -2.3313    1.9478 H   0  0  0  0  0  0  0  0  0  0  0  0
   -0.0440   -3.3407    0.6484 H   0  0  0  0  0  0  0  0  0  0  0  0
    1.9002   -1.6840    0.5216 H   0  0  0  0  0  0  0  0  0  0  0  0
    1.1074   -0.7875    1.8359 H   0  0  0  0  0  0  0  0  0  0  0  0
  1  2  1  0  0  0  0
  1 11  1  0  0  0  0
  1  9  1  0  0  0  0
  3  2  3  0  0  0  0
  3  4  1  0  0  0  0
  4  6  1  1  0  0  0
  4  8  1  0  0  0  0
  5  4  1  0  0  0  0
  5  6  1  0  0  0  0
  6 14  1  1  0  0  0
  6  7  1  0  0  0  0
  7 15  1  0  0  0  0
  8  7  1  0  0  0  0
  8 18  1  0  0  0  0
 10  1  1  0  0  0  0
 12  5  1  0  0  0  0
 13  5  1  0  0  0  0
 16  7  1  0  0  0  0
 17  8  1  0  0  0  0
M  END
