title
 OpenBabel02282110003D

 17 18  0  0  1  0  0  0  0  0999 V2000
   -2.0783   -0.5207    1.4444 O   0  0  0  0  0  0  0  0  0  0  0  0
   -2.1168    0.3176    0.5737 C   0  0  0  0  0  0  0  0  0  0  0  0
   -1.0818    0.6740   -0.2477 N   0  0  0  0  0  0  0  0  0  0  0  0
    0.1992    0.0633   -0.2581 C   0  0  2  0  0  0  0  0  0  0  0  0
    0.9694   -0.1527    1.0064 C   0  0  0  0  0  0  0  0  0  0  0  0
    1.5890    0.6962   -0.0699 C   0  0  1  0  0  0  0  0  0  0  0  0
    2.1569   -0.2033   -1.1746 C   0  0  0  0  0  0  0  0  0  0  0  0
    0.7380   -0.8317   -1.3838 C   0  0  0  0  0  0  0  0  0  0  0  0
   -3.0230    0.9184    0.3509 H   0  0  0  0  0  0  0  0  0  0  0  0
   -1.2903    1.3469   -0.9707 H   0  0  0  0  0  0  0  0  0  0  0  0
    0.5838    0.3848    1.8645 H   0  0  0  0  0  0  0  0  0  0  0  0
    1.3680   -1.1377    1.2381 H   0  0  0  0  0  0  0  0  0  0  0  0
    1.8476    1.7341    0.1029 H   0  0  0  0  0  0  0  0  0  0  0  0
    2.5033    0.3461   -2.0525 H   0  0  0  0  0  0  0  0  0  0  0  0
    2.9478   -0.8904   -0.8584 H   0  0  0  0  0  0  0  0  0  0  0  0
    0.6326   -1.9108   -1.2324 H   0  0  0  0  0  0  0  0  0  0  0  0
    0.3187   -0.5734   -2.3599 H   0  0  0  0  0  0  0  0  0  0  0  0
  2  1  2  0  0  0  0
  3  2  1  0  0  0  0
  4  3  1  0  0  0  0
  4  6  1  6  0  0  0
  4  5  1  0  0  0  0
  5 12  1  0  0  0  0
  5 11  1  0  0  0  0
  6 13  1  1  0  0  0
  6  5  1  0  0  0  0
  7 15  1  0  0  0  0
  7  6  1  0  0  0  0
  8 16  1  0  0  0  0
  8  7  1  0  0  0  0
  8  4  1  0  0  0  0
  9  2  1  0  0  0  0
 10  3  1  0  0  0  0
 14  7  1  0  0  0  0
 17  8  1  0  0  0  0
M  END
