16
title
O -1.458444 -2.3589053 1.4335995
C -1.1483363 -1.204051 1.3010635
C 0.26942173 -0.7206411 1.0375134
C 0.32953587 0.23757854 -0.11504575
C 0.21512188 -0.055121507 -1.6240613
C 1.0838071 1.225021 -1.8892403
C 1.1379198 1.4444178 -0.3720084
O -0.21747975 1.5528268 0.0854582
H -1.9006 -0.38789138 1.3724012
H 0.60986817 -0.19656023 1.940738
H 0.9112443 -1.5907443 0.8722507
H 0.7230524 -0.9748921 -1.9235556
H -0.8031079 -0.05514082 -2.0193973
H 2.0561666 0.98814505 -2.326852
H 0.6140965 2.0332036 -2.453952
H 1.8991014 1.9297184 0.22906183
