title
 OpenBabel02282110003D

 16 17  0  0  1  0  0  0  0  0999 V2000
   -1.4584   -2.3589    1.4336 O   0  0  0  0  0  0  0  0  0  0  0  0
   -1.1483   -1.2041    1.3011 C   0  0  0  0  0  0  0  0  0  0  0  0
    0.2694   -0.7206    1.0375 C   0  0  0  0  0  0  0  0  0  0  0  0
    0.3295    0.2376   -0.1150 C   0  0  2  0  0  0  0  0  0  0  0  0
    0.2151   -0.0551   -1.6241 C   0  0  0  0  0  0  0  0  0  0  0  0
    1.0838    1.2250   -1.8892 C   0  0  0  0  0  0  0  0  0  0  0  0
    1.1379    1.4444   -0.3720 C   0  0  1  0  0  0  0  0  0  0  0  0
   -0.2175    1.5528    0.0855 O   0  0  0  0  0  0  0  0  0  0  0  0
   -1.9006   -0.3879    1.3724 H   0  0  0  0  0  0  0  0  0  0  0  0
    0.6099   -0.1966    1.9407 H   0  0  0  0  0  0  0  0  0  0  0  0
    0.9112   -1.5907    0.8723 H   0  0  0  0  0  0  0  0  0  0  0  0
    0.7231   -0.9749   -1.9236 H   0  0  0  0  0  0  0  0  0  0  0  0
   -0.8031   -0.0551   -2.0194 H   0  0  0  0  0  0  0  0  0  0  0  0
    2.0562    0.9881   -2.3269 H   0  0  0  0  0  0  0  0  0  0  0  0
    0.6141    2.0332   -2.4540 H   0  0  0  0  0  0  0  0  0  0  0  0
    1.8991    1.9297    0.2291 H   0  0  0  0  0  0  0  0  0  0  0  0
  2  9  1  0  0  0  0
  2  1  2  0  0  0  0
  3  2  1  0  0  0  0
  3 10  1  0  0  0  0
  4  7  1  1  0  0  0
  4  8  1  0  0  0  0
  4  3  1  0  0  0  0
  5  4  1  0  0  0  0
  6  5  1  0  0  0  0
  6  7  1  0  0  0  0
  7  8  1  0  0  0  0
  7 16  1  1  0  0  0
 11  3  1  0  0  0  0
 12  5  1  0  0  0  0
 13  5  1  0  0  0  0
 14  6  1  0  0  0  0
 15  6  1  0  0  0  0
M  END
