title
 OpenBabel02282110003D

 14 15  0  0  1  0  0  0  0  0999 V2000
   -0.8776   -2.9966   -0.3361 O   0  0  0  0  0  0  0  0  0  0  0  0
   -0.8141   -1.8122   -0.4441 C   0  0  0  0  0  0  0  0  0  0  0  0
    0.1187   -1.0753    0.2165 O   0  0  0  0  0  0  0  0  0  0  0  0
    0.0720    0.3056    0.0461 C   0  0  2  0  0  0  0  0  0  0  0  0
    0.2132    1.0176   -1.2810 C   0  0  0  0  0  0  0  0  0  0  0  0
    1.1847    1.2937   -0.1636 C   0  0  1  0  0  0  0  0  0  0  0  0
    0.6313    2.2152    0.7765 O   0  0  0  0  0  0  0  0  0  0  0  0
   -0.4196    1.2695    1.1206 C   0  0  0  0  0  0  0  0  0  0  0  0
   -1.4745   -1.1909   -1.0749 H   0  0  0  0  0  0  0  0  0  0  0  0
    0.6162    0.3952   -2.0746 H   0  0  0  0  0  0  0  0  0  0  0  0
   -0.4973    1.7780   -1.5934 H   0  0  0  0  0  0  0  0  0  0  0  0
    2.2611    1.1974   -0.2288 H   0  0  0  0  0  0  0  0  0  0  0  0
   -1.4232    1.6959    1.0151 H   0  0  0  0  0  0  0  0  0  0  0  0
   -0.2737    0.8786    2.1331 H   0  0  0  0  0  0  0  0  0  0  0  0
  2  1  2  0  0  0  0
  2  3  1  0  0  0  0
  4  6  1  1  0  0  0
  4  3  1  0  0  0  0
  4  8  1  0  0  0  0
  5  6  1  0  0  0  0
  5  4  1  0  0  0  0
  6 12  1  6  0  0  0
  6  7  1  0  0  0  0
  7  8  1  0  0  0  0
  8 14  1  0  0  0  0
  9  2  1  0  0  0  0
 10  5  1  0  0  0  0
 11  5  1  0  0  0  0
 13  8  1  0  0  0  0
M  END
