17
title
O -1.549694 -2.1864595 1.577339
C -0.71407574 -1.8784755 0.7683576
C 0.28657082 -0.7509745 0.94120324
C 0.22097257 0.22891739 -0.20182388
C 0.92804456 0.035328187 -1.4877527
N 1.3929142 1.1159985 -0.59694976
C 0.41016725 2.2410915 -0.8028428
C -0.7830281 1.379318 -0.3164081
H -0.6232506 -2.4219916 -0.20057802
H 0.106243394 -0.26435348 1.9044539
H 1.2916948 -1.1942353 0.9609624
H 1.6351277 -0.7857972 -1.5598991
H 0.4410768 0.29594138 -2.4259918
H 0.65397227 3.0751622 -0.14276795
H 0.37680474 2.6018884 -1.8360078
H -1.627544 1.2294595 -0.9951144
H -1.1674656 1.7031143 0.6529967
