title
 OpenBabel02282110003D

 17 18  0  0  1  0  0  0  0  0999 V2000
    0.1550    3.6529    0.2113 C   0  0  0  0  0  0  0  0  0  0  0  0
    0.1349    2.1987    0.1705 C   0  0  0  0  0  0  0  0  0  0  0  0
    0.1115    0.9939    0.1510 C   0  0  0  0  0  0  0  0  0  0  0  0
    0.1155   -0.4299    0.0794 C   0  0  2  0  0  0  0  0  0  0  0  0
    0.9174   -1.2758   -0.9353 C   0  0  0  0  0  0  0  0  0  0  0  0
   -0.2506   -2.3149   -0.9625 C   0  0  0  0  0  0  0  0  0  0  0  0
   -1.0075   -1.4531    0.0547 C   0  0  1  0  0  0  0  0  0  0  0  0
   -0.2260   -1.2333    1.2599 N   0  0  0  0  0  0  0  0  0  0  0  0
    1.0583    4.0509   -0.2644 H   0  0  0  0  0  0  0  0  0  0  0  0
   -0.7091    4.0810   -0.3094 H   0  0  0  0  0  0  0  0  0  0  0  0
    0.1357    4.0202    1.2435 H   0  0  0  0  0  0  0  0  0  0  0  0
    1.0476   -0.7722   -1.8949 H   0  0  0  0  0  0  0  0  0  0  0  0
    1.8950   -1.6193   -0.5815 H   0  0  0  0  0  0  0  0  0  0  0  0
   -0.7378   -2.3619   -1.9391 H   0  0  0  0  0  0  0  0  0  0  0  0
   -0.0241   -3.3352   -0.6351 H   0  0  0  0  0  0  0  0  0  0  0  0
   -2.0788   -1.2976    0.1103 H   0  0  0  0  0  0  0  0  0  0  0  0
    0.4543   -1.9735    1.4302 H   0  0  0  0  0  0  0  0  0  0  0  0
  1 11  1  0  0  0  0
  2  1  1  0  0  0  0
  3  2  3  0  0  0  0
  4  7  1  6  0  0  0
  4  3  1  0  0  0  0
  4  8  1  0  0  0  0
  5 13  1  0  0  0  0
  5  4  1  0  0  0  0
  6  5  1  0  0  0  0
  6 15  1  0  0  0  0
  6  7  1  0  0  0  0
  7 16  1  6  0  0  0
  7  8  1  0  0  0  0
  8 17  1  0  0  0  0
  9  1  1  0  0  0  0
 10  1  1  0  0  0  0
 12  5  1  0  0  0  0
 14  6  1  0  0  0  0
M  END
