16
title
C 0.13215318 3.6859853 -0.14205833
C 0.13201848 2.2308784 -0.14455175
C 0.12795909 1.02476 -0.14775653
C 0.14898013 -0.3948744 -0.13511886
C -0.23962562 -1.2759341 -1.3218149
C -0.95739603 -1.4492763 -0.028591756
O -0.20645626 -2.25988 0.86878526
C 0.8639818 -1.279287 0.8940673
H 0.94526315 4.077714 0.47937018
H 0.26668364 4.0886307 -1.1523101
H -0.8075111 4.087786 0.25389564
H -0.78194207 -0.7452374 -2.0971067
H 0.43577436 -2.0545197 -1.6669664
H -2.026103 -1.3618683 0.12895183
H 1.8322434 -1.7056676 0.6073919
H 0.9331647 -0.81061536 1.8807884
