16
title
C 0.17530541 3.6604424 0.26153556
C 0.13368091 2.2092118 0.17792492
C 0.09161137 1.0060818 0.121032275
C 0.08864972 -0.410927 0.009885318
C 0.9284245 -1.2987014 -0.93353206
C -0.23627064 -2.348397 -0.9186247
C -1.0016282 -1.4200071 0.031711884
O -0.18135652 -1.2145771 1.1796237
H 1.106766 4.0546565 -0.15938409
H -0.6573137 4.1172714 -0.28496566
H 0.11379695 3.9954085 1.3027917
H 1.0781653 -0.84929246 -1.9169652
H 1.8886377 -1.6133207 -0.5198782
H -0.7138304 -2.4562604 -1.895102
H -0.008941377 -3.335615 -0.5102106
H -2.0709038 -1.2896279 0.1560862
