title
 OpenBabel02282110003D

 16 17  0  0  1  0  0  0  0  0999 V2000
    0.1753    3.6604    0.2615 C   0  0  0  0  0  0  0  0  0  0  0  0
    0.1337    2.2092    0.1779 C   0  0  0  0  0  0  0  0  0  0  0  0
    0.0916    1.0061    0.1210 C   0  0  0  0  0  0  0  0  0  0  0  0
    0.0886   -0.4109    0.0099 C   0  0  2  0  0  0  0  0  0  0  0  0
    0.9284   -1.2987   -0.9335 C   0  0  0  0  0  0  0  0  0  0  0  0
   -0.2363   -2.3484   -0.9186 C   0  0  0  0  0  0  0  0  0  0  0  0
   -1.0016   -1.4200    0.0317 C   0  0  1  0  0  0  0  0  0  0  0  0
   -0.1814   -1.2146    1.1796 O   0  0  0  0  0  0  0  0  0  0  0  0
    1.1068    4.0547   -0.1594 H   0  0  0  0  0  0  0  0  0  0  0  0
   -0.6573    4.1173   -0.2850 H   0  0  0  0  0  0  0  0  0  0  0  0
    0.1138    3.9954    1.3028 H   0  0  0  0  0  0  0  0  0  0  0  0
    1.0782   -0.8493   -1.9170 H   0  0  0  0  0  0  0  0  0  0  0  0
    1.8886   -1.6133   -0.5199 H   0  0  0  0  0  0  0  0  0  0  0  0
   -0.7138   -2.4563   -1.8951 H   0  0  0  0  0  0  0  0  0  0  0  0
   -0.0089   -3.3356   -0.5102 H   0  0  0  0  0  0  0  0  0  0  0  0
   -2.0709   -1.2896    0.1561 H   0  0  0  0  0  0  0  0  0  0  0  0
  1 11  1  0  0  0  0
  2  1  1  0  0  0  0
  3  2  3  0  0  0  0
  4  7  1  6  0  0  0
  4  3  1  0  0  0  0
  4  8  1  0  0  0  0
  5  6  1  0  0  0  0
  5 13  1  0  0  0  0
  5  4  1  0  0  0  0
  6 15  1  0  0  0  0
  6  7  1  0  0  0  0
  7 16  1  6  0  0  0
  7  8  1  0  0  0  0
  9  1  1  0  0  0  0
 10  1  1  0  0  0  0
 12  5  1  0  0  0  0
 14  6  1  0  0  0  0
M  END
