22
title
C 1.1894103 3.2522264 -0.2417688
C 1.1746668 1.7224317 -0.2904925
C -0.20556934 1.1223376 0.021122012
C -0.21895416 -0.3813524 -0.010193463
C -0.3773139 -1.1739428 -1.2812307
C -1.3810185 -1.3688362 -0.17569216
C -0.7932549 -2.2841656 0.9030157
C 0.4010262 -1.2877123 1.0692093
H 2.18417 3.65067 -0.4649923
H 0.48932666 3.6784766 -0.96928567
H 0.8982691 3.6203845 0.7485345
H 1.4972901 1.3784353 -1.2811542
H 1.909188 1.3255541 0.42225435
H -0.53498024 1.4737364 1.0097294
H -0.9395471 1.5079927 -0.6996531
H -0.7339619 -0.6069672 -2.1362395
H 0.31941926 -1.9706001 -1.5371898
H -2.4349544 -1.1622112 -0.32491103
H -1.4087247 -2.3439097 1.8034955
H -0.5464944 -3.3028548 0.584286
H 1.4040667 -1.6745911 0.8595087
H 0.41122955 -0.81959724 2.0574763
