title
 OpenBabel02282110003D

 16 17  0  0  1  0  0  0  0  0999 V2000
    0.1458    3.6286   -0.0728 C   0  0  0  0  0  0  0  0  0  0  0  0
    0.1113    2.1752   -0.1073 C   0  0  0  0  0  0  0  0  0  0  0  0
    0.0842    0.9702   -0.1306 C   0  0  0  0  0  0  0  0  0  0  0  0
    0.0731   -0.4489   -0.1590 C   0  0  2  0  0  0  0  0  0  0  0  0
   -0.2748   -1.3131   -1.3419 C   0  0  0  0  0  0  0  0  0  0  0  0
   -1.0389   -1.4942   -0.0530 C   0  0  1  0  0  0  0  0  0  0  0  0
   -0.1346   -2.1546    0.9760 C   0  0  0  0  0  0  0  0  0  0  0  0
    0.9227   -1.1868    0.7407 O   0  0  0  0  0  0  0  0  0  0  0  0
    0.9281    3.9804    0.6088 H   0  0  0  0  0  0  0  0  0  0  0  0
    0.3538    4.0505   -1.0623 H   0  0  0  0  0  0  0  0  0  0  0  0
   -0.8065    4.0440    0.2758 H   0  0  0  0  0  0  0  0  0  0  0  0
   -0.8248   -0.8149   -2.1331 H   0  0  0  0  0  0  0  0  0  0  0  0
    0.4462   -2.0582   -1.6679 H   0  0  0  0  0  0  0  0  0  0  0  0
   -2.1076   -1.3533    0.0287 H   0  0  0  0  0  0  0  0  0  0  0  0
   -0.5063   -2.0738    2.0036 H   0  0  0  0  0  0  0  0  0  0  0  0
    0.1924   -3.1825    0.7785 H   0  0  0  0  0  0  0  0  0  0  0  0
  1 11  1  0  0  0  0
  1  9  1  0  0  0  0
  2  1  1  0  0  0  0
  3  2  3  0  0  0  0
  4  3  1  0  0  0  0
  4  6  1  1  0  0  0
  4  8  1  0  0  0  0
  5  4  1  0  0  0  0
  5  6  1  0  0  0  0
  6 14  1  1  0  0  0
  6  7  1  0  0  0  0
  7 15  1  0  0  0  0
  8  7  1  0  0  0  0
 10  1  1  0  0  0  0
 12  5  1  0  0  0  0
 13  5  1  0  0  0  0
 16  7  1  0  0  0  0
M  END
