title
 OpenBabel02282110003D

 20 21  0  0  1  0  0  0  0  0999 V2000
    1.0774    3.0865   -0.2171 O   0  0  0  0  0  0  0  0  0  0  0  0
    1.1665    1.6724   -0.3108 C   0  0  0  0  0  0  0  0  0  0  0  0
   -0.2031    1.0929    0.0351 C   0  0  0  0  0  0  0  0  0  0  0  0
   -0.2248   -0.4098   -0.0020 C   0  0  2  0  0  0  0  0  0  0  0  0
   -0.4005   -1.1969   -1.2757 C   0  0  0  0  0  0  0  0  0  0  0  0
   -1.4003   -1.3806   -0.1658 C   0  0  1  0  0  0  0  0  0  0  0  0
   -0.8213   -2.3077    0.9077 C   0  0  0  0  0  0  0  0  0  0  0  0
    0.3866   -1.3279    1.0729 C   0  0  0  0  0  0  0  0  0  0  0  0
    1.9382    3.4570   -0.4322 H   0  0  0  0  0  0  0  0  0  0  0  0
    1.4547    1.3537   -1.3251 H   0  0  0  0  0  0  0  0  0  0  0  0
    1.9247    1.2742    0.3832 H   0  0  0  0  0  0  0  0  0  0  0  0
   -0.4881    1.4555    1.0311 H   0  0  0  0  0  0  0  0  0  0  0  0
   -0.9389    1.4989   -0.6695 H   0  0  0  0  0  0  0  0  0  0  0  0
   -0.7539   -0.6230   -2.1272 H   0  0  0  0  0  0  0  0  0  0  0  0
    0.2850   -2.0017   -1.5362 H   0  0  0  0  0  0  0  0  0  0  0  0
   -2.4513   -1.1561   -0.3083 H   0  0  0  0  0  0  0  0  0  0  0  0
   -1.4343   -2.3614    1.8101 H   0  0  0  0  0  0  0  0  0  0  0  0
   -0.5903   -3.3286    0.5846 H   0  0  0  0  0  0  0  0  0  0  0  0
    1.3837   -1.7278    0.8590 H   0  0  0  0  0  0  0  0  0  0  0  0
    0.4063   -0.8626    2.0622 H   0  0  0  0  0  0  0  0  0  0  0  0
  2  1  1  0  0  0  0
  2  3  1  0  0  0  0
  2 11  1  0  0  0  0
  3 12  1  0  0  0  0
  4  6  1  1  0  0  0
  4  3  1  0  0  0  0
  4  8  1  0  0  0  0
  5  6  1  0  0  0  0
  5  4  1  0  0  0  0
  6 16  1  6  0  0  0
  6  7  1  0  0  0  0
  7  8  1  0  0  0  0
  7 17  1  0  0  0  0
  8 20  1  0  0  0  0
  9  1  1  0  0  0  0
 10  2  1  0  0  0  0
 13  3  1  0  0  0  0
 14  5  1  0  0  0  0
 15  5  1  0  0  0  0
 18  7  1  0  0  0  0
 19  8  1  0  0  0  0
M  END
