18
title
C 0.81539536 3.083942 -0.13664716
O 0.5539562 1.7317785 -0.42921495
C 0.08325299 1.0118319 0.69008064
C -0.08057783 -0.42005488 0.29481804
C 0.92167664 -1.3419969 -0.41857612
C -0.30131158 -2.1447256 -0.9896407
C -1.2266127 -1.174103 -0.24401686
O -0.880955 -1.2460983 1.1485022
H 1.1827439 3.5512614 -1.0533131
H -0.091983296 3.6136882 0.19398054
H 1.5794908 3.1911688 0.64959645
H 0.79825705 1.092047 1.5283759
H -0.88284016 1.4033355 1.0475498
H 1.484075 -0.82424974 -1.1972207
H 1.6057385 -1.8812885 0.24102747
H -0.38218376 -2.0678158 -2.076179
H -0.39128062 -3.190523 -0.68727607
H -2.2358992 -0.8581414 -0.48309696
