18
title
C -0.60852903 3.0670085 0.5370023
O -0.6353999 1.7038066 0.18858369
C 0.5712363 1.0344113 0.49557015
C 0.42171198 -0.4171902 0.17871018
C 1.5672328 -1.3177172 -0.24520169
C 0.36551672 -1.1779798 -1.1276498
O -0.6938693 -2.024945 -0.6845015
C -0.76572996 -1.2941934 0.57289237
H -0.43769535 3.2110023 1.6159797
H 0.17731877 3.6138763 -0.008354999
H -1.5802203 3.4912639 0.2733741
H 1.411078 1.4621968 -0.07880304
H 0.8170099 1.1727113 1.5645276
H 2.4566422 -0.79030025 -0.5782975
H 1.7520844 -2.2587216 0.26612678
H 0.37091517 -0.86343133 -2.1648407
H -0.6533204 -1.9504107 1.4444329
H -1.7020617 -0.7320522 0.6358749
