title
 OpenBabel02282110003D

 18 19  0  0  1  0  0  0  0  0999 V2000
    1.2618    3.0523    0.3145 O   0  0  0  0  0  0  0  0  0  0  0  0
    1.1813    1.6368    0.2993 C   0  0  0  0  0  0  0  0  0  0  0  0
   -0.2276    1.1331   -0.0456 C   0  0  0  0  0  0  0  0  0  0  0  0
   -0.3007   -0.3597   -0.1161 C   0  0  2  0  0  0  0  0  0  0  0  0
    0.2681   -1.3103   -1.1912 C   0  0  0  0  0  0  0  0  0  0  0  0
   -0.8674   -2.3300   -0.8268 C   0  0  0  0  0  0  0  0  0  0  0  0
   -1.3568   -1.3304    0.2288 C   0  0  1  0  0  0  0  0  0  0  0  0
   -0.2605   -1.0931    1.1227 O   0  0  0  0  0  0  0  0  0  0  0  0
    0.7243    3.3692    1.0473 H   0  0  0  0  0  0  0  0  0  0  0  0
    1.8937    1.3081   -0.4649 H   0  0  0  0  0  0  0  0  0  0  0  0
    1.5035    1.1995    1.2556 H   0  0  0  0  0  0  0  0  0  0  0  0
   -0.9357    1.4836    0.7161 H   0  0  0  0  0  0  0  0  0  0  0  0
   -0.5327    1.5689   -1.0042 H   0  0  0  0  0  0  0  0  0  0  0  0
    0.1704   -0.9206   -2.2076 H   0  0  0  0  0  0  0  0  0  0  0  0
    1.2969   -1.6370   -1.0228 H   0  0  0  0  0  0  0  0  0  0  0  0
   -1.5760   -2.4779   -1.6451 H   0  0  0  0  0  0  0  0  0  0  0  0
   -0.5545   -3.3000   -0.4339 H   0  0  0  0  0  0  0  0  0  0  0  0
   -2.3554   -1.1828    0.6261 H   0  0  0  0  0  0  0  0  0  0  0  0
  1  9  1  0  0  0  0
  2  1  1  0  0  0  0
  2 11  1  0  0  0  0
  3  2  1  0  0  0  0
  3 12  1  0  0  0  0
  4  3  1  0  0  0  0
  4  7  1  6  0  0  0
  4  8  1  0  0  0  0
  5 15  1  0  0  0  0
  5  6  1  0  0  0  0
  5  4  1  0  0  0  0
  6 17  1  0  0  0  0
  6  7  1  0  0  0  0
  7 18  1  1  0  0  0
  7  8  1  0  0  0  0
 10  2  1  0  0  0  0
 13  3  1  0  0  0  0
 14  5  1  0  0  0  0
 16  6  1  0  0  0  0
M  END
