title
 OpenBabel02282110003D

 16 17  0  0  1  0  0  0  0  0999 V2000
   -1.2319   -2.7802    0.1666 C   0  0  0  0  0  0  0  0  0  0  0  0
   -1.2401   -1.5773    0.1963 C   0  0  0  0  0  0  0  0  0  0  0  0
   -1.2226   -0.1452    0.2201 C   0  0  1  0  0  0  0  0  0  0  0  0
   -0.6627    0.5989    1.4314 C   0  0  0  0  0  0  0  0  0  0  0  0
    0.1017    0.5870    0.1554 C   0  0  0  0  0  0  0  0  0  0  0  0
    1.4697   -0.0050   -0.1566 C   0  0  0  0  0  0  0  0  0  0  0  0
    1.7590    1.0955   -1.0507 O   0  0  0  0  0  0  0  0  0  0  0  0
    0.4942    1.7322   -0.7717 C   0  0  0  0  0  0  0  0  0  0  0  0
   -1.2367   -3.8417    0.1438 H   0  0  0  0  0  0  0  0  0  0  0  0
   -2.0537    0.3378   -0.2880 H   0  0  0  0  0  0  0  0  0  0  0  0
   -1.1690    1.5132    1.7245 H   0  0  0  0  0  0  0  0  0  0  0  0
   -0.2944   -0.0033    2.2550 H   0  0  0  0  0  0  0  0  0  0  0  0
    2.1749   -0.0461    0.6835 H   0  0  0  0  0  0  0  0  0  0  0  0
    1.4607   -0.9721   -0.6735 H   0  0  0  0  0  0  0  0  0  0  0  0
   -0.1168    1.8549   -1.6754 H   0  0  0  0  0  0  0  0  0  0  0  0
    0.6235    2.7098   -0.2875 H   0  0  0  0  0  0  0  0  0  0  0  0
  1  2  3  0  0  0  0
  2  3  1  0  0  0  0
  3 10  1  6  0  0  0
  3  4  1  0  0  0  0
  4 11  1  0  0  0  0
  4 12  1  0  0  0  0
  5  3  1  0  0  0  0
  5  4  1  0  0  0  0
  6  5  1  0  0  0  0
  6 13  1  0  0  0  0
  7  8  1  0  0  0  0
  7  6  1  0  0  0  0
  8 16  1  0  0  0  0
  8  5  1  0  0  0  0
  9  1  1  0  0  0  0
 14  6  1  0  0  0  0
 15  8  1  0  0  0  0
M  END
