19
title
O 1.2500088 3.0649498 0.28812447
C 1.1743999 1.6490177 0.33583716
C -0.20712404 1.115007 -0.061753772
C -0.2653803 -0.3851555 -0.058754094
C 0.36643365 -1.3282927 -1.1037283
C -0.8256715 -2.3193064 -0.8896993
C -1.4022601 -1.3500458 0.15090631
N -0.43920425 -1.0829555 1.2161673
H 0.6382683 3.4114752 0.94556946
H 1.9334604 1.2911078 -0.3687102
H 1.4433618 1.2618116 1.3303483
H -0.9564372 1.495576 0.64373595
H -0.4629195 1.5035019 -1.0549418
H 0.37687144 -0.9077895 -2.1126204
H 1.3724797 -1.6931065 -0.8697404
H -1.4468534 -2.418195 -1.783086
H -0.5855115 -3.3221858 -0.5200073
H -2.4510403 -1.1660844 0.3579336
H 0.21870477 -1.8500222 1.3478322
