19
title
O 0.9772915 3.1213548 -0.123475455
C 1.1295264 1.720481 -0.28899622
C -0.19667062 1.0624763 0.08495357
C -0.14399382 -0.4348914 -0.020623274
C -0.42526957 -1.1760643 -1.2695694
N -1.3927526 -1.2971878 -0.16042748
C -0.7662666 -2.2805905 0.7938227
C 0.4721605 -1.376734 1.0196763
H 1.8082205 3.5446186 -0.35786784
H 1.3884964 1.4634932 -1.3285817
H 1.9355024 1.3283428 0.3530085
H -0.45931908 1.3618819 1.1068722
H -0.98385215 1.4480991 -0.5719486
H -0.81709146 -0.61192054 -2.110888
H 0.17119709 -2.0444891 -1.5457115
H -1.3965011 -2.3986866 1.6772276
H -0.590392 -3.2659528 0.34893176
H 1.4611597 -1.7860954 0.7922439
H 0.4964685 -0.94170517 2.0215476
