title
 OpenBabel02282110003D

 17 18  0  0  1  0  0  0  0  0999 V2000
   -1.2452   -2.7646    0.1560 C   0  0  0  0  0  0  0  0  0  0  0  0
   -1.2009   -1.5632    0.1905 C   0  0  0  0  0  0  0  0  0  0  0  0
   -1.1381   -0.1293    0.1843 C   0  0  1  0  0  0  0  0  0  0  0  0
   -0.5877    0.5420    1.3970 N   0  0  0  0  0  0  0  0  0  0  0  0
    0.1619    0.6085    0.1583 C   0  0  0  0  0  0  0  0  0  0  0  0
    1.5518    0.0160   -0.0770 C   0  0  0  0  0  0  0  0  0  0  0  0
    1.7241    1.0353   -1.2439 C   0  0  0  0  0  0  0  0  0  0  0  0
    0.4819    1.8211   -0.7237 C   0  0  0  0  0  0  0  0  0  0  0  0
   -1.2891   -3.8254    0.1420 H   0  0  0  0  0  0  0  0  0  0  0  0
   -1.9715    0.3616   -0.3152 H   0  0  0  0  0  0  0  0  0  0  0  0
   -1.0949    1.4110    1.5549 H   0  0  0  0  0  0  0  0  0  0  0  0
    2.2233    0.2131    0.7634 H   0  0  0  0  0  0  0  0  0  0  0  0
    1.5928   -1.0474   -0.3226 H   0  0  0  0  0  0  0  0  0  0  0  0
    2.6660    1.5850   -1.2807 H   0  0  0  0  0  0  0  0  0  0  0  0
    1.5450    0.5817   -2.2212 H   0  0  0  0  0  0  0  0  0  0  0  0
   -0.2707    2.1274   -1.4553 H   0  0  0  0  0  0  0  0  0  0  0  0
    0.7659    2.6940   -0.1260 H   0  0  0  0  0  0  0  0  0  0  0  0
  1  2  3  0  0  0  0
  3 10  1  6  0  0  0
  3  2  1  0  0  0  0
  3  4  1  0  0  0  0
  4 11  1  0  0  0  0
  5  3  1  0  0  0  0
  5  4  1  0  0  0  0
  6  5  1  0  0  0  0
  6 12  1  0  0  0  0
  7  8  1  0  0  0  0
  7  6  1  0  0  0  0
  8 17  1  0  0  0  0
  8  5  1  0  0  0  0
  9  1  1  0  0  0  0
 13  6  1  0  0  0  0
 14  7  1  0  0  0  0
 15  7  1  0  0  0  0
 16  8  1  0  0  0  0
M  END
