title
 OpenBabel02282110003D

 16 17  0  0  1  0  0  0  0  0999 V2000
   -1.2118   -2.7838    0.3017 C   0  0  0  0  0  0  0  0  0  0  0  0
   -1.2059   -1.5803    0.2657 C   0  0  0  0  0  0  0  0  0  0  0  0
   -1.1567   -0.1524    0.2132 C   0  0  1  0  0  0  0  0  0  0  0  0
   -0.5847    0.6584    1.3892 C   0  0  0  0  0  0  0  0  0  0  0  0
    0.1834    0.5560    0.1256 C   0  0  1  0  0  0  0  0  0  0  0  0
    1.5459   -0.0438   -0.1861 C   0  0  0  0  0  0  0  0  0  0  0  0
    1.6556    1.1431   -1.1690 C   0  0  0  0  0  0  0  0  0  0  0  0
    0.3674    1.6616   -0.7480 O   0  0  0  0  0  0  0  0  0  0  0  0
   -1.2349   -3.8444    0.3384 H   0  0  0  0  0  0  0  0  0  0  0  0
   -1.9580    0.3364   -0.3339 H   0  0  0  0  0  0  0  0  0  0  0  0
   -1.0732    1.6030    1.6023 H   0  0  0  0  0  0  0  0  0  0  0  0
   -0.2352    0.1068    2.2553 H   0  0  0  0  0  0  0  0  0  0  0  0
    2.2587   -0.0266    0.6403 H   0  0  0  0  0  0  0  0  0  0  0  0
    1.5221   -1.0401   -0.6297 H   0  0  0  0  0  0  0  0  0  0  0  0
    2.4584    1.8607   -0.9719 H   0  0  0  0  0  0  0  0  0  0  0  0
    1.6549    0.8787   -2.2320 H   0  0  0  0  0  0  0  0  0  0  0  0
  1  9  1  0  0  0  0
  2  1  3  0  0  0  0
  3  5  1  6  0  0  0
  3  2  1  0  0  0  0
  3  4  1  0  0  0  0
  4 11  1  0  0  0  0
  4 12  1  0  0  0  0
  5  8  1  6  0  0  0
  5  4  1  0  0  0  0
  6  5  1  0  0  0  0
  6 13  1  0  0  0  0
  7 15  1  0  0  0  0
  7  8  1  0  0  0  0
  7  6  1  0  0  0  0
 10  3  1  0  0  0  0
 14  6  1  0  0  0  0
 16  7  1  0  0  0  0
M  END
