title
 OpenBabel02282110003D

 14 15  0  0  1  0  0  0  0  0999 V2000
   -1.2900   -2.8121    0.2525 C   0  0  0  0  0  0  0  0  0  0  0  0
   -1.2451   -1.6111    0.2300 C   0  0  0  0  0  0  0  0  0  0  0  0
   -1.1926   -0.1770    0.1717 C   0  0  1  0  0  0  0  0  0  0  0  0
   -0.5820    0.5143    1.2915 O   0  0  0  0  0  0  0  0  0  0  0  0
    0.0900    0.5358    0.0609 C   0  0  0  0  0  0  0  0  0  0  0  0
    1.4973    0.0170   -0.2014 C   0  0  0  0  0  0  0  0  0  0  0  0
    1.7695    1.1762   -1.0245 O   0  0  0  0  0  0  0  0  0  0  0  0
    0.4919    1.7800   -0.7241 C   0  0  0  0  0  0  0  0  0  0  0  0
   -1.3332   -3.8732    0.2811 H   0  0  0  0  0  0  0  0  0  0  0  0
   -2.0869    0.3150   -0.2088 H   0  0  0  0  0  0  0  0  0  0  0  0
    2.1348   -0.0242    0.6903 H   0  0  0  0  0  0  0  0  0  0  0  0
    1.5769   -0.9229   -0.7589 H   0  0  0  0  0  0  0  0  0  0  0  0
   -0.0852    2.0091   -1.6275 H   0  0  0  0  0  0  0  0  0  0  0  0
    0.5877    2.6832   -0.1079 H   0  0  0  0  0  0  0  0  0  0  0  0
  1  9  1  0  0  0  0
  2  1  3  0  0  0  0
  3 10  1  6  0  0  0
  3  2  1  0  0  0  0
  3  4  1  0  0  0  0
  5  3  1  0  0  0  0
  5  4  1  0  0  0  0
  6  5  1  0  0  0  0
  6 11  1  0  0  0  0
  7  8  1  0  0  0  0
  7  6  1  0  0  0  0
  8 14  1  0  0  0  0
  8  5  1  0  0  0  0
 12  6  1  0  0  0  0
 13  8  1  0  0  0  0
M  END
