15
title
C -1.2924238 -2.8060079 0.20212278
C -1.252486 -1.6045439 0.22071178
C -1.192896 -0.17032492 0.19752434
N -0.5889717 0.5138837 1.3785018
C 0.10400974 0.5555979 0.11111232
C 1.5049949 0.025942678 -0.15655372
O 1.7657521 1.1454989 -1.0399585
C 0.4846655 1.7461435 -0.76496947
H -1.3310807 -3.8672583 0.19923902
H -2.043367 0.31845546 -0.27472562
H -1.0810957 1.3884603 1.552161
H 2.1671176 0.021426314 0.71739215
H 1.5664396 -0.9371092 -0.67557245
H -0.10989428 1.9007422 -1.6741737
H 0.5810605 2.701364 -0.22891048
