15
title
N -1.2102784 -2.7219734 0.16545883
C -1.2284516 -1.5651327 0.18941702
C -1.2175738 -0.13011116 0.21224895
C -0.6523486 0.5997204 1.4290009
C 0.11204789 0.5938961 0.15516093
C 1.481898 0.003071366 -0.15989868
O 1.7696108 1.1094135 -1.0452223
C 0.50254345 1.7411462 -0.7709473
H -2.0552948 0.3357281 -0.29740974
H -1.1647274 1.5082282 1.7276284
H -0.2891737 -0.010902943 2.248527
H 2.1821418 -0.04164368 0.6835261
H 1.4783734 -0.960681 -0.6826661
H -0.106797956 1.8605944 -1.67573
H 0.6241354 2.7178254 -0.2840899
