title
 OpenBabel02282110003D

 16 17  0  0  1  0  0  0  0  0999 V2000
   -1.3162   -2.2731   -1.4868 O   0  0  0  0  0  0  0  0  0  0  0  0
   -1.1932   -1.1500   -1.0661 C   0  0  0  0  0  0  0  0  0  0  0  0
    0.0730   -0.3856   -1.0440 C   0  0  1  0  0  0  0  0  0  0  0  0
   -0.0106    1.1347   -1.2035 C   0  0  0  0  0  0  0  0  0  0  0  0
    0.3414    0.5575    0.1121 C   0  0  0  0  0  0  0  0  0  0  0  0
   -0.3769    0.6814    1.4564 C   0  0  0  0  0  0  0  0  0  0  0  0
    0.8875    0.8448    2.1328 O   0  0  0  0  0  0  0  0  0  0  0  0
    1.6361    0.6939    0.9076 C   0  0  0  0  0  0  0  0  0  0  0  0
   -2.0676   -0.5901   -0.6543 H   0  0  0  0  0  0  0  0  0  0  0  0
    0.9242   -0.9000   -1.4786 H   0  0  0  0  0  0  0  0  0  0  0  0
    0.7647    1.6078   -1.7969 H   0  0  0  0  0  0  0  0  0  0  0  0
   -1.0012    1.5637   -1.3281 H   0  0  0  0  0  0  0  0  0  0  0  0
   -1.0238    1.5604    1.5719 H   0  0  0  0  0  0  0  0  0  0  0  0
   -0.9135   -0.2103    1.8044 H   0  0  0  0  0  0  0  0  0  0  0  0
    2.2803   -0.1945    0.9253 H   0  0  0  0  0  0  0  0  0  0  0  0
    2.2443    1.5794    0.6825 H   0  0  0  0  0  0  0  0  0  0  0  0
  1  2  2  0  0  0  0
  2  3  1  0  0  0  0
  2  9  1  0  0  0  0
  3 10  1  6  0  0  0
  3  5  1  0  0  0  0
  4  3  1  0  0  0  0
  4  5  1  0  0  0  0
  5  8  1  0  0  0  0
  5  6  1  0  0  0  0
  6 13  1  0  0  0  0
  6 14  1  0  0  0  0
  6  7  1  0  0  0  0
  8 15  1  0  0  0  0
  8  7  1  0  0  0  0
 11  4  1  0  0  0  0
 12  4  1  0  0  0  0
 16  8  1  0  0  0  0
M  END
