13
title
N -1.2710555 -2.7514675 0.24849223
C -1.237837 -1.5964034 0.22840321
C -1.190397 -0.15232249 0.16853344
O -0.5776795 0.51721555 1.2845434
C 0.101948276 0.54293185 0.05498982
C 1.5081527 0.01852589 -0.20465899
O 1.7868164 1.1840019 -1.0151702
C 0.50792956 1.7878127 -0.72526634
H -2.0915697 0.32064372 -0.21650428
H 2.137349 -0.032486983 0.69192433
H 1.5887303 -0.9163589 -0.76967925
H -0.06355618 2.0150092 -1.632236
H 0.5962539 2.689463 -0.106329024
