title
 OpenBabel02282110003D

 14 15  0  0  1  0  0  0  0  0999 V2000
   -1.2874   -2.7435    0.2036 N   0  0  0  0  0  0  0  0  0  0  0  0
   -1.2512   -1.5881    0.2186 C   0  0  0  0  0  0  0  0  0  0  0  0
   -1.1882   -0.1472    0.1906 C   0  0  1  0  0  0  0  0  0  0  0  0
   -0.5774    0.5137    1.3712 N   0  0  0  0  0  0  0  0  0  0  0  0
    0.1191    0.5623    0.1083 C   0  0  0  0  0  0  0  0  0  0  0  0
    1.5189    0.0273   -0.1625 C   0  0  0  0  0  0  0  0  0  0  0  0
    1.7838    1.1540   -1.0337 O   0  0  0  0  0  0  0  0  0  0  0  0
    0.5029    1.7548   -0.7645 C   0  0  0  0  0  0  0  0  0  0  0  0
   -2.0415    0.3273   -0.2875 H   0  0  0  0  0  0  0  0  0  0  0  0
   -1.0646    1.3860    1.5669 H   0  0  0  0  0  0  0  0  0  0  0  0
    2.1758    0.0127    0.7148 H   0  0  0  0  0  0  0  0  0  0  0  0
    1.5803   -0.9308   -0.6901 H   0  0  0  0  0  0  0  0  0  0  0  0
   -0.0885    1.9091   -1.6753 H   0  0  0  0  0  0  0  0  0  0  0  0
    0.5946    2.7077   -0.2246 H   0  0  0  0  0  0  0  0  0  0  0  0
  1  2  3  0  0  0  0
  3  9  1  6  0  0  0
  3  2  1  0  0  0  0
  3  4  1  0  0  0  0
  4 10  1  0  0  0  0
  5  3  1  0  0  0  0
  5  4  1  0  0  0  0
  6  5  1  0  0  0  0
  6 11  1  0  0  0  0
  7  8  1  0  0  0  0
  7  6  1  0  0  0  0
  8 14  1  0  0  0  0
  8  5  1  0  0  0  0
 12  6  1  0  0  0  0
 13  8  1  0  0  0  0
M  END
