16
title
N -1.2221464 -2.704344 0.116313055
C -1.192977 -1.5493478 0.16578661
C -1.1359677 -0.10860731 0.17567357
N -0.58387345 0.5263032 1.3979915
C 0.17280789 0.6153461 0.16701801
C 1.5597149 0.01784299 -0.07580867
C 1.7389041 1.0548836 -1.2261295
C 0.49869558 1.8387336 -0.69758195
H -1.9728544 0.37140676 -0.32511124
H -1.0898565 1.3899301 1.5849177
H 2.226388 0.20102702 0.7711413
H 1.6013128 -1.0416569 -0.33636484
H 2.682763 1.6009699 -1.249899
H 1.5609106 0.61739314 -2.210596
H -0.25131634 2.1579647 -1.425606
H 0.78306514 2.7000346 -0.08423283
