15
title
N -1.0341454 -2.7843926 -0.23828134
C -1.0843223 -1.6312507 -0.17379254
C -1.1317341 -0.18656856 -0.13005416
O -0.9152929 0.42448956 1.1498702
C 0.086200304 0.5945385 0.16913755
C 1.5283288 0.10095281 0.2624231
C 1.9130741 1.2644271 -0.7039368
C 0.52056235 1.9220282 -0.45191717
H -1.9227905 0.26046258 -0.7291924
H 1.9265293 0.24219614 1.2709424
H 1.7278246 -0.9234599 -0.058062937
H 2.785315 1.8572077 -0.42733827
H 2.0297787 0.9242149 -1.7347143
H -0.04029982 2.2869105 -1.314925
H 0.56069034 2.7109482 0.30462515
