17
title
O -1.4171711 -1.9471098 1.6579275
C -0.806167 -1.636212 0.6655174
C 0.36927566 -0.7266436 0.66099447
N 1.2635078 -0.86479264 -0.51852417
C 0.5049098 0.3519461 -0.37285957
C -0.54883426 0.88067144 -1.356833
C -0.28173992 2.3060703 -0.78788793
C 1.004483 1.7748327 -0.08680579
H -1.0848037 -2.011543 -0.343986
H 0.798376 -0.52809364 1.6403723
H 2.2320187 -0.7336187 -0.23514697
H -0.21469405 0.7664053 -2.392064
H -1.5656433 0.4924657 -1.27175
H -0.14412734 3.1064415 -1.5163095
H -1.0438484 2.6133308 -0.068700284
H 1.1626074 2.0520945 0.9582665
H 1.9132643 2.0049438 -0.65328634
