title
 OpenBabel02282110003D

 15 16  0  0  1  0  0  0  0  0999 V2000
   -1.3665   -2.0980    1.6668 O   0  0  0  0  0  0  0  0  0  0  0  0
   -0.8005   -1.7147    0.6749 C   0  0  0  0  0  0  0  0  0  0  0  0
    0.3639   -0.7867    0.6852 C   0  0  1  0  0  0  0  0  0  0  0  0
    1.2180   -0.8437   -0.5308 N   0  0  0  0  0  0  0  0  0  0  0  0
    0.4417    0.3419   -0.2897 C   0  0  0  0  0  0  0  0  0  0  0  0
   -0.5865    0.9442   -1.2451 C   0  0  0  0  0  0  0  0  0  0  0  0
   -0.1040    2.2722   -0.9376 O   0  0  0  0  0  0  0  0  0  0  0  0
    0.9072    1.7753   -0.0389 C   0  0  0  0  0  0  0  0  0  0  0  0
   -1.1114   -2.0273   -0.3469 H   0  0  0  0  0  0  0  0  0  0  0  0
    0.8228   -0.6329    1.6592 H   0  0  0  0  0  0  0  0  0  0  0  0
    2.1960   -0.7119   -0.2826 H   0  0  0  0  0  0  0  0  0  0  0  0
   -0.4384    0.6769   -2.2983 H   0  0  0  0  0  0  0  0  0  0  0  0
   -1.6422    0.8206   -0.9769 H   0  0  0  0  0  0  0  0  0  0  0  0
    0.7814    2.1567    0.9819 H   0  0  0  0  0  0  0  0  0  0  0  0
    1.9241    2.0020   -0.3887 H   0  0  0  0  0  0  0  0  0  0  0  0
  2  3  1  0  0  0  0
  2  1  2  0  0  0  0
  3 10  1  1  0  0  0
  4  5  1  0  0  0  0
  4 11  1  0  0  0  0
  4  3  1  0  0  0  0
  5  8  1  0  0  0  0
  5  3  1  0  0  0  0
  6 13  1  0  0  0  0
  6  7  1  0  0  0  0
  6  5  1  0  0  0  0
  7  8  1  0  0  0  0
  8 14  1  0  0  0  0
  9  2  1  0  0  0  0
 12  6  1  0  0  0  0
 15  8  1  0  0  0  0
M  END
