title
 OpenBabel02282110003D

 17 18  0  0  0  0  0  0  0  0999 V2000
   -0.8120   -2.7016   -0.6373 O   0  0  0  0  0  0  0  0  0  0  0  0
   -1.0489   -1.6347   -0.1252 C   0  0  0  0  0  0  0  0  0  0  0  0
   -0.1287   -0.8559    0.5525 N   0  0  0  0  0  0  0  0  0  0  0  0
    1.2478   -0.6760    0.1343 C   0  0  0  0  0  0  0  0  0  0  0  0
    0.2947    0.4790    0.2032 C   0  0  0  0  0  0  0  0  0  0  0  0
   -0.1469    1.3566   -0.9770 C   0  0  0  0  0  0  0  0  0  0  0  0
    0.3346    2.5866   -0.1494 C   0  0  0  0  0  0  0  0  0  0  0  0
    0.3629    1.6962    1.1297 C   0  0  0  0  0  0  0  0  0  0  0  0
   -2.0639   -1.1941   -0.0866 H   0  0  0  0  0  0  0  0  0  0  0  0
    1.9983   -0.8036    0.9104 H   0  0  0  0  0  0  0  0  0  0  0  0
    1.5174   -1.0686   -0.8435 H   0  0  0  0  0  0  0  0  0  0  0  0
    0.3255    1.1709   -1.9443 H   0  0  0  0  0  0  0  0  0  0  0  0
   -1.2328    1.3556   -1.1093 H   0  0  0  0  0  0  0  0  0  0  0  0
    1.3336    2.9139   -0.4455 H   0  0  0  0  0  0  0  0  0  0  0  0
   -0.3279    3.4531   -0.1306 H   0  0  0  0  0  0  0  0  0  0  0  0
   -0.5471    1.7986    1.7281 H   0  0  0  0  0  0  0  0  0  0  0  0
    1.2299    1.7756    1.7891 H   0  0  0  0  0  0  0  0  0  0  0  0
  1  2  2  0  0  0  0
  2  9  1  0  0  0  0
  2  3  1  0  0  0  0
  4  5  1  0  0  0  0
  4  3  1  0  0  0  0
  4 10  1  0  0  0  0
  5  3  1  0  0  0  0
  5  8  1  0  0  0  0
  6  7  1  0  0  0  0
  6  5  1  0  0  0  0
  7 15  1  0  0  0  0
  7  8  1  0  0  0  0
  8 16  1  0  0  0  0
  8 17  1  0  0  0  0
 11  4  1  0  0  0  0
 12  6  1  0  0  0  0
 13  6  1  0  0  0  0
 14  7  1  0  0  0  0
M  END
