title
 OpenBabel02282110003D

 19 20  0  0  1  0  0  0  0  0999 V2000
   -0.0753    2.9686    1.3991 C   0  0  0  0  0  0  0  0  0  0  0  0
   -0.6476    1.5935    1.0388 C   0  0  0  0  0  0  0  0  0  0  0  0
    0.0301    0.9849   -0.1675 C   0  0  1  0  0  0  0  0  0  0  0  0
    1.3429    0.3378    0.0730 N   0  0  0  0  0  0  0  0  0  0  0  0
    0.2068   -0.4702   -0.3444 C   0  0  0  0  0  0  0  0  0  0  0  0
   -0.3567   -1.6622    0.4226 C   0  0  0  0  0  0  0  0  0  0  0  0
   -0.5373   -2.3882   -0.8169 O   0  0  0  0  0  0  0  0  0  0  0  0
    0.0521   -1.3282   -1.5978 C   0  0  0  0  0  0  0  0  0  0  0  0
    0.9949    2.8926    1.6140 H   0  0  0  0  0  0  0  0  0  0  0  0
   -0.2041    3.6804    0.5760 H   0  0  0  0  0  0  0  0  0  0  0  0
   -0.5713    3.3861    2.2804 H   0  0  0  0  0  0  0  0  0  0  0  0
   -0.5305    0.9108    1.8880 H   0  0  0  0  0  0  0  0  0  0  0  0
   -1.7246    1.6729    0.8410 H   0  0  0  0  0  0  0  0  0  0  0  0
   -0.0671    1.5645   -1.0871 H   0  0  0  0  0  0  0  0  0  0  0  0
    1.9758    0.4942   -0.7085 H   0  0  0  0  0  0  0  0  0  0  0  0
    0.3581   -2.1541    1.0939 H   0  0  0  0  0  0  0  0  0  0  0  0
   -1.3069   -1.5064    0.9481 H   0  0  0  0  0  0  0  0  0  0  0  0
   -0.6305   -0.9526   -2.3712 H   0  0  0  0  0  0  0  0  0  0  0  0
    0.9953   -1.6388   -2.0703 H   0  0  0  0  0  0  0  0  0  0  0  0
  1  9  1  0  0  0  0
  1 11  1  0  0  0  0
  2  1  1  0  0  0  0
  2 12  1  0  0  0  0
  3 14  1  6  0  0  0
  3  4  1  0  0  0  0
  3  2  1  0  0  0  0
  5  3  1  0  0  0  0
  5  4  1  0  0  0  0
  5  6  1  0  0  0  0
  6 17  1  0  0  0  0
  6 16  1  0  0  0  0
  7  6  1  0  0  0  0
  8  7  1  0  0  0  0
  8  5  1  0  0  0  0
 10  1  1  0  0  0  0
 13  2  1  0  0  0  0
 15  4  1  0  0  0  0
 18  8  1  0  0  0  0
 19  8  1  0  0  0  0
M  END
