20
title
C 1.1650149 2.9572434 -0.77559537
C 1.1852499 1.5749983 -0.112545304
C -0.18395083 0.9312245 -0.04440362
C -0.757958 0.17997856 -1.244704
C -0.35520226 -0.55140823 -0.0047625657
C 0.6679133 -1.6659032 0.19544134
C -0.42700678 -2.2874768 1.0890703
O -1.3204898 -1.1770178 0.84609544
H 2.1682777 3.3929145 -0.8177544
H 0.7790672 2.8961022 -1.7984622
H 0.52266 3.6500888 -0.22129236
H 1.8680158 0.9162098 -0.6648567
H 1.5993645 1.6603713 0.9009913
H -0.9213602 1.4778082 0.54040176
H -1.8203117 0.27455685 -1.4429145
H -0.13648646 0.07237573 -2.1298723
H 0.92465705 -2.236424 -0.69916093
H 1.5836976 -1.3736514 0.71353054
H -0.8498444 -3.2336433 0.73220646
H -0.17849068 -2.3829148 2.1522443
