15
title
O -1.109348 -2.625003 -0.55312526
C -1.2050924 -1.5152797 -0.09257007
N -0.18903114 -0.84437186 0.57150257
C 1.207085 -0.88690275 0.18034957
C 0.4326079 0.39033523 0.17316942
C 0.09302698 1.3135561 -0.9995432
O 0.30276728 2.4669724 -0.15868342
C 0.56526494 1.6582888 1.0105274
H -2.147409 -0.93538135 -0.09135251
H 1.9179713 -1.0837306 0.97854704
H 1.4365932 -1.3547865 -0.77438927
H 0.7849268 1.2853206 -1.8497416
H -0.938135 1.2535533 -1.3702401
H -0.202338 1.7799443 1.7846183
H 1.554655 1.857581 1.4386322
