title
 OpenBabel02282110003D

 20 21  0  0  1  0  0  0  0  0999 V2000
   -0.1236    2.9805    1.4022 C   0  0  0  0  0  0  0  0  0  0  0  0
   -0.5927    1.5680    1.0355 C   0  0  0  0  0  0  0  0  0  0  0  0
    0.1482    0.9893   -0.1527 C   0  0  1  0  0  0  0  0  0  0  0  0
    1.4812    0.2931    0.0376 C   0  0  0  0  0  0  0  0  0  0  0  0
    0.2642   -0.4916   -0.3485 C   0  0  0  0  0  0  0  0  0  0  0  0
   -0.4311   -1.6234    0.4039 C   0  0  0  0  0  0  0  0  0  0  0  0
   -0.6418   -2.3421   -0.8316 O   0  0  0  0  0  0  0  0  0  0  0  0
    0.0169   -1.3166   -1.6075 C   0  0  0  0  0  0  0  0  0  0  0  0
    0.9422    2.9882    1.6529 H   0  0  0  0  0  0  0  0  0  0  0  0
   -0.2719    3.6741    0.5673 H   0  0  0  0  0  0  0  0  0  0  0  0
   -0.6765    3.3714    2.2620 H   0  0  0  0  0  0  0  0  0  0  0  0
   -0.4636    0.9035    1.8997 H   0  0  0  0  0  0  0  0  0  0  0  0
   -1.6700    1.5830    0.8235 H   0  0  0  0  0  0  0  0  0  0  0  0
    0.0521    1.5724   -1.0678 H   0  0  0  0  0  0  0  0  0  0  0  0
    2.2582    0.4360   -0.7071 H   0  0  0  0  0  0  0  0  0  0  0  0
    1.8527    0.1820    1.0531 H   0  0  0  0  0  0  0  0  0  0  0  0
    0.1951   -2.1901    1.1060 H   0  0  0  0  0  0  0  0  0  0  0  0
   -1.3794   -1.3687    0.8960 H   0  0  0  0  0  0  0  0  0  0  0  0
   -0.6551   -0.8704   -2.3533 H   0  0  0  0  0  0  0  0  0  0  0  0
    0.9131   -1.6984   -2.1152 H   0  0  0  0  0  0  0  0  0  0  0  0
  1  9  1  0  0  0  0
  1 11  1  0  0  0  0
  2  1  1  0  0  0  0
  2 12  1  0  0  0  0
  3 14  1  6  0  0  0
  3  4  1  0  0  0  0
  3  2  1  0  0  0  0
  4 16  1  0  0  0  0
  5  3  1  0  0  0  0
  5  4  1  0  0  0  0
  5  6  1  0  0  0  0
  6 18  1  0  0  0  0
  6 17  1  0  0  0  0
  7  6  1  0  0  0  0
  8  7  1  0  0  0  0
  8  5  1  0  0  0  0
 10  1  1  0  0  0  0
 13  2  1  0  0  0  0
 15  4  1  0  0  0  0
 19  8  1  0  0  0  0
 20  8  1  0  0  0  0
M  END
