title
 OpenBabel02282110003D

 18 19  0  0  1  0  0  0  0  0999 V2000
    1.3446    2.0211    0.5702 O   0  0  0  0  0  0  0  0  0  0  0  0
    0.9920    1.6248   -0.7497 C   0  0  0  0  0  0  0  0  0  0  0  0
   -0.3608    0.9672   -0.6955 C   0  0  1  0  0  0  0  0  0  0  0  0
   -0.7027   -0.1323   -1.6801 C   0  0  0  0  0  0  0  0  0  0  0  0
   -0.4677   -0.4540   -0.2372 C   0  0  0  0  0  0  0  0  0  0  0  0
    0.6092   -1.3274    0.4013 C   0  0  0  0  0  0  0  0  0  0  0  0
   -0.3544   -1.8591    1.3390 O   0  0  0  0  0  0  0  0  0  0  0  0
   -1.4229   -1.0617    0.7838 C   0  0  0  0  0  0  0  0  0  0  0  0
    2.1679    2.5168    0.5255 H   0  0  0  0  0  0  0  0  0  0  0  0
    0.9628    2.4907   -1.4296 H   0  0  0  0  0  0  0  0  0  0  0  0
    1.7283    0.9141   -1.1604 H   0  0  0  0  0  0  0  0  0  0  0  0
   -1.1700    1.6311   -0.4006 H   0  0  0  0  0  0  0  0  0  0  0  0
   -1.7182   -0.1816   -2.0602 H   0  0  0  0  0  0  0  0  0  0  0  0
    0.0557   -0.4283   -2.3997 H   0  0  0  0  0  0  0  0  0  0  0  0
    1.0359   -2.1144   -0.2351 H   0  0  0  0  0  0  0  0  0  0  0  0
    1.4162   -0.7820    0.9057 H   0  0  0  0  0  0  0  0  0  0  0  0
   -1.8425   -0.3647    1.5214 H   0  0  0  0  0  0  0  0  0  0  0  0
   -2.2304   -1.6851    0.3759 H   0  0  0  0  0  0  0  0  0  0  0  0
  2  3  1  0  0  0  0
  2  1  1  0  0  0  0
  3 12  1  1  0  0  0
  3  5  1  0  0  0  0
  4  3  1  0  0  0  0
  4  5  1  0  0  0  0
  5  6  1  0  0  0  0
  5  8  1  0  0  0  0
  6 16  1  0  0  0  0
  6  7  1  0  0  0  0
  8  7  1  0  0  0  0
  8 17  1  0  0  0  0
  9  1  1  0  0  0  0
 10  2  1  0  0  0  0
 11  2  1  0  0  0  0
 13  4  1  0  0  0  0
 14  4  1  0  0  0  0
 15  6  1  0  0  0  0
 18  8  1  0  0  0  0
M  END
