18
title
C -0.012903649 2.9089472 1.4496684
C -0.6842918 1.5933675 1.0379553
C -0.057638813 0.9940249 -0.19672349
O 1.2427272 0.3831121 -0.030191332
C 0.15089177 -0.44169387 -0.37011448
C -0.32518974 -1.6487485 0.4336579
O -0.45795375 -2.4138718 -0.7855564
C 0.08541481 -1.3470639 -1.5961908
H 1.0500542 2.7491503 1.6523564
H -0.09478314 3.6604502 0.65695775
H -0.47525752 3.321382 2.3509324
H -0.6214683 0.86857754 1.857415
H -1.7513422 1.7594044 0.8401011
H -0.13123195 1.603417 -1.1009275
H 0.43170813 -2.0653791 1.1103686
H -1.2789611 -1.5491678 0.9660593
H -0.5971818 -1.0485305 -2.4009671
H 1.0659846 -1.5994257 -2.0198221
