title
 OpenBabel02282110003D

 18 19  0  0  1  0  0  0  0  0999 V2000
    1.5414    1.9584    0.4358 O   0  0  0  0  0  0  0  0  0  0  0  0
    0.9401    1.6202   -0.8099 C   0  0  0  0  0  0  0  0  0  0  0  0
   -0.3871    0.9158   -0.6561 C   0  0  1  0  0  0  0  0  0  0  0  0
   -0.7847   -0.2118   -1.6083 C   0  0  0  0  0  0  0  0  0  0  0  0
   -0.4252   -0.5033   -0.1896 C   0  0  1  0  0  0  0  0  0  0  0  0
    0.6928   -1.3475    0.4137 C   0  0  0  0  0  0  0  0  0  0  0  0
   -0.3969   -1.7686    1.4237 C   0  0  0  0  0  0  0  0  0  0  0  0
   -1.3934   -0.9559    0.7564 O   0  0  0  0  0  0  0  0  0  0  0  0
    0.9112    2.4926    0.9297 H   0  0  0  0  0  0  0  0  0  0  0  0
    0.8281    2.5099   -1.4496 H   0  0  0  0  0  0  0  0  0  0  0  0
    1.6581    0.9590   -1.3070 H   0  0  0  0  0  0  0  0  0  0  0  0
   -1.2096    1.5374   -0.3061 H   0  0  0  0  0  0  0  0  0  0  0  0
   -1.8317   -0.2891   -1.8809 H   0  0  0  0  0  0  0  0  0  0  0  0
   -0.0881   -0.4948   -2.3924 H   0  0  0  0  0  0  0  0  0  0  0  0
    1.0718   -2.1502   -0.2218 H   0  0  0  0  0  0  0  0  0  0  0  0
    1.5226   -0.7729    0.8268 H   0  0  0  0  0  0  0  0  0  0  0  0
   -0.6728   -2.8288    1.4188 H   0  0  0  0  0  0  0  0  0  0  0  0
   -0.2359   -1.4418    2.4572 H   0  0  0  0  0  0  0  0  0  0  0  0
  1  9  1  0  0  0  0
  2  3  1  0  0  0  0
  2  1  1  0  0  0  0
  3 12  1  0  0  0  0
  3  5  1  1  0  0  0
  4  3  1  0  0  0  0
  4  5  1  0  0  0  0
  5  6  1  0  0  0  0
  5  8  1  1  0  0  0
  6 16  1  0  0  0  0
  6  7  1  0  0  0  0
  7 18  1  0  0  0  0
  8  7  1  0  0  0  0
 10  2  1  0  0  0  0
 11  2  1  0  0  0  0
 13  4  1  0  0  0  0
 14  4  1  0  0  0  0
 15  6  1  0  0  0  0
 17  7  1  0  0  0  0
M  END
