title
 OpenBabel02282110003D

 18 19  0  0  1  0  0  0  0  0999 V2000
   -0.0129    2.9089    1.4497 C   0  0  0  0  0  0  0  0  0  0  0  0
   -0.6843    1.5934    1.0380 C   0  0  0  0  0  0  0  0  0  0  0  0
   -0.0576    0.9940   -0.1967 C   0  0  1  0  0  0  0  0  0  0  0  0
    1.2427    0.3831   -0.0302 O   0  0  0  0  0  0  0  0  0  0  0  0
    0.1509   -0.4417   -0.3701 C   0  0  0  0  0  0  0  0  0  0  0  0
   -0.3252   -1.6487    0.4337 C   0  0  0  0  0  0  0  0  0  0  0  0
   -0.4580   -2.4139   -0.7856 O   0  0  0  0  0  0  0  0  0  0  0  0
    0.0854   -1.3471   -1.5962 C   0  0  0  0  0  0  0  0  0  0  0  0
    1.0501    2.7492    1.6524 H   0  0  0  0  0  0  0  0  0  0  0  0
   -0.0948    3.6605    0.6570 H   0  0  0  0  0  0  0  0  0  0  0  0
   -0.4753    3.3214    2.3509 H   0  0  0  0  0  0  0  0  0  0  0  0
   -0.6215    0.8686    1.8574 H   0  0  0  0  0  0  0  0  0  0  0  0
   -1.7513    1.7594    0.8401 H   0  0  0  0  0  0  0  0  0  0  0  0
   -0.1312    1.6034   -1.1009 H   0  0  0  0  0  0  0  0  0  0  0  0
    0.4317   -2.0654    1.1104 H   0  0  0  0  0  0  0  0  0  0  0  0
   -1.2790   -1.5492    0.9661 H   0  0  0  0  0  0  0  0  0  0  0  0
   -0.5972   -1.0485   -2.4010 H   0  0  0  0  0  0  0  0  0  0  0  0
    1.0660   -1.5994   -2.0198 H   0  0  0  0  0  0  0  0  0  0  0  0
  1  9  1  0  0  0  0
  1 11  1  0  0  0  0
  2  1  1  0  0  0  0
  2 12  1  0  0  0  0
  3 14  1  6  0  0  0
  3  4  1  0  0  0  0
  3  2  1  0  0  0  0
  5  3  1  0  0  0  0
  5  4  1  0  0  0  0
  5  6  1  0  0  0  0
  6 16  1  0  0  0  0
  6 15  1  0  0  0  0
  7  6  1  0  0  0  0
  8  7  1  0  0  0  0
  8  5  1  0  0  0  0
 10  1  1  0  0  0  0
 13  2  1  0  0  0  0
 17  8  1  0  0  0  0
 18  8  1  0  0  0  0
M  END
