18
title
O 1.5414197 1.9584328 0.43579984
C 0.94007254 1.6201519 -0.8098997
C -0.3871338 0.9158187 -0.6561408
C -0.7846989 -0.21175843 -1.608263
C -0.4252368 -0.50333947 -0.18961956
C 0.6928019 -1.3475156 0.41372746
C -0.39694437 -1.7685957 1.4236841
O -1.3933939 -0.95588833 0.75641847
H 0.9112022 2.4926302 0.92974746
H 0.8281001 2.5098555 -1.4495544
H 1.6581155 0.9589676 -1.3069607
H -1.2095987 1.5373864 -0.30611506
H -1.8317086 -0.28912598 -1.8808893
H -0.08807608 -0.49475282 -2.3924403
H 1.0717667 -2.1502345 -0.22176786
H 1.5226289 -0.772893 0.8268466
H -0.6727994 -2.8288276 1.4188466
H -0.23588178 -1.4417753 2.4572165
