18
title
O 1.344581 2.0211444 0.5702041
C 0.99201274 1.6247619 -0.7497057
C -0.3608438 0.9671635 -0.69546187
C -0.70273215 -0.13228402 -1.6801003
C -0.46769348 -0.45397064 -0.23715732
C 0.60916305 -1.3274416 0.40127155
O -0.35438612 -1.8590657 1.3389521
C -1.4229218 -1.0617028 0.7837708
H 2.167902 2.516849 0.52547485
H 0.96275526 2.4907377 -1.4295688
H 1.7283345 0.9140787 -1.1603793
H -1.1699558 1.6311436 -0.40064293
H -1.7182449 -0.18158397 -2.0602193
H 0.055692278 -0.42826685 -2.3997407
H 1.0359302 -2.1143756 -0.23506406
H 1.4161863 -0.7819858 0.90566874
H -1.8424784 -0.36469445 1.5213877
H -2.2304265 -1.6850764 0.3758953
