19
title
C 0.10092962 2.9299605 1.2432139
C -0.44116357 1.5351666 0.94545406
N 0.27959684 0.930019 -0.17252035
C 1.4875649 0.16446772 0.15372835
C 0.24955425 -0.50744474 -0.30191407
C -0.6199931 -1.5375893 0.4248257
O -0.8513204 -2.2339125 -0.8174284
C -0.07986936 -1.2740579 -1.5773555
H 1.1525098 2.8845222 1.5446528
H 0.031109747 3.5656135 0.35622093
H -0.46413276 3.3983595 2.0547338
H -0.38872913 0.9122484 1.8563132
H -1.4989908 1.5972102 0.6633184
H 2.332259 0.29467264 -0.51825255
H 1.7534697 0.052061584 1.2056321
H -0.11398222 -2.170615 1.1644555
H -1.5509267 -1.1512275 0.8613411
H -0.69400245 -0.7202456 -2.298602
H 0.76286495 -1.7448046 -2.0988104
