20
title
O 1.3510618 1.906402 0.6517077
C 0.9615792 1.5996304 -0.6840069
C -0.3834558 0.9288814 -0.6419305
C -0.7406724 -0.09728737 -1.6966959
C -0.48889285 -0.527458 -0.28230032
C 0.64705163 -1.393911 0.2854213
C -0.27900273 -1.7298084 1.4924009
C -1.4870579 -1.1181647 0.72271174
H 2.1677442 2.413705 0.6154384
H 0.9078414 2.5130196 -1.297629
H 1.6923529 0.9282036 -1.1629828
H -1.1888845 1.5684723 -0.28805172
H -1.7604475 -0.11679681 -2.068514
H 0.008948969 -0.33626303 -2.4463968
H 0.8711476 -2.2670429 -0.3359546
H 1.5798756 -0.8779376 0.52385795
H -0.3591227 -2.7824905 1.7718625
H -0.019184304 -1.1508855 2.3813834
H -2.1141105 -0.4087611 1.2704817
H -2.134133 -1.8814348 0.2775507
