title
 OpenBabel02282110003D

 18 19  0  0  1  0  0  0  0  0999 V2000
   -0.3470    2.3550    1.0939 C   0  0  0  0  0  0  0  0  0  0  0  0
    0.5139    1.2679    1.3783 O   0  0  0  0  0  0  0  0  0  0  0  0
    0.9880    0.6406    0.2299 C   0  0  1  0  0  0  0  0  0  0  0  0
    1.5751   -0.7270    0.4063 C   0  0  0  0  0  0  0  0  0  0  0  0
    0.2595   -0.5601   -0.3030 C   0  0  0  0  0  0  0  0  0  0  0  0
   -1.1136   -1.0693    0.1159 C   0  0  0  0  0  0  0  0  0  0  0  0
   -1.4799   -1.2648   -1.2705 O   0  0  0  0  0  0  0  0  0  0  0  0
   -0.1610   -0.8924   -1.7293 C   0  0  0  0  0  0  0  0  0  0  0  0
    0.1748    3.1413    0.5276 H   0  0  0  0  0  0  0  0  0  0  0  0
   -1.2289    2.0425    0.5179 H   0  0  0  0  0  0  0  0  0  0  0  0
   -0.6717    2.7663    2.0522 H   0  0  0  0  0  0  0  0  0  0  0  0
    1.4571    1.3122   -0.4934 H   0  0  0  0  0  0  0  0  0  0  0  0
    2.4570   -0.9884   -0.1700 H   0  0  0  0  0  0  0  0  0  0  0  0
    1.5442   -1.1426    1.4087 H   0  0  0  0  0  0  0  0  0  0  0  0
   -1.1152   -2.0146    0.6754 H   0  0  0  0  0  0  0  0  0  0  0  0
   -1.7706   -0.3537    0.6245 H   0  0  0  0  0  0  0  0  0  0  0  0
   -0.1902   -0.0557   -2.4401 H   0  0  0  0  0  0  0  0  0  0  0  0
    0.3642   -1.7389   -2.1932 H   0  0  0  0  0  0  0  0  0  0  0  0
  1  2  1  0  0  0  0
  1 11  1  0  0  0  0
  3 12  1  6  0  0  0
  3  4  1  0  0  0  0
  3  2  1  0  0  0  0
  4 14  1  0  0  0  0
  5  6  1  0  0  0  0
  5  3  1  0  0  0  0
  5  4  1  0  0  0  0
  6 16  1  0  0  0  0
  6 15  1  0  0  0  0
  7  6  1  0  0  0  0
  8  7  1  0  0  0  0
  8  5  1  0  0  0  0
  9  1  1  0  0  0  0
 10  1  1  0  0  0  0
 13  4  1  0  0  0  0
 17  8  1  0  0  0  0
 18  8  1  0  0  0  0
M  END
