title
 OpenBabel02282110003D

 18 19  0  0  0  0  0  0  0  0999 V2000
    0.4803    1.7024    0.1289 C   0  0  0  0  0  0  0  0  0  0  0  0
    1.7932    1.3544    0.6086 O   0  0  0  0  0  0  0  0  0  0  0  0
    1.4945   -0.0526    0.5373 C   0  0  0  0  0  0  0  0  0  0  0  0
    0.0582    0.2203    0.0152 C   0  0  0  0  0  0  0  0  0  0  0  0
   -1.0930   -0.2840    0.9179 C   0  0  0  0  0  0  0  0  0  0  0  0
   -1.6542   -1.4573    0.1516 C   0  0  0  0  0  0  0  0  0  0  0  0
   -1.2047   -1.4892   -1.1019 C   0  0  0  0  0  0  0  0  0  0  0  0
   -0.2657   -0.3427   -1.3892 C   0  0  0  0  0  0  0  0  0  0  0  0
   -0.0805    2.2983    0.8617 H   0  0  0  0  0  0  0  0  0  0  0  0
    0.5224    2.2554   -0.8193 H   0  0  0  0  0  0  0  0  0  0  0  0
    2.1602   -0.5785   -0.1601 H   0  0  0  0  0  0  0  0  0  0  0  0
    1.5572   -0.5357    1.5215 H   0  0  0  0  0  0  0  0  0  0  0  0
   -0.7447   -0.5448    1.9243 H   0  0  0  0  0  0  0  0  0  0  0  0
   -1.8604    0.4933    1.0539 H   0  0  0  0  0  0  0  0  0  0  0  0
   -2.3685   -2.1503    0.5820 H   0  0  0  0  0  0  0  0  0  0  0  0
   -1.4942   -2.2124   -1.8561 H   0  0  0  0  0  0  0  0  0  0  0  0
   -0.7593    0.4151   -2.0165 H   0  0  0  0  0  0  0  0  0  0  0  0
    0.6383   -0.6430   -1.9323 H   0  0  0  0  0  0  0  0  0  0  0  0
  1  2  1  0  0  0  0
  1  9  1  0  0  0  0
  3  2  1  0  0  0  0
  3 12  1  0  0  0  0
  4  1  1  0  0  0  0
  4  3  1  0  0  0  0
  4  5  1  0  0  0  0
  5 14  1  0  0  0  0
  5 13  1  0  0  0  0
  6 15  1  0  0  0  0
  6  5  1  0  0  0  0
  7  6  2  0  0  0  0
  8  7  1  0  0  0  0
  8  4  1  0  0  0  0
 10  1  1  0  0  0  0
 11  3  1  0  0  0  0
 16  7  1  0  0  0  0
 17  8  1  0  0  0  0
 18  8  1  0  0  0  0
M  END
