17
title
C -1.3026888 1.57 -1.2972683
C -0.026023395 1.6953937 -0.42334986
C -0.17374909 0.19739583 -0.025116285
C -1.6418288 0.25796807 -0.5403752
C 0.7664896 -0.79995847 -0.75669014
O 1.3748795 -1.5706286 0.30713317
C 0.84692013 -1.0699689 1.4477997
N 0.007458799 -0.12198415 1.3956084
H -2.0295277 2.3820949 -1.2365687
H -1.0702853 1.3945925 -2.3515918
H 0.9077896 1.9859549 -0.91346896
H -0.18113041 2.332045 0.45066664
H -2.3252113 0.42466354 0.29538128
H -1.9957532 -0.5970472 -1.123758
H 0.23664033 -1.4938208 -1.4161841
H 1.566862 -0.3105264 -1.3197012
H 1.2063254 -1.5477206 2.3527608
