18
title
C -1.6327657 1.0867163 -1.1819267
C -0.21620247 1.6069684 -0.8809776
C -0.019624675 0.26444077 -0.13868251
C 1.0146881 -0.7483849 -0.68207705
C 1.4060248 -1.5502137 0.5337142
C 0.9621777 -0.9928345 1.6593407
C 0.19674185 0.27878416 1.3922898
O -1.380694 -0.14159596 -0.47430936
H -2.4561055 1.6572404 -0.7343252
H -1.8622488 0.91147786 -2.2403984
H 0.42679372 1.7514282 -1.7515033
H -0.16580984 2.4956198 -0.24861112
H 0.564877 -1.3475922 -1.481156
H 1.883665 -0.23318891 -1.1164678
H 1.997955 -2.4565158 0.47222224
H 1.1353983 -1.3733252 2.6597247
H 0.77185816 1.1630075 1.7031494
H -0.77016944 0.3289458 1.9046112
