title
 OpenBabel02282110003D

 17 18  0  0  0  0  0  0  0  0999 V2000
   -1.3027    1.5700   -1.2973 C   0  0  0  0  0  0  0  0  0  0  0  0
   -0.0260    1.6954   -0.4233 C   0  0  0  0  0  0  0  0  0  0  0  0
   -0.1737    0.1974   -0.0251 C   0  0  0  0  0  0  0  0  0  0  0  0
   -1.6418    0.2580   -0.5404 C   0  0  0  0  0  0  0  0  0  0  0  0
    0.7665   -0.8000   -0.7567 C   0  0  0  0  0  0  0  0  0  0  0  0
    1.3749   -1.5706    0.3071 O   0  0  0  0  0  0  0  0  0  0  0  0
    0.8469   -1.0700    1.4478 C   0  0  0  0  0  0  0  0  0  0  0  0
    0.0075   -0.1220    1.3956 N   0  0  0  0  0  0  0  0  0  0  0  0
   -2.0295    2.3821   -1.2366 H   0  0  0  0  0  0  0  0  0  0  0  0
   -1.0703    1.3946   -2.3516 H   0  0  0  0  0  0  0  0  0  0  0  0
    0.9078    1.9860   -0.9135 H   0  0  0  0  0  0  0  0  0  0  0  0
   -0.1811    2.3320    0.4507 H   0  0  0  0  0  0  0  0  0  0  0  0
   -2.3252    0.4247    0.2954 H   0  0  0  0  0  0  0  0  0  0  0  0
   -1.9958   -0.5970   -1.1238 H   0  0  0  0  0  0  0  0  0  0  0  0
    0.2366   -1.4938   -1.4162 H   0  0  0  0  0  0  0  0  0  0  0  0
    1.5669   -0.3105   -1.3197 H   0  0  0  0  0  0  0  0  0  0  0  0
    1.2063   -1.5477    2.3528 H   0  0  0  0  0  0  0  0  0  0  0  0
  1  9  1  0  0  0  0
  1  4  1  0  0  0  0
  1  2  1  0  0  0  0
  2  3  1  0  0  0  0
  2 12  1  0  0  0  0
  3  8  1  0  0  0  0
  4  3  1  0  0  0  0
  4 13  1  0  0  0  0
  5  3  1  0  0  0  0
  5  6  1  0  0  0  0
  6  7  1  0  0  0  0
  7 17  1  0  0  0  0
  8  7  2  0  0  0  0
 10  1  1  0  0  0  0
 11  2  1  0  0  0  0
 14  4  1  0  0  0  0
 15  5  1  0  0  0  0
 16  5  1  0  0  0  0
M  END
