title
 OpenBabel02282110003D

 15 16  0  0  0  0  0  0  0  0999 V2000
    0.3086    1.6600    0.1019 C   0  0  0  0  0  0  0  0  0  0  0  0
    1.6665    1.5366    0.5685 O   0  0  0  0  0  0  0  0  0  0  0  0
    1.6182    0.0987    0.4825 C   0  0  0  0  0  0  0  0  0  0  0  0
    0.1286    0.1291    0.0872 C   0  0  0  0  0  0  0  0  0  0  0  0
   -0.9383   -0.5483    0.9791 C   0  0  0  0  0  0  0  0  0  0  0  0
   -1.7110   -1.4165    0.0775 N   0  0  0  0  0  0  0  0  0  0  0  0
   -1.1921   -1.2598   -1.0658 C   0  0  0  0  0  0  0  0  0  0  0  0
   -0.1401   -0.4152   -1.2210 O   0  0  0  0  0  0  0  0  0  0  0  0
   -0.3249    2.2112    0.8081 H   0  0  0  0  0  0  0  0  0  0  0  0
    0.2437    2.1197   -0.8916 H   0  0  0  0  0  0  0  0  0  0  0  0
    2.2730   -0.2995   -0.3018 H   0  0  0  0  0  0  0  0  0  0  0  0
    1.8510   -0.3828    1.4405 H   0  0  0  0  0  0  0  0  0  0  0  0
   -0.4871   -1.1461    1.7787 H   0  0  0  0  0  0  0  0  0  0  0  0
   -1.6016    0.1824    1.4548 H   0  0  0  0  0  0  0  0  0  0  0  0
   -1.5101   -1.7494   -1.9793 H   0  0  0  0  0  0  0  0  0  0  0  0
  1  2  1  0  0  0  0
  1  9  1  0  0  0  0
  3  2  1  0  0  0  0
  3 12  1  0  0  0  0
  4  1  1  0  0  0  0
  4  3  1  0  0  0  0
  4  5  1  0  0  0  0
  5 14  1  0  0  0  0
  5 13  1  0  0  0  0
  6  5  1  0  0  0  0
  7  6  2  0  0  0  0
  8  7  1  0  0  0  0
  8  4  1  0  0  0  0
 10  1  1  0  0  0  0
 11  3  1  0  0  0  0
 15  7  1  0  0  0  0
M  END
