17
title
O 1.2140204 2.7343817 -0.7961811
C 1.2001122 1.5939773 0.042842437
C -0.17850581 0.98008084 0.11198326
N -0.6036181 0.32471883 -1.151908
C -0.40892723 -0.47624433 0.04801016
C 0.53389966 -1.6703688 0.16754676
O -0.46894112 -2.4008453 0.9122335
C -1.4311237 -1.3334647 0.7906124
H 0.87651813 2.4377825 -1.6499672
H 1.9201293 0.8347854 -0.30012533
H 1.5190676 1.9323251 1.0342327
H -0.9252191 1.5762961 0.6349605
H -1.5954947 0.47586256 -1.3215255
H 0.7813335 -2.153387 -0.7855652
H 1.449464 -1.5209786 0.7524341
H -1.765219 -0.96117556 1.767486
H -2.3081756 -1.6318122 0.1987652
