20
title
C -1.2791363 1.8183963 -0.9181267
C 0.22772239 1.5286099 -0.69895154
C -0.14378358 0.07760568 -0.22406898
C -1.5389249 0.29019856 -0.8940188
C 0.72389674 -1.1253413 -0.6653103
C 1.481981 -1.6116718 0.5972865
C 0.7060325 -0.9695054 1.722218
C -0.16617073 -0.06708469 1.2769375
H -1.7282687 2.3245494 -0.058847167
H -1.5619096 2.3635254 -1.8216249
H 0.7803838 1.5036377 -1.6434449
H 0.772696 2.1603181 0.0075914483
H -2.4131854 -0.07542198 -0.34782624
H -1.5579306 -0.13480128 -1.9028294
H 0.06274198 -1.9228183 -1.0231303
H 1.3935454 -0.8719769 -1.4924216
H 1.5145102 -2.7048779 0.6719596
H 2.5285358 -1.2761236 0.60640484
H 0.88100505 -1.2079684 2.7660024
H -0.8105506 0.5425113 1.9031043
