18
title
C -1.074342 1.6610796 -1.2401595
C 0.34426025 1.5700899 -0.6553545
C -0.10240062 0.17556524 -0.1238747
C 0.598993 -1.0987835 -0.6461292
C 1.2933531 -1.7474265 0.5763402
C 0.6426329 -1.0501089 1.7464427
C -0.11203524 -0.021134153 1.3661836
O -1.4255099 0.36922276 -0.7083538
H -1.7072875 2.459076 -0.8325342
H -1.1415619 1.6856602 -2.3350708
H 1.1592453 1.5452181 -1.3811287
H 0.5791045 2.300612 0.121046446
H -0.18861265 -1.7544748 -1.0291895
H 1.2848406 -0.89392185 -1.4722407
H 1.1647654 -2.8354273 0.61097705
H 2.377169 -1.5697254 0.5728526
H 0.8099378 -1.3576536 2.7734115
H -0.6632925 0.64587754 2.0198042
