title
 OpenBabel02282110003D

 20 21  0  0  0  0  0  0  0  0999 V2000
   -1.4655    1.6300   -1.0111 C   0  0  0  0  0  0  0  0  0  0  0  0
    0.0536    1.4066   -0.7808 C   0  0  0  0  0  0  0  0  0  0  0  0
   -0.2671   -0.0299   -0.2654 C   0  0  0  0  0  0  0  0  0  0  0  0
   -1.6748    0.0936   -0.9069 C   0  0  0  0  0  0  0  0  0  0  0  0
    0.6751   -1.1805   -0.6427 C   0  0  0  0  0  0  0  0  0  0  0  0
    1.6475   -1.2638    0.5580 C   0  0  0  0  0  0  0  0  0  0  0  0
    1.1115   -0.4245    1.5848 O   0  0  0  0  0  0  0  0  0  0  0  0
   -0.2395   -0.1414    1.2613 C   0  0  0  0  0  0  0  0  0  0  0  0
   -1.9366    2.1663   -0.1830 H   0  0  0  0  0  0  0  0  0  0  0  0
   -1.7637    2.1121   -1.9446 H   0  0  0  0  0  0  0  0  0  0  0  0
    0.6102    1.3849   -1.7230 H   0  0  0  0  0  0  0  0  0  0  0  0
    0.5716    2.0758   -0.0885 H   0  0  0  0  0  0  0  0  0  0  0  0
   -2.5211   -0.2653   -0.3128 H   0  0  0  0  0  0  0  0  0  0  0  0
   -1.7186   -0.3843   -1.8902 H   0  0  0  0  0  0  0  0  0  0  0  0
    0.1048   -2.1107   -0.7437 H   0  0  0  0  0  0  0  0  0  0  0  0
    1.1899   -1.0076   -1.5914 H   0  0  0  0  0  0  0  0  0  0  0  0
    1.7479   -2.2947    0.9252 H   0  0  0  0  0  0  0  0  0  0  0  0
    2.6506   -0.8949    0.3178 H   0  0  0  0  0  0  0  0  0  0  0  0
   -0.5249    0.7771    1.7836 H   0  0  0  0  0  0  0  0  0  0  0  0
   -0.9115   -0.9519    1.5968 H   0  0  0  0  0  0  0  0  0  0  0  0
  1  4  1  0  0  0  0
  1  2  1  0  0  0  0
  1  9  1  0  0  0  0
  2  3  1  0  0  0  0
  2 12  1  0  0  0  0
  3  8  1  0  0  0  0
  4 13  1  0  0  0  0
  4  3  1  0  0  0  0
  5  3  1  0  0  0  0
  5  6  1  0  0  0  0
  6 17  1  0  0  0  0
  6  7  1  0  0  0  0
  8  7  1  0  0  0  0
  8 20  1  0  0  0  0
  8 19  1  0  0  0  0
 10  1  1  0  0  0  0
 11  2  1  0  0  0  0
 14  4  1  0  0  0  0
 15  5  1  0  0  0  0
 16  5  1  0  0  0  0
 18  6  1  0  0  0  0
M  END
