title
 OpenBabel02282110003D

 15 16  0  0  0  0  0  0  0  0999 V2000
    0.0768    1.7019   -0.0924 C   0  0  0  0  0  0  0  0  0  0  0  0
    1.4060    1.8393    0.4428 O   0  0  0  0  0  0  0  0  0  0  0  0
    1.5729    0.4115    0.5171 C   0  0  0  0  0  0  0  0  0  0  0  0
    0.1253    0.1594    0.0298 C   0  0  0  0  0  0  0  0  0  0  0  0
   -0.8691   -0.5422    0.9853 C   0  0  0  0  0  0  0  0  0  0  0  0
   -1.4525   -1.5969    0.1849 O   0  0  0  0  0  0  0  0  0  0  0  0
   -0.8629   -1.4851   -1.0260 C   0  0  0  0  0  0  0  0  0  0  0  0
    0.0013   -0.5792   -1.2295 N   0  0  0  0  0  0  0  0  0  0  0  0
   -0.6748    2.2063    0.5297 H   0  0  0  0  0  0  0  0  0  0  0  0
    0.0008    2.0575   -1.1261 H   0  0  0  0  0  0  0  0  0  0  0  0
    2.3387    0.0411   -0.1737 H   0  0  0  0  0  0  0  0  0  0  0  0
    1.7986    0.0729    1.5373 H   0  0  0  0  0  0  0  0  0  0  0  0
   -0.3857   -0.9993    1.8536 H   0  0  0  0  0  0  0  0  0  0  0  0
   -1.6752    0.1128    1.3282 H   0  0  0  0  0  0  0  0  0  0  0  0
   -1.1949   -2.2149   -1.7561 H   0  0  0  0  0  0  0  0  0  0  0  0
  1  4  1  0  0  0  0
  1  2  1  0  0  0  0
  1  9  1  0  0  0  0
  2  3  1  0  0  0  0
  3 12  1  0  0  0  0
  4  3  1  0  0  0  0
  4  5  1  0  0  0  0
  5 14  1  0  0  0  0
  5 13  1  0  0  0  0
  6  5  1  0  0  0  0
  7  6  1  0  0  0  0
  8  7  2  0  0  0  0
  8  4  1  0  0  0  0
 10  1  1  0  0  0  0
 11  3  1  0  0  0  0
 15  7  1  0  0  0  0
M  END
