title
 OpenBabel02282110003D

 16 17  0  0  0  0  0  0  0  0999 V2000
    0.2644    1.6562   -0.0540 C   0  0  0  0  0  0  0  0  0  0  0  0
    1.5271    1.6902    0.6432 O   0  0  0  0  0  0  0  0  0  0  0  0
    1.6608    0.2570    0.5695 C   0  0  0  0  0  0  0  0  0  0  0  0
    0.2157    0.1149    0.0469 C   0  0  0  0  0  0  0  0  0  0  0  0
   -0.8236   -0.5329    0.9743 C   0  0  0  0  0  0  0  0  0  0  0  0
   -1.7892   -1.0509    0.0734 O   0  0  0  0  0  0  0  0  0  0  0  0
   -1.0319   -1.4894   -1.0220 C   0  0  0  0  0  0  0  0  0  0  0  0
    0.0371   -0.5693   -1.1795 O   0  0  0  0  0  0  0  0  0  0  0  0
   -0.5154    2.2236    0.4674 H   0  0  0  0  0  0  0  0  0  0  0  0
    0.3495    2.0064   -1.0902 H   0  0  0  0  0  0  0  0  0  0  0  0
    2.4142   -0.0597   -0.1626 H   0  0  0  0  0  0  0  0  0  0  0  0
    1.8849   -0.1899    1.5464 H   0  0  0  0  0  0  0  0  0  0  0  0
   -0.3600   -1.3405    1.5642 H   0  0  0  0  0  0  0  0  0  0  0  0
   -1.3140    0.1679    1.6518 H   0  0  0  0  0  0  0  0  0  0  0  0
   -0.6265   -2.5018   -0.8451 H   0  0  0  0  0  0  0  0  0  0  0  0
   -1.6602   -1.4847   -1.9174 H   0  0  0  0  0  0  0  0  0  0  0  0
  1  4  1  0  0  0  0
  1  9  1  0  0  0  0
  1  2  1  0  0  0  0
  3  2  1  0  0  0  0
  3 12  1  0  0  0  0
  4  3  1  0  0  0  0
  4  5  1  0  0  0  0
  5 13  1  0  0  0  0
  5 14  1  0  0  0  0
  6  5  1  0  0  0  0
  7 15  1  0  0  0  0
  7  6  1  0  0  0  0
  8  7  1  0  0  0  0
  8  4  1  0  0  0  0
 10  1  1  0  0  0  0
 11  3  1  0  0  0  0
 16  7  1  0  0  0  0
M  END
