20
title
C -0.84853643 1.8025066 -1.28519
C -0.75559056 0.3015492 -1.1170659
C 0.58170104 -0.3924075 -1.07204
O 1.716707 0.4171164 -1.1935166
C -0.26472905 -0.30695817 0.17321116
C 0.17007777 0.40038565 1.4631717
C -0.11372283 -0.92617 2.2308586
C -0.8248376 -1.4947975 0.9660986
H 0.017022403 2.3014586 -0.84486073
H -0.88202584 2.0758808 -2.3452117
H -1.7536979 2.1959536 -0.8095112
H -1.5400053 -0.26065043 -1.6207498
H 0.6634431 -1.3655564 -1.5602492
H 2.3999274 0.06310664 -0.61444354
H 1.1967843 0.77757984 1.4892304
H -0.49699724 1.2172234 1.7562022
H 0.80105066 -1.4708923 2.478149
H -0.71972156 -0.8450688 3.1357193
H -1.916718 -1.4769688 1.048661
H -0.52236533 -2.493783 0.6366566
