20
title
C 0.095677845 1.5593731 -0.03302516
O 1.3583951 1.8129379 0.61118364
C 1.6814028 0.4079349 0.6250062
C 0.29325894 0.02281652 0.07065015
C -0.67815286 -0.6891267 1.0198607
C -1.8660183 -1.0320865 0.10917358
C -1.2056103 -1.4682087 -1.2221435
C 0.20170169 -0.80113244 -1.2277546
H -0.74674547 1.9822588 0.5303244
H 0.07324775 1.9563112 -1.0576992
H 2.5266259 0.17572407 -0.038168192
H 1.9141034 0.048220303 1.6357685
H -0.21129188 -1.6097348 1.3960396
H -0.94784874 -0.08118879 1.888998
H -2.5259142 -1.7962335 0.52873635
H -2.476632 -0.13458589 -0.048176378
H -1.1093589 -2.5574489 -1.2628688
H -1.8060853 -1.1761888 -2.0876791
H 0.37118062 -0.17967063 -2.11209
H 0.98650825 -1.565989 -1.2306206
