16
title
C 0.26444134 1.6561853 -0.05400875
O 1.5270532 1.690213 0.6432062
C 1.6607629 0.25704238 0.5694599
C 0.21565926 0.11485295 0.04693546
C -0.82357514 -0.5329377 0.97432774
O -1.7892135 -1.0509273 0.073353566
C -1.0319378 -1.4894341 -1.0220112
O 0.03706256 -0.5693113 -1.1794825
H -0.5153733 2.2236495 0.4673589
H 0.34949225 2.0064201 -1.0901898
H 2.4142077 -0.05967078 -0.16259705
H 1.884942 -0.18991874 1.5463923
H -0.3599825 -1.3405443 1.56418
H -1.3139673 0.16791509 1.6518451
H -0.62648445 -2.5017774 -0.84506667
H -1.6602229 -1.4847306 -1.9174372
