title
 OpenBabel02282110003D

 20 21  0  0  1  0  0  0  0  0999 V2000
   -0.2895    0.6454   -2.2643 C   0  0  0  0  0  0  0  0  0  0  0  0
   -0.2651   -0.4498   -1.2198 C   0  0  1  0  0  0  0  0  0  0  0  0
    0.9816   -0.7995   -0.3974 C   0  0  1  0  0  0  0  0  0  0  0  0
    2.3056   -0.0826   -0.5523 C   0  0  0  0  0  0  0  0  0  0  0  0
   -0.2030   -0.1483    0.2447 C   0  0  1  0  0  0  0  0  0  0  0  0
   -0.3136    1.1852    0.9793 C   0  0  0  0  0  0  0  0  0  0  0  0
   -1.1893    0.3826    1.9654 C   0  0  0  0  0  0  0  0  0  0  0  0
   -1.0240   -0.8313    1.1987 O   0  0  0  0  0  0  0  0  0  0  0  0
    0.2782    1.5264   -1.9509 H   0  0  0  0  0  0  0  0  0  0  0  0
    0.1364    0.3015   -3.2135 H   0  0  0  0  0  0  0  0  0  0  0  0
   -1.3166    0.9724   -2.4619 H   0  0  0  0  0  0  0  0  0  0  0  0
   -0.8825   -1.3125   -1.4602 H   0  0  0  0  0  0  0  0  0  0  0  0
    1.0695   -1.8601   -0.1724 H   0  0  0  0  0  0  0  0  0  0  0  0
    2.1766    0.9938   -0.6985 H   0  0  0  0  0  0  0  0  0  0  0  0
    2.9287   -0.2185    0.3389 H   0  0  0  0  0  0  0  0  0  0  0  0
    2.8687   -0.4650   -1.4109 H   0  0  0  0  0  0  0  0  0  0  0  0
    0.6195    1.5751    1.3914 H   0  0  0  0  0  0  0  0  0  0  0  0
   -0.8278    1.9811    0.4366 H   0  0  0  0  0  0  0  0  0  0  0  0
   -0.7892    0.2796    2.9807 H   0  0  0  0  0  0  0  0  0  0  0  0
   -2.2408    0.6868    2.0230 H   0  0  0  0  0  0  0  0  0  0  0  0
  1  9  1  0  0  0  0
  1  2  1  0  0  0  0
  2  3  1  6  0  0  0
  3 13  1  0  0  0  0
  3  5  1  1  0  0  0
  4  3  1  0  0  0  0
  4 15  1  0  0  0  0
  5  2  1  6  0  0  0
  5  6  1  0  0  0  0
  5  8  1  0  0  0  0
  6 17  1  0  0  0  0
  6  7  1  0  0  0  0
  7 20  1  0  0  0  0
  7 19  1  0  0  0  0
  8  7  1  0  0  0  0
 10  1  1  0  0  0  0
 11  1  1  0  0  0  0
 12  2  1  0  0  0  0
 14  4  1  0  0  0  0
 16  4  1  0  0  0  0
 18  6  1  0  0  0  0
M  END
