18
title
C -0.74977225 1.9023786 -1.1894953
C -0.73475105 0.39573193 -1.0573251
C 0.57707155 -0.3960485 -1.0918106
O 1.8061508 0.27242562 -1.1257387
C -0.19690937 -0.26794964 0.17552918
C 0.27937007 0.32692984 1.4935201
C -0.3770421 -0.9313605 2.104211
O -0.8368658 -1.3779184 0.8047214
H 0.16773921 2.3397033 -0.7866393
H -0.8308337 2.2077749 -2.238904
H -1.5985966 2.3397076 -0.6529654
H -1.5720085 -0.12694268 -1.5149716
H 0.5526811 -1.3661704 -1.5889299
H 1.9419721 0.6079553 -2.0184584
H 1.3617405 0.40714636 1.5975317
H -0.1860556 1.2738465 1.7744402
H 0.3157642 -1.6502736 2.5563269
H -1.2138824 -0.75569344 2.7888584
