title
 OpenBabel02282110003D

 18 19  0  0  1  0  0  0  0  0999 V2000
    1.2772    1.6954   -0.1838 O   0  0  0  0  0  0  0  0  0  0  0  0
    1.2412    0.3008   -0.1974 C   0  0  1  0  0  0  0  0  0  0  0  0
    0.7518   -0.4017    1.0501 C   0  0  1  0  0  0  0  0  0  0  0  0
    0.2929    0.4391    2.0832 O   0  0  0  0  0  0  0  0  0  0  0  0
   -0.0933   -0.4089   -0.1889 C   0  0  0  0  0  0  0  0  0  0  0  0
   -1.4347    0.2986   -0.4079 C   0  0  0  0  0  0  0  0  0  0  0  0
   -1.7573   -0.7592   -1.5073 C   0  0  0  0  0  0  0  0  0  0  0  0
   -0.5220   -1.5976   -1.0575 C   0  0  0  0  0  0  0  0  0  0  0  0
    0.8372    1.9620    0.6357 H   0  0  0  0  0  0  0  0  0  0  0  0
    2.0645   -0.1211   -0.7680 H   0  0  0  0  0  0  0  0  0  0  0  0
    1.2136   -1.3325    1.3785 H   0  0  0  0  0  0  0  0  0  0  0  0
    1.0409    0.6283    2.6614 H   0  0  0  0  0  0  0  0  0  0  0  0
   -2.0988    0.2462    0.4591 H   0  0  0  0  0  0  0  0  0  0  0  0
   -1.3643    1.3389   -0.7353 H   0  0  0  0  0  0  0  0  0  0  0  0
   -2.7277   -1.2541   -1.4328 H   0  0  0  0  0  0  0  0  0  0  0  0
   -1.6497   -0.3605   -2.5186 H   0  0  0  0  0  0  0  0  0  0  0  0
    0.1755   -1.9039   -1.8427 H   0  0  0  0  0  0  0  0  0  0  0  0
   -0.7937   -2.4817   -0.4713 H   0  0  0  0  0  0  0  0  0  0  0  0
  1  9  1  0  0  0  0
  2  5  1  0  0  0  0
  2  1  1  0  0  0  0
  2  3  1  1  0  0  0
  3 11  1  1  0  0  0
  3  4  1  0  0  0  0
  4 12  1  0  0  0  0
  5  3  1  0  0  0  0
  6  5  1  0  0  0  0
  6 13  1  0  0  0  0
  7 15  1  0  0  0  0
  7  8  1  0  0  0  0
  7  6  1  0  0  0  0
  8 18  1  0  0  0  0
  8  5  1  0  0  0  0
 10  2  1  0  0  0  0
 14  6  1  0  0  0  0
 16  7  1  0  0  0  0
 17  8  1  0  0  0  0
M  END
