16
title
O 1.2243106 1.7486389 0.047314387
C 1.2504314 0.3513692 -0.11044397
C 0.6641126 -0.47500917 1.0310138
O 0.20951702 0.20489053 2.1630728
C -0.08600663 -0.30605838 -0.2604976
C -1.4453503 0.34311193 -0.46020922
C -1.6643847 -0.82474375 -1.4498413
O -0.33443344 -1.3490939 -1.1990508
H 2.0591042 2.0164876 0.44838697
H 2.0827878 -0.05631595 -0.6818896
H 1.1124009 -1.437353 1.2621012
H 0.301318 1.1465192 1.9616458
H -2.0820816 0.34532842 0.4258325
H -1.4248496 1.3394332 -0.90366524
H -2.4395766 -1.5461259 -1.1697842
H -1.7923838 -0.54247415 -2.5002499
