title
 OpenBabel02282110003D

 16 17  0  0  1  0  0  0  0  0999 V2000
   -0.5344    2.2584   -1.3761 C   0  0  0  0  0  0  0  0  0  0  0  0
   -0.4146    0.7523   -1.3206 C   0  0  1  0  0  0  0  0  0  0  0  0
    0.9144    0.0745   -1.4965 C   0  0  0  0  0  0  0  0  0  0  0  0
    0.2557    0.0894   -0.1419 C   0  0  1  0  0  0  0  0  0  0  0  0
    0.7103    0.6364    1.2040 C   0  0  0  0  0  0  0  0  0  0  0  0
    0.1703   -0.5661    1.8481 O   0  0  0  0  0  0  0  0  0  0  0  0
   -0.2445   -1.0882    0.6385 C   0  0  0  0  0  0  0  0  0  0  0  0
   -0.7974   -2.1221    0.4378 O   0  0  0  0  0  0  0  0  0  0  0  0
    0.3583    2.7451   -0.9694 H   0  0  0  0  0  0  0  0  0  0  0  0
   -0.6550    2.5989   -2.4097 H   0  0  0  0  0  0  0  0  0  0  0  0
   -1.3992    2.6116   -0.8047 H   0  0  0  0  0  0  0  0  0  0  0  0
   -1.2731    0.2056   -1.7025 H   0  0  0  0  0  0  0  0  0  0  0  0
    0.9543   -0.8788   -2.0123 H   0  0  0  0  0  0  0  0  0  0  0  0
    1.7929    0.7005   -1.6203 H   0  0  0  0  0  0  0  0  0  0  0  0
    1.7881    0.7096    1.3669 H   0  0  0  0  0  0  0  0  0  0  0  0
    0.2015    1.5314    1.5701 H   0  0  0  0  0  0  0  0  0  0  0  0
  1  2  1  0  0  0  0
  1  9  1  0  0  0  0
  1 11  1  0  0  0  0
  2  4  1  1  0  0  0
  3  2  1  0  0  0  0
  3  4  1  0  0  0  0
  4  7  1  1  0  0  0
  4  5  1  0  0  0  0
  5 15  1  0  0  0  0
  5 16  1  0  0  0  0
  5  6  1  0  0  0  0
  7  6  1  0  0  0  0
  8  7  2  0  0  0  0
 10  1  1  0  0  0  0
 12  2  1  0  0  0  0
 13  3  1  0  0  0  0
 14  3  1  0  0  0  0
M  END
