title
 OpenBabel02282110003D

 17 18  0  0  1  0  0  0  0  0999 V2000
   -0.5514    2.2438   -1.3675 C   0  0  0  0  0  0  0  0  0  0  0  0
   -0.4259    0.7380   -1.3125 C   0  0  1  0  0  0  0  0  0  0  0  0
    0.9106    0.0691   -1.4881 C   0  0  0  0  0  0  0  0  0  0  0  0
    0.2465    0.0752   -0.1378 C   0  0  1  0  0  0  0  0  0  0  0  0
    0.7023    0.6373    1.2048 C   0  0  0  0  0  0  0  0  0  0  0  0
    0.1777   -0.5660    1.8571 O   0  0  0  0  0  0  0  0  0  0  0  0
   -0.2355   -1.0953    0.6444 C   0  0  0  0  0  0  0  0  0  0  0  0
   -0.8076   -2.1771    0.3696 N   0  0  0  0  0  0  0  0  0  0  0  0
    0.3367    2.7334   -0.9538 H   0  0  0  0  0  0  0  0  0  0  0  0
   -0.6658    2.5870   -2.4011 H   0  0  0  0  0  0  0  0  0  0  0  0
   -1.4211    2.5940   -0.8013 H   0  0  0  0  0  0  0  0  0  0  0  0
   -1.2796    0.1866   -1.6976 H   0  0  0  0  0  0  0  0  0  0  0  0
    0.9563   -0.8831   -2.0049 H   0  0  0  0  0  0  0  0  0  0  0  0
    1.7835    0.7031   -1.6129 H   0  0  0  0  0  0  0  0  0  0  0  0
    1.7808    0.7257    1.3616 H   0  0  0  0  0  0  0  0  0  0  0  0
    0.1875    1.5318    1.5662 H   0  0  0  0  0  0  0  0  0  0  0  0
   -0.9819   -2.7352    1.2059 H   0  0  0  0  0  0  0  0  0  0  0  0
  1  2  1  0  0  0  0
  1  9  1  0  0  0  0
  1 11  1  0  0  0  0
  2  4  1  1  0  0  0
  3  2  1  0  0  0  0
  3  4  1  0  0  0  0
  4  7  1  1  0  0  0
  4  5  1  0  0  0  0
  5 15  1  0  0  0  0
  5 16  1  0  0  0  0
  5  6  1  0  0  0  0
  7  6  1  0  0  0  0
  8  7  2  0  0  0  0
  8 17  1  0  0  0  0
 10  1  1  0  0  0  0
 12  2  1  0  0  0  0
 13  3  1  0  0  0  0
 14  3  1  0  0  0  0
M  END
