17
title
C -0.5514264 2.243801 -1.367511
C -0.42592195 0.73802215 -1.3124537
C 0.910633 0.069103606 -1.4880751
C 0.2464625 0.07521672 -0.13783343
C 0.70233756 0.6372889 1.2047728
O 0.17773262 -0.5659843 1.8570579
C -0.23551972 -1.0953286 0.6444345
N -0.80755776 -2.1770692 0.36956766
H 0.33673564 2.733367 -0.95381266
H -0.66584677 2.5869765 -2.4010866
H -1.4211088 2.594013 -0.80126405
H -1.2796395 0.18659455 -1.697583
H 0.9563431 -0.8831268 -2.0049422
H 1.7835293 0.703077 -1.6128601
H 1.7808452 0.7257043 1.3615748
H 0.18747523 1.5318425 1.5661715
H -0.98188055 -2.735201 1.2059137
