18
title
C -0.45809424 2.191166 -1.4424956
C -0.33869064 0.6896205 -1.322084
C 0.99033415 0.010617765 -1.4034696
C 0.2695943 0.07323238 -0.07202514
C 0.68137264 0.7300611 1.2583483
C 0.0752886 -0.49191597 2.0258148
C -0.29864022 -1.1059582 0.6594073
O -0.832093 -2.123085 0.31095114
H 0.41274637 2.6962366 -1.0125918
H -0.5305088 2.4907277 -2.4936209
H -1.349984 2.5645618 -0.92782485
H -1.1791681 0.124343544 -1.7179207
H 1.0543984 -0.96454847 -1.8751129
H 1.8757832 0.6312928 -1.5044371
H 1.7582812 0.85280824 1.3940767
H 0.1903094 1.682334 1.4720889
H 0.78530836 -1.0928321 2.600689
H -0.7864637 -0.2723327 2.662276
