16
title
C -0.5344043 2.258383 -1.3761067
C -0.414635 0.7522835 -1.320557
C 0.91443783 0.074515864 -1.4965432
C 0.25569794 0.08941798 -0.14186442
C 0.7102894 0.636419 1.2040119
O 0.17031275 -0.5661429 1.8481362
C -0.24449606 -1.0881922 0.6385431
O -0.7973631 -2.1221292 0.43775845
H 0.35833672 2.745074 -0.96938413
H -0.6550062 2.598936 -2.4096708
H -1.3991908 2.6116276 -0.80471724
H -1.2731061 0.20561741 -1.7025487
H 0.9543093 -0.8787631 -2.0122755
H 1.7928913 0.7004872 -1.6202518
H 1.788116 0.7095821 1.3669474
H 0.20145194 1.531433 1.5701408
