15
title
C -0.51367545 2.3054857 -1.32962
C -0.5020751 0.8054355 -1.2053393
O 0.7651081 0.14321749 -1.3823678
C 0.17168117 0.10606485 -0.10912613
C 0.8095317 0.61107576 1.2033617
N 0.32927883 -0.64307064 1.7976656
C -0.24080743 -1.1656549 0.6545227
O -0.8271678 -2.1838477 0.41327962
H 0.3464281 2.7494352 -0.821863
H -0.48007217 2.6011796 -2.383079
H -1.4310597 2.7164042 -0.8948241
H -1.3302987 0.2781289 -1.6802691
H 1.898944 0.7053136 1.1657064
H 0.36660814 1.5163003 1.6315184
H 0.31978136 -0.9662047 2.7522573
