title
 OpenBabel02282110003D

 16 17  0  0  1  0  0  0  0  0999 V2000
   -0.4945    2.2204   -1.4325 C   0  0  0  0  0  0  0  0  0  0  0  0
   -0.4239    0.7266   -1.2600 C   0  0  1  0  0  0  0  0  0  0  0  0
    0.8838    0.1251   -1.2985 O   0  0  0  0  0  0  0  0  0  0  0  0
    0.1743    0.0928   -0.0832 C   0  0  1  0  0  0  0  0  0  0  0  0
    0.6631    0.6715    1.2603 C   0  0  0  0  0  0  0  0  0  0  0  0
    0.2988   -0.6343    1.8484 N   0  0  0  0  0  0  0  0  0  0  0  0
   -0.2511   -1.1520    0.6692 C   0  0  0  0  0  0  0  0  0  0  0  0
   -0.8783   -2.1903    0.3178 N   0  0  0  0  0  0  0  0  0  0  0  0
    0.2879    2.7210   -0.8561 H   0  0  0  0  0  0  0  0  0  0  0  0
   -0.3685    2.4896   -2.4862 H   0  0  0  0  0  0  0  0  0  0  0  0
   -1.4695    2.5969   -1.1049 H   0  0  0  0  0  0  0  0  0  0  0  0
   -1.1793    0.1437   -1.7878 H   0  0  0  0  0  0  0  0  0  0  0  0
    1.7321    0.8964    1.3127 H   0  0  0  0  0  0  0  0  0  0  0  0
    0.0824    1.5235    1.6319 H   0  0  0  0  0  0  0  0  0  0  0  0
   -0.0640   -0.7775    2.7795 H   0  0  0  0  0  0  0  0  0  0  0  0
   -1.0396   -2.8258    1.1008 H   0  0  0  0  0  0  0  0  0  0  0  0
  1  2  1  0  0  0  0
  1 11  1  0  0  0  0
  1  9  1  0  0  0  0
  2  4  1  1  0  0  0
  3  2  1  0  0  0  0
  4  3  1  6  0  0  0
  4  7  1  0  0  0  0
  4  5  1  0  0  0  0
  5 13  1  0  0  0  0
  5 14  1  0  0  0  0
  5  6  1  0  0  0  0
  6 15  1  0  0  0  0
  7  6  1  0  0  0  0
  8  7  2  0  0  0  0
  8 16  1  0  0  0  0
 10  1  1  0  0  0  0
 12  2  1  0  0  0  0
M  END
