16
title
C -0.5204877 2.183119 -1.3452295
C -0.35550898 0.6803203 -1.3455352
C 1.0175781 0.054443054 -1.4076668
C 0.23082435 0.008014492 -0.12845777
O 0.60570383 0.71027595 1.0628768
C 0.11392742 -0.34990275 1.9192146
C -0.28406927 -1.150939 0.66539955
O -0.7806767 -2.2118487 0.4293652
H 0.26659018 2.6633377 -0.7578591
H -0.4795954 2.5783925 -2.3654358
H -1.481917 2.471545 -0.9086994
H -1.1534938 0.1172735 -1.823825
H 1.1579434 -0.8768536 -1.9462811
H 1.8727791 0.723064 -1.4021333
H 0.9039711 -0.7958516 2.5336235
H -0.7192139 -0.02840508 2.5545278
