15
title
C -0.54117495 2.2672517 -1.4006855
C -0.44889095 0.7671747 -1.2742175
N 0.885102 0.16762769 -1.4142324
C 0.22442019 0.11761534 -0.12038997
C 0.73199123 0.6144161 1.2268043
O 0.18449259 -0.6015614 1.846076
C -0.23748583 -1.1016138 0.6339655
O -0.751485 -2.1488082 0.40115198
H 0.34306628 2.7466486 -0.97257155
H -0.6060958 2.5586936 -2.4538195
H -1.4313151 2.6467817 -0.88861495
H -1.2866946 0.2055493 -1.6852195
H 0.83690745 -0.746917 -1.8597666
H 1.8169997 0.65388787 1.3384495
H 0.25803977 1.5065458 1.6409016
