title
 OpenBabel02282110003D

 15 16  0  0  1  0  0  0  0  0999 V2000
   -0.5194    2.2624   -1.3957 C   0  0  0  0  0  0  0  0  0  0  0  0
   -0.4711    0.7645   -1.2578 C   0  0  1  0  0  0  0  0  0  0  0  0
    0.8213    0.1380   -1.3600 O   0  0  0  0  0  0  0  0  0  0  0  0
    0.1659    0.0990   -0.1178 C   0  0  1  0  0  0  0  0  0  0  0  0
    0.7066    0.6133    1.2164 C   0  0  0  0  0  0  0  0  0  0  0  0
    0.2127   -0.6105    1.8500 O   0  0  0  0  0  0  0  0  0  0  0  0
   -0.2283   -1.1360    0.6443 C   0  0  0  0  0  0  0  0  0  0  0  0
   -0.7612   -2.2320    0.3625 N   0  0  0  0  0  0  0  0  0  0  0  0
    0.2982    2.7355   -0.8454 H   0  0  0  0  0  0  0  0  0  0  0  0
   -0.4353    2.5509   -2.4482 H   0  0  0  0  0  0  0  0  0  0  0  0
   -1.4709    2.6491   -1.0160 H   0  0  0  0  0  0  0  0  0  0  0  0
   -1.2590    0.2062   -1.7639 H   0  0  0  0  0  0  0  0  0  0  0  0
    1.7951    0.6830    1.2808 H   0  0  0  0  0  0  0  0  0  0  0  0
    0.2309    1.4995    1.6435 H   0  0  0  0  0  0  0  0  0  0  0  0
   -0.8681   -2.8269    1.1854 H   0  0  0  0  0  0  0  0  0  0  0  0
  1  2  1  0  0  0  0
  1 11  1  0  0  0  0
  1  9  1  0  0  0  0
  2  4  1  1  0  0  0
  3  2  1  0  0  0  0
  4  3  1  6  0  0  0
  4  7  1  0  0  0  0
  4  5  1  0  0  0  0
  5 13  1  0  0  0  0
  5 14  1  0  0  0  0
  5  6  1  0  0  0  0
  7  6  1  0  0  0  0
  8  7  2  0  0  0  0
  8 15  1  0  0  0  0
 10  1  1  0  0  0  0
 12  2  1  0  0  0  0
M  END
