17
title
C -0.49895838 2.1994793 -1.434342
C -0.39857766 0.7045623 -1.2663584
N 0.93513185 0.11262189 -1.3543758
C 0.24865095 0.09452252 -0.06253585
C 0.709421 0.7064605 1.2708548
C 0.029482195 -0.48446053 2.0258884
C -0.271309 -1.1236948 0.65324855
O -0.682259 -2.187502 0.27970782
H 0.37049922 2.6971016 -0.99751747
H -0.54020256 2.4627235 -2.4965498
H -1.4045023 2.586639 -0.9553739
H -1.2236478 0.12628184 -1.6812966
H 0.8902249 -0.8209787 -1.7615106
H 1.7956614 0.72878903 1.3783997
H 0.30789796 1.6956812 1.4983639
H 0.67389053 -1.0843947 2.673311
H -0.87522274 -0.22234721 2.5818331
