title
 OpenBabel02282110003D

 15 16  0  0  1  0  0  0  0  0999 V2000
   -0.5137    2.3055   -1.3296 C   0  0  0  0  0  0  0  0  0  0  0  0
   -0.5021    0.8054   -1.2053 C   0  0  1  0  0  0  0  0  0  0  0  0
    0.7651    0.1432   -1.3824 O   0  0  0  0  0  0  0  0  0  0  0  0
    0.1717    0.1061   -0.1091 C   0  0  1  0  0  0  0  0  0  0  0  0
    0.8095    0.6111    1.2034 C   0  0  0  0  0  0  0  0  0  0  0  0
    0.3293   -0.6431    1.7977 N   0  0  0  0  0  0  0  0  0  0  0  0
   -0.2408   -1.1657    0.6545 C   0  0  0  0  0  0  0  0  0  0  0  0
   -0.8272   -2.1838    0.4133 O   0  0  0  0  0  0  0  0  0  0  0  0
    0.3464    2.7494   -0.8219 H   0  0  0  0  0  0  0  0  0  0  0  0
   -0.4801    2.6012   -2.3831 H   0  0  0  0  0  0  0  0  0  0  0  0
   -1.4311    2.7164   -0.8948 H   0  0  0  0  0  0  0  0  0  0  0  0
   -1.3303    0.2781   -1.6803 H   0  0  0  0  0  0  0  0  0  0  0  0
    1.8989    0.7053    1.1657 H   0  0  0  0  0  0  0  0  0  0  0  0
    0.3666    1.5163    1.6315 H   0  0  0  0  0  0  0  0  0  0  0  0
    0.3198   -0.9662    2.7523 H   0  0  0  0  0  0  0  0  0  0  0  0
  1  2  1  0  0  0  0
  1 11  1  0  0  0  0
  1  9  1  0  0  0  0
  2  4  1  1  0  0  0
  3  2  1  0  0  0  0
  4  3  1  6  0  0  0
  4  7  1  0  0  0  0
  4  5  1  0  0  0  0
  5 14  1  0  0  0  0
  5  6  1  0  0  0  0
  6 15  1  0  0  0  0
  7  6  1  0  0  0  0
  8  7  2  0  0  0  0
 10  1  1  0  0  0  0
 12  2  1  0  0  0  0
 13  5  1  0  0  0  0
M  END
