title
 OpenBabel02282110003D

 17 18  0  0  1  0  0  0  0  0999 V2000
   -0.4990    2.1995   -1.4343 C   0  0  0  0  0  0  0  0  0  0  0  0
   -0.3986    0.7046   -1.2664 C   0  0  1  0  0  0  0  0  0  0  0  0
    0.9351    0.1126   -1.3544 N   0  0  0  0  0  0  0  0  0  0  0  0
    0.2487    0.0945   -0.0625 C   0  0  1  0  0  0  0  0  0  0  0  0
    0.7094    0.7065    1.2709 C   0  0  0  0  0  0  0  0  0  0  0  0
    0.0295   -0.4845    2.0259 C   0  0  0  0  0  0  0  0  0  0  0  0
   -0.2713   -1.1237    0.6532 C   0  0  0  0  0  0  0  0  0  0  0  0
   -0.6823   -2.1875    0.2797 O   0  0  0  0  0  0  0  0  0  0  0  0
    0.3705    2.6971   -0.9975 H   0  0  0  0  0  0  0  0  0  0  0  0
   -0.5402    2.4627   -2.4965 H   0  0  0  0  0  0  0  0  0  0  0  0
   -1.4045    2.5866   -0.9554 H   0  0  0  0  0  0  0  0  0  0  0  0
   -1.2236    0.1263   -1.6813 H   0  0  0  0  0  0  0  0  0  0  0  0
    0.8902   -0.8210   -1.7615 H   0  0  0  0  0  0  0  0  0  0  0  0
    1.7957    0.7288    1.3784 H   0  0  0  0  0  0  0  0  0  0  0  0
    0.3079    1.6957    1.4984 H   0  0  0  0  0  0  0  0  0  0  0  0
    0.6739   -1.0844    2.6733 H   0  0  0  0  0  0  0  0  0  0  0  0
   -0.8752   -0.2223    2.5818 H   0  0  0  0  0  0  0  0  0  0  0  0
  1  2  1  0  0  0  0
  1  9  1  0  0  0  0
  1 11  1  0  0  0  0
  2  4  1  1  0  0  0
  3  2  1  0  0  0  0
  3  4  1  0  0  0  0
  4  7  1  1  0  0  0
  4  5  1  0  0  0  0
  5 14  1  0  0  0  0
  5 15  1  0  0  0  0
  5  6  1  0  0  0  0
  6 17  1  0  0  0  0
  6 16  1  0  0  0  0
  7  6  1  0  0  0  0
  8  7  2  0  0  0  0
 10  1  1  0  0  0  0
 12  2  1  0  0  0  0
 13  3  1  0  0  0  0
M  END
