title
 OpenBabel02282110003D

 16 17  0  0  1  0  0  0  0  0999 V2000
   -0.5205    2.1831   -1.3452 C   0  0  0  0  0  0  0  0  0  0  0  0
   -0.3555    0.6803   -1.3455 C   0  0  1  0  0  0  0  0  0  0  0  0
    1.0176    0.0544   -1.4077 C   0  0  0  0  0  0  0  0  0  0  0  0
    0.2308    0.0080   -0.1285 C   0  0  1  0  0  0  0  0  0  0  0  0
    0.6057    0.7103    1.0629 O   0  0  0  0  0  0  0  0  0  0  0  0
    0.1139   -0.3499    1.9192 C   0  0  0  0  0  0  0  0  0  0  0  0
   -0.2841   -1.1509    0.6654 C   0  0  0  0  0  0  0  0  0  0  0  0
   -0.7807   -2.2118    0.4294 O   0  0  0  0  0  0  0  0  0  0  0  0
    0.2666    2.6633   -0.7579 H   0  0  0  0  0  0  0  0  0  0  0  0
   -0.4796    2.5784   -2.3654 H   0  0  0  0  0  0  0  0  0  0  0  0
   -1.4819    2.4715   -0.9087 H   0  0  0  0  0  0  0  0  0  0  0  0
   -1.1535    0.1173   -1.8238 H   0  0  0  0  0  0  0  0  0  0  0  0
    1.1579   -0.8769   -1.9463 H   0  0  0  0  0  0  0  0  0  0  0  0
    1.8728    0.7231   -1.4021 H   0  0  0  0  0  0  0  0  0  0  0  0
    0.9040   -0.7959    2.5336 H   0  0  0  0  0  0  0  0  0  0  0  0
   -0.7192   -0.0284    2.5545 H   0  0  0  0  0  0  0  0  0  0  0  0
  1 11  1  0  0  0  0
  1  9  1  0  0  0  0
  2  1  1  0  0  0  0
  2  4  1  1  0  0  0
  3 14  1  0  0  0  0
  3  2  1  0  0  0  0
  3  4  1  0  0  0  0
  4  7  1  1  0  0  0
  4  5  1  0  0  0  0
  5  6  1  0  0  0  0
  6 15  1  0  0  0  0
  6 16  1  0  0  0  0
  7  6  1  0  0  0  0
  8  7  2  0  0  0  0
 10  1  1  0  0  0  0
 12  2  1  0  0  0  0
 13  3  1  0  0  0  0
M  END
