title
 OpenBabel02282110003D

 15 16  0  0  1  0  0  0  0  0999 V2000
    1.2771    2.0113    0.2342 O   0  0  0  0  0  0  0  0  0  0  0  0
    1.3324    0.6366    0.3666 C   0  0  1  0  0  0  0  0  0  0  0  0
    0.7877   -0.0168    1.6039 C   0  0  0  0  0  0  0  0  0  0  0  0
   -0.0276   -0.0592    0.3378 C   0  0  1  0  0  0  0  0  0  0  0  0
   -1.1943    0.7803    0.0003 N   0  0  0  0  0  0  0  0  0  0  0  0
   -1.6812   -0.2547   -0.9761 C   0  0  0  0  0  0  0  0  0  0  0  0
   -0.4686   -1.1386   -0.5971 C   0  0  0  0  0  0  0  0  0  0  0  0
   -0.0627   -2.2160   -0.9211 O   0  0  0  0  0  0  0  0  0  0  0  0
    0.3726    2.2090   -0.0704 H   0  0  0  0  0  0  0  0  0  0  0  0
    2.1596    0.1603   -0.1534 H   0  0  0  0  0  0  0  0  0  0  0  0
    1.2198   -0.9578    1.9298 H   0  0  0  0  0  0  0  0  0  0  0  0
    0.4318    0.6369    2.3941 H   0  0  0  0  0  0  0  0  0  0  0  0
   -1.8342    0.8775    0.7826 H   0  0  0  0  0  0  0  0  0  0  0  0
   -2.6517   -0.6991   -0.7345 H   0  0  0  0  0  0  0  0  0  0  0  0
   -1.6941    0.1015   -2.0101 H   0  0  0  0  0  0  0  0  0  0  0  0
  1  2  1  0  0  0  0
  2  4  1  6  0  0  0
  2  3  1  0  0  0  0
  3 11  1  0  0  0  0
  3 12  1  0  0  0  0
  4  7  1  6  0  0  0
  4  3  1  0  0  0  0
  5  4  1  0  0  0  0
  5 13  1  0  0  0  0
  6 14  1  0  0  0  0
  6  7  1  0  0  0  0
  6  5  1  0  0  0  0
  8  7  2  0  0  0  0
  9  1  1  0  0  0  0
 10  2  1  0  0  0  0
 15  6  1  0  0  0  0
M  END
