title
 OpenBabel02282110003D

 15 16  0  0  1  0  0  0  0  0999 V2000
    1.1509    2.1782    0.2087 O   0  0  0  0  0  0  0  0  0  0  0  0
    1.2695    0.7880    0.2707 C   0  0  1  0  0  0  0  0  0  0  0  0
    0.8541    0.0599    1.5230 C   0  0  0  0  0  0  0  0  0  0  0  0
   -0.0230    0.0376    0.2987 C   0  0  1  0  0  0  0  0  0  0  0  0
   -1.4380    0.5893    0.0717 C   0  0  0  0  0  0  0  0  0  0  0  0
   -1.6806   -0.6301   -0.7178 N   0  0  0  0  0  0  0  0  0  0  0  0
   -0.4090   -1.1452   -0.5769 C   0  0  0  0  0  0  0  0  0  0  0  0
    0.1388   -2.1279   -1.0015 O   0  0  0  0  0  0  0  0  0  0  0  0
    1.8858    2.5629    0.6981 H   0  0  0  0  0  0  0  0  0  0  0  0
    2.0724    0.3552   -0.3259 H   0  0  0  0  0  0  0  0  0  0  0  0
    1.3687   -0.8580    1.7880 H   0  0  0  0  0  0  0  0  0  0  0  0
    0.5149    0.6678    2.3556 H   0  0  0  0  0  0  0  0  0  0  0  0
   -2.0662    0.6722    0.9639 H   0  0  0  0  0  0  0  0  0  0  0  0
   -1.4758    1.5193   -0.5028 H   0  0  0  0  0  0  0  0  0  0  0  0
   -2.4370   -0.8887   -1.3323 H   0  0  0  0  0  0  0  0  0  0  0  0
  1  2  1  0  0  0  0
  1  9  1  0  0  0  0
  2  4  1  6  0  0  0
  2  3  1  0  0  0  0
  3 11  1  0  0  0  0
  3 12  1  0  0  0  0
  4  7  1  6  0  0  0
  4  3  1  0  0  0  0
  5  4  1  0  0  0  0
  5 13  1  0  0  0  0
  6  7  1  0  0  0  0
  6  5  1  0  0  0  0
  8  7  2  0  0  0  0
 10  2  1  0  0  0  0
 14  5  1  0  0  0  0
 15  6  1  0  0  0  0
M  END
