17
title
C -0.4877061 1.9813119 -1.5302593
N -0.32176468 0.5431358 -1.3616861
C 1.034101 0.031732894 -1.3512955
C 0.2267567 0.087887205 -0.09095242
C 0.540414 0.8661244 1.2065754
C 0.12906869 -0.39069083 2.037367
C -0.28195035 -1.0879718 0.72013617
O -0.78663284 -2.138173 0.45032844
H 0.31693786 2.579426 -1.073333
H -0.51703393 2.2052367 -2.6006956
H -1.4415041 2.289932 -1.0918504
H 1.1875745 -0.92286235 -1.8476164
H 1.8591788 0.7408744 -1.4248636
H 1.5759895 1.1877942 1.3292625
H -0.11570926 1.7245977 1.3702993
H 0.9513339 -0.8973014 2.5503776
H -0.6904557 -0.25310585 2.7473166
