title
 OpenBabel02282110003D

 16 17  0  0  1  0  0  0  0  0999 V2000
    1.2424    2.0886    0.2613 O   0  0  0  0  0  0  0  0  0  0  0  0
    1.2707    0.6986    0.3584 C   0  0  1  0  0  0  0  0  0  0  0  0
    0.7299    0.0203    1.5767 C   0  0  0  0  0  0  0  0  0  0  0  0
   -0.0825    0.0269    0.2972 C   0  0  1  0  0  0  0  0  0  0  0  0
   -1.4257    0.6926   -0.0373 C   0  0  0  0  0  0  0  0  0  0  0  0
   -1.7392   -0.4844   -1.0208 C   0  0  0  0  0  0  0  0  0  0  0  0
   -0.4095   -1.1394   -0.5905 C   0  0  0  0  0  0  0  0  0  0  0  0
    0.1470   -2.1708   -0.8470 O   0  0  0  0  0  0  0  0  0  0  0  0
    1.9248    2.4445    0.8402 H   0  0  0  0  0  0  0  0  0  0  0  0
    2.0752    0.2041   -0.1863 H   0  0  0  0  0  0  0  0  0  0  0  0
    1.1624   -0.9275    1.8813 H   0  0  0  0  0  0  0  0  0  0  0  0
    0.3636    0.6548    2.3775 H   0  0  0  0  0  0  0  0  0  0  0  0
   -2.1174    0.7598    0.8052 H   0  0  0  0  0  0  0  0  0  0  0  0
   -1.3337    1.6754   -0.5017 H   0  0  0  0  0  0  0  0  0  0  0  0
   -2.6264   -1.0820   -0.7944 H   0  0  0  0  0  0  0  0  0  0  0  0
   -1.7655   -0.2133   -2.0800 H   0  0  0  0  0  0  0  0  0  0  0  0
  1  2  1  0  0  0  0
  1  9  1  0  0  0  0
  2  4  1  6  0  0  0
  2  3  1  0  0  0  0
  3 11  1  0  0  0  0
  3 12  1  0  0  0  0
  4  7  1  6  0  0  0
  4  3  1  0  0  0  0
  5  4  1  0  0  0  0
  5 13  1  0  0  0  0
  6 15  1  0  0  0  0
  6  7  1  0  0  0  0
  6  5  1  0  0  0  0
  8  7  2  0  0  0  0
 10  2  1  0  0  0  0
 14  5  1  0  0  0  0
 16  6  1  0  0  0  0
M  END
