title
 OpenBabel02282110003D

 14 15  0  0  1  0  0  0  0  0999 V2000
    1.3197    2.0012    0.2013 O   0  0  0  0  0  0  0  0  0  0  0  0
    1.3514    0.6256    0.3672 C   0  0  1  0  0  0  0  0  0  0  0  0
    0.7646   -0.0043    1.6053 C   0  0  0  0  0  0  0  0  0  0  0  0
    0.0058   -0.0729    0.3106 C   0  0  1  0  0  0  0  0  0  0  0  0
   -1.1431    0.7458    0.0429 O   0  0  0  0  0  0  0  0  0  0  0  0
   -1.6681   -0.2105   -0.9196 C   0  0  0  0  0  0  0  0  0  0  0  0
   -0.4906   -1.1517   -0.5951 C   0  0  0  0  0  0  0  0  0  0  0  0
   -0.1376   -2.2447   -0.9210 O   0  0  0  0  0  0  0  0  0  0  0  0
    0.4144    2.2329   -0.0544 H   0  0  0  0  0  0  0  0  0  0  0  0
    2.2026    0.1447   -0.1072 H   0  0  0  0  0  0  0  0  0  0  0  0
    1.1925   -0.9311    1.9737 H   0  0  0  0  0  0  0  0  0  0  0  0
    0.3549    0.6650    2.3548 H   0  0  0  0  0  0  0  0  0  0  0  0
   -2.6609   -0.5751   -0.6381 H   0  0  0  0  0  0  0  0  0  0  0  0
   -1.6837    0.1856   -1.9405 H   0  0  0  0  0  0  0  0  0  0  0  0
  1  2  1  0  0  0  0
  2  4  1  6  0  0  0
  2  3  1  0  0  0  0
  3 11  1  0  0  0  0
  3 12  1  0  0  0  0
  4  7  1  6  0  0  0
  4  3  1  0  0  0  0
  5  4  1  0  0  0  0
  6 13  1  0  0  0  0
  6  7  1  0  0  0  0
  6  5  1  0  0  0  0
  8  7  2  0  0  0  0
  9  1  1  0  0  0  0
 10  2  1  0  0  0  0
 14  6  1  0  0  0  0
M  END
