22
title
C -0.34139362 2.1780496 -1.3137434
C -0.24502267 0.66971326 -1.2590216
C 1.0853175 -0.024091672 -1.4552644
C 0.42276388 -0.038903307 -0.10871838
C 0.89649063 0.6056791 1.2021407
C 0.012970713 -0.41824657 1.9708494
C -0.1426743 -1.2506733 0.6623615
C -1.5193713 -1.7944444 0.3112506
H 0.5525861 2.6496146 -0.8930951
H -0.4419062 2.528299 -2.3471494
H -1.2066416 2.5486693 -0.75168973
H -1.1030424 0.15432273 -1.6856492
H 1.1110307 -0.94683963 -2.028205
H 1.966695 0.59958035 -1.5807269
H 1.9665052 0.46001747 1.3825926
H 0.6641885 1.6634681 1.3525506
H 0.4643277 -0.92134076 2.829243
H -0.94003785 0.017857123 2.2859495
H 0.58766663 -2.0697746 0.6501378
H -2.2747798 -1.0011468 0.3290302
H -1.533868 -2.248255 -0.68659127
H -1.8274369 -2.565612 1.0261806
