20
title
C -0.3704543 2.1310277 -1.2991852
C -0.21972884 0.62627244 -1.3246137
C 1.1682643 -0.0052715875 -1.3975626
C 0.36428067 -0.08858028 -0.14328186
O 0.75375843 0.62055576 1.0365382
C 0.17825398 -0.40762165 1.8741041
C -0.1631642 -1.2880625 0.64854056
C -1.6125437 -1.7073065 0.4545191
H 0.38165608 2.5829785 -0.6469024
H -0.26134974 2.559879 -2.301149
H -1.354113 2.4218204 -0.91433334
H -1.0038905 0.092101365 -1.8573831
H 1.309896 -0.9021843 -1.9931937
H 2.0199552 0.668368 -1.38274
H 0.91029465 -0.81047446 2.5824065
H -0.69557416 -0.03859708 2.4273436
H 0.49879113 -2.156034 0.5688073
H -2.28569 -0.8472894 0.5320199
H -1.7662606 -2.166697 -0.5279199
H -1.9115219 -2.441201 1.2107061
