title
 OpenBabel02282110003D

 19 20  0  0  1  0  0  0  0  0999 V2000
   -0.4532    2.1924   -1.3185 C   0  0  0  0  0  0  0  0  0  0  0  0
   -0.3178    0.6944   -1.2035 C   0  0  1  0  0  0  0  0  0  0  0  0
    1.0337    0.1314   -1.4139 N   0  0  0  0  0  0  0  0  0  0  0  0
    0.4156    0.0268   -0.0996 C   0  0  1  0  0  0  0  0  0  0  0  0
    0.9303    0.6190    1.2166 C   0  0  0  0  0  0  0  0  0  0  0  0
    0.0436   -0.4223    1.9633 C   0  0  0  0  0  0  0  0  0  0  0  0
   -0.0686   -1.2308    0.6370 C   0  0  1  0  0  0  0  0  0  0  0  0
   -1.2768   -1.8454    0.2662 O   0  0  0  0  0  0  0  0  0  0  0  0
    0.4213    2.6922   -0.8943 H   0  0  0  0  0  0  0  0  0  0  0  0
   -0.5357    2.4945   -2.3680 H   0  0  0  0  0  0  0  0  0  0  0  0
   -1.3471    2.5494   -0.7944 H   0  0  0  0  0  0  0  0  0  0  0  0
   -1.1464    0.1209   -1.6197 H   0  0  0  0  0  0  0  0  0  0  0  0
    0.9738   -0.7625   -1.8983 H   0  0  0  0  0  0  0  0  0  0  0  0
    2.0000    0.4388    1.3548 H   0  0  0  0  0  0  0  0  0  0  0  0
    0.7256    1.6744    1.4078 H   0  0  0  0  0  0  0  0  0  0  0  0
    0.4692   -0.9335    2.8285 H   0  0  0  0  0  0  0  0  0  0  0  0
   -0.9268   -0.0002    2.2445 H   0  0  0  0  0  0  0  0  0  0  0  0
    0.6867   -2.0242    0.5965 H   0  0  0  0  0  0  0  0  0  0  0  0
   -1.9724   -1.1811    0.3233 H   0  0  0  0  0  0  0  0  0  0  0  0
  1  2  1  0  0  0  0
  1  9  1  0  0  0  0
  1 11  1  0  0  0  0
  2  4  1  1  0  0  0
  3  2  1  0  0  0  0
  3  4  1  0  0  0  0
  4  7  1  1  0  0  0
  4  5  1  0  0  0  0
  5 14  1  0  0  0  0
  5 15  1  0  0  0  0
  5  6  1  0  0  0  0
  6 17  1  0  0  0  0
  6 16  1  0  0  0  0
  7 18  1  6  0  0  0
  7  6  1  0  0  0  0
  8 19  1  0  0  0  0
  8  7  1  0  0  0  0
 10  1  1  0  0  0  0
 12  2  1  0  0  0  0
 13  3  1  0  0  0  0
M  END
