19
title
C -0.45321172 2.19242 -1.3185481
C -0.3177594 0.69437695 -1.20354
N 1.033684 0.13138056 -1.4139493
C 0.41558737 0.026795987 -0.099634446
C 0.93034774 0.6190433 1.2166412
C 0.043623608 -0.4223386 1.9632585
C -0.06858995 -1.2308422 0.6370496
O -1.2768224 -1.8453524 0.26622495
H 0.4213146 2.6921883 -0.89432496
H -0.5356976 2.4945276 -2.368023
H -1.3470769 2.5494378 -0.7944356
H -1.146397 0.120860696 -1.6197182
H 0.9738272 -0.7624568 -1.898284
H 2.0000017 0.4387599 1.3547559
H 0.7255811 1.674441 1.4077797
H 0.46919036 -0.93350065 2.8285294
H -0.92675596 -0.00016492319 2.2444725
H 0.68672186 -2.0241508 0.59652466
H -1.9724454 -1.1810832 0.3232642
