20
title
C -0.659372 2.0188403 -0.86703444
C -0.35070366 0.5289301 -0.96404535
C 0.8967783 0.16381425 -1.8335947
C 1.6826901 -0.2325904 -0.5479174
C 0.37888962 -0.08962681 0.24420196
C 0.19043267 0.22526321 1.7076541
C -0.21559146 -1.1185024 1.1492811
O -1.5716199 -1.404383 0.9574947
H 0.23014593 2.5939045 -0.5854987
H -1.0185866 2.4049904 -1.8275573
H -1.434269 2.2167666 -0.11856812
H -1.2575383 -0.018367851 -1.2356642
H 0.72011954 -0.67793906 -2.5070002
H 1.3199517 0.9875641 -2.414576
H 2.1421463 -1.2254264 -0.54584086
H 2.446156 0.4984865 -0.26424998
H 1.0662237 0.28085348 2.3477643
H -0.6113339 0.9092923 1.970157
H 0.40260243 -1.981226 1.4047266
H -1.9761469 -1.5258758 1.8226594
