title
 OpenBabel02282110003D

 22 23  0  0  1  0  0  0  0  0999 V2000
   -0.3414    2.1780   -1.3137 C   0  0  0  0  0  0  0  0  0  0  0  0
   -0.2450    0.6697   -1.2590 C   0  0  1  0  0  0  0  0  0  0  0  0
    1.0853   -0.0241   -1.4553 C   0  0  0  0  0  0  0  0  0  0  0  0
    0.4228   -0.0389   -0.1087 C   0  0  1  0  0  0  0  0  0  0  0  0
    0.8965    0.6057    1.2021 C   0  0  0  0  0  0  0  0  0  0  0  0
    0.0130   -0.4182    1.9708 C   0  0  0  0  0  0  0  0  0  0  0  0
   -0.1427   -1.2507    0.6624 C   0  0  1  0  0  0  0  0  0  0  0  0
   -1.5194   -1.7944    0.3113 C   0  0  0  0  0  0  0  0  0  0  0  0
    0.5526    2.6496   -0.8931 H   0  0  0  0  0  0  0  0  0  0  0  0
   -0.4419    2.5283   -2.3471 H   0  0  0  0  0  0  0  0  0  0  0  0
   -1.2066    2.5487   -0.7517 H   0  0  0  0  0  0  0  0  0  0  0  0
   -1.1030    0.1543   -1.6856 H   0  0  0  0  0  0  0  0  0  0  0  0
    1.1110   -0.9468   -2.0282 H   0  0  0  0  0  0  0  0  0  0  0  0
    1.9667    0.5996   -1.5807 H   0  0  0  0  0  0  0  0  0  0  0  0
    1.9665    0.4600    1.3826 H   0  0  0  0  0  0  0  0  0  0  0  0
    0.6642    1.6635    1.3526 H   0  0  0  0  0  0  0  0  0  0  0  0
    0.4643   -0.9213    2.8292 H   0  0  0  0  0  0  0  0  0  0  0  0
   -0.9400    0.0179    2.2859 H   0  0  0  0  0  0  0  0  0  0  0  0
    0.5877   -2.0698    0.6501 H   0  0  0  0  0  0  0  0  0  0  0  0
   -2.2748   -1.0011    0.3290 H   0  0  0  0  0  0  0  0  0  0  0  0
   -1.5339   -2.2483   -0.6866 H   0  0  0  0  0  0  0  0  0  0  0  0
   -1.8274   -2.5656    1.0262 H   0  0  0  0  0  0  0  0  0  0  0  0
  1  2  1  0  0  0  0
  1  9  1  0  0  0  0
  1 11  1  0  0  0  0
  2  4  1  1  0  0  0
  3  2  1  0  0  0  0
  3  4  1  0  0  0  0
  4  7  1  1  0  0  0
  4  5  1  0  0  0  0
  5 16  1  0  0  0  0
  5 15  1  0  0  0  0
  5  6  1  0  0  0  0
  6 18  1  0  0  0  0
  6 17  1  0  0  0  0
  7 19  1  6  0  0  0
  7  6  1  0  0  0  0
  8 20  1  0  0  0  0
  8  7  1  0  0  0  0
  8 22  1  0  0  0  0
 10  1  1  0  0  0  0
 12  2  1  0  0  0  0
 13  3  1  0  0  0  0
 14  3  1  0  0  0  0
 21  8  1  0  0  0  0
M  END
