20
title
C -0.37403253 2.1883492 -1.3624119
C -0.23634666 0.6820499 -1.3464121
C 1.1248428 0.030776115 -1.4735212
C 0.38216275 -0.022474257 -0.1740581
C 0.7706115 0.5497934 1.1842749
O 0.19846427 -0.59430766 1.8533876
C -0.13257532 -1.2422477 0.5964469
C -1.6006012 -1.6094838 0.50586236
H 0.47383237 2.6697936 -0.8634416
H -0.4121278 2.5702014 -2.3883662
H -1.2868581 2.5137198 -0.8510068
H -1.0536243 0.15069512 -1.8296003
H 1.2121922 -0.8836961 -2.0527818
H 1.9943048 0.6798473 -1.5346423
H 1.8497342 0.6373881 1.3712833
H 0.2812705 1.4864452 1.4824047
H 0.49098092 -2.138316 0.4560841
H -2.232347 -0.72350276 0.6171571
H -1.8232661 -2.0815022 -0.45774618
H -1.858418 -2.3207276 1.296937
