title
 OpenBabel02282110003D

 18 19  0  0  1  0  0  0  0  0999 V2000
    1.0951    2.0797    0.1852 O   0  0  0  0  0  0  0  0  0  0  0  0
    1.1690    0.6946    0.3630 C   0  0  1  0  0  0  0  0  0  0  0  0
    0.7526    0.0714    1.6754 C   0  0  0  0  0  0  0  0  0  0  0  0
   -0.1298   -0.0415    0.4631 C   0  0  1  0  0  0  0  0  0  0  0  0
   -1.4997    0.5862    0.1867 C   0  0  0  0  0  0  0  0  0  0  0  0
   -1.6770   -0.4352   -0.9766 C   0  0  0  0  0  0  0  0  0  0  0  0
   -0.4958   -1.2647   -0.3933 C   0  0  1  0  0  0  0  0  0  0  0  0
    0.4643   -1.8217   -1.2558 O   0  0  0  0  0  0  0  0  0  0  0  0
    1.8000    2.4842    0.7013 H   0  0  0  0  0  0  0  0  0  0  0  0
    1.9774    0.2019   -0.1799 H   0  0  0  0  0  0  0  0  0  0  0  0
    1.2878   -0.8089    2.0193 H   0  0  0  0  0  0  0  0  0  0  0  0
    0.4252    0.7485    2.4589 H   0  0  0  0  0  0  0  0  0  0  0  0
   -2.2114    0.4250    1.0016 H   0  0  0  0  0  0  0  0  0  0  0  0
   -1.4946    1.6448   -0.0769 H   0  0  0  0  0  0  0  0  0  0  0  0
   -2.6414   -0.9370   -1.0786 H   0  0  0  0  0  0  0  0  0  0  0  0
   -1.4045    0.0019   -1.9429 H   0  0  0  0  0  0  0  0  0  0  0  0
   -0.8506   -2.0963    0.2245 H   0  0  0  0  0  0  0  0  0  0  0  0
    0.7701   -1.1206   -1.8420 H   0  0  0  0  0  0  0  0  0  0  0  0
  1  2  1  0  0  0  0
  1  9  1  0  0  0  0
  2  4  1  6  0  0  0
  2  3  1  0  0  0  0
  3 11  1  0  0  0  0
  3 12  1  0  0  0  0
  4  7  1  6  0  0  0
  4  3  1  0  0  0  0
  5  4  1  0  0  0  0
  5 13  1  0  0  0  0
  6  7  1  0  0  0  0
  6  5  1  0  0  0  0
  7 17  1  1  0  0  0
  8  7  1  0  0  0  0
 10  2  1  0  0  0  0
 14  5  1  0  0  0  0
 15  6  1  0  0  0  0
 16  6  1  0  0  0  0
 18  8  1  0  0  0  0
M  END
