18
title
O 1.0950974 2.0796802 0.18519568
C 1.1690065 0.6945635 0.3629725
C 0.7526313 0.07141054 1.675354
C -0.12981023 -0.04150587 0.46309674
C -1.4996803 0.5861872 0.18668935
C -1.6769705 -0.4351771 -0.97657084
C -0.49577656 -1.2647123 -0.39333153
O 0.46428517 -1.8217057 -1.2558056
H 1.7999655 2.4841847 0.7012919
H 1.9774103 0.20189291 -0.17990814
H 1.2877948 -0.8089031 2.0192866
H 0.42522433 0.7484844 2.4589038
H -2.211363 0.4249915 1.0016098
H -1.4945884 1.6448472 -0.07689051
H -2.6414027 -0.9370409 -1.0786235
H -1.4045076 0.0018883384 -1.9428535
H -0.85062456 -2.0962985 0.22452934
H 0.7701486 -1.1206356 -1.8419633
