16
title
C 0.4695428 2.059015 1.1931447
C -0.326066 0.77464604 1.0427022
O -1.0415542 0.35694885 1.9310919
C -0.17731811 0.036347635 -0.23249103
C -1.1487981 -1.0737306 -0.62121964
C 0.27008745 -1.428672 -0.41359535
O 1.0731149 -1.1171179 -1.5437601
C 0.7629387 0.2970472 -1.4083929
H 1.5446836 1.845954 1.1848531
H 0.27175486 2.7412465 0.35855022
H 0.20536813 2.5394266 2.135539
H -1.8227638 -1.3292054 0.1892253
H -1.5617076 -1.0887305 -1.6257653
H 0.6540364 -2.13399 0.31450382
H 0.3239718 0.71530336 -2.3216362
H 1.6664689 0.8556232 -1.1418767
