title
 OpenBabel02282110003D

 18 19  0  0  1  0  0  0  0  0999 V2000
   -0.3069    2.2290   -1.4059 C   0  0  0  0  0  0  0  0  0  0  0  0
   -0.2835    0.7272   -1.2960 C   0  0  1  0  0  0  0  0  0  0  0  0
    1.0114    0.0901   -1.3518 O   0  0  0  0  0  0  0  0  0  0  0  0
    0.2857    0.0273   -0.1445 C   0  0  1  0  0  0  0  0  0  0  0  0
    0.7700    0.5316    1.2098 C   0  0  0  0  0  0  0  0  0  0  0  0
    0.2240   -0.6442    1.8458 O   0  0  0  0  0  0  0  0  0  0  0  0
   -0.1241   -1.2597    0.5750 C   0  0  1  0  0  0  0  0  0  0  0  0
   -1.5648   -1.7239    0.5226 C   0  0  0  0  0  0  0  0  0  0  0  0
    0.4695    2.6795   -0.7818 H   0  0  0  0  0  0  0  0  0  0  0  0
   -0.1380    2.5423   -2.4411 H   0  0  0  0  0  0  0  0  0  0  0  0
   -1.2802    2.6202   -1.0905 H   0  0  0  0  0  0  0  0  0  0  0  0
   -1.0452    0.2030   -1.8760 H   0  0  0  0  0  0  0  0  0  0  0  0
    1.8626    0.5897    1.2992 H   0  0  0  0  0  0  0  0  0  0  0  0
    0.3227    1.4566    1.5934 H   0  0  0  0  0  0  0  0  0  0  0  0
    0.5622   -2.0878    0.3454 H   0  0  0  0  0  0  0  0  0  0  0  0
   -2.2504   -0.8926    0.7113 H   0  0  0  0  0  0  0  0  0  0  0  0
   -1.7921   -2.1550   -0.4584 H   0  0  0  0  0  0  0  0  0  0  0  0
   -1.7407   -2.4947    1.2793 H   0  0  0  0  0  0  0  0  0  0  0  0
  1  2  1  0  0  0  0
  1 11  1  0  0  0  0
  1  9  1  0  0  0  0
  2  4  1  1  0  0  0
  3  2  1  0  0  0  0
  3  4  1  0  0  0  0
  4  7  1  1  0  0  0
  4  5  1  0  0  0  0
  5 13  1  0  0  0  0
  5 14  1  0  0  0  0
  5  6  1  0  0  0  0
  7 15  1  6  0  0  0
  7  6  1  0  0  0  0
  8  7  1  0  0  0  0
  8 16  1  0  0  0  0
  8 18  1  0  0  0  0
 10  1  1  0  0  0  0
 12  2  1  0  0  0  0
 17  8  1  0  0  0  0
M  END
