title
 OpenBabel02282110003D

 18 19  0  0  1  0  0  0  0  0999 V2000
   -0.3305    2.1883   -1.3636 C   0  0  0  0  0  0  0  0  0  0  0  0
   -0.3161    0.6926   -1.1950 C   0  0  1  0  0  0  0  0  0  0  0  0
    0.9547    0.0309   -1.3704 O   0  0  0  0  0  0  0  0  0  0  0  0
    0.3642    0.0182   -0.0864 C   0  0  1  0  0  0  0  0  0  0  0  0
    0.9491    0.5990    1.2046 C   0  0  0  0  0  0  0  0  0  0  0  0
    0.0712   -0.4305    1.9786 C   0  0  0  0  0  0  0  0  0  0  0  0
   -0.1099   -1.2305    0.6495 C   0  0  1  0  0  0  0  0  0  0  0  0
   -1.3886   -1.6856    0.2818 O   0  0  0  0  0  0  0  0  0  0  0  0
    0.5230    2.6496   -0.8604 H   0  0  0  0  0  0  0  0  0  0  0  0
   -0.2856    2.4548   -2.4247 H   0  0  0  0  0  0  0  0  0  0  0  0
   -1.2534    2.6110   -0.9513 H   0  0  0  0  0  0  0  0  0  0  0  0
   -1.1470    0.1550   -1.6520 H   0  0  0  0  0  0  0  0  0  0  0  0
    2.0192    0.3916    1.2931 H   0  0  0  0  0  0  0  0  0  0  0  0
    0.7775    1.6583    1.4058 H   0  0  0  0  0  0  0  0  0  0  0  0
    0.5294   -0.9510    2.8215 H   0  0  0  0  0  0  0  0  0  0  0  0
   -0.8838   -0.0003    2.2891 H   0  0  0  0  0  0  0  0  0  0  0  0
    0.6435   -2.0268    0.5644 H   0  0  0  0  0  0  0  0  0  0  0  0
   -1.5179   -2.5686    0.6400 H   0  0  0  0  0  0  0  0  0  0  0  0
  1  2  1  0  0  0  0
  1 11  1  0  0  0  0
  1  9  1  0  0  0  0
  2  4  1  1  0  0  0
  3  2  1  0  0  0  0
  3  4  1  0  0  0  0
  4  7  1  1  0  0  0
  4  5  1  0  0  0  0
  5 13  1  0  0  0  0
  5 14  1  0  0  0  0
  5  6  1  0  0  0  0
  6 16  1  0  0  0  0
  6 15  1  0  0  0  0
  7 17  1  6  0  0  0
  7  6  1  0  0  0  0
  8 18  1  0  0  0  0
  8  7  1  0  0  0  0
 10  1  1  0  0  0  0
 12  2  1  0  0  0  0
M  END
