18
title
C -0.7228076 1.9392279 -0.87248373
C -0.28995043 0.49058402 -0.9647418
O 0.9425216 0.32464388 -1.7222209
C 1.6054825 -0.3293678 -0.6207148
C 0.36867815 -0.1659155 0.25039193
C 0.25063306 0.2131706 1.7018728
C -0.26181304 -1.1201186 1.2014935
O -1.6376458 -1.3102722 1.039592
H 0.056355204 2.5534892 -0.41169503
H -0.9296052 2.3329296 -1.8726273
H -1.638696 2.0250604 -0.27771965
H -1.0920366 -0.12154963 -1.3972496
H 1.8853995 -1.3644843 -0.86010516
H 2.5009196 0.21724083 -0.29596564
H 1.1495653 0.22946922 2.3111613
H -0.49240822 0.9610791 1.9615026
H 0.30116832 -2.0143468 1.4741373
H -2.030177 -1.4192907 1.912122
