18
title
C 0.43552646 2.0738738 1.1596224
C -0.28647876 0.7442717 1.0265919
O -0.94424486 0.2837282 1.939381
C -0.13875273 0.020784369 -0.25959453
C -1.1772213 -1.007144 -0.6637205
C 0.20002554 -1.4933698 -0.3995143
C 1.1284771 -1.1824199 -1.5779347
C 0.7775784 0.3372626 -1.451865
H 1.5207106 1.9251243 1.1156029
H 0.1736959 2.7445061 0.33363685
H 0.173929 2.5348742 2.112535
H -1.9046152 -1.2096782 0.113925844
H -1.5658039 -0.9803041 -1.679471
H 0.41427436 -2.1678302 0.42044303
H 2.179713 -1.3827286 -1.3624394
H 0.86699396 -1.6694088 -2.522805
H 0.28860176 0.80185425 -2.3144794
H 1.6489156 0.9384152 -1.1845562
