19
title
C -0.6100661 1.8690296 -1.3222135
N -0.31490856 0.44935998 -1.1871212
C 1.063487 0.027966792 -1.472211
C 0.53949285 0.0013059921 -0.08940413
C 0.8625135 0.7957488 1.1808428
C -0.06941256 -0.18274295 1.958459
C -0.0053347917 -1.1691761 0.7464038
O -1.174825 -1.7634453 0.27025887
H 0.23924443 2.5227175 -1.0711194
H -0.90211713 2.072806 -2.3569765
H -1.4513223 2.1325984 -0.67297995
H 1.1714317 -0.8924711 -2.0411398
H 1.7792772 0.8094505 -1.7266425
H 1.9134742 0.70343274 1.4692875
H 0.5947375 1.8546581 1.1919218
H 0.27931842 -0.5509937 2.9252467
H -1.081301 0.2161158 2.0677118
H 0.748779 -1.9487056 0.91301143
H -1.4867585 -1.1668037 -0.42987964
