title
 OpenBabel02282110003D

 16 17  0  0  1  0  0  0  0  0999 V2000
    1.1378    1.8245   -0.9230 C   0  0  0  0  0  0  0  0  0  0  0  0
    1.0098    0.7872    0.1701 C   0  0  0  0  0  0  0  0  0  0  0  0
    1.8609    0.5941    1.0134 O   0  0  0  0  0  0  0  0  0  0  0  0
   -0.2361   -0.0197    0.1633 C   0  0  2  0  0  0  0  0  0  0  0  0
   -0.8088   -0.7184    1.3665 C   0  0  0  0  0  0  0  0  0  0  0  0
   -0.4160   -1.5403    0.1744 C   0  0  1  0  0  0  0  0  0  0  0  0
   -1.3894   -1.2832   -0.9712 C   0  0  0  0  0  0  0  0  0  0  0  0
   -1.2309    0.1584   -0.8500 O   0  0  0  0  0  0  0  0  0  0  0  0
    2.0817    2.3585   -0.8117 H   0  0  0  0  0  0  0  0  0  0  0  0
    1.0835    1.3456   -1.9061 H   0  0  0  0  0  0  0  0  0  0  0  0
    0.2966    2.5250   -0.8788 H   0  0  0  0  0  0  0  0  0  0  0  0
   -0.1277   -0.7784    2.2077 H   0  0  0  0  0  0  0  0  0  0  0  0
   -1.8559   -0.5486    1.6010 H   0  0  0  0  0  0  0  0  0  0  0  0
    0.3523   -2.3003    0.2054 H   0  0  0  0  0  0  0  0  0  0  0  0
   -1.0258   -1.6275   -1.9451 H   0  0  0  0  0  0  0  0  0  0  0  0
   -2.4298   -1.5971   -0.8290 H   0  0  0  0  0  0  0  0  0  0  0  0
  1 11  1  0  0  0  0
  1  9  1  0  0  0  0
  1  2  1  0  0  0  0
  2  3  2  0  0  0  0
  4  2  1  0  0  0  0
  4  6  1  6  0  0  0
  4  5  1  0  0  0  0
  5 13  1  0  0  0  0
  5 12  1  0  0  0  0
  6 14  1  6  0  0  0
  6  5  1  0  0  0  0
  7  8  1  0  0  0  0
  7 16  1  0  0  0  0
  7  6  1  0  0  0  0
  8  4  1  0  0  0  0
 10  1  1  0  0  0  0
 15  7  1  0  0  0  0
M  END
