19
title
C -0.70149356 1.9686007 -0.874837
C -0.31085187 0.50595033 -0.9574868
O 0.9112821 0.3031899 -1.7125243
C 1.5424922 -0.42420128 -0.6349473
C 0.33648166 -0.17450896 0.2595432
C 0.23813984 0.18123272 1.6946843
N -0.21809275 -1.1206633 1.2002156
C -1.6568322 -1.3464831 1.1726854
H 0.089344956 2.556815 -0.4006243
H -0.87461686 2.3673701 -1.8795527
H -1.6246065 2.091683 -0.29778686
H -1.1314696 -0.08325835 -1.3938316
H 1.7100229 -1.480042 -0.88303953
H 2.4909701 0.03408179 -0.32926658
H 1.1180102 0.1662617 2.3335502
H -0.5179232 0.9138047 1.9779406
H -2.2470202 -0.4425451 0.9478042
H -1.8922402 -2.1053283 0.4196935
H -1.9755703 -1.7256951 2.1482644
