18
title
C -0.3304573 2.188252 -1.3635678
C -0.31614825 0.69259 -1.1949942
O 0.9546553 0.030903747 -1.370449
C 0.3642003 0.018187692 -0.08638029
C 0.9490775 0.5990302 1.204567
C 0.071235776 -0.43050128 1.9786346
C -0.109927595 -1.2305119 0.64949983
O -1.3886126 -1.6855948 0.28183967
H 0.52302015 2.6496067 -0.8603694
H -0.2856197 2.454753 -2.42473
H -1.2533759 2.6109893 -0.9512807
H -1.14699 0.15503614 -1.6520153
H 2.0191913 0.39163533 1.293145
H 0.7775121 1.658304 1.4057503
H 0.52940714 -0.95096606 2.821452
H -0.88382715 -0.00025720245 2.2891228
H 0.64350533 -2.0268106 0.5644463
H -1.5178521 -2.5686493 0.6399606
