title
 OpenBabel02282110003D

 17 18  0  0  1  0  0  0  0  0999 V2000
    1.3634    1.6863   -0.8783 C   0  0  0  0  0  0  0  0  0  0  0  0
    1.1891    0.5212    0.0763 C   0  0  0  0  0  0  0  0  0  0  0  0
    1.9846    0.2728    0.9581 O   0  0  0  0  0  0  0  0  0  0  0  0
   -0.0227   -0.3282   -0.0874 C   0  0  2  0  0  0  0  0  0  0  0  0
   -0.7430   -0.5423   -1.3722 C   0  0  0  0  0  0  0  0  0  0  0  0
   -1.4186    0.2700   -0.3658 N   0  0  1  0  0  0  0  0  0  0  0  0
   -1.9642   -0.7071    0.6495 C   0  0  0  0  0  0  0  0  0  0  0  0
   -0.5585   -1.2658    0.9888 C   0  0  0  0  0  0  0  0  0  0  0  0
    2.1219    2.3630   -0.4834 H   0  0  0  0  0  0  0  0  0  0  0  0
    1.6951    1.3220   -1.8576 H   0  0  0  0  0  0  0  0  0  0  0  0
    0.4157    2.2131   -1.0240 H   0  0  0  0  0  0  0  0  0  0  0  0
   -0.4222    0.0264   -2.2389 H   0  0  0  0  0  0  0  0  0  0  0  0
   -1.1157   -1.5409   -1.5965 H   0  0  0  0  0  0  0  0  0  0  0  0
   -2.4357   -0.1612    1.4679 H   0  0  0  0  0  0  0  0  0  0  0  0
   -2.6891   -1.4049    0.2184 H   0  0  0  0  0  0  0  0  0  0  0  0
   -0.3803   -2.3330    0.8346 H   0  0  0  0  0  0  0  0  0  0  0  0
   -0.2096   -0.9893    1.9836 H   0  0  0  0  0  0  0  0  0  0  0  0
  1  9  1  0  0  0  0
  1  2  1  0  0  0  0
  2  3  2  0  0  0  0
  4  6  1  1  0  0  0
  4  2  1  0  0  0  0
  4  8  1  0  0  0  0
  5  4  1  0  0  0  0
  6  5  1  6  0  0  0
  6  7  1  0  0  0  0
  7  8  1  0  0  0  0
  7 14  1  0  0  0  0
  8 17  1  0  0  0  0
 10  1  1  0  0  0  0
 11  1  1  0  0  0  0
 12  5  1  0  0  0  0
 13  5  1  0  0  0  0
 15  7  1  0  0  0  0
 16  8  1  0  0  0  0
M  END
