17
title
C 1.3634365 1.6863084 -0.8783084
C 1.1891137 0.52120864 0.07634409
O 1.9846394 0.27275628 0.9580508
C -0.02271707 -0.32816353 -0.087426744
C -0.7429746 -0.542323 -1.3722473
N -1.4185978 0.27003193 -0.3658123
C -1.9641589 -0.70708567 0.6495257
C -0.5585169 -1.265807 0.9888149
H 2.1218798 2.3630376 -0.48335102
H 1.6951174 1.321958 -1.8576095
H 0.41573805 2.2130864 -1.0239762
H -0.42220658 0.026443172 -2.2388856
H -1.1156965 -1.5409282 -1.5965406
H -2.4356902 -0.16120206 1.4678862
H -2.6891365 -1.4048706 0.21836273
H -0.3803162 -2.3330204 0.83460695
H -0.20957609 -0.98928875 1.9835819
