title
 OpenBabel02282110003D

 17 18  0  0  1  0  0  0  0  0999 V2000
    1.7523    0.9903   -1.3018 C   0  0  0  0  0  0  0  0  0  0  0  0
    1.0111    0.8417    0.0107 C   0  0  0  0  0  0  0  0  0  0  0  0
    1.4139    1.3249    1.0487 O   0  0  0  0  0  0  0  0  0  0  0  0
   -0.2561    0.0619    0.0009 C   0  0  2  0  0  0  0  0  0  0  0  0
   -1.1721   -0.1474    1.2149 C   0  0  0  0  0  0  0  0  0  0  0  0
   -1.4328   -1.6158    0.7443 C   0  0  0  0  0  0  0  0  0  0  0  0
   -0.5134   -1.3711   -0.4596 C   0  0  1  0  0  0  0  0  0  0  0  0
   -0.9368   -0.2427   -1.2588 N   0  0  0  0  0  0  0  0  0  0  0  0
    2.7115    1.4765   -1.1208 H   0  0  0  0  0  0  0  0  0  0  0  0
    1.9036    0.0189   -1.7827 H   0  0  0  0  0  0  0  0  0  0  0  0
    1.1538    1.5861   -1.9982 H   0  0  0  0  0  0  0  0  0  0  0  0
   -0.6206   -0.0944    2.1537 H   0  0  0  0  0  0  0  0  0  0  0  0
   -2.0346    0.5239    1.2712 H   0  0  0  0  0  0  0  0  0  0  0  0
   -1.0368   -2.3539    1.4446 H   0  0  0  0  0  0  0  0  0  0  0  0
   -2.4626   -1.8894    0.4923 H   0  0  0  0  0  0  0  0  0  0  0  0
    0.1793   -2.0768   -0.9049 H   0  0  0  0  0  0  0  0  0  0  0  0
   -1.9387   -0.0663   -1.2026 H   0  0  0  0  0  0  0  0  0  0  0  0
  1  9  1  0  0  0  0
  1  2  1  0  0  0  0
  2  3  2  0  0  0  0
  4  7  1  1  0  0  0
  4  2  1  0  0  0  0
  4  5  1  0  0  0  0
  5 13  1  0  0  0  0
  5 12  1  0  0  0  0
  6  5  1  0  0  0  0
  6 14  1  0  0  0  0
  7 16  1  6  0  0  0
  7  6  1  0  0  0  0
  8 17  1  0  0  0  0
  8  7  1  0  0  0  0
  8  4  1  0  0  0  0
 10  1  1  0  0  0  0
 11  1  1  0  0  0  0
 15  6  1  0  0  0  0
M  END
