title
 OpenBabel02282110003D

 17 18  0  0  1  0  0  0  0  0999 V2000
    1.0994    1.9386   -0.4414 N   0  0  0  0  0  0  0  0  0  0  0  0
    1.0284    0.7492    0.2373 C   0  0  0  0  0  0  0  0  0  0  0  0
    1.9725    0.3023    0.8661 O   0  0  0  0  0  0  0  0  0  0  0  0
   -0.2646    0.0249    0.1148 C   0  0  2  0  0  0  0  0  0  0  0  0
   -0.7005   -0.8918    1.2361 C   0  0  0  0  0  0  0  0  0  0  0  0
   -0.4166   -1.4996   -0.0928 C   0  0  1  0  0  0  0  0  0  0  0  0
   -1.5825   -1.2601   -1.0591 C   0  0  0  0  0  0  0  0  0  0  0  0
   -1.4354    0.2837   -0.8469 C   0  0  0  0  0  0  0  0  0  0  0  0
    1.9145    2.5069   -0.2738 H   0  0  0  0  0  0  0  0  0  0  0  0
    0.2678    2.3986   -0.7696 H   0  0  0  0  0  0  0  0  0  0  0  0
    0.0646   -1.0415    1.9892 H   0  0  0  0  0  0  0  0  0  0  0  0
   -1.7210   -0.8243    1.6074 H   0  0  0  0  0  0  0  0  0  0  0  0
    0.3907   -2.2076   -0.2306 H   0  0  0  0  0  0  0  0  0  0  0  0
   -1.3607   -1.5570   -2.0859 H   0  0  0  0  0  0  0  0  0  0  0  0
   -2.5385   -1.7051   -0.7651 H   0  0  0  0  0  0  0  0  0  0  0  0
   -2.2980    0.8097   -0.4239 H   0  0  0  0  0  0  0  0  0  0  0  0
   -1.1334    0.7885   -1.7680 H   0  0  0  0  0  0  0  0  0  0  0  0
  1  9  1  0  0  0  0
  1  2  1  0  0  0  0
  2  3  2  0  0  0  0
  4  6  1  6  0  0  0
  4  2  1  0  0  0  0
  4  5  1  0  0  0  0
  5 12  1  0  0  0  0
  5 11  1  0  0  0  0
  6 13  1  6  0  0  0
  6  5  1  0  0  0  0
  7  8  1  0  0  0  0
  7 15  1  0  0  0  0
  7  6  1  0  0  0  0
  8 16  1  0  0  0  0
  8  4  1  0  0  0  0
 10  1  1  0  0  0  0
 14  7  1  0  0  0  0
 17  8  1  0  0  0  0
M  END
