15
title
N 1.094347 1.6452875 -0.8794852
C 1.0242301 0.76930207 0.15655045
O 1.8884419 0.61826885 1.001365
C -0.23605382 -0.024893042 0.16682501
C -0.8283086 -0.6796812 1.3759104
C -0.45204043 -1.5319742 0.1919764
C -1.4169923 -1.2690438 -0.95940524
O -1.2243408 0.17270523 -0.8550445
H 1.9076078 2.2294703 -0.9734596
H 0.34708458 1.693385 -1.5514741
H -0.14659381 -0.7474954 2.2161057
H -1.8706619 -0.48524058 1.6121637
H 0.28873718 -2.3175685 0.23824942
H -1.0583531 -1.633195 -1.9278146
H -2.4663222 -1.5516118 -0.81869626
