16
title
N 0.96711713 1.8809226 0.099540144
C 1.1656952 0.55678105 -0.17645815
O 2.2502975 0.0535008 -0.39962476
C -0.09759538 -0.2437413 -0.21396588
C -1.2737265 0.12636685 -1.0386536
N -1.3979926 0.24672079 0.41933566
C -1.6066723 -1.1614275 0.9268975
C -0.2522691 -1.6529714 0.34665757
H 1.7864687 2.4459589 0.2563706
H 0.10499962 2.1464539 0.55192655
H -1.2460814 1.0841755 -1.5477881
H -1.8255186 -0.6558125 -1.5575553
H -1.6475966 -1.1588273 2.0170991
H -2.5170016 -1.6255203 0.53468496
H -0.27015585 -2.465654 -0.38332698
H 0.48620135 -1.8856832 1.1143866
