title
 OpenBabel02282110003D

 20 21  0  0  1  0  0  0  0  0999 V2000
   -0.4885    2.1115   -1.1325 C   0  0  0  0  0  0  0  0  0  0  0  0
   -0.6455    0.5823   -1.0689 C   0  0  0  0  0  0  0  0  0  0  0  0
   -0.1625   -0.0759   -2.3681 C   0  0  0  0  0  0  0  0  0  0  0  0
    0.0307    0.0299    0.1638 C   0  0  2  0  0  0  0  0  0  0  0  0
    1.4943   -0.3623    0.2903 C   0  0  0  0  0  0  0  0  0  0  0  0
    0.4231   -1.3593    0.6168 C   0  0  1  0  0  0  0  0  0  0  0  0
   -0.0612   -1.1625    1.9467 O   0  0  0  0  0  0  0  0  0  0  0  0
   -0.5298    0.1640    1.5832 C   0  0  0  0  0  0  0  0  0  0  0  0
    0.5669    2.3886   -1.2310 H   0  0  0  0  0  0  0  0  0  0  0  0
   -1.0286    2.5260   -1.9900 H   0  0  0  0  0  0  0  0  0  0  0  0
   -0.8769    2.5925   -0.2287 H   0  0  0  0  0  0  0  0  0  0  0  0
   -1.7183    0.3611   -0.9678 H   0  0  0  0  0  0  0  0  0  0  0  0
    0.8854    0.1666   -2.5747 H   0  0  0  0  0  0  0  0  0  0  0  0
   -0.2575   -1.1658   -2.3263 H   0  0  0  0  0  0  0  0  0  0  0  0
   -0.7537    0.2794   -3.2178 H   0  0  0  0  0  0  0  0  0  0  0  0
    2.0104   -0.5258   -0.6504 H   0  0  0  0  0  0  0  0  0  0  0  0
    2.1135    0.0332    1.0917 H   0  0  0  0  0  0  0  0  0  0  0  0
    0.3190   -2.3454    0.1775 H   0  0  0  0  0  0  0  0  0  0  0  0
   -0.1144    0.9452    2.2314 H   0  0  0  0  0  0  0  0  0  0  0  0
   -1.6259    0.2041    1.6121 H   0  0  0  0  0  0  0  0  0  0  0  0
  1  2  1  0  0  0  0
  1 11  1  0  0  0  0
  2 12  1  0  0  0  0
  2  4  1  0  0  0  0
  3 14  1  0  0  0  0
  3  2  1  0  0  0  0
  4  5  1  0  0  0  0
  4  6  1  6  0  0  0
  4  8  1  0  0  0  0
  5  6  1  0  0  0  0
  5 17  1  0  0  0  0
  6 18  1  6  0  0  0
  6  7  1  0  0  0  0
  8 20  1  0  0  0  0
  8  7  1  0  0  0  0
  8 19  1  0  0  0  0
  9  1  1  0  0  0  0
 10  1  1  0  0  0  0
 13  3  1  0  0  0  0
 15  3  1  0  0  0  0
 16  5  1  0  0  0  0
M  END
