title
 OpenBabel02282110003D

 18 19  0  0  1  0  0  0  0  0999 V2000
    1.2632    1.9307   -0.5995 C   0  0  0  0  0  0  0  0  0  0  0  0
    1.2466    0.4517   -0.2118 C   0  0  1  0  0  0  0  0  0  0  0  0
    1.9643    0.2071    0.9951 O   0  0  0  0  0  0  0  0  0  0  0  0
   -0.1569   -0.0835   -0.1120 C   0  0  2  0  0  0  0  0  0  0  0  0
   -1.2083    0.1531    0.9927 C   0  0  0  0  0  0  0  0  0  0  0  0
   -1.8233   -1.2465    0.6342 C   0  0  0  0  0  0  0  0  0  0  0  0
   -0.7418   -1.3936   -0.4433 C   0  0  1  0  0  0  0  0  0  0  0  0
   -0.8819   -0.2750   -1.3348 O   0  0  0  0  0  0  0  0  0  0  0  0
    2.2928    2.2903   -0.6754 H   0  0  0  0  0  0  0  0  0  0  0  0
    0.7612    2.0816   -1.5593 H   0  0  0  0  0  0  0  0  0  0  0  0
    0.7400    2.5363    0.1515 H   0  0  0  0  0  0  0  0  0  0  0  0
    1.7658   -0.1295   -0.9822 H   0  0  0  0  0  0  0  0  0  0  0  0
    1.6755    0.8572    1.6445 H   0  0  0  0  0  0  0  0  0  0  0  0
   -0.7800    0.1675    1.9979 H   0  0  0  0  0  0  0  0  0  0  0  0
   -1.8482    1.0268    0.8494 H   0  0  0  0  0  0  0  0  0  0  0  0
   -1.7226   -1.9679    1.4481 H   0  0  0  0  0  0  0  0  0  0  0  0
   -2.8502   -1.2525    0.2621 H   0  0  0  0  0  0  0  0  0  0  0  0
   -0.2884   -2.2912   -0.8488 H   0  0  0  0  0  0  0  0  0  0  0  0
  1  2  1  0  0  0  0
  1 11  1  0  0  0  0
  2 12  1  6  0  0  0
  2  4  1  0  0  0  0
  2  3  1  0  0  0  0
  3 13  1  0  0  0  0
  4  7  1  1  0  0  0
  4  5  1  0  0  0  0
  5 14  1  0  0  0  0
  6  5  1  0  0  0  0
  6 16  1  0  0  0  0
  7 18  1  6  0  0  0
  7  6  1  0  0  0  0
  8  7  1  0  0  0  0
  8  4  1  0  0  0  0
  9  1  1  0  0  0  0
 10  1  1  0  0  0  0
 15  5  1  0  0  0  0
 17  6  1  0  0  0  0
M  END
