20
title
C -0.48851874 2.1115003 -1.1324732
C -0.64550275 0.58231425 -1.0689046
C -0.16250809 -0.07586637 -2.368102
C 0.030660562 0.029904399 0.1638186
C 1.4943256 -0.36228344 0.2902646
C 0.42312956 -1.3593086 0.6167588
O -0.061171956 -1.162486 1.946706
C -0.52981126 0.1639795 1.5831673
H 0.5668758 2.3886104 -1.2309878
H -1.0286086 2.5260432 -1.989988
H -0.8768999 2.5925496 -0.2286666
H -1.718278 0.36113092 -0.9678364
H 0.8854046 0.16664433 -2.5747294
H -0.25749144 -1.1658043 -2.3262553
H -0.75365984 0.2794286 -3.217841
H 2.0104246 -0.52575386 -0.65042686
H 2.1135104 0.03320614 1.091691
H 0.31897986 -2.3453646 0.17750013
H -0.114430435 0.9452217 2.2313867
H -1.6259329 0.20414725 1.6121092
