18
title
C -0.60912335 2.0864706 -1.116183
C -0.7018911 0.5628681 -1.0063671
O -0.28062227 -0.075503364 -2.2079043
C 0.05014961 0.03432338 0.19260678
C 1.4973838 -0.4271418 0.17253718
C 0.41541177 -1.3667288 0.613841
O 0.072171435 -1.1384248 1.9843872
C -0.3765859 0.20237504 1.6519213
H 0.43665487 2.4025614 -1.2143742
H -1.1650946 2.4385266 -1.9895234
H -1.0192901 2.573047 -0.22509316
H -1.7577727 0.2807795 -0.9006746
H 0.55247957 0.32785806 -2.4748008
H 1.8915856 -0.62925684 -0.81825954
H 2.2176156 -0.05762382 0.8978602
H 0.21039174 -2.341105 0.18650052
H 0.12435214 0.9733387 2.2497625
H -1.4633057 0.28546676 1.7788703
