18
title
C 1.1620803 2.0308943 -0.022989232
C 1.1932044 0.5031257 -0.06689873
O 2.004205 -0.055507492 0.95922405
C -0.20106953 -0.07035864 -0.013844395
C -0.9593963 -0.5129598 1.2011248
C -0.76332754 -1.4705809 0.036704317
C -1.6376735 -1.0207728 -1.1256373
O -1.112908 0.3352035 -1.0469668
H 2.1754372 2.432432 -0.10759863
H 0.55153793 2.4243026 -0.8401634
H 0.72343457 2.3793824 0.9203031
H 1.659006 0.18247254 -1.0066165
H 1.7695723 0.38476008 1.7835253
H -0.35672337 -0.7582218 2.0692563
H -1.9373838 -0.088054724 1.4122677
H -0.2632553 -2.4237745 0.13704479
H -1.370098 -1.4790207 -2.0844054
H -2.725742 -1.051384 -0.99175656
