title
 OpenBabel02282110003D

 22 23  0  0  1  0  0  0  0  0999 V2000
   -0.7787    2.0672    0.9623 C   0  0  0  0  0  0  0  0  0  0  0  0
   -0.5936    0.5441    1.0735 C   0  0  0  0  0  0  0  0  0  0  0  0
   -1.9367   -0.1562    1.3165 C   0  0  0  0  0  0  0  0  0  0  0  0
    0.1565    0.0121   -0.1277 C   0  0  2  0  0  0  0  0  0  0  0  0
   -0.4728   -0.3893   -1.4355 C   0  0  0  0  0  0  0  0  0  0  0  0
    0.3374   -1.4096   -0.6774 C   0  0  1  0  0  0  0  0  0  0  0  0
    1.8306   -1.1640   -0.9087 C   0  0  0  0  0  0  0  0  0  0  0  0
    1.6513    0.2949   -0.3747 C   0  0  0  0  0  0  0  0  0  0  0  0
    0.1803    2.5775    0.8266 H   0  0  0  0  0  0  0  0  0  0  0  0
   -1.4147    2.3182    0.1059 H   0  0  0  0  0  0  0  0  0  0  0  0
   -1.2502    2.4735    1.8633 H   0  0  0  0  0  0  0  0  0  0  0  0
    0.0400    0.3517    1.9526 H   0  0  0  0  0  0  0  0  0  0  0  0
   -2.6540    0.0638    0.5183 H   0  0  0  0  0  0  0  0  0  0  0  0
   -1.8190   -1.2429    1.3770 H   0  0  0  0  0  0  0  0  0  0  0  0
   -2.3811    0.1848    2.2571 H   0  0  0  0  0  0  0  0  0  0  0  0
   -1.5457   -0.5495   -1.4175 H   0  0  0  0  0  0  0  0  0  0  0  0
   -0.1032    0.0152   -2.3766 H   0  0  0  0  0  0  0  0  0  0  0  0
   -0.1062   -2.3389   -0.3378 H   0  0  0  0  0  0  0  0  0  0  0  0
    2.4740   -1.7634   -0.2605 H   0  0  0  0  0  0  0  0  0  0  0  0
    2.1801   -1.2736   -1.9412 H   0  0  0  0  0  0  0  0  0  0  0  0
    1.8794    1.1085   -1.0716 H   0  0  0  0  0  0  0  0  0  0  0  0
    2.2074    0.4673    0.5512 H   0  0  0  0  0  0  0  0  0  0  0  0
  1  2  1  0  0  0  0
  1 11  1  0  0  0  0
  2  3  1  0  0  0  0
  2 12  1  0  0  0  0
  3 14  1  0  0  0  0
  3 15  1  0  0  0  0
  4  6  1  1  0  0  0
  4  2  1  0  0  0  0
  5 16  1  0  0  0  0
  5  6  1  0  0  0  0
  5  4  1  0  0  0  0
  6 18  1  1  0  0  0
  7  6  1  0  0  0  0
  7  8  1  0  0  0  0
  7 19  1  0  0  0  0
  8  4  1  0  0  0  0
  8 22  1  0  0  0  0
  9  1  1  0  0  0  0
 10  1  1  0  0  0  0
 13  3  1  0  0  0  0
 17  5  1  0  0  0  0
 20  7  1  0  0  0  0
 21  8  1  0  0  0  0
M  END
