22
title
C -0.7786969 2.0671995 0.9622559
C -0.5936308 0.54414624 1.0735434
C -1.9367396 -0.15621042 1.3165165
C 0.15654343 0.012117209 -0.12773094
C -0.47276515 -0.38929254 -1.4355428
C 0.33744144 -1.4096411 -0.67740923
C 1.830607 -1.1639526 -0.9086655
C 1.6513487 0.29487008 -0.37473044
H 0.18029523 2.577543 0.82655835
H -1.41471 2.3182411 0.10592762
H -1.2502348 2.4735198 1.8633492
H 0.039982557 0.35167578 1.9526296
H -2.653985 0.06382823 0.5183139
H -1.8189688 -1.2428981 1.3769515
H -2.3810909 0.18484592 2.2570662
H -1.5457095 -0.54950684 -1.4175417
H -0.10322648 0.015226724 -2.3766026
H -0.106163144 -2.3389122 -0.33781943
H 2.4739983 -1.7634339 -0.26051268
H 2.1801066 -1.2736427 -1.9411786
H 1.8793913 1.108493 -1.0716205
H 2.2073843 0.46725684 0.55115235
