title
 OpenBabel02282110003D

 18 19  0  0  1  0  0  0  0  0999 V2000
   -0.7876    2.1175   -1.4447 C   0  0  0  0  0  0  0  0  0  0  0  0
   -0.7697    0.6184   -1.2881 C   0  0  1  0  0  0  0  0  0  0  0  0
    0.4806   -0.0486   -1.5083 O   0  0  0  0  0  0  0  0  0  0  0  0
   -0.0881   -0.0816   -0.1911 C   0  0  1  0  0  0  0  0  0  0  0  0
    0.7021    0.6161    0.9256 C   0  0  0  0  0  0  0  0  0  0  0  0
    0.8522   -0.4666    1.9650 C   0  0  0  0  0  0  0  0  0  0  0  0
    0.1908   -1.5780    1.6449 C   0  0  0  0  0  0  0  0  0  0  0  0
   -0.5325   -1.4571    0.3278 C   0  0  0  0  0  0  0  0  0  0  0  0
    0.0736    2.5781   -0.9553 H   0  0  0  0  0  0  0  0  0  0  0  0
   -0.7644    2.3910   -2.5047 H   0  0  0  0  0  0  0  0  0  0  0  0
   -1.7023    2.5373   -1.0114 H   0  0  0  0  0  0  0  0  0  0  0  0
   -1.6200    0.1052   -1.7451 H   0  0  0  0  0  0  0  0  0  0  0  0
    1.6623    0.9788    0.5411 H   0  0  0  0  0  0  0  0  0  0  0  0
    0.1713    1.4913    1.3252 H   0  0  0  0  0  0  0  0  0  0  0  0
    1.4345   -0.3238    2.8684 H   0  0  0  0  0  0  0  0  0  0  0  0
    0.1525   -2.4780    2.2482 H   0  0  0  0  0  0  0  0  0  0  0  0
   -1.6223   -1.5169    0.4543 H   0  0  0  0  0  0  0  0  0  0  0  0
   -0.2556   -2.2363   -0.3922 H   0  0  0  0  0  0  0  0  0  0  0  0
  1  2  1  0  0  0  0
  1 11  1  0  0  0  0
  1  9  1  0  0  0  0
  2  4  1  1  0  0  0
  3  2  1  0  0  0  0
  4  3  1  6  0  0  0
  4  8  1  0  0  0  0
  4  5  1  0  0  0  0
  5 14  1  0  0  0  0
  5  6  1  0  0  0  0
  6 15  1  0  0  0  0
  7  6  2  0  0  0  0
  7 16  1  0  0  0  0
  8 17  1  0  0  0  0
  8  7  1  0  0  0  0
 10  1  1  0  0  0  0
 12  2  1  0  0  0  0
 13  5  1  0  0  0  0
 18  8  1  0  0  0  0
M  END
