15
title
O 1.4577097 1.8848519 0.34747803
C 1.4715083 0.4902236 0.31537995
C 0.94763154 -0.30916616 1.5006353
C 0.13710299 -0.17099552 0.24646555
C -1.1911972 0.5798655 0.113551
N -1.9613488 -0.22300242 -0.8542496
C -1.2196686 -1.2021939 -1.1582009
O 0.013288056 -1.3204825 -0.59813404
H 2.1432898 2.180382 0.95572245
H 2.2743604 0.034683604 -0.2638997
H 1.4149696 -1.2660381 1.7064582
H 0.60080963 0.24166334 2.3698378
H -1.7391264 0.6466419 1.0599422
H -1.0476317 1.598395 -0.25878277
H -1.4720743 -1.9990433 -1.8484905
