title
 OpenBabel02282110003D

 17 18  0  0  1  0  0  0  0  0999 V2000
   -0.8404    2.0579   -1.4021 C   0  0  0  0  0  0  0  0  0  0  0  0
   -0.7078    0.5524   -1.3725 C   0  0  1  0  0  0  0  0  0  0  0  0
    0.6042   -0.1209   -1.7056 C   0  0  0  0  0  0  0  0  0  0  0  0
    0.0824   -0.1478   -0.2925 C   0  0  1  0  0  0  0  0  0  0  0  0
    0.7634    0.5673    0.8826 C   0  0  0  0  0  0  0  0  0  0  0  0
    0.5608   -0.3452    1.9895 O   0  0  0  0  0  0  0  0  0  0  0  0
   -0.1180   -1.3973    1.4673 C   0  0  0  0  0  0  0  0  0  0  0  0
   -0.4283   -1.3977    0.2382 N   0  0  0  0  0  0  0  0  0  0  0  0
    0.0865    2.5539   -1.0934 H   0  0  0  0  0  0  0  0  0  0  0  0
   -1.0731    2.4077   -2.4136 H   0  0  0  0  0  0  0  0  0  0  0  0
   -1.6402    2.4055   -0.7385 H   0  0  0  0  0  0  0  0  0  0  0  0
   -1.5958    0.0079   -1.6804 H   0  0  0  0  0  0  0  0  0  0  0  0
    0.5858   -1.0539   -2.2570 H   0  0  0  0  0  0  0  0  0  0  0  0
    1.4623    0.5147   -1.9074 H   0  0  0  0  0  0  0  0  0  0  0  0
    1.8407    0.7089    0.7493 H   0  0  0  0  0  0  0  0  0  0  0  0
    0.3076    1.5276    1.1437 H   0  0  0  0  0  0  0  0  0  0  0  0
   -0.3478   -2.1813    2.1793 H   0  0  0  0  0  0  0  0  0  0  0  0
  1  2  1  0  0  0  0
  1  9  1  0  0  0  0
  1 11  1  0  0  0  0
  2  4  1  1  0  0  0
  3  2  1  0  0  0  0
  3  4  1  0  0  0  0
  4  8  1  1  0  0  0
  4  5  1  0  0  0  0
  5 16  1  0  0  0  0
  5  6  1  0  0  0  0
  7  6  1  0  0  0  0
  7 17  1  0  0  0  0
  8  7  2  0  0  0  0
 10  1  1  0  0  0  0
 12  2  1  0  0  0  0
 13  3  1  0  0  0  0
 14  3  1  0  0  0  0
 15  5  1  0  0  0  0
M  END
