title
 OpenBabel02282110003D

 20 21  0  0  1  0  0  0  0  0999 V2000
   -0.8068    2.1048   -1.4106 C   0  0  0  0  0  0  0  0  0  0  0  0
   -0.7300    0.5949   -1.3711 C   0  0  1  0  0  0  0  0  0  0  0  0
    0.5554   -0.1230   -1.6915 C   0  0  0  0  0  0  0  0  0  0  0  0
    0.0182   -0.1318   -0.2697 C   0  0  1  0  0  0  0  0  0  0  0  0
    0.7225    0.5978    0.8892 C   0  0  0  0  0  0  0  0  0  0  0  0
    0.8085   -0.4450    2.0414 C   0  0  0  0  0  0  0  0  0  0  0  0
   -0.0999   -1.5617    1.5819 C   0  0  0  0  0  0  0  0  0  0  0  0
   -0.5106   -1.3864    0.3266 C   0  0  0  0  0  0  0  0  0  0  0  0
    0.1323    2.5636   -1.0859 H   0  0  0  0  0  0  0  0  0  0  0  0
   -1.0117    2.4592   -2.4270 H   0  0  0  0  0  0  0  0  0  0  0  0
   -1.6032    2.4844   -0.7602 H   0  0  0  0  0  0  0  0  0  0  0  0
   -1.6374    0.0980   -1.7087 H   0  0  0  0  0  0  0  0  0  0  0  0
    0.5159   -1.0433   -2.2656 H   0  0  0  0  0  0  0  0  0  0  0  0
    1.4357    0.4841   -1.8839 H   0  0  0  0  0  0  0  0  0  0  0  0
    1.7067    0.9803    0.6068 H   0  0  0  0  0  0  0  0  0  0  0  0
    0.1262    1.4581    1.2115 H   0  0  0  0  0  0  0  0  0  0  0  0
    1.8339   -0.8121    2.1861 H   0  0  0  0  0  0  0  0  0  0  0  0
    0.5014   -0.0211    3.0047 H   0  0  0  0  0  0  0  0  0  0  0  0
   -0.3459   -2.4113    2.2090 H   0  0  0  0  0  0  0  0  0  0  0  0
   -1.1446   -2.0666   -0.2330 H   0  0  0  0  0  0  0  0  0  0  0  0
  1  2  1  0  0  0  0
  1  9  1  0  0  0  0
  1 11  1  0  0  0  0
  2  4  1  1  0  0  0
  3  2  1  0  0  0  0
  3  4  1  0  0  0  0
  4  8  1  1  0  0  0
  4  5  1  0  0  0  0
  5 16  1  0  0  0  0
  5  6  1  0  0  0  0
  6 17  1  0  0  0  0
  6 18  1  0  0  0  0
  7  6  1  0  0  0  0
  7 19  1  0  0  0  0
  8  7  2  0  0  0  0
 10  1  1  0  0  0  0
 12  2  1  0  0  0  0
 13  3  1  0  0  0  0
 14  3  1  0  0  0  0
 15  5  1  0  0  0  0
 20  8  1  0  0  0  0
M  END
