19
title
C -0.7948363 2.1130376 -1.4456795
C -0.7544455 0.60862327 -1.3267049
N 0.53414637 -0.047587242 -1.6078718
C -0.02844889 -0.09999653 -0.23520349
C 0.73913103 0.588557 0.903728
C 0.84455055 -0.47555217 2.0333195
C -0.04597832 -1.5992718 1.5573018
C -0.51646787 -1.3847564 0.32881036
H 0.1363027 2.5578196 -1.0864532
H -0.9286147 2.4143322 -2.4903247
H -1.6261798 2.5293326 -0.8659394
H -1.6500725 0.10639501 -1.6945735
H 0.3885898 -0.9380258 -2.0794156
H 1.7152234 0.93207717 0.55618536
H 0.18975715 1.466089 1.2586942
H 1.8743538 -0.82747227 2.1791086
H 0.52214307 -0.07861533 3.0030785
H -0.25056666 -2.4765968 2.160891
H -1.1623275 -2.0527909 -0.2322949
