title
 OpenBabel02282110003D

 17 18  0  0  1  0  0  0  0  0999 V2000
   -0.4777    2.0318   -1.6148 C   0  0  0  0  0  0  0  0  0  0  0  0
   -0.4853    0.5293   -1.4466 C   0  0  1  0  0  0  0  0  0  0  0  0
    0.7925   -0.2889   -1.5798 C   0  0  0  0  0  0  0  0  0  0  0  0
    0.1290   -0.1285   -0.2491 C   0  0  1  0  0  0  0  0  0  0  0  0
    0.7186    0.5674    0.9837 C   0  0  0  0  0  0  0  0  0  0  0  0
    0.3007   -0.2762    2.1187 N   0  0  0  0  0  0  0  0  0  0  0  0
   -0.3685   -1.2241    1.6101 C   0  0  0  0  0  0  0  0  0  0  0  0
   -0.5561   -1.2823    0.2705 O   0  0  0  0  0  0  0  0  0  0  0  0
    0.4428    2.4764   -1.2221 H   0  0  0  0  0  0  0  0  0  0  0  0
   -0.5475    2.3052   -2.6729 H   0  0  0  0  0  0  0  0  0  0  0  0
   -1.3206    2.4979   -1.0928 H   0  0  0  0  0  0  0  0  0  0  0  0
   -1.3779    0.0297   -1.8138 H   0  0  0  0  0  0  0  0  0  0  0  0
    0.7282   -1.2590   -2.0598 H   0  0  0  0  0  0  0  0  0  0  0  0
    1.7281    0.2399   -1.7399 H   0  0  0  0  0  0  0  0  0  0  0  0
    1.8122    0.6306    0.9507 H   0  0  0  0  0  0  0  0  0  0  0  0
    0.3366    1.5859    1.1188 H   0  0  0  0  0  0  0  0  0  0  0  0
   -0.8313   -2.0351    2.1613 H   0  0  0  0  0  0  0  0  0  0  0  0
  1  2  1  0  0  0  0
  1  9  1  0  0  0  0
  1 11  1  0  0  0  0
  2  4  1  1  0  0  0
  3  2  1  0  0  0  0
  3  4  1  0  0  0  0
  4  8  1  1  0  0  0
  4  5  1  0  0  0  0
  5 16  1  0  0  0  0
  5  6  1  0  0  0  0
  7  6  2  0  0  0  0
  7 17  1  0  0  0  0
  8  7  1  0  0  0  0
 10  1  1  0  0  0  0
 12  2  1  0  0  0  0
 13  3  1  0  0  0  0
 14  3  1  0  0  0  0
 15  5  1  0  0  0  0
M  END
