title
 OpenBabel02282110003D

 18 19  0  0  1  0  0  0  0  0999 V2000
   -0.7677    2.1156   -1.1998 C   0  0  0  0  0  0  0  0  0  0  0  0
   -0.7706    0.6071   -1.2996 C   0  0  1  0  0  0  0  0  0  0  0  0
    0.4761   -0.1384   -1.7416 C   0  0  0  0  0  0  0  0  0  0  0  0
    0.0172   -0.2224   -0.3073 C   0  0  1  0  0  0  0  0  0  0  0  0
    0.7911    0.4539    0.6668 O   0  0  0  0  0  0  0  0  0  0  0  0
    0.7328   -0.2608    1.9021 C   0  0  0  0  0  0  0  0  0  0  0  0
   -0.1009   -1.4789    1.6108 C   0  0  0  0  0  0  0  0  0  0  0  0
   -0.5007   -1.4442    0.3429 C   0  0  0  0  0  0  0  0  0  0  0  0
    0.1758    2.4746   -0.7816 H   0  0  0  0  0  0  0  0  0  0  0  0
   -0.9081    2.5761   -2.1839 H   0  0  0  0  0  0  0  0  0  0  0  0
   -1.5730    2.4680   -0.5461 H   0  0  0  0  0  0  0  0  0  0  0  0
   -1.7152    0.1712   -1.6176 H   0  0  0  0  0  0  0  0  0  0  0  0
    0.3804   -1.0115   -2.3790 H   0  0  0  0  0  0  0  0  0  0  0  0
    1.3688    0.4549   -1.9127 H   0  0  0  0  0  0  0  0  0  0  0  0
    1.7540   -0.5109    2.2292 H   0  0  0  0  0  0  0  0  0  0  0  0
    0.2891    0.3765    2.6839 H   0  0  0  0  0  0  0  0  0  0  0  0
   -0.3230   -2.2391    2.3480 H   0  0  0  0  0  0  0  0  0  0  0  0
   -1.1164   -2.1694   -0.1728 H   0  0  0  0  0  0  0  0  0  0  0  0
  1  9  1  0  0  0  0
  1 11  1  0  0  0  0
  2  1  1  0  0  0  0
  2  4  1  1  0  0  0
  3  2  1  0  0  0  0
  3  4  1  0  0  0  0
  4  8  1  1  0  0  0
  4  5  1  0  0  0  0
  5  6  1  0  0  0  0
  6 15  1  0  0  0  0
  6 16  1  0  0  0  0
  7  6  1  0  0  0  0
  7 17  1  0  0  0  0
  8  7  2  0  0  0  0
 10  1  1  0  0  0  0
 12  2  1  0  0  0  0
 13  3  1  0  0  0  0
 14  3  1  0  0  0  0
 18  8  1  0  0  0  0
M  END
