title
 OpenBabel02282110003D

 18 19  0  0  1  0  0  0  0  0999 V2000
    1.2780    2.0056   -0.1517 O   0  0  0  0  0  0  0  0  0  0  0  0
    1.4608    0.6239   -0.0427 C   0  0  1  0  0  0  0  0  0  0  0  0
    1.3178   -0.0463    1.2979 C   0  0  0  0  0  0  0  0  0  0  0  0
    0.2276   -0.2008    0.2507 C   0  0  1  0  0  0  0  0  0  0  0  0
   -1.1517    0.4569    0.4120 C   0  0  0  0  0  0  0  0  0  0  0  0
   -2.1045   -0.3699   -0.4985 C   0  0  0  0  0  0  0  0  0  0  0  0
   -1.2862   -1.5850   -0.8688 C   0  0  0  0  0  0  0  0  0  0  0  0
   -0.0210   -1.4810   -0.4632 C   0  0  0  0  0  0  0  0  0  0  0  0
    2.0169    2.4400    0.2871 H   0  0  0  0  0  0  0  0  0  0  0  0
    2.1836    0.2056   -0.7444 H   0  0  0  0  0  0  0  0  0  0  0  0
    1.9504   -0.8980    1.5285 H   0  0  0  0  0  0  0  0  0  0  0  0
    1.0897    0.5963    2.1433 H   0  0  0  0  0  0  0  0  0  0  0  0
   -1.4772    0.3912    1.4551 H   0  0  0  0  0  0  0  0  0  0  0  0
   -1.1221    1.5148    0.1459 H   0  0  0  0  0  0  0  0  0  0  0  0
   -3.0385   -0.6334    0.0115 H   0  0  0  0  0  0  0  0  0  0  0  0
   -2.3979    0.1884   -1.3979 H   0  0  0  0  0  0  0  0  0  0  0  0
   -1.6957   -2.4183   -1.4290 H   0  0  0  0  0  0  0  0  0  0  0  0
    0.7617   -2.2125   -0.6348 H   0  0  0  0  0  0  0  0  0  0  0  0
  1  2  1  0  0  0  0
  1  9  1  0  0  0  0
  2  4  1  6  0  0  0
  2  3  1  0  0  0  0
  3 11  1  0  0  0  0
  3 12  1  0  0  0  0
  4  8  1  6  0  0  0
  4  5  1  0  0  0  0
  4  3  1  0  0  0  0
  5 13  1  0  0  0  0
  6 15  1  0  0  0  0
  6  5  1  0  0  0  0
  7  6  1  0  0  0  0
  7  8  2  0  0  0  0
 10  2  1  0  0  0  0
 14  5  1  0  0  0  0
 16  6  1  0  0  0  0
 17  7  1  0  0  0  0
 18  8  1  0  0  0  0
M  END
