title
 OpenBabel02282110003D

 16 17  0  0  1  0  0  0  0  0999 V2000
    1.3016    1.9613   -0.0424 O   0  0  0  0  0  0  0  0  0  0  0  0
    1.4959    0.5845   -0.0140 C   0  0  1  0  0  0  0  0  0  0  0  0
    1.2982   -0.1837    1.2790 C   0  0  0  0  0  0  0  0  0  0  0  0
    0.2687   -0.2802    0.1753 C   0  0  1  0  0  0  0  0  0  0  0  0
   -0.9308    0.4602    0.3565 O   0  0  0  0  0  0  0  0  0  0  0  0
   -2.0017   -0.1993   -0.3327 C   0  0  0  0  0  0  0  0  0  0  0  0
   -1.3838   -1.4449   -0.9071 C   0  0  0  0  0  0  0  0  0  0  0  0
   -0.0884   -1.4788   -0.6053 C   0  0  0  0  0  0  0  0  0  0  0  0
    0.3436    2.0956   -0.0068 H   0  0  0  0  0  0  0  0  0  0  0  0
    2.2740    0.2544   -0.6976 H   0  0  0  0  0  0  0  0  0  0  0  0
    1.9225   -1.0481    1.4824 H   0  0  0  0  0  0  0  0  0  0  0  0
    1.0087    0.3990    2.1472 H   0  0  0  0  0  0  0  0  0  0  0  0
   -2.8123   -0.4106    0.3802 H   0  0  0  0  0  0  0  0  0  0  0  0
   -2.4116    0.4661   -1.1077 H   0  0  0  0  0  0  0  0  0  0  0  0
   -1.9418   -2.1730   -1.4807 H   0  0  0  0  0  0  0  0  0  0  0  0
    0.6298   -2.2409   -0.8766 H   0  0  0  0  0  0  0  0  0  0  0  0
  1  2  1  0  0  0  0
  1  9  1  0  0  0  0
  2  4  1  6  0  0  0
  2  3  1  0  0  0  0
  3 11  1  0  0  0  0
  3 12  1  0  0  0  0
  4  8  1  6  0  0  0
  4  5  1  0  0  0  0
  4  3  1  0  0  0  0
  6  5  1  0  0  0  0
  6 13  1  0  0  0  0
  7  8  2  0  0  0  0
  7  6  1  0  0  0  0
 10  2  1  0  0  0  0
 14  6  1  0  0  0  0
 15  7  1  0  0  0  0
 16  8  1  0  0  0  0
M  END
