title
 OpenBabel02282110003D

 18 19  0  0  1  0  0  0  0  0999 V2000
   -0.5156    2.0301   -1.7302 C   0  0  0  0  0  0  0  0  0  0  0  0
   -0.5397    0.5348   -1.5041 C   0  0  1  0  0  0  0  0  0  0  0  0
    0.7360   -0.2964   -1.5702 C   0  0  0  0  0  0  0  0  0  0  0  0
    0.0145   -0.0828   -0.2651 C   0  0  1  0  0  0  0  0  0  0  0  0
    0.6287    0.6620    0.9258 C   0  0  0  0  0  0  0  0  0  0  0  0
    0.3766   -0.1954    2.0367 O   0  0  0  0  0  0  0  0  0  0  0  0
   -0.0123   -1.4385    1.4968 C   0  0  0  0  0  0  0  0  0  0  0  0
   -0.7013   -1.1575    0.3034 O   0  0  0  0  0  0  0  0  0  0  0  0
    0.3969    2.4843   -1.3294 H   0  0  0  0  0  0  0  0  0  0  0  0
   -0.5534    2.2626   -2.7997 H   0  0  0  0  0  0  0  0  0  0  0  0
   -1.3694    2.5213   -1.2508 H   0  0  0  0  0  0  0  0  0  0  0  0
   -1.4249    0.0296   -1.8821 H   0  0  0  0  0  0  0  0  0  0  0  0
    0.6757   -1.2812   -2.0197 H   0  0  0  0  0  0  0  0  0  0  0  0
    1.6767    0.2250   -1.7261 H   0  0  0  0  0  0  0  0  0  0  0  0
    1.7065    0.8249    0.7924 H   0  0  0  0  0  0  0  0  0  0  0  0
    0.1493    1.6266    1.1244 H   0  0  0  0  0  0  0  0  0  0  0  0
    0.8727   -2.0701    1.2956 H   0  0  0  0  0  0  0  0  0  0  0  0
   -0.6887   -1.9402    2.1939 H   0  0  0  0  0  0  0  0  0  0  0  0
  1  2  1  0  0  0  0
  1  9  1  0  0  0  0
  1 11  1  0  0  0  0
  2  4  1  1  0  0  0
  3  2  1  0  0  0  0
  3  4  1  0  0  0  0
  4  8  1  1  0  0  0
  4  5  1  0  0  0  0
  5 16  1  0  0  0  0
  5  6  1  0  0  0  0
  7  6  1  0  0  0  0
  7 18  1  0  0  0  0
  8  7  1  0  0  0  0
 10  1  1  0  0  0  0
 12  2  1  0  0  0  0
 13  3  1  0  0  0  0
 14  3  1  0  0  0  0
 15  5  1  0  0  0  0
 17  7  1  0  0  0  0
M  END
