title
 OpenBabel02282110003D

 20 21  0  0  1  0  0  0  0  0999 V2000
   -0.6560    2.0534   -1.6477 C   0  0  0  0  0  0  0  0  0  0  0  0
   -0.5391    0.5522   -1.5053 C   0  0  1  0  0  0  0  0  0  0  0  0
    0.7962   -0.1418   -1.6460 C   0  0  0  0  0  0  0  0  0  0  0  0
    0.1032   -0.1029   -0.3070 C   0  0  1  0  0  0  0  0  0  0  0  0
    0.6804    0.6635    0.8899 C   0  0  0  0  0  0  0  0  0  0  0  0
    0.1583   -0.1518    2.0868 C   0  0  0  0  0  0  0  0  0  0  0  0
    0.0203   -1.4808    1.6066 O   0  0  0  0  0  0  0  0  0  0  0  0
   -0.5150   -1.3709    0.2976 C   0  0  0  0  0  0  0  0  0  0  0  0
    0.2404    2.5637   -1.2813 H   0  0  0  0  0  0  0  0  0  0  0  0
   -0.7867    2.3357   -2.6982 H   0  0  0  0  0  0  0  0  0  0  0  0
   -1.5138    2.4467   -1.0898 H   0  0  0  0  0  0  0  0  0  0  0  0
   -1.3890    0.0064   -1.9132 H   0  0  0  0  0  0  0  0  0  0  0  0
    0.8432   -1.0873   -2.1782 H   0  0  0  0  0  0  0  0  0  0  0  0
    1.6746    0.4849   -1.7761 H   0  0  0  0  0  0  0  0  0  0  0  0
    1.7747    0.6516    0.8685 H   0  0  0  0  0  0  0  0  0  0  0  0
    0.3575    1.7071    0.9344 H   0  0  0  0  0  0  0  0  0  0  0  0
    0.8380   -0.1708    2.9422 H   0  0  0  0  0  0  0  0  0  0  0  0
   -0.8158    0.2395    2.4260 H   0  0  0  0  0  0  0  0  0  0  0  0
   -1.6149   -1.2830    0.3384 H   0  0  0  0  0  0  0  0  0  0  0  0
   -0.2640   -2.2856   -0.2478 H   0  0  0  0  0  0  0  0  0  0  0  0
  1  2  1  0  0  0  0
  1  9  1  0  0  0  0
  1 11  1  0  0  0  0
  2  4  1  1  0  0  0
  3  2  1  0  0  0  0
  4  3  1  6  0  0  0
  4  8  1  0  0  0  0
  4  5  1  0  0  0  0
  5 16  1  0  0  0  0
  5  6  1  0  0  0  0
  6 18  1  0  0  0  0
  6 17  1  0  0  0  0
  7  6  1  0  0  0  0
  8 19  1  0  0  0  0
  8  7  1  0  0  0  0
 10  1  1  0  0  0  0
 12  2  1  0  0  0  0
 13  3  1  0  0  0  0
 14  3  1  0  0  0  0
 15  5  1  0  0  0  0
 20  8  1  0  0  0  0
M  END
