title
 OpenBabel02282110003D

 22 23  0  0  1  0  0  0  0  0999 V2000
   -0.5466    2.0092   -1.7273 C   0  0  0  0  0  0  0  0  0  0  0  0
   -0.4871    0.5103   -1.5332 C   0  0  1  0  0  0  0  0  0  0  0  0
    0.8313   -0.2251   -1.5720 C   0  0  0  0  0  0  0  0  0  0  0  0
    0.0577   -0.1270   -0.2761 C   0  0  0  0  0  0  0  0  0  0  0  0
    0.6136    0.6873    0.9093 C   0  0  0  0  0  0  0  0  0  0  0  0
    0.1583   -0.0784    2.1724 C   0  0  0  0  0  0  0  0  0  0  0  0
    0.0103   -1.5331    1.6972 C   0  0  0  0  0  0  0  0  0  0  0  0
   -0.6224   -1.3737    0.3053 C   0  0  0  0  0  0  0  0  0  0  0  0
    0.3388    2.5052   -1.3171 H   0  0  0  0  0  0  0  0  0  0  0  0
   -0.5995    2.2629   -2.7920 H   0  0  0  0  0  0  0  0  0  0  0  0
   -1.4261    2.4457   -1.2394 H   0  0  0  0  0  0  0  0  0  0  0  0
   -1.3267   -0.0212   -1.9784 H   0  0  0  0  0  0  0  0  0  0  0  0
    0.8820   -1.1858   -2.0760 H   0  0  0  0  0  0  0  0  0  0  0  0
    1.7339    0.3733   -1.6659 H   0  0  0  0  0  0  0  0  0  0  0  0
    1.7080    0.7264    0.8649 H   0  0  0  0  0  0  0  0  0  0  0  0
    0.2615    1.7232    0.9156 H   0  0  0  0  0  0  0  0  0  0  0  0
    0.8520    0.0375    3.0100 H   0  0  0  0  0  0  0  0  0  0  0  0
   -0.8171    0.2959    2.5063 H   0  0  0  0  0  0  0  0  0  0  0  0
    0.9991   -2.0002    1.6081 H   0  0  0  0  0  0  0  0  0  0  0  0
   -0.5858   -2.1516    2.3745 H   0  0  0  0  0  0  0  0  0  0  0  0
   -1.7018   -1.1999    0.4122 H   0  0  0  0  0  0  0  0  0  0  0  0
   -0.5004   -2.2560   -0.3305 H   0  0  0  0  0  0  0  0  0  0  0  0
  1  2  1  0  0  0  0
  1  9  1  0  0  0  0
  1 11  1  0  0  0  0
  2 12  1  6  0  0  0
  2  4  1  0  0  0  0
  3  2  1  0  0  0  0
  3  4  1  0  0  0  0
  4  8  1  0  0  0  0
  4  5  1  0  0  0  0
  5 16  1  0  0  0  0
  5  6  1  0  0  0  0
  6 18  1  0  0  0  0
  6 17  1  0  0  0  0
  7  6  1  0  0  0  0
  7 20  1  0  0  0  0
  8 21  1  0  0  0  0
  8  7  1  0  0  0  0
 10  1  1  0  0  0  0
 13  3  1  0  0  0  0
 14  3  1  0  0  0  0
 15  5  1  0  0  0  0
 19  7  1  0  0  0  0
 22  8  1  0  0  0  0
M  END
