20
title
C -0.65595996 2.0533538 -1.6477423
C -0.5391307 0.5522389 -1.5052747
C 0.79623467 -0.14179158 -1.6459572
C 0.10317906 -0.10287118 -0.30698115
C 0.6804462 0.663487 0.88992256
C 0.15825436 -0.1517582 2.0867572
O 0.020310782 -1.4808264 1.6066264
C -0.5150372 -1.3708768 0.29763335
H 0.240374 2.5636888 -1.2813313
H -0.7866806 2.3357399 -2.6981633
H -1.5137644 2.4466536 -1.0898421
H -1.3889773 0.006417156 -1.9131796
H 0.8431924 -1.0873183 -2.1781566
H 1.6745527 0.4849251 -1.7761381
H 1.7746515 0.65160674 0.86847776
H 0.35751322 1.70714 0.9344136
H 0.8379882 -0.17078173 2.9421809
H -0.8158129 0.23951119 2.4259515
H -1.6149286 -1.2830026 0.3384475
H -0.26395866 -2.2856116 -0.24782284
