18
title
C -0.80827546 2.1270173 -1.3856709
C -0.797231 0.62461364 -1.2658015
O 0.42267442 -0.048837114 -1.5924649
C -0.044299353 -0.10449826 -0.22778028
C 0.81158125 0.55012167 0.866339
C 0.8084713 -0.45514518 2.0515304
C 0.0043640244 -1.6255924 1.538288
C -0.45758167 -1.4287418 0.30447322
H 0.09660763 2.566675 -0.95991445
H -0.86736083 2.4241846 -2.4381473
H -1.6790898 2.5471678 -0.87017363
H -1.6869897 0.13323332 -1.6688608
H 1.8191215 0.71735495 0.47763032
H 0.4144609 1.523845 1.1649982
H 1.8201123 -0.75938493 2.346393
H 0.35025275 -0.023152938 2.9499042
H -0.16680805 -2.514717 2.1352458
H -1.0540816 -2.119692 -0.27932316
