title
 OpenBabel02282110003D

 17 18  0  0  1  0  0  0  0  0999 V2000
   -0.6241    2.0626   -0.1672 C   0  0  0  0  0  0  0  0  0  0  0  0
   -0.5212    0.5449   -0.1389 C   0  0  1  0  0  0  0  0  0  0  0  0
   -1.7636   -0.0421   -0.4148 O   0  0  0  0  0  0  0  0  0  0  0  0
    0.7815   -0.0728   -0.8298 C   0  0  1  0  0  0  0  0  0  0  0  0
    1.4889    0.4018    0.4089 N   0  0  0  0  0  0  0  0  0  0  0  0
    0.2407   -0.0851    1.0913 C   0  0  2  0  0  0  0  0  0  0  0  0
    0.1965   -1.5791    0.7238 C   0  0  0  0  0  0  0  0  0  0  0  0
    0.5611   -1.5682   -0.5622 C   0  0  0  0  0  0  0  0  0  0  0  0
    0.3303    2.5277    0.0745 H   0  0  0  0  0  0  0  0  0  0  0  0
   -0.9317    2.4021   -1.1656 H   0  0  0  0  0  0  0  0  0  0  0  0
   -1.3821    2.3997    0.5487 H   0  0  0  0  0  0  0  0  0  0  0  0
   -2.2606    0.5606   -0.9757 H   0  0  0  0  0  0  0  0  0  0  0  0
    1.1621    0.2592   -1.7970 H   0  0  0  0  0  0  0  0  0  0  0  0
    2.2758   -0.2099    0.6268 H   0  0  0  0  0  0  0  0  0  0  0  0
    0.0590    0.2267    2.1207 H   0  0  0  0  0  0  0  0  0  0  0  0
   -0.1281   -2.3938    1.3544 H   0  0  0  0  0  0  0  0  0  0  0  0
    0.6161   -2.3736   -1.2801 H   0  0  0  0  0  0  0  0  0  0  0  0
  1  2  1  0  0  0  0
  1  9  1  0  0  0  0
  1 11  1  0  0  0  0
  2  3  1  6  0  0  0
  4  8  1  0  0  0  0
  4  2  1  1  0  0  0
  4  5  1  0  0  0  0
  5 14  1  0  0  0  0
  5  6  1  0  0  0  0
  6  2  1  6  0  0  0
  6 15  1  0  0  0  0
  7  6  1  0  0  0  0
  7 16  1  0  0  0  0
  8  7  2  0  0  0  0
 10  1  1  0  0  0  0
 12  3  1  0  0  0  0
 13  4  1  0  0  0  0
 17  8  1  0  0  0  0
M  END
