16
title
O 1.5611323 1.8092394 -0.1232057
C 1.5171025 0.4355643 0.123089775
C 1.1140442 -0.07114049 1.5007379
C 0.15981199 -0.16343357 0.35393575
C -1.1250985 0.651964 0.19790795
O -1.964047 -0.19212516 -0.5921045
C -1.1312311 -1.1914481 -1.1287079
O -0.12768088 -1.4368714 -0.16728678
H 2.3055112 2.1804326 0.36222842
H 2.2283514 -0.1723078 -0.43525898
H 1.5660032 -0.991386 1.854585
H 0.9010529 0.6700679 2.2648811
H -1.6306956 0.8397698 1.1503279
H -0.9303744 1.6076847 -0.3016098
H -1.7106411 -2.105522 -1.2823472
H -0.6780484 -0.85617644 -2.0794826
