18
title
C -0.60650057 2.062778 -0.12745334
C -0.5856783 0.5332054 -0.1411388
C -1.9660696 -0.006879835 -0.49638593
C 0.71814805 -0.061205417 -0.82000643
O 1.4566066 0.36054087 0.37193424
C 0.24368207 -0.084420115 1.0609539
C 0.25235575 -1.5852438 0.7328341
C 0.57897407 -1.5692784 -0.5619073
H 0.3724025 2.4713936 0.12341982
H -0.9088124 2.4504497 -1.1072026
H -1.3379141 2.4292073 0.6021787
H -2.2760224 0.36385176 -1.4802164
H -2.0011804 -1.096615 -0.5160107
H -2.7091491 0.3472489 0.22736707
H 1.1268643 0.30444136 -1.7623128
H 0.1545 0.256899 2.0925682
H 0.025884679 -2.4048913 1.3984299
H 0.7000802 -2.371927 -1.2740996
