18
title
C -0.6333428 2.0755482 -0.06083706
C -0.50520647 0.55856633 -0.07060112
O -1.8053304 0.09524739 -0.2905693
C 0.6824024 -0.070638955 -0.93376607
C 1.6146466 0.29910347 0.26753733
C 0.35335568 -0.11147523 1.0979058
C 0.24838232 -1.583552 0.6880686
C 0.4628115 -1.5569485 -0.6359528
H 0.3099303 2.5949264 0.10410857
H -1.051152 2.4069147 -1.0164349
H -1.3359609 2.3714287 0.72420937
H -1.7563208 -0.87015575 -0.3023252
H 0.8857235 0.23747817 -1.9594157
H 2.494794 -0.33254075 0.39739484
H 1.889645 1.3524408 0.33321851
H 0.22073458 0.15494338 2.1465535
H 0.035989862 -2.4206696 1.338239
H 0.47173408 -2.366611 -1.3521678
