17
title
C -0.6241268 2.062633 -0.16715698
C -0.5211716 0.5448744 -0.13885474
O -1.7635715 -0.042070977 -0.4147667
C 0.7815211 -0.072777025 -0.82984674
N 1.4888784 0.40180707 0.40889344
C 0.24071607 -0.08513921 1.09128
C 0.19652572 -1.5791248 0.7237705
C 0.56110716 -1.5682381 -0.5621522
H 0.33028492 2.5277202 0.07445602
H -0.9317212 2.4020813 -1.1655908
H -1.3820558 2.3997111 0.54870623
H -2.2605507 0.56056577 -0.97573555
H 1.1620681 0.25917047 -1.7970341
H 2.275795 -0.20986545 0.62683696
H 0.05902359 0.22671297 2.1207232
H -0.1280733 -2.3937635 1.3544254
H 0.61612344 -2.3736017 -1.2801231
