18
title
O 1.3700725 1.9568703 0.13287449
C 1.4701746 0.56483024 0.20157167
C 1.1759545 -0.14690135 1.5010738
C 0.1927497 -0.21177326 0.35679376
C -1.1525679 0.4984334 0.36979237
C -1.7557395 -0.013119152 -0.9415118
O -1.324672 -1.3667668 -1.0522112
C -0.042544287 -1.4947305 -0.44413406
H 2.0936086 2.3349345 0.6431101
H 2.2341795 0.13089572 -0.4460551
H 1.7500684 -1.034733 1.7500896
H 0.9062638 0.4736765 2.3503978
H -1.7592771 0.17057367 1.2212722
H -1.0471547 1.5838217 0.4057397
H -2.8491535 -0.009582451 -0.9603531
H -1.3917148 0.58382994 -1.7930497
H 0.7356648 -1.6408415 -1.2090149
H -0.05884854 -2.387319 0.19456771
