title
 OpenBabel02282110003D

 18 19  0  0  1  0  0  0  0  0999 V2000
   -0.6333    2.0755   -0.0608 C   0  0  0  0  0  0  0  0  0  0  0  0
   -0.5052    0.5586   -0.0706 C   0  0  1  0  0  0  0  0  0  0  0  0
   -1.8053    0.0952   -0.2906 O   0  0  0  0  0  0  0  0  0  0  0  0
    0.6824   -0.0706   -0.9338 C   0  0  1  0  0  0  0  0  0  0  0  0
    1.6146    0.2991    0.2675 C   0  0  0  0  0  0  0  0  0  0  0  0
    0.3534   -0.1115    1.0979 C   0  0  2  0  0  0  0  0  0  0  0  0
    0.2484   -1.5836    0.6881 C   0  0  0  0  0  0  0  0  0  0  0  0
    0.4628   -1.5569   -0.6360 C   0  0  0  0  0  0  0  0  0  0  0  0
    0.3099    2.5949    0.1041 H   0  0  0  0  0  0  0  0  0  0  0  0
   -1.0512    2.4069   -1.0164 H   0  0  0  0  0  0  0  0  0  0  0  0
   -1.3360    2.3714    0.7242 H   0  0  0  0  0  0  0  0  0  0  0  0
   -1.7563   -0.8702   -0.3023 H   0  0  0  0  0  0  0  0  0  0  0  0
    0.8857    0.2375   -1.9594 H   0  0  0  0  0  0  0  0  0  0  0  0
    2.4948   -0.3325    0.3974 H   0  0  0  0  0  0  0  0  0  0  0  0
    1.8896    1.3524    0.3332 H   0  0  0  0  0  0  0  0  0  0  0  0
    0.2207    0.1549    2.1466 H   0  0  0  0  0  0  0  0  0  0  0  0
    0.0360   -2.4207    1.3382 H   0  0  0  0  0  0  0  0  0  0  0  0
    0.4717   -2.3666   -1.3522 H   0  0  0  0  0  0  0  0  0  0  0  0
  1  9  1  0  0  0  0
  1 11  1  0  0  0  0
  2  3  1  6  0  0  0
  2  1  1  0  0  0  0
  4  8  1  0  0  0  0
  4  2  1  1  0  0  0
  4  5  1  0  0  0  0
  5 15  1  0  0  0  0
  5 14  1  0  0  0  0
  5  6  1  0  0  0  0
  6  2  1  6  0  0  0
  6 16  1  0  0  0  0
  7  6  1  0  0  0  0
  7 17  1  0  0  0  0
  8  7  2  0  0  0  0
 10  1  1  0  0  0  0
 12  3  1  0  0  0  0
 13  4  1  0  0  0  0
 18  8  1  0  0  0  0
M  END
