title
 OpenBabel02282110003D

 18 19  0  0  1  0  0  0  0  0999 V2000
    1.3701    1.9569    0.1329 O   0  0  0  0  0  0  0  0  0  0  0  0
    1.4702    0.5648    0.2016 C   0  0  1  0  0  0  0  0  0  0  0  0
    1.1760   -0.1469    1.5011 C   0  0  0  0  0  0  0  0  0  0  0  0
    0.1927   -0.2118    0.3568 C   0  0  1  0  0  0  0  0  0  0  0  0
   -1.1526    0.4984    0.3698 C   0  0  0  0  0  0  0  0  0  0  0  0
   -1.7557   -0.0131   -0.9415 C   0  0  0  0  0  0  0  0  0  0  0  0
   -1.3247   -1.3668   -1.0522 O   0  0  0  0  0  0  0  0  0  0  0  0
   -0.0425   -1.4947   -0.4441 C   0  0  0  0  0  0  0  0  0  0  0  0
    2.0936    2.3349    0.6431 H   0  0  0  0  0  0  0  0  0  0  0  0
    2.2342    0.1309   -0.4461 H   0  0  0  0  0  0  0  0  0  0  0  0
    1.7501   -1.0347    1.7501 H   0  0  0  0  0  0  0  0  0  0  0  0
    0.9063    0.4737    2.3504 H   0  0  0  0  0  0  0  0  0  0  0  0
   -1.7593    0.1706    1.2213 H   0  0  0  0  0  0  0  0  0  0  0  0
   -1.0472    1.5838    0.4057 H   0  0  0  0  0  0  0  0  0  0  0  0
   -2.8492   -0.0096   -0.9604 H   0  0  0  0  0  0  0  0  0  0  0  0
   -1.3917    0.5838   -1.7930 H   0  0  0  0  0  0  0  0  0  0  0  0
    0.7357   -1.6408   -1.2090 H   0  0  0  0  0  0  0  0  0  0  0  0
   -0.0588   -2.3873    0.1946 H   0  0  0  0  0  0  0  0  0  0  0  0
  1  2  1  0  0  0  0
  1  9  1  0  0  0  0
  2  4  1  6  0  0  0
  2  3  1  0  0  0  0
  3 11  1  0  0  0  0
  3 12  1  0  0  0  0
  4  8  1  6  0  0  0
  4  5  1  0  0  0  0
  4  3  1  0  0  0  0
  5 14  1  0  0  0  0
  5 13  1  0  0  0  0
  6  5  1  0  0  0  0
  7  6  1  0  0  0  0
  7  8  1  0  0  0  0
  8 18  1  0  0  0  0
 10  2  1  0  0  0  0
 15  6  1  0  0  0  0
 16  6  1  0  0  0  0
 17  8  1  0  0  0  0
M  END
