title
 OpenBabel02282110003D

 20 21  0  0  1  0  0  0  0  0999 V2000
   -0.6595    2.1171    0.0839 C   0  0  0  0  0  0  0  0  0  0  0  0
   -0.5528    0.5890    0.0929 C   0  0  0  0  0  0  0  0  0  0  0  0
   -1.9279   -0.0000    0.4125 C   0  0  0  0  0  0  0  0  0  0  0  0
    0.2772   -0.0195   -1.1122 C   0  0  1  0  0  0  0  0  0  0  0  0
    1.5694    0.3765   -0.3267 C   0  0  0  0  0  0  0  0  0  0  0  0
    0.6674   -0.0242    0.8608 C   0  0  2  0  0  0  0  0  0  0  0  0
    0.5043   -1.4425    0.6620 O   0  0  0  0  0  0  0  0  0  0  0  0
    0.2411   -1.5104   -0.7626 C   0  0  0  0  0  0  0  0  0  0  0  0
    0.2543    2.6321   -0.2159 H   0  0  0  0  0  0  0  0  0  0  0  0
   -1.4506    2.4299   -0.6075 H   0  0  0  0  0  0  0  0  0  0  0  0
   -0.9378    2.4856    1.0779 H   0  0  0  0  0  0  0  0  0  0  0  0
   -2.6106    0.1168   -0.4375 H   0  0  0  0  0  0  0  0  0  0  0  0
   -1.8719   -1.0572    0.6738 H   0  0  0  0  0  0  0  0  0  0  0  0
   -2.3772    0.5264    1.2621 H   0  0  0  0  0  0  0  0  0  0  0  0
    0.0992    0.2663   -2.1494 H   0  0  0  0  0  0  0  0  0  0  0  0
    2.4580   -0.2400   -0.4800 H   0  0  0  0  0  0  0  0  0  0  0  0
    1.8276    1.4310   -0.3798 H   0  0  0  0  0  0  0  0  0  0  0  0
    0.8928    0.1719    1.9090 H   0  0  0  0  0  0  0  0  0  0  0  0
   -0.7254   -1.9915   -0.9455 H   0  0  0  0  0  0  0  0  0  0  0  0
    1.0256   -2.0907   -1.2624 H   0  0  0  0  0  0  0  0  0  0  0  0
  1  2  1  0  0  0  0
  1 11  1  0  0  0  0
  2  3  1  0  0  0  0
  2  6  1  0  0  0  0
  3 13  1  0  0  0  0
  3 14  1  0  0  0  0
  4 15  1  6  0  0  0
  4  8  1  0  0  0  0
  4  5  1  0  0  0  0
  4  2  1  0  0  0  0
  5  6  1  0  0  0  0
  6 18  1  1  0  0  0
  7  6  1  0  0  0  0
  8  7  1  0  0  0  0
  9  1  1  0  0  0  0
 10  1  1  0  0  0  0
 12  3  1  0  0  0  0
 16  5  1  0  0  0  0
 17  5  1  0  0  0  0
 19  8  1  0  0  0  0
 20  8  1  0  0  0  0
M  END
