22
title
C -0.61767435 2.1088693 -0.054849453
C -0.54098016 0.5756589 -0.059690226
C -1.9692339 0.0511821 -0.23605922
C 0.607838 -0.017930383 -0.9602065
C 1.5905254 0.33717033 0.19414175
C 0.36321998 -0.036622874 1.0763496
C 0.2826752 -1.5543768 0.8099036
C 0.46980953 -1.5400786 -0.7479225
H 0.34509993 2.6071107 0.065691695
H -1.0572407 2.4687133 -0.9924856
H -1.2680554 2.4526343 0.7579822
H -2.3994591 0.4263005 -1.1722219
H -2.0440533 -1.0365385 -0.25519243
H -2.609641 0.4099663 0.5784098
H 0.76451427 0.33295083 -1.9822948
H 2.4813063 -0.29015565 0.29538062
H 1.8818395 1.3842484 0.2387372
H 0.2726586 0.29534918 2.1126518
H 1.0842592 -2.0951192 1.3213451
H -0.6650372 -1.9986165 1.1241462
H -0.37554398 -1.9765267 -1.2856456
H 1.3708979 -2.0731974 -1.0646819
