title
 OpenBabel02282110003D

 18 19  0  0  1  0  0  0  0  0999 V2000
   -0.6409    2.1234    0.0453 C   0  0  0  0  0  0  0  0  0  0  0  0
   -0.4956    0.6117    0.0810 C   0  0  1  0  0  0  0  0  0  0  0  0
   -1.7548    0.0893    0.4160 O   0  0  0  0  0  0  0  0  0  0  0  0
    0.2925   -0.0499   -1.1336 C   0  0  1  0  0  0  0  0  0  0  0  0
    1.5999    0.3055   -0.3612 C   0  0  0  0  0  0  0  0  0  0  0  0
    0.7041   -0.0207    0.8480 C   0  0  2  0  0  0  0  0  0  0  0  0
    0.4228   -1.4316    0.6881 O   0  0  0  0  0  0  0  0  0  0  0  0
    0.1631   -1.5220   -0.7467 C   0  0  0  0  0  0  0  0  0  0  0  0
    0.2559    2.6378   -0.3021 H   0  0  0  0  0  0  0  0  0  0  0  0
   -1.4649    2.3838   -0.6261 H   0  0  0  0  0  0  0  0  0  0  0  0
   -0.8964    2.4979    1.0412 H   0  0  0  0  0  0  0  0  0  0  0  0
   -1.5871   -0.7726    0.8209 H   0  0  0  0  0  0  0  0  0  0  0  0
    0.1174    0.2251   -2.1729 H   0  0  0  0  0  0  0  0  0  0  0  0
    2.4616   -0.3484   -0.5088 H   0  0  0  0  0  0  0  0  0  0  0  0
    1.8961    1.3498   -0.4335 H   0  0  0  0  0  0  0  0  0  0  0  0
    0.9500    0.1828    1.8898 H   0  0  0  0  0  0  0  0  0  0  0  0
   -0.8374   -1.9323   -0.9162 H   0  0  0  0  0  0  0  0  0  0  0  0
    0.9071   -2.1725   -1.2179 H   0  0  0  0  0  0  0  0  0  0  0  0
  1  2  1  0  0  0  0
  1 11  1  0  0  0  0
  2  4  1  6  0  0  0
  2  3  1  0  0  0  0
  3 12  1  0  0  0  0
  4 13  1  6  0  0  0
  4  8  1  0  0  0  0
  4  5  1  0  0  0  0
  5  6  1  0  0  0  0
  6  2  1  6  0  0  0
  6 16  1  0  0  0  0
  7  6  1  0  0  0  0
  8  7  1  0  0  0  0
  9  1  1  0  0  0  0
 10  1  1  0  0  0  0
 14  5  1  0  0  0  0
 15  5  1  0  0  0  0
 17  8  1  0  0  0  0
 18  8  1  0  0  0  0
M  END
