20
title
C -0.90602225 1.8073685 -0.17853864
C -0.7545439 0.28928483 -0.16517651
C -2.0959702 -0.37977144 -0.4748422
C 0.43540582 -0.40077487 -0.9069738
C 1.7027414 0.3276775 -0.4157328
C 1.3606367 0.30702552 1.1108105
C 0.009095692 -0.42653444 0.9953714
O 0.34736618 -1.4965423 0.057572745
H 0.02021619 2.342836 0.03610941
H -1.2651211 2.1451142 -1.1574992
H -1.6501842 2.1218202 0.5622269
H -2.4658775 -0.06640163 -1.457946
H -2.0051663 -1.4667464 -0.46918947
H -2.8518052 -0.08968654 0.26413682
H 0.37652466 -0.7193093 -1.9491669
H 2.597094 -0.25223175 -0.6516861
H 1.8226545 1.3313804 -0.83106875
H 2.0721483 -0.28389606 1.6908084
H 1.2860332 1.2989917 1.5632936
H -0.4870076 -0.77148646 1.9042101
