20
title
C -1.0352626 1.5467781 0.46876487
C -0.97437507 0.03429878 0.43765917
C -2.1906784 -0.6567331 1.0274695
C -0.30852592 -0.7088029 -0.72079545
C 0.6357513 0.040834904 -1.6604474
C 1.9223853 0.1721345 -0.81629413
O 1.5130707 0.11116476 0.5545823
C 0.34933287 -0.67169404 0.6348793
H -0.071764275 1.9995503 0.22875915
H -1.7861582 1.9297289 -0.23227373
H -1.31422 1.8915827 1.4709486
H -3.0959516 -0.41629875 0.45737678
H -2.0776157 -1.7458898 1.0230112
H -2.3558593 -0.34223625 2.064407
H -0.79312426 -1.6075298 -1.0857432
H 0.813477 -0.5256966 -2.578494
H 0.24550875 1.0211675 -1.9511333
H 2.6165795 -0.65331 -1.0360618
H 2.454325 1.1168139 -0.96229976
H 0.43074065 -1.5345933 1.291309
