title
 OpenBabel02282110003D

 22 23  0  0  1  0  0  0  0  0999 V2000
   -1.0101    1.5709   -0.3104 C   0  0  0  0  0  0  0  0  0  0  0  0
   -0.9719    0.0537   -0.3389 C   0  0  0  0  0  0  0  0  0  0  0  0
   -2.2876   -0.5433   -0.8168 C   0  0  0  0  0  0  0  0  0  0  0  0
    0.2633   -0.7334   -0.7328 C   0  0  1  0  0  0  0  0  0  0  0  0
    1.6401   -0.0800   -0.7504 C   0  0  0  0  0  0  0  0  0  0  0  0
    1.8878    0.4880    0.6751 C   0  0  0  0  0  0  0  0  0  0  0  0
    0.8150   -0.1456    1.6044 C   0  0  0  0  0  0  0  0  0  0  0  0
   -0.2386   -0.7733    0.6996 C   0  0  1  0  0  0  0  0  0  0  0  0
   -0.0817    2.0269    0.0337 H   0  0  0  0  0  0  0  0  0  0  0  0
   -1.2200    1.9672   -1.3113 H   0  0  0  0  0  0  0  0  0  0  0  0
   -1.8126    1.9207    0.3502 H   0  0  0  0  0  0  0  0  0  0  0  0
   -2.5313   -0.2011   -1.8299 H   0  0  0  0  0  0  0  0  0  0  0  0
   -2.2506   -1.6371   -0.8353 H   0  0  0  0  0  0  0  0  0  0  0  0
   -3.1158   -0.2491   -0.1607 H   0  0  0  0  0  0  0  0  0  0  0  0
    0.1116   -1.5791   -1.3970 H   0  0  0  0  0  0  0  0  0  0  0  0
    2.3849   -0.8464   -0.9917 H   0  0  0  0  0  0  0  0  0  0  0  0
    1.7360    0.6972   -1.5173 H   0  0  0  0  0  0  0  0  0  0  0  0
    2.8994    0.2599    1.0232 H   0  0  0  0  0  0  0  0  0  0  0  0
    1.8104    1.5781    0.6783 H   0  0  0  0  0  0  0  0  0  0  0  0
    1.2599   -0.9360    2.2191 H   0  0  0  0  0  0  0  0  0  0  0  0
    0.3983    0.5907    2.3013 H   0  0  0  0  0  0  0  0  0  0  0  0
   -0.7567   -1.6481    1.0813 H   0  0  0  0  0  0  0  0  0  0  0  0
  1  9  1  0  0  0  0
  1 11  1  0  0  0  0
  2  1  1  0  0  0  0
  2  8  1  0  0  0  0
  3  2  1  0  0  0  0
  3 14  1  0  0  0  0
  4  2  1  0  0  0  0
  4  8  1  1  0  0  0
  5  4  1  0  0  0  0
  5  6  1  0  0  0  0
  6 19  1  0  0  0  0
  6 18  1  0  0  0  0
  6  7  1  0  0  0  0
  7 20  1  0  0  0  0
  7 21  1  0  0  0  0
  8 22  1  1  0  0  0
  8  7  1  0  0  0  0
 10  1  1  0  0  0  0
 12  3  1  0  0  0  0
 13  3  1  0  0  0  0
 15  4  1  0  0  0  0
 16  5  1  0  0  0  0
 17  5  1  0  0  0  0
M  END
