title
 OpenBabel02282110003D

 20 21  0  0  1  0  0  0  0  0999 V2000
   -0.9932    1.6067   -0.3317 C   0  0  0  0  0  0  0  0  0  0  0  0
   -0.9336    0.0961   -0.3285 C   0  0  1  0  0  0  0  0  0  0  0  0
   -2.1712   -0.4833   -0.6927 O   0  0  0  0  0  0  0  0  0  0  0  0
    0.2676   -0.7355   -0.7324 C   0  0  1  0  0  0  0  0  0  0  0  0
    1.6739   -0.1492   -0.7372 C   0  0  0  0  0  0  0  0  0  0  0  0
    1.9081    0.4532    0.6751 C   0  0  0  0  0  0  0  0  0  0  0  0
    0.8356   -0.1729    1.6080 C   0  0  0  0  0  0  0  0  0  0  0  0
   -0.2437   -0.7525    0.7038 C   0  0  1  0  0  0  0  0  0  0  0  0
   -0.0655    2.0774   -0.0054 H   0  0  0  0  0  0  0  0  0  0  0  0
   -1.2090    1.9763   -1.3426 H   0  0  0  0  0  0  0  0  0  0  0  0
   -1.8010    1.9466    0.3245 H   0  0  0  0  0  0  0  0  0  0  0  0
   -2.3261   -0.2772   -1.6216 H   0  0  0  0  0  0  0  0  0  0  0  0
    0.0558   -1.5693   -1.3938 H   0  0  0  0  0  0  0  0  0  0  0  0
    2.3845   -0.9613   -0.9286 H   0  0  0  0  0  0  0  0  0  0  0  0
    1.8325    0.5948   -1.5263 H   0  0  0  0  0  0  0  0  0  0  0  0
    2.9208    0.2504    1.0347 H   0  0  0  0  0  0  0  0  0  0  0  0
    1.8114    1.5415    0.6514 H   0  0  0  0  0  0  0  0  0  0  0  0
    1.2691   -0.9920    2.1924 H   0  0  0  0  0  0  0  0  0  0  0  0
    0.4499    0.5553    2.3301 H   0  0  0  0  0  0  0  0  0  0  0  0
   -0.8244   -1.5930    1.0675 H   0  0  0  0  0  0  0  0  0  0  0  0
  1  2  1  0  0  0  0
  1  9  1  0  0  0  0
  1 11  1  0  0  0  0
  2  8  1  1  0  0  0
  3  2  1  0  0  0  0
  4  2  1  6  0  0  0
  5  4  1  0  0  0  0
  5  6  1  0  0  0  0
  6 16  1  0  0  0  0
  6  7  1  0  0  0  0
  7 18  1  0  0  0  0
  7 19  1  0  0  0  0
  8  4  1  6  0  0  0
  8 20  1  0  0  0  0
  8  7  1  0  0  0  0
 10  1  1  0  0  0  0
 12  3  1  0  0  0  0
 13  4  1  0  0  0  0
 14  5  1  0  0  0  0
 15  5  1  0  0  0  0
 17  6  1  0  0  0  0
M  END
