15
title
C -1.0081388 1.5682671 -0.41340008
C -0.89070123 0.06673276 -0.37227
O -2.032148 -0.6325999 -0.80307484
C 0.38276666 -0.6928744 -0.66068673
O 1.6168972 0.0017503953 -0.5172258
C 1.6822566 0.34123388 0.7989504
N 0.73872215 -0.008755884 1.5759568
C -0.2184041 -0.7049618 0.7470971
H -0.15318249 2.0627391 0.050040588
H -1.0798916 1.9214987 -1.4490163
H -1.9125224 1.8769889 0.11914103
H -2.138391 -0.47147265 -1.7481437
H 0.41968316 -1.5089672 -1.3714588
H 2.5685492 0.89673346 1.0796585
H -0.7562906 -1.534991 1.1885072
