title
 OpenBabel02282110003D

 20 22  0  0  1  0  0  0  0  0999 V2000
    0.4387    2.1384   -0.1638 C   0  0  0  0  0  0  0  0  0  0  0  0
    0.4721    0.6346   -0.2087 C   0  0  1  0  0  0  0  0  0  0  0  0
    1.0275   -0.2825   -1.3214 C   0  0  0  0  0  0  0  0  0  0  0  0
    0.5071   -1.2594   -0.2518 C   0  0  1  0  0  0  0  0  0  0  0  0
    0.9694   -0.3383    0.9234 C   0  0  2  0  0  0  0  0  0  0  0  0
   -0.4117   -0.3839    1.6015 C   0  0  0  0  0  0  0  0  0  0  0  0
   -0.7324   -0.3529    0.0903 C   0  0  1  0  0  0  0  0  0  0  0  0
   -2.0787   -0.3638   -0.5821 C   0  0  0  0  0  0  0  0  0  0  0  0
    1.4491    2.5576   -0.2305 H   0  0  0  0  0  0  0  0  0  0  0  0
   -0.1446    2.5463   -0.9974 H   0  0  0  0  0  0  0  0  0  0  0  0
   -0.0114    2.5003    0.7675 H   0  0  0  0  0  0  0  0  0  0  0  0
    0.5054   -0.2695   -2.2847 H   0  0  0  0  0  0  0  0  0  0  0  0
    2.1116   -0.2578   -1.4787 H   0  0  0  0  0  0  0  0  0  0  0  0
    0.5174   -2.3510   -0.2483 H   0  0  0  0  0  0  0  0  0  0  0  0
    1.9626   -0.3326    1.3763 H   0  0  0  0  0  0  0  0  0  0  0  0
   -0.6666   -1.3058    2.1360 H   0  0  0  0  0  0  0  0  0  0  0  0
   -0.7091    0.4899    2.1921 H   0  0  0  0  0  0  0  0  0  0  0  0
   -2.6760    0.5061   -0.2857 H   0  0  0  0  0  0  0  0  0  0  0  0
   -1.9803   -0.3453   -1.6734 H   0  0  0  0  0  0  0  0  0  0  0  0
   -2.6464   -1.2621   -0.3140 H   0  0  0  0  0  0  0  0  0  0  0  0
  1 11  1  0  0  0  0
  2  1  1  0  0  0  0
  2  7  1  6  0  0  0
  2  5  1  0  0  0  0
  3  4  1  0  0  0  0
  3  2  1  0  0  0  0
  4 14  1  0  0  0  0
  4  7  1  6  0  0  0
  5  4  1  6  0  0  0
  5 15  1  0  0  0  0
  5  6  1  0  0  0  0
  6 16  1  0  0  0  0
  6 17  1  0  0  0  0
  7  8  1  6  0  0  0
  7  6  1  0  0  0  0
  8 20  1  0  0  0  0
  8 18  1  0  0  0  0
  9  1  1  0  0  0  0
 10  1  1  0  0  0  0
 12  3  1  0  0  0  0
 13  3  1  0  0  0  0
 19  8  1  0  0  0  0
M  END
