16
title
C -1.0441303 1.5827675 -0.4484735
C -0.9401283 0.08088974 -0.43885246
O -2.0649433 -0.61900663 -0.90226704
C 0.37778643 -0.6503633 -0.68085325
O 1.562099 0.10061387 -0.52815586
C 1.837928 0.075983934 0.8625705
O 0.585416 0.052902162 1.5259594
C -0.26610032 -0.68450487 0.6785314
H -0.14820412 2.0443957 -0.033606514
H -1.1706872 1.9507172 -1.4736786
H -1.9099065 1.9013101 0.13973121
H -2.1560965 -0.4412106 -1.845698
H 0.42908326 -1.5000805 -1.3542114
H 2.4266722 -0.820304 1.1212513
H 2.3751607 0.98652303 1.1397545
H -0.7437929 -1.5562176 1.112745
