16
title
O 0.4864707 2.0107121 -0.04260294
C 0.4792201 0.63471466 -0.18767136
C 1.0522747 -0.23984611 -1.3223134
C 0.51197124 -1.240214 -0.2749389
C 0.9451315 -0.33503133 0.9327117
C -0.45005554 -0.41103047 1.5940225
C -0.7250002 -0.36882895 0.07649868
O -1.9248972 -0.45515305 -0.60716087
H 0.051727515 2.3964458 -0.8110768
H 0.52921766 -0.21341407 -2.2830105
H 2.1371436 -0.21335262 -1.4629331
H 0.5367421 -2.327327 -0.28642303
H 1.9274704 -0.3367713 1.3991388
H -0.69827396 -1.3420382 2.112698
H -0.75755304 0.46079051 2.1793745
H -2.505308 0.24333304 -0.28540775
