17
title
C 0.45592538 2.1163971 -0.18505627
C 0.43031684 0.61944646 -0.2557188
C 1.0225832 -0.3150229 -1.323258
C 0.5219879 -1.2373209 -0.21105783
N 1.0179313 -0.272516 0.887391
C -0.3463774 -0.31783122 1.5687598
C -0.73450387 -0.35283136 0.09381621
O -1.9722713 -0.32430542 -0.52559453
H 1.4849496 2.4859588 -0.23547217
H -0.10525945 2.5444212 -1.0221834
H 0.006707786 2.4824815 0.7438502
H 0.4940359 -0.36199778 -2.2777855
H 2.1065934 -0.26430273 -1.4578571
H 0.63671064 -2.314775 -0.08008483
H -0.49773934 -1.2218746 2.1684103
H -0.5805205 0.577005 2.1533332
H -2.4718978 -1.1034976 -0.25717443
