18
title
C 0.42483768 2.1374586 -0.17170732
C 0.4768272 0.63510966 -0.21423902
C 1.0306205 -0.28548262 -1.3275399
C 0.52939254 -1.2670885 -0.25205305
C 0.97758204 -0.3371798 0.921205
C -0.40259695 -0.38121822 1.6125559
C -0.70069444 -0.34916738 0.09973715
O -1.9158814 -0.27227804 -0.55573225
H 1.4277221 2.5699298 -0.2584175
H -0.18171996 2.5287547 -0.99562246
H -0.01521742 2.49566 0.7655037
H 0.48945454 -0.27924487 -2.278539
H 2.1119227 -0.2512003 -1.4986433
H 0.54786307 -2.3583214 -0.24012215
H 1.9664522 -0.3264093 1.3754882
H -0.6503866 -1.3042996 2.1483374
H -0.6973195 0.49564838 2.1977906
H -2.424499 -1.0652405 -0.3543601
