title
 OpenBabel02282110003D

 16 18  0  0  1  0  0  0  0  0999 V2000
    0.4865    2.1412   -0.2436 C   0  0  0  0  0  0  0  0  0  0  0  0
    0.4553    0.6517   -0.1807 C   0  0  1  0  0  0  0  0  0  0  0  0
    1.0364   -0.1449   -1.2620 O   0  0  0  0  0  0  0  0  0  0  0  0
    0.5527   -1.1657   -0.3465 C   0  0  1  0  0  0  0  0  0  0  0  0
    0.8815   -0.3566    0.9382 C   0  0  2  0  0  0  0  0  0  0  0  0
   -0.4535   -0.4739    1.5025 O   0  0  0  0  0  0  0  0  0  0  0  0
   -0.7261   -0.3643    0.0690 C   0  0  1  0  0  0  0  0  0  0  0  0
   -2.1294   -0.3972   -0.4342 C   0  0  0  0  0  0  0  0  0  0  0  0
    1.5169    2.5061   -0.2937 H   0  0  0  0  0  0  0  0  0  0  0  0
   -0.0518    2.5044   -1.1246 H   0  0  0  0  0  0  0  0  0  0  0  0
    0.0122    2.5534    0.6524 H   0  0  0  0  0  0  0  0  0  0  0  0
    0.6979   -2.2162   -0.5963 H   0  0  0  0  0  0  0  0  0  0  0  0
    1.7438   -0.3757    1.6038 H   0  0  0  0  0  0  0  0  0  0  0  0
   -2.7116    0.4301   -0.0168 H   0  0  0  0  0  0  0  0  0  0  0  0
   -2.1271   -0.3097   -1.5251 H   0  0  0  0  0  0  0  0  0  0  0  0
   -2.6182   -1.3368   -0.1594 H   0  0  0  0  0  0  0  0  0  0  0  0
  1  2  1  0  0  0  0
  1 11  1  0  0  0  0
  2  7  1  6  0  0  0
  2  5  1  0  0  0  0
  3  4  1  0  0  0  0
  3  2  1  0  0  0  0
  4  7  1  6  0  0  0
  5  4  1  6  0  0  0
  5  6  1  0  0  0  0
  5 13  1  0  0  0  0
  7  8  1  6  0  0  0
  7  6  1  0  0  0  0
  8 16  1  0  0  0  0
  8 14  1  0  0  0  0
  9  1  1  0  0  0  0
 10  1  1  0  0  0  0
 12  4  1  0  0  0  0
 15  8  1  0  0  0  0
M  END
