title
 OpenBabel02282110003D

 18 20  0  0  1  0  0  0  0  0999 V2000
    0.4248    2.1375   -0.1717 C   0  0  0  0  0  0  0  0  0  0  0  0
    0.4768    0.6351   -0.2142 C   0  0  1  0  0  0  0  0  0  0  0  0
    1.0306   -0.2855   -1.3275 C   0  0  0  0  0  0  0  0  0  0  0  0
    0.5294   -1.2671   -0.2521 C   0  0  1  0  0  0  0  0  0  0  0  0
    0.9776   -0.3372    0.9212 C   0  0  2  0  0  0  0  0  0  0  0  0
   -0.4026   -0.3812    1.6126 C   0  0  0  0  0  0  0  0  0  0  0  0
   -0.7007   -0.3492    0.0997 C   0  0  1  0  0  0  0  0  0  0  0  0
   -1.9159   -0.2723   -0.5557 O   0  0  0  0  0  0  0  0  0  0  0  0
    1.4277    2.5699   -0.2584 H   0  0  0  0  0  0  0  0  0  0  0  0
   -0.1817    2.5288   -0.9956 H   0  0  0  0  0  0  0  0  0  0  0  0
   -0.0152    2.4957    0.7655 H   0  0  0  0  0  0  0  0  0  0  0  0
    0.4895   -0.2792   -2.2785 H   0  0  0  0  0  0  0  0  0  0  0  0
    2.1119   -0.2512   -1.4986 H   0  0  0  0  0  0  0  0  0  0  0  0
    0.5479   -2.3583   -0.2401 H   0  0  0  0  0  0  0  0  0  0  0  0
    1.9665   -0.3264    1.3755 H   0  0  0  0  0  0  0  0  0  0  0  0
   -0.6504   -1.3043    2.1483 H   0  0  0  0  0  0  0  0  0  0  0  0
   -0.6973    0.4956    2.1978 H   0  0  0  0  0  0  0  0  0  0  0  0
   -2.4245   -1.0652   -0.3544 H   0  0  0  0  0  0  0  0  0  0  0  0
  1 11  1  0  0  0  0
  2  1  1  0  0  0  0
  2  7  1  6  0  0  0
  2  5  1  0  0  0  0
  3  4  1  0  0  0  0
  3  2  1  0  0  0  0
  4 14  1  0  0  0  0
  4  7  1  6  0  0  0
  5  4  1  6  0  0  0
  5 15  1  0  0  0  0
  5  6  1  0  0  0  0
  6 16  1  0  0  0  0
  6 17  1  0  0  0  0
  7  8  1  6  0  0  0
  7  6  1  0  0  0  0
  8 18  1  0  0  0  0
  9  1  1  0  0  0  0
 10  1  1  0  0  0  0
 12  3  1  0  0  0  0
 13  3  1  0  0  0  0
M  END
