title
 OpenBabel02282110003D

 16 18  0  0  1  0  0  0  0  0999 V2000
    0.4865    2.0107   -0.0426 O   0  0  0  0  0  0  0  0  0  0  0  0
    0.4792    0.6347   -0.1877 C   0  0  1  0  0  0  0  0  0  0  0  0
    1.0523   -0.2398   -1.3223 C   0  0  0  0  0  0  0  0  0  0  0  0
    0.5120   -1.2402   -0.2749 C   0  0  1  0  0  0  0  0  0  0  0  0
    0.9451   -0.3350    0.9327 C   0  0  2  0  0  0  0  0  0  0  0  0
   -0.4501   -0.4110    1.5940 C   0  0  0  0  0  0  0  0  0  0  0  0
   -0.7250   -0.3688    0.0765 C   0  0  1  0  0  0  0  0  0  0  0  0
   -1.9249   -0.4552   -0.6072 O   0  0  0  0  0  0  0  0  0  0  0  0
    0.0517    2.3964   -0.8111 H   0  0  0  0  0  0  0  0  0  0  0  0
    0.5292   -0.2134   -2.2830 H   0  0  0  0  0  0  0  0  0  0  0  0
    2.1371   -0.2134   -1.4629 H   0  0  0  0  0  0  0  0  0  0  0  0
    0.5367   -2.3273   -0.2864 H   0  0  0  0  0  0  0  0  0  0  0  0
    1.9275   -0.3368    1.3991 H   0  0  0  0  0  0  0  0  0  0  0  0
   -0.6983   -1.3420    2.1127 H   0  0  0  0  0  0  0  0  0  0  0  0
   -0.7576    0.4608    2.1794 H   0  0  0  0  0  0  0  0  0  0  0  0
   -2.5053    0.2433   -0.2854 H   0  0  0  0  0  0  0  0  0  0  0  0
  2  1  1  0  0  0  0
  2  7  1  6  0  0  0
  2  5  1  0  0  0  0
  3  4  1  0  0  0  0
  3  2  1  0  0  0  0
  4  7  1  6  0  0  0
  5  4  1  6  0  0  0
  5 13  1  0  0  0  0
  5  6  1  0  0  0  0
  6 14  1  0  0  0  0
  6 15  1  0  0  0  0
  7  8  1  6  0  0  0
  7  6  1  0  0  0  0
  8 16  1  0  0  0  0
  9  1  1  0  0  0  0
 10  3  1  0  0  0  0
 11  3  1  0  0  0  0
 12  4  1  0  0  0  0
M  END
