16
title
C 0.45298302 2.113659 -0.22354345
C 0.44293863 0.62243295 -0.14183322
O 1.0229883 -0.16011378 -1.236046
C 0.55675215 -1.1647712 -0.29472792
C 0.95486915 -0.35613254 0.97258025
C -0.4418473 -0.48689976 1.6163005
C -0.74207336 -0.36908963 0.10313825
O -1.9480841 -0.2822334 -0.5504344
H 1.4770654 2.4870238 -0.3177891
H -0.12227634 2.4492445 -1.0914907
H 0.0055277855 2.5471034 0.6764148
H 0.7072753 -2.2185032 -0.52803814
H 1.9358685 -0.34131935 1.4404674
H -0.6698944 -1.4457092 2.0917127
H -0.7723535 0.34327728 2.2465749
H -2.458357 -1.0802659 -0.37442347
