19
title
C -0.08727926 2.3427684 -0.21998884
C -0.01289984 0.8353435 -0.2658487
C 0.87352794 0.0441551 -1.2529179
N 0.83357114 -1.0956347 -0.27748412
C -0.6603846 -1.306728 0.08193637
C -0.30135393 -0.9667595 1.544537
C 0.7038886 -0.059455 0.8399159
C -1.3124391 0.00835756 -0.39951897
H 0.9088795 2.7891479 -0.12601079
H -0.5461325 2.744516 -1.1310407
H -0.68806016 2.6862266 0.6298608
H 0.49293855 -0.15862653 -2.260475
H 1.9045668 0.40768793 -1.314621
H -1.1015595 -2.258542 -0.21087456
H -1.0771471 -0.5366747 2.182246
H 0.2102287 -1.7869731 2.0526292
H 1.6198331 0.3228434 1.2947223
H -2.1243382 0.3351752 0.2569893
H -1.6862937 -0.016511584 -1.4272614
