18
title
C -0.108695865 2.2583563 -0.25300375
C 0.07449866 0.7683034 -0.27381632
C 0.9303417 -0.0034452248 -1.3118224
C 0.7980055 -1.1364851 -0.28790203
C -0.738087 -1.2033081 0.10835732
C -0.35540146 -0.8825557 1.5707943
C 0.76428676 -0.08901878 0.8828153
O -1.1858325 0.070561215 -0.3751666
H 0.8596283 2.76524 -0.20973073
H -0.631594 2.5911016 -1.1557449
H -0.70130694 2.5636673 0.61486685
H 0.5072431 -0.114729896 -2.3137596
H 1.9607935 0.36087462 -1.360846
H 1.3906386 -2.0491679 -0.2749767
H -1.4196365 -1.9993937 -0.18778005
H -1.1061984 -0.36689308 2.175278
H 0.047896244 -1.74786 2.1046922
H 1.6498181 0.310751 1.3743021
