title
 OpenBabel02282110003D

 17 19  0  0  1  0  0  0  0  0999 V2000
    0.1023    2.1809    0.1352 O   0  0  0  0  0  0  0  0  0  0  0  0
    0.2089    0.7947    0.1829 C   0  0  1  0  0  0  0  0  0  0  0  0
    0.6983    0.0040    1.4321 C   0  0  0  0  0  0  0  0  0  0  0  0
   -0.1247   -1.1115    0.7882 C   0  0  1  0  0  0  0  0  0  0  0  0
   -1.1208   -0.0778    0.2027 C   0  0  2  0  0  0  0  0  0  0  0  0
   -1.1298   -0.9256   -1.0619 C   0  0  0  0  0  0  0  0  0  0  0  0
    0.2976   -1.3124   -0.7116 N   0  0  1  0  0  0  0  0  0  0  0  0
    0.9549    0.0142   -0.9213 C   0  0  0  0  0  0  0  0  0  0  0  0
    0.9885    2.5556    0.0851 H   0  0  0  0  0  0  0  0  0  0  0  0
    1.7735   -0.1213    1.5948 H   0  0  0  0  0  0  0  0  0  0  0  0
    0.2074    0.3429    2.3490 H   0  0  0  0  0  0  0  0  0  0  0  0
   -0.3996   -2.0438    1.2757 H   0  0  0  0  0  0  0  0  0  0  0  0
   -1.9835    0.3300    0.7297 H   0  0  0  0  0  0  0  0  0  0  0  0
   -1.7832   -1.7988   -0.9785 H   0  0  0  0  0  0  0  0  0  0  0  0
   -1.2528   -0.4661   -2.0478 H   0  0  0  0  0  0  0  0  0  0  0  0
    0.7720    0.3826   -1.9339 H   0  0  0  0  0  0  0  0  0  0  0  0
    2.0347   -0.0467   -0.7527 H   0  0  0  0  0  0  0  0  0  0  0  0
  1  2  1  0  0  0  0
  2  5  1  6  0  0  0
  2  3  1  0  0  0  0
  3 10  1  0  0  0  0
  3 11  1  0  0  0  0
  4  7  1  6  0  0  0
  4 12  1  0  0  0  0
  4  3  1  0  0  0  0
  5 13  1  0  0  0  0
  5  4  1  1  0  0  0
  6 14  1  0  0  0  0
  6  5  1  0  0  0  0
  7  6  1  6  0  0  0
  8 17  1  0  0  0  0
  8  7  1  0  0  0  0
  8  2  1  0  0  0  0
  9  1  1  0  0  0  0
 15  6  1  0  0  0  0
 16  8  1  0  0  0  0
M  END
