18
title
O 0.13432309 2.162639 0.11633096
C 0.2336614 0.7740428 0.17264464
C 0.6905836 0.0030785026 1.4467375
C -0.14413533 -1.1251638 0.8242732
C 0.26054424 -1.316545 -0.70712256
C -1.1929137 -0.9200522 -1.0880828
C -1.106959 -0.07239218 0.18845041
C 1.0029048 0.01642297 -0.93473166
H 1.0219827 2.5281549 0.034936376
H 1.7638214 -0.1331264 1.6201274
H 0.20834734 0.39133546 2.3486583
H -0.49551865 -1.9971383 1.3722267
H 0.7223647 -2.233554 -1.072664
H -1.3557577 -0.4368787 -2.0572295
H -1.9013793 -1.7444277 -0.9632134
H -1.9556766 0.36340532 0.71372
H 0.8338547 0.42680517 -1.934606
H 2.0801377 -0.025395768 -0.7426404
