title
 OpenBabel02282110003D

 17 19  0  0  1  0  0  0  0  0999 V2000
    0.0272    2.3049   -0.3286 C   0  0  0  0  0  0  0  0  0  0  0  0
    0.0240    0.8002   -0.2990 C   0  0  2  0  0  0  0  0  0  0  0  0
   -1.3036    0.0092   -0.4415 C   0  0  0  0  0  0  0  0  0  0  0  0
   -0.7034   -1.2810    0.1364 C   0  0  2  0  0  0  0  0  0  0  0  0
   -0.3928   -0.8607    1.4992 O   0  0  0  0  0  0  0  0  0  0  0  0
    0.6441   -0.0910    0.8938 C   0  0  1  0  0  0  0  0  0  0  0  0
    0.8313   -1.0533   -0.2820 C   0  0  2  0  0  0  0  0  0  0  0  0
    0.9615    0.0688   -1.2105 N   0  0  0  0  0  0  0  0  0  0  0  0
    1.0428    2.6935   -0.2104 H   0  0  0  0  0  0  0  0  0  0  0  0
   -0.3697    2.6854   -1.2772 H   0  0  0  0  0  0  0  0  0  0  0  0
   -0.5961    2.7055    0.4775 H   0  0  0  0  0  0  0  0  0  0  0  0
   -2.1234    0.3670    0.1853 H   0  0  0  0  0  0  0  0  0  0  0  0
   -1.6297   -0.0514   -1.4847 H   0  0  0  0  0  0  0  0  0  0  0  0
   -1.2352   -2.2291    0.0774 H   0  0  0  0  0  0  0  0  0  0  0  0
    1.4027    0.3161    1.5591 H   0  0  0  0  0  0  0  0  0  0  0  0
    1.5161   -1.8983   -0.3299 H   0  0  0  0  0  0  0  0  0  0  0  0
    0.5900   -0.0922   -2.1471 H   0  0  0  0  0  0  0  0  0  0  0  0
  1  2  1  0  0  0  0
  1  9  1  0  0  0  0
  1 11  1  0  0  0  0
  2  6  1  1  0  0  0
  3  2  1  0  0  0  0
  3  4  1  0  0  0  0
  3 12  1  0  0  0  0
  4  7  1  6  0  0  0
  4  5  1  0  0  0  0
  6  7  1  6  0  0  0
  6  5  1  0  0  0  0
  6 15  1  0  0  0  0
  7 16  1  1  0  0  0
  8  2  1  0  0  0  0
  8  7  1  0  0  0  0
 10  1  1  0  0  0  0
 13  3  1  0  0  0  0
 14  4  1  0  0  0  0
 17  8  1  0  0  0  0
M  END
