title
 OpenBabel02282110003D

 18 20  0  0  1  0  0  0  0  0999 V2000
    0.1343    2.1626    0.1163 O   0  0  0  0  0  0  0  0  0  0  0  0
    0.2337    0.7740    0.1726 C   0  0  1  0  0  0  0  0  0  0  0  0
    0.6906    0.0031    1.4467 C   0  0  0  0  0  0  0  0  0  0  0  0
   -0.1441   -1.1252    0.8243 C   0  0  2  0  0  0  0  0  0  0  0  0
    0.2605   -1.3165   -0.7071 C   0  0  1  0  0  0  0  0  0  0  0  0
   -1.1929   -0.9201   -1.0881 C   0  0  0  0  0  0  0  0  0  0  0  0
   -1.1070   -0.0724    0.1885 C   0  0  2  0  0  0  0  0  0  0  0  0
    1.0029    0.0164   -0.9347 C   0  0  0  0  0  0  0  0  0  0  0  0
    1.0220    2.5282    0.0349 H   0  0  0  0  0  0  0  0  0  0  0  0
    1.7638   -0.1331    1.6201 H   0  0  0  0  0  0  0  0  0  0  0  0
    0.2083    0.3913    2.3487 H   0  0  0  0  0  0  0  0  0  0  0  0
   -0.4955   -1.9971    1.3722 H   0  0  0  0  0  0  0  0  0  0  0  0
    0.7224   -2.2336   -1.0727 H   0  0  0  0  0  0  0  0  0  0  0  0
   -1.3558   -0.4369   -2.0572 H   0  0  0  0  0  0  0  0  0  0  0  0
   -1.9014   -1.7444   -0.9632 H   0  0  0  0  0  0  0  0  0  0  0  0
   -1.9557    0.3634    0.7137 H   0  0  0  0  0  0  0  0  0  0  0  0
    0.8339    0.4268   -1.9346 H   0  0  0  0  0  0  0  0  0  0  0  0
    2.0801   -0.0254   -0.7426 H   0  0  0  0  0  0  0  0  0  0  0  0
  1  2  1  0  0  0  0
  2  7  1  6  0  0  0
  2  3  1  0  0  0  0
  3 10  1  0  0  0  0
  3 11  1  0  0  0  0
  4  5  1  6  0  0  0
  4 12  1  0  0  0  0
  4  3  1  0  0  0  0
  5 13  1  6  0  0  0
  6 15  1  0  0  0  0
  6  5  1  0  0  0  0
  6  7  1  0  0  0  0
  7 16  1  0  0  0  0
  7  4  1  1  0  0  0
  8 18  1  0  0  0  0
  8  5  1  0  0  0  0
  8  2  1  0  0  0  0
  9  1  1  0  0  0  0
 14  6  1  0  0  0  0
 17  8  1  0  0  0  0
M  END
