18
title
C 0.19288497 2.3123167 -0.02203332
C 0.3314501 0.82069063 -0.074674584
C 1.2744458 -0.02015415 -0.93811464
C 0.4479165 -1.2315673 -0.44281563
O 0.7679494 -1.3113524 0.9752064
C 0.013446004 -0.108748704 1.1195383
C -0.7628162 -0.25519863 -0.14762047
C -2.211335 -0.24091557 -0.51059645
H 1.1070931 2.7809036 0.3607502
H -0.008055001 2.7354834 -1.0131425
H -0.629831 2.6132667 0.6366093
H 1.116409 0.17367253 -2.0033236
H 2.3448875 -0.035983 -0.70562696
H 0.438011 -2.1984975 -0.9427107
H -0.25645518 0.23179457 2.1117973
H -2.7132056 0.62191993 -0.05914022
H -2.3567898 -0.17440072 -1.5951664
H -2.7230895 -1.1437808 -0.15844513
