title
 OpenBabel02282110003D

 18 20  0  0  1  0  0  0  0  0999 V2000
    0.1230    2.2386   -0.1236 C   0  0  0  0  0  0  0  0  0  0  0  0
    0.2496    0.7543   -0.0460 C   0  0  1  0  0  0  0  0  0  0  0  0
    0.2799   -0.3411   -1.1038 C   0  0  1  0  0  0  0  0  0  0  0  0
    1.5684   -0.9347   -0.5462 C   0  0  0  0  0  0  0  0  0  0  0  0
    1.1806   -0.2334    0.7855 C   0  0  2  0  0  0  0  0  0  0  0  0
   -0.1009   -0.9807    1.2602 C   0  0  0  0  0  0  0  0  0  0  0  0
   -0.7629   -0.3521    0.0388 C   0  0  1  0  0  0  0  0  0  0  0  0
   -2.1132   -0.2120   -0.2158 O   0  0  0  0  0  0  0  0  0  0  0  0
    1.0350    2.7074   -0.5110 H   0  0  0  0  0  0  0  0  0  0  0  0
   -0.7036    2.5129   -0.7874 H   0  0  0  0  0  0  0  0  0  0  0  0
   -0.0850    2.6768    0.8597 H   0  0  0  0  0  0  0  0  0  0  0  0
   -0.0523   -0.2613   -2.1324 H   0  0  0  0  0  0  0  0  0  0  0  0
    1.6871   -2.0249   -0.5226 H   0  0  0  0  0  0  0  0  0  0  0  0
    2.4533   -0.4824   -1.0042 H   0  0  0  0  0  0  0  0  0  0  0  0
    1.9381    0.0668    1.5066 H   0  0  0  0  0  0  0  0  0  0  0  0
   -0.0471   -2.0731    1.3471 H   0  0  0  0  0  0  0  0  0  0  0  0
   -0.5020   -0.5533    2.1837 H   0  0  0  0  0  0  0  0  0  0  0  0
   -2.4217   -1.0027   -0.6719 H   0  0  0  0  0  0  0  0  0  0  0  0
  1  2  1  0  0  0  0
  1 11  1  0  0  0  0
  2  3  1  6  0  0  0
  3  4  1  0  0  0  0
  3  7  1  1  0  0  0
  4 13  1  0  0  0  0
  4  5  1  0  0  0  0
  5  2  1  6  0  0  0
  5  6  1  0  0  0  0
  5 15  1  0  0  0  0
  6 16  1  0  0  0  0
  6 17  1  0  0  0  0
  7  2  1  1  0  0  0
  7  6  1  0  0  0  0
  8  7  1  0  0  0  0
  9  1  1  0  0  0  0
 10  1  1  0  0  0  0
 12  3  1  0  0  0  0
 14  4  1  0  0  0  0
 18  8  1  0  0  0  0
M  END
