title
 OpenBabel02282110003D

 18 20  0  0  1  0  0  0  0  0999 V2000
    0.2088    2.2826   -0.0339 C   0  0  0  0  0  0  0  0  0  0  0  0
    0.3600    0.7915   -0.0616 C   0  0  1  0  0  0  0  0  0  0  0  0
    1.3006   -0.0472   -0.9282 C   0  0  0  0  0  0  0  0  0  0  0  0
    0.4588   -1.2797   -0.4972 C   0  0  1  0  0  0  0  0  0  0  0  0
    0.7539   -1.4155    1.0220 C   0  0  0  0  0  0  0  0  0  0  0  0
    0.0258   -0.0851    1.1912 C   0  0  2  0  0  0  0  0  0  0  0  0
   -0.7119   -0.2538   -0.1184 C   0  0  1  0  0  0  0  0  0  0  0  0
   -2.0228   -0.1151   -0.4931 O   0  0  0  0  0  0  0  0  0  0  0  0
    1.0850    2.7681    0.4116 H   0  0  0  0  0  0  0  0  0  0  0  0
    0.0824    2.6850   -1.0455 H   0  0  0  0  0  0  0  0  0  0  0  0
   -0.6696    2.5787    0.5489 H   0  0  0  0  0  0  0  0  0  0  0  0
    1.1714    0.1899   -1.9888 H   0  0  0  0  0  0  0  0  0  0  0  0
    2.3699   -0.0667   -0.6837 H   0  0  0  0  0  0  0  0  0  0  0  0
    0.3799   -2.1568   -1.1365 H   0  0  0  0  0  0  0  0  0  0  0  0
    0.2009   -2.2409    1.4809 H   0  0  0  0  0  0  0  0  0  0  0  0
    1.8089   -1.4778    1.3133 H   0  0  0  0  0  0  0  0  0  0  0  0
   -0.3189    0.3935    2.0997 H   0  0  0  0  0  0  0  0  0  0  0  0
   -2.5529   -0.7597   -0.0105 H   0  0  0  0  0  0  0  0  0  0  0  0
  1  9  1  0  0  0  0
  1 11  1  0  0  0  0
  2  7  1  6  0  0  0
  2  1  1  0  0  0  0
  2  6  1  0  0  0  0
  3 13  1  0  0  0  0
  3  4  1  0  0  0  0
  3  2  1  0  0  0  0
  4  7  1  6  0  0  0
  4  5  1  0  0  0  0
  5  6  1  0  0  0  0
  5 16  1  0  0  0  0
  5 15  1  0  0  0  0
  6  7  1  6  0  0  0
  6 17  1  0  0  0  0
  7  8  1  6  0  0  0
  8 18  1  0  0  0  0
 10  1  1  0  0  0  0
 12  3  1  0  0  0  0
 14  4  1  0  0  0  0
M  END
