title
 OpenBabel02282110003D

 17 19  0  0  1  0  0  0  0  0999 V2000
    0.1712    2.2142   -0.0853 C   0  0  0  0  0  0  0  0  0  0  0  0
    0.2201    0.7283   -0.0813 C   0  0  1  0  0  0  0  0  0  0  0  0
    0.2613   -0.3605   -1.1296 C   0  0  1  0  0  0  0  0  0  0  0  0
    1.5333   -0.8915   -0.5064 C   0  0  0  0  0  0  0  0  0  0  0  0
    1.1692   -0.1591    0.7753 N   0  0  2  0  0  0  0  0  0  0  0  0
   -0.0591   -0.9266    1.2331 C   0  0  0  0  0  0  0  0  0  0  0  0
   -0.7857   -0.3712    0.0223 C   0  0  1  0  0  0  0  0  0  0  0  0
   -2.1390   -0.2509   -0.2135 O   0  0  0  0  0  0  0  0  0  0  0  0
    1.1082    2.6476   -0.4509 H   0  0  0  0  0  0  0  0  0  0  0  0
   -0.6412    2.5573   -0.7340 H   0  0  0  0  0  0  0  0  0  0  0  0
   -0.0122    2.6047    0.9216 H   0  0  0  0  0  0  0  0  0  0  0  0
   -0.0629   -0.3043   -2.1626 H   0  0  0  0  0  0  0  0  0  0  0  0
    1.6709   -1.9725   -0.3852 H   0  0  0  0  0  0  0  0  0  0  0  0
    2.4432   -0.4555   -0.9289 H   0  0  0  0  0  0  0  0  0  0  0  0
    0.0931   -2.0066    1.3465 H   0  0  0  0  0  0  0  0  0  0  0  0
   -0.4260   -0.5030    2.1719 H   0  0  0  0  0  0  0  0  0  0  0  0
   -2.4501   -1.0551   -0.6438 H   0  0  0  0  0  0  0  0  0  0  0  0
  1  2  1  0  0  0  0
  1 11  1  0  0  0  0
  2  3  1  6  0  0  0
  3  4  1  0  0  0  0
  3  7  1  1  0  0  0
  4 13  1  0  0  0  0
  4  5  1  0  0  0  0
  5  2  1  6  0  0  0
  5  6  1  0  0  0  0
  6 15  1  0  0  0  0
  6 16  1  0  0  0  0
  7  2  1  1  0  0  0
  7  6  1  0  0  0  0
  8  7  1  0  0  0  0
  9  1  1  0  0  0  0
 10  1  1  0  0  0  0
 12  3  1  0  0  0  0
 14  4  1  0  0  0  0
 17  8  1  0  0  0  0
M  END
