18
title
C 0.123017535 2.2385733 -0.12356998
C 0.24956007 0.75426495 -0.045958485
C 0.27988806 -0.34110293 -1.1038326
C 1.5683975 -0.9346833 -0.54619414
C 1.1806107 -0.23338138 0.78551024
C -0.10087614 -0.98065007 1.2601556
C -0.7628641 -0.35211274 0.038829345
O -2.1131878 -0.21195738 -0.21575642
H 1.0349617 2.7074213 -0.5110068
H -0.70359975 2.5128603 -0.7874325
H -0.08502643 2.6768036 0.8596593
H -0.052252274 -0.26130596 -2.1324182
H 1.687072 -2.0249238 -0.5226135
H 2.4532611 -0.48244974 -1.004194
H 1.9381466 0.066758715 1.5066353
H -0.0470591 -2.0731382 1.3471373
H -0.5020246 -0.55328035 2.183683
H -2.4217188 -1.0027215 -0.6718988
