16
title
C 0.18694977 2.305071 -0.03169828
C 0.33467716 0.8149362 -0.08655093
C 1.2880042 -0.032963324 -0.93084675
C 0.472219 -1.2506258 -0.43061435
O 0.7735179 -1.3105929 0.9888634
C 0.02282813 -0.110565476 1.1384987
C -0.74302185 -0.2487282 -0.137853
O -2.0483134 -0.14033155 -0.52891123
H 1.0882492 2.7784517 0.3736937
H 0.005843011 2.7249446 -1.0273527
H -0.6574993 2.5944803 0.6030715
H 1.1389227 0.14826657 -1.9990755
H 2.3548343 -0.04111444 -0.68476355
H 0.47808924 -2.22186 -0.9211858
H -0.21694812 0.25437313 2.1288586
H -2.5660982 -0.8093688 -0.06523958
