18
title
C 0.20881352 2.2826288 -0.033935793
C 0.3599783 0.7915033 -0.06162642
C 1.3005553 -0.047245003 -0.92822623
C 0.45880345 -1.2797077 -0.4972348
C 0.75394607 -1.4155262 1.0219598
C 0.02579427 -0.08511565 1.1912041
C -0.7119455 -0.25383154 -0.11840772
O -2.0228174 -0.115066744 -0.49306434
H 1.084978 2.7680533 0.41163275
H 0.08235729 2.6850135 -1.0454531
H -0.66959745 2.5786886 0.54894763
H 1.1714017 0.18986455 -1.9887546
H 2.3698733 -0.066662885 -0.6837108
H 0.37988877 -2.1568043 -1.1365216
H 0.20092063 -2.2408648 1.480896
H 1.8088936 -1.4778192 1.3132602
H -0.31893855 0.39350513 2.0997221
H -2.5528784 -0.7597218 -0.010504531
