title
 OpenBabel02282110003D

 15 17  0  0  1  0  0  0  0  0999 V2000
   -0.3935    2.5306    0.0371 C   0  0  0  0  0  0  0  0  0  0  0  0
   -0.3021    1.0416   -0.1041 C   0  0  2  0  0  0  0  0  0  0  0  0
   -0.9425    0.1749   -1.1874 C   0  0  0  0  0  0  0  0  0  0  0  0
   -0.7767   -0.9606   -0.1600 C   0  0  2  0  0  0  0  0  0  0  0  0
   -0.6898    0.1087    0.9882 N   0  0  1  0  0  0  0  0  0  0  0  0
    0.7843    0.2471    0.5776 C   0  0  1  0  0  0  0  0  0  0  0  0
    0.7373   -1.1272   -0.0043 C   0  0  0  0  0  0  0  0  0  0  0  0
    1.5045   -2.0409   -0.1004 O   0  0  0  0  0  0  0  0  0  0  0  0
    0.2369    3.0308   -0.7054 H   0  0  0  0  0  0  0  0  0  0  0  0
   -1.4259    2.8652   -0.1074 H   0  0  0  0  0  0  0  0  0  0  0  0
   -0.0701    2.8471    1.0329 H   0  0  0  0  0  0  0  0  0  0  0  0
   -1.9925    0.4536   -1.3169 H   0  0  0  0  0  0  0  0  0  0  0  0
   -0.4614    0.0684   -2.1642 H   0  0  0  0  0  0  0  0  0  0  0  0
   -1.4604   -1.8014   -0.0790 H   0  0  0  0  0  0  0  0  0  0  0  0
    1.5231    0.7034    1.2243 H   0  0  0  0  0  0  0  0  0  0  0  0
  1 11  1  0  0  0  0
  2  1  1  0  0  0  0
  2  6  1  6  0  0  0
  3  4  1  0  0  0  0
  3  2  1  0  0  0  0
  4 14  1  0  0  0  0
  4  7  1  0  0  0  0
  4  5  1  1  0  0  0
  5  2  1  6  0  0  0
  6  5  1  1  0  0  0
  6 15  1  0  0  0  0
  7  6  1  0  0  0  0
  8  7  2  0  0  0  0
  9  1  1  0  0  0  0
 10  1  1  0  0  0  0
 12  3  1  0  0  0  0
 13  3  1  0  0  0  0
M  END
