title
 OpenBabel02282110003D

 16 18  0  0  1  0  0  0  0  0999 V2000
   -0.2637    2.5569    0.3080 C   0  0  0  0  0  0  0  0  0  0  0  0
   -0.2848    1.0579    0.2475 C   0  0  2  0  0  0  0  0  0  0  0  0
   -1.5080    0.1592    0.0100 C   0  0  0  0  0  0  0  0  0  0  0  0
   -0.6182   -1.0168    0.5001 C   0  0  2  0  0  0  0  0  0  0  0  0
    0.3329    0.0567    1.1696 C   0  0  1  0  0  0  0  0  0  0  0  0
    0.9482    0.2657   -0.2384 C   0  0  1  0  0  0  0  0  0  0  0  0
    0.4731   -1.1090   -0.5878 C   0  0  0  0  0  0  0  0  0  0  0  0
    0.9004   -2.0014   -1.2648 O   0  0  0  0  0  0  0  0  0  0  0  0
    0.7102    2.9293    0.6416 H   0  0  0  0  0  0  0  0  0  0  0  0
   -0.4709    2.9945   -0.6747 H   0  0  0  0  0  0  0  0  0  0  0  0
   -1.0215    2.9264    1.0076 H   0  0  0  0  0  0  0  0  0  0  0  0
   -2.3045    0.3940    0.7227 H   0  0  0  0  0  0  0  0  0  0  0  0
   -1.9228    0.0878   -1.0021 H   0  0  0  0  0  0  0  0  0  0  0  0
   -1.0302   -1.9106    0.9598 H   0  0  0  0  0  0  0  0  0  0  0  0
    0.8406    0.1043    2.1209 H   0  0  0  0  0  0  0  0  0  0  0  0
    1.8763    0.7607   -0.4910 H   0  0  0  0  0  0  0  0  0  0  0  0
  1  9  1  0  0  0  0
  1 11  1  0  0  0  0
  2  6  1  6  0  0  0
  2  1  1  0  0  0  0
  2  5  1  0  0  0  0
  3  2  1  0  0  0  0
  3  4  1  0  0  0  0
  3 12  1  0  0  0  0
  4 14  1  0  0  0  0
  4  5  1  1  0  0  0
  5  6  1  6  0  0  0
  5 15  1  0  0  0  0
  6 16  1  6  0  0  0
  7  6  1  0  0  0  0
  7  4  1  0  0  0  0
  8  7  2  0  0  0  0
 10  1  1  0  0  0  0
 13  3  1  0  0  0  0
M  END
