title
 OpenBabel02282110003D

 15 17  0  0  1  0  0  0  0  0999 V2000
   -0.2913    2.4743    0.4361 C   0  0  0  0  0  0  0  0  0  0  0  0
   -0.3151    0.9817    0.3547 C   0  0  2  0  0  0  0  0  0  0  0  0
   -1.5205    0.0737    0.0594 C   0  0  0  0  0  0  0  0  0  0  0  0
   -0.5872   -1.1104    0.4488 C   0  0  2  0  0  0  0  0  0  0  0  0
    0.3303   -0.0538    1.1743 C   0  0  1  0  0  0  0  0  0  0  0  0
    0.9359    0.3057   -0.1863 N   0  0  0  0  0  0  0  0  0  0  0  0
    0.4727   -1.0044   -0.6391 C   0  0  0  0  0  0  0  0  0  0  0  0
    0.9394   -1.7143   -1.4719 O   0  0  0  0  0  0  0  0  0  0  0  0
    0.6836    2.8271    0.7808 H   0  0  0  0  0  0  0  0  0  0  0  0
   -0.4854    2.9168   -0.5463 H   0  0  0  0  0  0  0  0  0  0  0  0
   -1.0601    2.8306    1.1298 H   0  0  0  0  0  0  0  0  0  0  0  0
   -2.3106    0.2345    0.7976 H   0  0  0  0  0  0  0  0  0  0  0  0
   -1.9448    0.0682   -0.9502 H   0  0  0  0  0  0  0  0  0  0  0  0
   -0.9645   -2.0601    0.8167 H   0  0  0  0  0  0  0  0  0  0  0  0
    0.9386   -0.0734    2.0667 H   0  0  0  0  0  0  0  0  0  0  0  0
  1  9  1  0  0  0  0
  1 11  1  0  0  0  0
  2  1  1  0  0  0  0
  2  5  1  1  0  0  0
  3  2  1  0  0  0  0
  3  4  1  0  0  0  0
  3 12  1  0  0  0  0
  4 14  1  0  0  0  0
  4  5  1  1  0  0  0
  5 15  1  1  0  0  0
  6  2  1  0  0  0  0
  6  5  1  0  0  0  0
  7  6  1  0  0  0  0
  7  4  1  0  0  0  0
  8  7  2  0  0  0  0
 10  1  1  0  0  0  0
 13  3  1  0  0  0  0
M  END
