title
 OpenBabel02282110003D

 15 17  0  0  1  0  0  0  0  0999 V2000
   -0.1998    2.5767    0.2521 C   0  0  0  0  0  0  0  0  0  0  0  0
   -0.2305    1.0782    0.2243 C   0  0  2  0  0  0  0  0  0  0  0  0
   -1.4222    0.1386    0.0288 C   0  0  0  0  0  0  0  0  0  0  0  0
   -0.5618   -0.9989    0.5660 N   0  0  0  0  0  0  0  0  0  0  0  0
    0.3636    0.0799    1.1467 C   0  0  1  0  0  0  0  0  0  0  0  0
    1.0072    0.2310   -0.2282 C   0  0  1  0  0  0  0  0  0  0  0  0
    0.4311   -1.1025   -0.5492 C   0  0  0  0  0  0  0  0  0  0  0  0
    0.6493   -2.0081   -1.2878 O   0  0  0  0  0  0  0  0  0  0  0  0
    0.7667    2.9510    0.6037 H   0  0  0  0  0  0  0  0  0  0  0  0
   -0.3802    2.9951   -0.7436 H   0  0  0  0  0  0  0  0  0  0  0  0
   -0.9728    2.9626    0.9257 H   0  0  0  0  0  0  0  0  0  0  0  0
   -2.2389    0.3485    0.7251 H   0  0  0  0  0  0  0  0  0  0  0  0
   -1.8196   -0.0356   -0.9773 H   0  0  0  0  0  0  0  0  0  0  0  0
    0.8059    0.0678    2.1315 H   0  0  0  0  0  0  0  0  0  0  0  0
    1.9430    0.6949   -0.5101 H   0  0  0  0  0  0  0  0  0  0  0  0
  1  9  1  0  0  0  0
  1 11  1  0  0  0  0
  2  6  1  6  0  0  0
  2  1  1  0  0  0  0
  2  5  1  0  0  0  0
  3  2  1  0  0  0  0
  3  4  1  0  0  0  0
  3 12  1  0  0  0  0
  4  5  1  0  0  0  0
  5  6  1  6  0  0  0
  5 14  1  0  0  0  0
  6 15  1  6  0  0  0
  7  6  1  0  0  0  0
  7  4  1  0  0  0  0
  8  7  2  0  0  0  0
 10  1  1  0  0  0  0
 13  3  1  0  0  0  0
M  END
