15
title
C -0.19983853 2.5767477 0.25213727
C -0.23046713 1.0782014 0.22426964
C -1.4221771 0.13856974 0.028828038
N -0.5618162 -0.99894154 0.56595844
C 0.36359045 0.07989647 1.1467259
C 1.0072106 0.23102424 -0.2281748
C 0.4310998 -1.1025459 -0.5492227
O 0.6492788 -2.008116 -1.2878226
H 0.76670367 2.951016 0.603659
H -0.3801605 2.995135 -0.7436079
H -0.9728389 2.9625785 0.9257409
H -2.2388554 0.3485442 0.7250877
H -1.8195794 -0.035595395 -0.9773339
H 0.80594146 0.06783404 2.1314535
H 1.9430411 0.694889 -0.5101254
