title
 OpenBabel02282110003D

 14 16  0  0  1  0  0  0  0  0999 V2000
   -0.2967    2.5069    0.3027 C   0  0  0  0  0  0  0  0  0  0  0  0
   -0.2007    1.0196    0.2792 C   0  0  2  0  0  0  0  0  0  0  0  0
   -1.3794    0.2531   -0.0231 O   0  0  0  0  0  0  0  0  0  0  0  0
   -0.6598   -0.9117    0.4653 C   0  0  2  0  0  0  0  0  0  0  0  0
    0.3779    0.0109    1.1961 C   0  0  1  0  0  0  0  0  0  0  0  0
    1.0135    0.2255   -0.2286 C   0  0  1  0  0  0  0  0  0  0  0  0
    0.4506   -1.1121   -0.6018 C   0  0  0  0  0  0  0  0  0  0  0  0
    0.8285   -2.0394   -1.2565 O   0  0  0  0  0  0  0  0  0  0  0  0
    0.6542    2.9457    0.6173 H   0  0  0  0  0  0  0  0  0  0  0  0
   -0.5409    2.8890   -0.6932 H   0  0  0  0  0  0  0  0  0  0  0  0
   -1.0773    2.8260    0.9993 H   0  0  0  0  0  0  0  0  0  0  0  0
   -1.2821   -1.7069    0.8652 H   0  0  0  0  0  0  0  0  0  0  0  0
    0.8633    0.0037    2.1604 H   0  0  0  0  0  0  0  0  0  0  0  0
    1.9656    0.6743   -0.4744 H   0  0  0  0  0  0  0  0  0  0  0  0
  1  9  1  0  0  0  0
  1 11  1  0  0  0  0
  2  6  1  6  0  0  0
  2  1  1  0  0  0  0
  2  5  1  0  0  0  0
  3  2  1  0  0  0  0
  3  4  1  0  0  0  0
  4 12  1  0  0  0  0
  4  5  1  1  0  0  0
  5  6  1  6  0  0  0
  5 13  1  0  0  0  0
  6 14  1  6  0  0  0
  7  6  1  0  0  0  0
  7  4  1  0  0  0  0
  8  7  2  0  0  0  0
 10  1  1  0  0  0  0
M  END
