14
title
O 0.13887729 2.1531937 -0.10158691
C 0.33218688 0.7926641 -0.098400004
C 1.298138 -0.0525812 -0.92761546
C 0.47035977 -1.256953 -0.40493017
O 0.7644146 -1.3064399 1.0186976
C 0.010671738 -0.106352754 1.1494703
C -0.75142854 -0.25819916 -0.13377212
O -2.050069 -0.17507559 -0.5397822
H 0.8168549 2.561137 0.44903794
H 1.1483784 0.111147575 -1.9976784
H 2.3630211 -0.06107313 -0.67473006
H 0.47119227 -2.2291803 -0.8923849
H -0.23413369 0.28695714 2.1277692
H -2.568096 -0.8271428 -0.053028814
