title
 OpenBabel02282110003D

 16 18  0  0  1  0  0  0  0  0999 V2000
    0.1624    2.1329   -0.0880 O   0  0  0  0  0  0  0  0  0  0  0  0
    0.3531    0.7693   -0.0734 C   0  0  1  0  0  0  0  0  0  0  0  0
    1.3102   -0.0589   -0.9239 C   0  0  0  0  0  0  0  0  0  0  0  0
    0.4611   -1.2860   -0.4727 C   0  0  1  0  0  0  0  0  0  0  0  0
    0.7450   -1.4112    1.0512 C   0  0  0  0  0  0  0  0  0  0  0  0
    0.0102   -0.0837    1.1992 C   0  0  2  0  0  0  0  0  0  0  0  0
   -0.7217   -0.2649   -0.1202 C   0  0  1  0  0  0  0  0  0  0  0  0
   -2.0259   -0.1532   -0.5116 O   0  0  0  0  0  0  0  0  0  0  0  0
    0.8237    2.5403    0.4823 H   0  0  0  0  0  0  0  0  0  0  0  0
    1.1801    0.1615   -1.9869 H   0  0  0  0  0  0  0  0  0  0  0  0
    2.3772   -0.0733   -0.6705 H   0  0  0  0  0  0  0  0  0  0  0  0
    0.3843   -2.1637   -1.1105 H   0  0  0  0  0  0  0  0  0  0  0  0
    0.1963   -2.2391    1.5112 H   0  0  0  0  0  0  0  0  0  0  0  0
    1.7982   -1.4638    1.3505 H   0  0  0  0  0  0  0  0  0  0  0  0
   -0.3393    0.4285    2.0876 H   0  0  0  0  0  0  0  0  0  0  0  0
   -2.5546   -0.7858   -0.0122 H   0  0  0  0  0  0  0  0  0  0  0  0
  1  2  1  0  0  0  0
  1  9  1  0  0  0  0
  2  7  1  6  0  0  0
  2  6  1  0  0  0  0
  3 11  1  0  0  0  0
  3  4  1  0  0  0  0
  3  2  1  0  0  0  0
  4  7  1  6  0  0  0
  4  5  1  0  0  0  0
  5  6  1  0  0  0  0
  5 14  1  0  0  0  0
  5 13  1  0  0  0  0
  6  7  1  6  0  0  0
  6 15  1  0  0  0  0
  7  8  1  6  0  0  0
  8 16  1  0  0  0  0
 10  3  1  0  0  0  0
 12  4  1  0  0  0  0
M  END
