14
title
C -0.29671454 2.5068507 0.30273438
C -0.20071277 1.019585 0.27916667
O -1.3793538 0.2530904 -0.02312099
C -0.6597962 -0.9117416 0.46531382
C 0.37794885 0.01085863 1.196124
C 1.0135286 0.22548148 -0.22858812
C 0.4505662 -1.1120731 -0.60182416
O 0.8285093 -2.039425 -1.2565278
H 0.6541932 2.9457393 0.61730266
H -0.5408644 2.8890164 -0.69319403
H -1.0772926 2.8260083 0.99930745
H -1.2820884 -1.7069365 0.8651852
H 0.8633384 0.0037499415 2.1604004
H 1.9656364 0.67426735 -0.47435877
