16
title
O 0.1623728 2.13291 -0.08804719
C 0.35307282 0.76934344 -0.073440254
C 1.3101965 -0.05888964 -0.92394
C 0.4610799 -1.2859749 -0.47271502
C 0.7449557 -1.4111906 1.0511906
C 0.0102213165 -0.08374627 1.1992401
C -0.72170246 -0.2648849 -0.120201424
O -2.0258904 -0.15317048 -0.51158196
H 0.8236878 2.5402772 0.48227027
H 1.1800984 0.16154055 -1.9868969
H 2.3771803 -0.07332058 -0.67052126
H 0.38426182 -2.1636581 -1.1105134
H 0.19633177 -2.2390544 1.5111544
H 1.7982103 -1.46375 1.3505452
H -0.33925468 0.42846912 2.0875614
H -2.554647 -0.78579146 -0.012213716
