title
 OpenBabel02282110003D

 18 20  0  0  1  0  0  0  0  0999 V2000
    0.2602    2.2570   -0.0574 C   0  0  0  0  0  0  0  0  0  0  0  0
    0.2791    0.7672   -0.0192 C   0  0  1  0  0  0  0  0  0  0  0  0
    1.2546    0.0622   -0.7968 O   0  0  0  0  0  0  0  0  0  0  0  0
    0.4922   -1.1440   -0.5165 C   0  0  1  0  0  0  0  0  0  0  0  0
    0.7521   -1.4006    0.9888 C   0  0  0  0  0  0  0  0  0  0  0  0
   -0.0487   -0.1184    1.2063 C   0  0  2  0  0  0  0  0  0  0  0  0
   -0.7781   -0.2827   -0.1339 C   0  0  1  0  0  0  0  0  0  0  0  0
   -2.2185   -0.3029   -0.5262 C   0  0  0  0  0  0  0  0  0  0  0  0
    1.1898    2.6676    0.3514 H   0  0  0  0  0  0  0  0  0  0  0  0
    0.1466    2.6221   -1.0832 H   0  0  0  0  0  0  0  0  0  0  0  0
   -0.5709    2.6427    0.5407 H   0  0  0  0  0  0  0  0  0  0  0  0
    0.5906   -1.9096   -1.2842 H   0  0  0  0  0  0  0  0  0  0  0  0
    0.2106   -2.2790    1.3510 H   0  0  0  0  0  0  0  0  0  0  0  0
    1.8011   -1.4395    1.2996 H   0  0  0  0  0  0  0  0  0  0  0  0
   -0.4381    0.2937    2.1297 H   0  0  0  0  0  0  0  0  0  0  0  0
   -2.7565    0.5287   -0.0578 H   0  0  0  0  0  0  0  0  0  0  0  0
   -2.3419   -0.2095   -1.6113 H   0  0  0  0  0  0  0  0  0  0  0  0
   -2.7118   -1.2300   -0.2115 H   0  0  0  0  0  0  0  0  0  0  0  0
  1  2  1  0  0  0  0
  1  9  1  0  0  0  0
  1 11  1  0  0  0  0
  2  7  1  6  0  0  0
  2  6  1  0  0  0  0
  3  4  1  0  0  0  0
  3  2  1  0  0  0  0
  4  7  1  6  0  0  0
  4  5  1  0  0  0  0
  5  6  1  0  0  0  0
  5 14  1  0  0  0  0
  5 13  1  0  0  0  0
  6  7  1  6  0  0  0
  6 15  1  0  0  0  0
  7  8  1  6  0  0  0
  8 18  1  0  0  0  0
  8 16  1  0  0  0  0
 10  1  1  0  0  0  0
 12  4  1  0  0  0  0
 17  8  1  0  0  0  0
M  END
