17
title
C -0.48667675 2.472672 -0.009326691
C -0.31952053 0.9881655 -0.10937757
C -0.35368463 0.13071238 -1.3681523
C -0.6912216 -1.0082202 -0.39584306
C 0.57813984 -1.2139504 0.46580464
O 1.8334078 -1.3977766 -0.14531909
C 0.27794337 0.16784088 0.98939353
N -1.1953768 0.028265517 0.656989
H 0.4074127 2.9901736 -0.37485868
H -1.3431259 2.8113337 -0.60155857
H -0.6541263 2.7749448 1.0290298
H -1.2126139 0.3946443 -1.9914134
H 0.54969877 0.035315674 -1.9766626
H -1.3335074 -1.8409827 -0.6768281
H 0.38975626 -1.9611788 1.2476884
H 1.9601089 -2.3375506 -0.30908465
H 0.6036008 0.60905504 1.9247524
