title
 OpenBabel02282110003D

 17 19  0  0  1  0  0  0  0  0999 V2000
   -0.4867    2.4727   -0.0093 C   0  0  0  0  0  0  0  0  0  0  0  0
   -0.3195    0.9882   -0.1094 C   0  0  1  0  0  0  0  0  0  0  0  0
   -0.3537    0.1307   -1.3682 C   0  0  0  0  0  0  0  0  0  0  0  0
   -0.6912   -1.0082   -0.3958 C   0  0  1  0  0  0  0  0  0  0  0  0
    0.5781   -1.2140    0.4658 C   0  0  1  0  0  0  0  0  0  0  0  0
    1.8334   -1.3978   -0.1453 O   0  0  0  0  0  0  0  0  0  0  0  0
    0.2779    0.1678    0.9894 C   0  0  2  0  0  0  0  0  0  0  0  0
   -1.1954    0.0283    0.6570 N   0  0  1  0  0  0  0  0  0  0  0  0
    0.4074    2.9902   -0.3749 H   0  0  0  0  0  0  0  0  0  0  0  0
   -1.3431    2.8113   -0.6016 H   0  0  0  0  0  0  0  0  0  0  0  0
   -0.6541    2.7749    1.0290 H   0  0  0  0  0  0  0  0  0  0  0  0
   -1.2126    0.3946   -1.9914 H   0  0  0  0  0  0  0  0  0  0  0  0
    0.5497    0.0353   -1.9767 H   0  0  0  0  0  0  0  0  0  0  0  0
   -1.3335   -1.8410   -0.6768 H   0  0  0  0  0  0  0  0  0  0  0  0
    0.3898   -1.9612    1.2477 H   0  0  0  0  0  0  0  0  0  0  0  0
    1.9601   -2.3376   -0.3091 H   0  0  0  0  0  0  0  0  0  0  0  0
    0.6036    0.6091    1.9248 H   0  0  0  0  0  0  0  0  0  0  0  0
  1 11  1  0  0  0  0
  2  1  1  0  0  0  0
  2  8  1  1  0  0  0
  3  4  1  0  0  0  0
  3  2  1  0  0  0  0
  4  5  1  1  0  0  0
  5  7  1  1  0  0  0
  5 15  1  0  0  0  0
  6  5  1  0  0  0  0
  7  2  1  6  0  0  0
  7 17  1  0  0  0  0
  8  4  1  6  0  0  0
  8  7  1  0  0  0  0
  9  1  1  0  0  0  0
 10  1  1  0  0  0  0
 12  3  1  0  0  0  0
 13  3  1  0  0  0  0
 14  4  1  0  0  0  0
 16  6  1  0  0  0  0
M  END
