title
 OpenBabel02282110003D

 13 15  0  0  1  0  0  0  0  0999 V2000
   -0.2119    2.4104   -0.2714 O   0  0  0  0  0  0  0  0  0  0  0  0
   -0.0913    1.0492   -0.2940 C   0  0  2  0  0  0  0  0  0  0  0  0
    0.7087    0.1492   -1.2349 C   0  0  0  0  0  0  0  0  0  0  0  0
   -0.1965   -0.9904   -0.7741 N   0  0  0  0  0  0  0  0  0  0  0  0
   -1.1832    0.0649   -0.2657 C   0  0  1  0  0  0  0  0  0  0  0  0
   -0.3509    0.1688    1.0090 C   0  0  1  0  0  0  0  0  0  0  0  0
    0.2656   -1.1281    0.6457 C   0  0  0  0  0  0  0  0  0  0  0  0
    0.8695   -2.0136    1.1606 O   0  0  0  0  0  0  0  0  0  0  0  0
    0.5834    2.7900    0.1204 H   0  0  0  0  0  0  0  0  0  0  0  0
    0.5266    0.3771   -2.2883 H   0  0  0  0  0  0  0  0  0  0  0  0
    1.7749   -0.0257   -1.0568 H   0  0  0  0  0  0  0  0  0  0  0  0
   -2.2512    0.0582   -0.4193 H   0  0  0  0  0  0  0  0  0  0  0  0
   -0.5826    0.6423    1.9539 H   0  0  0  0  0  0  0  0  0  0  0  0
  1  9  1  0  0  0  0
  2  1  1  0  0  0  0
  2  5  1  6  0  0  0
  3 11  1  0  0  0  0
  3  4  1  0  0  0  0
  3  2  1  0  0  0  0
  4  5  1  0  0  0  0
  4  7  1  0  0  0  0
  5  6  1  1  0  0  0
  6  2  1  6  0  0  0
  6 13  1  0  0  0  0
  7  6  1  0  0  0  0
  7  8  2  0  0  0  0
 10  3  1  0  0  0  0
 12  5  1  0  0  0  0
M  END
