title
 OpenBabel02282110003D

 16 18  0  0  1  0  0  0  0  0999 V2000
   -0.3863    2.5704    0.1414 C   0  0  0  0  0  0  0  0  0  0  0  0
   -0.2866    1.0842    0.1537 C   0  0  2  0  0  0  0  0  0  0  0  0
   -1.4604    0.3030   -0.1362 O   0  0  0  0  0  0  0  0  0  0  0  0
   -0.7166   -0.8385    0.3644 C   0  0  2  0  0  0  0  0  0  0  0  0
    0.3019    0.0993    1.1042 C   0  0  1  0  0  0  0  0  0  0  0  0
    0.9327    0.2524   -0.2852 C   0  0  1  0  0  0  0  0  0  0  0  0
    0.3560   -1.0784   -0.7415 C   0  0  1  0  0  0  0  0  0  0  0  0
    1.2584   -2.1217   -0.4388 O   0  0  0  0  0  0  0  0  0  0  0  0
    0.5668    3.0155    0.4418 H   0  0  0  0  0  0  0  0  0  0  0  0
   -0.6331    2.9356   -0.8610 H   0  0  0  0  0  0  0  0  0  0  0  0
   -1.1621    2.9121    0.8336 H   0  0  0  0  0  0  0  0  0  0  0  0
   -1.3340   -1.6368    0.7741 H   0  0  0  0  0  0  0  0  0  0  0  0
    0.7021    0.1601    2.1061 H   0  0  0  0  0  0  0  0  0  0  0  0
    1.8856    0.6925   -0.5502 H   0  0  0  0  0  0  0  0  0  0  0  0
   -0.0306   -1.1539   -1.7677 H   0  0  0  0  0  0  0  0  0  0  0  0
    0.8169   -2.9555   -0.6314 H   0  0  0  0  0  0  0  0  0  0  0  0
  1  2  1  0  0  0  0
  1  9  1  0  0  0  0
  1 11  1  0  0  0  0
  2  6  1  6  0  0  0
  2  5  1  0  0  0  0
  3  2  1  0  0  0  0
  3  4  1  0  0  0  0
  4  7  1  6  0  0  0
  4 12  1  0  0  0  0
  4  5  1  0  0  0  0
  5  6  1  6  0  0  0
  5 13  1  0  0  0  0
  6  7  1  6  0  0  0
  7 15  1  6  0  0  0
  7  8  1  0  0  0  0
 10  1  1  0  0  0  0
 14  6  1  0  0  0  0
 16  8  1  0  0  0  0
M  END
