14
title
O -0.23041545 2.3963318 -0.3711328
C -0.08512101 1.0309994 -0.36005676
C 0.7644262 0.17231935 -1.2984502
C -0.10886087 -1.0179108 -0.7852652
C -1.1819414 0.037224177 -0.30151695
C -0.2881475 0.22420192 0.9570929
C 0.28457493 -1.1328853 0.705397
O 0.70210063 -2.021809 1.3922218
H 0.538299 2.7920513 0.05568748
H 0.5522273 0.41012043 -2.3445868
H 1.8457794 0.110771246 -1.1327121
H -0.29166844 -1.8948606 -1.3991314
H -2.2578535 0.0808434 -0.36104536
H -0.54441357 0.73140466 1.877321
