13
title
O -0.2119014 2.4104116 -0.2713622
C -0.09125993 1.0492359 -0.29398847
C 0.7087462 0.14921945 -1.2349252
N -0.19648038 -0.9904104 -0.7741146
C -1.1832379 0.06485635 -0.26571152
C -0.3509038 0.16883337 1.0090134
C 0.26555136 -1.1281039 0.6457021
O 0.8695069 -2.0136251 1.1606055
H 0.58337235 2.7900262 0.12041996
H 0.5266011 0.3771429 -2.288262
H 1.77494 -0.02566606 -1.0567752
H -2.2512262 0.058158573 -0.41927755
H -0.582614 0.6422553 1.9538858
