18
title
C -1.0468475 1.9917693 -0.45666963
C -1.3621706 0.52089065 -0.3149054
O -0.6096272 -0.33631632 -1.23249
C -0.19402133 -1.2046678 -0.16394612
C 1.1614174 -0.8157789 0.46001709
C 2.2473166 -0.22838847 -0.41107678
O 0.4940058 0.16647719 1.3160672
C -0.80867875 -0.26820615 0.8887365
H -0.010099637 2.190126 -0.1778966
H -1.2098032 2.31239 -1.4901024
H -1.7030039 2.5833178 0.19093426
H -2.437058 0.33242056 -0.45214757
H -0.42619586 -2.2554634 -0.3462218
H 1.5556182 -1.6271774 1.0892844
H 1.822826 0.47261548 -1.1324
H 2.9836292 0.29316944 0.20791931
H 2.7646961 -1.0237669 -0.95839137
H -1.4699062 -0.529733 1.7167958
