20
title
C -0.2353138 2.7225127 -0.60530907
N -0.16803735 1.28029 -0.60102165
C -1.413924 0.5243121 -0.32205713
C -0.6204139 -0.40777677 0.6163047
C 0.54760385 0.610359 0.5085477
C 1.4309224 -0.5716062 0.059460558
N 0.21294174 -1.4052279 -0.09271129
C 0.24777168 -2.7571769 0.4128305
H 0.7679578 3.142905 -0.7347534
H -0.8475826 3.0608153 -1.4483742
H -0.66918445 3.1520832 0.31952813
H -2.1617007 1.1185578 0.22900192
H -1.8816122 0.06918593 -1.2014178
H -1.0794835 -0.74142486 1.5505818
H 0.89378893 1.258082 1.3182083
H 2.0148866 -0.43998998 -0.8574966
H 2.090468 -0.92037374 0.8714488
H 0.55295354 -2.8287556 1.4757692
H -0.74067247 -3.2188153 0.31329015
H 0.95278656 -3.353467 -0.17663719
