title
 OpenBabel02282110003D

 20 21  0  0  1  0  0  0  0  0999 V2000
   -1.3827    2.1608   -0.4851 C   0  0  0  0  0  0  0  0  0  0  0  0
   -1.4363    0.6436   -0.3838 C   0  0  1  0  0  0  0  0  0  0  0  0
   -0.5247   -0.2271   -1.3033 C   0  0  0  0  0  0  0  0  0  0  0  0
   -0.2150   -1.1707   -0.1041 C   0  0  1  0  0  0  0  0  0  0  0  0
    1.1500   -0.9419    0.5624 C   0  0  1  0  0  0  0  0  0  0  0  0
    2.2225   -0.7838   -0.3399 O   0  0  0  0  0  0  0  0  0  0  0  0
    0.5814    0.3139    1.2937 C   0  0  0  0  0  0  0  0  0  0  0  0
   -0.8565   -0.0963    0.8508 C   0  0  1  0  0  0  0  0  0  0  0  0
   -0.3615    2.5421   -0.3801 H   0  0  0  0  0  0  0  0  0  0  0  0
   -1.7564    2.4977   -1.4587 H   0  0  0  0  0  0  0  0  0  0  0  0
   -1.9978    2.6353    0.2882 H   0  0  0  0  0  0  0  0  0  0  0  0
   -2.4758    0.3173   -0.5082 H   0  0  0  0  0  0  0  0  0  0  0  0
   -1.0208   -0.6936   -2.1571 H   0  0  0  0  0  0  0  0  0  0  0  0
    0.3674    0.2894   -1.6662 H   0  0  0  0  0  0  0  0  0  0  0  0
   -0.5757   -2.1960   -0.1928 H   0  0  0  0  0  0  0  0  0  0  0  0
    1.3613   -1.7447    1.2845 H   0  0  0  0  0  0  0  0  0  0  0  0
    3.0178   -0.5911    0.1664 H   0  0  0  0  0  0  0  0  0  0  0  0
    0.7536    0.3512    2.3720 H   0  0  0  0  0  0  0  0  0  0  0  0
    0.9338    1.2507    0.8540 H   0  0  0  0  0  0  0  0  0  0  0  0
   -1.5409   -0.3489    1.6622 H   0  0  0  0  0  0  0  0  0  0  0  0
  1  2  1  0  0  0  0
  1  9  1  0  0  0  0
  1 11  1  0  0  0  0
  2  8  1  1  0  0  0
  3  2  1  0  0  0  0
  3  4  1  0  0  0  0
  4  5  1  1  0  0  0
  5 16  1  1  0  0  0
  5  7  1  0  0  0  0
  6 17  1  0  0  0  0
  6  5  1  0  0  0  0
  7 18  1  0  0  0  0
  8  4  1  6  0  0  0
  8  7  1  0  0  0  0
  8 20  1  0  0  0  0
 10  1  1  0  0  0  0
 12  2  1  0  0  0  0
 13  3  1  0  0  0  0
 14  3  1  0  0  0  0
 15  4  1  0  0  0  0
 19  7  1  0  0  0  0
M  END
