19
title
C -1.492035 1.8841727 0.06055114
C -1.3441253 0.37329543 0.039147623
C -0.68055147 -0.39162818 -1.1279758
C 0.7399597 0.22378242 -1.210516
C 0.95213675 -0.34039053 0.19751292
C 2.2225978 -0.4124991 0.983204
C -0.12524869 -1.3421774 0.0011040878
N -0.34056643 -0.2368373 0.98078144
H -0.55281836 2.400569 -0.15191576
H -2.2349823 2.2084498 -0.6767259
H -1.833142 2.2089536 1.0490063
H -2.3054135 -0.09267834 0.2847227
H -1.2247406 -0.6702743 -2.0291655
H 1.3638341 -0.3187904 -1.9267005
H 0.83877826 1.2999284 -1.3871636
H 2.5668519 0.58947337 1.2639444
H 2.0721786 -0.9840154 1.9029635
H 3.0174353 -0.8914127 0.40102914
H -0.22533335 -2.3942716 0.23576266
