20
title
C -1.3827239 2.16081 -0.48511487
C -1.4362589 0.64364666 -0.3837746
C -0.5247258 -0.22710405 -1.303329
C -0.21501672 -1.1706743 -0.10407502
C 1.1499841 -0.9419465 0.56241506
O 2.222455 -0.7838124 -0.33993024
C 0.5814452 0.31393206 1.2936716
C -0.85654825 -0.096267745 0.85083663
H -0.36149585 2.54209 -0.38006246
H -1.7563832 2.4976866 -1.458743
H -1.9977803 2.6352766 0.28823206
H -2.4758406 0.3172827 -0.50823087
H -1.0208304 -0.693555 -2.1570706
H 0.36735213 0.28938824 -1.6661557
H -0.57573426 -2.196007 -0.19281289
H 1.3612685 -1.7446618 1.2844613
H 3.0177839 -0.5910549 0.16640474
H 0.7536361 0.351226 2.3719893
H 0.9338424 1.2506917 0.85396945
H -1.540861 -0.34888467 1.6621556
