title
 OpenBabel02282110003D

 18 19  0  0  1  0  0  0  0  0999 V2000
   -1.0468    1.9918   -0.4567 C   0  0  0  0  0  0  0  0  0  0  0  0
   -1.3622    0.5209   -0.3149 C   0  0  1  0  0  0  0  0  0  0  0  0
   -0.6096   -0.3363   -1.2325 O   0  0  0  0  0  0  0  0  0  0  0  0
   -0.1940   -1.2047   -0.1639 C   0  0  1  0  0  0  0  0  0  0  0  0
    1.1614   -0.8158    0.4600 C   0  0  1  0  0  0  0  0  0  0  0  0
    2.2473   -0.2284   -0.4111 C   0  0  0  0  0  0  0  0  0  0  0  0
    0.4940    0.1665    1.3161 O   0  0  0  0  0  0  0  0  0  0  0  0
   -0.8087   -0.2682    0.8887 C   0  0  1  0  0  0  0  0  0  0  0  0
   -0.0101    2.1901   -0.1779 H   0  0  0  0  0  0  0  0  0  0  0  0
   -1.2098    2.3124   -1.4901 H   0  0  0  0  0  0  0  0  0  0  0  0
   -1.7030    2.5833    0.1909 H   0  0  0  0  0  0  0  0  0  0  0  0
   -2.4371    0.3324   -0.4521 H   0  0  0  0  0  0  0  0  0  0  0  0
   -0.4262   -2.2555   -0.3462 H   0  0  0  0  0  0  0  0  0  0  0  0
    1.5556   -1.6272    1.0893 H   0  0  0  0  0  0  0  0  0  0  0  0
    1.8228    0.4726   -1.1324 H   0  0  0  0  0  0  0  0  0  0  0  0
    2.9836    0.2932    0.2079 H   0  0  0  0  0  0  0  0  0  0  0  0
    2.7647   -1.0238   -0.9584 H   0  0  0  0  0  0  0  0  0  0  0  0
   -1.4699   -0.5297    1.7168 H   0  0  0  0  0  0  0  0  0  0  0  0
  1  2  1  0  0  0  0
  1  9  1  0  0  0  0
  1 11  1  0  0  0  0
  2  8  1  1  0  0  0
  3  2  1  0  0  0  0
  3  4  1  0  0  0  0
  4  5  1  1  0  0  0
  5 14  1  1  0  0  0
  5  7  1  0  0  0  0
  6 16  1  0  0  0  0
  6  5  1  0  0  0  0
  8  4  1  6  0  0  0
  8  7  1  0  0  0  0
  8 18  1  0  0  0  0
 10  1  1  0  0  0  0
 12  2  1  0  0  0  0
 13  4  1  0  0  0  0
 15  6  1  0  0  0  0
 17  6  1  0  0  0  0
M  END
