title
 OpenBabel02282110003D

 22 23  0  0  1  0  0  0  0  0999 V2000
   -1.4097    2.1600   -0.4385 C   0  0  0  0  0  0  0  0  0  0  0  0
   -1.4471    0.6411   -0.3554 C   0  0  1  0  0  0  0  0  0  0  0  0
   -0.5547   -0.2078   -1.3138 C   0  0  0  0  0  0  0  0  0  0  0  0
   -0.1962   -1.1638   -0.1341 C   0  0  1  0  0  0  0  0  0  0  0  0
    1.1876   -0.9656    0.5371 C   0  0  1  0  0  0  0  0  0  0  0  0
    2.4566   -0.8505   -0.2946 C   0  0  0  0  0  0  0  0  0  0  0  0
    0.6237    0.2941    1.2654 C   0  0  0  0  0  0  0  0  0  0  0  0
   -0.8238   -0.1120    0.8484 C   0  0  1  0  0  0  0  0  0  0  0  0
   -0.3896    2.5493   -0.3516 H   0  0  0  0  0  0  0  0  0  0  0  0
   -1.8106    2.5077   -1.3975 H   0  0  0  0  0  0  0  0  0  0  0  0
   -2.0091    2.6180    0.3566 H   0  0  0  0  0  0  0  0  0  0  0  0
   -2.4866    0.3064   -0.4563 H   0  0  0  0  0  0  0  0  0  0  0  0
   -1.0714   -0.6686   -2.1590 H   0  0  0  0  0  0  0  0  0  0  0  0
    0.3039    0.3435   -1.7093 H   0  0  0  0  0  0  0  0  0  0  0  0
   -0.5710   -2.1843   -0.2341 H   0  0  0  0  0  0  0  0  0  0  0  0
    1.3188   -1.7671    1.2741 H   0  0  0  0  0  0  0  0  0  0  0  0
    2.3833   -0.0556   -1.0446 H   0  0  0  0  0  0  0  0  0  0  0  0
    3.3194   -0.6204    0.3408 H   0  0  0  0  0  0  0  0  0  0  0  0
    2.6742   -1.7862   -0.8223 H   0  0  0  0  0  0  0  0  0  0  0  0
    0.8123    0.3445    2.3404 H   0  0  0  0  0  0  0  0  0  0  0  0
    0.9600    1.2374    0.8242 H   0  0  0  0  0  0  0  0  0  0  0  0
   -1.4842   -0.3863    1.6733 H   0  0  0  0  0  0  0  0  0  0  0  0
  1  2  1  0  0  0  0
  1  9  1  0  0  0  0
  1 11  1  0  0  0  0
  2  8  1  1  0  0  0
  3  2  1  0  0  0  0
  3  4  1  0  0  0  0
  4  5  1  1  0  0  0
  5  7  1  0  0  0  0
  5 16  1  1  0  0  0
  6 18  1  0  0  0  0
  6  5  1  0  0  0  0
  7 20  1  0  0  0  0
  8  4  1  6  0  0  0
  8  7  1  0  0  0  0
  8 22  1  0  0  0  0
 10  1  1  0  0  0  0
 12  2  1  0  0  0  0
 13  3  1  0  0  0  0
 14  3  1  0  0  0  0
 15  4  1  0  0  0  0
 17  6  1  0  0  0  0
 19  6  1  0  0  0  0
 21  7  1  0  0  0  0
M  END
