title
 OpenBabel02282110003D

 19 21  0  0  1  0  0  0  0  0999 V2000
   -1.1636    2.3798    0.2485 C   0  0  0  0  0  0  0  0  0  0  0  0
   -1.0850    0.8566    0.2749 C   0  0  1  0  0  0  0  0  0  0  0  0
   -0.2601    0.2680   -0.8604 C   0  0  1  0  0  0  0  0  0  0  0  0
    1.0273    0.3375   -0.0747 N   0  0  1  0  0  0  0  0  0  0  0  0
    0.0580    0.3020    1.1546 C   0  0  2  0  0  0  0  0  0  0  0  0
   -0.0147   -1.2299    1.0464 C   0  0  0  0  0  0  0  0  0  0  0  0
    0.3994   -0.9950   -0.3998 C   0  0  1  0  0  0  0  0  0  0  0  0
    1.0446   -1.9719   -1.3335 C   0  0  0  0  0  0  0  0  0  0  0  0
   -0.1734    2.8177    0.0892 H   0  0  0  0  0  0  0  0  0  0  0  0
   -1.8210    2.7270   -0.5559 H   0  0  0  0  0  0  0  0  0  0  0  0
   -1.5615    2.7657    1.1932 H   0  0  0  0  0  0  0  0  0  0  0  0
   -2.0784    0.4233    0.4495 H   0  0  0  0  0  0  0  0  0  0  0  0
   -0.2858    0.5460   -1.9099 H   0  0  0  0  0  0  0  0  0  0  0  0
    0.3499    0.8007    2.0781 H   0  0  0  0  0  0  0  0  0  0  0  0
    0.7928   -1.7154    1.6024 H   0  0  0  0  0  0  0  0  0  0  0  0
   -0.9671   -1.7257    1.2670 H   0  0  0  0  0  0  0  0  0  0  0  0
    0.3227   -2.7219   -1.6767 H   0  0  0  0  0  0  0  0  0  0  0  0
    1.4455   -1.4590   -2.2132 H   0  0  0  0  0  0  0  0  0  0  0  0
    1.8718   -2.4956   -0.8427 H   0  0  0  0  0  0  0  0  0  0  0  0
  1  2  1  0  0  0  0
  1 11  1  0  0  0  0
  2  3  1  6  0  0  0
  2 12  1  0  0  0  0
  2  5  1  0  0  0  0
  3  7  1  1  0  0  0
  4  3  1  6  0  0  0
  5  4  1  6  0  0  0
  5 14  1  0  0  0  0
  6  5  1  0  0  0  0
  6 16  1  0  0  0  0
  6 15  1  0  0  0  0
  7  4  1  1  0  0  0
  7  6  1  0  0  0  0
  8 19  1  0  0  0  0
  8  7  1  0  0  0  0
  9  1  1  0  0  0  0
 10  1  1  0  0  0  0
 13  3  1  0  0  0  0
 17  8  1  0  0  0  0
 18  8  1  0  0  0  0
M  END
