title
 OpenBabel02282110003D

 18 19  0  0  1  0  0  0  0  0999 V2000
   -1.0942    1.9936   -0.6200 C   0  0  0  0  0  0  0  0  0  0  0  0
   -1.3507    0.5236   -0.3707 C   0  0  1  0  0  0  0  0  0  0  0  0
   -0.5057   -0.3534   -1.1826 O   0  0  0  0  0  0  0  0  0  0  0  0
   -0.2055   -1.1878   -0.0392 C   0  0  1  0  0  0  0  0  0  0  0  0
    1.1888   -0.8112    0.5325 C   0  0  1  0  0  0  0  0  0  0  0  0
    2.1021   -0.3409   -0.4159 O   0  0  0  0  0  0  0  0  0  0  0  0
    0.4898    0.2264    1.4823 C   0  0  0  0  0  0  0  0  0  0  0  0
   -0.8996   -0.1865    0.9257 C   0  0  1  0  0  0  0  0  0  0  0  0
   -0.0507    2.2621   -0.4368 H   0  0  0  0  0  0  0  0  0  0  0  0
   -1.3311    2.2422   -1.6594 H   0  0  0  0  0  0  0  0  0  0  0  0
   -1.7314    2.6051    0.0280 H   0  0  0  0  0  0  0  0  0  0  0  0
   -2.4032    0.2929   -0.5885 H   0  0  0  0  0  0  0  0  0  0  0  0
   -0.4743   -2.2343   -0.2028 H   0  0  0  0  0  0  0  0  0  0  0  0
    1.6663   -1.6257    1.0857 H   0  0  0  0  0  0  0  0  0  0  0  0
    1.5577    0.0285   -1.1275 H   0  0  0  0  0  0  0  0  0  0  0  0
    0.6142   -0.0087    2.5421 H   0  0  0  0  0  0  0  0  0  0  0  0
    0.7904    1.2645    1.3252 H   0  0  0  0  0  0  0  0  0  0  0  0
   -1.6765   -0.4562    1.6390 H   0  0  0  0  0  0  0  0  0  0  0  0
  1  9  1  0  0  0  0
  1  2  1  0  0  0  0
  1 11  1  0  0  0  0
  2  8  1  1  0  0  0
  3  2  1  0  0  0  0
  3  4  1  0  0  0  0
  4  5  1  1  0  0  0
  5 14  1  1  0  0  0
  5  7  1  0  0  0  0
  6  5  1  0  0  0  0
  7 16  1  0  0  0  0
  8  4  1  6  0  0  0
  8  7  1  0  0  0  0
  8 18  1  0  0  0  0
 10  1  1  0  0  0  0
 12  2  1  0  0  0  0
 13  4  1  0  0  0  0
 15  6  1  0  0  0  0
 17  7  1  0  0  0  0
M  END
