title
 OpenBabel02282110003D

 19 21  0  0  1  0  0  0  0  0999 V2000
    0.0375    1.7863   -1.5493 C   0  0  0  0  0  0  0  0  0  0  0  0
    0.0327    0.3394   -1.3871 N   0  0  0  0  0  0  0  0  0  0  0  0
   -0.9044   -0.2714   -0.4523 C   0  0  1  0  0  0  0  0  0  0  0  0
    0.0498   -1.3602   -0.0834 C   0  0  1  0  0  0  0  0  0  0  0  0
    1.1155   -0.3204   -0.6009 C   0  0  2  0  0  0  0  0  0  0  0  0
    1.1076    0.3075    0.8266 C   0  0  0  0  0  0  0  0  0  0  0  0
   -0.2810   -0.3175    0.9759 C   0  0  1  0  0  0  0  0  0  0  0  0
   -1.1007   -0.4652    2.2219 C   0  0  0  0  0  0  0  0  0  0  0  0
    0.9167    2.0788   -2.1336 H   0  0  0  0  0  0  0  0  0  0  0  0
   -0.8519    2.0792   -2.1179 H   0  0  0  0  0  0  0  0  0  0  0  0
    0.0388    2.3605   -0.6095 H   0  0  0  0  0  0  0  0  0  0  0  0
   -1.9749   -0.3100   -0.6204 H   0  0  0  0  0  0  0  0  0  0  0  0
   -0.0219   -2.4375   -0.1196 H   0  0  0  0  0  0  0  0  0  0  0  0
    2.0469   -0.5261   -1.1272 H   0  0  0  0  0  0  0  0  0  0  0  0
    1.8316   -0.2031    1.4687 H   0  0  0  0  0  0  0  0  0  0  0  0
    1.2354    1.3912    0.9272 H   0  0  0  0  0  0  0  0  0  0  0  0
   -1.4131    0.5116    2.6099 H   0  0  0  0  0  0  0  0  0  0  0  0
   -2.0085   -1.0492    2.0319 H   0  0  0  0  0  0  0  0  0  0  0  0
   -0.5424   -0.9746    3.0163 H   0  0  0  0  0  0  0  0  0  0  0  0
  1  2  1  0  0  0  0
  1 11  1  0  0  0  0
  2  5  1  0  0  0  0
  2  3  1  0  0  0  0
  3  4  1  6  0  0  0
  4  5  1  6  0  0  0
  4  7  1  0  0  0  0
  5 14  1  6  0  0  0
  5  6  1  0  0  0  0
  6 16  1  0  0  0  0
  6  7  1  0  0  0  0
  6 15  1  0  0  0  0
  7  3  1  6  0  0  0
  7  8  1  0  0  0  0
  8 17  1  0  0  0  0
  8 19  1  0  0  0  0
  9  1  1  0  0  0  0
 10  1  1  0  0  0  0
 12  3  1  0  0  0  0
 13  4  1  0  0  0  0
 18  8  1  0  0  0  0
M  END
