title
 OpenBabel02282110003D

 18 19  0  0  1  0  0  0  0  0999 V2000
   -1.1676    2.2317   -0.6153 C   0  0  0  0  0  0  0  0  0  0  0  0
   -1.3661    0.7272   -0.5032 C   0  0  1  0  0  0  0  0  0  0  0  0
   -0.5287   -0.2148   -1.4209 C   0  0  0  0  0  0  0  0  0  0  0  0
   -0.2020   -1.1319   -0.1919 C   0  0  2  0  0  0  0  0  0  0  0  0
   -0.8570   -0.0441    0.7474 C   0  0  1  0  0  0  0  0  0  0  0  0
    0.5532    0.3297    1.2931 C   0  0  0  0  0  0  0  0  0  0  0  0
    1.1547   -0.7965    0.4249 C   0  0  0  0  0  0  0  0  0  0  0  0
    2.2531   -1.2617    0.3229 O   0  0  0  0  0  0  0  0  0  0  0  0
   -0.1116    2.5117   -0.5407 H   0  0  0  0  0  0  0  0  0  0  0  0
   -1.5326    2.5994   -1.5807 H   0  0  0  0  0  0  0  0  0  0  0  0
   -1.7127    2.7654    0.1712 H   0  0  0  0  0  0  0  0  0  0  0  0
   -2.4295    0.4992   -0.6338 H   0  0  0  0  0  0  0  0  0  0  0  0
   -1.0874   -0.7123   -2.2156 H   0  0  0  0  0  0  0  0  0  0  0  0
    0.3535    0.2509   -1.8702 H   0  0  0  0  0  0  0  0  0  0  0  0
   -0.5020   -2.1778   -0.2586 H   0  0  0  0  0  0  0  0  0  0  0  0
   -1.5921   -0.2961    1.5115 H   0  0  0  0  0  0  0  0  0  0  0  0
    0.9299    1.3374    1.0979 H   0  0  0  0  0  0  0  0  0  0  0  0
    0.6818    0.1258    2.3611 H   0  0  0  0  0  0  0  0  0  0  0  0
  1  9  1  0  0  0  0
  1  2  1  0  0  0  0
  1 11  1  0  0  0  0
  2  5  1  1  0  0  0
  3  2  1  0  0  0  0
  3  4  1  0  0  0  0
  4  7  1  0  0  0  0
  4  5  1  1  0  0  0
  5  6  1  0  0  0  0
  5 16  1  1  0  0  0
  6 18  1  0  0  0  0
  7  6  1  0  0  0  0
  8  7  2  0  0  0  0
 10  1  1  0  0  0  0
 12  2  1  0  0  0  0
 13  3  1  0  0  0  0
 14  3  1  0  0  0  0
 15  4  1  0  0  0  0
 17  6  1  0  0  0  0
M  END
