title
 OpenBabel02282110003D

 18 19  0  0  1  0  0  0  0  0999 V2000
    0.7439    1.8034   -0.1190 O   0  0  0  0  0  0  0  0  0  0  0  0
    0.9820    0.6281   -0.8531 C   0  0  1  0  0  0  0  0  0  0  0  0
    1.5060   -0.5923   -0.0328 C   0  0  0  0  0  0  0  0  0  0  0  0
    0.1465   -1.2938   -0.2205 C   0  0  1  0  0  0  0  0  0  0  0  0
   -1.0072   -0.7772    0.6978 C   0  0  1  0  0  0  0  0  0  0  0  0
   -0.5048   -0.0369    1.8092 O   0  0  0  0  0  0  0  0  0  0  0  0
   -1.5578    0.0936   -0.4731 C   0  0  0  0  0  0  0  0  0  0  0  0
   -0.2832   -0.2180   -1.2784 C   0  0  1  0  0  0  0  0  0  0  0  0
    0.3887    1.5255    0.7380 H   0  0  0  0  0  0  0  0  0  0  0  0
    1.6126    0.9187   -1.6971 H   0  0  0  0  0  0  0  0  0  0  0  0
    2.3071   -1.1255   -0.5529 H   0  0  0  0  0  0  0  0  0  0  0  0
    1.8300   -0.3788    0.9882 H   0  0  0  0  0  0  0  0  0  0  0  0
    0.1347   -2.3679   -0.4080 H   0  0  0  0  0  0  0  0  0  0  0  0
   -1.6872   -1.5612    1.0510 H   0  0  0  0  0  0  0  0  0  0  0  0
   -1.2595    0.3042    2.3007 H   0  0  0  0  0  0  0  0  0  0  0  0
   -2.4566   -0.3394   -0.9210 H   0  0  0  0  0  0  0  0  0  0  0  0
   -1.7434    1.1464   -0.2421 H   0  0  0  0  0  0  0  0  0  0  0  0
   -0.3759   -0.4253   -2.3450 H   0  0  0  0  0  0  0  0  0  0  0  0
  1  9  1  0  0  0  0
  2  8  1  6  0  0  0
  2  1  1  0  0  0  0
  2  3  1  0  0  0  0
  3 12  1  0  0  0  0
  4  8  1  6  0  0  0
  4  3  1  0  0  0  0
  5  4  1  6  0  0  0
  5 14  1  0  0  0  0
  5  6  1  0  0  0  0
  6 15  1  0  0  0  0
  7 17  1  0  0  0  0
  7  5  1  0  0  0  0
  8 18  1  6  0  0  0
  8  7  1  0  0  0  0
 10  2  1  0  0  0  0
 11  3  1  0  0  0  0
 13  4  1  0  0  0  0
 16  7  1  0  0  0  0
M  END
