17
title
C -1.6890631 1.7145928 -0.5206476
C -1.5068374 0.20446658 -0.5106924
C -0.4389971 -0.42938423 -1.4585992
C 0.21117264 -1.1665694 -0.24519718
C -0.8000397 -0.4571675 0.7146341
N 0.34433204 0.2630001 1.2748866
C 1.2898061 -0.2969094 0.43279946
O 2.4668252 -0.10283352 0.29314196
H -0.73844045 2.2304537 -0.349597
H -2.077848 2.0537622 -1.4865668
H -2.3946292 2.0373251 0.25349748
H -2.4745877 -0.28568935 -0.66093373
H -0.85803735 -1.1018804 -2.2091684
H 0.22743171 0.27485964 -1.9632485
H 0.36455804 -2.2420945 -0.2954523
H -1.4155072 -0.9739932 1.4526322
H 0.38886565 1.1201389 1.809018
