title
 OpenBabel02282110003D

 16 17  0  0  1  0  0  0  0  0999 V2000
   -1.0896    2.1375   -0.5205 C   0  0  0  0  0  0  0  0  0  0  0  0
   -1.3475    0.6431   -0.4834 C   0  0  1  0  0  0  0  0  0  0  0  0
   -0.4891   -0.1793   -1.3963 N   0  0  0  0  0  0  0  0  0  0  0  0
   -0.1609   -1.1296   -0.2965 C   0  0  2  0  0  0  0  0  0  0  0  0
   -0.8391   -0.1836    0.7202 C   0  0  1  0  0  0  0  0  0  0  0  0
    0.4739    0.2177    1.2159 O   0  0  0  0  0  0  0  0  0  0  0  0
    1.1206   -0.7069    0.3985 C   0  0  0  0  0  0  0  0  0  0  0  0
    2.3275   -1.0271    0.3298 N   0  0  0  0  0  0  0  0  0  0  0  0
   -0.0401    2.3477   -0.3033 H   0  0  0  0  0  0  0  0  0  0  0  0
   -1.3241    2.5399   -1.5108 H   0  0  0  0  0  0  0  0  0  0  0  0
   -1.7129    2.6573    0.2152 H   0  0  0  0  0  0  0  0  0  0  0  0
   -2.4177    0.4322   -0.6217 H   0  0  0  0  0  0  0  0  0  0  0  0
   -0.9959   -0.6109   -2.1594 H   0  0  0  0  0  0  0  0  0  0  0  0
   -0.3643   -2.1885   -0.4476 H   0  0  0  0  0  0  0  0  0  0  0  0
   -1.5086   -0.4491    1.5364 H   0  0  0  0  0  0  0  0  0  0  0  0
    2.8989   -0.4814    0.9775 H   0  0  0  0  0  0  0  0  0  0  0  0
  1  2  1  0  0  0  0
  1  9  1  0  0  0  0
  1 11  1  0  0  0  0
  2  5  1  1  0  0  0
  3  2  1  0  0  0  0
  3  4  1  0  0  0  0
  4  7  1  0  0  0  0
  4  5  1  1  0  0  0
  5  6  1  0  0  0  0
  5 15  1  1  0  0  0
  7  6  1  0  0  0  0
  8  7  2  0  0  0  0
  8 16  1  0  0  0  0
 10  1  1  0  0  0  0
 12  2  1  0  0  0  0
 13  3  1  0  0  0  0
 14  4  1  0  0  0  0
M  END
