17
title
C -1.112156 2.1038744 -0.62837034
C -1.3556885 0.6080805 -0.5321562
C -0.54645693 -0.34072867 -1.4629892
C -0.13996094 -1.113408 -0.18123236
N -0.8864037 -0.12912837 0.7053163
C 0.39588565 0.35286447 1.3080015
C 1.179987 -0.671366 0.4645317
O 2.3239458 -1.0016613 0.37011263
H -0.048650563 2.3585389 -0.67418665
H -1.5786141 2.492802 -1.5396483
H -1.5562781 2.6282878 0.22471961
H -2.4317849 0.4254409 -0.6219929
H -1.1334622 -0.9163227 -2.180676
H 0.2874654 0.12794137 -1.99291
H -0.39601237 -2.1745045 -0.12074823
H 0.65593415 1.4028748 1.1444793
H 0.44057578 0.15508515 2.3851075
