title
 OpenBabel02282110003D

 17 18  0  0  1  0  0  0  0  0999 V2000
   -1.1122    2.1039   -0.6284 C   0  0  0  0  0  0  0  0  0  0  0  0
   -1.3557    0.6081   -0.5322 C   0  0  1  0  0  0  0  0  0  0  0  0
   -0.5465   -0.3407   -1.4630 C   0  0  0  0  0  0  0  0  0  0  0  0
   -0.1400   -1.1134   -0.1812 C   0  0  2  0  0  0  0  0  0  0  0  0
   -0.8864   -0.1291    0.7053 N   0  0  1  0  0  0  0  0  0  0  0  0
    0.3959    0.3529    1.3080 C   0  0  0  0  0  0  0  0  0  0  0  0
    1.1800   -0.6714    0.4645 C   0  0  0  0  0  0  0  0  0  0  0  0
    2.3239   -1.0017    0.3701 O   0  0  0  0  0  0  0  0  0  0  0  0
   -0.0487    2.3585   -0.6742 H   0  0  0  0  0  0  0  0  0  0  0  0
   -1.5786    2.4928   -1.5396 H   0  0  0  0  0  0  0  0  0  0  0  0
   -1.5563    2.6283    0.2247 H   0  0  0  0  0  0  0  0  0  0  0  0
   -2.4318    0.4254   -0.6220 H   0  0  0  0  0  0  0  0  0  0  0  0
   -1.1335   -0.9163   -2.1807 H   0  0  0  0  0  0  0  0  0  0  0  0
    0.2875    0.1279   -1.9929 H   0  0  0  0  0  0  0  0  0  0  0  0
   -0.3960   -2.1745   -0.1207 H   0  0  0  0  0  0  0  0  0  0  0  0
    0.6559    1.4029    1.1445 H   0  0  0  0  0  0  0  0  0  0  0  0
    0.4406    0.1551    2.3851 H   0  0  0  0  0  0  0  0  0  0  0  0
  1  2  1  0  0  0  0
  1 11  1  0  0  0  0
  2  5  1  1  0  0  0
  3  2  1  0  0  0  0
  3  4  1  0  0  0  0
  4 15  1  0  0  0  0
  4  7  1  0  0  0  0
  4  5  1  1  0  0  0
  5  6  1  1  0  0  0
  6 17  1  0  0  0  0
  7  6  1  0  0  0  0
  8  7  2  0  0  0  0
  9  1  1  0  0  0  0
 10  1  1  0  0  0  0
 12  2  1  0  0  0  0
 13  3  1  0  0  0  0
 14  3  1  0  0  0  0
 16  6  1  0  0  0  0
M  END
