18
title
C -1.1675534 2.2316673 -0.6152775
C -1.3661053 0.7272465 -0.5031608
C -0.52871984 -0.21476448 -1.4208758
C -0.20201534 -1.1318544 -0.19188972
C -0.8570431 -0.044107854 0.7473576
C 0.5532308 0.32967973 1.2931323
C 1.1546952 -0.7965466 0.4248533
O 2.2531092 -1.2617491 0.32294425
H -0.11156911 2.5116756 -0.5407129
H -1.5326321 2.5993557 -1.580675
H -1.712739 2.7653563 0.17122431
H -2.429494 0.4991694 -0.6338091
H -1.0874193 -0.7123039 -2.2156441
H 0.3534965 0.25093123 -1.8701649
H -0.5019649 -2.1777797 -0.2586125
H -1.5921375 -0.29606664 1.5115069
H 0.9298704 1.3374363 1.0978949
H 0.68179613 0.12576443 2.3611217
