title
 OpenBabel02282110003D

 17 18  0  0  1  0  0  0  0  0999 V2000
   -0.2149    2.6933   -0.3066 C   0  0  0  0  0  0  0  0  0  0  0  0
   -0.1576    1.2519   -0.3709 N   0  0  0  0  0  0  0  0  0  0  0  0
   -1.4086    0.4893   -0.1806 C   0  0  0  0  0  0  0  0  0  0  0  0
   -0.6466   -0.5177    0.7146 C   0  0  2  0  0  0  0  0  0  0  0  0
    0.5339    0.5097    0.7096 C   0  0  1  0  0  0  0  0  0  0  0  0
    1.5135   -0.5482    0.1439 C   0  0  0  0  0  0  0  0  0  0  0  0
    0.2938   -1.4799   -0.0451 C   0  0  0  0  0  0  0  0  0  0  0  0
    0.1324   -2.5456   -0.5618 O   0  0  0  0  0  0  0  0  0  0  0  0
    0.7963    3.1086   -0.3721 H   0  0  0  0  0  0  0  0  0  0  0  0
   -0.7884    3.0783   -1.1564 H   0  0  0  0  0  0  0  0  0  0  0  0
   -0.6842    3.0760    0.6203 H   0  0  0  0  0  0  0  0  0  0  0  0
   -2.1666    1.0382    0.4005 H   0  0  0  0  0  0  0  0  0  0  0  0
   -1.8702    0.1121   -1.0994 H   0  0  0  0  0  0  0  0  0  0  0  0
   -1.1451   -0.9136    1.5982 H   0  0  0  0  0  0  0  0  0  0  0  0
    0.8272    1.0923    1.5865 H   0  0  0  0  0  0  0  0  0  0  0  0
    2.0825   -0.2809   -0.7488 H   0  0  0  0  0  0  0  0  0  0  0  0
    2.1906   -0.9624    0.9016 H   0  0  0  0  0  0  0  0  0  0  0  0
  1 11  1  0  0  0  0
  2  1  1  0  0  0  0
  2  3  1  0  0  0  0
  2  5  1  0  0  0  0
  3 12  1  0  0  0  0
  3  4  1  0  0  0  0
  4  5  1  1  0  0  0
  4 14  1  0  0  0  0
  5 15  1  1  0  0  0
  6  5  1  0  0  0  0
  6 17  1  0  0  0  0
  7  6  1  0  0  0  0
  7  4  1  0  0  0  0
  8  7  2  0  0  0  0
  9  1  1  0  0  0  0
 10  1  1  0  0  0  0
 13  3  1  0  0  0  0
 16  6  1  0  0  0  0
M  END
