15
title
O 1.025708 1.5886203 -0.9186314
C 1.152347 0.19083866 -1.0295779
C 1.4256104 -0.5783304 0.30564407
N 0.022771124 -1.1063484 0.29008391
C -0.24098039 -0.50162727 -1.0658793
C -1.4571779 0.2605221 -0.50223625
C -0.96465397 -0.2510252 0.87032354
O -1.1868145 0.0041782367 2.016118
H 1.8957274 1.9641645 -0.7483636
H 1.8161378 -0.089661665 -1.8578357
H 2.1625144 -1.382037 0.22724178
H 1.6461655 0.044664156 1.1768284
H -0.40933216 -1.1954948 -1.8903838
H -1.4300451 1.3472326 -0.58748764
H -2.4293997 -0.114881985 -0.82946736
