16
title
C -0.9808191 2.073541 -0.596961
C -1.3398412 0.6140772 -0.4274457
O -0.5877806 -0.26811966 -1.3056226
C -0.18372858 -1.1135185 -0.2087162
C -0.867579 -0.17279835 0.8233994
N 0.46704054 0.12847482 1.3415655
C 1.1474032 -0.64882046 0.3903289
N 2.3494842 -0.88625294 0.089828625
H 0.07537687 2.2476077 -0.37388024
H -1.1631758 2.384426 -1.6299293
H -1.5935766 2.7000039 0.060574014
H -2.4153388 0.4583328 -0.59346235
H -0.37991273 -2.173109 -0.3699789
H -1.606169 -0.46127543 1.5707456
H 0.78013253 1.0019457 1.7439278
H 3.0011628 -0.33868846 0.6555618
