15
title
O 1.0989012 1.5963689 -1.110383
C 1.1832879 0.19611779 -1.009294
C 1.4654633 -0.44495746 0.38733226
C 0.095042884 -1.1927612 0.31199497
C -0.2115044 -0.47900435 -1.0486943
N -1.2702656 0.25336692 -0.3582853
C -1.0207765 -0.29878592 0.889679
O -1.4764681 -0.07846198 1.9779321
H 1.9778714 1.9677267 -0.98485345
H 1.8431796 -0.22628231 -1.7803676
H 2.333358 -1.1071869 0.39826185
H 1.5463051 0.26239702 1.215743
H 0.064059675 -2.2671316 0.47421855
H -0.52162164 -0.9813074 -1.9652545
H -1.609705 1.1843274 -0.56059504
