title
 OpenBabel02282110003D

 15 16  0  0  1  0  0  0  0  0999 V2000
   -1.0067    2.0770   -0.5251 C   0  0  0  0  0  0  0  0  0  0  0  0
   -1.3414    0.6057   -0.4411 C   0  0  1  0  0  0  0  0  0  0  0  0
   -0.5642   -0.2261   -1.3582 O   0  0  0  0  0  0  0  0  0  0  0  0
   -0.1596   -1.1137   -0.2964 C   0  0  2  0  0  0  0  0  0  0  0  0
   -0.8488   -0.2267    0.7569 C   0  0  1  0  0  0  0  0  0  0  0  0
    0.4519    0.1926    1.2617 O   0  0  0  0  0  0  0  0  0  0  0  0
    1.1222   -0.6513    0.3765 C   0  0  0  0  0  0  0  0  0  0  0  0
    2.3413   -0.8944    0.2446 N   0  0  0  0  0  0  0  0  0  0  0  0
    0.0351    2.2547   -0.2515 H   0  0  0  0  0  0  0  0  0  0  0  0
   -1.1701    2.4357   -1.5454 H   0  0  0  0  0  0  0  0  0  0  0  0
   -1.6516    2.6521    0.1477 H   0  0  0  0  0  0  0  0  0  0  0  0
   -2.4114    0.4303   -0.6197 H   0  0  0  0  0  0  0  0  0  0  0  0
   -0.3176   -2.1700   -0.5107 H   0  0  0  0  0  0  0  0  0  0  0  0
   -1.5215   -0.5277    1.5568 H   0  0  0  0  0  0  0  0  0  0  0  0
    2.9099   -0.3483    0.8946 H   0  0  0  0  0  0  0  0  0  0  0  0
  1  2  1  0  0  0  0
  1  9  1  0  0  0  0
  1 11  1  0  0  0  0
  2  5  1  1  0  0  0
  3  2  1  0  0  0  0
  3  4  1  0  0  0  0
  4  7  1  0  0  0  0
  4  5  1  1  0  0  0
  5  6  1  0  0  0  0
  5 14  1  1  0  0  0
  7  6  1  0  0  0  0
  8  7  2  0  0  0  0
  8 15  1  0  0  0  0
 10  1  1  0  0  0  0
 12  2  1  0  0  0  0
 13  4  1  0  0  0  0
M  END
