14
title
C -1.0163792 2.0720146 -0.5200349
C -1.3540142 0.60232574 -0.4316425
O -0.5846946 -0.23434669 -1.3555498
C -0.18211122 -1.1208819 -0.29539955
C -0.8543551 -0.23368949 0.76221764
O 0.44965604 0.1867451 1.2576374
C 1.1245947 -0.6359224 0.36555085
O 2.2952628 -0.7831277 0.26162836
H 0.027661245 2.2500522 -0.255106
H -1.1883265 2.4295783 -1.5393224
H -1.6551576 2.6480734 0.1575292
H -2.4239638 0.42538166 -0.60405684
H -0.3345439 -2.1796632 -0.5036593
H -1.5180709 -0.53655833 1.5677521
