title
 OpenBabel02282110003D

 15 16  0  0  1  0  0  0  0  0999 V2000
    1.0989    1.5964   -1.1104 O   0  0  0  0  0  0  0  0  0  0  0  0
    1.1833    0.1961   -1.0093 C   0  0  1  0  0  0  0  0  0  0  0  0
    1.4655   -0.4450    0.3873 C   0  0  0  0  0  0  0  0  0  0  0  0
    0.0950   -1.1928    0.3120 C   0  0  2  0  0  0  0  0  0  0  0  0
   -0.2115   -0.4790   -1.0487 C   0  0  1  0  0  0  0  0  0  0  0  0
   -1.2703    0.2534   -0.3583 N   0  0  0  0  0  0  0  0  0  0  0  0
   -1.0208   -0.2988    0.8897 C   0  0  0  0  0  0  0  0  0  0  0  0
   -1.4765   -0.0785    1.9779 O   0  0  0  0  0  0  0  0  0  0  0  0
    1.9779    1.9677   -0.9849 H   0  0  0  0  0  0  0  0  0  0  0  0
    1.8432   -0.2263   -1.7804 H   0  0  0  0  0  0  0  0  0  0  0  0
    2.3334   -1.1072    0.3983 H   0  0  0  0  0  0  0  0  0  0  0  0
    1.5463    0.2624    1.2157 H   0  0  0  0  0  0  0  0  0  0  0  0
    0.0641   -2.2671    0.4742 H   0  0  0  0  0  0  0  0  0  0  0  0
   -0.5216   -0.9813   -1.9653 H   0  0  0  0  0  0  0  0  0  0  0  0
   -1.6097    1.1843   -0.5606 H   0  0  0  0  0  0  0  0  0  0  0  0
  1  2  1  0  0  0  0
  1  9  1  0  0  0  0
  2  5  1  6  0  0  0
  2  3  1  0  0  0  0
  3 11  1  0  0  0  0
  3 12  1  0  0  0  0
  4  5  1  6  0  0  0
  4  3  1  0  0  0  0
  4 13  1  0  0  0  0
  4  7  1  0  0  0  0
  5 14  1  6  0  0  0
  5  6  1  0  0  0  0
  6  7  1  0  0  0  0
  7  8  2  0  0  0  0
 10  2  1  0  0  0  0
 15  6  1  0  0  0  0
M  END
