18
title
C -1.1115943 1.2056758 -0.49020737
C 0.3937188 1.039038 -0.7880915
C 1.3101898 0.93995637 0.44505924
C 1.337083 -0.46195623 1.0965905
C 0.00741849 -1.1268564 1.3806502
C -1.0701691 -1.1044163 0.5941703
C -1.1423408 -0.33143628 -0.69354725
O 0.1440334 -0.26872748 -1.3692129
H -1.4038343 1.5864954 0.489222
H -1.6354986 1.7481657 -1.2799625
H 0.8121494 1.724244 -1.5324149
H 2.3381288 1.1945163 0.16235894
H 0.9964529 1.6934582 1.1779349
H 1.9138347 -1.1273206 0.44247335
H 1.9059423 -0.39163643 2.030209
H -0.040265463 -1.7084942 2.298757
H -1.9703193 -1.6346345 0.89620477
H -1.9176133 -0.72611076 -1.357844
