20
title
C -1.0878596 1.1212455 0.3405096
C 0.4122804 1.1378441 0.752001
C 0.1526719 -0.15040165 1.5844961
C -1.1460764 -0.37607044 0.7584529
C -0.9836889 -1.353569 -0.40273222
C 0.1745424 -1.1435038 -1.342951
C 1.132249 -0.21311182 -1.3469152
C 1.3797225 0.94243556 -0.41251418
H -1.6966058 1.7506533 0.9954589
H -1.3271531 1.363131 -0.6993363
H 0.7312407 2.012036 1.3275563
H 0.914558 -0.9348061 1.5486208
H -0.0653092 0.07843978 2.631301
H -2.0266662 -0.6672188 1.3389746
H -0.91160816 -2.3753984 0.0011769207
H -1.9092295 -1.352675 -0.99926364
H 0.21558103 -1.8842975 -2.1410928
H 1.8681415 -0.27887174 -2.1479323
H 1.4030601 1.8651388 -1.0129725
H 2.4007492 0.8424862 -0.012527796
