title
 OpenBabel02282110003D

 17 18  0  0  1  0  0  0  0  0999 V2000
   -1.1202    1.0686    0.3927 C   0  0  0  0  0  0  0  0  0  0  0  0
    0.4037    1.2001    0.6707 C   0  0  1  0  0  0  0  0  0  0  0  0
    0.3023   -0.0662    1.5669 C   0  0  0  0  0  0  0  0  0  0  0  0
   -1.0113   -0.4152    0.8239 C   0  0  2  0  0  0  0  0  0  0  0  0
   -0.8381   -1.3224   -0.2627 O   0  0  0  0  0  0  0  0  0  0  0  0
    0.1150   -1.1073   -1.2094 C   0  0  0  0  0  0  0  0  0  0  0  0
    0.9823   -0.2109   -1.3938 N   0  0  0  0  0  0  0  0  0  0  0  0
    1.2455    0.9601   -0.5809 C   0  0  0  0  0  0  0  0  0  0  0  0
   -1.7246    1.6367    1.1045 H   0  0  0  0  0  0  0  0  0  0  0  0
   -1.4798    1.2644   -0.6206 H   0  0  0  0  0  0  0  0  0  0  0  0
    0.7363    2.1213    1.1580 H   0  0  0  0  0  0  0  0  0  0  0  0
    1.1095   -0.8012    1.5168 H   0  0  0  0  0  0  0  0  0  0  0  0
    0.1035    0.1784    2.6135 H   0  0  0  0  0  0  0  0  0  0  0  0
   -1.8307   -0.8428    1.4033 H   0  0  0  0  0  0  0  0  0  0  0  0
    0.0498   -1.9284   -1.9239 H   0  0  0  0  0  0  0  0  0  0  0  0
    1.1576    1.8327   -1.2439 H   0  0  0  0  0  0  0  0  0  0  0  0
    2.3063    0.9164   -0.2956 H   0  0  0  0  0  0  0  0  0  0  0  0
  1  2  1  0  0  0  0
  1  4  1  0  0  0  0
  1  9  1  0  0  0  0
  2 11  1  1  0  0  0
  2  3  1  0  0  0  0
  3 13  1  0  0  0  0
  4 14  1  1  0  0  0
  4  3  1  0  0  0  0
  5  4  1  0  0  0  0
  6  5  1  0  0  0  0
  7  6  2  0  0  0  0
  7  8  1  0  0  0  0
  8 17  1  0  0  0  0
  8  2  1  0  0  0  0
 10  1  1  0  0  0  0
 12  3  1  0  0  0  0
 15  6  1  0  0  0  0
 16  8  1  0  0  0  0
M  END
