18
title
C -0.9812301 0.97379375 0.8170387
C 0.5802126 0.9695935 0.8411015
C 0.46872687 -0.4570723 1.4662919
C -0.9593119 -0.5873736 0.84788966
C -0.9644028 -1.2134125 -0.52031094
C -0.16641985 -0.8698 -1.5451648
C 0.861078 0.16942446 -1.5497141
C 1.200122 0.97575283 -0.5298832
H -1.378415 1.3705957 1.7542601
H -1.4729424 1.4563168 -0.02938649
H 1.0483795 1.729355 1.4700056
H 1.2158929 -1.1971496 1.1746157
H 0.41106737 -0.39529172 2.5555353
H -1.7110062 -1.0612764 1.4821693
H -1.6815747 -2.0138416 -0.68248135
H -0.28334343 -1.4125353 -2.4800262
H 1.3983196 0.28838736 -2.487487
H 1.9915925 1.7012717 -0.69875723
