17
title
C -1.0642338 1.0713603 0.5812071
C 0.46746388 1.0277001 0.82455486
C 0.26940826 -0.32347053 1.5610771
C -1.077967 -0.47308493 0.79156554
N -0.959962 -1.2234927 -0.4379689
C -0.07353923 -0.9893528 -1.3058614
O 0.9414349 -0.09201859 -1.4021446
C 1.2913795 0.92372423 -0.44490737
H -1.5881209 1.5961171 1.384756
H -1.4246913 1.4370915 -0.3837989
H 0.895554 1.8482772 1.4095751
H 1.01159 -1.1109275 1.4062706
H 0.111744195 -0.18180954 2.6337285
H -1.9182715 -0.8773803 1.3597037
H -0.044047803 -1.596962 -2.2101002
H 1.2457979 1.8731128 -0.99284893
H 2.3414915 0.7362353 -0.18880863
