17
title
C -1.1201571 1.068558 0.39267212
C 0.40366212 1.2000827 0.67074203
C 0.30227175 -0.066155426 1.5668501
C -1.0113306 -0.4151921 0.82391536
O -0.8380976 -1.3224225 -0.26268196
C 0.11498049 -1.1073377 -1.2094163
N 0.9823392 -0.21089353 -1.3938388
C 1.2454512 0.9601227 -0.58091635
H -1.7246406 1.636685 1.1044785
H -1.4797527 1.2643886 -0.62062734
H 0.7363288 2.1212847 1.1579823
H 1.1095405 -0.80116785 1.5167661
H 0.10345164 0.17836264 2.6135201
H -1.8307371 -0.8428335 1.4032981
H 0.04979649 -1.9283719 -1.9239024
H 1.157578 1.8327228 -1.2438843
H 2.3062925 0.9163543 -0.29564595
