title
 OpenBabel02282110003D

 18 19  0  0  1  0  0  0  0  0999 V2000
   -1.0964    1.1804    0.4201 C   0  0  0  0  0  0  0  0  0  0  0  0
    0.4009    1.0058    0.7982 C   0  0  1  0  0  0  0  0  0  0  0  0
    0.0060   -0.3133    1.5156 C   0  0  0  0  0  0  0  0  0  0  0  0
   -1.2681   -0.3623    0.6159 C   0  0  2  0  0  0  0  0  0  0  0  0
   -1.0350   -1.1288   -0.6591 C   0  0  0  0  0  0  0  0  0  0  0  0
    0.0982   -1.1019   -1.3612 C   0  0  0  0  0  0  0  0  0  0  0  0
    1.3633   -0.3491   -1.0125 C   0  0  0  0  0  0  0  0  0  0  0  0
    1.2500    0.8899   -0.3302 O   0  0  0  0  0  0  0  0  0  0  0  0
   -1.6388    1.7520    1.1796 H   0  0  0  0  0  0  0  0  0  0  0  0
   -1.3011    1.5893   -0.5709 H   0  0  0  0  0  0  0  0  0  0  0  0
    0.8494    1.7903    1.4138 H   0  0  0  0  0  0  0  0  0  0  0  0
    0.6947   -1.1595    1.4764 H   0  0  0  0  0  0  0  0  0  0  0  0
   -0.2473   -0.1126    2.5601 H   0  0  0  0  0  0  0  0  0  0  0  0
   -2.1912   -0.6902    1.0985 H   0  0  0  0  0  0  0  0  0  0  0  0
   -1.8624   -1.7280   -1.0309 H   0  0  0  0  0  0  0  0  0  0  0  0
    0.1731   -1.6999   -2.2670 H   0  0  0  0  0  0  0  0  0  0  0  0
    2.0353   -1.0269   -0.4571 H   0  0  0  0  0  0  0  0  0  0  0  0
    1.8911   -0.0978   -1.9389 H   0  0  0  0  0  0  0  0  0  0  0  0
  1  4  1  0  0  0  0
  1  2  1  0  0  0  0
  1  9  1  0  0  0  0
  2 11  1  1  0  0  0
  2  3  1  0  0  0  0
  3 13  1  0  0  0  0
  4 14  1  1  0  0  0
  4  3  1  0  0  0  0
  5  4  1  0  0  0  0
  6  7  1  0  0  0  0
  6  5  2  0  0  0  0
  7 17  1  0  0  0  0
  7  8  1  0  0  0  0
  8  2  1  0  0  0  0
 10  1  1  0  0  0  0
 12  3  1  0  0  0  0
 15  5  1  0  0  0  0
 16  6  1  0  0  0  0
 18  7  1  0  0  0  0
M  END
