22
title
C -0.964884 0.9221381 0.9313579
C 0.59106296 0.9563689 0.903773
C 0.5667065 -0.5067188 1.4390568
C -0.8994679 -0.63461035 0.9322149
C -1.0439978 -1.2894182 -0.45020738
C 0.085060045 -1.0141877 -1.4617193
C 0.439598 0.4668113 -1.6617002
C 1.2028928 1.1236439 -0.49566796
H -1.3567512 1.3034176 1.8787031
H -1.5062228 1.411279 0.11600754
H 1.0578324 1.6806612 1.5783817
H 1.3106778 -1.2072659 1.0481074
H 0.61593455 -0.5305232 2.5314875
H -1.5956663 -1.1195396 1.6233889
H -1.1239687 -2.3763077 -0.31927326
H -2.0006638 -0.9663019 -0.88404423
H 0.98914176 -1.5619113 -1.165745
H -0.2164677 -1.4422818 -2.4253867
H 1.0545745 0.56788313 -2.5641565
H -0.47975516 1.030465 -1.8667629
H 1.2974992 2.1952715 -0.7136864
H 2.2282453 0.7288548 -0.4707524
