18
title
C -0.9260838 0.975654 0.9310247
C 0.62947625 0.9300394 0.8960346
C 0.5338909 -0.5351866 1.4145232
C -0.92235416 -0.5755292 0.8614974
O -1.0237772 -1.1342529 -0.43984902
C -0.4293279 -0.42186347 -1.4962564
O 0.9328429 -0.14282852 -1.3189347
C 1.2187846 0.99911153 -0.5169389
H -1.2879609 1.3020229 1.9096186
H -1.4610502 1.5384808 0.16159582
H 1.1458952 1.6572883 1.5295085
H 1.2272122 -1.2687645 1.0012026
H 0.54518086 -0.583442 2.506812
H -1.6670811 -1.1083618 1.4561486
H -0.50619906 -1.0839436 -2.3618772
H -0.9782446 0.5137545 -1.6974678
H 0.870511 1.913312 -1.0252689
H 2.31122 1.0385259 -0.46720183
