title
 OpenBabel02282110003D

 20 21  0  0  1  0  0  0  0  0999 V2000
   -0.9208    1.1737   -0.7022 C   0  0  0  0  0  0  0  0  0  0  0  0
    0.5911    0.9079   -0.8709 C   0  0  1  0  0  0  0  0  0  0  0  0
    1.4191    0.8720    0.4197 C   0  0  0  0  0  0  0  0  0  0  0  0
    1.1309   -0.3506    1.3126 C   0  0  0  0  0  0  0  0  0  0  0  0
   -0.3529   -0.6080    1.6308 C   0  0  0  0  0  0  0  0  0  0  0  0
   -1.1825   -1.1472    0.4495 C   0  0  0  0  0  0  0  0  0  0  0  0
   -1.0450   -0.3565   -0.8489 C   0  0  2  0  0  0  0  0  0  0  0  0
    0.3131   -0.4295   -1.3653 O   0  0  0  0  0  0  0  0  0  0  0  0
   -1.2595    1.6298    0.2296 H   0  0  0  0  0  0  0  0  0  0  0  0
   -1.3484    1.7151   -1.5479 H   0  0  0  0  0  0  0  0  0  0  0  0
    1.0918    1.5124   -1.6352 H   0  0  0  0  0  0  0  0  0  0  0  0
    2.4860    0.8712    0.1664 H   0  0  0  0  0  0  0  0  0  0  0  0
    1.2340    1.8043    0.9709 H   0  0  0  0  0  0  0  0  0  0  0  0
    1.5453   -1.2404    0.8263 H   0  0  0  0  0  0  0  0  0  0  0  0
    1.6807   -0.2217    2.2521 H   0  0  0  0  0  0  0  0  0  0  0  0
   -0.4166   -1.3365    2.4475 H   0  0  0  0  0  0  0  0  0  0  0  0
   -0.8089    0.3115    2.0211 H   0  0  0  0  0  0  0  0  0  0  0  0
   -0.8788   -2.1792    0.2311 H   0  0  0  0  0  0  0  0  0  0  0  0
   -2.2428   -1.1862    0.7329 H   0  0  0  0  0  0  0  0  0  0  0  0
   -1.7620   -0.7171   -1.5951 H   0  0  0  0  0  0  0  0  0  0  0  0
  1  9  1  0  0  0  0
  2 11  1  6  0  0  0
  2  1  1  0  0  0  0
  2  3  1  0  0  0  0
  3 13  1  0  0  0  0
  3  4  1  0  0  0  0
  4  5  1  0  0  0  0
  4 15  1  0  0  0  0
  5 17  1  0  0  0  0
  5 16  1  0  0  0  0
  6 19  1  0  0  0  0
  6  5  1  0  0  0  0
  7 20  1  6  0  0  0
  7  1  1  0  0  0  0
  7  6  1  0  0  0  0
  8  2  1  0  0  0  0
  8  7  1  0  0  0  0
 10  1  1  0  0  0  0
 12  3  1  0  0  0  0
 14  4  1  0  0  0  0
 18  6  1  0  0  0  0
M  END
