20
title
C -0.92521256 0.9565071 0.9878393
C 0.62894 0.9443357 0.9130463
C 0.5790273 -0.53266954 1.4102601
C -0.8959737 -0.5979163 0.9227043
C -1.0206654 -1.1924999 -0.48622307
O 0.09208788 -0.9674245 -1.3349091
C 0.36933005 0.39567795 -1.6078635
C 1.1847233 1.0953809 -0.5096593
H -1.2761601 1.3035507 1.9636924
H -1.4792962 1.495897 0.21309568
H 1.1452035 1.644453 1.5761566
H 1.2826761 -1.2366626 0.9601989
H 0.64997876 -0.59392226 2.4994957
H -1.6122123 -1.1107008 1.5726918
H -1.1002481 -2.282651 -0.41598567
H -1.9434506 -0.8195068 -0.9641026
H 0.938982 0.4083148 -2.5434184
H -0.57041156 0.9389745 -1.7958003
H 1.2420942 2.1602328 -0.7732285
H 2.212463 0.71134377 -0.52887607
