title
 OpenBabel02282110003D

 17 18  0  0  1  0  0  0  0  0999 V2000
   -1.7269    0.8295    1.0064 C   0  0  0  0  0  0  0  0  0  0  0  0
   -1.3423   -0.6199    0.8044 C   0  0  1  0  0  0  0  0  0  0  0  0
   -0.6964   -1.1544   -0.4264 C   0  0  1  0  0  0  0  0  0  0  0  0
   -0.0763   -0.1932   -1.4153 C   0  0  0  0  0  0  0  0  0  0  0  0
    0.9958    0.5610   -0.6106 C   0  0  0  0  0  0  0  0  0  0  0  0
    1.6421    1.5002   -0.9903 O   0  0  0  0  0  0  0  0  0  0  0  0
    1.0922   -0.1101    0.7697 C   0  0  0  0  0  0  0  0  0  0  0  0
    0.0443   -1.1252    0.8738 N   0  0  1  0  0  0  0  0  0  0  0  0
   -1.1239    1.5357    0.4312 H   0  0  0  0  0  0  0  0  0  0  0  0
   -2.7711    0.9751    0.7106 H   0  0  0  0  0  0  0  0  0  0  0  0
   -1.6436    1.1059    2.0633 H   0  0  0  0  0  0  0  0  0  0  0  0
   -2.0223   -1.3041    1.3101 H   0  0  0  0  0  0  0  0  0  0  0  0
   -0.9690   -2.1441   -0.7815 H   0  0  0  0  0  0  0  0  0  0  0  0
    0.4148   -0.7247   -2.2383 H   0  0  0  0  0  0  0  0  0  0  0  0
   -0.7716    0.5202   -1.8672 H   0  0  0  0  0  0  0  0  0  0  0  0
    2.0726   -0.5944    0.8580 H   0  0  0  0  0  0  0  0  0  0  0  0
    1.0350    0.6429    1.5622 H   0  0  0  0  0  0  0  0  0  0  0  0
  1 11  1  0  0  0  0
  2  3  1  6  0  0  0
  2  1  1  0  0  0  0
  2 12  1  0  0  0  0
  3  8  1  1  0  0  0
  4  5  1  0  0  0  0
  4  3  1  0  0  0  0
  5  7  1  0  0  0  0
  6  5  2  0  0  0  0
  7 16  1  0  0  0  0
  7  8  1  0  0  0  0
  7 17  1  0  0  0  0
  8  2  1  1  0  0  0
  9  1  1  0  0  0  0
 10  1  1  0  0  0  0
 13  3  1  0  0  0  0
 14  4  1  0  0  0  0
 15  4  1  0  0  0  0
M  END
