title
 OpenBabel02282110003D

 18 19  0  0  1  0  0  0  0  0999 V2000
   -1.8870    0.9117   -0.6484 C   0  0  0  0  0  0  0  0  0  0  0  0
   -1.5283   -0.5552   -0.5290 C   0  0  1  0  0  0  0  0  0  0  0  0
   -0.1705   -1.1293   -0.8705 C   0  0  1  0  0  0  0  0  0  0  0  0
    1.0173   -0.1941   -0.9744 C   0  0  0  0  0  0  0  0  0  0  0  0
    1.1250    0.5088    0.3897 C   0  0  0  0  0  0  0  0  0  0  0  0
    1.8174    1.4623    0.6314 O   0  0  0  0  0  0  0  0  0  0  0  0
    0.2003   -0.2011    1.3934 C   0  0  0  0  0  0  0  0  0  0  0  0
   -0.6689   -1.1336    0.5742 C   0  0  1  0  0  0  0  0  0  0  0  0
   -1.0709    1.5813   -0.3648 H   0  0  0  0  0  0  0  0  0  0  0  0
   -2.1652    1.1593   -1.6786 H   0  0  0  0  0  0  0  0  0  0  0  0
   -2.7418    1.1544   -0.0076 H   0  0  0  0  0  0  0  0  0  0  0  0
   -2.3481   -1.2108   -0.8138 H   0  0  0  0  0  0  0  0  0  0  0  0
   -0.1398   -2.0520   -1.4387 H   0  0  0  0  0  0  0  0  0  0  0  0
    1.9460   -0.7553   -1.1391 H   0  0  0  0  0  0  0  0  0  0  0  0
    0.9588    0.5549   -1.7706 H   0  0  0  0  0  0  0  0  0  0  0  0
    0.8308   -0.7649    2.0928 H   0  0  0  0  0  0  0  0  0  0  0  0
   -0.3381    0.5437    1.9880 H   0  0  0  0  0  0  0  0  0  0  0  0
   -0.9935   -2.0593    1.0355 H   0  0  0  0  0  0  0  0  0  0  0  0
  1  2  1  0  0  0  0
  1  9  1  0  0  0  0
  1 11  1  0  0  0  0
  2  8  1  1  0  0  0
  3  2  1  6  0  0  0
  4  3  1  0  0  0  0
  4  5  1  0  0  0  0
  5  6  2  0  0  0  0
  5  7  1  0  0  0  0
  7 17  1  0  0  0  0
  7 16  1  0  0  0  0
  8  3  1  6  0  0  0
  8 18  1  0  0  0  0
  8  7  1  0  0  0  0
 10  1  1  0  0  0  0
 12  2  1  0  0  0  0
 13  3  1  0  0  0  0
 14  4  1  0  0  0  0
 15  4  1  0  0  0  0
M  END
