title
 OpenBabel02282110003D

 17 18  0  0  1  0  0  0  0  0999 V2000
   -1.6915    1.2535    0.7867 C   0  0  0  0  0  0  0  0  0  0  0  0
   -1.5769   -0.2502    0.6875 C   0  0  1  0  0  0  0  0  0  0  0  0
   -0.9227   -0.9773   -0.4769 C   0  0  1  0  0  0  0  0  0  0  0  0
    0.0355   -0.2356   -1.3936 C   0  0  0  0  0  0  0  0  0  0  0  0
    1.1814    0.2444   -0.4838 C   0  0  0  0  0  0  0  0  0  0  0  0
    2.0966    0.9774   -0.7826 O   0  0  0  0  0  0  0  0  0  0  0  0
    0.9543   -0.2941    0.7624 N   0  0  0  0  0  0  0  0  0  0  0  0
   -0.2799   -1.0086    0.8951 C   0  0  1  0  0  0  0  0  0  0  0  0
   -0.7759    1.7642    0.4785 H   0  0  0  0  0  0  0  0  0  0  0  0
   -2.5058    1.6248    0.1552 H   0  0  0  0  0  0  0  0  0  0  0  0
   -1.9058    1.5575    1.8169 H   0  0  0  0  0  0  0  0  0  0  0  0
   -2.4434   -0.7819    1.0751 H   0  0  0  0  0  0  0  0  0  0  0  0
   -1.4177   -1.8611   -0.8602 H   0  0  0  0  0  0  0  0  0  0  0  0
    0.4431   -0.8902   -2.1703 H   0  0  0  0  0  0  0  0  0  0  0  0
   -0.3972    0.6318   -1.9007 H   0  0  0  0  0  0  0  0  0  0  0  0
    1.4907    0.0356    1.5496 H   0  0  0  0  0  0  0  0  0  0  0  0
   -0.2511   -1.9049    1.5050 H   0  0  0  0  0  0  0  0  0  0  0  0
  1 11  1  0  0  0  0
  2  3  1  6  0  0  0
  2  1  1  0  0  0  0
  2 12  1  0  0  0  0
  3  8  1  1  0  0  0
  4  5  1  0  0  0  0
  4  3  1  0  0  0  0
  5  7  1  0  0  0  0
  6  5  2  0  0  0  0
  7  8  1  0  0  0  0
  7 16  1  0  0  0  0
  8  2  1  1  0  0  0
  8 17  1  0  0  0  0
  9  1  1  0  0  0  0
 10  1  1  0  0  0  0
 13  3  1  0  0  0  0
 14  4  1  0  0  0  0
 15  4  1  0  0  0  0
M  END
