title
 OpenBabel02282110003D

 15 16  0  0  1  0  0  0  0  0999 V2000
    1.4131    1.1171    1.0493 O   0  0  0  0  0  0  0  0  0  0  0  0
    1.3659   -0.2724    1.0116 C   0  0  1  0  0  0  0  0  0  0  0  0
    0.0379   -1.0094    1.0116 C   0  0  1  0  0  0  0  0  0  0  0  0
   -1.2108   -0.2140    0.6733 C   0  0  0  0  0  0  0  0  0  0  0  0
   -1.0256    0.2610   -0.7790 C   0  0  0  0  0  0  0  0  0  0  0  0
   -1.7800    0.9347   -1.4392 O   0  0  0  0  0  0  0  0  0  0  0  0
    0.2128   -0.1948   -1.1899 N   0  0  0  0  0  0  0  0  0  0  0  0
    0.9142   -1.0004   -0.2340 C   0  0  1  0  0  0  0  0  0  0  0  0
    1.2638    1.4429    0.1529 H   0  0  0  0  0  0  0  0  0  0  0  0
    2.1685   -0.7297    1.5840 H   0  0  0  0  0  0  0  0  0  0  0  0
   -0.0523   -1.9084    1.6088 H   0  0  0  0  0  0  0  0  0  0  0  0
   -2.1219   -0.8139    0.7415 H   0  0  0  0  0  0  0  0  0  0  0  0
   -1.3433    0.6670    1.3085 H   0  0  0  0  0  0  0  0  0  0  0  0
    0.5489   -0.0058   -2.1205 H   0  0  0  0  0  0  0  0  0  0  0  0
    1.4292   -1.8760   -0.6124 H   0  0  0  0  0  0  0  0  0  0  0  0
  2  8  1  6  0  0  0
  2  3  1  0  0  0  0
  2  1  1  0  0  0  0
  2 10  1  0  0  0  0
  3  8  1  6  0  0  0
  3 11  1  0  0  0  0
  4 12  1  0  0  0  0
  4  3  1  0  0  0  0
  4 13  1  0  0  0  0
  5  4  1  0  0  0  0
  6  5  2  0  0  0  0
  7  5  1  0  0  0  0
  7  8  1  0  0  0  0
  8 15  1  6  0  0  0
  9  1  1  0  0  0  0
 14  7  1  0  0  0  0
M  END
