title
 OpenBabel02282110003D

 17 18  0  0  1  0  0  0  0  0999 V2000
   -1.8763    0.5905   -0.7584 C   0  0  0  0  0  0  0  0  0  0  0  0
   -1.3831   -0.7684   -0.5932 N   0  0  0  0  0  0  0  0  0  0  0  0
    0.0033   -1.1341   -0.8473 C   0  0  1  0  0  0  0  0  0  0  0  0
    1.0722   -0.0603   -0.9129 C   0  0  0  0  0  0  0  0  0  0  0  0
    1.0292    0.6622    0.4440 C   0  0  0  0  0  0  0  0  0  0  0  0
    1.6112    1.6793    0.7133 O   0  0  0  0  0  0  0  0  0  0  0  0
    0.1170   -0.1258    1.3990 C   0  0  0  0  0  0  0  0  0  0  0  0
   -0.5726   -1.1737    0.5466 C   0  0  1  0  0  0  0  0  0  0  0  0
   -2.1234    0.7452   -1.8133 H   0  0  0  0  0  0  0  0  0  0  0  0
   -2.7986    0.6988   -0.1792 H   0  0  0  0  0  0  0  0  0  0  0  0
   -1.1936    1.3969   -0.4534 H   0  0  0  0  0  0  0  0  0  0  0  0
    0.1417   -2.0333   -1.4414 H   0  0  0  0  0  0  0  0  0  0  0  0
    2.0643   -0.5121   -1.0371 H   0  0  0  0  0  0  0  0  0  0  0  0
    0.9534    0.6634   -1.7255 H   0  0  0  0  0  0  0  0  0  0  0  0
    0.7415   -0.6029    2.1647 H   0  0  0  0  0  0  0  0  0  0  0  0
   -0.5548    0.5599    1.9249 H   0  0  0  0  0  0  0  0  0  0  0  0
   -0.8756   -2.1031    1.0209 H   0  0  0  0  0  0  0  0  0  0  0  0
  1  2  1  0  0  0  0
  1 11  1  0  0  0  0
  1 10  1  0  0  0  0
  2  8  1  0  0  0  0
  3  2  1  0  0  0  0
  3  8  1  1  0  0  0
  4  3  1  0  0  0  0
  4  5  1  0  0  0  0
  5  6  2  0  0  0  0
  5  7  1  0  0  0  0
  7 16  1  0  0  0  0
  7 15  1  0  0  0  0
  8 17  1  1  0  0  0
  8  7  1  0  0  0  0
  9  1  1  0  0  0  0
 12  3  1  0  0  0  0
 13  4  1  0  0  0  0
 14  4  1  0  0  0  0
M  END
