14
title
C -1.6671329 1.3140578 -0.7286514
C -1.5451547 -0.19221805 -0.6885156
C -0.25512773 -0.94142234 -0.942518
O 0.94671994 -0.21228373 -0.80560696
C 1.0990589 0.18892953 0.4902313
O 2.008588 0.83235496 0.9004515
O 0.03797429 -0.23134413 1.2390988
C -0.8639961 -0.9541922 0.4274334
H -0.7822013 1.8159031 -0.3328443
H -1.8099203 1.6568569 -1.7577146
H -2.526722 1.6421247 -0.13674887
H -2.4071836 -0.7309635 -1.0766367
H -0.16641921 -1.7805843 -1.6196905
H -1.3013413 -1.8043966 0.933899
