title
 OpenBabel02282110003D

 16 17  0  0  1  0  0  0  0  0999 V2000
    1.3265    0.8550   -1.0863 O   0  0  0  0  0  0  0  0  0  0  0  0
    1.2919   -0.5338   -0.9196 C   0  0  1  0  0  0  0  0  0  0  0  0
    0.8312   -1.1305    0.3902 C   0  0  1  0  0  0  0  0  0  0  0  0
    0.2229   -0.1778    1.3976 C   0  0  0  0  0  0  0  0  0  0  0  0
   -0.9478    0.5137    0.6756 C   0  0  0  0  0  0  0  0  0  0  0  0
   -1.5462    1.4721    1.0844 O   0  0  0  0  0  0  0  0  0  0  0  0
   -1.2400   -0.2327   -0.6357 C   0  0  0  0  0  0  0  0  0  0  0  0
   -0.0664   -1.1657   -0.8539 C   0  0  1  0  0  0  0  0  0  0  0  0
    2.0842    1.2023   -0.6038 H   0  0  0  0  0  0  0  0  0  0  0  0
    2.0616   -1.0792   -1.4649 H   0  0  0  0  0  0  0  0  0  0  0  0
    1.3198   -2.0305    0.7457 H   0  0  0  0  0  0  0  0  0  0  0  0
   -0.1798   -0.7224    2.2604 H   0  0  0  0  0  0  0  0  0  0  0  0
    0.9065    0.5801    1.7925 H   0  0  0  0  0  0  0  0  0  0  0  0
   -2.1733   -0.7957   -0.5123 H   0  0  0  0  0  0  0  0  0  0  0  0
   -1.3983    0.4922   -1.4381 H   0  0  0  0  0  0  0  0  0  0  0  0
   -0.2270   -2.0911   -1.3940 H   0  0  0  0  0  0  0  0  0  0  0  0
  1  2  1  0  0  0  0
  1  9  1  0  0  0  0
  2 10  1  6  0  0  0
  3  2  1  6  0  0  0
  3 11  1  0  0  0  0
  3  4  1  0  0  0  0
  4 13  1  0  0  0  0
  4 12  1  0  0  0  0
  5  6  2  0  0  0  0
  5  4  1  0  0  0  0
  7 14  1  0  0  0  0
  7  5  1  0  0  0  0
  8  2  1  6  0  0  0
  8  7  1  0  0  0  0
  8  3  1  0  0  0  0
 15  7  1  0  0  0  0
 16  8  1  0  0  0  0
M  END
