title
 OpenBabel02282110003D

 15 16  0  0  1  0  0  0  0  0999 V2000
    1.0960    1.4740    0.7471 O   0  0  0  0  0  0  0  0  0  0  0  0
    1.3655    0.1260    0.9658 C   0  0  1  0  0  0  0  0  0  0  0  0
    0.1846   -0.7958    1.1880 C   0  0  1  0  0  0  0  0  0  0  0  0
   -1.1686   -0.2711    0.7457 C   0  0  0  0  0  0  0  0  0  0  0  0
   -1.0146   -0.0156   -0.7448 C   0  0  0  0  0  0  0  0  0  0  0  0
   -1.8847    0.4897   -1.5022 N   0  0  0  0  0  0  0  0  0  0  0  0
    0.2348   -0.4221   -1.1660 O   0  0  0  0  0  0  0  0  0  0  0  0
    0.9976   -0.8982   -0.0800 C   0  0  1  0  0  0  0  0  0  0  0  0
    1.5352    1.7456   -0.0662 H   0  0  0  0  0  0  0  0  0  0  0  0
    2.2592   -0.0825    1.5539 H   0  0  0  0  0  0  0  0  0  0  0  0
    0.2401   -1.5461    1.9664 H   0  0  0  0  0  0  0  0  0  0  0  0
   -1.9565   -1.0104    0.9144 H   0  0  0  0  0  0  0  0  0  0  0  0
   -1.4635    0.6548    1.2434 H   0  0  0  0  0  0  0  0  0  0  0  0
   -1.5353    0.5600   -2.4591 H   0  0  0  0  0  0  0  0  0  0  0  0
    1.6458   -1.7228   -0.3499 H   0  0  0  0  0  0  0  0  0  0  0  0
  1  2  1  0  0  0  0
  2  8  1  6  0  0  0
  2  3  1  0  0  0  0
  2 10  1  0  0  0  0
  3  8  1  6  0  0  0
  3 11  1  0  0  0  0
  4 12  1  0  0  0  0
  4  3  1  0  0  0  0
  4 13  1  0  0  0  0
  5  4  1  0  0  0  0
  6  5  2  0  0  0  0
  7  5  1  0  0  0  0
  7  8  1  0  0  0  0
  8 15  1  6  0  0  0
  9  1  1  0  0  0  0
 14  6  1  0  0  0  0
M  END
