15
title
O 1.0959885 1.4740331 0.7471242
C 1.3655486 0.12604026 0.96578664
C 0.18459648 -0.7958333 1.1879985
C -1.1686336 -0.27112052 0.74567336
C -1.0146261 -0.015554328 -0.7448006
N -1.8846833 0.48966888 -1.5022173
O 0.2347576 -0.4220688 -1.1660247
C 0.9975556 -0.8982089 -0.08003729
H 1.5352297 1.7455767 -0.066203885
H 2.2592328 -0.082544126 1.5538514
H 0.24011678 -1.5461211 1.9664078
H -1.9564832 -1.0103712 0.9143982
H -1.4635426 0.6548043 1.2434046
H -1.5353447 0.5600073 -2.4590695
H 1.6458428 -1.7227867 -0.34993094
