title
 OpenBabel02282110003D

 14 15  0  0  1  0  0  0  0  0999 V2000
   -1.6671    1.3141   -0.7287 C   0  0  0  0  0  0  0  0  0  0  0  0
   -1.5452   -0.1922   -0.6885 C   0  0  1  0  0  0  0  0  0  0  0  0
   -0.2551   -0.9414   -0.9425 C   0  0  1  0  0  0  0  0  0  0  0  0
    0.9467   -0.2123   -0.8056 O   0  0  0  0  0  0  0  0  0  0  0  0
    1.0991    0.1889    0.4902 C   0  0  0  0  0  0  0  0  0  0  0  0
    2.0086    0.8324    0.9005 O   0  0  0  0  0  0  0  0  0  0  0  0
    0.0380   -0.2313    1.2391 O   0  0  0  0  0  0  0  0  0  0  0  0
   -0.8640   -0.9542    0.4274 C   0  0  1  0  0  0  0  0  0  0  0  0
   -0.7822    1.8159   -0.3328 H   0  0  0  0  0  0  0  0  0  0  0  0
   -1.8099    1.6569   -1.7577 H   0  0  0  0  0  0  0  0  0  0  0  0
   -2.5267    1.6421   -0.1367 H   0  0  0  0  0  0  0  0  0  0  0  0
   -2.4072   -0.7310   -1.0766 H   0  0  0  0  0  0  0  0  0  0  0  0
   -0.1664   -1.7806   -1.6197 H   0  0  0  0  0  0  0  0  0  0  0  0
   -1.3013   -1.8044    0.9339 H   0  0  0  0  0  0  0  0  0  0  0  0
  1  2  1  0  0  0  0
  1  9  1  0  0  0  0
  1 11  1  0  0  0  0
  2  8  1  1  0  0  0
  3  4  1  0  0  0  0
  3  2  1  6  0  0  0
  4  5  1  0  0  0  0
  5  6  2  0  0  0  0
  5  7  1  0  0  0  0
  8  3  1  6  0  0  0
  8 14  1  0  0  0  0
  8  7  1  0  0  0  0
 10  1  1  0  0  0  0
 12  2  1  0  0  0  0
 13  3  1  0  0  0  0
M  END
