15
title
O 1.4130925 1.1170708 1.0493468
C 1.365919 -0.27243903 1.0115552
C 0.037917636 -1.0094315 1.0115682
C -1.2108358 -0.21397269 0.67329407
C -1.0255874 0.2610005 -0.7789778
O -1.7799526 0.93465114 -1.439238
N 0.2128358 -0.19481221 -1.1898829
C 0.91419697 -1.0003573 -0.23395127
H 1.2637734 1.4428668 0.15292013
H 2.168467 -0.72973585 1.584027
H -0.052304484 -1.9083679 1.6088241
H -2.1219325 -0.8139495 0.741549
H -1.3433226 0.667003 1.3084984
H 0.54893017 -0.0058203256 -2.1205366
H 1.4292295 -1.8759824 -0.6124076
