14
title
O 1.3190894 0.92269397 1.144304
C 1.3044285 -0.45671287 0.9624469
C -0.050985232 -1.1288649 0.91265166
C -1.2306771 -0.22157098 0.64351046
C -0.93501735 0.41890866 -0.71521765
O -1.553956 1.2563221 -1.2964319
O 0.22215496 -0.11720793 -1.2328016
C 0.799742 -1.0367318 -0.33594674
H 1.8950396 1.314925 0.47856355
H 2.100613 -1.007589 1.4624898
H -0.19756939 -2.0656219 1.4347715
H -2.1709392 -0.7764772 0.57746553
H -1.3599572 0.5762979 1.3780113
H 1.2751958 -1.8714263 -0.8352577
