17
title
C -1.7035612 1.2870668 -0.67155737
C -1.5454866 -0.21517538 -0.67081046
C -0.2530695 -0.9266885 -0.96140486
O 0.9442402 -0.18317771 -0.79165214
C 1.0002626 0.1365686 0.5389868
C 2.1702406 0.96244144 0.94601774
N 0.06449785 -0.29724517 1.290375
C -0.8549883 -1.0063123 0.43568122
H -0.87538487 1.787595 -0.16613178
H -1.7545397 1.6727229 -1.6951585
H -2.6243749 1.574672 -0.15426712
H -2.3974051 -0.7540153 -1.0799528
H -0.15463349 -1.7179773 -1.6939882
H 2.130837 1.9482212 0.47134793
H 2.1698854 1.0838356 2.0287642
H 3.1011422 0.48437452 0.6258055
H -1.3396116 -1.8763051 0.8626038
