14
title
N 0.03328886 2.3741305 0.29608428
C -0.10279421 1.0250183 0.4429136
N -1.1972395 0.35197252 0.4137153
C -0.8015487 -1.0352938 0.48505363
C 0.03519725 -1.5214598 -0.68117654
O 0.094821386 -0.7951784 -1.8632398
C 0.7240049 -1.0221944 0.5714522
O 1.0710958 0.3539225 0.5842078
H 0.8719975 2.7717562 0.6897238
H -0.8116122 2.8979392 0.4621747
H -1.4582655 -1.7073977 1.0255452
H 0.07771338 -2.598893 -0.82556903
H -0.65169084 -0.1817527 -1.857909
H 1.3699062 -1.6277082 1.1936892
