title
 OpenBabel02282110003D

 18 19  0  0  1  0  0  0  0  0999 V2000
   -0.4492    2.6504   -0.0029 C   0  0  0  0  0  0  0  0  0  0  0  0
   -0.5034    1.1554   -0.0395 C   0  0  0  0  0  0  0  0  0  0  0  0
   -0.5554    0.3657   -1.1228 C   0  0  0  0  0  0  0  0  0  0  0  0
   -0.5389   -1.0841   -0.7807 C   0  0  1  0  0  0  0  0  0  0  0  0
    0.7061   -1.5591   -0.0517 C   0  0  1  0  0  0  0  0  0  0  0  0
    1.9036   -0.8466   -0.0606 O   0  0  0  0  0  0  0  0  0  0  0  0
   -0.4882   -1.1231    0.7551 C   0  0  1  0  0  0  0  0  0  0  0  0
   -0.5032    0.3267    1.2359 C   0  0  0  0  0  0  0  0  0  0  0  0
    0.4618    3.0085    0.4930 H   0  0  0  0  0  0  0  0  0  0  0  0
   -0.4792    3.0811   -1.0075 H   0  0  0  0  0  0  0  0  0  0  0  0
   -1.2919    3.0593    0.5694 H   0  0  0  0  0  0  0  0  0  0  0  0
   -0.5753    0.7259   -2.1463 H   0  0  0  0  0  0  0  0  0  0  0  0
   -1.1085   -1.7903   -1.3755 H   0  0  0  0  0  0  0  0  0  0  0  0
    0.9035   -2.6263   -0.0845 H   0  0  0  0  0  0  0  0  0  0  0  0
    1.7140    0.0248   -0.4326 H   0  0  0  0  0  0  0  0  0  0  0  0
   -1.0354   -1.8704    1.3184 H   0  0  0  0  0  0  0  0  0  0  0  0
    0.3736    0.5549    1.8578 H   0  0  0  0  0  0  0  0  0  0  0  0
   -1.3863    0.5484    1.8493 H   0  0  0  0  0  0  0  0  0  0  0  0
  1  9  1  0  0  0  0
  1 11  1  0  0  0  0
  2  1  1  0  0  0  0
  2  8  1  0  0  0  0
  3  4  1  0  0  0  0
  3  2  2  0  0  0  0
  4  5  1  6  0  0  0
  5  7  1  1  0  0  0
  6  5  1  0  0  0  0
  7  4  1  6  0  0  0
  7  8  1  0  0  0  0
  7 16  1  0  0  0  0
  8 18  1  0  0  0  0
  8 17  1  0  0  0  0
 10  1  1  0  0  0  0
 12  3  1  0  0  0  0
 13  4  1  0  0  0  0
 14  5  1  0  0  0  0
 15  6  1  0  0  0  0
M  END
