title
 OpenBabel02282110003D

 13 14  0  0  1  0  0  0  0  0999 V2000
    1.2490    1.1978    0.9764 O   0  0  0  0  0  0  0  0  0  0  0  0
    1.3791   -0.1818    0.9299 C   0  0  1  0  0  0  0  0  0  0  0  0
    0.1070   -1.0242    0.9708 C   0  0  1  0  0  0  0  0  0  0  0  0
   -1.1045   -0.3738    0.5876 N   0  0  0  0  0  0  0  0  0  0  0  0
   -0.9989    0.2159   -0.6583 C   0  0  0  0  0  0  0  0  0  0  0  0
   -1.7585    0.9630   -1.2003 O   0  0  0  0  0  0  0  0  0  0  0  0
    0.1830   -0.2150   -1.2375 O   0  0  0  0  0  0  0  0  0  0  0  0
    0.9287   -0.9473   -0.2941 C   0  0  1  0  0  0  0  0  0  0  0  0
    1.5857    1.5682    0.1524 H   0  0  0  0  0  0  0  0  0  0  0  0
    2.2364   -0.5988    1.4576 H   0  0  0  0  0  0  0  0  0  0  0  0
    0.0298   -1.9091    1.5908 H   0  0  0  0  0  0  0  0  0  0  0  0
   -1.6910    0.0972    1.2581 H   0  0  0  0  0  0  0  0  0  0  0  0
    1.4958   -1.7605   -0.7285 H   0  0  0  0  0  0  0  0  0  0  0  0
  2  8  1  6  0  0  0
  2  3  1  0  0  0  0
  2  1  1  0  0  0  0
  2 10  1  0  0  0  0
  3  8  1  6  0  0  0
  3 11  1  0  0  0  0
  4  3  1  0  0  0  0
  4 12  1  0  0  0  0
  5  4  1  0  0  0  0
  6  5  2  0  0  0  0
  7  5  1  0  0  0  0
  7  8  1  0  0  0  0
  8 13  1  6  0  0  0
  9  1  1  0  0  0  0
M  END
