title
 OpenBabel02282110003D

 16 17  0  0  1  0  0  0  0  0999 V2000
   -1.6978    1.2655   -0.7216 C   0  0  0  0  0  0  0  0  0  0  0  0
   -1.5459   -0.2370   -0.6691 C   0  0  1  0  0  0  0  0  0  0  0  0
   -0.2495   -0.9589   -0.9299 C   0  0  1  0  0  0  0  0  0  0  0  0
    0.9499   -0.2061   -0.7851 O   0  0  0  0  0  0  0  0  0  0  0  0
    0.9904    0.1487    0.5340 C   0  0  0  0  0  0  0  0  0  0  0  0
    2.0269    0.9832    0.8560 N   0  0  0  0  0  0  0  0  0  0  0  0
    0.0596   -0.2638    1.3089 N   0  0  0  0  0  0  0  0  0  0  0  0
   -0.8557   -0.9899    0.4641 C   0  0  1  0  0  0  0  0  0  0  0  0
   -0.8588    1.7805   -0.2500 H   0  0  0  0  0  0  0  0  0  0  0  0
   -1.7658    1.6142   -1.7576 H   0  0  0  0  0  0  0  0  0  0  0  0
   -2.6088    1.5753   -0.1995 H   0  0  0  0  0  0  0  0  0  0  0  0
   -2.3946   -0.7878   -1.0701 H   0  0  0  0  0  0  0  0  0  0  0  0
   -0.1427   -1.7740   -1.6344 H   0  0  0  0  0  0  0  0  0  0  0  0
    2.8572    0.8671    0.2943 H   0  0  0  0  0  0  0  0  0  0  0  0
    2.1970    1.0475    1.8480 H   0  0  0  0  0  0  0  0  0  0  0  0
   -1.3370   -1.8548    0.9060 H   0  0  0  0  0  0  0  0  0  0  0  0
  1  2  1  0  0  0  0
  1  9  1  0  0  0  0
  1 11  1  0  0  0  0
  2  3  1  6  0  0  0
  3  4  1  0  0  0  0
  3  8  1  1  0  0  0
  4  5  1  0  0  0  0
  5  6  1  0  0  0  0
  5  7  2  0  0  0  0
  6 15  1  0  0  0  0
  8  2  1  6  0  0  0
  8 16  1  0  0  0  0
  8  7  1  0  0  0  0
 10  1  1  0  0  0  0
 12  2  1  0  0  0  0
 13  3  1  0  0  0  0
 14  6  1  0  0  0  0
M  END
