20
title
C -1.7207737 1.2208548 0.8378171
C -1.5853341 -0.27915332 0.7108653
C -0.9261879 -0.97675693 -0.45621493
C 0.03397237 -0.1977977 -1.3558089
C 1.1783715 0.20094302 -0.43728665
C 2.31221 1.0495373 -0.9197163
C 0.992947 -0.29020336 0.7942333
C -0.28368127 -1.0457077 0.9257641
H -0.79873776 1.738131 0.5633221
H -2.5245814 1.5965822 0.19412914
H -1.9634811 1.5031365 1.8683436
H -2.4545953 -0.8187238 1.0821749
H -1.4321418 -1.8386762 -0.8761783
H 0.39392078 -0.8177496 -2.1887639
H -0.4364395 0.6820634 -1.8174621
H 1.962984 2.0313735 -1.2649268
H 3.0546758 1.2146124 -0.13396469
H 2.81928 0.5845994 -1.7755526
H 1.6749839 -0.14040099 1.6249537
H -0.31402826 -1.94238 1.5364921
