title
 OpenBabel02282110003D

 14 15  0  0  1  0  0  0  0  0999 V2000
    1.3801    1.1593   -1.0214 O   0  0  0  0  0  0  0  0  0  0  0  0
    1.3697   -0.2252   -1.0035 C   0  0  1  0  0  0  0  0  0  0  0  0
    0.9538   -0.9610    0.2517 C   0  0  1  0  0  0  0  0  0  0  0  0
    0.2486   -0.1345    1.1940 N   0  0  0  0  0  0  0  0  0  0  0  0
   -1.0241    0.2243    0.7257 C   0  0  0  0  0  0  0  0  0  0  0  0
   -1.8395    0.8979    1.3089 O   0  0  0  0  0  0  0  0  0  0  0  0
   -1.1310   -0.3171   -0.5476 N   0  0  0  0  0  0  0  0  0  0  0  0
    0.0511   -0.9990   -0.9722 C   0  0  1  0  0  0  0  0  0  0  0  0
    1.2564    1.4591   -0.1100 H   0  0  0  0  0  0  0  0  0  0  0  0
    2.1647   -0.6764   -1.5918 H   0  0  0  0  0  0  0  0  0  0  0  0
    1.4929   -1.8188    0.6349 H   0  0  0  0  0  0  0  0  0  0  0  0
    0.3929   -0.2081    2.1870 H   0  0  0  0  0  0  0  0  0  0  0  0
   -1.7643    0.1231   -1.1946 H   0  0  0  0  0  0  0  0  0  0  0  0
   -0.0816   -1.8906   -1.5755 H   0  0  0  0  0  0  0  0  0  0  0  0
  1  2  1  0  0  0  0
  1  9  1  0  0  0  0
  2 10  1  6  0  0  0
  3  2  1  6  0  0  0
  3 11  1  0  0  0  0
  3  4  1  0  0  0  0
  4 12  1  0  0  0  0
  5  4  1  0  0  0  0
  5  6  2  0  0  0  0
  7  5  1  0  0  0  0
  8  2  1  6  0  0  0
  8  7  1  0  0  0  0
  8  3  1  0  0  0  0
 13  7  1  0  0  0  0
 14  8  1  0  0  0  0
M  END
