title
 OpenBabel02282110003D

 20 21  0  0  1  0  0  0  0  0999 V2000
   -1.7208    1.2209    0.8378 C   0  0  0  0  0  0  0  0  0  0  0  0
   -1.5853   -0.2792    0.7109 C   0  0  1  0  0  0  0  0  0  0  0  0
   -0.9262   -0.9768   -0.4562 C   0  0  1  0  0  0  0  0  0  0  0  0
    0.0340   -0.1978   -1.3558 C   0  0  0  0  0  0  0  0  0  0  0  0
    1.1784    0.2009   -0.4373 C   0  0  0  0  0  0  0  0  0  0  0  0
    2.3122    1.0495   -0.9197 C   0  0  0  0  0  0  0  0  0  0  0  0
    0.9929   -0.2902    0.7942 C   0  0  0  0  0  0  0  0  0  0  0  0
   -0.2837   -1.0457    0.9258 C   0  0  1  0  0  0  0  0  0  0  0  0
   -0.7987    1.7381    0.5633 H   0  0  0  0  0  0  0  0  0  0  0  0
   -2.5246    1.5966    0.1941 H   0  0  0  0  0  0  0  0  0  0  0  0
   -1.9635    1.5031    1.8683 H   0  0  0  0  0  0  0  0  0  0  0  0
   -2.4546   -0.8187    1.0822 H   0  0  0  0  0  0  0  0  0  0  0  0
   -1.4321   -1.8387   -0.8762 H   0  0  0  0  0  0  0  0  0  0  0  0
    0.3939   -0.8177   -2.1888 H   0  0  0  0  0  0  0  0  0  0  0  0
   -0.4364    0.6821   -1.8175 H   0  0  0  0  0  0  0  0  0  0  0  0
    1.9630    2.0314   -1.2649 H   0  0  0  0  0  0  0  0  0  0  0  0
    3.0547    1.2146   -0.1340 H   0  0  0  0  0  0  0  0  0  0  0  0
    2.8193    0.5846   -1.7756 H   0  0  0  0  0  0  0  0  0  0  0  0
    1.6750   -0.1404    1.6250 H   0  0  0  0  0  0  0  0  0  0  0  0
   -0.3140   -1.9424    1.5365 H   0  0  0  0  0  0  0  0  0  0  0  0
  1 11  1  0  0  0  0
  2  3  1  6  0  0  0
  2  1  1  0  0  0  0
  2 12  1  0  0  0  0
  3  8  1  1  0  0  0
  4  3  1  0  0  0  0
  4  5  1  0  0  0  0
  5  7  2  0  0  0  0
  6  5  1  0  0  0  0
  6 17  1  0  0  0  0
  7  8  1  0  0  0  0
  7 19  1  0  0  0  0
  8  2  1  1  0  0  0
  8 20  1  0  0  0  0
  9  1  1  0  0  0  0
 10  1  1  0  0  0  0
 13  3  1  0  0  0  0
 14  4  1  0  0  0  0
 15  4  1  0  0  0  0
 16  6  1  0  0  0  0
 18  6  1  0  0  0  0
M  END
