15
title
C -0.4351895 2.4936373 0.047600236
C -0.48697817 1.0143803 -0.09939897
N -0.45626187 0.3468253 -1.1897011
C -0.45378208 -1.0454105 -0.81675273
C 0.7374604 -1.4891139 0.014777252
O 1.8776431 -0.7019136 0.11536936
C -0.522453 -1.0516876 0.71389186
O -0.5852502 0.31427836 1.0672513
H 0.4931233 2.7916837 0.54531765
H -0.48392808 2.9602017 -0.93580866
H -1.2661563 2.843049 0.6675419
H -0.9531633 -1.7388989 -1.4829705
H 0.91419876 -2.5638957 0.02799485
H 2.0615773 -0.33518875 -0.75711393
H -1.104993 -1.6920823 1.363137
