20
title
C -1.671696 1.3216679 0.7907721
C -1.5963428 -0.18612868 0.72352946
C -0.9790056 -0.95531756 -0.43893638
C -0.028041244 -0.22986679 -1.3890324
C 1.2879462 -0.15976162 -0.579806
C 2.156115 1.0611775 -0.82325035
O 0.8806789 -0.17923032 0.80062306
C -0.29823363 -0.93514025 0.905182
H -0.69987315 1.7761419 0.5884212
H -2.3994431 1.7226412 0.0766436
H -1.9773005 1.6419073 1.7924253
H -2.4574292 -0.6941427 1.1533021
H -1.49476 -1.8390646 -0.79574066
H 0.104239464 -0.7823872 -2.3232706
H -0.37937224 0.7750472 -1.6494954
H 1.875392 -1.0714061 -0.7788566
H 1.5901017 1.9822283 -0.6516238
H 3.0210066 1.0593275 -0.15413164
H 2.5208068 1.0665742 -1.8553865
H -0.22565365 -1.7987148 1.5602696
