20
title
C -1.2640058 2.3371716 -0.032785483
C -1.236474 0.8102583 -0.03199346
C -0.49208403 0.18066202 -1.2374811
C -0.030699609 -1.1958274 -0.758103
C 1.2417656 -1.2575108 0.034332216
O 2.0915318 -0.14774998 -0.01265214
C -0.07920289 -1.196983 0.768269
C -0.56617445 0.18017541 1.2160908
H -0.2460376 2.743111 -0.005691044
H -1.7543566 2.7278166 -0.9310627
H -1.8042818 2.7293756 0.8358957
H -2.2706711 0.4403428 -0.060848884
H -1.1398718 0.09916191 -2.114996
H 0.36625803 0.7994008 -1.5202775
H -0.31092572 -2.0727692 -1.3309146
H 1.761149 -2.2162313 0.045344315
H 2.5027297 -0.04984231 0.8526799
H -0.39377445 -2.0744183 1.3230215
H 0.27183294 0.80709046 1.546763
H -1.2610354 0.10471998 2.0574415
