18
title
C -1.0312229 2.2838643 0.01668315
C -1.171403 0.775825 -0.070588335
C -0.5332966 0.10782761 -1.3093075
C -0.051082537 -1.2376932 -0.7773593
C 1.2115878 -1.212405 0.07696162
O 2.024977 -0.08481049 0.1096756
C -0.14179842 -1.1392195 0.728937
O -0.5044011 0.17896736 1.0672481
H 0.020925002 2.5792768 -0.049907893
H -1.5736443 2.7613502 -0.80526197
H -1.4385732 2.6583087 0.95979667
H -2.2353191 0.49764198 -0.016932372
H -1.2566713 -0.0108752195 -2.1194897
H 0.30516288 0.7066966 -1.681004
H -0.30793276 -2.151191 -1.3003011
H 1.7727276 -2.1398778 0.15268338
H 1.5795897 0.539454 0.70107013
H -0.5390991 -1.9092002 1.3827208
