20
title
C -1.5098737 1.4083897 -0.5080465
C -1.5673977 -0.10359978 -0.55767405
C -0.4255003 -1.0074818 -0.9707731
C 1.0055972 -0.48387897 -0.9672234
C 1.3525699 -0.06770251 0.48487028
O 1.5708376 1.3438808 0.5055842
C 0.16361317 -0.52986085 1.3794297
C -0.9390179 -1.0348111 0.45708033
H -0.5431635 1.7823178 -0.16688067
H -1.7005922 1.8308269 -1.5015312
H -2.2820482 1.7990981 0.16542068
H -2.5300894 -0.47134978 -0.90896565
H -0.6521583 -1.8170017 -1.6569384
H 1.6808099 -1.2764871 -1.3045751
H 1.1635484 0.37331092 -1.6295252
H 2.277542 -0.56395835 0.81036335
H 1.749848 1.6009439 1.415708
H 0.48232922 -1.3446132 2.0387788
H -0.15914217 0.2940942 2.0279236
H -1.541049 -1.8633245 0.8160792
