title
 OpenBabel02282110003D

 22 23  0  0  1  0  0  0  0  0999 V2000
   -1.8550    1.2817   -0.6408 C   0  0  0  0  0  0  0  0  0  0  0  0
   -1.6843   -0.2206   -0.5983 C   0  0  1  0  0  0  0  0  0  0  0  0
   -0.4075   -0.9474   -0.9624 C   0  0  1  0  0  0  0  0  0  0  0  0
    0.9133   -0.1778   -0.9846 C   0  0  0  0  0  0  0  0  0  0  0  0
    1.3931   -0.1325    0.4911 C   0  0  1  0  0  0  0  0  0  0  0  0
    2.3078    1.0435    0.8285 C   0  0  0  0  0  0  0  0  0  0  0  0
    0.0927   -0.2054    1.3358 C   0  0  0  0  0  0  0  0  0  0  0  0
   -0.9148   -0.9645    0.4721 C   0  0  1  0  0  0  0  0  0  0  0  0
   -0.9628    1.8238   -0.3187 H   0  0  0  0  0  0  0  0  0  0  0  0
   -2.0894    1.6169   -1.6576 H   0  0  0  0  0  0  0  0  0  0  0  0
   -2.6791    1.5971    0.0093 H   0  0  0  0  0  0  0  0  0  0  0  0
   -2.5805   -0.7471   -0.9214 H   0  0  0  0  0  0  0  0  0  0  0  0
   -0.4934   -1.8281   -1.5900 H   0  0  0  0  0  0  0  0  0  0  0  0
    1.6481   -0.6713   -1.6279 H   0  0  0  0  0  0  0  0  0  0  0  0
    0.7903    0.8379   -1.3816 H   0  0  0  0  0  0  0  0  0  0  0  0
    1.9444   -1.0645    0.6749 H   0  0  0  0  0  0  0  0  0  0  0  0
    1.7971    1.9994    0.6593 H   0  0  0  0  0  0  0  0  0  0  0  0
    2.6231    1.0182    1.8774 H   0  0  0  0  0  0  0  0  0  0  0  0
    3.2125    1.0380    0.2108 H   0  0  0  0  0  0  0  0  0  0  0  0
    0.2635   -0.7179    2.2874 H   0  0  0  0  0  0  0  0  0  0  0  0
   -0.2600    0.8026    1.5887 H   0  0  0  0  0  0  0  0  0  0  0  0
   -1.3695   -1.8575    0.8874 H   0  0  0  0  0  0  0  0  0  0  0  0
  1  2  1  0  0  0  0
  1  9  1  0  0  0  0
  1 11  1  0  0  0  0
  2  8  1  1  0  0  0
  3  2  1  6  0  0  0
  4  3  1  0  0  0  0
  4  5  1  0  0  0  0
  5 16  1  1  0  0  0
  5  6  1  0  0  0  0
  5  7  1  0  0  0  0
  6 18  1  0  0  0  0
  7 21  1  0  0  0  0
  7 20  1  0  0  0  0
  8  3  1  6  0  0  0
  8 22  1  0  0  0  0
  8  7  1  0  0  0  0
 10  1  1  0  0  0  0
 12  2  1  0  0  0  0
 13  3  1  0  0  0  0
 14  4  1  0  0  0  0
 15  4  1  0  0  0  0
 17  6  1  0  0  0  0
 19  6  1  0  0  0  0
M  END
