title
 OpenBabel02282110003D

 18 19  0  0  1  0  0  0  0  0999 V2000
   -1.0312    2.2839    0.0167 C   0  0  0  0  0  0  0  0  0  0  0  0
   -1.1714    0.7758   -0.0706 C   0  0  1  0  0  0  0  0  0  0  0  0
   -0.5333    0.1078   -1.3093 C   0  0  0  0  0  0  0  0  0  0  0  0
   -0.0511   -1.2377   -0.7774 C   0  0  1  0  0  0  0  0  0  0  0  0
    1.2116   -1.2124    0.0770 C   0  0  1  0  0  0  0  0  0  0  0  0
    2.0250   -0.0848    0.1097 O   0  0  0  0  0  0  0  0  0  0  0  0
   -0.1418   -1.1392    0.7289 C   0  0  1  0  0  0  0  0  0  0  0  0
   -0.5044    0.1790    1.0672 O   0  0  0  0  0  0  0  0  0  0  0  0
    0.0209    2.5793   -0.0499 H   0  0  0  0  0  0  0  0  0  0  0  0
   -1.5736    2.7614   -0.8053 H   0  0  0  0  0  0  0  0  0  0  0  0
   -1.4386    2.6583    0.9598 H   0  0  0  0  0  0  0  0  0  0  0  0
   -2.2353    0.4976   -0.0169 H   0  0  0  0  0  0  0  0  0  0  0  0
   -1.2567   -0.0109   -2.1195 H   0  0  0  0  0  0  0  0  0  0  0  0
    0.3052    0.7067   -1.6810 H   0  0  0  0  0  0  0  0  0  0  0  0
   -0.3079   -2.1512   -1.3003 H   0  0  0  0  0  0  0  0  0  0  0  0
    1.7727   -2.1399    0.1527 H   0  0  0  0  0  0  0  0  0  0  0  0
    1.5796    0.5395    0.7011 H   0  0  0  0  0  0  0  0  0  0  0  0
   -0.5391   -1.9092    1.3827 H   0  0  0  0  0  0  0  0  0  0  0  0
  1 11  1  0  0  0  0
  2 12  1  1  0  0  0
  2  1  1  0  0  0  0
  2  8  1  0  0  0  0
  3  4  1  0  0  0  0
  3  2  1  0  0  0  0
  4  5  1  6  0  0  0
  5  6  1  0  0  0  0
  5 16  1  0  0  0  0
  5  7  1  1  0  0  0
  6 17  1  0  0  0  0
  7  4  1  6  0  0  0
  7  8  1  0  0  0  0
  7 18  1  0  0  0  0
  9  1  1  0  0  0  0
 10  1  1  0  0  0  0
 13  3  1  0  0  0  0
 14  3  1  0  0  0  0
 15  4  1  0  0  0  0
M  END
