title
 OpenBabel02282110003D

 20 21  0  0  1  0  0  0  0  0999 V2000
   -1.5099    1.4084   -0.5080 C   0  0  0  0  0  0  0  0  0  0  0  0
   -1.5674   -0.1036   -0.5577 C   0  0  1  0  0  0  0  0  0  0  0  0
   -0.4255   -1.0075   -0.9708 C   0  0  1  0  0  0  0  0  0  0  0  0
    1.0056   -0.4839   -0.9672 C   0  0  0  0  0  0  0  0  0  0  0  0
    1.3526   -0.0677    0.4849 C   0  0  1  0  0  0  0  0  0  0  0  0
    1.5708    1.3439    0.5056 O   0  0  0  0  0  0  0  0  0  0  0  0
    0.1636   -0.5299    1.3794 C   0  0  0  0  0  0  0  0  0  0  0  0
   -0.9390   -1.0348    0.4571 C   0  0  1  0  0  0  0  0  0  0  0  0
   -0.5432    1.7823   -0.1669 H   0  0  0  0  0  0  0  0  0  0  0  0
   -1.7006    1.8308   -1.5015 H   0  0  0  0  0  0  0  0  0  0  0  0
   -2.2820    1.7991    0.1654 H   0  0  0  0  0  0  0  0  0  0  0  0
   -2.5301   -0.4713   -0.9090 H   0  0  0  0  0  0  0  0  0  0  0  0
   -0.6522   -1.8170   -1.6569 H   0  0  0  0  0  0  0  0  0  0  0  0
    1.6808   -1.2765   -1.3046 H   0  0  0  0  0  0  0  0  0  0  0  0
    1.1635    0.3733   -1.6295 H   0  0  0  0  0  0  0  0  0  0  0  0
    2.2775   -0.5640    0.8104 H   0  0  0  0  0  0  0  0  0  0  0  0
    1.7498    1.6009    1.4157 H   0  0  0  0  0  0  0  0  0  0  0  0
    0.4823   -1.3446    2.0388 H   0  0  0  0  0  0  0  0  0  0  0  0
   -0.1591    0.2941    2.0279 H   0  0  0  0  0  0  0  0  0  0  0  0
   -1.5410   -1.8633    0.8161 H   0  0  0  0  0  0  0  0  0  0  0  0
  1  9  1  0  0  0  0
  1 11  1  0  0  0  0
  2  1  1  0  0  0  0
  2  8  1  1  0  0  0
  3  4  1  0  0  0  0
  3  2  1  6  0  0  0
  4  5  1  0  0  0  0
  5  6  1  0  0  0  0
  5 16  1  1  0  0  0
  5  7  1  0  0  0  0
  6 17  1  0  0  0  0
  7 19  1  0  0  0  0
  7 18  1  0  0  0  0
  8  3  1  6  0  0  0
  8 20  1  0  0  0  0
  8  7  1  0  0  0  0
 10  1  1  0  0  0  0
 12  2  1  0  0  0  0
 13  3  1  0  0  0  0
 14  4  1  0  0  0  0
 15  4  1  0  0  0  0
M  END
