title
 OpenBabel02282110003D

 19 20  0  0  1  0  0  0  0  0999 V2000
   -1.3998    1.3172    0.7908 C   0  0  0  0  0  0  0  0  0  0  0  0
   -1.4273   -0.1939    0.7842 C   0  0  1  0  0  0  0  0  0  0  0  0
   -0.9293   -1.0583   -0.3214 C   0  0  1  0  0  0  0  0  0  0  0  0
   -0.0210   -0.4850   -1.4004 C   0  0  0  0  0  0  0  0  0  0  0  0
    1.2538    0.0098   -0.6783 C   0  0  1  0  0  0  0  0  0  0  0  0
    1.3635    1.4211   -0.8640 O   0  0  0  0  0  0  0  0  0  0  0  0
    1.0715   -0.4287    0.8058 C   0  0  0  0  0  0  0  0  0  0  0  0
   -0.2453   -1.0598    0.9920 N   0  0  1  0  0  0  0  0  0  0  0  0
   -0.5876    1.7408    0.1990 H   0  0  0  0  0  0  0  0  0  0  0  0
   -2.3476    1.6994    0.3954 H   0  0  0  0  0  0  0  0  0  0  0  0
   -1.3053    1.6893    1.8181 H   0  0  0  0  0  0  0  0  0  0  0  0
   -2.2809   -0.5940    1.3316 H   0  0  0  0  0  0  0  0  0  0  0  0
   -1.4804   -1.9622   -0.5715 H   0  0  0  0  0  0  0  0  0  0  0  0
    0.2208   -1.2629   -2.1295 H   0  0  0  0  0  0  0  0  0  0  0  0
   -0.4673    0.3483   -1.9508 H   0  0  0  0  0  0  0  0  0  0  0  0
    2.1475   -0.4686   -1.1018 H   0  0  0  0  0  0  0  0  0  0  0  0
    2.1439    1.7236   -0.3886 H   0  0  0  0  0  0  0  0  0  0  0  0
    1.8264   -1.1749    1.0768 H   0  0  0  0  0  0  0  0  0  0  0  0
    1.2006    0.4273    1.4786 H   0  0  0  0  0  0  0  0  0  0  0  0
  1 11  1  0  0  0  0
  2  3  1  6  0  0  0
  2  1  1  0  0  0  0
  2 12  1  0  0  0  0
  3  8  1  1  0  0  0
  4  5  1  0  0  0  0
  4  3  1  0  0  0  0
  5 16  1  6  0  0  0
  5  7  1  0  0  0  0
  6  5  1  0  0  0  0
  6 17  1  0  0  0  0
  7  8  1  0  0  0  0
  7 18  1  0  0  0  0
  7 19  1  0  0  0  0
  8  2  1  1  0  0  0
  9  1  1  0  0  0  0
 10  1  1  0  0  0  0
 13  3  1  0  0  0  0
 14  4  1  0  0  0  0
 15  4  1  0  0  0  0
M  END
