title
 OpenBabel02282110003D

 15 16  0  0  1  0  0  0  0  0999 V2000
    0.2252   -2.6802   -0.3304 O   0  0  0  0  0  0  0  0  0  0  0  0
    0.0482   -1.4686   -0.2611 C   0  0  0  0  0  0  0  0  0  0  0  0
   -1.1385   -0.6902   -0.2290 C   0  0  0  0  0  0  0  0  0  0  0  0
   -2.1334   -0.9840   -0.5212 H   0  0  0  0  0  0  0  0  0  0  0  0
   -0.7878    0.6996   -0.2899 N   0  0  1  0  0  0  0  0  0  0  0  0
   -1.1343    1.1728   -1.1287 H   0  0  0  0  0  0  0  0  0  0  0  0
   -0.7750    1.7597    0.8652 C   0  0  0  0  0  0  0  0  0  0  0  0
    0.6920    2.1160    0.5246 C   0  0  0  0  0  0  0  0  0  0  0  0
    0.7137    0.7848   -0.1966 C   0  0  1  0  0  0  0  0  0  0  0  0
    1.1907   -0.4504   -0.1141 C   0  0  0  0  0  0  0  0  0  0  0  0
   -1.5518    2.5146    0.7411 H   0  0  0  0  0  0  0  0  0  0  0  0
   -0.8874    1.2080    1.7964 H   0  0  0  0  0  0  0  0  0  0  0  0
    0.7907    2.9961   -0.1182 H   0  0  0  0  0  0  0  0  0  0  0  0
    1.3716    2.2101    1.3710 H   0  0  0  0  0  0  0  0  0  0  0  0
    2.2063   -0.7419    0.1152 H   0  0  0  0  0  0  0  0  0  0  0  0
  1  2  2  0  0  0  0
  2  3  1  0  0  0  0
  2 10  1  0  0  0  0
  4  3  1  0  0  0  0
  5  6  1  6  0  0  0
  5  3  1  0  0  0  0
  5  7  1  0  0  0  0
  7 12  1  0  0  0  0
  8  7  1  0  0  0  0
  8 14  1  0  0  0  0
  9  5  1  1  0  0  0
  9 10  1  0  0  0  0
  9  8  1  0  0  0  0
 10 15  1  0  0  0  0
 11  7  1  0  0  0  0
 13  8  1  0  0  0  0
M  RAD  3   3   2   9   2  10   2
M  END
