title
 OpenBabel02282110003D

 14 15  0  0  1  0  0  0  0  0999 V2000
   -0.1692    2.6863    0.1200 N   0  0  0  0  0  0  0  0  0  0  0  0
   -0.1227    1.4329   -0.0309 C   0  0  0  0  0  0  0  0  0  0  0  0
    1.0709    0.7189   -0.2494 O   0  0  0  0  0  0  0  0  0  0  0  0
    0.7066   -0.6185   -0.5148 C   0  0  1  0  0  0  0  0  0  0  0  0
    0.8369   -1.8921    0.4119 C   0  0  0  0  0  0  0  0  0  0  0  0
   -0.6649   -2.0654    0.3363 N   0  0  0  0  0  0  0  0  0  0  0  0
   -0.7258   -0.7256   -0.1770 C   0  0  1  0  0  0  0  0  0  0  0  0
   -1.2449    0.4749    0.0939 C   0  0  0  0  0  0  0  0  0  0  0  0
    0.7666    3.0909    0.0731 H   0  0  0  0  0  0  0  0  0  0  0  0
    0.9871   -0.8811   -1.5417 H   0  0  0  0  0  0  0  0  0  0  0  0
    1.4312   -2.7189    0.0159 H   0  0  0  0  0  0  0  0  0  0  0  0
    1.1290   -1.6595    1.4378 H   0  0  0  0  0  0  0  0  0  0  0  0
   -0.9704   -2.8050   -0.2878 H   0  0  0  0  0  0  0  0  0  0  0  0
   -2.1997    0.7628    0.5045 H   0  0  0  0  0  0  0  0  0  0  0  0
  2  8  1  0  0  0  0
  2  1  2  0  0  0  0
  3  2  1  0  0  0  0
  4 10  1  6  0  0  0
  4  3  1  0  0  0  0
  4  5  1  0  0  0  0
  5 12  1  0  0  0  0
  6  5  1  0  0  0  0
  7  4  1  1  0  0  0
  7  8  1  0  0  0  0
  7  6  1  0  0  0  0
  8 14  1  0  0  0  0
  9  1  1  0  0  0  0
 11  5  1  0  0  0  0
 13  6  1  0  0  0  0
M  RAD  2   7   2   8   2
M  END
