15
title
O 0.15432689 -2.7013304 0.11643347
C 0.09363555 -1.4988211 0.006990657
C -1.2500975 -0.68214446 0.042715937
C -0.81619745 0.70439404 -0.4311643
C -0.724256 2.077443 0.32611376
N 0.7534908 2.0377915 0.03780063
C 0.66536945 0.68308824 -0.2100946
C 1.2161756 -0.53180367 -0.034889136
H -2.020804 -1.1604831 -0.56486946
H -1.5961174 -0.6830333 1.0822244
H -1.0810013 0.88257855 -1.4764822
H -1.2426591 2.9346416 -0.10890054
H -0.94263613 2.0006511 1.3964429
H 1.4459578 2.4238746 0.6676025
H 2.2330856 -0.8019044 0.20928323
