14
title
N -0.16916597 2.6863203 0.120018505
C -0.12268521 1.4329368 -0.030920355
O 1.0709378 0.71893585 -0.2494207
C 0.706645 -0.6184574 -0.51480544
C 0.8369361 -1.8921162 0.411942
N -0.66494995 -2.0653708 0.33628199
C -0.7257998 -0.72564274 -0.17695732
C -1.2448721 0.474873 0.09391379
H 0.76657027 3.0908575 0.07311489
H 0.9870943 -0.8810523 -1.5417236
H 1.431159 -2.718903 0.015888762
H 1.1290134 -1.6594595 1.4378369
H -0.97038555 -2.8050041 -0.28780907
H -2.1997144 0.7628457 0.5044712
