14
title
O 0.16651765 -2.6371634 -0.30581826
C 0.115236975 -1.4324992 -0.22863159
N -1.09157 -0.7028974 -0.013231597
C -0.84747857 0.6898109 -0.24772963
C -0.73142695 1.8573269 0.81432724
N 0.6722535 2.0650907 0.3004649
C 0.64381784 0.7658309 -0.20042768
C 1.230581 -0.43839467 -0.22463539
H -1.9383262 -1.1450163 -0.33999836
H -1.3021257 1.0690252 -1.1685151
H -1.384294 2.7245631 0.6943181
H -0.7555084 1.4794649 1.8401054
H 1.4124185 2.3412561 0.9342675
H 2.2574844 -0.7242707 -0.059747957
