title
 OpenBabel02282110003D

 16 17  0  0  1  0  0  0  0  0999 V2000
    0.1146   -2.6992    0.0657 O   0  0  0  0  0  0  0  0  0  0  0  0
    0.0602   -1.4969   -0.0288 C   0  0  0  0  0  0  0  0  0  0  0  0
   -1.2530   -0.6637   -0.1511 C   0  0  0  0  0  0  0  0  0  0  0  0
   -0.7574    0.7476   -0.4711 C   0  0  1  0  0  0  0  0  0  0  0  0
   -0.7354    2.0089    0.4669 C   0  0  0  0  0  0  0  0  0  0  0  0
    0.8116    2.1438    0.1769 C   0  0  0  0  0  0  0  0  0  0  0  0
    0.7230    0.6921   -0.2126 C   0  0  1  0  0  0  0  0  0  0  0  0
    1.1931   -0.5283    0.0601 C   0  0  0  0  0  0  0  0  0  0  0  0
   -1.9255   -1.1032   -0.8912 H   0  0  0  0  0  0  0  0  0  0  0  0
   -1.7604   -0.7121    0.8194 H   0  0  0  0  0  0  0  0  0  0  0  0
   -1.0016    1.0590   -1.4923 H   0  0  0  0  0  0  0  0  0  0  0  0
   -1.3674    2.8538    0.1861 H   0  0  0  0  0  0  0  0  0  0  0  0
   -0.9167    1.7418    1.5106 H   0  0  0  0  0  0  0  0  0  0  0  0
    0.9921    2.8088   -0.6735 H   0  0  0  0  0  0  0  0  0  0  0  0
    1.4833    2.4147    0.9937 H   0  0  0  0  0  0  0  0  0  0  0  0
    2.1762   -0.8192    0.4062 H   0  0  0  0  0  0  0  0  0  0  0  0
  2  8  1  0  0  0  0
  2  1  2  0  0  0  0
  3  2  1  0  0  0  0
  3 10  1  0  0  0  0
  4 11  1  6  0  0  0
  4  3  1  0  0  0  0
  4  5  1  0  0  0  0
  5 13  1  0  0  0  0
  6  5  1  0  0  0  0
  6 15  1  0  0  0  0
  7  4  1  1  0  0  0
  7  8  1  0  0  0  0
  7  6  1  0  0  0  0
  8 16  1  0  0  0  0
  9  3  1  0  0  0  0
 12  5  1  0  0  0  0
 14  6  1  0  0  0  0
M  RAD  2   7   2   8   2
M  END
