14
title
O 0.06263761 -2.5880888 0.22449814
C 0.09702265 -1.4124404 0.0121306665
O -1.0589082 -0.6903801 -0.30609664
C -0.68804944 0.6466973 -0.54442406
C -0.82756543 1.8344996 0.4834135
C 0.6858163 2.1855137 0.19719557
C 0.769137 0.7477443 -0.2548703
C 1.2312818 -0.44700503 0.114063844
H -1.023657 0.9492092 -1.540885
H -1.5728406 2.5962522 0.24890542
H -0.9616571 1.4616745 1.4995089
H 0.7848903 2.9133298 -0.6124165
H 1.3145224 2.4837787 1.0362082
H 2.166754 -0.7286434 0.5743349
