title
 OpenBabel02282110003D

 14 15  0  0  1  0  0  0  0  0999 V2000
    0.1665   -2.6372   -0.3058 O   0  0  0  0  0  0  0  0  0  0  0  0
    0.1152   -1.4325   -0.2286 C   0  0  0  0  0  0  0  0  0  0  0  0
   -1.0916   -0.7029   -0.0132 N   0  0  0  0  0  0  0  0  0  0  0  0
   -0.8475    0.6898   -0.2477 C   0  0  1  0  0  0  0  0  0  0  0  0
   -0.7314    1.8573    0.8143 C   0  0  0  0  0  0  0  0  0  0  0  0
    0.6723    2.0651    0.3005 N   0  0  0  0  0  0  0  0  0  0  0  0
    0.6438    0.7658   -0.2004 C   0  0  1  0  0  0  0  0  0  0  0  0
    1.2306   -0.4384   -0.2246 C   0  0  0  0  0  0  0  0  0  0  0  0
   -1.9383   -1.1450   -0.3400 H   0  0  0  0  0  0  0  0  0  0  0  0
   -1.3021    1.0690   -1.1685 H   0  0  0  0  0  0  0  0  0  0  0  0
   -1.3843    2.7246    0.6943 H   0  0  0  0  0  0  0  0  0  0  0  0
   -0.7555    1.4795    1.8401 H   0  0  0  0  0  0  0  0  0  0  0  0
    1.4124    2.3413    0.9343 H   0  0  0  0  0  0  0  0  0  0  0  0
    2.2575   -0.7243   -0.0597 H   0  0  0  0  0  0  0  0  0  0  0  0
  1  2  2  0  0  0  0
  2  8  1  0  0  0  0
  2  3  1  0  0  0  0
  4 10  1  6  0  0  0
  4  3  1  0  0  0  0
  4  5  1  0  0  0  0
  5 12  1  0  0  0  0
  6  5  1  0  0  0  0
  6 13  1  0  0  0  0
  7  4  1  1  0  0  0
  7  6  1  0  0  0  0
  8  7  1  0  0  0  0
  8 14  1  0  0  0  0
  9  3  1  0  0  0  0
 11  5  1  0  0  0  0
M  RAD  2   7   2   8   2
M  END
