title
 OpenBabel02282110003D

 15 16  0  0  1  0  0  0  0  0999 V2000
    0.1021   -2.6492   -0.1792 O   0  0  0  0  0  0  0  0  0  0  0  0
    0.0769   -1.4398   -0.1672 C   0  0  0  0  0  0  0  0  0  0  0  0
   -1.0876   -0.6531   -0.2323 N   0  0  0  0  0  0  0  0  0  0  0  0
   -0.7562    0.7305   -0.3991 C   0  0  1  0  0  0  0  0  0  0  0  0
   -0.7763    1.8387    0.7327 C   0  0  0  0  0  0  0  0  0  0  0  0
    0.7329    2.1464    0.4025 C   0  0  0  0  0  0  0  0  0  0  0  0
    0.7289    0.7605   -0.1965 C   0  0  1  0  0  0  0  0  0  0  0  0
    1.2094   -0.4691    0.0006 C   0  0  0  0  0  0  0  0  0  0  0  0
   -1.9244   -1.0717   -0.6081 H   0  0  0  0  0  0  0  0  0  0  0  0
   -1.1179    1.1504   -1.3446 H   0  0  0  0  0  0  0  0  0  0  0  0
   -1.4915    2.6534    0.6039 H   0  0  0  0  0  0  0  0  0  0  0  0
   -0.8828    1.3863    1.7194 H   0  0  0  0  0  0  0  0  0  0  0  0
    0.8317    2.9488   -0.3343 H   0  0  0  0  0  0  0  0  0  0  0  0
    1.4139    2.3320    1.2338 H   0  0  0  0  0  0  0  0  0  0  0  0
    2.1797   -0.7827    0.3584 H   0  0  0  0  0  0  0  0  0  0  0  0
  1  2  2  0  0  0  0
  2  8  1  0  0  0  0
  3  2  1  0  0  0  0
  4 10  1  6  0  0  0
  4  3  1  0  0  0  0
  4  5  1  0  0  0  0
  5 12  1  0  0  0  0
  6  5  1  0  0  0  0
  6 14  1  0  0  0  0
  7  4  1  1  0  0  0
  7  8  1  0  0  0  0
  7  6  1  0  0  0  0
  8 15  1  0  0  0  0
  9  3  1  0  0  0  0
 11  5  1  0  0  0  0
 13  6  1  0  0  0  0
M  RAD  2   7   2   8   2
M  END
