title
 OpenBabel02282110003D

 14 15  0  0  1  0  0  0  0  0999 V2000
    0.0626   -2.5881    0.2245 O   0  0  0  0  0  0  0  0  0  0  0  0
    0.0970   -1.4124    0.0121 C   0  0  0  0  0  0  0  0  0  0  0  0
   -1.0589   -0.6904   -0.3061 O   0  0  0  0  0  0  0  0  0  0  0  0
   -0.6880    0.6467   -0.5444 C   0  0  1  0  0  0  0  0  0  0  0  0
   -0.8276    1.8345    0.4834 C   0  0  0  0  0  0  0  0  0  0  0  0
    0.6858    2.1855    0.1972 C   0  0  0  0  0  0  0  0  0  0  0  0
    0.7691    0.7477   -0.2549 C   0  0  1  0  0  0  0  0  0  0  0  0
    1.2313   -0.4470    0.1141 C   0  0  0  0  0  0  0  0  0  0  0  0
   -1.0237    0.9492   -1.5409 H   0  0  0  0  0  0  0  0  0  0  0  0
   -1.5728    2.5963    0.2489 H   0  0  0  0  0  0  0  0  0  0  0  0
   -0.9617    1.4617    1.4995 H   0  0  0  0  0  0  0  0  0  0  0  0
    0.7849    2.9133   -0.6124 H   0  0  0  0  0  0  0  0  0  0  0  0
    1.3145    2.4838    1.0362 H   0  0  0  0  0  0  0  0  0  0  0  0
    2.1668   -0.7286    0.5743 H   0  0  0  0  0  0  0  0  0  0  0  0
  2  8  1  0  0  0  0
  2  1  2  0  0  0  0
  3  2  1  0  0  0  0
  4  9  1  6  0  0  0
  4  3  1  0  0  0  0
  4  5  1  0  0  0  0
  5 11  1  0  0  0  0
  6  5  1  0  0  0  0
  6 13  1  0  0  0  0
  7  4  1  1  0  0  0
  7  8  1  0  0  0  0
  7  6  1  0  0  0  0
  8 14  1  0  0  0  0
 10  5  1  0  0  0  0
 12  6  1  0  0  0  0
M  RAD  2   7   2   8   2
M  END
