17
title
O -0.11375884 -2.5524254 -0.003615311
C -0.04926359 -1.3609384 -0.20827618
C -1.1499062 -0.4539604 -0.7806481
C -0.6211326 0.96430165 -0.58478636
C -0.8064173 1.6175306 0.8194237
C 0.7349906 1.7736628 0.94550717
C 0.9115311 0.83738285 -0.28190994
N 1.0475988 -0.56779927 0.021811971
H -1.2946179 -0.7146526 -1.8347713
H -2.0942943 -0.6491384 -0.26586097
H -0.857141 1.642483 -1.4051734
H -1.3919035 2.5385816 0.8495499
H -1.2283543 0.92014486 1.5481173
H 1.0730358 2.7899148 0.7250762
H 1.199069 1.4433088 1.8777635
H 1.6288244 1.160667 -1.043643
H 1.8934249 -0.98001415 0.38385856
