15
title
O -0.029675528 -2.4521842 -0.4771834
C -0.106531136 -1.2613434 -0.44556066
C -1.3611311 -0.3936661 -0.32611793
C -0.8199561 1.0018902 -0.07056431
N -0.42516825 1.2462704 1.3400488
C 0.9800266 1.5231962 0.9487103
C 0.68821615 0.921446 -0.43982682
O 1.0030855 -0.46289176 -0.54568124
H -1.9219751 -0.46921533 -1.2640449
H -1.9907637 -0.7676162 0.48259386
H -1.3861018 1.805448 -0.5507936
H -0.90948504 2.0052037 1.8037777
H 1.2422416 2.5873642 0.8819548
H 1.7307456 1.0027106 1.5509794
H 1.0736991 1.439091 -1.3184279
