16
title
O 0.006749854 -2.4912043 -0.1786905
C 0.04194025 -1.3112313 -0.40232933
C -1.1732084 -0.42781246 -0.736174
C -0.74514973 1.0159622 -0.46112207
C -0.83372116 1.4737467 1.0079867
O 0.5766211 1.247058 1.217317
C 0.7947361 0.9805895 -0.18724951
C 1.2991973 -0.4316324 -0.42744455
H -1.4034872 -0.58041286 -1.798284
H -2.0493062 -0.7570275 -0.17129996
H -1.107429 1.7286261 -1.2014418
H -1.0999498 2.5299578 1.142754
H -1.452299 0.86141884 1.6755595
H 1.4050887 1.7614015 -0.65299034
H 2.030236 -0.7581806 0.3150756
H 1.760373 -0.5245472 -1.4202087
