title
 OpenBabel02282110003D

 15 16  0  0  1  0  0  0  0  0999 V2000
   -0.0297   -2.4522   -0.4772 O   0  0  0  0  0  0  0  0  0  0  0  0
   -0.1065   -1.2613   -0.4456 C   0  0  0  0  0  0  0  0  0  0  0  0
   -1.3611   -0.3937   -0.3261 C   0  0  0  0  0  0  0  0  0  0  0  0
   -0.8200    1.0019   -0.0706 C   0  0  1  0  0  0  0  0  0  0  0  0
   -0.4252    1.2463    1.3400 N   0  0  0  0  0  0  0  0  0  0  0  0
    0.9800    1.5232    0.9487 C   0  0  0  0  0  0  0  0  0  0  0  0
    0.6882    0.9214   -0.4398 C   0  0  1  0  0  0  0  0  0  0  0  0
    1.0031   -0.4629   -0.5457 O   0  0  0  0  0  0  0  0  0  0  0  0
   -1.9220   -0.4692   -1.2640 H   0  0  0  0  0  0  0  0  0  0  0  0
   -1.9908   -0.7676    0.4826 H   0  0  0  0  0  0  0  0  0  0  0  0
   -1.3861    1.8054   -0.5508 H   0  0  0  0  0  0  0  0  0  0  0  0
   -0.9095    2.0052    1.8038 H   0  0  0  0  0  0  0  0  0  0  0  0
    1.2422    2.5874    0.8820 H   0  0  0  0  0  0  0  0  0  0  0  0
    1.7307    1.0027    1.5510 H   0  0  0  0  0  0  0  0  0  0  0  0
    1.0737    1.4391   -1.3184 H   0  0  0  0  0  0  0  0  0  0  0  0
  1  2  2  0  0  0  0
  2  3  1  0  0  0  0
  3  4  1  0  0  0  0
  3 10  1  0  0  0  0
  4  7  1  6  0  0  0
  4  5  1  0  0  0  0
  5 12  1  0  0  0  0
  6  5  1  0  0  0  0
  6 14  1  0  0  0  0
  7 15  1  6  0  0  0
  7  6  1  0  0  0  0
  8  2  1  0  0  0  0
  8  7  1  0  0  0  0
  9  3  1  0  0  0  0
 11  4  1  0  0  0  0
 13  6  1  0  0  0  0
M  END
