title
 OpenBabel02282110003D

 15 16  0  0  1  0  0  0  0  0999 V2000
   -0.1043    2.4454   -0.6271 N   0  0  0  0  0  0  0  0  0  0  0  0
   -0.0791    1.1959   -0.5007 C   0  0  0  0  0  0  0  0  0  0  0  0
    1.0121    0.3812   -0.6360 O   0  0  0  0  0  0  0  0  0  0  0  0
    0.6498   -0.9791   -0.4052 C   0  0  1  0  0  0  0  0  0  0  0  0
    0.9945   -1.4949    1.0132 C   0  0  0  0  0  0  0  0  0  0  0  0
   -0.4938   -1.2909    1.4414 C   0  0  0  0  0  0  0  0  0  0  0  0
   -0.8459   -0.8884   -0.0166 C   0  0  1  0  0  0  0  0  0  0  0  0
   -1.1909    0.4758   -0.2070 O   0  0  0  0  0  0  0  0  0  0  0  0
    0.8223    2.7903   -0.8652 H   0  0  0  0  0  0  0  0  0  0  0  0
    0.9617   -1.5783   -1.2625 H   0  0  0  0  0  0  0  0  0  0  0  0
    1.3193   -2.5377    1.0203 H   0  0  0  0  0  0  0  0  0  0  0  0
    1.7377   -0.8902    1.5355 H   0  0  0  0  0  0  0  0  0  0  0  0
   -1.0032   -2.1848    1.8059 H   0  0  0  0  0  0  0  0  0  0  0  0
   -0.6637   -0.4764    2.1477 H   0  0  0  0  0  0  0  0  0  0  0  0
   -1.5719   -1.5098   -0.5418 H   0  0  0  0  0  0  0  0  0  0  0  0
  1  2  2  0  0  0  0
  2  8  1  0  0  0  0
  3  2  1  0  0  0  0
  3  4  1  0  0  0  0
  4  7  1  6  0  0  0
  4  5  1  0  0  0  0
  5 11  1  0  0  0  0
  5  6  1  0  0  0  0
  5 12  1  0  0  0  0
  6 13  1  0  0  0  0
  6 14  1  0  0  0  0
  7 15  1  6  0  0  0
  7  6  1  0  0  0  0
  8  7  1  0  0  0  0
  9  1  1  0  0  0  0
 10  4  1  0  0  0  0
M  END
