title
 OpenBabel02282110003D

 15 16  0  0  1  0  0  0  0  0999 V2000
   -0.1081    2.5189    0.4556 N   0  0  0  0  0  0  0  0  0  0  0  0
   -0.1167    1.2595    0.4619 C   0  0  0  0  0  0  0  0  0  0  0  0
   -1.3443    0.3788    0.3212 C   0  0  0  0  0  0  0  0  0  0  0  0
   -0.7792   -1.0110    0.0907 C   0  0  1  0  0  0  0  0  0  0  0  0
   -0.4606   -1.2860   -1.2937 O   0  0  0  0  0  0  0  0  0  0  0  0
    0.9529   -1.3831   -1.0022 C   0  0  0  0  0  0  0  0  0  0  0  0
    0.7230   -0.9028    0.4387 C   0  0  1  0  0  0  0  0  0  0  0  0
    1.0036    0.4783    0.6360 O   0  0  0  0  0  0  0  0  0  0  0  0
    0.8407    2.8753    0.5814 H   0  0  0  0  0  0  0  0  0  0  0  0
   -1.9330    0.4261    1.2434 H   0  0  0  0  0  0  0  0  0  0  0  0
   -1.9772    0.7119   -0.5027 H   0  0  0  0  0  0  0  0  0  0  0  0
   -1.3568   -1.8225    0.5422 H   0  0  0  0  0  0  0  0  0  0  0  0
    1.3167   -2.4148   -1.0854 H   0  0  0  0  0  0  0  0  0  0  0  0
    1.5602   -0.7205   -1.6270 H   0  0  0  0  0  0  0  0  0  0  0  0
    1.1563   -1.4760    1.2586 H   0  0  0  0  0  0  0  0  0  0  0  0
  1  2  2  0  0  0  0
  1  9  1  0  0  0  0
  2  8  1  0  0  0  0
  3  2  1  0  0  0  0
  3 10  1  0  0  0  0
  4  3  1  0  0  0  0
  4  7  1  1  0  0  0
  4 12  1  0  0  0  0
  5  6  1  0  0  0  0
  5  4  1  0  0  0  0
  6  7  1  0  0  0  0
  7  8  1  0  0  0  0
  7 15  1  1  0  0  0
 11  3  1  0  0  0  0
 13  6  1  0  0  0  0
 14  6  1  0  0  0  0
M  END
