title
 OpenBabel02282110003D

 15 16  0  0  1  0  0  0  0  0999 V2000
    0.0562   -2.5561   -0.1323 O   0  0  0  0  0  0  0  0  0  0  0  0
    0.0340   -1.3565   -0.2767 C   0  0  0  0  0  0  0  0  0  0  0  0
   -1.1820   -0.4795   -0.6093 C   0  0  0  0  0  0  0  0  0  0  0  0
   -0.6836    0.9505   -0.4740 C   0  0  1  0  0  0  0  0  0  0  0  0
   -0.8207    1.4821    0.8640 O   0  0  0  0  0  0  0  0  0  0  0  0
    0.6063    1.6494    1.0043 C   0  0  0  0  0  0  0  0  0  0  0  0
    0.8624    0.8882   -0.3153 C   0  0  1  0  0  0  0  0  0  0  0  0
    1.1257   -0.5214   -0.1968 N   0  0  0  0  0  0  0  0  0  0  0  0
   -1.5259   -0.7156   -1.6214 H   0  0  0  0  0  0  0  0  0  0  0  0
   -2.0003   -0.6886    0.0832 H   0  0  0  0  0  0  0  0  0  0  0  0
   -1.0767    1.6439   -1.2235 H   0  0  0  0  0  0  0  0  0  0  0  0
    0.8975    2.7077    0.9760 H   0  0  0  0  0  0  0  0  0  0  0  0
    0.9936    1.1833    1.9167 H   0  0  0  0  0  0  0  0  0  0  0  0
    1.4985    1.3784   -1.0558 H   0  0  0  0  0  0  0  0  0  0  0  0
    2.0280   -0.9021    0.0421 H   0  0  0  0  0  0  0  0  0  0  0  0
  2  8  1  0  0  0  0
  2  1  2  0  0  0  0
  3  4  1  0  0  0  0
  3  2  1  0  0  0  0
  3 10  1  0  0  0  0
  4  7  1  6  0  0  0
  4  5  1  0  0  0  0
  5  6  1  0  0  0  0
  6 13  1  0  0  0  0
  7 14  1  6  0  0  0
  7  8  1  0  0  0  0
  7  6  1  0  0  0  0
  8 15  1  0  0  0  0
  9  3  1  0  0  0  0
 11  4  1  0  0  0  0
 12  6  1  0  0  0  0
M  END
