15
title
N -0.104314305 2.4454138 -0.6271476
C -0.07914789 1.1958517 -0.50069886
O 1.012107 0.38120008 -0.6360182
C 0.6497521 -0.9790521 -0.4051899
C 0.9944931 -1.4949048 1.0132154
C -0.49380863 -1.2908602 1.4413733
C -0.8459406 -0.88842374 -0.016636446
O -1.190902 0.4758405 -0.20702268
H 0.8223264 2.7902958 -0.865161
H 0.9617311 -1.5783057 -1.2624636
H 1.3192728 -2.5377078 1.0203379
H 1.737667 -0.89025 1.5354542
H -1.0032147 -2.1847527 1.8058947
H -0.6636964 -0.4763574 2.1477153
H -1.5718894 -1.509829 -0.5418452
