title
 OpenBabel02282110003D

 20 21  0  0  1  0  0  0  0  0999 V2000
   -0.1167    2.7971    0.0833 C   0  0  0  0  0  0  0  0  0  0  0  0
   -0.2619    1.3121   -0.0338 C   0  0  0  0  0  0  0  0  0  0  0  0
   -0.0477    0.5643   -1.1213 C   0  0  0  0  0  0  0  0  0  0  0  0
   -0.2926   -0.9021   -0.9005 C   0  0  1  0  0  0  0  0  0  0  0  0
    0.9778   -1.7919   -0.7406 C   0  0  0  0  0  0  0  0  0  0  0  0
    0.8991   -1.5862    0.7981 C   0  0  0  0  0  0  0  0  0  0  0  0
   -0.5267   -0.9740    0.6478 C   0  0  1  0  0  0  0  0  0  0  0  0
   -0.7182    0.4689    1.1446 C   0  0  0  0  0  0  0  0  0  0  0  0
    0.6209    3.0643    0.8512 H   0  0  0  0  0  0  0  0  0  0  0  0
    0.1968    3.2507   -0.8610 H   0  0  0  0  0  0  0  0  0  0  0  0
   -1.0620    3.2647    0.3887 H   0  0  0  0  0  0  0  0  0  0  0  0
    0.2720    0.9618   -2.0806 H   0  0  0  0  0  0  0  0  0  0  0  0
   -1.0631   -1.3039   -1.5679 H   0  0  0  0  0  0  0  0  0  0  0  0
    0.7943   -2.8292   -1.0351 H   0  0  0  0  0  0  0  0  0  0  0  0
    1.8863   -1.4461   -1.2413 H   0  0  0  0  0  0  0  0  0  0  0  0
    0.9778   -2.4873    1.4112 H   0  0  0  0  0  0  0  0  0  0  0  0
    1.6247   -0.8568    1.1693 H   0  0  0  0  0  0  0  0  0  0  0  0
   -1.3173   -1.6536    0.9713 H   0  0  0  0  0  0  0  0  0  0  0  0
   -0.1321    0.6745    2.0514 H   0  0  0  0  0  0  0  0  0  0  0  0
   -1.7635    0.6942    1.4023 H   0  0  0  0  0  0  0  0  0  0  0  0
  1 11  1  0  0  0  0
  1  9  1  0  0  0  0
  2  1  1  0  0  0  0
  2  8  1  0  0  0  0
  3  4  1  0  0  0  0
  3  2  2  0  0  0  0
  4  5  1  0  0  0  0
  4  7  1  1  0  0  0
  5  6  1  0  0  0  0
  6 17  1  0  0  0  0
  6 16  1  0  0  0  0
  7  6  1  0  0  0  0
  7 18  1  1  0  0  0
  7  8  1  0  0  0  0
  8 20  1  0  0  0  0
  8 19  1  0  0  0  0
 10  1  1  0  0  0  0
 12  3  1  0  0  0  0
 13  4  1  0  0  0  0
 14  5  1  0  0  0  0
 15  5  1  0  0  0  0
M  END
