title
 OpenBabel02282110003D

 18 19  0  0  1  0  0  0  0  0999 V2000
   -0.6593    2.7408    0.0867 C   0  0  0  0  0  0  0  0  0  0  0  0
   -0.5185    1.2517    0.0547 C   0  0  0  0  0  0  0  0  0  0  0  0
   -0.5943    0.4569   -1.0181 C   0  0  0  0  0  0  0  0  0  0  0  0
   -0.3850   -0.9892   -0.6781 C   0  0  1  0  0  0  0  0  0  0  0  0
    0.9448   -1.4927   -0.9966 O   0  0  0  0  0  0  0  0  0  0  0  0
    1.3467   -1.3952    0.3856 C   0  0  0  0  0  0  0  0  0  0  0  0
   -0.0701   -0.9796    0.8410 C   0  0  1  0  0  0  0  0  0  0  0  0
   -0.2715    0.4639    1.3304 C   0  0  0  0  0  0  0  0  0  0  0  0
    0.2492    3.2122    0.4827 H   0  0  0  0  0  0  0  0  0  0  0  0
   -0.8515    3.1525   -0.9074 H   0  0  0  0  0  0  0  0  0  0  0  0
   -1.4795    3.0459    0.7491 H   0  0  0  0  0  0  0  0  0  0  0  0
   -0.7677    0.8005   -2.0322 H   0  0  0  0  0  0  0  0  0  0  0  0
   -1.1516   -1.6647   -1.0744 H   0  0  0  0  0  0  0  0  0  0  0  0
    1.7135   -2.3556    0.7670 H   0  0  0  0  0  0  0  0  0  0  0  0
    2.1224   -0.6323    0.5407 H   0  0  0  0  0  0  0  0  0  0  0  0
   -0.5785   -1.7260    1.4513 H   0  0  0  0  0  0  0  0  0  0  0  0
    0.5997    0.8452    1.8809 H   0  0  0  0  0  0  0  0  0  0  0  0
   -1.1241    0.5537    2.0174 H   0  0  0  0  0  0  0  0  0  0  0  0
  1  9  1  0  0  0  0
  1 11  1  0  0  0  0
  2  1  1  0  0  0  0
  2  8  1  0  0  0  0
  3  4  1  0  0  0  0
  3  2  2  0  0  0  0
  4  7  1  1  0  0  0
  5  4  1  0  0  0  0
  5  6  1  0  0  0  0
  6 15  1  0  0  0  0
  6 14  1  0  0  0  0
  6  7  1  0  0  0  0
  7  8  1  0  0  0  0
  7 16  1  1  0  0  0
  8 17  1  0  0  0  0
  8 18  1  0  0  0  0
 10  1  1  0  0  0  0
 12  3  1  0  0  0  0
 13  4  1  0  0  0  0
M  END
