16
title
N -0.012657787 2.4736176 0.5024553
C -0.051283 1.1064185 0.4758168
N -1.0763096 0.36770916 0.66097087
C -0.6311075 -1.0072347 0.45430455
C -0.9484304 -1.6049176 -0.94769293
C 0.5235801 -1.3312758 -1.3923349
C 0.8708741 -0.8713986 0.04436578
O 1.1535122 0.5333745 0.1765698
H 0.8873308 2.873061 0.7194097
H -0.79237324 2.8959007 0.9818674
H -0.89263505 -1.636382 1.3101678
H -1.2061441 -2.6669948 -0.9222676
H -1.7237966 -1.0658461 -1.494826
H 1.0800731 -2.2040153 -1.7419993
H 0.64147484 -0.52934664 -2.1245465
H 1.6460766 -1.426526 0.5742376
