title
 OpenBabel02282110003D

 15 16  0  0  1  0  0  0  0  0999 V2000
    0.1238   -2.3237   -0.9503 O   0  0  0  0  0  0  0  0  0  0  0  0
    0.0751   -1.1684   -0.6361 C   0  0  0  0  0  0  0  0  0  0  0  0
   -1.0418   -0.3797   -0.4701 N   0  0  0  0  0  0  0  0  0  0  0  0
   -0.7469    1.0133   -0.2434 C   0  0  1  0  0  0  0  0  0  0  0  0
   -0.9456    1.5194    1.2130 C   0  0  0  0  0  0  0  0  0  0  0  0
    0.5269    1.1220    1.5379 C   0  0  0  0  0  0  0  0  0  0  0  0
    0.7843    0.9009    0.0235 C   0  0  1  0  0  0  0  0  0  0  0  0
    1.1872   -0.4064   -0.3663 O   0  0  0  0  0  0  0  0  0  0  0  0
   -1.9287   -0.7276   -0.7915 H   0  0  0  0  0  0  0  0  0  0  0  0
   -1.1062    1.6595   -1.0506 H   0  0  0  0  0  0  0  0  0  0  0  0
   -1.1128    2.5990    1.2480 H   0  0  0  0  0  0  0  0  0  0  0  0
   -1.7295    1.0205    1.7855 H   0  0  0  0  0  0  0  0  0  0  0  0
    1.1424    1.8807    2.0245 H   0  0  0  0  0  0  0  0  0  0  0  0
    0.6165    0.1867    2.0937 H   0  0  0  0  0  0  0  0  0  0  0  0
    1.4363    1.6282   -0.4607 H   0  0  0  0  0  0  0  0  0  0  0  0
  1  2  2  0  0  0  0
  2  3  1  0  0  0  0
  2  8  1  0  0  0  0
  3  4  1  0  0  0  0
  4  7  1  6  0  0  0
  4  5  1  0  0  0  0
  5 11  1  0  0  0  0
  5  6  1  0  0  0  0
  5 12  1  0  0  0  0
  6 13  1  0  0  0  0
  6 14  1  0  0  0  0
  7 15  1  6  0  0  0
  7  6  1  0  0  0  0
  8  7  1  0  0  0  0
  9  3  1  0  0  0  0
 10  4  1  0  0  0  0
M  END
