16
title
O -0.0862491 -2.4986959 -0.46092024
C -0.0075159953 -1.2923652 -0.4107272
N -0.96793044 -0.37650847 -0.8332548
C -0.6181686 0.96966195 -0.45494744
C -0.8976345 1.4709344 1.0004548
C 0.63296 1.682565 1.1995424
C 0.90143794 0.87835383 -0.102141745
N 1.0601547 -0.55026746 0.07610158
H -1.9218606 -0.6956897 -0.883105
H -0.8795532 1.6975257 -1.2263709
H -1.5291016 2.3570273 1.0938385
H -1.3074191 0.67829967 1.630399
H 0.9307958 2.7298262 1.0984274
H 1.0757569 1.273206 2.1093912
H 1.6277728 1.2981563 -0.8059749
H 1.9590116 -0.9976959 0.13814257
