14
title
O 0.021587336 -2.5070028 0.07810724
C -0.081989355 -1.3396951 -0.14440641
C -1.338014 -0.4686836 -0.08579272
C -0.8292633 0.9464406 -0.26561993
O -0.4374725 1.5791217 0.9738014
C 0.9504427 1.6375047 0.5664574
C 0.6540946 0.79553163 -0.6821238
O 0.9902545 -0.5787988 -0.53678554
H -2.016397 -0.78132 -0.88610035
H -1.8497329 -0.61058414 0.8679851
H -1.4684569 1.5952188 -0.8708622
H 1.270814 2.6651273 0.35566092
H 1.624482 1.1766037 1.2950958
H 1.0052727 1.1483215 -1.6515633
