title
 OpenBabel02282110003D

 18 19  0  0  1  0  0  0  0  0999 V2000
   -0.5906    2.7464    0.0760 C   0  0  0  0  0  0  0  0  0  0  0  0
   -0.4998    1.2541    0.0278 C   0  0  0  0  0  0  0  0  0  0  0  0
   -0.6237    0.4733   -1.0508 C   0  0  0  0  0  0  0  0  0  0  0  0
   -0.4503   -0.9868   -0.7472 C   0  0  1  0  0  0  0  0  0  0  0  0
    0.9815   -1.5471   -0.9325 C   0  0  0  0  0  0  0  0  0  0  0  0
    1.2854   -1.3298    0.4610 O   0  0  0  0  0  0  0  0  0  0  0  0
   -0.0893   -0.9927    0.7639 C   0  0  1  0  0  0  0  0  0  0  0  0
   -0.2537    0.4396    1.2850 C   0  0  0  0  0  0  0  0  0  0  0  0
    0.3433    3.1861    0.4487 H   0  0  0  0  0  0  0  0  0  0  0  0
   -0.7981    3.1731   -0.9090 H   0  0  0  0  0  0  0  0  0  0  0  0
   -1.3816    3.0727    0.7637 H   0  0  0  0  0  0  0  0  0  0  0  0
   -0.8079    0.8420   -2.0551 H   0  0  0  0  0  0  0  0  0  0  0  0
   -1.2621   -1.6250   -1.1053 H   0  0  0  0  0  0  0  0  0  0  0  0
    1.0222   -2.6132   -1.1953 H   0  0  0  0  0  0  0  0  0  0  0  0
    1.6500   -0.9846   -1.5945 H   0  0  0  0  0  0  0  0  0  0  0  0
   -0.5509   -1.7550    1.4012 H   0  0  0  0  0  0  0  0  0  0  0  0
    0.6532    0.7507    1.8186 H   0  0  0  0  0  0  0  0  0  0  0  0
   -1.0879    0.5349    1.9944 H   0  0  0  0  0  0  0  0  0  0  0  0
  1  9  1  0  0  0  0
  1 11  1  0  0  0  0
  2  1  1  0  0  0  0
  2  8  1  0  0  0  0
  3  4  1  0  0  0  0
  3  2  2  0  0  0  0
  4  7  1  1  0  0  0
  5  4  1  0  0  0  0
  5  6  1  0  0  0  0
  6  7  1  0  0  0  0
  7  8  1  0  0  0  0
  7 16  1  1  0  0  0
  8 17  1  0  0  0  0
  8 18  1  0  0  0  0
 10  1  1  0  0  0  0
 12  3  1  0  0  0  0
 13  4  1  0  0  0  0
 14  5  1  0  0  0  0
 15  5  1  0  0  0  0
M  END
