title
 OpenBabel02282110003D

 20 21  0  0  1  0  0  0  0  0999 V2000
   -0.5442    2.1465    0.2036 C   0  0  0  0  0  0  0  0  0  0  0  0
   -1.1808    0.8182   -0.2132 C   0  0  1  0  0  0  0  0  0  0  0  0
   -0.5282    0.1512   -1.4484 C   0  0  0  0  0  0  0  0  0  0  0  0
    0.4040   -0.9185   -0.8666 C   0  0  1  0  0  0  0  0  0  0  0  0
    1.8066   -0.4753   -0.3482 C   0  0  0  0  0  0  0  0  0  0  0  0
    1.3393   -0.6994    1.1197 C   0  0  0  0  0  0  0  0  0  0  0  0
   -0.0791   -1.0883    0.6054 C   0  0  1  0  0  0  0  0  0  0  0  0
   -1.1138   -0.1529    0.8387 O   0  0  0  0  0  0  0  0  0  0  0  0
    0.5374    2.0580    0.3402 H   0  0  0  0  0  0  0  0  0  0  0  0
   -0.7277    2.9106   -0.5599 H   0  0  0  0  0  0  0  0  0  0  0  0
   -0.9802    2.4911    1.1456 H   0  0  0  0  0  0  0  0  0  0  0  0
   -2.2485    0.9950   -0.3900 H   0  0  0  0  0  0  0  0  0  0  0  0
   -1.2983   -0.3211   -2.0658 H   0  0  0  0  0  0  0  0  0  0  0  0
   -0.0015    0.8761   -2.0764 H   0  0  0  0  0  0  0  0  0  0  0  0
    0.4212   -1.8243   -1.4749 H   0  0  0  0  0  0  0  0  0  0  0  0
    2.6260   -1.1241   -0.6662 H   0  0  0  0  0  0  0  0  0  0  0  0
    2.0790    0.5532   -0.6000 H   0  0  0  0  0  0  0  0  0  0  0  0
    1.8583   -1.5132    1.6330 H   0  0  0  0  0  0  0  0  0  0  0  0
    1.3442    0.1780    1.7695 H   0  0  0  0  0  0  0  0  0  0  0  0
   -0.4408   -2.0692    0.9266 H   0  0  0  0  0  0  0  0  0  0  0  0
  1  9  1  0  0  0  0
  1 11  1  0  0  0  0
  2 12  1  6  0  0  0
  2  1  1  0  0  0  0
  2  8  1  0  0  0  0
  3  4  1  0  0  0  0
  3  2  1  0  0  0  0
  4  5  1  0  0  0  0
  4  7  1  1  0  0  0
  5  6  1  0  0  0  0
  6 18  1  0  0  0  0
  6 19  1  0  0  0  0
  7  8  1  0  0  0  0
  7 20  1  1  0  0  0
  7  6  1  0  0  0  0
 10  1  1  0  0  0  0
 13  3  1  0  0  0  0
 14  3  1  0  0  0  0
 15  4  1  0  0  0  0
 16  5  1  0  0  0  0
 17  5  1  0  0  0  0
M  END
