17
title
C -1.5579581 2.2802749 0.082945615
C -1.2847313 0.78342706 0.037239686
C -0.57132614 0.3092273 -1.2922568
C 0.14328998 -0.9521856 -0.78625596
C 1.6593764 -1.2773529 -0.6285203
O 1.5511575 -1.0974005 0.8436852
C 0.3201006 -0.53808135 0.63288045
N -0.35169202 0.3927754 1.1514803
H -0.6206254 2.8425648 0.021657655
H -2.1991336 2.5814977 -0.75265193
H -2.0549936 2.5541954 1.0171703
H -2.2352245 0.24280195 0.15423061
H -1.2681433 0.13973294 -2.1167812
H 0.1470787 1.0780174 -1.5996205
H -0.44266325 -1.864138 -0.9257743
H 1.9767983 -2.2924376 -0.87069684
H 2.3500497 -0.53487927 -1.0364666
