title
 OpenBabel02282110003D

 18 19  0  0  1  0  0  0  0  0999 V2000
   -0.6029    2.1486   -0.1682 C   0  0  0  0  0  0  0  0  0  0  0  0
   -1.1716    0.7632    0.1151 C   0  0  1  0  0  0  0  0  0  0  0  0
   -0.9865   -0.1217   -0.9805 O   0  0  0  0  0  0  0  0  0  0  0  0
   -0.0023   -1.0805   -0.6543 C   0  0  1  0  0  0  0  0  0  0  0  0
    1.4757   -0.7078   -0.9769 C   0  0  0  0  0  0  0  0  0  0  0  0
    1.7536   -0.5106    0.5449 C   0  0  0  0  0  0  0  0  0  0  0  0
    0.2742   -0.8844    0.8592 C   0  0  1  0  0  0  0  0  0  0  0  0
   -0.5774    0.1685    1.2601 O   0  0  0  0  0  0  0  0  0  0  0  0
    0.4724    2.1019   -0.3586 H   0  0  0  0  0  0  0  0  0  0  0  0
   -1.0964    2.5784   -1.0447 H   0  0  0  0  0  0  0  0  0  0  0  0
   -0.7794    2.8031    0.6902 H   0  0  0  0  0  0  0  0  0  0  0  0
   -2.2520    0.8348    0.3032 H   0  0  0  0  0  0  0  0  0  0  0  0
   -0.3397   -2.0579   -1.0077 H   0  0  0  0  0  0  0  0  0  0  0  0
    2.0451   -1.5175   -1.4394 H   0  0  0  0  0  0  0  0  0  0  0  0
    1.5696    0.1830   -1.6007 H   0  0  0  0  0  0  0  0  0  0  0  0
    2.4843   -1.2058    0.9651 H   0  0  0  0  0  0  0  0  0  0  0  0
    2.0183    0.5015    0.8565 H   0  0  0  0  0  0  0  0  0  0  0  0
    0.1252   -1.7281    1.5374 H   0  0  0  0  0  0  0  0  0  0  0  0
  1  2  1  0  0  0  0
  1 11  1  0  0  0  0
  2 12  1  1  0  0  0
  2  8  1  0  0  0  0
  3  4  1  0  0  0  0
  3  2  1  0  0  0  0
  4  7  1  1  0  0  0
  5  4  1  0  0  0  0
  5  6  1  0  0  0  0
  6 17  1  0  0  0  0
  6  7  1  0  0  0  0
  6 16  1  0  0  0  0
  7  8  1  0  0  0  0
  7 18  1  1  0  0  0
  9  1  1  0  0  0  0
 10  1  1  0  0  0  0
 13  4  1  0  0  0  0
 14  5  1  0  0  0  0
 15  5  1  0  0  0  0
M  END
