16
title
O 0.6282723 2.2712 1.1687075
C 0.6783201 0.8533862 1.1035693
C -0.78277814 0.3071129 1.0529859
C -0.64102733 -0.964698 0.2061492
O -1.4074491 -1.1863248 -1.0306754
C -0.17035061 -1.3039074 -1.8026006
C 0.5601925 -0.691696 -0.6352966
C 1.2774523 0.34151897 -0.21650995
H 1.4942 2.593499 1.4366403
H 1.2117397 0.46071163 1.9838855
H -1.22129 0.15739138 2.0426214
H -1.3793455 1.04453 0.50756717
H -0.6544578 -1.8855717 0.8037743
H 0.056421936 -2.3554928 -2.022173
H -0.19334757 -0.7293214 -2.7343316
H 2.069215 0.87152153 -0.7329947
