title
 OpenBabel02282110003D

 18 19  0  0  1  0  0  0  0  0999 V2000
   -0.5061    2.1146    0.1547 C   0  0  0  0  0  0  0  0  0  0  0  0
   -1.1887    0.7968   -0.2145 C   0  0  1  0  0  0  0  0  0  0  0  0
   -0.5568    0.0866   -1.4321 C   0  0  0  0  0  0  0  0  0  0  0  0
    0.4080   -0.9094   -0.8059 C   0  0  1  0  0  0  0  0  0  0  0  0
    1.6474   -0.3222   -0.3349 O   0  0  0  0  0  0  0  0  0  0  0  0
    1.3316   -0.6484    1.0401 C   0  0  0  0  0  0  0  0  0  0  0  0
   -0.0916   -1.0944    0.6449 C   0  0  1  0  0  0  0  0  0  0  0  0
   -1.1243   -0.1605    0.8615 O   0  0  0  0  0  0  0  0  0  0  0  0
    0.5789    1.9969    0.2107 H   0  0  0  0  0  0  0  0  0  0  0  0
   -0.7247    2.8736   -0.6047 H   0  0  0  0  0  0  0  0  0  0  0  0
   -0.8789    2.4770    1.1168 H   0  0  0  0  0  0  0  0  0  0  0  0
   -2.2560    0.9836   -0.3757 H   0  0  0  0  0  0  0  0  0  0  0  0
   -1.3165   -0.4583   -2.0021 H   0  0  0  0  0  0  0  0  0  0  0  0
   -0.0471    0.7765   -2.1089 H   0  0  0  0  0  0  0  0  0  0  0  0
    0.5932   -1.7997   -1.4150 H   0  0  0  0  0  0  0  0  0  0  0  0
    1.9729   -1.4549    1.4185 H   0  0  0  0  0  0  0  0  0  0  0  0
    1.3905    0.2182    1.7062 H   0  0  0  0  0  0  0  0  0  0  0  0
   -0.4228   -2.0731    0.9977 H   0  0  0  0  0  0  0  0  0  0  0  0
  1  9  1  0  0  0  0
  1 11  1  0  0  0  0
  2 12  1  6  0  0  0
  2  1  1  0  0  0  0
  2  8  1  0  0  0  0
  3  4  1  0  0  0  0
  3  2  1  0  0  0  0
  4  5  1  0  0  0  0
  4  7  1  1  0  0  0
  5  6  1  0  0  0  0
  6 16  1  0  0  0  0
  6 17  1  0  0  0  0
  7  8  1  0  0  0  0
  7 18  1  1  0  0  0
  7  6  1  0  0  0  0
 10  1  1  0  0  0  0
 13  3  1  0  0  0  0
 14  3  1  0  0  0  0
 15  4  1  0  0  0  0
M  END
