title
 OpenBabel02282110003D

 22 23  0  0  1  0  0  0  0  0999 V2000
   -2.0735    1.9306   -0.0505 C   0  0  0  0  0  0  0  0  0  0  0  0
   -1.4065    0.5639    0.0906 C   0  0  1  0  0  0  0  0  0  0  0  0
   -0.7131    0.0500   -1.1950 C   0  0  0  0  0  0  0  0  0  0  0  0
    0.3175   -0.9886   -0.7045 C   0  0  1  0  0  0  0  0  0  0  0  0
    1.8399   -0.6676   -0.8286 C   0  0  0  0  0  0  0  0  0  0  0  0
    1.9876   -0.7890    0.7156 C   0  0  0  0  0  0  0  0  0  0  0  0
    0.4401   -0.8273    0.8485 C   0  0  1  0  0  0  0  0  0  0  0  0
   -0.2851    0.4963    1.1475 C   0  0  0  0  0  0  0  0  0  0  0  0
   -1.3384    2.6966   -0.3253 H   0  0  0  0  0  0  0  0  0  0  0  0
   -2.8473    1.9204   -0.8258 H   0  0  0  0  0  0  0  0  0  0  0  0
   -2.5470    2.2447    0.8860 H   0  0  0  0  0  0  0  0  0  0  0  0
   -2.1744   -0.1708    0.3739 H   0  0  0  0  0  0  0  0  0  0  0  0
   -1.4317   -0.3604   -1.9113 H   0  0  0  0  0  0  0  0  0  0  0  0
   -0.2084    0.8853   -1.6982 H   0  0  0  0  0  0  0  0  0  0  0  0
    0.0780   -2.0024   -1.0336 H   0  0  0  0  0  0  0  0  0  0  0  0
    2.4356   -1.3637   -1.4242 H   0  0  0  0  0  0  0  0  0  0  0  0
    2.0270    0.3427   -1.2049 H   0  0  0  0  0  0  0  0  0  0  0  0
    2.4590   -1.7279    1.0181 H   0  0  0  0  0  0  0  0  0  0  0  0
    2.5001    0.0289    1.2304 H   0  0  0  0  0  0  0  0  0  0  0  0
    0.0383   -1.6421    1.4572 H   0  0  0  0  0  0  0  0  0  0  0  0
    0.3963    1.3468    1.0037 H   0  0  0  0  0  0  0  0  0  0  0  0
   -0.6625    0.5609    2.1730 H   0  0  0  0  0  0  0  0  0  0  0  0
  1  2  1  0  0  0  0
  1 11  1  0  0  0  0
  2 12  1  1  0  0  0
  2  8  1  0  0  0  0
  3  4  1  0  0  0  0
  3  2  1  0  0  0  0
  4  7  1  1  0  0  0
  5  4  1  0  0  0  0
  5  6  1  0  0  0  0
  6  7  1  0  0  0  0
  6 18  1  0  0  0  0
  6 19  1  0  0  0  0
  7  8  1  0  0  0  0
  7 20  1  1  0  0  0
  8 22  1  0  0  0  0
  9  1  1  0  0  0  0
 10  1  1  0  0  0  0
 13  3  1  0  0  0  0
 14  3  1  0  0  0  0
 15  4  1  0  0  0  0
 16  5  1  0  0  0  0
 17  5  1  0  0  0  0
 21  8  1  0  0  0  0
M  END
