title
 OpenBabel02282110003D

 20 21  0  0  1  0  0  0  0  0999 V2000
   -1.9719    2.0343    0.0924 C   0  0  0  0  0  0  0  0  0  0  0  0
   -1.3900    0.6226    0.1099 C   0  0  1  0  0  0  0  0  0  0  0  0
   -0.6176    0.2283   -1.1693 C   0  0  0  0  0  0  0  0  0  0  0  0
    0.2015   -1.0100   -0.7626 C   0  0  1  0  0  0  0  0  0  0  0  0
    1.7370   -0.9176   -0.8565 C   0  0  0  0  0  0  0  0  0  0  0  0
    1.8510   -0.5957    0.5457 O   0  0  0  0  0  0  0  0  0  0  0  0
    0.4399   -0.8550    0.7632 C   0  0  1  0  0  0  0  0  0  0  0  0
   -0.3694    0.3600    1.2419 C   0  0  0  0  0  0  0  0  0  0  0  0
   -1.1791    2.7811   -0.0338 H   0  0  0  0  0  0  0  0  0  0  0  0
   -2.6853    2.1627   -0.7288 H   0  0  0  0  0  0  0  0  0  0  0  0
   -2.4968    2.2614    1.0263 H   0  0  0  0  0  0  0  0  0  0  0  0
   -2.2171   -0.0919    0.2326 H   0  0  0  0  0  0  0  0  0  0  0  0
   -1.2809    0.0453   -2.0197 H   0  0  0  0  0  0  0  0  0  0  0  0
    0.0518    1.0505   -1.4548 H   0  0  0  0  0  0  0  0  0  0  0  0
   -0.2428   -1.9454   -1.1064 H   0  0  0  0  0  0  0  0  0  0  0  0
    2.2399   -1.8642   -1.0950 H   0  0  0  0  0  0  0  0  0  0  0  0
    2.1446   -0.1266   -1.4989 H   0  0  0  0  0  0  0  0  0  0  0  0
    0.3011   -1.7470    1.3853 H   0  0  0  0  0  0  0  0  0  0  0  0
    0.3167    1.2090    1.3416 H   0  0  0  0  0  0  0  0  0  0  0  0
   -0.8509    0.2053    2.2118 H   0  0  0  0  0  0  0  0  0  0  0  0
  1  2  1  0  0  0  0
  1 11  1  0  0  0  0
  2 12  1  1  0  0  0
  2  8  1  0  0  0  0
  3  4  1  0  0  0  0
  3  2  1  0  0  0  0
  4  7  1  1  0  0  0
  5  4  1  0  0  0  0
  5  6  1  0  0  0  0
  6  7  1  0  0  0  0
  7  8  1  0  0  0  0
  7 18  1  1  0  0  0
  8 19  1  0  0  0  0
  8 20  1  0  0  0  0
  9  1  1  0  0  0  0
 10  1  1  0  0  0  0
 13  3  1  0  0  0  0
 14  3  1  0  0  0  0
 15  4  1  0  0  0  0
 16  5  1  0  0  0  0
 17  5  1  0  0  0  0
M  END
