18
title
C -0.5061127 2.1145704 0.15467063
C -1.1886743 0.79684746 -0.21453722
C -0.55678755 0.08662169 -1.432082
C 0.40795612 -0.90936005 -0.80586547
O 1.6474255 -0.32223892 -0.33488452
C 1.3316048 -0.6483692 1.0401404
C -0.0915748 -1.0943569 0.6448741
O -1.1243241 -0.16049714 0.8614983
H 0.5789385 1.9968742 0.21072641
H -0.7246751 2.8736227 -0.6046578
H -0.8789497 2.4770293 1.1167619
H -2.2559798 0.98361295 -0.37570548
H -1.3165256 -0.45830953 -2.0020945
H -0.04706706 0.7765178 -2.108928
H 0.59317887 -1.7997357 -1.4150096
H 1.9729117 -1.4548961 1.4185152
H 1.3904539 0.21815024 1.7062025
H -0.4228025 -2.0731378 0.9976836
