18
title
C -0.602946 2.148578 -0.16819568
C -1.1715842 0.7631892 0.11511159
O -0.98654103 -0.121738 -0.9804912
C -0.0022894596 -1.0804688 -0.65432066
C 1.4757243 -0.7078412 -0.9768582
C 1.7536484 -0.51062256 0.54486465
C 0.2741521 -0.88437706 0.85920817
O -0.5773609 0.16849442 1.2600658
H 0.47240478 2.1019223 -0.35859486
H -1.0963674 2.5784307 -1.0446875
H -0.77944547 2.803127 0.6902267
H -2.252011 0.8347988 0.30315056
H -0.33971655 -2.0578718 -1.0077224
H 2.0450962 -1.5175076 -1.4394473
H 1.5696388 0.18303509 -1.6006708
H 2.4843094 -1.2058122 0.9650751
H 2.0183377 0.50151885 0.8565256
H 0.12518735 -1.7281466 1.5373875
