18
title
C -0.40059078 1.3079693 0.74709207
C 1.1198575 1.0421947 0.6944583
C 0.8602426 -0.1509268 1.6968924
C -0.24274038 -0.25271288 0.600335
C -1.2496527 -1.1134251 -0.09398851
C -1.0829644 -0.9376123 -1.4147341
C 0.07989554 0.0063941064 -1.7712088
C 0.8630103 -0.0062931296 -0.44457045
H -0.8051996 1.665406 1.6977414
H -0.8481448 1.8417859 -0.093182
H 1.9224991 1.777926 0.76923
H 1.6083373 -0.9482863 1.714847
H 0.54692733 0.13258882 2.7054443
H -2.040832 -1.6921777 0.36762992
H -1.7267815 -1.3632693 -2.1781528
H 0.6701999 -0.3561617 -2.6187272
H -0.31148055 0.9889352 -2.0632975
H 1.6153175 -0.8026067 -0.47164014
