16
title
C -0.39333102 1.3426719 0.7570339
C 1.0944647 0.9921451 0.6971076
O 0.8179596 -0.17710823 1.6074302
C -0.22849773 -0.19813739 0.54453254
C -1.2193134 -1.125611 -0.06800924
C -1.0942513 -0.96082896 -1.3969712
C 0.032916583 0.011162175 -1.8084543
C 0.85121757 0.015698208 -0.5050638
H -0.76202375 1.6373926 1.7393563
H -0.8287347 1.9295751 -0.054886743
H 1.9702144 1.588685 0.95457345
H -1.9806659 -1.7061288 0.4365439
H -1.7560761 -1.4066527 -2.1324565
H 0.5924157 -0.33727098 -2.681755
H -0.3962418 0.98507255 -2.0738802
H 1.579291 -0.7983079 -0.49285755
