20
title
O 0.60346997 1.64812 -0.7946598
C 0.6839824 0.30467653 -1.2756304
C 1.3969979 -0.63437307 -0.28091365
C 0.33416072 -1.0229325 0.7605788
C -0.01964246 0.033033438 1.849632
C -1.3936316 0.2895629 1.1671014
C -1.057027 -0.76958543 0.074974604
C -0.7488197 -0.24656941 -1.3383222
H 1.5006268 1.960092 -0.6401428
H 1.168411 0.2939116 -2.262989
H 1.739394 -1.5263747 -0.82031953
H 2.2861795 -0.16735749 0.16031986
H 0.50473994 -2.026662 1.156045
H -0.08658086 -0.37825716 2.860276
H 0.6447283 0.899383 1.873874
H -2.2588646 0.034166493 1.7843101
H -1.5245501 1.3022932 0.78259176
H -1.7453624 -1.6172729 0.052270003
H -1.4489146 0.5204345 -1.6824119
H -0.77813613 -1.0716547 -2.059278
