17
title
C -0.44929877 1.300752 0.75755703
C 1.0601803 1.0066208 0.6806952
C 0.83634704 -0.1759658 1.69232
C -0.257928 -0.25992802 0.5920338
C -1.2379448 -1.1195422 -0.13804212
C -1.022749 -0.9117699 -1.4435453
C 0.14513558 0.049077354 -1.6909435
N 0.8533755 -0.05398809 -0.40210518
H -0.84676564 1.6651664 1.7085738
H -0.89992434 1.8288314 -0.08384677
H 1.8970051 1.7055225 0.6590334
H 1.5883012 -0.96425843 1.6635622
H 0.52527785 0.099330835 2.7015474
H -2.0304465 -1.7109768 0.3004313
H -1.6118422 -1.3270849 -2.253476
H 0.7992597 -0.27240178 -2.5086205
H -0.24224539 1.0458097 -1.9625676
