title
 OpenBabel02282110003D

 15 17  0  0  1  0  0  0  0  0999 V2000
   -0.3696    1.3035    0.7067 C   0  0  0  0  0  0  0  0  0  0  0  0
    1.1441    0.9972    0.6961 C   0  0  1  0  0  0  0  0  0  0  0  0
    0.8368   -0.2168    1.6853 C   0  0  0  0  0  0  0  0  0  0  0  0
   -0.2213   -0.2383    0.5573 C   0  0  1  0  0  0  0  0  0  0  0  0
   -1.2272   -1.0076   -0.0913 O   0  0  0  0  0  0  0  0  0  0  0  0
   -0.9631   -0.6442   -1.4055 C   0  0  0  0  0  0  0  0  0  0  0  0
    0.1080   -0.0180   -1.7175 N   0  0  0  0  0  0  0  0  0  0  0  0
    0.8804   -0.0468   -0.4552 C   0  0  1  0  0  0  0  0  0  0  0  0
   -0.7915    1.6633    1.6472 H   0  0  0  0  0  0  0  0  0  0  0  0
   -0.7628    1.8422   -0.1549 H   0  0  0  0  0  0  0  0  0  0  0  0
    1.9663    1.7011    0.8075 H   0  0  0  0  0  0  0  0  0  0  0  0
    1.5630   -1.0320    1.7005 H   0  0  0  0  0  0  0  0  0  0  0  0
    0.5060    0.0658    2.6865 H   0  0  0  0  0  0  0  0  0  0  0  0
   -1.7404   -0.9418   -2.1005 H   0  0  0  0  0  0  0  0  0  0  0  0
    1.6595   -0.8127   -0.5351 H   0  0  0  0  0  0  0  0  0  0  0  0
  1  9  1  0  0  0  0
  2  8  1  6  0  0  0
  2  1  1  0  0  0  0
  2 11  1  0  0  0  0
  2  3  1  0  0  0  0
  3 12  1  0  0  0  0
  3 13  1  0  0  0  0
  4  5  1  6  0  0  0
  4  1  1  0  0  0  0
  4  3  1  0  0  0  0
  6  5  1  0  0  0  0
  7  6  2  0  0  0  0
  7  8  1  0  0  0  0
  8  4  1  1  0  0  0
 10  1  1  0  0  0  0
 14  6  1  0  0  0  0
 15  8  1  0  0  0  0
M  END
