title
 OpenBabel02282110003D

 17 19  0  0  1  0  0  0  0  0999 V2000
   -0.4493    1.3008    0.7576 C   0  0  0  0  0  0  0  0  0  0  0  0
    1.0602    1.0066    0.6807 C   0  0  1  0  0  0  0  0  0  0  0  0
    0.8363   -0.1760    1.6923 C   0  0  0  0  0  0  0  0  0  0  0  0
   -0.2579   -0.2599    0.5920 C   0  0  1  0  0  0  0  0  0  0  0  0
   -1.2379   -1.1195   -0.1380 C   0  0  0  0  0  0  0  0  0  0  0  0
   -1.0227   -0.9118   -1.4435 C   0  0  0  0  0  0  0  0  0  0  0  0
    0.1451    0.0491   -1.6909 C   0  0  0  0  0  0  0  0  0  0  0  0
    0.8534   -0.0540   -0.4021 N   0  0  1  0  0  0  0  0  0  0  0  0
   -0.8468    1.6652    1.7086 H   0  0  0  0  0  0  0  0  0  0  0  0
   -0.8999    1.8288   -0.0838 H   0  0  0  0  0  0  0  0  0  0  0  0
    1.8970    1.7055    0.6590 H   0  0  0  0  0  0  0  0  0  0  0  0
    1.5883   -0.9643    1.6636 H   0  0  0  0  0  0  0  0  0  0  0  0
    0.5253    0.0993    2.7015 H   0  0  0  0  0  0  0  0  0  0  0  0
   -2.0304   -1.7110    0.3004 H   0  0  0  0  0  0  0  0  0  0  0  0
   -1.6118   -1.3271   -2.2535 H   0  0  0  0  0  0  0  0  0  0  0  0
    0.7993   -0.2724   -2.5086 H   0  0  0  0  0  0  0  0  0  0  0  0
   -0.2422    1.0458   -1.9626 H   0  0  0  0  0  0  0  0  0  0  0  0
  1  9  1  0  0  0  0
  2  8  1  6  0  0  0
  2  1  1  0  0  0  0
  2  3  1  0  0  0  0
  3 13  1  0  0  0  0
  4  5  1  6  0  0  0
  4  1  1  0  0  0  0
  4  3  1  0  0  0  0
  5 14  1  0  0  0  0
  6  5  2  0  0  0  0
  7  6  1  0  0  0  0
  7  8  1  0  0  0  0
  8  4  1  1  0  0  0
 10  1  1  0  0  0  0
 11  2  1  0  0  0  0
 12  3  1  0  0  0  0
 15  6  1  0  0  0  0
 16  7  1  0  0  0  0
 17  7  1  0  0  0  0
M  END
