title
 OpenBabel02282110003D

 16 18  0  0  1  0  0  0  0  0999 V2000
   -0.3933    1.3427    0.7570 C   0  0  0  0  0  0  0  0  0  0  0  0
    1.0945    0.9921    0.6971 C   0  0  1  0  0  0  0  0  0  0  0  0
    0.8180   -0.1771    1.6074 O   0  0  0  0  0  0  0  0  0  0  0  0
   -0.2285   -0.1981    0.5445 C   0  0  1  0  0  0  0  0  0  0  0  0
   -1.2193   -1.1256   -0.0680 C   0  0  0  0  0  0  0  0  0  0  0  0
   -1.0943   -0.9608   -1.3970 C   0  0  0  0  0  0  0  0  0  0  0  0
    0.0329    0.0112   -1.8085 C   0  0  0  0  0  0  0  0  0  0  0  0
    0.8512    0.0157   -0.5051 C   0  0  1  0  0  0  0  0  0  0  0  0
   -0.7620    1.6374    1.7394 H   0  0  0  0  0  0  0  0  0  0  0  0
   -0.8287    1.9296   -0.0549 H   0  0  0  0  0  0  0  0  0  0  0  0
    1.9702    1.5887    0.9546 H   0  0  0  0  0  0  0  0  0  0  0  0
   -1.9807   -1.7061    0.4365 H   0  0  0  0  0  0  0  0  0  0  0  0
   -1.7561   -1.4067   -2.1325 H   0  0  0  0  0  0  0  0  0  0  0  0
    0.5924   -0.3373   -2.6818 H   0  0  0  0  0  0  0  0  0  0  0  0
   -0.3962    0.9851   -2.0739 H   0  0  0  0  0  0  0  0  0  0  0  0
    1.5793   -0.7983   -0.4929 H   0  0  0  0  0  0  0  0  0  0  0  0
  1  9  1  0  0  0  0
  2  8  1  6  0  0  0
  2  1  1  0  0  0  0
  2 11  1  0  0  0  0
  2  3  1  0  0  0  0
  4  8  1  6  0  0  0
  4  1  1  0  0  0  0
  4  3  1  0  0  0  0
  5 12  1  0  0  0  0
  5  4  1  0  0  0  0
  6  5  2  0  0  0  0
  7  6  1  0  0  0  0
  7  8  1  0  0  0  0
  8 16  1  1  0  0  0
 10  1  1  0  0  0  0
 13  6  1  0  0  0  0
 14  7  1  0  0  0  0
 15  7  1  0  0  0  0
M  END
