15
title
C -0.3695573 1.3034958 0.7066579
C 1.1440921 0.9972063 0.69606525
C 0.836793 -0.21678478 1.6852815
C -0.22127196 -0.23825152 0.55729556
O -1.227216 -1.007613 -0.09134437
C -0.9630529 -0.64424086 -1.4055288
N 0.107961446 -0.018041119 -1.7174792
C 0.8803646 -0.046839863 -0.45519117
H -0.79149777 1.6632856 1.6472366
H -0.76283914 1.8421998 -0.15487732
H 1.9662523 1.7011431 0.80746585
H 1.5630096 -1.0320197 1.7004555
H 0.5059879 0.06575088 2.6865022
H -1.7404187 -0.9418081 -2.1005101
H 1.6595284 -0.8126568 -0.53512657
