title
 OpenBabel02282110003D

 15 17  0  0  1  0  0  0  0  0999 V2000
   -0.4383    1.2928    0.6731 C   0  0  0  0  0  0  0  0  0  0  0  0
    1.0842    1.0487    0.6888 C   0  0  1  0  0  0  0  0  0  0  0  0
    0.8066   -0.1322    1.7201 C   0  0  0  0  0  0  0  0  0  0  0  0
   -0.2501   -0.2630    0.5844 C   0  0  1  0  0  0  0  0  0  0  0  0
   -1.2497   -1.0778   -0.0896 N   0  0  0  0  0  0  0  0  0  0  0  0
   -0.9772   -0.8091   -1.3114 C   0  0  0  0  0  0  0  0  0  0  0  0
    0.1237   -0.0352   -1.6391 O   0  0  0  0  0  0  0  0  0  0  0  0
    0.8761   -0.0494   -0.4007 C   0  0  1  0  0  0  0  0  0  0  0  0
   -0.8843    1.6737    1.5936 H   0  0  0  0  0  0  0  0  0  0  0  0
   -0.8492    1.7779   -0.2125 H   0  0  0  0  0  0  0  0  0  0  0  0
    1.8837    1.7843    0.7635 H   0  0  0  0  0  0  0  0  0  0  0  0
    1.5617   -0.9195    1.7861 H   0  0  0  0  0  0  0  0  0  0  0  0
    0.4577    0.1852    2.7042 H   0  0  0  0  0  0  0  0  0  0  0  0
   -1.5567   -1.1278   -2.1704 H   0  0  0  0  0  0  0  0  0  0  0  0
    1.6664   -0.8002   -0.4921 H   0  0  0  0  0  0  0  0  0  0  0  0
  1  2  1  0  0  0  0
  1  9  1  0  0  0  0
  2  8  1  6  0  0  0
  2 11  1  0  0  0  0
  2  3  1  0  0  0  0
  3 12  1  0  0  0  0
  3 13  1  0  0  0  0
  4  5  1  6  0  0  0
  4  1  1  0  0  0  0
  4  3  1  0  0  0  0
  6  5  2  0  0  0  0
  7  6  1  0  0  0  0
  7  8  1  0  0  0  0
  8  4  1  1  0  0  0
 10  1  1  0  0  0  0
 14  6  1  0  0  0  0
 15  8  1  0  0  0  0
M  END
