title
 OpenBabel02282110003D

 17 19  0  0  1  0  0  0  0  0999 V2000
   -0.4260    1.2104    0.7121 C   0  0  0  0  0  0  0  0  0  0  0  0
    1.0949    1.0514    0.7740 N   0  0  1  0  0  0  0  0  0  0  0  0
    0.7792   -0.1586    1.6950 C   0  0  0  0  0  0  0  0  0  0  0  0
   -0.2730   -0.3250    0.5606 C   0  0  1  0  0  0  0  0  0  0  0  0
   -1.2766   -1.1803   -0.2015 C   0  0  0  0  0  0  0  0  0  0  0  0
   -0.9526   -0.6683   -1.6173 C   0  0  0  0  0  0  0  0  0  0  0  0
    0.1796    0.0513   -1.7078 C   0  0  0  0  0  0  0  0  0  0  0  0
    0.8846   -0.0082   -0.3775 C   0  0  1  0  0  0  0  0  0  0  0  0
   -0.8571    1.5865    1.6445 H   0  0  0  0  0  0  0  0  0  0  0  0
   -0.7759    1.7861   -0.1459 H   0  0  0  0  0  0  0  0  0  0  0  0
    1.5891   -0.8903    1.7561 H   0  0  0  0  0  0  0  0  0  0  0  0
    0.4393    0.1503    2.6868 H   0  0  0  0  0  0  0  0  0  0  0  0
   -1.0937   -2.2606   -0.1253 H   0  0  0  0  0  0  0  0  0  0  0  0
   -2.3214   -1.0056    0.0777 H   0  0  0  0  0  0  0  0  0  0  0  0
   -1.5983   -0.8989   -2.4591 H   0  0  0  0  0  0  0  0  0  0  0  0
    0.5792    0.4604   -2.6286 H   0  0  0  0  0  0  0  0  0  0  0  0
    1.7486   -0.6833   -0.4050 H   0  0  0  0  0  0  0  0  0  0  0  0
  1  2  1  0  0  0  0
  1  9  1  0  0  0  0
  2  8  1  6  0  0  0
  2  3  1  0  0  0  0
  3 11  1  0  0  0  0
  3 12  1  0  0  0  0
  4  5  1  6  0  0  0
  4  1  1  0  0  0  0
  4  3  1  0  0  0  0
  5 13  1  0  0  0  0
  5 14  1  0  0  0  0
  6  5  1  0  0  0  0
  7  6  2  0  0  0  0
  7  8  1  0  0  0  0
  8  4  1  1  0  0  0
 10  1  1  0  0  0  0
 15  6  1  0  0  0  0
 16  7  1  0  0  0  0
 17  8  1  0  0  0  0
M  END
