title
 OpenBabel02282110003D

 18 20  0  0  1  0  0  0  0  0999 V2000
   -0.4006    1.3080    0.7471 C   0  0  0  0  0  0  0  0  0  0  0  0
    1.1199    1.0422    0.6945 C   0  0  1  0  0  0  0  0  0  0  0  0
    0.8602   -0.1509    1.6969 C   0  0  0  0  0  0  0  0  0  0  0  0
   -0.2427   -0.2527    0.6003 C   0  0  1  0  0  0  0  0  0  0  0  0
   -1.2497   -1.1134   -0.0940 C   0  0  0  0  0  0  0  0  0  0  0  0
   -1.0830   -0.9376   -1.4147 C   0  0  0  0  0  0  0  0  0  0  0  0
    0.0799    0.0064   -1.7712 C   0  0  0  0  0  0  0  0  0  0  0  0
    0.8630   -0.0063   -0.4446 C   0  0  1  0  0  0  0  0  0  0  0  0
   -0.8052    1.6654    1.6977 H   0  0  0  0  0  0  0  0  0  0  0  0
   -0.8481    1.8418   -0.0932 H   0  0  0  0  0  0  0  0  0  0  0  0
    1.9225    1.7779    0.7692 H   0  0  0  0  0  0  0  0  0  0  0  0
    1.6083   -0.9483    1.7148 H   0  0  0  0  0  0  0  0  0  0  0  0
    0.5469    0.1326    2.7054 H   0  0  0  0  0  0  0  0  0  0  0  0
   -2.0408   -1.6922    0.3676 H   0  0  0  0  0  0  0  0  0  0  0  0
   -1.7268   -1.3633   -2.1782 H   0  0  0  0  0  0  0  0  0  0  0  0
    0.6702   -0.3562   -2.6187 H   0  0  0  0  0  0  0  0  0  0  0  0
   -0.3115    0.9889   -2.0633 H   0  0  0  0  0  0  0  0  0  0  0  0
    1.6153   -0.8026   -0.4716 H   0  0  0  0  0  0  0  0  0  0  0  0
  1  9  1  0  0  0  0
  2  8  1  6  0  0  0
  2  1  1  0  0  0  0
  2 11  1  0  0  0  0
  2  3  1  0  0  0  0
  3 12  1  0  0  0  0
  3 13  1  0  0  0  0
  4  5  1  6  0  0  0
  4  1  1  0  0  0  0
  4  3  1  0  0  0  0
  5 14  1  0  0  0  0
  6  5  2  0  0  0  0
  7  6  1  0  0  0  0
  7  8  1  0  0  0  0
  8  4  1  1  0  0  0
 10  1  1  0  0  0  0
 15  6  1  0  0  0  0
 16  7  1  0  0  0  0
 17  7  1  0  0  0  0
 18  8  1  0  0  0  0
M  END
