title
 OpenBabel02282110003D

 17 19  0  0  1  0  0  0  0  0999 V2000
   -0.3717    1.2247    0.7680 C   0  0  0  0  0  0  0  0  0  0  0  0
    1.1533    1.0456    0.7815 N   0  0  1  0  0  0  0  0  0  0  0  0
    0.8553   -0.1544    1.7188 C   0  0  0  0  0  0  0  0  0  0  0  0
   -0.2312   -0.3104    0.6221 C   0  0  1  0  0  0  0  0  0  0  0  0
   -1.1977   -1.1801   -0.1381 C   0  0  0  0  0  0  0  0  0  0  0  0
   -1.0840   -0.6320   -1.4720 O   0  0  0  0  0  0  0  0  0  0  0  0
    0.1526    0.1081   -1.6752 C   0  0  0  0  0  0  0  0  0  0  0  0
    0.9019   -0.0142   -0.3531 C   0  0  1  0  0  0  0  0  0  0  0  0
   -0.7677    1.6082    1.7119 H   0  0  0  0  0  0  0  0  0  0  0  0
   -0.7460    1.8086   -0.0727 H   0  0  0  0  0  0  0  0  0  0  0  0
    1.6598   -0.8930    1.7565 H   0  0  0  0  0  0  0  0  0  0  0  0
    0.5428    0.1578    2.7182 H   0  0  0  0  0  0  0  0  0  0  0  0
   -0.9064   -2.2405   -0.1251 H   0  0  0  0  0  0  0  0  0  0  0  0
   -2.2468   -1.0939    0.1591 H   0  0  0  0  0  0  0  0  0  0  0  0
    0.7094   -0.3630   -2.4922 H   0  0  0  0  0  0  0  0  0  0  0  0
   -0.0989    1.1290   -1.9798 H   0  0  0  0  0  0  0  0  0  0  0  0
    1.7323   -0.7232   -0.4006 H   0  0  0  0  0  0  0  0  0  0  0  0
  1  2  1  0  0  0  0
  1  9  1  0  0  0  0
  2  8  1  6  0  0  0
  2  3  1  0  0  0  0
  3 11  1  0  0  0  0
  3 12  1  0  0  0  0
  4  5  1  6  0  0  0
  4  1  1  0  0  0  0
  4  3  1  0  0  0  0
  5 13  1  0  0  0  0
  5 14  1  0  0  0  0
  6  5  1  0  0  0  0
  7  6  1  0  0  0  0
  7  8  1  0  0  0  0
  8  4  1  1  0  0  0
 10  1  1  0  0  0  0
 15  7  1  0  0  0  0
 16  7  1  0  0  0  0
 17  8  1  0  0  0  0
M  END
