title
 OpenBabel02282110003D

 16 18  0  0  1  0  0  0  0  0999 V2000
   -0.3920    1.3081    0.7373 C   0  0  0  0  0  0  0  0  0  0  0  0
    1.0970    0.9648    0.7352 C   0  0  1  0  0  0  0  0  0  0  0  0
    0.8114   -0.1904    1.6603 O   0  0  0  0  0  0  0  0  0  0  0  0
   -0.2264   -0.2338    0.5934 C   0  0  1  0  0  0  0  0  0  0  0  0
   -1.2144   -1.1830   -0.0200 C   0  0  0  0  0  0  0  0  0  0  0  0
   -1.0663   -0.6672   -1.5106 C   0  0  0  0  0  0  0  0  0  0  0  0
    0.1522    0.1303   -1.6391 O   0  0  0  0  0  0  0  0  0  0  0  0
    0.8577   -0.0555   -0.4359 C   0  0  1  0  0  0  0  0  0  0  0  0
   -0.7911    1.6395    1.6961 H   0  0  0  0  0  0  0  0  0  0  0  0
   -0.7888    1.8559   -0.1182 H   0  0  0  0  0  0  0  0  0  0  0  0
    1.9704    1.5652    0.9892 H   0  0  0  0  0  0  0  0  0  0  0  0
   -0.8824   -2.2209    0.0710 H   0  0  0  0  0  0  0  0  0  0  0  0
   -2.2439   -1.1021    0.3349 H   0  0  0  0  0  0  0  0  0  0  0  0
   -1.0174   -1.5061   -2.2123 H   0  0  0  0  0  0  0  0  0  0  0  0
   -1.9070   -0.0267   -1.7932 H   0  0  0  0  0  0  0  0  0  0  0  0
    1.6189   -0.8403   -0.4898 H   0  0  0  0  0  0  0  0  0  0  0  0
  1  9  1  0  0  0  0
  2  8  1  6  0  0  0
  2  1  1  0  0  0  0
  2 11  1  0  0  0  0
  2  3  1  0  0  0  0
  4  8  1  6  0  0  0
  4  1  1  0  0  0  0
  4  3  1  0  0  0  0
  5 12  1  0  0  0  0
  5 13  1  0  0  0  0
  5  4  1  0  0  0  0
  6  5  1  0  0  0  0
  7  6  1  0  0  0  0
  7  8  1  0  0  0  0
  8 16  1  6  0  0  0
 10  1  1  0  0  0  0
 14  6  1  0  0  0  0
 15  6  1  0  0  0  0
M  END
