20
title
C -0.35906172 1.2669371 0.77588445
C 1.1637318 0.99621445 0.74967563
C 0.88231283 -0.20731835 1.7236894
C -0.20406708 -0.28432867 0.6098668
C -1.2267061 -1.1847754 -0.03919517
C -1.1917813 -0.66200787 -1.5225503
C 0.15350282 0.14158095 -1.7442939
C 0.9121823 -0.020376068 -0.41856736
H -0.7795613 1.6078423 1.7263849
H -0.78371304 1.8291711 -0.05732136
H 1.9675754 1.7282507 0.8482107
H 1.6256771 -1.0098604 1.7382779
H 0.5541007 0.055877227 2.733158
H -0.9029313 -2.2307863 0.009656501
H -2.2312262 -1.1280955 0.3904824
H -1.2808405 -1.4926207 -2.228112
H -2.049367 -0.008270095 -1.7062044
H 0.7262096 -0.26808345 -2.5802321
H -0.06346014 1.1819485 -1.9992223
H 1.6671442 -0.8126174 -0.47784644
