title
 OpenBabel02282110003D

 18 20  0  0  1  0  0  0  0  0999 V2000
   -0.3544    1.2899    0.7899 C   0  0  0  0  0  0  0  0  0  0  0  0
    1.1667    1.0121    0.7612 C   0  0  1  0  0  0  0  0  0  0  0  0
    0.8864   -0.1915    1.7373 C   0  0  0  0  0  0  0  0  0  0  0  0
   -0.2038   -0.2582    0.6287 C   0  0  1  0  0  0  0  0  0  0  0  0
   -1.1983   -1.1313   -0.0843 C   0  0  0  0  0  0  0  0  0  0  0  0
   -1.0915   -0.6816   -1.4518 O   0  0  0  0  0  0  0  0  0  0  0  0
    0.1085    0.1054   -1.6878 C   0  0  0  0  0  0  0  0  0  0  0  0
    0.9196   -0.0097   -0.4042 C   0  0  1  0  0  0  0  0  0  0  0  0
   -0.7682    1.6325    1.7419 H   0  0  0  0  0  0  0  0  0  0  0  0
   -0.7830    1.8465   -0.0436 H   0  0  0  0  0  0  0  0  0  0  0  0
    1.9763    1.7381    0.8503 H   0  0  0  0  0  0  0  0  0  0  0  0
    1.6260   -0.9965    1.7489 H   0  0  0  0  0  0  0  0  0  0  0  0
    0.5565    0.0708    2.7458 H   0  0  0  0  0  0  0  0  0  0  0  0
   -0.9401   -2.1980   -0.0099 H   0  0  0  0  0  0  0  0  0  0  0  0
   -2.2389   -0.9980    0.2293 H   0  0  0  0  0  0  0  0  0  0  0  0
    0.6319   -0.3270   -2.5470 H   0  0  0  0  0  0  0  0  0  0  0  0
   -0.1879    1.1268   -1.9528 H   0  0  0  0  0  0  0  0  0  0  0  0
    1.6674   -0.8068   -0.4631 H   0  0  0  0  0  0  0  0  0  0  0  0
  1  9  1  0  0  0  0
  2  8  1  6  0  0  0
  2  1  1  0  0  0  0
  2 11  1  0  0  0  0
  2  3  1  0  0  0  0
  3 12  1  0  0  0  0
  3 13  1  0  0  0  0
  4  5  1  6  0  0  0
  4  1  1  0  0  0  0
  4  3  1  0  0  0  0
  5 14  1  0  0  0  0
  5 15  1  0  0  0  0
  6  5  1  0  0  0  0
  7  6  1  0  0  0  0
  7  8  1  0  0  0  0
  8  4  1  1  0  0  0
 10  1  1  0  0  0  0
 16  7  1  0  0  0  0
 17  7  1  0  0  0  0
 18  8  1  0  0  0  0
M  END
