17
title
C -0.2428912 1.303201 0.787545
N 1.2470884 0.94743323 0.76708746
C 0.83781844 -0.2629062 1.6501062
C -0.2459061 -0.22902055 0.5403032
O -1.266873 -0.9889219 -0.01951148
C -1.1121408 -0.7968681 -1.4571787
C 0.11100374 0.17002167 -1.7324222
C 0.8801722 -0.027082074 -0.42728326
H -0.58373713 1.6688399 1.7586653
H -0.5495423 1.9775046 -0.012251991
H 1.5620168 -1.0803074 1.6377712
H 0.56424403 0.033543777 2.6648476
H -0.94509935 -1.7807388 -1.9087108
H -2.0454662 -0.38813213 -1.8553933
H 0.66733164 -0.14380535 -2.6178381
H -0.23625146 1.1897917 -1.9025441
H 1.6275654 -0.82075787 -0.5009014
