18
title
C -0.22825143 1.348889 0.80009604
C 1.2556536 0.92134196 0.7331712
C 0.8692215 -0.3015718 1.6619515
C -0.2078184 -0.19872172 0.5488722
O -1.2481987 -0.95328397 0.03120558
C -1.1491365 -0.79259187 -1.4123558
C 0.06726463 0.15400861 -1.7448384
C 0.90417486 -0.02497591 -0.4761419
H -0.5954594 1.6797012 1.7743074
H -0.60292715 1.9888479 0.00054959935
H 2.1299648 1.5570803 0.8566615
H 1.5318089 -1.1697358 1.6266896
H 0.57233244 -0.05028878 2.683003
H -1.0073177 -1.7882552 -1.8480207
H -2.095232 -0.38668182 -1.7842506
H 0.577021 -0.17232317 -2.6542366
H -0.27785715 1.1763884 -1.9091407
H 1.5732343 -0.8874327 -0.5605776
