title
 OpenBabel02282110003D

 18 20  0  0  1  0  0  0  0  0999 V2000
   -0.2283    1.3489    0.8001 C   0  0  0  0  0  0  0  0  0  0  0  0
    1.2557    0.9213    0.7332 C   0  0  1  0  0  0  0  0  0  0  0  0
    0.8692   -0.3016    1.6620 C   0  0  0  0  0  0  0  0  0  0  0  0
   -0.2078   -0.1987    0.5489 C   0  0  1  0  0  0  0  0  0  0  0  0
   -1.2482   -0.9533    0.0312 O   0  0  0  0  0  0  0  0  0  0  0  0
   -1.1491   -0.7926   -1.4124 C   0  0  0  0  0  0  0  0  0  0  0  0
    0.0673    0.1540   -1.7448 C   0  0  0  0  0  0  0  0  0  0  0  0
    0.9042   -0.0250   -0.4761 C   0  0  1  0  0  0  0  0  0  0  0  0
   -0.5955    1.6797    1.7743 H   0  0  0  0  0  0  0  0  0  0  0  0
   -0.6029    1.9888    0.0005 H   0  0  0  0  0  0  0  0  0  0  0  0
    2.1300    1.5571    0.8567 H   0  0  0  0  0  0  0  0  0  0  0  0
    1.5318   -1.1697    1.6267 H   0  0  0  0  0  0  0  0  0  0  0  0
    0.5723   -0.0503    2.6830 H   0  0  0  0  0  0  0  0  0  0  0  0
   -1.0073   -1.7883   -1.8480 H   0  0  0  0  0  0  0  0  0  0  0  0
   -2.0952   -0.3867   -1.7843 H   0  0  0  0  0  0  0  0  0  0  0  0
    0.5770   -0.1723   -2.6542 H   0  0  0  0  0  0  0  0  0  0  0  0
   -0.2779    1.1764   -1.9091 H   0  0  0  0  0  0  0  0  0  0  0  0
    1.5732   -0.8874   -0.5606 H   0  0  0  0  0  0  0  0  0  0  0  0
  1  9  1  0  0  0  0
  2  8  1  6  0  0  0
  2  1  1  0  0  0  0
  2 11  1  0  0  0  0
  2  3  1  0  0  0  0
  3 13  1  0  0  0  0
  4  5  1  6  0  0  0
  4  1  1  0  0  0  0
  4  3  1  0  0  0  0
  6  5  1  0  0  0  0
  7  6  1  0  0  0  0
  7  8  1  0  0  0  0
  8  4  1  1  0  0  0
 10  1  1  0  0  0  0
 12  3  1  0  0  0  0
 14  6  1  0  0  0  0
 15  6  1  0  0  0  0
 16  7  1  0  0  0  0
 17  7  1  0  0  0  0
 18  8  1  0  0  0  0
M  END
