18
title
C -0.35440105 1.2898809 0.78992575
C 1.1667185 1.0120698 0.76120037
C 0.8864025 -0.19148493 1.7373067
C -0.20383184 -0.25824642 0.6286559
C -1.1982956 -1.1313481 -0.08430347
O -1.0915236 -0.681612 -1.4517574
C 0.108497374 0.10544386 -1.6878331
C 0.9196081 -0.009729509 -0.40416756
H -0.7682263 1.6324953 1.7419138
H -0.7829638 1.84651 -0.0436013
H 1.9762951 1.7380714 0.8502881
H 1.6260065 -0.99645954 1.748858
H 0.5564935 0.0707913 2.7458425
H -0.94008195 -2.198006 -0.009923365
H -2.2389274 -0.9980185 0.2292681
H 0.6319123 -0.32697296 -2.5469513
H -0.18785302 1.1267619 -1.9528441
H 1.6673638 -0.806779 -0.4631453
