17
title
C -0.37170976 1.2247345 0.7679704
N 1.1533443 1.0456215 0.7814543
C 0.8552885 -0.15441488 1.7188498
C -0.23119004 -0.31043193 0.62206686
C -1.197732 -1.1801089 -0.13814005
O -1.0839666 -0.63204557 -1.4720376
C 0.15255047 0.10810149 -1.6751564
C 0.9018662 -0.014183343 -0.35313442
H -0.7677276 1.608236 1.7118846
H -0.7460226 1.8085843 -0.07265101
H 1.6598368 -0.89295834 1.7565496
H 0.5427851 0.15780878 2.7181551
H -0.90637517 -2.240473 -0.1251283
H -2.2468483 -1.0938846 0.15911517
H 0.7093952 -0.36296868 -2.49221
H -0.09894959 1.1289884 -1.9798439
H 1.7322867 -0.72315264 -0.4006169
