title
 OpenBabel02282110003D

 17 19  0  0  1  0  0  0  0  0999 V2000
   -0.2429    1.3032    0.7875 C   0  0  0  0  0  0  0  0  0  0  0  0
    1.2471    0.9474    0.7671 N   0  0  1  0  0  0  0  0  0  0  0  0
    0.8378   -0.2629    1.6501 C   0  0  0  0  0  0  0  0  0  0  0  0
   -0.2459   -0.2290    0.5403 C   0  0  1  0  0  0  0  0  0  0  0  0
   -1.2669   -0.9889   -0.0195 O   0  0  0  0  0  0  0  0  0  0  0  0
   -1.1121   -0.7969   -1.4572 C   0  0  0  0  0  0  0  0  0  0  0  0
    0.1110    0.1700   -1.7324 C   0  0  0  0  0  0  0  0  0  0  0  0
    0.8802   -0.0271   -0.4273 C   0  0  1  0  0  0  0  0  0  0  0  0
   -0.5837    1.6688    1.7587 H   0  0  0  0  0  0  0  0  0  0  0  0
   -0.5495    1.9775   -0.0123 H   0  0  0  0  0  0  0  0  0  0  0  0
    1.5620   -1.0803    1.6378 H   0  0  0  0  0  0  0  0  0  0  0  0
    0.5642    0.0335    2.6648 H   0  0  0  0  0  0  0  0  0  0  0  0
   -0.9451   -1.7807   -1.9087 H   0  0  0  0  0  0  0  0  0  0  0  0
   -2.0455   -0.3881   -1.8554 H   0  0  0  0  0  0  0  0  0  0  0  0
    0.6673   -0.1438   -2.6178 H   0  0  0  0  0  0  0  0  0  0  0  0
   -0.2363    1.1898   -1.9025 H   0  0  0  0  0  0  0  0  0  0  0  0
    1.6276   -0.8208   -0.5009 H   0  0  0  0  0  0  0  0  0  0  0  0
  1  9  1  0  0  0  0
  2  8  1  6  0  0  0
  2  1  1  0  0  0  0
  2  3  1  0  0  0  0
  3 12  1  0  0  0  0
  4  5  1  6  0  0  0
  4  1  1  0  0  0  0
  4  3  1  0  0  0  0
  6  5  1  0  0  0  0
  7  6  1  0  0  0  0
  7  8  1  0  0  0  0
  8  4  1  1  0  0  0
 10  1  1  0  0  0  0
 11  3  1  0  0  0  0
 13  6  1  0  0  0  0
 14  6  1  0  0  0  0
 15  7  1  0  0  0  0
 16  7  1  0  0  0  0
 17  8  1  0  0  0  0
M  END
