20
title
C -0.6243565 1.4198351 -1.2307575
C 0.9184764 1.4617975 -0.9069095
C 0.66813105 0.21576217 -0.031926073
C 1.148138 -1.1939762 0.394639
C -0.22918703 -1.1570991 1.1746118
C 0.07928242 0.3445028 1.4015963
C -1.3458767 -1.0401593 0.08969983
C -0.5737824 -0.10040152 -0.87426436
H -1.2019083 2.015429 -0.5201016
H -0.9306427 1.685879 -2.2448967
H 1.5115377 1.2438402 -1.8005309
H 1.3214357 2.3541467 -0.42133203
H 1.28604 -1.9383048 -0.39551684
H 1.989129 -1.2186224 1.0928061
H -0.4080315 -1.8369707 2.00885
H 0.8598557 0.5177332 2.147429
H -0.76306033 1.0200531 1.5774169
H -1.6069523 -1.9945726 -0.3768566
H -2.2600157 -0.6152225 0.51653403
H -0.28384843 -0.64071935 -1.7826681
