title
 OpenBabel02282110003D

 18 20  0  0  1  0  0  0  0  0999 V2000
   -0.5547    1.7850    0.2443 C   0  0  0  0  0  0  0  0  0  0  0  0
    0.8602    1.6581   -0.1217 O   0  0  0  0  0  0  0  0  0  0  0  0
    0.5380    0.3807   -0.7553 C   0  0  1  0  0  0  0  0  0  0  0  0
    1.1893   -1.0135   -0.5958 C   0  0  0  0  0  0  0  0  0  0  0  0
    0.0005   -1.6608    0.1890 C   0  0  1  0  0  0  0  0  0  0  0  0
   -0.1478   -0.6092    1.3152 C   0  0  0  0  0  0  0  0  0  0  0  0
   -0.6766    0.2541    0.1427 C   0  0  1  0  0  0  0  0  0  0  0  0
   -1.3392   -1.0371   -0.4017 C   0  0  0  0  0  0  0  0  0  0  0  0
   -0.6841    2.2451    1.2280 H   0  0  0  0  0  0  0  0  0  0  0  0
   -1.1062    2.3531   -0.5167 H   0  0  0  0  0  0  0  0  0  0  0  0
    0.2890    0.5810   -1.8071 H   0  0  0  0  0  0  0  0  0  0  0  0
    1.4032   -1.4774   -1.5623 H   0  0  0  0  0  0  0  0  0  0  0  0
    2.1040   -1.0241    0.0025 H   0  0  0  0  0  0  0  0  0  0  0  0
    0.0590   -2.7290    0.4002 H   0  0  0  0  0  0  0  0  0  0  0  0
   -0.9397   -0.8479    2.0300 H   0  0  0  0  0  0  0  0  0  0  0  0
    0.7547   -0.2779    1.8339 H   0  0  0  0  0  0  0  0  0  0  0  0
   -1.5210   -1.0960   -1.4783 H   0  0  0  0  0  0  0  0  0  0  0  0
   -2.2089   -1.3956    0.1535 H   0  0  0  0  0  0  0  0  0  0  0  0
  1  9  1  0  0  0  0
  2  1  1  0  0  0  0
  3  4  1  0  0  0  0
  3  2  1  0  0  0  0
  3  7  1  1  0  0  0
  4 13  1  0  0  0  0
  4  5  1  0  0  0  0
  5 14  1  1  0  0  0
  5  6  1  0  0  0  0
  6 16  1  0  0  0  0
  6 15  1  0  0  0  0
  7  8  1  6  0  0  0
  7  1  1  0  0  0  0
  7  6  1  0  0  0  0
  8 18  1  0  0  0  0
  8  5  1  0  0  0  0
 10  1  1  0  0  0  0
 11  3  1  0  0  0  0
 12  4  1  0  0  0  0
 17  8  1  0  0  0  0
M  END
