title
 OpenBabel02282110003D

 18 20  0  0  1  0  0  0  0  0999 V2000
   -0.6613    1.4401   -1.1346 C   0  0  0  0  0  0  0  0  0  0  0  0
    0.8991    1.5023   -0.8775 C   0  0  0  0  0  0  0  0  0  0  0  0
    0.7112    0.2250   -0.0250 C   0  0  1  0  0  0  0  0  0  0  0  0
    1.1588   -1.2151    0.3619 C   0  0  0  0  0  0  0  0  0  0  0  0
   -0.2519   -1.1432    1.0729 C   0  0  1  0  0  0  0  0  0  0  0  0
    0.0959    0.3161    1.4107 C   0  0  0  0  0  0  0  0  0  0  0  0
   -1.2549   -0.9741    0.0336 O   0  0  0  0  0  0  0  0  0  0  0  0
   -0.5315   -0.0893   -0.8327 C   0  0  1  0  0  0  0  0  0  0  0  0
   -1.2205    1.9946   -0.3805 H   0  0  0  0  0  0  0  0  0  0  0  0
   -1.0183    1.7175   -2.1281 H   0  0  0  0  0  0  0  0  0  0  0  0
    1.4608    1.3289   -1.7996 H   0  0  0  0  0  0  0  0  0  0  0  0
    1.2979    2.3864   -0.3771 H   0  0  0  0  0  0  0  0  0  0  0  0
    1.2914   -1.9354   -0.4489 H   0  0  0  0  0  0  0  0  0  0  0  0
    1.9664   -1.2928    1.0927 H   0  0  0  0  0  0  0  0  0  0  0  0
   -0.5911   -1.8839    1.7950 H   0  0  0  0  0  0  0  0  0  0  0  0
    0.8680    0.4279    2.1753 H   0  0  0  0  0  0  0  0  0  0  0  0
   -0.7445    0.9855    1.6011 H   0  0  0  0  0  0  0  0  0  0  0  0
   -0.3181   -0.6113   -1.7741 H   0  0  0  0  0  0  0  0  0  0  0  0
  1  2  1  0  0  0  0
  1  8  1  0  0  0  0
  1  9  1  0  0  0  0
  2 12  1  0  0  0  0
  3  2  1  6  0  0  0
  3  4  1  0  0  0  0
  3  6  1  0  0  0  0
  4  5  1  0  0  0  0
  4 14  1  0  0  0  0
  5  6  1  0  0  0  0
  5 15  1  1  0  0  0
  6 17  1  0  0  0  0
  6 16  1  0  0  0  0
  7  5  1  0  0  0  0
  8  3  1  1  0  0  0
  8  7  1  0  0  0  0
 10  1  1  0  0  0  0
 11  2  1  0  0  0  0
 13  4  1  0  0  0  0
 18  8  1  0  0  0  0
M  END
