title
 OpenBabel02282110003D

 16 18  0  0  1  0  0  0  0  0999 V2000
   -0.6436    1.3932   -1.1182 C   0  0  0  0  0  0  0  0  0  0  0  0
    0.8053    1.4303   -0.8377 O   0  0  0  0  0  0  0  0  0  0  0  0
    0.6308    0.2429   -0.0466 C   0  0  1  0  0  0  0  0  0  0  0  0
    1.2086   -1.1573    0.2808 C   0  0  0  0  0  0  0  0  0  0  0  0
   -0.1692   -1.1568    1.0822 C   0  0  1  0  0  0  0  0  0  0  0  0
    0.1227    0.3131    1.4244 C   0  0  0  0  0  0  0  0  0  0  0  0
   -1.2583   -1.0172    0.1141 O   0  0  0  0  0  0  0  0  0  0  0  0
   -0.6055   -0.1387   -0.8044 C   0  0  1  0  0  0  0  0  0  0  0  0
   -1.2016    2.0201   -0.4164 H   0  0  0  0  0  0  0  0  0  0  0  0
   -0.8529    1.6812   -2.1505 H   0  0  0  0  0  0  0  0  0  0  0  0
    1.3353   -1.8591   -0.5454 H   0  0  0  0  0  0  0  0  0  0  0  0
    2.0507   -1.1957    0.9738 H   0  0  0  0  0  0  0  0  0  0  0  0
   -0.4108   -1.9257    1.8113 H   0  0  0  0  0  0  0  0  0  0  0  0
    0.9362    0.4579    2.1372 H   0  0  0  0  0  0  0  0  0  0  0  0
   -0.7401    0.9345    1.6666 H   0  0  0  0  0  0  0  0  0  0  0  0
   -0.4054   -0.6701   -1.7405 H   0  0  0  0  0  0  0  0  0  0  0  0
  1  2  1  0  0  0  0
  1  8  1  0  0  0  0
  1  9  1  0  0  0  0
  3  2  1  6  0  0  0
  3  4  1  0  0  0  0
  3  6  1  0  0  0  0
  4 12  1  0  0  0  0
  4  5  1  0  0  0  0
  5  6  1  0  0  0  0
  5 13  1  1  0  0  0
  6 15  1  0  0  0  0
  6 14  1  0  0  0  0
  7  5  1  0  0  0  0
  8  3  1  1  0  0  0
  8  7  1  0  0  0  0
 10  1  1  0  0  0  0
 11  4  1  0  0  0  0
 16  8  1  0  0  0  0
M  END
