19
title
C -0.76378447 2.0333462 0.07369737
C -0.66813976 0.50400144 0.05700499
C -2.0554125 -0.11479224 0.22686775
C 0.21987605 0.02805327 -1.1025633
C 1.4516735 0.13928457 -0.2942662
C 0.5126832 0.016356455 0.969392
C 0.5958186 -1.4925334 0.7055827
N 0.9893071 -1.213152 -0.7173099
H 0.22375733 2.4996371 0.0025119414
H -1.3687063 2.3996592 -0.7634987
H -1.2379681 2.3815336 0.99837494
H -2.7413602 0.27951407 -0.53168327
H -2.050755 -1.2019715 0.12477955
H -2.477266 0.13331823 1.2080525
H 0.08138287 0.1827658 -2.1659052
H 2.4402177 0.53590953 -0.48292673
H 0.6551681 0.455406 1.9565312
H 1.4496753 -1.9636686 1.1998688
H -0.29360795 -2.1150274 0.84653646
