18
title
C -0.66126764 1.4400672 -1.1345791
C 0.89910257 1.5022752 -0.8775475
C 0.7112123 0.2249739 -0.025027547
C 1.1588202 -1.2150679 0.36185417
C -0.25190493 -1.1431776 1.0729451
C 0.09594355 0.31605038 1.4107218
O -1.2548686 -0.974064 0.033626046
C -0.53149307 -0.0892644 -0.8326677
H -1.2204742 1.9945651 -0.38052252
H -1.0182629 1.7174705 -2.128052
H 1.4607917 1.328881 -1.7995695
H 1.297946 2.386425 -0.377067
H 1.2913584 -1.9353826 -0.44894966
H 1.9664007 -1.2927722 1.0926917
H -0.591068 -1.8839402 1.7950056
H 0.86802113 0.42794314 2.1753395
H -0.74449193 0.9855286 1.6010995
H -0.3180952 -0.6112831 -1.7741256
