17
title
C -0.6041317 1.3761238 -1.2435046
O 0.8175651 1.420907 -0.872163
C 0.584923 0.25009158 -0.069096826
C 1.1448836 -1.1320046 0.34535632
N -0.13772613 -1.1682707 1.1993132
C 0.08560171 0.31540883 1.3890939
C -1.2734654 -1.0823019 0.18972656
C -0.6438744 -0.13408305 -0.8631087
H -1.1966269 2.0497186 -0.6137199
H -0.7446833 1.6221366 -2.2981758
H 1.2299678 -1.9082745 -0.41892573
H 2.0025501 -1.1419824 1.0194457
H 0.87783945 0.49849692 2.1176257
H -0.80802447 0.8918077 1.6409936
H -1.487625 -2.0712006 -0.2209293
H -2.1637058 -0.72128975 0.7086961
H -0.35906878 -0.6911038 -1.7602836
