title
 OpenBabel02282110003D

 17 19  0  0  1  0  0  0  0  0999 V2000
   -0.7866    2.0336    0.0846 C   0  0  0  0  0  0  0  0  0  0  0  0
   -0.6178    0.5174    0.0649 C   0  0  1  0  0  0  0  0  0  0  0  0
   -1.8656   -0.1358    0.1883 O   0  0  0  0  0  0  0  0  0  0  0  0
    0.2220    0.0263   -1.1078 C   0  0  1  0  0  0  0  0  0  0  0  0
    1.4708    0.1158   -0.3106 C   0  0  1  0  0  0  0  0  0  0  0  0
    0.5619    0.0140    0.9695 C   0  0  2  0  0  0  0  0  0  0  0  0
    0.5591   -1.4946    0.6951 C   0  0  0  0  0  0  0  0  0  0  0  0
    0.9696   -1.2201   -0.7278 N   0  0  1  0  0  0  0  0  0  0  0  0
    0.1730    2.5482   -0.0126 H   0  0  0  0  0  0  0  0  0  0  0  0
   -1.4390    2.3557   -0.7331 H   0  0  0  0  0  0  0  0  0  0  0  0
   -1.2434    2.3552    1.0291 H   0  0  0  0  0  0  0  0  0  0  0  0
   -2.3797    0.3131    0.8679 H   0  0  0  0  0  0  0  0  0  0  0  0
    0.0593    0.1900   -2.1654 H   0  0  0  0  0  0  0  0  0  0  0  0
    2.4545    0.5079   -0.5277 H   0  0  0  0  0  0  0  0  0  0  0  0
    0.7299    0.4504    1.9535 H   0  0  0  0  0  0  0  0  0  0  0  0
    1.3768   -2.0284    1.1852 H   0  0  0  0  0  0  0  0  0  0  0  0
   -0.3855   -2.0320    0.8142 H   0  0  0  0  0  0  0  0  0  0  0  0
  1 11  1  0  0  0  0
  2  4  1  6  0  0  0
  2  1  1  0  0  0  0
  2  3  1  0  0  0  0
  2  6  1  0  0  0  0
  3 12  1  0  0  0  0
  4  8  1  1  0  0  0
  5  4  1  6  0  0  0
  6  5  1  6  0  0  0
  6 15  1  0  0  0  0
  7 17  1  0  0  0  0
  7  6  1  0  0  0  0
  7 16  1  0  0  0  0
  8  5  1  1  0  0  0
  8  7  1  0  0  0  0
  9  1  1  0  0  0  0
 10  1  1  0  0  0  0
 13  4  1  0  0  0  0
 14  5  1  0  0  0  0
M  END
