title
 OpenBabel02282110003D

 19 21  0  0  1  0  0  0  0  0999 V2000
   -0.9803    1.5878    0.5041 C   0  0  0  0  0  0  0  0  0  0  0  0
   -0.8725    0.0631    0.4461 C   0  0  0  0  0  0  0  0  0  0  0  0
   -2.0219   -0.6111    1.1866 C   0  0  0  0  0  0  0  0  0  0  0  0
   -0.3294   -0.7888   -0.6460 C   0  0  1  0  0  0  0  0  0  0  0  0
    0.9507   -0.3697   -1.3895 C   0  0  1  0  0  0  0  0  0  0  0  0
    1.5332    0.9439   -0.9476 C   0  0  0  0  0  0  0  0  0  0  0  0
    1.5971   -0.2484   -0.0285 C   0  0  1  0  0  0  0  0  0  0  0  0
    0.3623   -0.7368    0.7010 N   0  0  1  0  0  0  0  0  0  0  0  0
   -1.0692    2.0444   -0.4845 H   0  0  0  0  0  0  0  0  0  0  0  0
   -1.8768    1.8622    1.0674 H   0  0  0  0  0  0  0  0  0  0  0  0
   -0.1281    2.0359    1.0203 H   0  0  0  0  0  0  0  0  0  0  0  0
   -2.9801   -0.3468    0.7256 H   0  0  0  0  0  0  0  0  0  0  0  0
   -1.9127   -1.6979    1.1794 H   0  0  0  0  0  0  0  0  0  0  0  0
   -2.0419   -0.2800    2.2301 H   0  0  0  0  0  0  0  0  0  0  0  0
   -0.8515   -1.6947   -0.9462 H   0  0  0  0  0  0  0  0  0  0  0  0
    1.2969   -0.8998   -2.2668 H   0  0  0  0  0  0  0  0  0  0  0  0
    2.4995    1.1413   -1.4060 H   0  0  0  0  0  0  0  0  0  0  0  0
    0.9558    1.8376   -0.7765 H   0  0  0  0  0  0  0  0  0  0  0  0
    2.5380   -0.6381    0.3390 H   0  0  0  0  0  0  0  0  0  0  0  0
  1 11  1  0  0  0  0
  1 10  1  0  0  0  0
  2  1  1  0  0  0  0
  2  8  1  0  0  0  0
  2  3  1  0  0  0  0
  3 14  1  0  0  0  0
  4  5  1  6  0  0  0
  4  2  1  0  0  0  0
  5  6  1  0  0  0  0
  5  7  1  1  0  0  0
  6 18  1  0  0  0  0
  6  7  1  0  0  0  0
  7 19  1  0  0  0  0
  7  8  1  1  0  0  0
  8  4  1  6  0  0  0
  9  1  1  0  0  0  0
 12  3  1  0  0  0  0
 13  3  1  0  0  0  0
 15  4  1  0  0  0  0
 16  5  1  0  0  0  0
 17  6  1  0  0  0  0
M  END
