19
title
C -0.9803185 1.5878454 0.5041366
C -0.8724806 0.06311119 0.44613007
C -2.0218675 -0.61107284 1.1866114
C -0.32936507 -0.7887869 -0.64598185
C 0.95074993 -0.3696926 -1.3895103
C 1.5332142 0.94394225 -0.9475891
C 1.5971435 -0.24841121 -0.028494913
N 0.3623137 -0.73681796 0.7009819
H -1.0691615 2.044417 -0.48447224
H -1.8768095 1.8621844 1.0673553
H -0.12807374 2.0358744 1.0203006
H -2.9801157 -0.34675217 0.72559285
H -1.9126837 -1.6979039 1.1793866
H -2.0418856 -0.2799578 2.2301414
H -0.85152465 -1.6947395 -0.946153
H 1.2969121 -0.89983386 -2.2668355
H 2.499529 1.1412758 -1.405969
H 0.9558477 1.8376117 -0.77645713
H 2.5380383 -0.6380504 0.33899894
