18
title
C -0.754427 1.8875057 0.05480509
C -0.7616595 0.36268413 0.02383198
C -2.165525 -0.20589294 0.23285398
C -0.013830359 -0.3395405 -1.1241094
C 1.4527 -0.40567276 -0.6603119
O 1.5557338 0.26353413 0.5982222
C 0.28693527 -0.36672476 0.9320378
C 0.49142224 -1.4425752 -0.19951662
H 0.2655025 2.2705808 -0.008205664
H -1.332863 2.2930567 -0.7833059
H -1.2078483 2.2645893 0.9792027
H -2.8444211 0.12461695 -0.56073844
H -2.163383 -1.3005004 0.23559992
H -2.5842981 0.1368384 1.1862335
H -0.3012818 -0.418403 -2.1659563
H 2.315268 -0.43959728 -1.3123345
H 0.1399306 -0.5125719 2.0013187
H 0.46987647 -2.5218594 -0.24433707
