19
title
C -0.83082724 1.9080387 0.05652345
C -0.7495376 0.38343862 0.03216908
C -2.1418593 -0.23975481 0.18543695
C 0.034654528 -0.30386832 -1.0826306
C 1.4793626 -0.38579735 -0.70307386
C 1.6711484 0.22880809 0.67147386
C 0.2728612 -0.35197088 0.94686145
N 0.5067198 -1.4117616 -0.18445021
H 0.13891402 2.382067 -0.11308317
H -1.5122977 2.265949 -0.7236971
H -1.2205571 2.2640924 1.0173838
H -2.800358 0.0675018 -0.63480735
H -2.0873098 -1.3316715 0.18718754
H -2.6085255 0.083973646 1.1226991
H -0.30174032 -0.514974 -2.0933247
H 2.2431052 -0.658102 -1.4235549
H 2.434655 -0.32016286 1.2291802
H 1.8402518 1.303957 0.7813335
H -0.01934257 -0.6872868 1.9416513
