title
 OpenBabel02282110003D

 19 21  0  0  1  0  0  0  0  0999 V2000
   -0.7605    1.8598    0.1696 C   0  0  0  0  0  0  0  0  0  0  0  0
   -0.7129    0.3373    0.1199 C   0  0  0  0  0  0  0  0  0  0  0  0
   -2.0917   -0.2517    0.4077 C   0  0  0  0  0  0  0  0  0  0  0  0
   -0.0021   -0.3938   -1.0540 C   0  0  1  0  0  0  0  0  0  0  0  0
    1.4125    0.2371   -1.1012 C   0  0  0  0  0  0  0  0  0  0  0  0
    1.5880   -0.3399    0.3043 C   0  0  2  0  0  0  0  0  0  0  0  0
    0.5439   -1.3627    0.0662 C   0  0  1  0  0  0  0  0  0  0  0  0
    0.2847   -0.2963    1.0663 N   0  0  2  0  0  0  0  0  0  0  0  0
    0.2290    2.3134    0.0883 H   0  0  0  0  0  0  0  0  0  0  0  0
   -1.3874    2.2550   -0.6377 H   0  0  0  0  0  0  0  0  0  0  0  0
   -1.1941    2.1859    1.1209 H   0  0  0  0  0  0  0  0  0  0  0  0
   -2.8255    0.1207   -0.3151 H   0  0  0  0  0  0  0  0  0  0  0  0
   -2.0806   -1.3439    0.3497 H   0  0  0  0  0  0  0  0  0  0  0  0
   -2.4262    0.0304    1.4109 H   0  0  0  0  0  0  0  0  0  0  0  0
   -0.5306   -0.6577   -1.9695 H   0  0  0  0  0  0  0  0  0  0  0  0
    2.0576   -0.2977   -1.8038 H   0  0  0  0  0  0  0  0  0  0  0  0
    1.5038    1.3133   -1.2732 H   0  0  0  0  0  0  0  0  0  0  0  0
    2.4844   -0.4035    0.9070 H   0  0  0  0  0  0  0  0  0  0  0  0
    0.4845   -2.4249    0.2622 H   0  0  0  0  0  0  0  0  0  0  0  0
  1 11  1  0  0  0  0
  2  1  1  0  0  0  0
  2  3  1  0  0  0  0
  2  8  1  0  0  0  0
  3 14  1  0  0  0  0
  4  7  1  1  0  0  0
  4  2  1  0  0  0  0
  5  4  1  0  0  0  0
  5  6  1  0  0  0  0
  6  7  1  6  0  0  0
  6 18  1  0  0  0  0
  7 19  1  0  0  0  0
  7  8  1  1  0  0  0
  8  6  1  6  0  0  0
  9  1  1  0  0  0  0
 10  1  1  0  0  0  0
 12  3  1  0  0  0  0
 13  3  1  0  0  0  0
 15  4  1  0  0  0  0
 16  5  1  0  0  0  0
 17  5  1  0  0  0  0
M  END
