17
title
C -0.83577025 1.9044801 0.07515066
C -0.7144228 0.38756675 0.039411698
O -1.9989954 -0.21642008 0.11594183
C 0.035630405 -0.31058118 -1.0806005
C 1.4827391 -0.40144464 -0.7136327
C 1.6981786 0.2152362 0.65852773
C 0.30117756 -0.35890427 0.9497916
N 0.51024014 -1.418346 -0.18479113
H 0.12374377 2.4034476 -0.07898861
H -1.5257657 2.234196 -0.70727783
H -1.2376372 2.2385828 1.0402106
H -2.4111202 0.07421276 0.93684125
H -0.33071545 -0.5128461 -2.0809557
H 2.234126 -0.67731845 -1.4454383
H 2.4709883 -0.3338879 1.2033656
H 1.8696026 1.290714 0.7661095
H 0.00019395365 -0.6880896 1.9439296
