18
title
C -0.80501944 1.9018273 0.076737076
C -0.70147526 0.3828887 0.047177214
O -1.9989823 -0.19734553 0.15805443
C 0.005742892 -0.32491264 -1.102969
C 1.497804 -0.4378176 -0.7464968
C 1.7096447 0.20265995 0.62594736
C 0.31076345 -0.36698148 0.9777517
C 0.49607608 -1.4191358 -0.19121698
H 0.15570925 2.3868897 -0.10947943
H -1.5117369 2.2353141 -0.6894908
H -1.174526 2.2503607 1.0501145
H -2.3902159 0.12509404 0.9773849
H -0.34137627 -0.41482225 -2.1246734
H 2.2322001 -0.6098545 -1.5235257
H 2.5009234 -0.31553367 1.1759169
H 1.8657514 1.2841667 0.706515
H 0.024406835 -0.5830715 2.006601
H 0.41627464 -2.4937968 -0.24757221
