title
 OpenBabel02282110003D

 19 21  0  0  1  0  0  0  0  0999 V2000
   -0.9742    1.6479    0.5544 C   0  0  0  0  0  0  0  0  0  0  0  0
   -0.8651    0.1222    0.4842 C   0  0  0  0  0  0  0  0  0  0  0  0
   -2.0189   -0.5449    1.2355 C   0  0  0  0  0  0  0  0  0  0  0  0
   -0.4516   -0.6980   -0.7122 C   0  0  1  0  0  0  0  0  0  0  0  0
    0.8641   -0.2701   -1.3918 C   0  0  1  0  0  0  0  0  0  0  0  0
    1.6312    0.8402   -0.7773 C   0  0  0  0  0  0  0  0  0  0  0  0
    1.6653   -0.4840   -0.1336 N   0  0  1  0  0  0  0  0  0  0  0  0
    0.3574   -0.7859    0.5684 C   0  0  1  0  0  0  0  0  0  0  0  0
   -0.7535    2.1329   -0.3978 H   0  0  0  0  0  0  0  0  0  0  0  0
   -2.0001    1.9246    0.8191 H   0  0  0  0  0  0  0  0  0  0  0  0
   -0.3205    2.0760    1.3220 H   0  0  0  0  0  0  0  0  0  0  0  0
   -2.9795   -0.2635    0.7895 H   0  0  0  0  0  0  0  0  0  0  0  0
   -1.9460   -1.6362    1.2136 H   0  0  0  0  0  0  0  0  0  0  0  0
   -2.0304   -0.2273    2.2840 H   0  0  0  0  0  0  0  0  0  0  0  0
   -1.0976   -1.4431   -1.1614 H   0  0  0  0  0  0  0  0  0  0  0  0
    1.1863   -0.7288   -2.3219 H   0  0  0  0  0  0  0  0  0  0  0  0
    2.5812    1.0688   -1.2553 H   0  0  0  0  0  0  0  0  0  0  0  0
    1.1753    1.6840   -0.2854 H   0  0  0  0  0  0  0  0  0  0  0  0
    0.4059   -1.5729    1.3118 H   0  0  0  0  0  0  0  0  0  0  0  0
  1 10  1  0  0  0  0
  1 11  1  0  0  0  0
  2  1  1  0  0  0  0
  2  8  1  0  0  0  0
  2  3  1  0  0  0  0
  3 14  1  0  0  0  0
  4  5  1  6  0  0  0
  4  2  1  0  0  0  0
  5  6  1  0  0  0  0
  5  7  1  1  0  0  0
  6 18  1  0  0  0  0
  6  7  1  0  0  0  0
  7  8  1  1  0  0  0
  8  4  1  6  0  0  0
  8 19  1  0  0  0  0
  9  1  1  0  0  0  0
 12  3  1  0  0  0  0
 13  3  1  0  0  0  0
 15  4  1  0  0  0  0
 16  5  1  0  0  0  0
 17  6  1  0  0  0  0
M  END
