title
 OpenBabel02282110003D

 18 20  0  0  1  0  0  0  0  0999 V2000
   -0.7544    1.8875    0.0548 C   0  0  0  0  0  0  0  0  0  0  0  0
   -0.7617    0.3627    0.0238 C   0  0  0  0  0  0  0  0  0  0  0  0
   -2.1655   -0.2059    0.2329 C   0  0  0  0  0  0  0  0  0  0  0  0
   -0.0138   -0.3395   -1.1241 C   0  0  1  0  0  0  0  0  0  0  0  0
    1.4527   -0.4057   -0.6603 C   0  0  1  0  0  0  0  0  0  0  0  0
    1.5557    0.2635    0.5982 O   0  0  0  0  0  0  0  0  0  0  0  0
    0.2869   -0.3667    0.9320 C   0  0  2  0  0  0  0  0  0  0  0  0
    0.4914   -1.4426   -0.1995 C   0  0  1  0  0  0  0  0  0  0  0  0
    0.2655    2.2706   -0.0082 H   0  0  0  0  0  0  0  0  0  0  0  0
   -1.3329    2.2931   -0.7833 H   0  0  0  0  0  0  0  0  0  0  0  0
   -1.2078    2.2646    0.9792 H   0  0  0  0  0  0  0  0  0  0  0  0
   -2.8444    0.1246   -0.5607 H   0  0  0  0  0  0  0  0  0  0  0  0
   -2.1634   -1.3005    0.2356 H   0  0  0  0  0  0  0  0  0  0  0  0
   -2.5843    0.1368    1.1862 H   0  0  0  0  0  0  0  0  0  0  0  0
   -0.3013   -0.4184   -2.1660 H   0  0  0  0  0  0  0  0  0  0  0  0
    2.3153   -0.4396   -1.3123 H   0  0  0  0  0  0  0  0  0  0  0  0
    0.1399   -0.5126    2.0013 H   0  0  0  0  0  0  0  0  0  0  0  0
    0.4699   -2.5219   -0.2443 H   0  0  0  0  0  0  0  0  0  0  0  0
  1 11  1  0  0  0  0
  2  1  1  0  0  0  0
  2  3  1  0  0  0  0
  2  7  1  0  0  0  0
  3 13  1  0  0  0  0
  3 14  1  0  0  0  0
  4  5  1  6  0  0  0
  4  2  1  0  0  0  0
  5  8  1  1  0  0  0
  5  6  1  0  0  0  0
  6  7  1  0  0  0  0
  7  8  1  6  0  0  0
  7 17  1  0  0  0  0
  8  4  1  6  0  0  0
  9  1  1  0  0  0  0
 10  1  1  0  0  0  0
 12  3  1  0  0  0  0
 15  4  1  0  0  0  0
 16  5  1  0  0  0  0
 18  8  1  0  0  0  0
M  END
