title
 OpenBabel02282110003D

 18 20  0  0  1  0  0  0  0  0999 V2000
   -0.8050    1.9018    0.0767 C   0  0  0  0  0  0  0  0  0  0  0  0
   -0.7015    0.3829    0.0472 C   0  0  1  0  0  0  0  0  0  0  0  0
   -1.9990   -0.1973    0.1581 O   0  0  0  0  0  0  0  0  0  0  0  0
    0.0057   -0.3249   -1.1030 C   0  0  1  0  0  0  0  0  0  0  0  0
    1.4978   -0.4378   -0.7465 C   0  0  1  0  0  0  0  0  0  0  0  0
    1.7096    0.2027    0.6259 C   0  0  0  0  0  0  0  0  0  0  0  0
    0.3108   -0.3670    0.9778 C   0  0  2  0  0  0  0  0  0  0  0  0
    0.4961   -1.4191   -0.1912 C   0  0  1  0  0  0  0  0  0  0  0  0
    0.1557    2.3869   -0.1095 H   0  0  0  0  0  0  0  0  0  0  0  0
   -1.5117    2.2353   -0.6895 H   0  0  0  0  0  0  0  0  0  0  0  0
   -1.1745    2.2504    1.0501 H   0  0  0  0  0  0  0  0  0  0  0  0
   -2.3902    0.1251    0.9774 H   0  0  0  0  0  0  0  0  0  0  0  0
   -0.3414   -0.4148   -2.1247 H   0  0  0  0  0  0  0  0  0  0  0  0
    2.2322   -0.6099   -1.5235 H   0  0  0  0  0  0  0  0  0  0  0  0
    2.5009   -0.3155    1.1759 H   0  0  0  0  0  0  0  0  0  0  0  0
    1.8658    1.2842    0.7065 H   0  0  0  0  0  0  0  0  0  0  0  0
    0.0244   -0.5831    2.0066 H   0  0  0  0  0  0  0  0  0  0  0  0
    0.4163   -2.4938   -0.2476 H   0  0  0  0  0  0  0  0  0  0  0  0
  1 11  1  0  0  0  0
  2  4  1  6  0  0  0
  2  1  1  0  0  0  0
  2  3  1  0  0  0  0
  2  7  1  0  0  0  0
  3 12  1  0  0  0  0
  4  5  1  6  0  0  0
  5  8  1  1  0  0  0
  5  6  1  0  0  0  0
  6 16  1  0  0  0  0
  6  7  1  0  0  0  0
  6 15  1  0  0  0  0
  7  8  1  6  0  0  0
  7 17  1  0  0  0  0
  8  4  1  6  0  0  0
  9  1  1  0  0  0  0
 10  1  1  0  0  0  0
 13  4  1  0  0  0  0
 14  5  1  0  0  0  0
 18  8  1  0  0  0  0
M  END
