19
title
C -0.9741583 1.6478624 0.554441
C -0.86510175 0.12222872 0.4841879
C -2.018909 -0.5448543 1.2354503
C -0.4515516 -0.6980399 -0.71216345
C 0.8641007 -0.27010515 -1.3917887
C 1.6311932 0.84022003 -0.77732575
N 1.6652853 -0.48398286 -0.13358778
C 0.35737908 -0.78588814 0.5684444
H -0.7534556 2.1329308 -0.3977937
H -2.0001035 1.9245797 0.8191186
H -0.32046247 2.0760412 1.3219721
H -2.9794695 -0.26353708 0.78952706
H -1.9460374 -1.636218 1.213556
H -2.0304298 -0.22726405 2.283954
H -1.0975736 -1.4430931 -1.1614252
H 1.1862993 -0.72875667 -2.3218858
H 2.5811975 1.068765 -1.2553324
H 1.1753004 1.6839882 -0.2854302
H 0.4059143 -1.5729146 1.3118387
