title
 OpenBabel02282110003D

 18 20  0  0  1  0  0  0  0  0999 V2000
    0.1868    2.2626   -0.2535 C   0  0  0  0  0  0  0  0  0  0  0  0
    0.1682    0.7581   -0.3061 C   0  0  1  0  0  0  0  0  0  0  0  0
    0.5667   -0.1036   -1.5195 C   0  0  0  0  0  0  0  0  0  0  0  0
   -0.1551   -1.2492   -0.7640 C   0  0  1  0  0  0  0  0  0  0  0  0
    0.7855   -1.4597    0.4409 C   0  0  0  0  0  0  0  0  0  0  0  0
    0.5058   -0.0601    1.0163 C   0  0  2  0  0  0  0  0  0  0  0  0
   -0.9176   -0.1636    1.3293 O   0  0  0  0  0  0  0  0  0  0  0  0
   -1.0848   -0.1281   -0.0909 C   0  0  1  0  0  0  0  0  0  0  0  0
    1.2130    2.6477   -0.2278 H   0  0  0  0  0  0  0  0  0  0  0  0
   -0.3080    2.6976   -1.1286 H   0  0  0  0  0  0  0  0  0  0  0  0
   -0.3297    2.6228    0.6425 H   0  0  0  0  0  0  0  0  0  0  0  0
    0.0256    0.2253   -2.4126 H   0  0  0  0  0  0  0  0  0  0  0  0
    1.6247   -0.2427   -1.7639 H   0  0  0  0  0  0  0  0  0  0  0  0
   -0.5577   -2.1196   -1.2782 H   0  0  0  0  0  0  0  0  0  0  0  0
    0.4675   -2.2336    1.1425 H   0  0  0  0  0  0  0  0  0  0  0  0
    1.8223   -1.6343    0.1400 H   0  0  0  0  0  0  0  0  0  0  0  0
    1.1070    0.3397    1.8327 H   0  0  0  0  0  0  0  0  0  0  0  0
   -2.0970    0.0561   -0.4495 H   0  0  0  0  0  0  0  0  0  0  0  0
  1  9  1  0  0  0  0
  1 11  1  0  0  0  0
  2  1  1  0  0  0  0
  2  8  1  6  0  0  0
  3  4  1  0  0  0  0
  3  2  1  0  0  0  0
  4  8  1  1  0  0  0
  4  5  1  0  0  0  0
  5  6  1  0  0  0  0
  5 15  1  0  0  0  0
  6  2  1  6  0  0  0
  6  7  1  0  0  0  0
  6 17  1  0  0  0  0
  8 18  1  6  0  0  0
  8  7  1  0  0  0  0
 10  1  1  0  0  0  0
 12  3  1  0  0  0  0
 13  3  1  0  0  0  0
 14  4  1  0  0  0  0
 16  5  1  0  0  0  0
M  END
