title
 OpenBabel02282110003D

 18 20  0  0  1  0  0  0  0  0999 V2000
   -1.0318    1.5251   -0.4406 C   0  0  0  0  0  0  0  0  0  0  0  0
   -0.8897   -0.0019   -0.4301 C   0  0  0  0  0  0  0  0  0  0  0  0
   -2.1039   -0.6964   -1.0434 C   0  0  0  0  0  0  0  0  0  0  0  0
    0.3831   -0.7804   -0.6967 C   0  0  1  0  0  0  0  0  0  0  0  0
    1.6638   -0.2099   -0.0141 C   0  0  1  0  0  0  0  0  0  0  0  0
    1.3513    0.9996    0.6912 O   0  0  0  0  0  0  0  0  0  0  0  0
    1.0296   -0.2598    1.2980 C   0  0  1  0  0  0  0  0  0  0  0  0
   -0.2838   -0.8329    0.6832 C   0  0  1  0  0  0  0  0  0  0  0  0
   -0.2393    2.0059   -1.0153 H   0  0  0  0  0  0  0  0  0  0  0  0
   -1.9909    1.7995   -0.8939 H   0  0  0  0  0  0  0  0  0  0  0  0
   -1.0036    1.9456    0.5653 H   0  0  0  0  0  0  0  0  0  0  0  0
   -2.2439   -0.3761   -2.0817 H   0  0  0  0  0  0  0  0  0  0  0  0
   -2.0033   -1.7861   -1.0362 H   0  0  0  0  0  0  0  0  0  0  0  0
   -3.0132   -0.4367   -0.4900 H   0  0  0  0  0  0  0  0  0  0  0  0
    0.4305   -1.5691   -1.4381 H   0  0  0  0  0  0  0  0  0  0  0  0
    2.6898   -0.3566   -0.3296 H   0  0  0  0  0  0  0  0  0  0  0  0
    1.4249   -0.4563    2.2874 H   0  0  0  0  0  0  0  0  0  0  0  0
   -0.8111   -1.6669    1.1309 H   0  0  0  0  0  0  0  0  0  0  0  0
  1  2  1  0  0  0  0
  1 11  1  0  0  0  0
  2  8  1  0  0  0  0
  3 13  1  0  0  0  0
  3 14  1  0  0  0  0
  3  2  1  0  0  0  0
  4  2  1  0  0  0  0
  4  5  1  6  0  0  0
  5  6  1  0  0  0  0
  5  7  1  1  0  0  0
  6  7  1  0  0  0  0
  7  8  1  6  0  0  0
  7 17  1  0  0  0  0
  8  4  1  6  0  0  0
  8 18  1  0  0  0  0
  9  1  1  0  0  0  0
 10  1  1  0  0  0  0
 12  3  1  0  0  0  0
 15  4  1  0  0  0  0
 16  5  1  0  0  0  0
M  END
