title
 OpenBabel02282110003D

 20 22  0  0  1  0  0  0  0  0999 V2000
    0.1968    2.2436   -0.2659 C   0  0  0  0  0  0  0  0  0  0  0  0
    0.1586    0.7367   -0.2808 C   0  0  1  0  0  0  0  0  0  0  0  0
    0.5809   -0.1134   -1.4908 C   0  0  0  0  0  0  0  0  0  0  0  0
   -0.1649   -1.2494   -0.7455 C   0  0  1  0  0  0  0  0  0  0  0  0
    0.7660   -1.4658    0.4678 C   0  0  0  0  0  0  0  0  0  0  0  0
    0.5346   -0.0599    1.0584 C   0  0  2  0  0  0  0  0  0  0  0  0
   -0.9809   -0.1220    1.3894 C   0  0  0  0  0  0  0  0  0  0  0  0
   -1.1353   -0.1446   -0.1364 C   0  0  1  0  0  0  0  0  0  0  0  0
    1.2311    2.6090   -0.2675 H   0  0  0  0  0  0  0  0  0  0  0  0
   -0.3024    2.6627   -1.1468 H   0  0  0  0  0  0  0  0  0  0  0  0
   -0.2927    2.6571    0.6230 H   0  0  0  0  0  0  0  0  0  0  0  0
    0.0532    0.2190   -2.3912 H   0  0  0  0  0  0  0  0  0  0  0  0
    1.6432   -0.2568   -1.7204 H   0  0  0  0  0  0  0  0  0  0  0  0
   -0.5457   -2.1256   -1.2693 H   0  0  0  0  0  0  0  0  0  0  0  0
    0.4457   -2.2603    1.1486 H   0  0  0  0  0  0  0  0  0  0  0  0
    1.7986   -1.6646    0.1656 H   0  0  0  0  0  0  0  0  0  0  0  0
    1.2619    0.3329    1.7697 H   0  0  0  0  0  0  0  0  0  0  0  0
   -1.3377   -0.9668    1.9880 H   0  0  0  0  0  0  0  0  0  0  0  0
   -1.3655    0.8106    1.8117 H   0  0  0  0  0  0  0  0  0  0  0  0
   -2.0639    0.0663   -0.6672 H   0  0  0  0  0  0  0  0  0  0  0  0
  1 11  1  0  0  0  0
  2  1  1  0  0  0  0
  2  8  1  6  0  0  0
  3  4  1  0  0  0  0
  3  2  1  0  0  0  0
  4  8  1  1  0  0  0
  4  5  1  0  0  0  0
  5  6  1  0  0  0  0
  5 15  1  0  0  0  0
  6  2  1  6  0  0  0
  6  7  1  0  0  0  0
  6 17  1  0  0  0  0
  7 19  1  0  0  0  0
  7 18  1  0  0  0  0
  8 20  1  6  0  0  0
  8  7  1  0  0  0  0
  9  1  1  0  0  0  0
 10  1  1  0  0  0  0
 12  3  1  0  0  0  0
 13  3  1  0  0  0  0
 14  4  1  0  0  0  0
 16  5  1  0  0  0  0
M  END
