title
 OpenBabel02282110003D

 17 19  0  0  1  0  0  0  0  0999 V2000
    0.1819    2.2457   -0.2884 C   0  0  0  0  0  0  0  0  0  0  0  0
    0.1205    0.7467   -0.2817 C   0  0  1  0  0  0  0  0  0  0  0  0
    0.6219   -0.0538   -1.4356 N   0  0  0  0  0  0  0  0  0  0  0  0
   -0.1266   -1.1892   -0.7816 C   0  0  1  0  0  0  0  0  0  0  0  0
    0.8085   -1.4482    0.4124 C   0  0  0  0  0  0  0  0  0  0  0  0
    0.4997   -0.0752    1.0330 C   0  0  2  0  0  0  0  0  0  0  0  0
   -0.9189   -0.2171    1.3536 O   0  0  0  0  0  0  0  0  0  0  0  0
   -1.1136   -0.1490   -0.0616 C   0  0  1  0  0  0  0  0  0  0  0  0
    1.2206    2.5918   -0.3192 H   0  0  0  0  0  0  0  0  0  0  0  0
   -0.3388    2.6630   -1.1574 H   0  0  0  0  0  0  0  0  0  0  0  0
   -0.2890    2.6470    0.6142 H   0  0  0  0  0  0  0  0  0  0  0  0
    0.0934    0.2521   -2.2543 H   0  0  0  0  0  0  0  0  0  0  0  0
   -0.4539   -2.0156   -1.4093 H   0  0  0  0  0  0  0  0  0  0  0  0
    0.4973   -2.2522    1.0814 H   0  0  0  0  0  0  0  0  0  0  0  0
    1.8387   -1.5844    0.0805 H   0  0  0  0  0  0  0  0  0  0  0  0
    1.0989    0.3248    1.8496 H   0  0  0  0  0  0  0  0  0  0  0  0
   -2.1376    0.0085   -0.4023 H   0  0  0  0  0  0  0  0  0  0  0  0
  1  2  1  0  0  0  0
  1 11  1  0  0  0  0
  2  8  1  6  0  0  0
  3  4  1  0  0  0  0
  3  2  1  0  0  0  0
  4  8  1  1  0  0  0
  4  5  1  0  0  0  0
  5  6  1  0  0  0  0
  5 14  1  0  0  0  0
  6  2  1  6  0  0  0
  6  7  1  0  0  0  0
  6 16  1  0  0  0  0
  8 17  1  6  0  0  0
  8  7  1  0  0  0  0
  9  1  1  0  0  0  0
 10  1  1  0  0  0  0
 12  3  1  0  0  0  0
 13  4  1  0  0  0  0
 15  5  1  0  0  0  0
M  END
