title
 OpenBabel02282110003D

 18 20  0  0  1  0  0  0  0  0999 V2000
    0.1514    2.2661   -0.2859 C   0  0  0  0  0  0  0  0  0  0  0  0
    0.1300    0.7604   -0.3026 C   0  0  1  0  0  0  0  0  0  0  0  0
    0.5900   -0.1100   -1.4856 C   0  0  0  0  0  0  0  0  0  0  0  0
   -0.1142   -1.2253   -0.6866 C   0  0  1  0  0  0  0  0  0  0  0  0
    0.7479   -1.3660    0.4552 O   0  0  0  0  0  0  0  0  0  0  0  0
    0.5159   -0.0629    1.0102 C   0  0  2  0  0  0  0  0  0  0  0  0
   -0.9819   -0.1345    1.3853 C   0  0  0  0  0  0  0  0  0  0  0  0
   -1.1508   -0.1561   -0.1396 C   0  0  1  0  0  0  0  0  0  0  0  0
    1.1814    2.6418   -0.3036 H   0  0  0  0  0  0  0  0  0  0  0  0
   -0.3673    2.6804   -1.1572 H   0  0  0  0  0  0  0  0  0  0  0  0
   -0.3293    2.6719    0.6112 H   0  0  0  0  0  0  0  0  0  0  0  0
    0.0503    0.1655   -2.3969 H   0  0  0  0  0  0  0  0  0  0  0  0
    1.6560   -0.2446   -1.6895 H   0  0  0  0  0  0  0  0  0  0  0  0
   -0.3865   -2.1967   -1.0956 H   0  0  0  0  0  0  0  0  0  0  0  0
    1.3107    0.2203    1.6995 H   0  0  0  0  0  0  0  0  0  0  0  0
   -1.2945   -0.9936    1.9835 H   0  0  0  0  0  0  0  0  0  0  0  0
   -1.3647    0.7955    1.8131 H   0  0  0  0  0  0  0  0  0  0  0  0
   -2.0860   -0.0005   -0.6753 H   0  0  0  0  0  0  0  0  0  0  0  0
  1 11  1  0  0  0  0
  2  1  1  0  0  0  0
  2  8  1  6  0  0  0
  3  4  1  0  0  0  0
  3  2  1  0  0  0  0
  4  8  1  1  0  0  0
  4  5  1  0  0  0  0
  5  6  1  0  0  0  0
  6  2  1  6  0  0  0
  6  7  1  0  0  0  0
  6 15  1  0  0  0  0
  7 17  1  0  0  0  0
  7 16  1  0  0  0  0
  8 18  1  6  0  0  0
  8  7  1  0  0  0  0
  9  1  1  0  0  0  0
 10  1  1  0  0  0  0
 12  3  1  0  0  0  0
 13  3  1  0  0  0  0
 14  4  1  0  0  0  0
M  END
