19
title
C -1.070478 1.5350851 -0.4591981
C -0.8898786 0.013213173 -0.42785734
C -2.0930932 -0.710288 -1.0334376
C 0.38600746 -0.7623946 -0.6934521
C 1.6779431 -0.22359322 -0.019039469
N 1.3850075 1.0418223 0.70472676
C 1.0388645 -0.27209458 1.3086541
C -0.2787241 -0.81284535 0.6875425
H -0.28840378 2.027114 -1.0379367
H -2.03714 1.7780181 -0.91572917
H -1.0483981 1.9694257 0.5405703
H -2.2397947 -0.4036489 -2.0750735
H -1.9722911 -1.7981086 -1.0150083
H -3.006667 -0.46181858 -0.48189455
H 0.42364457 -1.549031 -1.438299
H 2.6864462 -0.47327986 -0.32251132
H 2.2611985 1.3363583 1.1372329
H 1.4385449 -0.5679878 2.2700176
H -0.8143402 -1.642987 1.1336256
