title
 OpenBabel02282110003D

 19 21  0  0  1  0  0  0  0  0999 V2000
   -1.0705    1.5351   -0.4592 C   0  0  0  0  0  0  0  0  0  0  0  0
   -0.8899    0.0132   -0.4279 C   0  0  0  0  0  0  0  0  0  0  0  0
   -2.0931   -0.7103   -1.0334 C   0  0  0  0  0  0  0  0  0  0  0  0
    0.3860   -0.7624   -0.6935 C   0  0  1  0  0  0  0  0  0  0  0  0
    1.6779   -0.2236   -0.0190 C   0  0  1  0  0  0  0  0  0  0  0  0
    1.3850    1.0418    0.7047 N   0  0  0  0  0  0  0  0  0  0  0  0
    1.0389   -0.2721    1.3087 C   0  0  1  0  0  0  0  0  0  0  0  0
   -0.2787   -0.8128    0.6875 C   0  0  1  0  0  0  0  0  0  0  0  0
   -0.2884    2.0271   -1.0379 H   0  0  0  0  0  0  0  0  0  0  0  0
   -2.0371    1.7780   -0.9157 H   0  0  0  0  0  0  0  0  0  0  0  0
   -1.0484    1.9694    0.5406 H   0  0  0  0  0  0  0  0  0  0  0  0
   -2.2398   -0.4036   -2.0751 H   0  0  0  0  0  0  0  0  0  0  0  0
   -1.9723   -1.7981   -1.0150 H   0  0  0  0  0  0  0  0  0  0  0  0
   -3.0067   -0.4618   -0.4819 H   0  0  0  0  0  0  0  0  0  0  0  0
    0.4236   -1.5490   -1.4383 H   0  0  0  0  0  0  0  0  0  0  0  0
    2.6864   -0.4733   -0.3225 H   0  0  0  0  0  0  0  0  0  0  0  0
    2.2612    1.3364    1.1372 H   0  0  0  0  0  0  0  0  0  0  0  0
    1.4385   -0.5680    2.2700 H   0  0  0  0  0  0  0  0  0  0  0  0
   -0.8143   -1.6430    1.1336 H   0  0  0  0  0  0  0  0  0  0  0  0
  1  2  1  0  0  0  0
  1 11  1  0  0  0  0
  2  8  1  0  0  0  0
  3 13  1  0  0  0  0
  3 14  1  0  0  0  0
  3  2  1  0  0  0  0
  4  2  1  0  0  0  0
  4  5  1  6  0  0  0
  5  6  1  0  0  0  0
  5  7  1  1  0  0  0
  6 17  1  0  0  0  0
  6  7  1  0  0  0  0
  7  8  1  6  0  0  0
  7 18  1  0  0  0  0
  8  4  1  6  0  0  0
  8 19  1  0  0  0  0
  9  1  1  0  0  0  0
 10  1  1  0  0  0  0
 12  3  1  0  0  0  0
 15  4  1  0  0  0  0
 16  5  1  0  0  0  0
M  END
