17
title
C 0.18190756 2.2456813 -0.28842315
C 0.12049194 0.7466731 -0.2816765
N 0.6219158 -0.053812183 -1.43557
C -0.12660119 -1.1891946 -0.78160954
C 0.80850893 -1.4481522 0.4123504
C 0.4996658 -0.07519672 1.0329932
O -0.91892004 -0.21710631 1.3535651
C -1.1135772 -0.14899215 -0.06160595
H 1.220561 2.5917516 -0.3192496
H -0.33875936 2.6629584 -1.1574397
H -0.2890359 2.6470165 0.6141983
H 0.09336182 0.25207826 -2.2543101
H -0.4538694 -2.0155754 -1.4093406
H 0.49729398 -2.2522259 1.0814171
H 1.8387088 -1.5843793 0.080474846
H 1.0988624 0.3247887 1.8495808
H -2.137557 0.008474372 -0.4023462
