20
title
C 0.19677772 2.2435503 -0.26592076
C 0.15856817 0.73668444 -0.28082728
C 0.5809388 -0.11343581 -1.4907824
C -0.16487588 -1.2494136 -0.74550885
C 0.76602316 -1.465808 0.46784925
C 0.534597 -0.05990846 1.0584363
C -0.98090667 -0.12195552 1.3894074
C -1.1352617 -0.14456584 -0.13637643
H 1.2310697 2.6089778 -0.26749247
H -0.30244488 2.6626725 -1.1468128
H -0.2926598 2.657107 0.6229794
H 0.053241666 0.2190227 -2.391166
H 1.6432472 -0.25676447 -1.7204155
H -0.54569364 -2.1256025 -1.2693273
H 0.44568986 -2.2603424 1.1486474
H 1.7986317 -1.6645733 0.16562347
H 1.2619201 0.33287138 1.7697215
H -1.3376657 -0.9667843 1.9880269
H -1.3654829 0.8106036 1.8117378
H -2.063903 0.066297464 -0.66716486
