title
 OpenBabel02282110003D

 17 19  0  0  1  0  0  0  0  0999 V2000
    0.1223    2.1154   -0.2345 O   0  0  0  0  0  0  0  0  0  0  0  0
    0.1736    0.7284   -0.2648 C   0  0  1  0  0  0  0  0  0  0  0  0
    0.5676   -0.1399   -1.4567 C   0  0  0  0  0  0  0  0  0  0  0  0
   -0.1833   -1.2527   -0.7505 N   0  0  1  0  0  0  0  0  0  0  0  0
    0.7308   -1.4554    0.4252 C   0  0  0  0  0  0  0  0  0  0  0  0
    0.5442   -0.0800    1.0772 C   0  0  2  0  0  0  0  0  0  0  0  0
   -0.9764   -0.1342    1.3846 C   0  0  0  0  0  0  0  0  0  0  0  0
   -1.0994   -0.1433   -0.1382 C   0  0  1  0  0  0  0  0  0  0  0  0
    0.9973    2.4524   -0.0137 H   0  0  0  0  0  0  0  0  0  0  0  0
    0.0353    0.1558   -2.3651 H   0  0  0  0  0  0  0  0  0  0  0  0
    1.6142   -0.3623   -1.6900 H   0  0  0  0  0  0  0  0  0  0  0  0
    0.3872   -2.2830    1.0526 H   0  0  0  0  0  0  0  0  0  0  0  0
    1.7432   -1.6788    0.0800 H   0  0  0  0  0  0  0  0  0  0  0  0
    1.2715    0.2938    1.7984 H   0  0  0  0  0  0  0  0  0  0  0  0
   -1.3573   -0.9726    1.9747 H   0  0  0  0  0  0  0  0  0  0  0  0
   -1.3574    0.8122    1.7753 H   0  0  0  0  0  0  0  0  0  0  0  0
   -2.0172    0.0039   -0.7038 H   0  0  0  0  0  0  0  0  0  0  0  0
  1  9  1  0  0  0  0
  2  1  1  0  0  0  0
  2  8  1  6  0  0  0
  3  4  1  0  0  0  0
  3  2  1  0  0  0  0
  4  8  1  1  0  0  0
  4  5  1  0  0  0  0
  5 12  1  0  0  0  0
  5  6  1  0  0  0  0
  6  2  1  6  0  0  0
  6  7  1  0  0  0  0
  6 14  1  0  0  0  0
  7 16  1  0  0  0  0
  7 15  1  0  0  0  0
  8 17  1  6  0  0  0
  8  7  1  0  0  0  0
 10  3  1  0  0  0  0
 11  3  1  0  0  0  0
 13  5  1  0  0  0  0
M  END
