17
title
C 0.18649478 2.2181487 -0.30940387
C 0.097735494 0.7268028 -0.24792384
O 0.58204424 -0.006329423 -1.3778206
C -0.097413525 -1.1513141 -0.7858983
C 0.8134205 -1.44282 0.41821328
C 0.4826924 -0.09145958 1.0905508
N -0.9792191 -0.16515076 1.3703461
C -1.1479836 -0.16654706 -0.08433856
H 1.2327709 2.541622 -0.3240955
H -0.30274305 2.599847 -1.2103366
H -0.29831028 2.653621 0.5686281
H -0.35512123 -1.9307269 -1.5004623
H 0.5166189 -2.2944627 1.0383626
H 1.8504351 -1.5585183 0.096374474
H 1.1285462 0.30047122 1.8755018
H -1.2663823 -1.0206509 1.845807
H -2.12808 -0.001739448 -0.5306229
