16
title
C 0.14671029 2.3648703 -0.37543938
C 0.2671287 0.87902933 -0.30706972
C 0.8086341 -0.19359055 -1.1947612
C 1.5533401 -0.87670565 -0.044783134
C 0.56927526 -0.124892086 0.89409316
C -0.8052666 -0.728395 0.54309314
O -1.6968863 -1.1932958 1.1976695
C -0.69407946 -0.21135703 -0.8536159
H 1.0919727 2.8534882 -0.11419453
H -0.12696607 2.6851773 -1.3859015
H -0.6221727 2.7336595 0.3120973
H 1.1059209 -0.11012718 -2.2334216
H 1.5549301 -1.9711336 0.007560503
H 2.5751276 -0.4985142 0.045114826
H 0.8185466 0.13343856 1.9198272
H -1.4576026 -0.09996781 -1.611594
