16
title
C 0.19600683 2.2336519 -0.32172364
C 0.10216161 0.7426571 -0.25862488
O 0.56981635 0.0018950753 -1.391752
C -0.09843724 -1.1460686 -0.78947586
C 0.8204668 -1.4358462 0.41089228
C 0.4753785 -0.089814596 1.0700219
O -0.9472125 -0.25990504 1.3483329
C -1.1247048 -0.16083199 -0.0634568
H 1.2428112 2.5544176 -0.34232888
H -0.297919 2.6163547 -1.2194282
H -0.2820619 2.6735163 0.55847806
H -0.36944857 -1.9249789 -1.4984182
H 0.5151503 -2.270899 1.04433
H 1.857241 -1.543909 0.0874396
H 1.0486566 0.2962038 1.9107776
H -2.1435745 -0.018413777 -0.4192777
