16
title
O 0.13558297 2.1133082 -0.28212222
C 0.17367022 0.73060757 -0.3040759
C 0.5689915 -0.12639049 -1.5210074
C -0.16773069 -1.2544187 -0.7510606
C 0.77065676 -1.4781395 0.45599225
C 0.50459045 -0.078627735 1.0345591
O -0.91892254 -0.16170546 1.3399886
C -1.0886828 -0.120195836 -0.07763995
H 1.0363988 2.4465806 -0.20764583
H 0.024616448 0.21305776 -2.4067545
H 1.6243353 -0.281454 -1.765197
H -0.5896303 -2.114535 -1.2642266
H 0.44443148 -2.252043 1.1538236
H 1.8054233 -1.6631497 0.15435056
H 1.1084292 0.32464463 1.8471997
H -2.094554 0.08075026 -0.44133067
