title
 OpenBabel02282110003D

 16 18  0  0  1  0  0  0  0  0999 V2000
    0.0732    2.1103   -0.2883 O   0  0  0  0  0  0  0  0  0  0  0  0
    0.1381    0.7269   -0.3108 C   0  0  1  0  0  0  0  0  0  0  0  0
    0.5932   -0.1430   -1.4959 C   0  0  0  0  0  0  0  0  0  0  0  0
   -0.1241   -1.2369   -0.6727 C   0  0  1  0  0  0  0  0  0  0  0  0
    0.7408   -1.3833    0.4694 O   0  0  0  0  0  0  0  0  0  0  0  0
    0.5248   -0.0779    1.0197 C   0  0  2  0  0  0  0  0  0  0  0  0
   -0.9741   -0.1071    1.3940 C   0  0  0  0  0  0  0  0  0  0  0  0
   -1.1468   -0.1490   -0.1311 C   0  0  1  0  0  0  0  0  0  0  0  0
    0.9656    2.4573   -0.1789 H   0  0  0  0  0  0  0  0  0  0  0  0
    0.0451    0.1345   -2.4003 H   0  0  0  0  0  0  0  0  0  0  0  0
    1.6555   -0.2958   -1.7035 H   0  0  0  0  0  0  0  0  0  0  0  0
   -0.4186   -2.2026   -1.0763 H   0  0  0  0  0  0  0  0  0  0  0  0
    1.3261    0.2078    1.7009 H   0  0  0  0  0  0  0  0  0  0  0  0
   -1.3115   -0.9444    2.0088 H   0  0  0  0  0  0  0  0  0  0  0  0
   -1.3240    0.8472    1.7939 H   0  0  0  0  0  0  0  0  0  0  0  0
   -2.0749    0.0180   -0.6743 H   0  0  0  0  0  0  0  0  0  0  0  0
  1  9  1  0  0  0  0
  2  1  1  0  0  0  0
  2  8  1  6  0  0  0
  3  4  1  0  0  0  0
  3  2  1  0  0  0  0
  4  8  1  1  0  0  0
  4  5  1  0  0  0  0
  5  6  1  0  0  0  0
  6  2  1  6  0  0  0
  6  7  1  0  0  0  0
  6 13  1  0  0  0  0
  7 15  1  0  0  0  0
  7 14  1  0  0  0  0
  8 16  1  6  0  0  0
  8  7  1  0  0  0  0
 10  3  1  0  0  0  0
 11  3  1  0  0  0  0
 12  4  1  0  0  0  0
M  END
