title
 OpenBabel02282110003D

 14 16  0  0  1  0  0  0  0  0999 V2000
   -0.0758    2.3856   -0.4085 C   0  0  0  0  0  0  0  0  0  0  0  0
    0.0564    0.8996   -0.3985 C   0  0  1  0  0  0  0  0  0  0  0  0
    0.0917   -0.2077   -1.3775 C   0  0  1  0  0  0  0  0  0  0  0  0
    1.2149   -0.8827   -0.8060 O   0  0  0  0  0  0  0  0  0  0  0  0
    0.9377   -0.1365    0.4105 C   0  0  2  0  0  0  0  0  0  0  0  0
   -0.4179   -0.7122    0.8951 C   0  0  0  0  0  0  0  0  0  0  0  0
   -0.8205   -1.1268    1.9442 O   0  0  0  0  0  0  0  0  0  0  0  0
   -1.0579   -0.2218   -0.3632 C   0  0  1  0  0  0  0  0  0  0  0  0
    0.8751    2.8626   -0.6680 H   0  0  0  0  0  0  0  0  0  0  0  0
   -0.8236    2.7008   -1.1426 H   0  0  0  0  0  0  0  0  0  0  0  0
   -0.3897    2.7624    0.5704 H   0  0  0  0  0  0  0  0  0  0  0  0
   -0.0648   -0.2479   -2.4482 H   0  0  0  0  0  0  0  0  0  0  0  0
    1.7968    0.0364    1.0530 H   0  0  0  0  0  0  0  0  0  0  0  0
   -2.1022   -0.1333   -0.6284 H   0  0  0  0  0  0  0  0  0  0  0  0
  1  2  1  0  0  0  0
  1 11  1  0  0  0  0
  2  3  1  6  0  0  0
  3  4  1  0  0  0  0
  3  8  1  1  0  0  0
  4  5  1  0  0  0  0
  5  2  1  6  0  0  0
  5  6  1  0  0  0  0
  5 13  1  0  0  0  0
  6  7  2  0  0  0  0
  8  2  1  1  0  0  0
  8  6  1  0  0  0  0
  9  1  1  0  0  0  0
 10  1  1  0  0  0  0
 12  3  1  0  0  0  0
 14  8  1  0  0  0  0
M  END
