title
 OpenBabel02282110003D

 18 20  0  0  1  0  0  0  0  0999 V2000
   -0.0000    2.2773   -0.5188 C   0  0  0  0  0  0  0  0  0  0  0  0
    0.0549    0.7872   -0.4336 C   0  0  1  0  0  0  0  0  0  0  0  0
    0.0286   -0.2874   -1.4940 C   0  0  1  0  0  0  0  0  0  0  0  0
    1.3003   -0.9456   -0.9590 C   0  0  0  0  0  0  0  0  0  0  0  0
    0.9655   -0.2427    0.3806 C   0  0  2  0  0  0  0  0  0  0  0  0
   -0.3441   -0.9377    0.8531 C   0  0  1  0  0  0  0  0  0  0  0  0
   -0.8453   -0.4871    2.0937 O   0  0  0  0  0  0  0  0  0  0  0  0
   -1.0099   -0.2960   -0.3604 C   0  0  1  0  0  0  0  0  0  0  0  0
    0.9506    2.6967   -0.8688 H   0  0  0  0  0  0  0  0  0  0  0  0
   -0.7791    2.5939   -1.2212 H   0  0  0  0  0  0  0  0  0  0  0  0
   -0.2240    2.7390    0.4506 H   0  0  0  0  0  0  0  0  0  0  0  0
   -0.2892   -0.1815   -2.5247 H   0  0  0  0  0  0  0  0  0  0  0  0
    1.3694   -2.0401   -0.9468 H   0  0  0  0  0  0  0  0  0  0  0  0
    2.1941   -0.5308   -1.4339 H   0  0  0  0  0  0  0  0  0  0  0  0
    1.7333    0.0040    1.1122 H   0  0  0  0  0  0  0  0  0  0  0  0
   -0.3199   -2.0306    0.9267 H   0  0  0  0  0  0  0  0  0  0  0  0
   -1.0066    0.4604    2.0149 H   0  0  0  0  0  0  0  0  0  0  0  0
   -2.0705   -0.2115   -0.5679 H   0  0  0  0  0  0  0  0  0  0  0  0
  1  2  1  0  0  0  0
  1 11  1  0  0  0  0
  2  3  1  6  0  0  0
  3  4  1  0  0  0  0
  3  8  1  1  0  0  0
  4 13  1  0  0  0  0
  4  5  1  0  0  0  0
  5  2  1  6  0  0  0
  5  6  1  0  0  0  0
  5 15  1  0  0  0  0
  6  8  1  6  0  0  0
  6 16  1  0  0  0  0
  6  7  1  0  0  0  0
  8  2  1  1  0  0  0
  9  1  1  0  0  0  0
 10  1  1  0  0  0  0
 12  3  1  0  0  0  0
 14  4  1  0  0  0  0
 17  7  1  0  0  0  0
 18  8  1  0  0  0  0
M  END
