17
title
C -0.6653947 2.2076728 -0.24053822
C -0.4215616 0.74285465 -0.13843408
C 0.22207302 -0.26280963 -1.0186504
C 0.9783837 -0.8872218 0.1466881
O 2.2386186 -0.2558301 0.24598745
C -0.12219465 -0.26393628 1.0513481
C -1.3779776 -1.0037756 0.57971907
N -1.2606287 -0.32658774 -0.7568314
H 0.232413 2.771903 0.03279056
H -0.9369342 2.4687095 -1.2680904
H -1.482369 2.5267763 0.41648087
H 0.53440017 -0.18565744 -2.0519874
H 1.0781397 -1.9829113 0.18146041
H 2.6499052 -0.5456368 1.0665544
H 0.09061825 -0.033121582 2.094984
H -1.3546673 -2.1004732 0.5530224
H -2.302298 -0.66931915 1.0577339
