14
title
C -0.075846314 2.3856373 -0.40848356
C 0.056412272 0.8995629 -0.3985098
C 0.091745 -0.20774849 -1.3774884
O 1.2148566 -0.88267714 -0.8060171
C 0.93765765 -0.13654603 0.41045037
C -0.41786084 -0.71217936 0.89509434
O -0.8205081 -1.1268307 1.9441837
C -1.0579344 -0.2218004 -0.36322895
H 0.87508655 2.8626058 -0.6679642
H -0.82364225 2.700849 -1.1426157
H -0.38968718 2.7624493 0.5704412
H -0.06482395 -0.24785908 -2.4481905
H 1.7968129 0.036383793 1.0529628
H -2.1022174 -0.13334955 -0.628396
