title
 OpenBabel02282110003D

 20 22  0  0  1  0  0  0  0  0999 V2000
   -1.1342    2.2966    0.0706 C   0  0  0  0  0  0  0  0  0  0  0  0
   -1.0377    0.7757    0.0738 C   0  0  1  0  0  0  0  0  0  0  0  0
   -0.3228    0.0205   -1.0469 C   0  0  1  0  0  0  0  0  0  0  0  0
    1.1651   -0.1117   -0.6569 C   0  0  1  0  0  0  0  0  0  0  0  0
    1.3532    0.5576    0.7007 C   0  0  0  0  0  0  0  0  0  0  0  0
   -0.0654    0.0262    1.0387 C   0  0  2  0  0  0  0  0  0  0  0  0
    0.1317   -1.0673   -0.1036 C   0  0  1  0  0  0  0  0  0  0  0  0
   -0.0001   -2.5536   -0.1271 C   0  0  0  0  0  0  0  0  0  0  0  0
   -0.1655    2.7715   -0.1077 H   0  0  0  0  0  0  0  0  0  0  0  0
   -1.8144    2.6371   -0.7184 H   0  0  0  0  0  0  0  0  0  0  0  0
   -1.5240    2.6698    1.0249 H   0  0  0  0  0  0  0  0  0  0  0  0
   -2.0388    0.3454    0.1997 H   0  0  0  0  0  0  0  0  0  0  0  0
   -0.6307   -0.0930   -2.0800 H   0  0  0  0  0  0  0  0  0  0  0  0
    1.9133   -0.3196   -1.4123 H   0  0  0  0  0  0  0  0  0  0  0  0
    2.1168    0.0399    1.2888 H   0  0  0  0  0  0  0  0  0  0  0  0
    1.5304    1.6375    0.7549 H   0  0  0  0  0  0  0  0  0  0  0  0
   -0.3551   -0.1662    2.0708 H   0  0  0  0  0  0  0  0  0  0  0  0
   -1.0157   -2.8758    0.1328 H   0  0  0  0  0  0  0  0  0  0  0  0
    0.2234   -2.9451   -1.1259 H   0  0  0  0  0  0  0  0  0  0  0  0
    0.6892   -3.0346    0.5774 H   0  0  0  0  0  0  0  0  0  0  0  0
  1  2  1  0  0  0  0
  1 11  1  0  0  0  0
  2  3  1  6  0  0  0
  2 12  1  0  0  0  0
  2  6  1  0  0  0  0
  3  4  1  6  0  0  0
  4  7  1  1  0  0  0
  4  5  1  0  0  0  0
  5 16  1  0  0  0  0
  5  6  1  0  0  0  0
  5 15  1  0  0  0  0
  6  7  1  6  0  0  0
  6 17  1  0  0  0  0
  7  3  1  6  0  0  0
  8  7  1  0  0  0  0
  8 18  1  0  0  0  0
  8 20  1  0  0  0  0
  9  1  1  0  0  0  0
 10  1  1  0  0  0  0
 13  3  1  0  0  0  0
 14  4  1  0  0  0  0
 19  8  1  0  0  0  0
M  END
