title
 OpenBabel02282110003D

 14 16  0  0  1  0  0  0  0  0999 V2000
   -0.5054    2.2141    0.0119 O   0  0  0  0  0  0  0  0  0  0  0  0
   -0.3951    0.8600   -0.0748 C   0  0  1  0  0  0  0  0  0  0  0  0
   -1.4248   -0.2041   -0.1119 C   0  0  1  0  0  0  0  0  0  0  0  0
   -0.7834   -0.8907   -1.3214 C   0  0  0  0  0  0  0  0  0  0  0  0
    0.5185   -0.1304   -0.9373 C   0  0  2  0  0  0  0  0  0  0  0  0
    0.8946   -0.7378    0.4351 C   0  0  0  0  0  0  0  0  0  0  0  0
    1.9029   -1.2111    0.8798 O   0  0  0  0  0  0  0  0  0  0  0  0
   -0.3748   -0.2266    1.0368 C   0  0  1  0  0  0  0  0  0  0  0  0
    0.2655    2.5660    0.4729 H   0  0  0  0  0  0  0  0  0  0  0  0
   -2.4720   -0.1290    0.1524 H   0  0  0  0  0  0  0  0  0  0  0  0
   -0.7280   -1.9849   -1.3255 H   0  0  0  0  0  0  0  0  0  0  0  0
   -1.2122   -0.5319   -2.2602 H   0  0  0  0  0  0  0  0  0  0  0  0
    1.2826    0.1316   -1.6638 H   0  0  0  0  0  0  0  0  0  0  0  0
   -0.6717   -0.1287    2.0720 H   0  0  0  0  0  0  0  0  0  0  0  0
  1  9  1  0  0  0  0
  2  5  1  6  0  0  0
  2  1  1  0  0  0  0
  2  8  1  0  0  0  0
  3  2  1  6  0  0  0
  3 10  1  0  0  0  0
  4  5  1  0  0  0  0
  4  3  1  0  0  0  0
  5 13  1  6  0  0  0
  5  6  1  0  0  0  0
  6  7  2  0  0  0  0
  6  8  1  0  0  0  0
  8  3  1  6  0  0  0
  8 14  1  0  0  0  0
 11  4  1  0  0  0  0
 12  4  1  0  0  0  0
M  END
