18
title
C 0.016391788 2.4418418 -0.27608573
C 0.04136397 0.93393725 -0.24543047
C 0.6018194 0.08699663 -1.4575261
C -0.1979674 -1.0287231 -0.7773882
C 0.47489354 -1.7897123 0.109268054
C 0.30421025 -1.208614 1.5094067
C -0.25002983 0.1781388 1.1271437
C -1.1133529 -0.01256333 -0.06886737
H 1.0130072 2.8630059 -0.10021097
H -0.3302246 2.8058243 -1.2505523
H -0.65522724 2.847 0.487537
H 0.18757446 0.50560075 -2.3836987
H 1.6799152 -0.0685374 -1.5665462
H 1.3972914 -2.3001719 -0.15508631
H -0.3855137 -1.7184747 2.198413
H 1.2853673 -1.1912884 2.0000134
H -0.55258965 0.8678806 1.913578
H -2.1778903 0.139919 -0.19639635
