title
 OpenBabel02282110003D

 18 20  0  0  1  0  0  0  0  0999 V2000
   -1.0721    2.2931    0.0717 C   0  0  0  0  0  0  0  0  0  0  0  0
   -1.0479    0.7725    0.0582 C   0  0  1  0  0  0  0  0  0  0  0  0
   -0.3407    0.0074   -1.0656 C   0  0  1  0  0  0  0  0  0  0  0  0
    1.1216   -0.1185   -0.5898 C   0  0  1  0  0  0  0  0  0  0  0  0
    1.2486    0.5847    0.6463 O   0  0  0  0  0  0  0  0  0  0  0  0
   -0.0506    0.0272    0.9939 C   0  0  2  0  0  0  0  0  0  0  0  0
    0.1074   -1.0982   -0.1082 C   0  0  1  0  0  0  0  0  0  0  0  0
   -0.0209   -2.5854   -0.1180 C   0  0  0  0  0  0  0  0  0  0  0  0
   -0.0554    2.6895    0.0191 H   0  0  0  0  0  0  0  0  0  0  0  0
   -1.6412    2.6834   -0.7791 H   0  0  0  0  0  0  0  0  0  0  0  0
   -1.5419    2.6719    0.9866 H   0  0  0  0  0  0  0  0  0  0  0  0
   -2.0490    0.3514    0.2039 H   0  0  0  0  0  0  0  0  0  0  0  0
   -0.6236   -0.0851   -2.1076 H   0  0  0  0  0  0  0  0  0  0  0  0
    1.9848   -0.2095   -1.2366 H   0  0  0  0  0  0  0  0  0  0  0  0
   -0.2017   -0.0794    2.0671 H   0  0  0  0  0  0  0  0  0  0  0  0
   -1.0441   -2.9048    0.1110 H   0  0  0  0  0  0  0  0  0  0  0  0
    0.2337   -2.9852   -1.1056 H   0  0  0  0  0  0  0  0  0  0  0  0
    0.6489   -3.0516    0.6133 H   0  0  0  0  0  0  0  0  0  0  0  0
  1 11  1  0  0  0  0
  2  3  1  6  0  0  0
  2  1  1  0  0  0  0
  2 12  1  0  0  0  0
  2  6  1  0  0  0  0
  3  4  1  6  0  0  0
  4  7  1  1  0  0  0
  4  5  1  0  0  0  0
  5  6  1  0  0  0  0
  6  7  1  6  0  0  0
  6 15  1  0  0  0  0
  7  3  1  6  0  0  0
  8  7  1  0  0  0  0
  8 16  1  0  0  0  0
  8 18  1  0  0  0  0
  9  1  1  0  0  0  0
 10  1  1  0  0  0  0
 13  3  1  0  0  0  0
 14  4  1  0  0  0  0
 17  8  1  0  0  0  0
M  END
