title
 OpenBabel02282110003D

 18 20  0  0  1  0  0  0  0  0999 V2000
    0.0164    2.4418   -0.2761 C   0  0  0  0  0  0  0  0  0  0  0  0
    0.0414    0.9339   -0.2454 C   0  0  1  0  0  0  0  0  0  0  0  0
    0.6018    0.0870   -1.4575 C   0  0  0  0  0  0  0  0  0  0  0  0
   -0.1980   -1.0287   -0.7774 C   0  0  1  0  0  0  0  0  0  0  0  0
    0.4749   -1.7897    0.1093 C   0  0  0  0  0  0  0  0  0  0  0  0
    0.3042   -1.2086    1.5094 C   0  0  0  0  0  0  0  0  0  0  0  0
   -0.2500    0.1781    1.1271 C   0  0  2  0  0  0  0  0  0  0  0  0
   -1.1134   -0.0126   -0.0689 C   0  0  1  0  0  0  0  0  0  0  0  0
    1.0130    2.8630   -0.1002 H   0  0  0  0  0  0  0  0  0  0  0  0
   -0.3302    2.8058   -1.2506 H   0  0  0  0  0  0  0  0  0  0  0  0
   -0.6552    2.8470    0.4875 H   0  0  0  0  0  0  0  0  0  0  0  0
    0.1876    0.5056   -2.3837 H   0  0  0  0  0  0  0  0  0  0  0  0
    1.6799   -0.0685   -1.5665 H   0  0  0  0  0  0  0  0  0  0  0  0
    1.3973   -2.3002   -0.1551 H   0  0  0  0  0  0  0  0  0  0  0  0
   -0.3855   -1.7185    2.1984 H   0  0  0  0  0  0  0  0  0  0  0  0
    1.2854   -1.1913    2.0000 H   0  0  0  0  0  0  0  0  0  0  0  0
   -0.5526    0.8679    1.9136 H   0  0  0  0  0  0  0  0  0  0  0  0
   -2.1779    0.1399   -0.1964 H   0  0  0  0  0  0  0  0  0  0  0  0
  1  2  1  0  0  0  0
  1  9  1  0  0  0  0
  1 11  1  0  0  0  0
  2  8  1  6  0  0  0
  3  4  1  0  0  0  0
  3  2  1  0  0  0  0
  4  8  1  1  0  0  0
  4  5  1  0  0  0  0
  5  6  1  0  0  0  0
  6 16  1  0  0  0  0
  6 15  1  0  0  0  0
  7  2  1  6  0  0  0
  7  6  1  0  0  0  0
  7 17  1  0  0  0  0
  8  7  1  1  0  0  0
 10  1  1  0  0  0  0
 12  3  1  0  0  0  0
 13  3  1  0  0  0  0
 14  5  1  0  0  0  0
 18  8  1  0  0  0  0
M  RAD  2   4   2   5   2
M  END
