title
 OpenBabel02282110003D

 19 21  0  0  1  0  0  0  0  0999 V2000
   -1.2015    2.1231    0.1264 C   0  0  0  0  0  0  0  0  0  0  0  0
   -1.0608    0.6736    0.1297 N   0  0  0  0  0  0  0  0  0  0  0  0
   -0.3912    0.0190   -0.9864 C   0  0  1  0  0  0  0  0  0  0  0  0
    1.1431   -0.0225   -0.7155 C   0  0  1  0  0  0  0  0  0  0  0  0
    1.3477    0.6342    0.6458 C   0  0  0  0  0  0  0  0  0  0  0  0
   -0.0447    0.0340    1.0125 C   0  0  2  0  0  0  0  0  0  0  0  0
    0.1893   -1.0508   -0.1230 C   0  0  1  0  0  0  0  0  0  0  0  0
    0.1228   -2.5408   -0.1447 C   0  0  0  0  0  0  0  0  0  0  0  0
   -0.2832    2.6782   -0.1210 H   0  0  0  0  0  0  0  0  0  0  0  0
   -1.9667    2.4008   -0.6066 H   0  0  0  0  0  0  0  0  0  0  0  0
   -1.5496    2.4522    1.1116 H   0  0  0  0  0  0  0  0  0  0  0  0
   -0.8143   -0.0425   -1.9828 H   0  0  0  0  0  0  0  0  0  0  0  0
    1.8621   -0.1696   -1.5124 H   0  0  0  0  0  0  0  0  0  0  0  0
    2.1361    0.1285    1.2101 H   0  0  0  0  0  0  0  0  0  0  0  0
    1.4877    1.7179    0.7192 H   0  0  0  0  0  0  0  0  0  0  0  0
   -0.3361   -0.1357    2.0491 H   0  0  0  0  0  0  0  0  0  0  0  0
   -0.8638   -2.9011    0.1681 H   0  0  0  0  0  0  0  0  0  0  0  0
    0.3105   -2.9199   -1.1553 H   0  0  0  0  0  0  0  0  0  0  0  0
    0.8701   -2.9905    0.5195 H   0  0  0  0  0  0  0  0  0  0  0  0
  1  2  1  0  0  0  0
  1 11  1  0  0  0  0
  2  6  1  0  0  0  0
  3  4  1  6  0  0  0
  3  2  1  0  0  0  0
  4  7  1  1  0  0  0
  4  5  1  0  0  0  0
  5 15  1  0  0  0  0
  5  6  1  0  0  0  0
  5 14  1  0  0  0  0
  6  7  1  6  0  0  0
  6 16  1  0  0  0  0
  7  3  1  6  0  0  0
  8  7  1  0  0  0  0
  8 17  1  0  0  0  0
  8 19  1  0  0  0  0
  9  1  1  0  0  0  0
 10  1  1  0  0  0  0
 12  3  1  0  0  0  0
 13  4  1  0  0  0  0
 18  8  1  0  0  0  0
M  END
