15
title
O 0.5939043 2.1392672 0.87757313
C 0.56951475 0.745781 0.8680842
C -0.758236 -0.017596044 0.7968785
C -1.1064326 -0.0951573 -0.70816106
N -0.06111948 0.7031137 -1.390049
C 0.92225254 0.036148034 -0.46942753
C -0.1562324 -1.0841376 -0.083664134
O -0.12799446 -2.4333415 0.14051078
H 0.23456384 2.3975298 0.015262053
H 1.1859821 0.3824333 1.6937956
H -1.5250268 -0.13739173 1.5511093
H -2.127072 -0.17672978 -1.0583166
H 0.06773691 0.33354926 -2.329834
H 1.9461169 -0.07161675 -0.821358
H -0.022942405 -2.8860173 -0.7042976
