title
 OpenBabel02282110003D

 15 17  0  0  1  0  0  0  0  0999 V2000
    0.5939    2.1393    0.8776 O   0  0  0  0  0  0  0  0  0  0  0  0
    0.5695    0.7458    0.8681 C   0  0  1  0  0  0  0  0  0  0  0  0
   -0.7582   -0.0176    0.7969 C   0  0  1  0  0  0  0  0  0  0  0  0
   -1.1064   -0.0952   -0.7082 C   0  0  1  0  0  0  0  0  0  0  0  0
   -0.0611    0.7031   -1.3900 N   0  0  0  0  0  0  0  0  0  0  0  0
    0.9223    0.0361   -0.4694 C   0  0  2  0  0  0  0  0  0  0  0  0
   -0.1562   -1.0841   -0.0837 C   0  0  1  0  0  0  0  0  0  0  0  0
   -0.1280   -2.4333    0.1405 O   0  0  0  0  0  0  0  0  0  0  0  0
    0.2346    2.3975    0.0153 H   0  0  0  0  0  0  0  0  0  0  0  0
    1.1860    0.3824    1.6938 H   0  0  0  0  0  0  0  0  0  0  0  0
   -1.5250   -0.1374    1.5511 H   0  0  0  0  0  0  0  0  0  0  0  0
   -2.1271   -0.1767   -1.0583 H   0  0  0  0  0  0  0  0  0  0  0  0
    0.0677    0.3335   -2.3298 H   0  0  0  0  0  0  0  0  0  0  0  0
    1.9461   -0.0716   -0.8214 H   0  0  0  0  0  0  0  0  0  0  0  0
   -0.0229   -2.8860   -0.7043 H   0  0  0  0  0  0  0  0  0  0  0  0
  2  6  1  6  0  0  0
  2  1  1  0  0  0  0
  2 10  1  0  0  0  0
  3  4  1  6  0  0  0
  3  2  1  0  0  0  0
  3 11  1  0  0  0  0
  4  7  1  6  0  0  0
  5  4  1  0  0  0  0
  5  6  1  0  0  0  0
  6  7  1  1  0  0  0
  7  8  1  0  0  0  0
  7  3  1  1  0  0  0
  9  1  1  0  0  0  0
 12  4  1  0  0  0  0
 13  5  1  0  0  0  0
 14  6  1  0  0  0  0
 15  8  1  0  0  0  0
M  END
