title
 OpenBabel02282110003D

 16 18  0  0  1  0  0  0  0  0999 V2000
    0.4801    2.1703    0.8529 O   0  0  0  0  0  0  0  0  0  0  0  0
    0.5817    0.7647    0.8300 C   0  0  1  0  0  0  0  0  0  0  0  0
   -0.7271    0.0032    0.8035 C   0  0  1  0  0  0  0  0  0  0  0  0
   -1.1594   -0.1329   -0.6835 C   0  0  1  0  0  0  0  0  0  0  0  0
   -0.1032    0.5900   -1.5172 C   0  0  0  0  0  0  0  0  0  0  0  0
    0.9385    0.0414   -0.5078 C   0  0  2  0  0  0  0  0  0  0  0  0
   -0.1356   -1.0599   -0.0756 C   0  0  1  0  0  0  0  0  0  0  0  0
   -0.0720   -2.4069    0.1605 O   0  0  0  0  0  0  0  0  0  0  0  0
    1.3695    2.5376    0.8845 H   0  0  0  0  0  0  0  0  0  0  0  0
    1.2192    0.3934    1.6444 H   0  0  0  0  0  0  0  0  0  0  0  0
   -1.4480   -0.1258    1.5998 H   0  0  0  0  0  0  0  0  0  0  0  0
   -2.1962   -0.3359   -0.9188 H   0  0  0  0  0  0  0  0  0  0  0  0
    0.0098    0.1389   -2.5070 H   0  0  0  0  0  0  0  0  0  0  0  0
   -0.1671    1.6786   -1.5988 H   0  0  0  0  0  0  0  0  0  0  0  0
    1.9758   -0.1275   -0.7920 H   0  0  0  0  0  0  0  0  0  0  0  0
   -0.0295   -2.8643   -0.6871 H   0  0  0  0  0  0  0  0  0  0  0  0
  1  9  1  0  0  0  0
  2  6  1  6  0  0  0
  2  1  1  0  0  0  0
  2 10  1  0  0  0  0
  3  4  1  6  0  0  0
  3  2  1  0  0  0  0
  3 11  1  0  0  0  0
  4  7  1  6  0  0  0
  5  4  1  0  0  0  0
  5  6  1  0  0  0  0
  6  7  1  1  0  0  0
  7  8  1  0  0  0  0
  7  3  1  1  0  0  0
 12  4  1  0  0  0  0
 13  5  1  0  0  0  0
 14  5  1  0  0  0  0
 15  6  1  0  0  0  0
 16  8  1  0  0  0  0
M  END
