title
 OpenBabel02282110003D

 19 21  0  0  1  0  0  0  0  0999 V2000
   -1.0290    2.3637    0.0547 C   0  0  0  0  0  0  0  0  0  0  0  0
   -1.0120    0.8407    0.0925 C   0  0  1  0  0  0  0  0  0  0  0  0
   -0.3517    0.0149   -1.0128 C   0  0  1  0  0  0  0  0  0  0  0  0
    1.1135   -0.2155   -0.6988 N   0  0  1  0  0  0  0  0  0  0  0  0
    1.3350    0.4649    0.6184 C   0  0  0  0  0  0  0  0  0  0  0  0
   -0.0754    0.0557    1.0624 C   0  0  2  0  0  0  0  0  0  0  0  0
    0.0501   -1.0528   -0.0678 C   0  0  1  0  0  0  0  0  0  0  0  0
   -0.0076   -2.5416   -0.0861 C   0  0  0  0  0  0  0  0  0  0  0  0
   -0.0373    2.7879   -0.1227 H   0  0  0  0  0  0  0  0  0  0  0  0
   -1.6836    2.7188   -0.7489 H   0  0  0  0  0  0  0  0  0  0  0  0
   -1.4102    2.7752    0.9962 H   0  0  0  0  0  0  0  0  0  0  0  0
   -2.0328    0.4634    0.2258 H   0  0  0  0  0  0  0  0  0  0  0  0
   -0.6202   -0.0616   -2.0594 H   0  0  0  0  0  0  0  0  0  0  0  0
    2.1227   -0.0761    1.1498 H   0  0  0  0  0  0  0  0  0  0  0  0
    1.5957    1.5280    0.5707 H   0  0  0  0  0  0  0  0  0  0  0  0
   -0.3493   -0.0807    2.1080 H   0  0  0  0  0  0  0  0  0  0  0  0
   -1.0047   -2.9048    0.1869 H   0  0  0  0  0  0  0  0  0  0  0  0
    0.2292   -2.9112   -1.0887 H   0  0  0  0  0  0  0  0  0  0  0  0
    0.7129   -2.9800    0.6137 H   0  0  0  0  0  0  0  0  0  0  0  0
  1  2  1  0  0  0  0
  1 11  1  0  0  0  0
  2  3  1  6  0  0  0
  2 12  1  0  0  0  0
  2  6  1  0  0  0  0
  3  4  1  6  0  0  0
  4  7  1  1  0  0  0
  4  5  1  0  0  0  0
  5  6  1  0  0  0  0
  5 14  1  0  0  0  0
  6  7  1  6  0  0  0
  6 16  1  0  0  0  0
  7  3  1  6  0  0  0
  8  7  1  0  0  0  0
  8 17  1  0  0  0  0
  8 19  1  0  0  0  0
  9  1  1  0  0  0  0
 10  1  1  0  0  0  0
 13  3  1  0  0  0  0
 15  5  1  0  0  0  0
 18  8  1  0  0  0  0
M  END
