16
title
O 0.48005825 2.1703167 0.8529474
C 0.5817243 0.7646541 0.8300393
C -0.72712374 0.0032413322 0.8035147
C -1.1593579 -0.13290772 -0.6835347
C -0.10315444 0.589971 -1.5171958
C 0.93851465 0.041392658 -0.507822
C -0.13564411 -1.0598575 -0.07557015
O -0.07204773 -2.4069252 0.1604578
H 1.3694739 2.5375562 0.884514
H 1.219196 0.39336038 1.6444197
H -1.4479624 -0.12582383 1.5998284
H -2.196192 -0.33593425 -0.9188151
H 0.009827889 0.13889506 -2.5070267
H -0.16712156 1.6786205 -1.5988256
H 1.9757684 -0.12746212 -0.79197973
H -0.02946689 -2.864271 -0.6871045
