title
 OpenBabel02282110003D

 16 18  0  0  1  0  0  0  0  0999 V2000
   -1.0706    2.3051    0.0589 C   0  0  0  0  0  0  0  0  0  0  0  0
   -1.0475    0.7848    0.0716 C   0  0  1  0  0  0  0  0  0  0  0  0
   -0.3549    0.0031   -1.0492 C   0  0  1  0  0  0  0  0  0  0  0  0
    1.1345   -0.1007   -0.5871 C   0  0  1  0  0  0  0  0  0  0  0  0
    1.2541    0.6052    0.6435 O   0  0  0  0  0  0  0  0  0  0  0  0
   -0.0405    0.0619    1.0153 C   0  0  2  0  0  0  0  0  0  0  0  0
    0.1128   -1.0751   -0.1029 C   0  0  1  0  0  0  0  0  0  0  0  0
   -0.0840   -2.4252   -0.1644 O   0  0  0  0  0  0  0  0  0  0  0  0
   -0.0564    2.7017   -0.0274 H   0  0  0  0  0  0  0  0  0  0  0  0
   -1.6619    2.6800   -0.7835 H   0  0  0  0  0  0  0  0  0  0  0  0
   -1.5166    2.6994    0.9790 H   0  0  0  0  0  0  0  0  0  0  0  0
   -2.0458    0.3649    0.2350 H   0  0  0  0  0  0  0  0  0  0  0  0
   -0.6299   -0.0970   -2.0917 H   0  0  0  0  0  0  0  0  0  0  0  0
    1.9830   -0.1621   -1.2552 H   0  0  0  0  0  0  0  0  0  0  0  0
   -0.1831   -0.0217    2.0912 H   0  0  0  0  0  0  0  0  0  0  0  0
    0.6276   -2.8614    0.3193 H   0  0  0  0  0  0  0  0  0  0  0  0
  1  2  1  0  0  0  0
  1 11  1  0  0  0  0
  2  3  1  6  0  0  0
  2 12  1  0  0  0  0
  2  6  1  0  0  0  0
  3  4  1  6  0  0  0
  4  7  1  1  0  0  0
  4  5  1  0  0  0  0
  5  6  1  0  0  0  0
  6  7  1  6  0  0  0
  6 15  1  0  0  0  0
  7  3  1  6  0  0  0
  8  7  1  0  0  0  0
  8 16  1  0  0  0  0
  9  1  1  0  0  0  0
 10  1  1  0  0  0  0
 13  3  1  0  0  0  0
 14  4  1  0  0  0  0
M  END
