16
title
C -1.0706291 2.3050597 0.058854185
C -1.0475036 0.7847848 0.07155714
C -0.35487586 0.0031222552 -1.0491594
C 1.134476 -0.1006961 -0.58713
O 1.2540569 0.60523164 0.64353454
C -0.04048646 0.06189333 1.0152627
C 0.11283934 -1.0750685 -0.10286324
O -0.084046245 -2.4251719 -0.16438659
H -0.056360487 2.7017055 -0.027439568
H -1.6619328 2.680004 -0.78350705
H -1.5165776 2.699383 0.97897315
H -2.045798 0.364856 0.23500936
H -0.6298569 -0.096956864 -2.0917282
H 1.9829907 -0.16205259 -1.255211
H -0.18309146 -0.021682993 2.091245
H 0.62757444 -2.861382 0.3193103
