18
title
C -1.0721228 2.2930646 0.07168813
C -1.0478652 0.7725455 0.058218572
C -0.34068695 0.0074490574 -1.0656323
C 1.1215775 -0.11847147 -0.5897944
O 1.2486415 0.5847211 0.64632756
C -0.050599366 0.02722862 0.99390095
C 0.10735437 -1.0981632 -0.10822461
C -0.020883113 -2.5853615 -0.118034504
H -0.05540946 2.6894636 0.019086385
H -1.6411911 2.6833808 -0.77907413
H -1.5419272 2.6718695 0.98663276
H -2.0489802 0.35143584 0.20394607
H -0.62360984 -0.08506629 -2.10764
H 1.984771 -0.20945737 -1.2366306
H -0.20174119 -0.07939109 2.0670915
H -1.0441217 -2.904823 0.111023545
H 0.23368475 -2.9851754 -1.1056135
H 0.64887154 -3.051614 0.61328274
