title
 OpenBabel02282110003D

 18 20  0  0  1  0  0  0  0  0999 V2000
   -0.0987    2.5247   -0.1485 C   0  0  0  0  0  0  0  0  0  0  0  0
   -0.0219    1.0261   -0.1830 C   0  0  1  0  0  0  0  0  0  0  0  0
    0.7964    0.1974   -1.1782 C   0  0  0  0  0  0  0  0  0  0  0  0
   -0.1796   -1.0000   -0.9413 C   0  0  1  0  0  0  0  0  0  0  0  0
    0.3435   -1.8752    0.1959 C   0  0  0  0  0  0  0  0  0  0  0  0
    0.4960   -0.9682    1.2968 O   0  0  0  0  0  0  0  0  0  0  0  0
   -0.3259    0.1471    1.0185 C   0  0  2  0  0  0  0  0  0  0  0  0
   -1.1475   -0.0263   -0.2114 C   0  0  1  0  0  0  0  0  0  0  0  0
    0.8607    2.9621    0.1532 H   0  0  0  0  0  0  0  0  0  0  0  0
   -0.3563    2.9345   -1.1324 H   0  0  0  0  0  0  0  0  0  0  0  0
   -0.8572    2.8694    0.5627 H   0  0  0  0  0  0  0  0  0  0  0  0
    0.7053    0.5969   -2.1923 H   0  0  0  0  0  0  0  0  0  0  0  0
    1.8554    0.0288   -0.9499 H   0  0  0  0  0  0  0  0  0  0  0  0
   -0.5313   -1.5416   -1.8184 H   0  0  0  0  0  0  0  0  0  0  0  0
   -0.3670   -2.6755    0.4551 H   0  0  0  0  0  0  0  0  0  0  0  0
    1.3198   -2.3243   -0.0156 H   0  0  0  0  0  0  0  0  0  0  0  0
   -0.7269    0.6176    1.9091 H   0  0  0  0  0  0  0  0  0  0  0  0
   -2.2230    0.0581   -0.3016 H   0  0  0  0  0  0  0  0  0  0  0  0
  1  9  1  0  0  0  0
  1 11  1  0  0  0  0
  2  8  1  6  0  0  0
  2  1  1  0  0  0  0
  2  7  1  0  0  0  0
  3 13  1  0  0  0  0
  3  4  1  0  0  0  0
  3  2  1  0  0  0  0
  4  8  1  1  0  0  0
  4  5  1  0  0  0  0
  5 15  1  0  0  0  0
  5  6  1  0  0  0  0
  7  8  1  6  0  0  0
  7  6  1  0  0  0  0
  7 17  1  0  0  0  0
  8 18  1  6  0  0  0
 10  1  1  0  0  0  0
 12  3  1  0  0  0  0
 14  4  1  0  0  0  0
 16  5  1  0  0  0  0
M  END
