14
title
O -0.0769352 2.3177607 -0.16523726
C 0.015369553 0.9445305 -0.17596667
C 0.71534103 0.093562484 -1.2175359
N -0.249637 -1.0593481 -0.87374026
C 0.43290925 -1.7259983 0.22244276
N 0.4656559 -1.1165713 1.3382365
C -0.28863758 0.10285258 1.0978793
C -1.1118641 -0.0467304 -0.14142744
H 0.639822 2.672335 0.37250912
H 0.50841826 0.4380215 -2.2322345
H 1.7786822 -0.14850372 -1.1083385
H 0.9423315 -2.6637578 0.026395937
H -0.64426035 0.6628892 1.9532677
H -2.1830337 0.015803041 -0.2863123
