title
 OpenBabel02282110003D

 16 18  0  0  1  0  0  0  0  0999 V2000
   -0.0482    2.2846   -0.3053 O   0  0  0  0  0  0  0  0  0  0  0  0
    0.0520    0.9043   -0.2561 C   0  0  1  0  0  0  0  0  0  0  0  0
    0.6142    0.0563   -1.4680 C   0  0  0  0  0  0  0  0  0  0  0  0
   -0.1868   -1.0428   -0.7649 C   0  0  1  0  0  0  0  0  0  0  0  0
    0.4710   -1.7986    0.1371 C   0  0  0  0  0  0  0  0  0  0  0  0
    0.2843   -1.2170    1.5365 C   0  0  0  0  0  0  0  0  0  0  0  0
   -0.2506    0.1712    1.1385 C   0  0  2  0  0  0  0  0  0  0  0  0
   -1.1034   -0.0150   -0.0701 C   0  0  1  0  0  0  0  0  0  0  0  0
    0.7967    2.6573   -0.0303 H   0  0  0  0  0  0  0  0  0  0  0  0
    0.1899    0.4772   -2.3869 H   0  0  0  0  0  0  0  0  0  0  0  0
    1.6909   -0.1043   -1.5807 H   0  0  0  0  0  0  0  0  0  0  0  0
    1.3776   -2.3437   -0.1111 H   0  0  0  0  0  0  0  0  0  0  0  0
   -0.4160   -1.7288    2.2134 H   0  0  0  0  0  0  0  0  0  0  0  0
    1.2583   -1.2033    2.0420 H   0  0  0  0  0  0  0  0  0  0  0  0
   -0.5464    0.8923    1.8980 H   0  0  0  0  0  0  0  0  0  0  0  0
   -2.1644    0.1426   -0.2135 H   0  0  0  0  0  0  0  0  0  0  0  0
  1  2  1  0  0  0  0
  1  9  1  0  0  0  0
  2  8  1  6  0  0  0
  3  4  1  0  0  0  0
  3  2  1  0  0  0  0
  4  8  1  1  0  0  0
  4  5  1  0  0  0  0
  5  6  1  0  0  0  0
  6 14  1  0  0  0  0
  6 13  1  0  0  0  0
  7  2  1  6  0  0  0
  7  6  1  0  0  0  0
  7 15  1  0  0  0  0
  8  7  1  1  0  0  0
 10  3  1  0  0  0  0
 11  3  1  0  0  0  0
 12  5  1  0  0  0  0
 16  8  1  0  0  0  0
M  RAD  2   4   2   5   2
M  END
