18
title
C -0.086774305 2.4634027 -0.17824732
C -0.107931636 0.97249305 -0.112788826
O 0.7583571 0.25594056 -1.0056623
C -0.1551197 -0.89230645 -0.9440846
C 0.4375621 -1.900563 0.03396175
C 0.54062563 -1.0791445 1.3516384
C -0.3805855 0.120267324 1.1166766
C -1.1907022 -0.062862284 -0.15851118
H 0.8948574 2.8486302 0.11980178
H -0.29499206 2.8115406 -1.1949531
H -0.83677876 2.886363 0.49656123
H -0.40520477 -1.257369 -1.9417791
H -0.23904602 -2.75613 0.1465611
H 1.4057008 -2.275273 -0.30989626
H 0.21547118 -1.6601863 2.2193942
H 1.5702813 -0.760273 1.5382767
H -0.8474568 0.62335104 1.956851
H -2.2638998 -0.010326629 -0.2791732
