20
title
C -0.087234356 2.5246234 -0.105731
C -0.017076772 1.0246851 -0.14454535
C 0.79886395 0.2120611 -1.1556915
C -0.19576424 -0.9776331 -0.9566215
C 0.32960662 -1.9618424 0.09752658
C 0.5250576 -1.0761148 1.359823
C -0.32751513 0.16160834 1.0732974
C -1.1356791 -0.007986786 -0.18687285
H 0.85646033 2.960348 0.2455269
H -0.29157668 2.9387171 -1.1004038
H -0.8795715 2.8694272 0.5674687
H 0.7173538 0.6437021 -2.1579802
H 1.8584954 0.02440351 -0.9402816
H -0.56933576 -1.4424311 -1.869269
H -0.4174737 -2.7406654 0.28951842
H 1.2524104 -2.4599478 -0.21826525
H 0.18744814 -1.5847837 2.2680945
H 1.578351 -0.81759655 1.5156442
H -0.77693385 0.69760287 1.903055
H -2.2079844 0.10992938 -0.2789086
