title
 OpenBabel02282110003D

 20 22  0  0  1  0  0  0  0  0999 V2000
   -0.0872    2.5246   -0.1057 C   0  0  0  0  0  0  0  0  0  0  0  0
   -0.0171    1.0247   -0.1445 C   0  0  1  0  0  0  0  0  0  0  0  0
    0.7989    0.2121   -1.1557 C   0  0  0  0  0  0  0  0  0  0  0  0
   -0.1958   -0.9776   -0.9566 C   0  0  1  0  0  0  0  0  0  0  0  0
    0.3296   -1.9618    0.0975 C   0  0  0  0  0  0  0  0  0  0  0  0
    0.5251   -1.0761    1.3598 C   0  0  0  0  0  0  0  0  0  0  0  0
   -0.3275    0.1616    1.0733 C   0  0  2  0  0  0  0  0  0  0  0  0
   -1.1357   -0.0080   -0.1869 C   0  0  1  0  0  0  0  0  0  0  0  0
    0.8565    2.9603    0.2455 H   0  0  0  0  0  0  0  0  0  0  0  0
   -0.2916    2.9387   -1.1004 H   0  0  0  0  0  0  0  0  0  0  0  0
   -0.8796    2.8694    0.5675 H   0  0  0  0  0  0  0  0  0  0  0  0
    0.7174    0.6437   -2.1580 H   0  0  0  0  0  0  0  0  0  0  0  0
    1.8585    0.0244   -0.9403 H   0  0  0  0  0  0  0  0  0  0  0  0
   -0.5693   -1.4424   -1.8693 H   0  0  0  0  0  0  0  0  0  0  0  0
   -0.4175   -2.7407    0.2895 H   0  0  0  0  0  0  0  0  0  0  0  0
    1.2524   -2.4599   -0.2183 H   0  0  0  0  0  0  0  0  0  0  0  0
    0.1874   -1.5848    2.2681 H   0  0  0  0  0  0  0  0  0  0  0  0
    1.5784   -0.8176    1.5156 H   0  0  0  0  0  0  0  0  0  0  0  0
   -0.7769    0.6976    1.9031 H   0  0  0  0  0  0  0  0  0  0  0  0
   -2.2080    0.1099   -0.2789 H   0  0  0  0  0  0  0  0  0  0  0  0
  1  9  1  0  0  0  0
  1 11  1  0  0  0  0
  2  8  1  6  0  0  0
  2  1  1  0  0  0  0
  2  7  1  0  0  0  0
  3  4  1  0  0  0  0
  3 13  1  0  0  0  0
  3  2  1  0  0  0  0
  4  8  1  1  0  0  0
  4  5  1  0  0  0  0
  5 15  1  0  0  0  0
  5  6  1  0  0  0  0
  6 18  1  0  0  0  0
  6 17  1  0  0  0  0
  7  8  1  6  0  0  0
  7  6  1  0  0  0  0
  7 19  1  0  0  0  0
  8 20  1  6  0  0  0
 10  1  1  0  0  0  0
 12  3  1  0  0  0  0
 14  4  1  0  0  0  0
 16  5  1  0  0  0  0
M  END
