title
 OpenBabel02282110003D

 14 16  0  0  1  0  0  0  0  0999 V2000
   -0.0769    2.3178   -0.1652 O   0  0  0  0  0  0  0  0  0  0  0  0
    0.0154    0.9445   -0.1760 C   0  0  1  0  0  0  0  0  0  0  0  0
    0.7153    0.0936   -1.2175 C   0  0  0  0  0  0  0  0  0  0  0  0
   -0.2496   -1.0593   -0.8737 N   0  0  1  0  0  0  0  0  0  0  0  0
    0.4329   -1.7260    0.2224 C   0  0  0  0  0  0  0  0  0  0  0  0
    0.4657   -1.1166    1.3382 N   0  0  0  0  0  0  0  0  0  0  0  0
   -0.2886    0.1029    1.0979 C   0  0  2  0  0  0  0  0  0  0  0  0
   -1.1119   -0.0467   -0.1414 C   0  0  1  0  0  0  0  0  0  0  0  0
    0.6398    2.6723    0.3725 H   0  0  0  0  0  0  0  0  0  0  0  0
    0.5084    0.4380   -2.2322 H   0  0  0  0  0  0  0  0  0  0  0  0
    1.7787   -0.1485   -1.1083 H   0  0  0  0  0  0  0  0  0  0  0  0
    0.9423   -2.6638    0.0264 H   0  0  0  0  0  0  0  0  0  0  0  0
   -0.6443    0.6629    1.9533 H   0  0  0  0  0  0  0  0  0  0  0  0
   -2.1830    0.0158   -0.2863 H   0  0  0  0  0  0  0  0  0  0  0  0
  1  9  1  0  0  0  0
  2  1  1  0  0  0  0
  2  8  1  6  0  0  0
  3 11  1  0  0  0  0
  3  4  1  0  0  0  0
  3  2  1  0  0  0  0
  4  8  1  1  0  0  0
  4  5  1  0  0  0  0
  5  6  1  0  0  0  0
  7  2  1  6  0  0  0
  7  6  1  0  0  0  0
  7 13  1  0  0  0  0
  8  7  1  1  0  0  0
 10  3  1  0  0  0  0
 12  5  1  0  0  0  0
 14  8  1  0  0  0  0
M  RAD  2   5   2   6   2
M  END
