18
title
C -0.100836664 2.5465112 -0.11327511
C -0.02198568 1.0476747 -0.14915068
C 0.79872686 0.2274812 -1.1535071
C -0.17278197 -0.96815354 -0.892455
O 0.3340115 -1.856461 0.09276657
C 0.48834765 -1.0884678 1.2923089
C -0.3257868 0.18083169 1.0677453
C -1.1403964 0.008655868 -0.1823801
H 0.844164 2.9862938 0.2279307
H -0.31514114 2.955112 -1.1076707
H -0.88870424 2.889429 0.5658808
H 0.68665045 0.6254855 -2.1671548
H 1.8605446 0.045737945 -0.95283335
H -0.5078271 -1.5536208 -1.747234
H 0.1047294 -1.6752238 2.1354299
H 1.5518652 -0.88210267 1.4769028
H -0.7660595 0.68473816 1.9206723
H -2.2151363 0.10036638 -0.26677385
