title
 OpenBabel02282110003D

 16 18  0  0  1  0  0  0  0  0999 V2000
    0.2277    1.9620    0.4914 O   0  0  0  0  0  0  0  0  0  0  0  0
    0.3090    0.5881    0.4560 C   0  0  1  0  0  0  0  0  0  0  0  0
    1.0087   -0.3605    1.4607 C   0  0  0  0  0  0  0  0  0  0  0  0
    0.3124   -1.2796    0.4332 C   0  0  1  0  0  0  0  0  0  0  0  0
   -0.9538   -0.3428    0.4207 C   0  0  2  0  0  0  0  0  0  0  0  0
   -1.4813   -0.3388   -1.0017 C   0  0  0  0  0  0  0  0  0  0  0  0
   -0.3788   -0.3474   -1.7566 C   0  0  0  0  0  0  0  0  0  0  0  0
    0.7558   -0.3525   -0.7537 C   0  0  1  0  0  0  0  0  0  0  0  0
    1.1130    2.3201    0.6183 H   0  0  0  0  0  0  0  0  0  0  0  0
    2.1033   -0.3637    1.4589 H   0  0  0  0  0  0  0  0  0  0  0  0
    0.6133   -0.3707    2.4804 H   0  0  0  0  0  0  0  0  0  0  0  0
    0.2984   -2.3689    0.4163 H   0  0  0  0  0  0  0  0  0  0  0  0
   -1.6356   -0.3485    1.2719 H   0  0  0  0  0  0  0  0  0  0  0  0
   -2.5203   -0.3210   -1.2981 H   0  0  0  0  0  0  0  0  0  0  0  0
   -0.2824   -0.3314   -2.8330 H   0  0  0  0  0  0  0  0  0  0  0  0
    1.7964   -0.3606   -1.0818 H   0  0  0  0  0  0  0  0  0  0  0  0
  1  9  1  0  0  0  0
  2  8  1  6  0  0  0
  2  1  1  0  0  0  0
  2  3  1  0  0  0  0
  3 11  1  0  0  0  0
  4 12  1  1  0  0  0
  4  3  1  0  0  0  0
  5  4  1  1  0  0  0
  5  2  1  0  0  0  0
  5 13  1  0  0  0  0
  6  5  1  0  0  0  0
  7  6  2  0  0  0  0
  7  8  1  0  0  0  0
  8  4  1  1  0  0  0
 10  3  1  0  0  0  0
 14  6  1  0  0  0  0
 15  7  1  0  0  0  0
 16  8  1  0  0  0  0
M  END
