18
title
C 0.22827715 2.1161406 -0.5003319
C 0.24163534 0.61278987 -0.50440836
C 0.7833339 -0.34073526 -1.5991939
C 0.25123045 -1.2792919 -0.49478695
C 0.8534351 -0.33742952 0.6084314
C -0.12002947 -0.3359276 1.7740308
C -1.3208351 -0.34508085 1.1877741
C -1.0004394 -0.35144448 -0.29666513
H 1.244554 2.5195115 -0.57081866
H -0.34576902 2.507482 -1.3475728
H -0.22535567 2.4940476 0.42259207
H 0.24673587 -0.3470239 -2.5532708
H 1.8656504 -0.334804 -1.7628865
H 0.25131917 -2.3723648 -0.47804764
H 1.930483 -0.33135015 0.7854013
H 0.1341477 -0.32380092 2.824694
H -2.305698 -0.34238863 1.633514
H -1.8023953 -0.35956818 -1.0370624
