title
 OpenBabel02282110003D

 16 18  0  0  1  0  0  0  0  0999 V2000
   -0.1408    2.3884   -0.1672 O   0  0  0  0  0  0  0  0  0  0  0  0
   -0.0045    1.0136   -0.1614 C   0  0  1  0  0  0  0  0  0  0  0  0
    0.8226    0.1979   -1.1575 C   0  0  0  0  0  0  0  0  0  0  0  0
   -0.1667   -0.9855   -0.8804 C   0  0  1  0  0  0  0  0  0  0  0  0
    0.3228   -1.8697    0.1168 O   0  0  0  0  0  0  0  0  0  0  0  0
    0.4598   -1.1043    1.3196 C   0  0  0  0  0  0  0  0  0  0  0  0
   -0.3271    0.1769    1.0735 C   0  0  2  0  0  0  0  0  0  0  0  0
   -1.1334    0.0079   -0.1907 C   0  0  1  0  0  0  0  0  0  0  0  0
    0.5967    2.7700    0.3219 H   0  0  0  0  0  0  0  0  0  0  0  0
    0.7034    0.5947   -2.1696 H   0  0  0  0  0  0  0  0  0  0  0  0
    1.8823    0.0089   -0.9543 H   0  0  0  0  0  0  0  0  0  0  0  0
   -0.5023   -1.5737   -1.7324 H   0  0  0  0  0  0  0  0  0  0  0  0
    0.0459   -1.6837    2.1536 H   0  0  0  0  0  0  0  0  0  0  0  0
    1.5223   -0.9171    1.5292 H   0  0  0  0  0  0  0  0  0  0  0  0
   -0.7698    0.7162    1.9025 H   0  0  0  0  0  0  0  0  0  0  0  0
   -2.2043    0.1158   -0.2896 H   0  0  0  0  0  0  0  0  0  0  0  0
  1  2  1  0  0  0  0
  1  9  1  0  0  0  0
  2  8  1  6  0  0  0
  2  7  1  0  0  0  0
  3 11  1  0  0  0  0
  3  4  1  0  0  0  0
  3  2  1  0  0  0  0
  4  8  1  1  0  0  0
  4  5  1  0  0  0  0
  5  6  1  0  0  0  0
  6 14  1  0  0  0  0
  6 13  1  0  0  0  0
  7  8  1  6  0  0  0
  7  6  1  0  0  0  0
  7 15  1  0  0  0  0
  8 16  1  6  0  0  0
 10  3  1  0  0  0  0
 12  4  1  0  0  0  0
M  END
