title
 OpenBabel02282110003D

 16 18  0  0  1  0  0  0  0  0999 V2000
    0.2642    2.1042   -0.5609 C   0  0  0  0  0  0  0  0  0  0  0  0
    0.2122    0.6164   -0.4297 C   0  0  1  0  0  0  0  0  0  0  0  0
    0.7706   -0.2108   -1.5136 O   0  0  0  0  0  0  0  0  0  0  0  0
    0.2790   -1.1752   -0.5269 C   0  0  1  0  0  0  0  0  0  0  0  0
    0.8381   -0.3342    0.6682 C   0  0  2  0  0  0  0  0  0  0  0  0
   -0.1598   -0.4335    1.8015 C   0  0  0  0  0  0  0  0  0  0  0  0
   -1.3533   -0.4451    1.1955 C   0  0  0  0  0  0  0  0  0  0  0  0
   -1.0287   -0.3524   -0.2796 C   0  0  1  0  0  0  0  0  0  0  0  0
    1.3005    2.4451   -0.6472 H   0  0  0  0  0  0  0  0  0  0  0  0
   -0.2826    2.4297   -1.4511 H   0  0  0  0  0  0  0  0  0  0  0  0
   -0.1876    2.5710    0.3199 H   0  0  0  0  0  0  0  0  0  0  0  0
    0.4011   -2.2385   -0.7470 H   0  0  0  0  0  0  0  0  0  0  0  0
    1.9126   -0.3051    0.8434 H   0  0  0  0  0  0  0  0  0  0  0  0
    0.0702   -0.4771    2.8570 H   0  0  0  0  0  0  0  0  0  0  0  0
   -2.3404   -0.5006    1.6330 H   0  0  0  0  0  0  0  0  0  0  0  0
   -1.8045   -0.3414   -1.0439 H   0  0  0  0  0  0  0  0  0  0  0  0
  1  2  1  0  0  0  0
  1 11  1  0  0  0  0
  2  8  1  1  0  0  0
  2  5  1  0  0  0  0
  3  4  1  0  0  0  0
  3  2  1  0  0  0  0
  4 12  1  6  0  0  0
  5  4  1  6  0  0  0
  5 13  1  0  0  0  0
  5  6  1  0  0  0  0
  6 14  1  0  0  0  0
  7 15  1  0  0  0  0
  7  6  2  0  0  0  0
  8  4  1  6  0  0  0
  8  7  1  0  0  0  0
  9  1  1  0  0  0  0
 10  1  1  0  0  0  0
 16  8  1  0  0  0  0
M  END
