15
title
O 0.23774585 2.0039577 0.49613115
C 0.31197605 0.62777907 0.4470898
C 0.98705083 -0.36873794 1.3998855
N 0.2961678 -1.2948711 0.40362477
C -0.922662 -0.3197202 0.42419288
C -1.4832356 -0.3678761 -0.9768198
C -0.38856116 -0.37965262 -1.7415621
C 0.73401177 -0.33417958 -0.73608834
H 1.1225605 2.3596745 0.6347854
H 2.0782137 -0.44793546 1.3831224
H 0.5984378 -0.45277596 2.4185145
H -1.573436 -0.40682667 1.2945511
H -2.5273774 -0.4046921 -1.2503583
H -0.28977618 -0.4215963 -2.816409
H 1.7752064 -0.4270835 -1.0476701
