title
 OpenBabel02282110003D

 18 20  0  0  1  0  0  0  0  0999 V2000
   -0.1261    2.3699   -0.1560 O   0  0  0  0  0  0  0  0  0  0  0  0
   -0.0029    0.9905   -0.1552 C   0  0  1  0  0  0  0  0  0  0  0  0
    0.8205    0.1864   -1.1592 C   0  0  0  0  0  0  0  0  0  0  0  0
   -0.1892   -0.9950   -0.9464 C   0  0  1  0  0  0  0  0  0  0  0  0
    0.3186   -1.9771    0.1192 C   0  0  0  0  0  0  0  0  0  0  0  0
    0.4997   -1.0919    1.3846 C   0  0  0  0  0  0  0  0  0  0  0  0
   -0.3285    0.1563    1.0780 C   0  0  2  0  0  0  0  0  0  0  0  0
   -1.1305   -0.0111   -0.1954 C   0  0  1  0  0  0  0  0  0  0  0  0
    0.5804    2.7371    0.3866 H   0  0  0  0  0  0  0  0  0  0  0  0
    0.7290    0.6178   -2.1594 H   0  0  0  0  0  0  0  0  0  0  0  0
    1.8790   -0.0050   -0.9432 H   0  0  0  0  0  0  0  0  0  0  0  0
   -0.5614   -1.4614   -1.8583 H   0  0  0  0  0  0  0  0  0  0  0  0
   -0.4334   -2.7531    0.3015 H   0  0  0  0  0  0  0  0  0  0  0  0
    1.2435   -2.4795   -0.1824 H   0  0  0  0  0  0  0  0  0  0  0  0
    0.1364   -1.5945    2.2863 H   0  0  0  0  0  0  0  0  0  0  0  0
    1.5538   -0.8499    1.5612 H   0  0  0  0  0  0  0  0  0  0  0  0
   -0.7802    0.7251    1.8838 H   0  0  0  0  0  0  0  0  0  0  0  0
   -2.1990    0.1203   -0.2977 H   0  0  0  0  0  0  0  0  0  0  0  0
  1  2  1  0  0  0  0
  1  9  1  0  0  0  0
  2  8  1  6  0  0  0
  2  7  1  0  0  0  0
  3  4  1  0  0  0  0
  3 11  1  0  0  0  0
  3  2  1  0  0  0  0
  4  8  1  1  0  0  0
  4  5  1  0  0  0  0
  5 13  1  0  0  0  0
  5  6  1  0  0  0  0
  6 16  1  0  0  0  0
  6 15  1  0  0  0  0
  7  8  1  6  0  0  0
  7  6  1  0  0  0  0
  7 17  1  0  0  0  0
  8 18  1  6  0  0  0
 10  3  1  0  0  0  0
 12  4  1  0  0  0  0
 14  5  1  0  0  0  0
M  END
