title
 OpenBabel02282110003D

 17 19  0  0  1  0  0  0  0  0999 V2000
   -0.1729    2.3698   -0.1378 O   0  0  0  0  0  0  0  0  0  0  0  0
   -0.0103    0.9980   -0.1262 C   0  0  1  0  0  0  0  0  0  0  0  0
    0.7953    0.1798   -1.1251 C   0  0  0  0  0  0  0  0  0  0  0  0
   -0.1921   -0.9547   -0.9565 N   0  0  1  0  0  0  0  0  0  0  0  0
    0.3224   -1.9095    0.0474 C   0  0  0  0  0  0  0  0  0  0  0  0
    0.5300   -1.1014    1.3659 C   0  0  0  0  0  0  0  0  0  0  0  0
   -0.3202    0.1365    1.1031 C   0  0  2  0  0  0  0  0  0  0  0  0
   -1.0894   -0.0420   -0.1858 C   0  0  1  0  0  0  0  0  0  0  0  0
    0.5120    2.7618    0.4152 H   0  0  0  0  0  0  0  0  0  0  0  0
    0.7378    0.5861   -2.1391 H   0  0  0  0  0  0  0  0  0  0  0  0
    1.8375   -0.0709   -0.8909 H   0  0  0  0  0  0  0  0  0  0  0  0
   -0.4325   -2.6895    0.1922 H   0  0  0  0  0  0  0  0  0  0  0  0
    1.2340   -2.3875   -0.3217 H   0  0  0  0  0  0  0  0  0  0  0  0
    0.1809   -1.6496    2.2466 H   0  0  0  0  0  0  0  0  0  0  0  0
    1.5845   -0.8576    1.5348 H   0  0  0  0  0  0  0  0  0  0  0  0
   -0.7969    0.6748    1.9150 H   0  0  0  0  0  0  0  0  0  0  0  0
   -2.1599    0.0013   -0.3369 H   0  0  0  0  0  0  0  0  0  0  0  0
  1  2  1  0  0  0  0
  1  9  1  0  0  0  0
  2  8  1  6  0  0  0
  2  7  1  0  0  0  0
  3  4  1  0  0  0  0
  3 11  1  0  0  0  0
  3  2  1  0  0  0  0
  4  8  1  1  0  0  0
  4  5  1  0  0  0  0
  5 12  1  0  0  0  0
  5  6  1  0  0  0  0
  6 15  1  0  0  0  0
  6 14  1  0  0  0  0
  7  8  1  6  0  0  0
  7  6  1  0  0  0  0
  7 16  1  0  0  0  0
  8 17  1  6  0  0  0
 10  3  1  0  0  0  0
 13  5  1  0  0  0  0
M  END
