title
 OpenBabel02282110003D

 16 18  0  0  1  0  0  0  0  0999 V2000
   -0.1351    2.3680   -0.2066 O   0  0  0  0  0  0  0  0  0  0  0  0
   -0.0037    0.9922   -0.1942 C   0  0  1  0  0  0  0  0  0  0  0  0
    0.8179    0.1667   -1.1831 C   0  0  0  0  0  0  0  0  0  0  0  0
   -0.1757   -1.0175   -0.9272 C   0  0  1  0  0  0  0  0  0  0  0  0
    0.3304   -1.8896    0.2212 C   0  0  0  0  0  0  0  0  0  0  0  0
    0.4716   -0.9818    1.3235 O   0  0  0  0  0  0  0  0  0  0  0  0
   -0.3267    0.1441    1.0255 C   0  0  2  0  0  0  0  0  0  0  0  0
   -1.1413   -0.0264   -0.2162 C   0  0  1  0  0  0  0  0  0  0  0  0
    0.5708    2.7447    0.3309 H   0  0  0  0  0  0  0  0  0  0  0  0
    0.7158    0.5642   -2.1958 H   0  0  0  0  0  0  0  0  0  0  0  0
    1.8760   -0.0092   -0.9577 H   0  0  0  0  0  0  0  0  0  0  0  0
   -0.5319   -1.5615   -1.8006 H   0  0  0  0  0  0  0  0  0  0  0  0
   -0.3864   -2.6860    0.4725 H   0  0  0  0  0  0  0  0  0  0  0  0
    1.3073   -2.3433    0.0236 H   0  0  0  0  0  0  0  0  0  0  0  0
   -0.7309    0.6454    1.8973 H   0  0  0  0  0  0  0  0  0  0  0  0
   -2.2133    0.0737   -0.3174 H   0  0  0  0  0  0  0  0  0  0  0  0
  1  2  1  0  0  0  0
  1  9  1  0  0  0  0
  2  8  1  6  0  0  0
  2  7  1  0  0  0  0
  3 11  1  0  0  0  0
  3  4  1  0  0  0  0
  3  2  1  0  0  0  0
  4  8  1  1  0  0  0
  4  5  1  0  0  0  0
  5 13  1  0  0  0  0
  5  6  1  0  0  0  0
  7  8  1  6  0  0  0
  7  6  1  0  0  0  0
  7 15  1  0  0  0  0
  8 16  1  6  0  0  0
 10  3  1  0  0  0  0
 12  4  1  0  0  0  0
 14  5  1  0  0  0  0
M  END
