16
title
C 0.26423818 2.1041942 -0.560855
C 0.21218497 0.61642784 -0.42974412
O 0.77058065 -0.21081232 -1.5136279
C 0.27899393 -1.1752113 -0.5269069
C 0.838123 -0.3342197 0.66824424
C -0.15984847 -0.43350172 1.8014933
C -1.3532835 -0.4451487 1.1955423
C -1.0287383 -0.35242987 -0.27962884
H 1.300481 2.4451447 -0.64722353
H -0.28255913 2.4296784 -1.4511238
H -0.18758602 2.5709698 0.3198985
H 0.40110293 -2.2385013 -0.74697685
H 1.9125545 -0.30513418 0.8434104
H 0.07024682 -0.47711456 2.8570018
H -2.3404474 -0.5006397 1.6330043
H -1.8044722 -0.34139264 -1.0438585
