title
 OpenBabel02282110003D

 16 18  0  0  1  0  0  0  0  0999 V2000
   -0.0883    2.4648   -0.2221 C   0  0  0  0  0  0  0  0  0  0  0  0
   -0.1041    0.9756   -0.1521 C   0  0  1  0  0  0  0  0  0  0  0  0
    0.7495    0.2486   -1.0459 O   0  0  0  0  0  0  0  0  0  0  0  0
   -0.1368   -0.9084   -0.9326 C   0  0  1  0  0  0  0  0  0  0  0  0
    0.4643   -1.8112    0.1342 C   0  0  0  0  0  0  0  0  0  0  0  0
    0.4779   -0.9903    1.3103 O   0  0  0  0  0  0  0  0  0  0  0  0
   -0.3774    0.1014    1.0655 C   0  0  2  0  0  0  0  0  0  0  0  0
   -1.1980   -0.0744   -0.1813 C   0  0  1  0  0  0  0  0  0  0  0  0
    0.9083    2.8468    0.0247 H   0  0  0  0  0  0  0  0  0  0  0  0
   -0.3510    2.8136   -1.2260 H   0  0  0  0  0  0  0  0  0  0  0  0
   -0.8017    2.8882    0.4911 H   0  0  0  0  0  0  0  0  0  0  0  0
   -0.3653   -1.3608   -1.8981 H   0  0  0  0  0  0  0  0  0  0  0  0
   -0.1407   -2.7166    0.2983 H   0  0  0  0  0  0  0  0  0  0  0  0
    1.4921   -2.0983   -0.1063 H   0  0  0  0  0  0  0  0  0  0  0  0
   -0.7890    0.5430    1.9654 H   0  0  0  0  0  0  0  0  0  0  0  0
   -2.2723   -0.0543   -0.3063 H   0  0  0  0  0  0  0  0  0  0  0  0
  1  2  1  0  0  0  0
  1  9  1  0  0  0  0
  1 11  1  0  0  0  0
  2  8  1  6  0  0  0
  2  7  1  0  0  0  0
  3  4  1  0  0  0  0
  3  2  1  0  0  0  0
  4  8  1  1  0  0  0
  4  5  1  0  0  0  0
  5 13  1  0  0  0  0
  5  6  1  0  0  0  0
  7  8  1  6  0  0  0
  7  6  1  0  0  0  0
  7 15  1  0  0  0  0
  8 16  1  6  0  0  0
 10  1  1  0  0  0  0
 12  4  1  0  0  0  0
 14  5  1  0  0  0  0
M  END
