18
title
C -0.00052782736 2.4338527 0.015579291
C 0.035940636 0.9330952 -0.05607947
C 0.2030858 0.15848425 -1.3626237
C 0.06820046 -1.244722 -0.7328736
C 1.1543032 -1.2235175 0.36731103
C 0.6444068 0.04448941 1.0400887
C -0.84546506 0.023727026 0.7713155
O -1.1522462 -1.136859 0.020756437
H 0.95058644 2.8757741 -0.3042162
H -0.78957474 2.8436067 -0.62573427
H -0.19330221 2.7781196 1.037364
H -0.59694916 0.36692122 -2.0796702
H 1.172915 0.31548885 -1.8447907
H 0.018756017 -2.107226 -1.3941123
H 1.1002443 -2.103552 1.0144306
H 2.1648483 -1.1330773 -0.04117005
H 1.0694753 0.45529526 1.9463917
H -1.621603 0.3428968 1.453052
