18
title
O 0.20628421 1.9574527 0.5106232
C 0.30405024 0.5760058 0.49851403
C 0.95480597 -0.37170407 1.5365626
C 0.30625123 -1.2835629 0.46615696
C -0.94405884 -0.34522495 0.43105018
C -1.5132552 -0.31133237 -0.98736596
C -0.18915977 -0.30474302 -1.8067905
C 0.82543683 -0.34163263 -0.664492
H 1.0950651 2.3272042 0.474811
H 2.0483062 -0.3784773 1.5887587
H 0.5088906 -0.3882564 2.5350256
H 0.29863584 -2.3717096 0.4438031
H -1.6308346 -0.3544694 1.2796996
H -2.1387727 -1.1834143 -1.2020279
H -2.1193647 0.5824766 -1.1617227
H -0.098590024 -1.1685191 -2.4729362
H -0.08065868 0.59627306 -2.418549
H 1.892749 -0.34439376 -0.89949656
