title
 OpenBabel02282110003D

 18 20  0  0  1  0  0  0  0  0999 V2000
    0.2739    2.1312   -0.5159 C   0  0  0  0  0  0  0  0  0  0  0  0
    0.2907    0.6270   -0.5251 C   0  0  1  0  0  0  0  0  0  0  0  0
    0.8473   -0.3339   -1.6048 C   0  0  0  0  0  0  0  0  0  0  0  0
    0.2981   -1.2785   -0.5139 C   0  0  1  0  0  0  0  0  0  0  0  0
    0.8759   -0.3272    0.5858 C   0  0  2  0  0  0  0  0  0  0  0  0
   -0.1259   -0.3233    1.7323 C   0  0  0  0  0  0  0  0  0  0  0  0
   -1.3675   -0.3223    1.0039 O   0  0  0  0  0  0  0  0  0  0  0  0
   -0.9248   -0.3367   -0.3413 C   0  0  1  0  0  0  0  0  0  0  0  0
    1.2894    2.5429   -0.5137 H   0  0  0  0  0  0  0  0  0  0  0  0
   -0.2438    2.5236   -1.3981 H   0  0  0  0  0  0  0  0  0  0  0  0
   -0.2468    2.5097    0.3704 H   0  0  0  0  0  0  0  0  0  0  0  0
    0.3332   -0.3407   -2.5714 H   0  0  0  0  0  0  0  0  0  0  0  0
    1.9319   -0.3313   -1.7429 H   0  0  0  0  0  0  0  0  0  0  0  0
    0.2987   -2.3686   -0.4973 H   0  0  0  0  0  0  0  0  0  0  0  0
    1.9445   -0.3220    0.8051 H   0  0  0  0  0  0  0  0  0  0  0  0
   -0.0648   -1.2136    2.3709 H   0  0  0  0  0  0  0  0  0  0  0  0
   -0.0615    0.5690    2.3680 H   0  0  0  0  0  0  0  0  0  0  0  0
   -1.7700   -0.3438   -1.0295 H   0  0  0  0  0  0  0  0  0  0  0  0
  1  9  1  0  0  0  0
  1 11  1  0  0  0  0
  2  1  1  0  0  0  0
  2  8  1  1  0  0  0
  3  2  1  0  0  0  0
  3  4  1  0  0  0  0
  4 14  1  0  0  0  0
  4  8  1  1  0  0  0
  4  5  1  0  0  0  0
  5  2  1  6  0  0  0
  5 15  1  0  0  0  0
  5  6  1  0  0  0  0
  6 17  1  0  0  0  0
  6 16  1  0  0  0  0
  7  6  1  0  0  0  0
  8 18  1  6  0  0  0
  8  7  1  0  0  0  0
 10  1  1  0  0  0  0
 12  3  1  0  0  0  0
 13  3  1  0  0  0  0
M  END
