18
title
C 0.2739367 2.131241 -0.51589257
C 0.29068315 0.62702966 -0.5251235
C 0.84726715 -0.33392948 -1.6047924
C 0.2981052 -1.278485 -0.51392317
C 0.87593025 -0.32717615 0.5857905
C -0.12585345 -0.3233109 1.7323323
O -1.3674866 -0.32229197 1.0038635
C -0.92479444 -0.3367352 -0.34127018
H 1.2893586 2.5428503 -0.5137133
H -0.24375701 2.523643 -1.3981197
H -0.24676955 2.509663 0.37040782
H 0.33320346 -0.34073508 -2.571403
H 1.9319373 -0.33127946 -1.7428952
H 0.2987328 -2.3685644 -0.49733818
H 1.9445019 -0.32195526 0.80509746
H -0.06479659 -1.2136003 2.3709085
H -0.061489902 0.5690087 2.368003
H -1.769974 -0.34383434 -1.0294918
