title
 OpenBabel02282110003D

 17 19  0  0  1  0  0  0  0  0999 V2000
    0.2239    2.0052    0.5260 O   0  0  0  0  0  0  0  0  0  0  0  0
    0.3078    0.6211    0.4894 C   0  0  1  0  0  0  0  0  0  0  0  0
    0.9334   -0.3804    1.4735 C   0  0  0  0  0  0  0  0  0  0  0  0
    0.2873   -1.2928    0.4312 N   0  0  1  0  0  0  0  0  0  0  0  0
   -0.9146   -0.3159    0.4323 C   0  0  2  0  0  0  0  0  0  0  0  0
   -1.5155   -0.3489   -0.9651 C   0  0  0  0  0  0  0  0  0  0  0  0
   -0.2013   -0.3491   -1.7952 C   0  0  0  0  0  0  0  0  0  0  0  0
    0.8012   -0.3205   -0.6514 C   0  0  1  0  0  0  0  0  0  0  0  0
    1.1154    2.3701    0.4981 H   0  0  0  0  0  0  0  0  0  0  0  0
    2.0236   -0.4678    1.5112 H   0  0  0  0  0  0  0  0  0  0  0  0
    0.4930   -0.4733    2.4700 H   0  0  0  0  0  0  0  0  0  0  0  0
   -1.5718   -0.4061    1.2989 H   0  0  0  0  0  0  0  0  0  0  0  0
   -2.1166   -1.2480   -1.1240 H   0  0  0  0  0  0  0  0  0  0  0  0
   -2.1457    0.5238   -1.1561 H   0  0  0  0  0  0  0  0  0  0  0  0
   -0.0894   -1.2442   -2.4128 H   0  0  0  0  0  0  0  0  0  0  0  0
   -0.1024    0.5271   -2.4423 H   0  0  0  0  0  0  0  0  0  0  0  0
    1.8673   -0.4104   -0.8713 H   0  0  0  0  0  0  0  0  0  0  0  0
  2  8  1  6  0  0  0
  2  1  1  0  0  0  0
  2  3  1  0  0  0  0
  3 10  1  0  0  0  0
  3 11  1  0  0  0  0
  4  3  1  1  0  0  0
  5  4  1  1  0  0  0
  5  2  1  0  0  0  0
  5 12  1  0  0  0  0
  6  5  1  0  0  0  0
  7  6  1  0  0  0  0
  7  8  1  0  0  0  0
  8  4  1  1  0  0  0
  9  1  1  0  0  0  0
 13  6  1  0  0  0  0
 14  6  1  0  0  0  0
 15  7  1  0  0  0  0
 16  7  1  0  0  0  0
 17  8  1  0  0  0  0
M  END
