title
 OpenBabel02282110003D

 18 20  0  0  1  0  0  0  0  0999 V2000
    0.2063    1.9575    0.5106 O   0  0  0  0  0  0  0  0  0  0  0  0
    0.3041    0.5760    0.4985 C   0  0  1  0  0  0  0  0  0  0  0  0
    0.9548   -0.3717    1.5366 C   0  0  0  0  0  0  0  0  0  0  0  0
    0.3063   -1.2836    0.4662 C   0  0  1  0  0  0  0  0  0  0  0  0
   -0.9441   -0.3452    0.4311 C   0  0  2  0  0  0  0  0  0  0  0  0
   -1.5133   -0.3113   -0.9874 C   0  0  0  0  0  0  0  0  0  0  0  0
   -0.1892   -0.3047   -1.8068 C   0  0  0  0  0  0  0  0  0  0  0  0
    0.8254   -0.3416   -0.6645 C   0  0  1  0  0  0  0  0  0  0  0  0
    1.0951    2.3272    0.4748 H   0  0  0  0  0  0  0  0  0  0  0  0
    2.0483   -0.3785    1.5888 H   0  0  0  0  0  0  0  0  0  0  0  0
    0.5089   -0.3883    2.5350 H   0  0  0  0  0  0  0  0  0  0  0  0
    0.2986   -2.3717    0.4438 H   0  0  0  0  0  0  0  0  0  0  0  0
   -1.6308   -0.3545    1.2797 H   0  0  0  0  0  0  0  0  0  0  0  0
   -2.1388   -1.1834   -1.2020 H   0  0  0  0  0  0  0  0  0  0  0  0
   -2.1194    0.5825   -1.1617 H   0  0  0  0  0  0  0  0  0  0  0  0
   -0.0986   -1.1685   -2.4729 H   0  0  0  0  0  0  0  0  0  0  0  0
   -0.0807    0.5963   -2.4185 H   0  0  0  0  0  0  0  0  0  0  0  0
    1.8927   -0.3444   -0.8995 H   0  0  0  0  0  0  0  0  0  0  0  0
  2  8  1  6  0  0  0
  2  1  1  0  0  0  0
  2  3  1  0  0  0  0
  3 10  1  0  0  0  0
  3 11  1  0  0  0  0
  4 12  1  6  0  0  0
  4  3  1  0  0  0  0
  5  4  1  1  0  0  0
  5  2  1  0  0  0  0
  5 13  1  0  0  0  0
  6  5  1  0  0  0  0
  7  6  1  0  0  0  0
  7  8  1  0  0  0  0
  8  4  1  1  0  0  0
  9  1  1  0  0  0  0
 14  6  1  0  0  0  0
 15  6  1  0  0  0  0
 16  7  1  0  0  0  0
 17  7  1  0  0  0  0
 18  8  1  0  0  0  0
M  END
