title
 OpenBabel02282110003D

 16 18  0  0  1  0  0  0  0  0999 V2000
    0.3211    2.1223   -0.5762 C   0  0  0  0  0  0  0  0  0  0  0  0
    0.2612    0.6342   -0.4506 C   0  0  1  0  0  0  0  0  0  0  0  0
    0.8231   -0.2014   -1.5250 O   0  0  0  0  0  0  0  0  0  0  0  0
    0.3348   -1.1717   -0.5449 C   0  0  1  0  0  0  0  0  0  0  0  0
    0.8611   -0.3167    0.6456 C   0  0  2  0  0  0  0  0  0  0  0  0
   -0.1652   -0.4168    1.7607 C   0  0  0  0  0  0  0  0  0  0  0  0
   -1.4030   -0.4208    1.0093 O   0  0  0  0  0  0  0  0  0  0  0  0
   -0.9566   -0.3380   -0.3198 C   0  0  1  0  0  0  0  0  0  0  0  0
    1.3578    2.4719   -0.6034 H   0  0  0  0  0  0  0  0  0  0  0  0
   -0.1787    2.4485   -1.4934 H   0  0  0  0  0  0  0  0  0  0  0  0
   -0.1825    2.5913    0.2751 H   0  0  0  0  0  0  0  0  0  0  0  0
    0.4716   -2.2317   -0.7546 H   0  0  0  0  0  0  0  0  0  0  0  0
    1.9262   -0.2861    0.8685 H   0  0  0  0  0  0  0  0  0  0  0  0
   -0.0875   -1.3391    2.3486 H   0  0  0  0  0  0  0  0  0  0  0  0
   -0.1518    0.4385    2.4469 H   0  0  0  0  0  0  0  0  0  0  0  0
   -1.7746   -0.3347   -1.0371 H   0  0  0  0  0  0  0  0  0  0  0  0
  1  2  1  0  0  0  0
  1 11  1  0  0  0  0
  2  8  1  6  0  0  0
  2  5  1  0  0  0  0
  3  4  1  0  0  0  0
  3  2  1  0  0  0  0
  4  8  1  1  0  0  0
  5  4  1  6  0  0  0
  5 13  1  0  0  0  0
  5  6  1  0  0  0  0
  6 14  1  0  0  0  0
  6 15  1  0  0  0  0
  7  6  1  0  0  0  0
  8 16  1  6  0  0  0
  8  7  1  0  0  0  0
  9  1  1  0  0  0  0
 10  1  1  0  0  0  0
 12  4  1  0  0  0  0
M  END
