16
title
C -0.04919578 2.4493349 -0.0008422
C -0.0057882173 0.9498651 -0.07648446
C 0.2339189 0.15693791 -1.3581368
C 0.14061032 -1.2181882 -0.6647972
O 1.1006094 -1.1209413 0.3826431
C 0.59151 0.046773683 1.0019813
C -0.89728075 0.016776396 0.7420596
O -1.1204268 -1.1657223 -0.0050816587
H 0.8983536 2.8920832 -0.3278343
H -0.8464881 2.8569365 -0.6324944
H -0.23491745 2.7898479 1.023533
H -0.5496714 0.2949258 -2.1068025
H 1.2187176 0.33057433 -1.7981094
H 0.25733468 -2.1402833 -1.2269366
H 1.0993614 0.35532725 1.9039805
H -1.6922798 0.29908246 1.416597
