19
title
C -0.14308605 2.3874688 -0.002974069
C 0.006870926 0.8940974 -0.055912923
C 0.21099102 0.13675727 -1.369415
C 0.14720613 -1.2846744 -0.77357054
C 1.1951514 -1.1974466 0.35794374
C 0.6213249 0.053003736 1.0145161
N -0.85815096 0.06378514 0.82911134
C -1.1480126 -1.1657767 0.0513187
H 0.7534782 2.8861363 -0.38836476
H -0.9959654 2.7179234 -0.606949
H -0.30990073 2.724186 1.0234855
H -0.5830068 0.33331054 -2.0982656
H 1.1749401 0.3656342 -1.836045
H 0.2315324 -2.12162 -1.4650797
H 1.1883677 -2.071374 1.0174109
H 2.2148771 -1.0472406 -0.01138624
H 1.0012971 0.45857164 1.9450209
H -2.0445645 -1.0197065 -0.55911165
H -1.3165928 -2.00821 0.7296078
