title
 OpenBabel02282110003D

 18 20  0  0  1  0  0  0  0  0999 V2000
   -0.0396    2.3601   -0.0376 C   0  0  0  0  0  0  0  0  0  0  0  0
   -0.0200    0.8666    0.0211 C   0  0  1  0  0  0  0  0  0  0  0  0
    0.1883    0.2196   -1.2291 O   0  0  0  0  0  0  0  0  0  0  0  0
    0.1477   -1.1507   -0.8019 C   0  0  1  0  0  0  0  0  0  0  0  0
    1.1918   -1.1838    0.3368 C   0  0  0  0  0  0  0  0  0  0  0  0
    0.6064    0.0018    1.0942 C   0  0  2  0  0  0  0  0  0  0  0  0
   -0.9113   -0.0275    0.8566 C   0  0  2  0  0  0  0  0  0  0  0  0
   -1.1923   -1.2297   -0.0365 C   0  0  0  0  0  0  0  0  0  0  0  0
    0.9099    2.7483   -0.4205 H   0  0  0  0  0  0  0  0  0  0  0  0
   -0.8413    2.7146   -0.6939 H   0  0  0  0  0  0  0  0  0  0  0  0
   -0.2033    2.7785    0.9594 H   0  0  0  0  0  0  0  0  0  0  0  0
    0.2939   -1.8108   -1.6543 H   0  0  0  0  0  0  0  0  0  0  0  0
    1.1753   -2.1221    0.8989 H   0  0  0  0  0  0  0  0  0  0  0  0
    2.2048   -0.9973   -0.0308 H   0  0  0  0  0  0  0  0  0  0  0  0
    1.0461    0.4155    1.9919 H   0  0  0  0  0  0  0  0  0  0  0  0
   -1.6194    0.3641    1.5746 H   0  0  0  0  0  0  0  0  0  0  0  0
   -2.0508   -1.0791   -0.6972 H   0  0  0  0  0  0  0  0  0  0  0  0
   -1.3132   -2.1700    0.5092 H   0  0  0  0  0  0  0  0  0  0  0  0
  1 11  1  0  0  0  0
  2  1  1  1  0  0  0
  3  4  1  0  0  0  0
  3  2  1  0  0  0  0
  4 12  1  6  0  0  0
  4  8  1  0  0  0  0
  4  5  1  0  0  0  0
  5 13  1  0  0  0  0
  5  6  1  0  0  0  0
  6  2  1  6  0  0  0
  6 15  1  0  0  0  0
  7  2  1  6  0  0  0
  7  6  1  0  0  0  0
  7 16  1  0  0  0  0
  8 18  1  0  0  0  0
  8  7  1  0  0  0  0
  9  1  1  0  0  0  0
 10  1  1  0  0  0  0
 14  5  1  0  0  0  0
 17  8  1  0  0  0  0
M  END
