18
title
C -0.16949491 2.2312164 -0.5834691
C -0.11025977 0.74314946 -0.47693124
C 0.44765514 -0.36146608 -1.3759086
C 1.2545315 -0.96852255 -0.23229714
C 0.2167173 -0.2822459 0.69989395
C 0.43942308 -0.01717707 2.1557584
O -1.0136516 -1.0208305 0.4107675
C -1.0060079 -0.380636 -0.862098
H 0.81174344 2.690479 -0.4157454
H -0.504408 2.5307705 -1.5826734
H -0.86969453 2.6599576 0.14259322
H 0.6938788 -0.3021638 -2.4289706
H 1.33033 -2.057769 -0.14796232
H 2.2422516 -0.506745 -0.14720295
H 1.3617164 0.55150443 2.3086016
H -0.39570022 0.5453714 2.5831473
H 0.5263642 -0.964442 2.6994994
H -1.8881073 -0.43481866 -1.4872969
