18
title
C -0.03964022 2.3601477 -0.03764776
C -0.020001924 0.8665862 0.021097891
O 0.18825896 0.21960734 -1.2291481
C 0.14772356 -1.1506891 -0.80186003
C 1.1917753 -1.1838114 0.33679137
C 0.60635096 0.0017651119 1.0942286
C -0.91125274 -0.027488848 0.8566456
C -1.1923164 -1.229677 -0.036535643
H 0.9099177 2.7483194 -0.4205198
H -0.8412841 2.7145987 -0.69389635
H -0.20334087 2.77853 0.9594088
H 0.2939124 -1.8107567 -1.6543257
H 1.1753014 -2.1221108 0.89886373
H 2.2047646 -0.997303 -0.0307935
H 1.046086 0.41550776 1.9918942
H -1.6194279 0.36411306 1.5746214
H -2.0507808 -1.0791268 -0.6971633
H -1.3131902 -2.1700027 0.50915277
