14
title
O -0.059496146 2.2969491 0.07309229
C 0.06767874 0.9214098 0.05857227
C 1.0777872 0.12109024 0.87714607
C 0.5203766 -1.2396756 0.4110601
O -0.86521924 -1.1567067 0.7358434
C -1.1600556 0.029035874 0.022090053
C -0.20394301 0.032285042 -1.1569709
O 0.5651313 -1.1482307 -1.0132889
H 0.675166 2.675567 -0.42335227
H 2.1144564 0.26981485 0.56540895
H 0.97005606 0.26883936 1.9532712
H 0.95558393 -2.1713665 0.7609805
H -2.1895118 0.3537997 0.029865582
H -0.41509935 0.34893572 -2.1675768
