title
 OpenBabel02282110003D

 18 20  0  0  1  0  0  0  0  0999 V2000
   -0.0762    2.2676    0.0510 O   0  0  0  0  0  0  0  0  0  0  0  0
    0.0391    0.8843    0.0339 C   0  0  1  0  0  0  0  0  0  0  0  0
    1.0835    0.1318    0.8552 C   0  0  0  0  0  0  0  0  0  0  0  0
    0.6162   -1.2942    0.4751 C   0  0  1  0  0  0  0  0  0  0  0  0
   -0.8957   -1.2273    0.8136 C   0  0  0  0  0  0  0  0  0  0  0  0
   -1.2041    0.0316    0.0115 C   0  0  2  0  0  0  0  0  0  0  0  0
   -0.2583    0.0324   -1.1903 C   0  0  2  0  0  0  0  0  0  0  0  0
    0.5999   -1.2223   -1.0741 C   0  0  0  0  0  0  0  0  0  0  0  0
    0.6697    2.6357   -0.4354 H   0  0  0  0  0  0  0  0  0  0  0  0
    2.1114    0.3406    0.5351 H   0  0  0  0  0  0  0  0  0  0  0  0
    1.0010    0.3394    1.9271 H   0  0  0  0  0  0  0  0  0  0  0  0
    1.1755   -2.1200    0.9140 H   0  0  0  0  0  0  0  0  0  0  0  0
   -1.4455   -2.1075    0.4634 H   0  0  0  0  0  0  0  0  0  0  0  0
   -1.0802   -1.1069    1.8864 H   0  0  0  0  0  0  0  0  0  0  0  0
   -2.1832    0.4876   -0.0461 H   0  0  0  0  0  0  0  0  0  0  0  0
   -0.5493    0.4833   -2.1301 H   0  0  0  0  0  0  0  0  0  0  0  0
    1.6025   -1.0987   -1.4985 H   0  0  0  0  0  0  0  0  0  0  0  0
    0.1397   -2.1055   -1.5307 H   0  0  0  0  0  0  0  0  0  0  0  0
  2  6  1  1  0  0  0
  2  1  1  0  0  0  0
  2  3  1  0  0  0  0
  3 11  1  0  0  0  0
  4  5  1  0  0  0  0
  4  3  1  0  0  0  0
  4 12  1  1  0  0  0
  5 14  1  0  0  0  0
  6  7  1  6  0  0  0
  6  5  1  0  0  0  0
  7  8  1  0  0  0  0
  7  2  1  1  0  0  0
  8  4  1  0  0  0  0
  9  1  1  0  0  0  0
 10  3  1  0  0  0  0
 13  5  1  0  0  0  0
 15  6  1  0  0  0  0
 16  7  1  0  0  0  0
 17  8  1  0  0  0  0
 18  8  1  0  0  0  0
M  END
