title
 OpenBabel02282110003D

 18 20  0  0  1  0  0  0  0  0999 V2000
   -0.1695    2.2312   -0.5835 C   0  0  0  0  0  0  0  0  0  0  0  0
   -0.1103    0.7431   -0.4769 C   0  0  1  0  0  0  0  0  0  0  0  0
    0.4477   -0.3615   -1.3759 C   0  0  1  0  0  0  0  0  0  0  0  0
    1.2545   -0.9685   -0.2323 C   0  0  0  0  0  0  0  0  0  0  0  0
    0.2167   -0.2822    0.6999 C   0  0  1  0  0  0  0  0  0  0  0  0
    0.4394   -0.0172    2.1558 C   0  0  0  0  0  0  0  0  0  0  0  0
   -1.0137   -1.0208    0.4108 O   0  0  0  0  0  0  0  0  0  0  0  0
   -1.0060   -0.3806   -0.8621 C   0  0  1  0  0  0  0  0  0  0  0  0
    0.8117    2.6905   -0.4157 H   0  0  0  0  0  0  0  0  0  0  0  0
   -0.5044    2.5308   -1.5827 H   0  0  0  0  0  0  0  0  0  0  0  0
   -0.8697    2.6600    0.1426 H   0  0  0  0  0  0  0  0  0  0  0  0
    0.6939   -0.3022   -2.4290 H   0  0  0  0  0  0  0  0  0  0  0  0
    1.3303   -2.0578   -0.1480 H   0  0  0  0  0  0  0  0  0  0  0  0
    2.2423   -0.5067   -0.1472 H   0  0  0  0  0  0  0  0  0  0  0  0
    1.3617    0.5515    2.3086 H   0  0  0  0  0  0  0  0  0  0  0  0
   -0.3957    0.5454    2.5831 H   0  0  0  0  0  0  0  0  0  0  0  0
    0.5264   -0.9644    2.6995 H   0  0  0  0  0  0  0  0  0  0  0  0
   -1.8881   -0.4348   -1.4873 H   0  0  0  0  0  0  0  0  0  0  0  0
  1  2  1  0  0  0  0
  1  9  1  0  0  0  0
  1 11  1  0  0  0  0
  2  3  1  6  0  0  0
  3  8  1  6  0  0  0
  3  4  1  0  0  0  0
  4 13  1  0  0  0  0
  4 14  1  0  0  0  0
  4  5  1  0  0  0  0
  5  2  1  6  0  0  0
  5  6  1  0  0  0  0
  6 15  1  0  0  0  0
  6 16  1  0  0  0  0
  6 17  1  0  0  0  0
  7  5  1  0  0  0  0
  8  2  1  1  0  0  0
  8  7  1  0  0  0  0
 10  1  1  0  0  0  0
 12  3  1  0  0  0  0
 18  8  1  0  0  0  0
M  END
