18
title
O -0.0761728 2.2675638 0.050954867
C 0.03908566 0.88433963 0.033921085
C 1.0834794 0.13184492 0.85524005
C 0.61618245 -1.2941861 0.47513285
C -0.89574385 -1.227268 0.8135654
C -1.2041103 0.031568274 0.011547464
C -0.25831586 0.03241287 -1.1903309
C 0.5999049 -1.2223327 -1.0740939
H 0.669665 2.635682 -0.43539837
H 2.1114054 0.3405603 0.5350568
H 1.0009634 0.33940008 1.9271467
H 1.1755482 -2.1199892 0.9139568
H -1.4455457 -2.1074524 0.4633762
H -1.0802478 -1.1068964 1.8863744
H -2.183219 0.48757532 -0.046071913
H -0.5492598 0.4833259 -2.1300611
H 1.6025258 -1.098686 -1.4984967
H 0.13974683 -2.1055057 -1.5307496
