title
 OpenBabel02282110003D

 16 18  0  0  1  0  0  0  0  0999 V2000
   -0.0492    2.4493   -0.0008 C   0  0  0  0  0  0  0  0  0  0  0  0
   -0.0058    0.9499   -0.0765 C   0  0  1  0  0  0  0  0  0  0  0  0
    0.2339    0.1569   -1.3581 C   0  0  0  0  0  0  0  0  0  0  0  0
    0.1406   -1.2182   -0.6648 C   0  0  1  0  0  0  0  0  0  0  0  0
    1.1006   -1.1209    0.3826 O   0  0  0  0  0  0  0  0  0  0  0  0
    0.5915    0.0468    1.0020 C   0  0  2  0  0  0  0  0  0  0  0  0
   -0.8973    0.0168    0.7421 C   0  0  2  0  0  0  0  0  0  0  0  0
   -1.1204   -1.1657   -0.0051 O   0  0  0  0  0  0  0  0  0  0  0  0
    0.8984    2.8921   -0.3278 H   0  0  0  0  0  0  0  0  0  0  0  0
   -0.8465    2.8569   -0.6325 H   0  0  0  0  0  0  0  0  0  0  0  0
   -0.2349    2.7898    1.0235 H   0  0  0  0  0  0  0  0  0  0  0  0
   -0.5497    0.2949   -2.1068 H   0  0  0  0  0  0  0  0  0  0  0  0
    1.2187    0.3306   -1.7981 H   0  0  0  0  0  0  0  0  0  0  0  0
    0.2573   -2.1403   -1.2269 H   0  0  0  0  0  0  0  0  0  0  0  0
    1.0994    0.3553    1.9040 H   0  0  0  0  0  0  0  0  0  0  0  0
   -1.6923    0.2991    1.4166 H   0  0  0  0  0  0  0  0  0  0  0  0
  1 11  1  0  0  0  0
  2  1  1  1  0  0  0
  3  4  1  0  0  0  0
  3  2  1  0  0  0  0
  4 14  1  6  0  0  0
  4  8  1  0  0  0  0
  4  5  1  0  0  0  0
  5  6  1  0  0  0  0
  6  2  1  6  0  0  0
  6 15  1  0  0  0  0
  7  2  1  6  0  0  0
  7  6  1  0  0  0  0
  7 16  1  0  0  0  0
  8  7  1  0  0  0  0
  9  1  1  0  0  0  0
 10  1  1  0  0  0  0
 12  3  1  0  0  0  0
 13  3  1  0  0  0  0
M  END
