16
title
O -0.49701217 2.0491478 -0.29567912
C -0.3502754 0.6902623 -0.32297608
C -0.3328189 -0.3582443 -1.40802
C 0.92185414 -1.024517 -0.8478678
C 0.5536451 -0.34211898 0.50338787
O 1.5197141 0.068786904 1.4071759
C -0.75895524 -1.0533692 0.9451192
C -1.3974981 -0.37313068 -0.2656774
H 0.29976922 2.4504056 -0.6615903
H -0.64661455 -0.26614273 -2.4394155
H 0.98574173 -2.1192136 -0.8565178
H 1.8336643 -0.59209096 -1.2696633
H 1.8821124 -0.70909274 1.846392
H -0.7499168 -2.14892 0.99724776
H -1.1357266 -0.6320882 1.8809727
H -2.447821 -0.27288663 -0.5044405
