title
 OpenBabel02282110003D

 18 20  0  0  1  0  0  0  0  0999 V2000
    0.4805    2.1883   -0.0644 C   0  0  0  0  0  0  0  0  0  0  0  0
    0.4992    0.6835   -0.0575 C   0  0  1  0  0  0  0  0  0  0  0  0
    0.9184   -0.1365   -1.3150 C   0  0  0  0  0  0  0  0  0  0  0  0
    0.0251   -1.2543   -0.7871 C   0  0  1  0  0  0  0  0  0  0  0  0
    0.1637   -1.2371    0.7669 C   0  0  1  0  0  0  0  0  0  0  0  0
    1.1415   -0.1195    1.1144 C   0  0  0  0  0  0  0  0  0  0  0  0
   -0.7690   -0.3014    0.0690 C   0  0  1  0  0  0  0  0  0  0  0  0
   -2.1078   -0.0966    0.2834 O   0  0  0  0  0  0  0  0  0  0  0  0
    1.4969    2.5932   -0.1452 H   0  0  0  0  0  0  0  0  0  0  0  0
   -0.0973    2.5798   -0.9096 H   0  0  0  0  0  0  0  0  0  0  0  0
    0.0368    2.5850    0.8551 H   0  0  0  0  0  0  0  0  0  0  0  0
    0.5203    0.2994   -2.2370 H   0  0  0  0  0  0  0  0  0  0  0  0
    1.9900   -0.3336   -1.4385 H   0  0  0  0  0  0  0  0  0  0  0  0
   -0.3148   -2.1516   -1.2885 H   0  0  0  0  0  0  0  0  0  0  0  0
   -0.0962   -2.1177    1.3400 H   0  0  0  0  0  0  0  0  0  0  0  0
    2.2182   -0.3168    1.0484 H   0  0  0  0  0  0  0  0  0  0  0  0
    0.9087    0.3270    2.0858 H   0  0  0  0  0  0  0  0  0  0  0  0
   -2.5137    0.1770   -0.5470 H   0  0  0  0  0  0  0  0  0  0  0  0
  1  2  1  0  0  0  0
  1 11  1  0  0  0  0
  2  7  1  1  0  0  0
  2  6  1  0  0  0  0
  3  4  1  0  0  0  0
  3  2  1  0  0  0  0
  4  7  1  6  0  0  0
  5  4  1  6  0  0  0
  5  6  1  0  0  0  0
  5 15  1  0  0  0  0
  6 17  1  0  0  0  0
  7  8  1  0  0  0  0
  7  5  1  1  0  0  0
  9  1  1  0  0  0  0
 10  1  1  0  0  0  0
 12  3  1  0  0  0  0
 13  3  1  0  0  0  0
 14  4  1  0  0  0  0
 16  6  1  0  0  0  0
 18  8  1  0  0  0  0
M  END
