18
title
O -0.08635094 2.2050836 0.00056166353
C 0.0009086733 0.8064478 -5.331999e-05
C 0.70853364 0.11712746 1.1985669
C 0.45322046 -1.31688 0.75695944
C -0.86937696 -1.3169327 0.0073734308
C -1.3802919 0.11780737 0.011590262
C 0.4404422 -1.3169756 -0.7643097
C 0.6882856 0.11696689 -1.210329
H 0.8083122 2.5607417 -0.006210801
H 1.7744899 0.36967775 1.2531623
H 0.23667938 0.3754214 2.1519034
H 0.7893813 -2.175681 1.3231434
H -1.528845 -2.1746156 0.012981907
H -1.956141 0.37518287 0.90618634
H -1.9710946 0.3751081 -0.8732248
H 0.76704115 -2.1758642 -1.3359323
H 0.20044108 0.37515292 -2.155612
H 1.7531579 0.36953202 -1.2829044
