title
 OpenBabel02282110003D

 16 18  0  0  1  0  0  0  0  0999 V2000
    0.6764    2.1181    0.0408 C   0  0  0  0  0  0  0  0  0  0  0  0
    0.4999    0.6365   -0.0627 C   0  0  1  0  0  0  0  0  0  0  0  0
    0.9109   -0.2114   -1.3000 C   0  0  0  0  0  0  0  0  0  0  0  0
   -0.0328   -1.2745   -0.7471 C   0  0  1  0  0  0  0  0  0  0  0  0
    0.1016   -1.1267    0.8018 C   0  0  1  0  0  0  0  0  0  0  0  0
    1.0713   -0.1178    1.0510 O   0  0  0  0  0  0  0  0  0  0  0  0
   -0.8345   -0.2602    0.0327 C   0  0  1  0  0  0  0  0  0  0  0  0
   -2.1797   -0.0134    0.0166 O   0  0  0  0  0  0  0  0  0  0  0  0
    1.7417    2.3744    0.0281 H   0  0  0  0  0  0  0  0  0  0  0  0
    0.1921    2.6210   -0.8014 H   0  0  0  0  0  0  0  0  0  0  0  0
    0.2465    2.5007    0.9713 H   0  0  0  0  0  0  0  0  0  0  0  0
    0.5302    0.2178   -2.2305 H   0  0  0  0  0  0  0  0  0  0  0  0
    1.9780   -0.4390   -1.3853 H   0  0  0  0  0  0  0  0  0  0  0  0
   -0.3798   -2.1946   -1.1991 H   0  0  0  0  0  0  0  0  0  0  0  0
   -0.0263   -1.9363    1.5078 H   0  0  0  0  0  0  0  0  0  0  0  0
   -2.4355    0.3474    0.8738 H   0  0  0  0  0  0  0  0  0  0  0  0
  1 11  1  0  0  0  0
  2  7  1  1  0  0  0
  2  1  1  0  0  0  0
  2  6  1  0  0  0  0
  3  4  1  0  0  0  0
  3  2  1  0  0  0  0
  4  7  1  6  0  0  0
  5  4  1  6  0  0  0
  5  6  1  0  0  0  0
  5 15  1  0  0  0  0
  7  5  1  1  0  0  0
  8  7  1  0  0  0  0
  8 16  1  0  0  0  0
  9  1  1  0  0  0  0
 10  1  1  0  0  0  0
 12  3  1  0  0  0  0
 13  3  1  0  0  0  0
 14  4  1  0  0  0  0
M  END
