title
 OpenBabel02282110003D

 16 18  0  0  1  0  0  0  0  0999 V2000
   -0.4970    2.0491   -0.2957 O   0  0  0  0  0  0  0  0  0  0  0  0
   -0.3503    0.6903   -0.3230 C   0  0  1  0  0  0  0  0  0  0  0  0
   -0.3328   -0.3582   -1.4080 C   0  0  1  0  0  0  0  0  0  0  0  0
    0.9219   -1.0245   -0.8479 C   0  0  0  0  0  0  0  0  0  0  0  0
    0.5536   -0.3421    0.5034 C   0  0  1  0  0  0  0  0  0  0  0  0
    1.5197    0.0688    1.4072 O   0  0  0  0  0  0  0  0  0  0  0  0
   -0.7590   -1.0534    0.9451 C   0  0  0  0  0  0  0  0  0  0  0  0
   -1.3975   -0.3731   -0.2657 C   0  0  1  0  0  0  0  0  0  0  0  0
    0.2998    2.4504   -0.6616 H   0  0  0  0  0  0  0  0  0  0  0  0
   -0.6466   -0.2661   -2.4394 H   0  0  0  0  0  0  0  0  0  0  0  0
    0.9857   -2.1192   -0.8565 H   0  0  0  0  0  0  0  0  0  0  0  0
    1.8337   -0.5921   -1.2697 H   0  0  0  0  0  0  0  0  0  0  0  0
    1.8821   -0.7091    1.8464 H   0  0  0  0  0  0  0  0  0  0  0  0
   -0.7499   -2.1489    0.9972 H   0  0  0  0  0  0  0  0  0  0  0  0
   -1.1357   -0.6321    1.8810 H   0  0  0  0  0  0  0  0  0  0  0  0
   -2.4478   -0.2729   -0.5044 H   0  0  0  0  0  0  0  0  0  0  0  0
  2  1  1  0  0  0  0
  2  8  1  1  0  0  0
  3  4  1  0  0  0  0
  3  2  1  1  0  0  0
  4  5  1  0  0  0  0
  5  2  1  6  0  0  0
  5  7  1  0  0  0  0
  5  6  1  0  0  0  0
  6 13  1  0  0  0  0
  7 14  1  0  0  0  0
  7 15  1  0  0  0  0
  8  3  1  6  0  0  0
  8  7  1  0  0  0  0
  9  1  1  0  0  0  0
 10  3  1  0  0  0  0
 11  4  1  0  0  0  0
 12  4  1  0  0  0  0
 16  8  1  0  0  0  0
M  END
