title
 OpenBabel02282110003D

 18 20  0  0  1  0  0  0  0  0999 V2000
   -0.0968    2.3018    0.0102 C   0  0  0  0  0  0  0  0  0  0  0  0
    0.0404    0.8010    0.0035 C   0  0  1  0  0  0  0  0  0  0  0  0
    0.7325    0.1150   -1.2040 C   0  0  0  0  0  0  0  0  0  0  0  0
    0.4261   -1.3121   -0.7730 C   0  0  1  0  0  0  0  0  0  0  0  0
    0.4271   -1.3189    0.7608 C   0  0  1  0  0  0  0  0  0  0  0  0
    0.7338    0.1043    1.2041 C   0  0  0  0  0  0  0  0  0  0  0  0
   -0.8687   -1.1869   -0.0047 C   0  0  1  0  0  0  0  0  0  0  0  0
   -1.2611    0.1704    0.0015 O   0  0  0  0  0  0  0  0  0  0  0  0
    0.8893    2.7759    0.0085 H   0  0  0  0  0  0  0  0  0  0  0  0
   -0.6450    2.6428   -0.8729 H   0  0  0  0  0  0  0  0  0  0  0  0
   -0.6387    2.6360    0.8997 H   0  0  0  0  0  0  0  0  0  0  0  0
    0.2561    0.3869   -2.1507 H   0  0  0  0  0  0  0  0  0  0  0  0
    1.8013    0.3419   -1.2561 H   0  0  0  0  0  0  0  0  0  0  0  0
    0.6789   -2.1843   -1.3605 H   0  0  0  0  0  0  0  0  0  0  0  0
    0.6807   -2.1962    1.3402 H   0  0  0  0  0  0  0  0  0  0  0  0
    1.8027    0.3308    1.2571 H   0  0  0  0  0  0  0  0  0  0  0  0
    0.2584    0.3678    2.1537 H   0  0  0  0  0  0  0  0  0  0  0  0
   -1.6828   -1.8975   -0.0073 H   0  0  0  0  0  0  0  0  0  0  0  0
  1 11  1  0  0  0  0
  2  1  1  1  0  0  0
  2  6  1  0  0  0  0
  3  4  1  0  0  0  0
  3  2  1  0  0  0  0
  4  7  1  6  0  0  0
  5  4  1  6  0  0  0
  5  6  1  0  0  0  0
  5 15  1  0  0  0  0
  6 16  1  0  0  0  0
  6 17  1  0  0  0  0
  7  8  1  0  0  0  0
  7  5  1  1  0  0  0
  8  2  1  0  0  0  0
  9  1  1  0  0  0  0
 10  1  1  0  0  0  0
 12  3  1  0  0  0  0
 13  3  1  0  0  0  0
 14  4  1  0  0  0  0
 18  7  1  0  0  0  0
M  END
