16
title
C 0.6763933 2.1180873 0.04077331
C 0.49992827 0.63649297 -0.06270153
C 0.9108626 -0.21142195 -1.3000072
C -0.03282714 -1.274462 -0.7471056
C 0.10161716 -1.1267405 0.80184114
O 1.0712891 -0.11776696 1.0509819
C -0.83451957 -0.26020905 0.032731943
O -2.179711 -0.013429983 0.016613504
H 1.7416776 2.3743687 0.028054984
H 0.19214255 2.6209955 -0.801421
H 0.24651647 2.5007422 0.97130674
H 0.53017205 0.21783899 -2.2304838
H 1.9780118 -0.43903938 -1.3853267
H -0.37978017 -2.1945612 -1.1991132
H -0.02633631 -1.9362819 1.5078315
H -2.4355252 0.3473641 0.8737701
