16
title
C -0.07521594 2.258006 0.062074408
C 0.009749385 0.7643077 -0.04232471
C 0.6945058 0.07350284 -1.2503933
C 0.43830585 -1.3363299 -0.74461526
C 0.4538512 -1.1828388 0.77337086
O 0.6885882 0.17707682 1.0743784
C -0.86354494 -1.2065809 0.040499043
O -1.2803571 0.14158452 -0.021338772
H 0.92823094 2.68926 0.07750257
H -0.6222234 2.6622217 -0.79263127
H -0.5957859 2.5361724 0.9810033
H 0.18638246 0.30034995 -2.1901126
H 1.7543125 0.32849824 -1.3176154
H 0.7399405 -2.2382665 -1.2576764
H 0.81949776 -1.8927002 1.5002344
H -1.6541442 -1.9372561 0.12415821
