title
 OpenBabel02282110003D

 17 19  0  0  1  0  0  0  0  0999 V2000
   -0.2687    2.1815   -0.4958 C   0  0  0  0  0  0  0  0  0  0  0  0
   -0.0818    0.7052   -0.4393 C   0  0  1  0  0  0  0  0  0  0  0  0
    0.5254   -0.3188   -1.3223 C   0  0  1  0  0  0  0  0  0  0  0  0
    1.2474   -1.0112   -0.1707 C   0  0  0  0  0  0  0  0  0  0  0  0
    0.1765   -0.3339    0.7310 C   0  0  1  0  0  0  0  0  0  0  0  0
    0.4313    0.0308    2.0428 O   0  0  0  0  0  0  0  0  0  0  0  0
   -1.1279   -1.0045    0.2626 C   0  0  0  0  0  0  0  0  0  0  0  0
   -0.9684   -0.3192   -1.0624 N   0  0  1  0  0  0  0  0  0  0  0  0
    0.6441    2.7064   -0.1949 H   0  0  0  0  0  0  0  0  0  0  0  0
   -0.5231    2.4872   -1.5153 H   0  0  0  0  0  0  0  0  0  0  0  0
   -1.0769    2.5056    0.1687 H   0  0  0  0  0  0  0  0  0  0  0  0
    0.8224   -0.2453   -2.3607 H   0  0  0  0  0  0  0  0  0  0  0  0
    1.3119   -2.1055   -0.1582 H   0  0  0  0  0  0  0  0  0  0  0  0
    2.2345   -0.5700   -0.0089 H   0  0  0  0  0  0  0  0  0  0  0  0
    0.7803   -0.7321    2.5168 H   0  0  0  0  0  0  0  0  0  0  0  0
   -1.1797   -2.0999    0.2268 H   0  0  0  0  0  0  0  0  0  0  0  0
   -2.0141   -0.6006    0.7584 H   0  0  0  0  0  0  0  0  0  0  0  0
  1  2  1  0  0  0  0
  1  9  1  0  0  0  0
  1 11  1  0  0  0  0
  2  3  1  6  0  0  0
  3  8  1  6  0  0  0
  3  4  1  0  0  0  0
  4 13  1  0  0  0  0
  4 14  1  0  0  0  0
  4  5  1  0  0  0  0
  5  2  1  6  0  0  0
  5  6  1  0  0  0  0
  6 15  1  0  0  0  0
  7  5  1  0  0  0  0
  7 17  1  0  0  0  0
  8  2  1  1  0  0  0
  8  7  1  0  0  0  0
 10  1  1  0  0  0  0
 12  3  1  0  0  0  0
 16  7  1  0  0  0  0
M  END
