title
 OpenBabel02282110003D

 17 20  0  0  1  0  0  0  0  0999 V2000
    0.1735    2.5952   -0.1516 C   0  0  0  0  0  0  0  0  0  0  0  0
    0.1488    1.1039   -0.1737 C   0  0  1  0  0  0  0  0  0  0  0  0
    1.1420    0.0829   -0.6685 C   0  0  1  0  0  0  0  0  0  0  0  0
    0.7780    0.0886    0.7959 C   0  0  2  0  0  0  0  0  0  0  0  0
   -0.3530   -0.9207    0.4482 C   0  0  1  0  0  0  0  0  0  0  0  0
   -0.8987   -2.1165    1.1490 C   0  0  0  0  0  0  0  0  0  0  0  0
   -0.9619    0.0630   -0.4890 C   0  0  2  0  0  0  0  0  0  0  0  0
    0.0524   -0.9317   -1.0056 N   0  0  1  0  0  0  0  0  0  0  0  0
    1.1709    2.9599    0.1174 H   0  0  0  0  0  0  0  0  0  0  0  0
   -0.0804    3.0156   -1.1318 H   0  0  0  0  0  0  0  0  0  0  0  0
   -0.5353    2.9996    0.5806 H   0  0  0  0  0  0  0  0  0  0  0  0
    2.0889    0.1700   -1.1880 H   0  0  0  0  0  0  0  0  0  0  0  0
    1.3729    0.2704    1.6806 H   0  0  0  0  0  0  0  0  0  0  0  0
   -1.4025   -1.8354    2.0807 H   0  0  0  0  0  0  0  0  0  0  0  0
   -1.6230   -2.6262    0.5059 H   0  0  0  0  0  0  0  0  0  0  0  0
   -0.1021   -2.8285    1.3923 H   0  0  0  0  0  0  0  0  0  0  0  0
   -1.9585    0.1405   -0.9109 H   0  0  0  0  0  0  0  0  0  0  0  0
  1  9  1  0  0  0  0
  1 11  1  0  0  0  0
  2  3  1  6  0  0  0
  2  1  1  0  0  0  0
  2  4  1  0  0  0  0
  3  8  1  6  0  0  0
  4  3  1  6  0  0  0
  4 13  1  0  0  0  0
  5  8  1  6  0  0  0
  5  4  1  0  0  0  0
  5  6  1  0  0  0  0
  6 16  1  0  0  0  0
  6 14  1  0  0  0  0
  7  8  1  6  0  0  0
  7  2  1  0  0  0  0
  7  5  1  0  0  0  0
 10  1  1  0  0  0  0
 12  3  1  0  0  0  0
 15  6  1  0  0  0  0
 17  7  1  0  0  0  0
M  END
