16
title
C -0.40418875 1.9744052 -0.058030568
C -0.2364911 0.45285133 -0.037985027
C -1.5195363 -0.19768661 -0.26070738
C -2.6191418 -0.6452121 -0.45093998
C 0.9855527 -0.24722725 -0.74040437
C 1.9522258 0.3005169 0.3352268
C 0.6842119 -0.25697607 1.0227793
O 0.76431376 -1.426489 0.12261141
H 0.5323724 2.51079 0.101973645
H -0.8192789 2.2897856 -1.0197787
H -1.1110774 2.2805758 0.71871996
H -3.5770512 -1.0722641 -0.6168683
H 1.1432308 -0.42308468 -1.8048759
H 2.8369634 -0.31809384 0.48299232
H 2.1747458 1.3664668 0.37921292
H 0.47970107 -0.4445417 2.0772402
