17
title
C 0.17345126 2.5952306 -0.15159154
C 0.14882807 1.1038619 -0.1736515
C 1.1419749 0.08294067 -0.66851515
C 0.7779715 0.08859745 0.7958644
C -0.35304704 -0.92070067 0.44820923
C -0.8986654 -2.1165137 1.1490085
C -0.9618541 0.06298998 -0.48903283
N 0.05235695 -0.93171763 -1.0055819
H 1.1709243 2.9598677 0.11744306
H -0.08038668 3.015648 -1.1318418
H -0.53531235 2.999568 0.5806242
H 2.088859 0.16999188 -1.1880444
H 1.3728809 0.27038243 1.6806033
H -1.4024886 -1.8354378 2.0806544
H -1.6230005 -2.6262498 0.5058516
H -0.10205658 -2.828535 1.392259
H -1.9584569 0.14047065 -0.91088474
