18
title
C -0.36611807 1.9400291 -0.049356528
C -0.20828785 0.41358006 -0.031779893
C -1.5235572 -0.18078892 -0.24880755
C -2.637003 -0.59919614 -0.4320367
C 1.0029548 -0.26401037 -0.79105574
C 1.9488292 0.27961293 0.318561
C 0.70084125 -0.27378762 1.0653362
C 0.79909325 -1.5081553 0.12201646
H 0.57305175 2.47274 0.10414861
H -0.7856812 2.2606204 -1.0078292
H -1.0652446 2.2518184 0.732645
H -3.6128337 -0.98573536 -0.5927144
H 1.1648557 -0.25257647 -1.8702668
H 2.8701656 -0.28871876 0.46548942
H 2.1499195 1.349092 0.35697582
H 0.51214457 -0.27367592 2.1402485
H -0.10759892 -2.0933504 -0.028628882
H 1.6763066 -2.1438694 0.2614308
