title
 OpenBabel02282110003D

 16 17  0  0  1  0  0  0  0  0999 V2000
   -0.4042    1.9744   -0.0580 C   0  0  0  0  0  0  0  0  0  0  0  0
   -0.2365    0.4529   -0.0380 C   0  0  1  0  0  0  0  0  0  0  0  0
   -1.5195   -0.1977   -0.2607 C   0  0  0  0  0  0  0  0  0  0  0  0
   -2.6191   -0.6452   -0.4509 C   0  0  0  0  0  0  0  0  0  0  0  0
    0.9856   -0.2472   -0.7404 C   0  0  1  0  0  0  0  0  0  0  0  0
    1.9522    0.3005    0.3352 C   0  0  0  0  0  0  0  0  0  0  0  0
    0.6842   -0.2570    1.0228 C   0  0  2  0  0  0  0  0  0  0  0  0
    0.7643   -1.4265    0.1226 O   0  0  0  0  0  0  0  0  0  0  0  0
    0.5324    2.5108    0.1020 H   0  0  0  0  0  0  0  0  0  0  0  0
   -0.8193    2.2898   -1.0198 H   0  0  0  0  0  0  0  0  0  0  0  0
   -1.1111    2.2806    0.7187 H   0  0  0  0  0  0  0  0  0  0  0  0
   -3.5771   -1.0723   -0.6169 H   0  0  0  0  0  0  0  0  0  0  0  0
    1.1432   -0.4231   -1.8049 H   0  0  0  0  0  0  0  0  0  0  0  0
    2.8370   -0.3181    0.4830 H   0  0  0  0  0  0  0  0  0  0  0  0
    2.1747    1.3665    0.3792 H   0  0  0  0  0  0  0  0  0  0  0  0
    0.4797   -0.4445    2.0772 H   0  0  0  0  0  0  0  0  0  0  0  0
  1  2  1  0  0  0  0
  1  9  1  0  0  0  0
  1 11  1  0  0  0  0
  2  3  1  6  0  0  0
  4  3  3  0  0  0  0
  5  2  1  1  0  0  0
  5  8  1  0  0  0  0
  5  6  1  0  0  0  0
  6 15  1  0  0  0  0
  6 14  1  0  0  0  0
  6  7  1  0  0  0  0
  7  2  1  6  0  0  0
  7 16  1  0  0  0  0
  8  7  1  0  0  0  0
 10  1  1  0  0  0  0
 12  4  1  0  0  0  0
 13  5  1  0  0  0  0
M  END
