17
title
O -0.10436744 2.216606 0.044635754
C -0.013934608 0.8211442 0.033682052
C 0.7195623 0.10493775 1.1980166
C 0.47493765 -1.3084459 0.6944011
C -0.8336736 -1.304081 -0.024163693
C -1.3829818 0.11297257 0.040176664
N 0.44112065 -1.3001723 -0.79809564
C 0.6460238 0.116076246 -1.1738493
H 0.7880389 2.577972 0.028407473
H 1.782115 0.36785224 1.2536303
H 0.25408775 0.30291933 2.168166
H 0.8959269 -2.18778 1.1669472
H -1.4642735 -2.178985 -0.12435023
H -1.9515768 0.31076425 0.953648
H -1.9939477 0.3881343 -0.8245164
H 0.1481218 0.33936965 -2.1219838
H 1.7161939 0.3305685 -1.2725819
