14
title
O 0.32327327 2.3829305 0.47539812
C 0.1800989 1.0311368 0.31648996
C 0.89228934 -0.06453193 1.073137
C -0.34631312 -0.9921057 0.93265444
C -1.085966 0.11419552 0.15916854
C -0.24772431 -0.8959888 -0.5867803
O -0.6789757 -1.7285357 -1.584885
C 1.0207764 0.021239394 -0.45840314
H 0.1994707 2.8064623 -0.38230935
H 1.6786261 -0.0021594816 1.8134514
H -0.7686207 -1.7540319 1.5749439
H -2.1497462 0.301643 0.103471056
H -0.14959846 -2.534441 -1.5587685
H 1.9124907 0.16233009 -1.0550706
