18
title
C 0.12845926 2.568644 -0.2342555
C 0.1468765 1.0762612 -0.2152262
C 0.3681909 0.07371186 -1.3415086
C 0.96974313 -0.9439626 -0.33043593
C 0.75223964 0.054280747 0.80225825
C -0.33730775 -0.9523668 0.45324513
C -0.9657722 -2.024072 1.2805202
C -0.943608 0.07022284 -0.56306565
H 1.1432172 2.9842906 -0.25172532
H -0.39576375 2.9363575 -1.1236393
H -0.38455135 2.9767413 0.6450839
H 0.5412462 0.25091118 -2.3952808
H 1.717816 -1.7202988 -0.42774612
H 1.3023624 0.17997424 1.7266424
H -1.7126889 -1.6142273 1.9712455
H -1.4647589 -2.7751374 0.65624803
H -0.20877591 -2.5416422 1.8806078
H -1.9539393 0.24388258 -0.91233593
