title
 OpenBabel02282110003D

 15 16  0  0  1  0  0  0  0  0999 V2000
    0.1315    1.8033   -0.2428 O   0  0  0  0  0  0  0  0  0  0  0  0
    0.1502    0.3963   -0.1596 C   0  0  1  0  0  0  0  0  0  0  0  0
    1.1074   -0.1742   -1.1016 C   0  0  0  0  0  0  0  0  0  0  0  0
    1.9391   -0.5749   -1.8736 C   0  0  0  0  0  0  0  0  0  0  0  0
    0.0474   -0.2992    1.2555 C   0  0  1  0  0  0  0  0  0  0  0  0
   -1.3714    0.3064    1.3918 C   0  0  0  0  0  0  0  0  0  0  0  0
   -1.2530   -0.2791   -0.0396 C   0  0  2  0  0  0  0  0  0  0  0  0
   -0.6141   -1.4954    0.6027 N   0  0  0  0  0  0  0  0  0  0  0  0
    1.0379    2.1089   -0.3531 H   0  0  0  0  0  0  0  0  0  0  0  0
    2.6611   -0.9406   -2.5619 H   0  0  0  0  0  0  0  0  0  0  0  0
    0.8289   -0.4076    2.0092 H   0  0  0  0  0  0  0  0  0  0  0  0
   -2.0369   -0.2497    2.0511 H   0  0  0  0  0  0  0  0  0  0  0  0
   -1.4510    1.3863    1.4877 H   0  0  0  0  0  0  0  0  0  0  0  0
   -2.0136   -0.3619   -0.8168 H   0  0  0  0  0  0  0  0  0  0  0  0
    0.0366   -1.9315   -0.0585 H   0  0  0  0  0  0  0  0  0  0  0  0
  1  2  1  0  0  0  0
  2  3  1  6  0  0  0
  4  3  3  0  0  0  0
  5  2  1  6  0  0  0
  5  6  1  0  0  0  0
  5 11  1  0  0  0  0
  6 13  1  0  0  0  0
  6 12  1  0  0  0  0
  7  2  1  6  0  0  0
  7  8  1  0  0  0  0
  7  6  1  0  0  0  0
  8  5  1  0  0  0  0
  9  1  1  0  0  0  0
 10  4  1  0  0  0  0
 14  7  1  0  0  0  0
 15  8  1  0  0  0  0
M  END
