title
 OpenBabel02282110003D

 15 16  0  0  1  0  0  0  0  0999 V2000
    0.1438    1.8894   -0.1874 N   0  0  0  0  0  0  0  0  0  0  0  0
    0.1338    0.4393   -0.1446 C   0  0  1  0  0  0  0  0  0  0  0  0
    1.0885   -0.1629   -1.0911 C   0  0  0  0  0  0  0  0  0  0  0  0
    1.8598   -0.5597   -1.8578 N   0  0  0  0  0  0  0  0  0  0  0  0
    0.0469   -0.2751    1.2539 C   0  0  1  0  0  0  0  0  0  0  0  0
   -1.3972    0.2650    1.3992 C   0  0  0  0  0  0  0  0  0  0  0  0
   -1.2476   -0.3043   -0.0332 C   0  0  2  0  0  0  0  0  0  0  0  0
   -0.5635   -1.4979    0.6007 N   0  0  0  0  0  0  0  0  0  0  0  0
    1.0728    2.2420    0.0259 H   0  0  0  0  0  0  0  0  0  0  0  0
   -0.0819    2.2161   -1.1229 H   0  0  0  0  0  0  0  0  0  0  0  0
    0.8393   -0.3475    1.9998 H   0  0  0  0  0  0  0  0  0  0  0  0
   -2.0334   -0.3296    2.0526 H   0  0  0  0  0  0  0  0  0  0  0  0
   -1.5217    1.3391    1.5001 H   0  0  0  0  0  0  0  0  0  0  0  0
   -1.9960   -0.4114   -0.8193 H   0  0  0  0  0  0  0  0  0  0  0  0
    0.1005   -1.9187   -0.0576 H   0  0  0  0  0  0  0  0  0  0  0  0
  1  2  1  0  0  0  0
  1  9  1  0  0  0  0
  2  3  1  6  0  0  0
  4  3  3  0  0  0  0
  5  2  1  6  0  0  0
  5  6  1  0  0  0  0
  5 11  1  0  0  0  0
  6 13  1  0  0  0  0
  6 12  1  0  0  0  0
  7  2  1  6  0  0  0
  7  8  1  0  0  0  0
  7  6  1  0  0  0  0
  8  5  1  0  0  0  0
 10  1  1  0  0  0  0
 14  7  1  0  0  0  0
 15  8  1  0  0  0  0
M  END
