15
title
N 0.14381592 1.88941 -0.18738799
C 0.13384263 0.43926343 -0.14455909
C 1.0885289 -0.16285548 -1.0911256
N 1.8597552 -0.5596936 -1.8578452
C 0.046938427 -0.2751265 1.2539445
C -1.397211 0.26502037 1.3992463
C -1.2476432 -0.30428562 -0.033214707
N -0.5635073 -1.4979348 0.6006775
H 1.0728053 2.2420335 0.02586226
H -0.081862606 2.2160645 -1.1229115
H 0.8393038 -0.34749332 1.9997582
H -2.0334382 -0.32958534 2.0526133
H -1.5217137 1.3391238 1.5001259
H -1.995962 -0.41135284 -0.81926215
H 0.10051981 -1.9186528 -0.057645474
