15
title
O 0.13151586 1.8032554 -0.24275246
C 0.15015243 0.3962737 -0.15963149
C 1.1073979 -0.17419402 -1.1015621
C 1.9390633 -0.57492995 -1.8735949
C 0.04735081 -0.299226 1.255494
C -1.3714122 0.30639875 1.3917912
C -1.2529817 -0.27914697 -0.03957248
N -0.6140752 -1.4954157 0.60274947
H 1.0378906 2.1089187 -0.35306343
H 2.6611025 -0.9405722 -2.5618873
H 0.82893234 -0.40760475 2.0091743
H -2.0369246 -0.24966328 2.0511177
H -1.4509579 1.3862563 1.487722
H -2.0135632 -0.36191988 -0.81680006
H 0.036581352 -1.9314749 -0.05853213
