15
title
C -0.39147693 1.9866127 -0.057333525
C -0.21322614 0.46855977 -0.03394018
C -1.4998823 -0.1926752 -0.25427958
N -2.5539324 -0.6313082 -0.43432832
C 0.98970795 -0.25247893 -0.74227476
C 1.9648026 0.28013182 0.33322003
C 0.6912763 -0.26032284 1.0240304
O 0.7445594 -1.4271231 0.119471714
H 0.5479063 2.5164573 0.10406233
H -0.8026178 2.302325 -1.0204159
H -1.0971553 2.29455 0.7194723
H 1.1368967 -0.42619208 -1.8077866
H 2.8414907 -0.349826 0.4785483
H 2.199879 1.3432578 0.37765297
H 0.4804977 -0.4434463 2.0772133
