title
 OpenBabel02282110003D

 14 15  0  0  1  0  0  0  0  0999 V2000
    0.1511    1.8957   -0.1962 N   0  0  0  0  0  0  0  0  0  0  0  0
    0.1426    0.4492   -0.1533 C   0  0  1  0  0  0  0  0  0  0  0  0
    1.0894   -0.1813   -1.0847 C   0  0  0  0  0  0  0  0  0  0  0  0
    1.8674   -0.5574   -1.8534 N   0  0  0  0  0  0  0  0  0  0  0  0
    0.0340   -0.2624    1.2381 C   0  0  1  0  0  0  0  0  0  0  0  0
   -1.4074    0.2702    1.4004 C   0  0  0  0  0  0  0  0  0  0  0  0
   -1.2314   -0.2925   -0.0278 C   0  0  2  0  0  0  0  0  0  0  0  0
   -0.5027   -1.4460    0.5370 O   0  0  0  0  0  0  0  0  0  0  0  0
    1.0818    2.2453    0.0153 H   0  0  0  0  0  0  0  0  0  0  0  0
   -0.0680    2.2179   -1.1350 H   0  0  0  0  0  0  0  0  0  0  0  0
    0.8236   -0.4210    1.9718 H   0  0  0  0  0  0  0  0  0  0  0  0
   -2.0369   -0.3427    2.0443 H   0  0  0  0  0  0  0  0  0  0  0  0
   -1.5502    1.3424    1.5176 H   0  0  0  0  0  0  0  0  0  0  0  0
   -1.9607   -0.4873   -0.8135 H   0  0  0  0  0  0  0  0  0  0  0  0
  1  2  1  0  0  0  0
  1  9  1  0  0  0  0
  2  3  1  6  0  0  0
  4  3  3  0  0  0  0
  5  2  1  6  0  0  0
  5  6  1  0  0  0  0
  5 11  1  0  0  0  0
  6 13  1  0  0  0  0
  6 12  1  0  0  0  0
  7  2  1  6  0  0  0
  7  8  1  0  0  0  0
  7  6  1  0  0  0  0
  8  5  1  0  0  0  0
 10  1  1  0  0  0  0
 14  7  1  0  0  0  0
M  END
