17
title
C -0.3528218 1.9529817 -0.04819207
C -0.18698403 0.42931068 -0.028225826
C -1.5073732 -0.16992308 -0.24293153
N -2.5694406 -0.59456474 -0.41536897
C 1.0047803 -0.26855156 -0.79328686
C 1.9587688 0.26306054 0.31590763
C 0.7059959 -0.2766367 1.0657458
C 0.7853169 -1.5107207 0.11957935
H 0.5898048 2.478858 0.10333001
H -0.7715002 2.2744174 -1.0065182
H -1.0477357 2.2672327 0.73626286
H 1.1594417 -0.25413725 -1.872594
H 2.8729255 -0.31620738 0.46029398
H 2.170856 1.3304267 0.35468987
H 0.5146402 -0.2715685 2.1392415
H -0.12727463 -2.0889397 -0.0296147
H 1.654194 -2.1569846 0.25641707
