title
 OpenBabel02282110003D

 16 17  0  0  1  0  0  0  0  0999 V2000
    0.1234    1.8605   -0.1634 N   0  0  0  0  0  0  0  0  0  0  0  0
    0.1230    0.4065   -0.1333 C   0  0  1  0  0  0  0  0  0  0  0  0
    1.0848   -0.1505   -1.0991 C   0  0  0  0  0  0  0  0  0  0  0  0
    1.8605   -0.5084   -1.8800 N   0  0  0  0  0  0  0  0  0  0  0  0
    0.0696   -0.2838    1.2764 C   0  0  1  0  0  0  0  0  0  0  0  0
   -1.3879    0.2497    1.4052 C   0  0  0  0  0  0  0  0  0  0  0  0
   -1.2713   -0.3108   -0.0432 C   0  0  2  0  0  0  0  0  0  0  0  0
   -0.5309   -1.5336    0.5708 C   0  0  0  0  0  0  0  0  0  0  0  0
    1.0545    2.2120    0.0429 H   0  0  0  0  0  0  0  0  0  0  0  0
   -0.1044    2.1887   -1.0980 H   0  0  0  0  0  0  0  0  0  0  0  0
    0.8656   -0.2563    2.0213 H   0  0  0  0  0  0  0  0  0  0  0  0
   -2.0358   -0.3185    2.0751 H   0  0  0  0  0  0  0  0  0  0  0  0
   -1.5127    1.3244    1.5100 H   0  0  0  0  0  0  0  0  0  0  0  0
   -2.0291   -0.3145   -0.8275 H   0  0  0  0  0  0  0  0  0  0  0  0
    0.1258   -2.1083   -0.0847 H   0  0  0  0  0  0  0  0  0  0  0  0
   -1.1386   -2.1840    1.2016 H   0  0  0  0  0  0  0  0  0  0  0  0
  1  2  1  0  0  0  0
  1  9  1  0  0  0  0
  2  7  1  6  0  0  0
  3  2  1  0  0  0  0
  4  3  3  0  0  0  0
  5  2  1  6  0  0  0
  5  6  1  0  0  0  0
  5 11  1  0  0  0  0
  6 13  1  0  0  0  0
  6 12  1  0  0  0  0
  7 14  1  6  0  0  0
  7  8  1  0  0  0  0
  7  6  1  0  0  0  0
  8 16  1  0  0  0  0
  8  5  1  0  0  0  0
 10  1  1  0  0  0  0
 15  8  1  0  0  0  0
M  END
