16
title
N 0.12341186 1.8605324 -0.1634026
C 0.12297716 0.4065464 -0.1332617
C 1.0847508 -0.15049662 -1.0991312
N 1.8604606 -0.50835454 -1.8800244
C 0.06955498 -0.28382203 1.2764256
C -1.3879485 0.24972875 1.4051546
C -1.271297 -0.31080654 -0.04320504
C -0.5308805 -1.5336462 0.5707753
H 1.054469 2.2120063 0.042903807
H -0.104360506 2.1887124 -1.0979503
H 0.8655516 -0.25626633 2.021342
H -2.035825 -0.31851295 2.0750706
H -1.5127199 1.3244152 1.5099525
H -2.0290537 -0.31452337 -0.82746226
H 0.12577847 -2.1082928 -0.08469097
H -1.1385882 -2.1840398 1.2015554
