title
 OpenBabel02282110003D

 14 15  0  0  1  0  0  0  0  0999 V2000
    0.1556    1.6828   -0.1271 O   0  0  0  0  0  0  0  0  0  0  0  0
    0.1075    0.3043   -0.1027 C   0  0  1  0  0  0  0  0  0  0  0  0
    1.0808   -0.2860   -1.0921 C   0  0  0  0  0  0  0  0  0  0  0  0
    1.7695    0.4421   -1.7725 O   0  0  0  0  0  0  0  0  0  0  0  0
   -0.0101   -0.4410    1.2798 C   0  0  1  0  0  0  0  0  0  0  0  0
   -1.4366    0.1327    1.4473 C   0  0  0  0  0  0  0  0  0  0  0  0
   -1.2871   -0.4190    0.0101 C   0  0  2  0  0  0  0  0  0  0  0  0
   -0.5787   -1.5954    0.5545 O   0  0  0  0  0  0  0  0  0  0  0  0
    0.8254    1.9025   -0.7976 H   0  0  0  0  0  0  0  0  0  0  0  0
    1.1279   -1.3832   -1.1583 H   0  0  0  0  0  0  0  0  0  0  0  0
    0.7622   -0.6395    2.0232 H   0  0  0  0  0  0  0  0  0  0  0  0
   -2.0896   -0.4544    2.0939 H   0  0  0  0  0  0  0  0  0  0  0  0
   -1.5418    1.2100    1.5717 H   0  0  0  0  0  0  0  0  0  0  0  0
   -2.0382   -0.5913   -0.7610 H   0  0  0  0  0  0  0  0  0  0  0  0
  1  2  1  0  0  0  0
  2  3  1  6  0  0  0
  4  3  2  0  0  0  0
  5  2  1  6  0  0  0
  5  6  1  0  0  0  0
  5 11  1  0  0  0  0
  6 13  1  0  0  0  0
  6 12  1  0  0  0  0
  7  2  1  6  0  0  0
  7  8  1  0  0  0  0
  7  6  1  0  0  0  0
  8  5  1  0  0  0  0
  9  1  1  0  0  0  0
 10  3  1  0  0  0  0
 14  7  1  0  0  0  0
M  END
