title
 OpenBabel02282110003D

 20 21  0  0  1  0  0  0  0  0999 V2000
   -0.1925    1.8631   -0.2082 C   0  0  0  0  0  0  0  0  0  0  0  0
   -0.0870    0.3328   -0.2093 C   0  0  1  0  0  0  0  0  0  0  0  0
   -1.4731   -0.2107   -0.5885 C   0  0  0  0  0  0  0  0  0  0  0  0
   -2.4542    0.0717    0.4066 O   0  0  0  0  0  0  0  0  0  0  0  0
    1.1772   -0.3598   -0.8493 C   0  0  1  0  0  0  0  0  0  0  0  0
    2.0186    0.1744    0.3473 C   0  0  0  0  0  0  0  0  0  0  0  0
    0.6981   -0.3735    0.9688 C   0  0  2  0  0  0  0  0  0  0  0  0
    0.9056   -1.6092    0.0445 C   0  0  0  0  0  0  0  0  0  0  0  0
   -0.2760    2.2382   -1.2352 H   0  0  0  0  0  0  0  0  0  0  0  0
   -1.1044    2.1533    0.3211 H   0  0  0  0  0  0  0  0  0  0  0  0
    0.6453    2.3758    0.2642 H   0  0  0  0  0  0  0  0  0  0  0  0
   -1.8214    0.3071   -1.4895 H   0  0  0  0  0  0  0  0  0  0  0  0
   -1.4640   -1.2800   -0.8250 H   0  0  0  0  0  0  0  0  0  0  0  0
   -2.1952   -0.3972    1.2065 H   0  0  0  0  0  0  0  0  0  0  0  0
    1.4603   -0.3543   -1.9041 H   0  0  0  0  0  0  0  0  0  0  0  0
    2.9199   -0.3975    0.5824 H   0  0  0  0  0  0  0  0  0  0  0  0
    2.2177    1.2427    0.4029 H   0  0  0  0  0  0  0  0  0  0  0  0
    0.4318   -0.3811    2.0288 H   0  0  0  0  0  0  0  0  0  0  0  0
    0.0504   -2.2434   -0.1824 H   0  0  0  0  0  0  0  0  0  0  0  0
    1.7821   -2.2214    0.2705 H   0  0  0  0  0  0  0  0  0  0  0  0
  1 11  1  0  0  0  0
  1 10  1  0  0  0  0
  2  5  1  6  0  0  0
  2  1  1  0  0  0  0
  3  2  1  0  0  0  0
  3  4  1  0  0  0  0
  4 14  1  0  0  0  0
  5 15  1  6  0  0  0
  5  8  1  0  0  0  0
  5  6  1  0  0  0  0
  6 17  1  0  0  0  0
  6 16  1  0  0  0  0
  6  7  1  0  0  0  0
  7  2  1  6  0  0  0
  7 18  1  0  0  0  0
  8 20  1  0  0  0  0
  8  7  1  0  0  0  0
  9  1  1  0  0  0  0
 12  3  1  0  0  0  0
 13  3  1  0  0  0  0
 19  8  1  0  0  0  0
M  END
