title
 OpenBabel02282110003D

 13 14  0  0  1  0  0  0  0  0999 V2000
    0.1452    1.8161   -0.2447 O   0  0  0  0  0  0  0  0  0  0  0  0
    0.1482    0.4240   -0.1494 C   0  0  1  0  0  0  0  0  0  0  0  0
    1.1028   -0.1906   -1.0773 C   0  0  0  0  0  0  0  0  0  0  0  0
    1.9077   -0.5719   -1.8137 N   0  0  0  0  0  0  0  0  0  0  0  0
    0.0202   -0.2943    1.2463 C   0  0  1  0  0  0  0  0  0  0  0  0
   -1.3990    0.2995    1.3942 C   0  0  0  0  0  0  0  0  0  0  0  0
   -1.2429   -0.2626   -0.0391 C   0  0  2  0  0  0  0  0  0  0  0  0
   -0.5538   -1.4428    0.5210 O   0  0  0  0  0  0  0  0  0  0  0  0
    1.0551    2.1325   -0.2747 H   0  0  0  0  0  0  0  0  0  0  0  0
    0.7921   -0.4949    1.9884 H   0  0  0  0  0  0  0  0  0  0  0  0
   -2.0628   -0.2829    2.0321 H   0  0  0  0  0  0  0  0  0  0  0  0
   -1.4990    1.3772    1.5168 H   0  0  0  0  0  0  0  0  0  0  0  0
   -1.9782   -0.4238   -0.8259 H   0  0  0  0  0  0  0  0  0  0  0  0
  1  2  1  0  0  0  0
  2  3  1  6  0  0  0
  4  3  3  0  0  0  0
  5  2  1  6  0  0  0
  5  6  1  0  0  0  0
  5 10  1  0  0  0  0
  6 12  1  0  0  0  0
  6 11  1  0  0  0  0
  7  2  1  6  0  0  0
  7  8  1  0  0  0  0
  7  6  1  0  0  0  0
  8  5  1  0  0  0  0
  9  1  1  0  0  0  0
 13  7  1  0  0  0  0
M  END
