title
 OpenBabel02282110003D

 14 15  0  0  1  0  0  0  0  0999 V2000
    0.1294    1.8115   -0.2453 O   0  0  0  0  0  0  0  0  0  0  0  0
    0.1381    0.4148   -0.1418 C   0  0  1  0  0  0  0  0  0  0  0  0
    1.1012   -0.1733   -1.0855 C   0  0  0  0  0  0  0  0  0  0  0  0
    1.8959   -0.5820   -1.8198 N   0  0  0  0  0  0  0  0  0  0  0  0
    0.0379   -0.3011    1.2610 C   0  0  1  0  0  0  0  0  0  0  0  0
   -1.3864    0.2952    1.3938 C   0  0  0  0  0  0  0  0  0  0  0  0
   -1.2565   -0.2759   -0.0430 C   0  0  2  0  0  0  0  0  0  0  0  0
   -0.6108   -1.4915    0.5904 N   0  0  0  0  0  0  0  0  0  0  0  0
    1.0337    2.1393   -0.1807 H   0  0  0  0  0  0  0  0  0  0  0  0
    0.8196   -0.4090    2.0134 H   0  0  0  0  0  0  0  0  0  0  0  0
   -2.0515   -0.2715    2.0436 H   0  0  0  0  0  0  0  0  0  0  0  0
   -1.4732    1.3737    1.4979 H   0  0  0  0  0  0  0  0  0  0  0  0
   -2.0070   -0.3527   -0.8292 H   0  0  0  0  0  0  0  0  0  0  0  0
    0.0398   -1.9370   -0.0651 H   0  0  0  0  0  0  0  0  0  0  0  0
  1  9  1  0  0  0  0
  1  2  1  0  0  0  0
  2  3  1  6  0  0  0
  4  3  3  0  0  0  0
  5  2  1  6  0  0  0
  5  6  1  0  0  0  0
  5 10  1  0  0  0  0
  6 12  1  0  0  0  0
  6 11  1  0  0  0  0
  7  2  1  6  0  0  0
  7  8  1  0  0  0  0
  7  6  1  0  0  0  0
  8  5  1  0  0  0  0
 13  7  1  0  0  0  0
 14  8  1  0  0  0  0
M  END
