14
title
O 0.15557334 1.6827663 -0.1271071
C 0.107470185 0.30433083 -0.10271557
C 1.0807682 -0.2860405 -1.0921216
O 1.7695312 0.44211313 -1.7725081
C -0.010058658 -0.44099954 1.2798171
C -1.4365888 0.13271789 1.4472628
C -1.2871422 -0.41902617 0.010109997
O -0.5786906 -1.5953783 0.55447906
H 0.82542175 1.9024563 -0.79764795
H 1.127942 -1.3831896 -1.1583121
H 0.76218164 -0.63946795 2.0231998
H -2.0896 -0.45435175 2.0939052
H -1.5418015 1.2100011 1.5717297
H -2.0381768 -0.59128094 -0.76101685
