title
 OpenBabel02282110003D

 16 17  0  0  1  0  0  0  0  0999 V2000
    0.1097    1.6323   -0.0931 O   0  0  0  0  0  0  0  0  0  0  0  0
    0.0972    0.2420   -0.0961 C   0  0  1  0  0  0  0  0  0  0  0  0
    1.0898   -0.2530   -1.1177 C   0  0  0  0  0  0  0  0  0  0  0  0
    1.7420    0.5264   -1.7780 O   0  0  0  0  0  0  0  0  0  0  0  0
    0.0357   -0.4722    1.3106 C   0  0  1  0  0  0  0  0  0  0  0  0
   -1.4036    0.1182    1.4371 C   0  0  0  0  0  0  0  0  0  0  0  0
   -1.3158   -0.4577   -0.0110 C   0  0  2  0  0  0  0  0  0  0  0  0
   -0.6236   -1.6980    0.6194 C   0  0  0  0  0  0  0  0  0  0  0  0
    0.7653    1.8847   -0.7635 H   0  0  0  0  0  0  0  0  0  0  0  0
    1.2108   -1.3407   -1.2527 H   0  0  0  0  0  0  0  0  0  0  0  0
    0.8250   -0.4725    2.0634 H   0  0  0  0  0  0  0  0  0  0  0  0
   -2.0744   -0.4128    2.1172 H   0  0  0  0  0  0  0  0  0  0  0  0
   -1.4869    1.1982    1.5341 H   0  0  0  0  0  0  0  0  0  0  0  0
   -2.0860   -0.4412   -0.7832 H   0  0  0  0  0  0  0  0  0  0  0  0
   -0.0144   -2.3460   -0.0108 H   0  0  0  0  0  0  0  0  0  0  0  0
   -1.2649   -2.2970    1.2687 H   0  0  0  0  0  0  0  0  0  0  0  0
  2  1  1  0  0  0  0
  2  7  1  6  0  0  0
  3  2  1  0  0  0  0
  4  3  2  0  0  0  0
  5  2  1  6  0  0  0
  5  6  1  0  0  0  0
  5 11  1  0  0  0  0
  6 13  1  0  0  0  0
  6 12  1  0  0  0  0
  7 14  1  6  0  0  0
  7  8  1  0  0  0  0
  7  6  1  0  0  0  0
  8 16  1  0  0  0  0
  8  5  1  0  0  0  0
  9  1  1  0  0  0  0
 10  3  1  0  0  0  0
 15  8  1  0  0  0  0
M  END
