20
title
C 2.2054358 0.33149138 1.4078715
C 1.3666012 0.94267243 0.27618548
C -0.06770203 0.3966774 0.20767277
C -0.9485495 1.0170165 1.2909235
C -0.75761986 0.19593057 -1.1885883
C 0.19417885 -0.9780452 -1.5249039
C -0.31625935 -1.1299498 -0.07397555
O -1.6721354 -0.7937976 -0.5715409
H 3.2033513 0.77951086 1.437565
H 1.745561 0.48718646 2.3884706
H 2.3308334 -0.74775636 1.2684648
H 1.308018 2.029323 0.41679797
H 1.8947972 0.7967228 -0.6698087
H -1.012121 2.102775 1.1545695
H -1.955385 0.60198987 1.2596891
H -0.5302626 0.84117436 2.2875385
H -1.2040148 0.9387365 -1.8526558
H -0.22991201 -1.7027426 -2.2199006
H 1.2513372 -0.7898102 -1.7113022
H -0.23371634 -1.9820352 0.6031797
