20
title
C 2.1481216 0.4252828 1.44278
C 1.3718711 0.8869923 0.20366797
C -0.050636716 0.3256752 0.14666216
O -0.7871887 0.82919765 1.2520679
C -0.811753 0.23266499 -1.2282361
C 0.094860606 -0.9851042 -1.5742689
C -0.32249779 -1.192274 -0.08897677
C -1.7634571 -0.7932217 -0.54050124
H 3.124652 0.91532767 1.5019096
H 1.5910434 0.6524792 2.3552716
H 2.3184447 -0.6561911 1.4178677
H 1.2933599 1.98492 0.20834155
H 1.934006 0.6412585 -0.7001533
H -0.69607323 1.787655 1.2553496
H -1.089705 1.0573715 -1.8884137
H -0.33702463 -1.6991724 -2.278887
H 1.1467961 -0.8103913 -1.8001157
H -0.041134663 -2.0158134 0.5693464
H -2.4332528 -0.41175127 0.22592999
H -2.2587361 -1.4996787 -1.2110201
