title
 OpenBabel02282110003D

 20 21  0  0  1  0  0  0  0  0999 V2000
    2.2054    0.3315    1.4079 C   0  0  0  0  0  0  0  0  0  0  0  0
    1.3666    0.9427    0.2762 C   0  0  0  0  0  0  0  0  0  0  0  0
   -0.0677    0.3967    0.2077 C   0  0  1  0  0  0  0  0  0  0  0  0
   -0.9485    1.0170    1.2909 C   0  0  0  0  0  0  0  0  0  0  0  0
   -0.7576    0.1959   -1.1886 C   0  0  1  0  0  0  0  0  0  0  0  0
    0.1942   -0.9780   -1.5249 C   0  0  0  0  0  0  0  0  0  0  0  0
   -0.3163   -1.1299   -0.0740 C   0  0  2  0  0  0  0  0  0  0  0  0
   -1.6721   -0.7938   -0.5715 O   0  0  0  0  0  0  0  0  0  0  0  0
    3.2034    0.7795    1.4376 H   0  0  0  0  0  0  0  0  0  0  0  0
    1.7456    0.4872    2.3885 H   0  0  0  0  0  0  0  0  0  0  0  0
    2.3308   -0.7478    1.2685 H   0  0  0  0  0  0  0  0  0  0  0  0
    1.3080    2.0293    0.4168 H   0  0  0  0  0  0  0  0  0  0  0  0
    1.8948    0.7967   -0.6698 H   0  0  0  0  0  0  0  0  0  0  0  0
   -1.0121    2.1028    1.1546 H   0  0  0  0  0  0  0  0  0  0  0  0
   -1.9554    0.6020    1.2597 H   0  0  0  0  0  0  0  0  0  0  0  0
   -0.5303    0.8412    2.2875 H   0  0  0  0  0  0  0  0  0  0  0  0
   -1.2040    0.9387   -1.8527 H   0  0  0  0  0  0  0  0  0  0  0  0
   -0.2299   -1.7027   -2.2199 H   0  0  0  0  0  0  0  0  0  0  0  0
    1.2513   -0.7898   -1.7113 H   0  0  0  0  0  0  0  0  0  0  0  0
   -0.2337   -1.9820    0.6032 H   0  0  0  0  0  0  0  0  0  0  0  0
  1  9  1  0  0  0  0
  1 10  1  0  0  0  0
  2 12  1  0  0  0  0
  2  1  1  0  0  0  0
  3  2  1  6  0  0  0
  3  4  1  0  0  0  0
  4 16  1  0  0  0  0
  5  8  1  0  0  0  0
  5  3  1  1  0  0  0
  6  5  1  0  0  0  0
  6  7  1  0  0  0  0
  7  3  1  1  0  0  0
  7 20  1  0  0  0  0
  8  7  1  0  0  0  0
 11  1  1  0  0  0  0
 13  2  1  0  0  0  0
 14  4  1  0  0  0  0
 15  4  1  0  0  0  0
 17  5  1  0  0  0  0
 18  6  1  0  0  0  0
 19  6  1  0  0  0  0
M  END
