title
 OpenBabel02282110003D

 20 21  0  0  1  0  0  0  0  0999 V2000
    2.1481    0.4253    1.4428 C   0  0  0  0  0  0  0  0  0  0  0  0
    1.3719    0.8870    0.2037 C   0  0  0  0  0  0  0  0  0  0  0  0
   -0.0506    0.3257    0.1467 C   0  0  1  0  0  0  0  0  0  0  0  0
   -0.7872    0.8292    1.2521 O   0  0  0  0  0  0  0  0  0  0  0  0
   -0.8118    0.2327   -1.2282 C   0  0  1  0  0  0  0  0  0  0  0  0
    0.0949   -0.9851   -1.5743 C   0  0  0  0  0  0  0  0  0  0  0  0
   -0.3225   -1.1923   -0.0890 C   0  0  2  0  0  0  0  0  0  0  0  0
   -1.7635   -0.7932   -0.5405 C   0  0  0  0  0  0  0  0  0  0  0  0
    3.1247    0.9153    1.5019 H   0  0  0  0  0  0  0  0  0  0  0  0
    1.5910    0.6525    2.3553 H   0  0  0  0  0  0  0  0  0  0  0  0
    2.3184   -0.6562    1.4179 H   0  0  0  0  0  0  0  0  0  0  0  0
    1.2934    1.9849    0.2083 H   0  0  0  0  0  0  0  0  0  0  0  0
    1.9340    0.6413   -0.7002 H   0  0  0  0  0  0  0  0  0  0  0  0
   -0.6961    1.7877    1.2553 H   0  0  0  0  0  0  0  0  0  0  0  0
   -1.0897    1.0574   -1.8884 H   0  0  0  0  0  0  0  0  0  0  0  0
   -0.3370   -1.6992   -2.2789 H   0  0  0  0  0  0  0  0  0  0  0  0
    1.1468   -0.8104   -1.8001 H   0  0  0  0  0  0  0  0  0  0  0  0
   -0.0411   -2.0158    0.5693 H   0  0  0  0  0  0  0  0  0  0  0  0
   -2.4333   -0.4118    0.2259 H   0  0  0  0  0  0  0  0  0  0  0  0
   -2.2587   -1.4997   -1.2110 H   0  0  0  0  0  0  0  0  0  0  0  0
  1  9  1  0  0  0  0
  1 10  1  0  0  0  0
  2 12  1  0  0  0  0
  2  1  1  0  0  0  0
  3  5  1  6  0  0  0
  3  2  1  0  0  0  0
  3  4  1  0  0  0  0
  4 14  1  0  0  0  0
  5 15  1  6  0  0  0
  5  8  1  0  0  0  0
  6  5  1  0  0  0  0
  6  7  1  0  0  0  0
  7  3  1  1  0  0  0
  7 18  1  0  0  0  0
  8  7  1  0  0  0  0
  8 19  1  0  0  0  0
 11  1  1  0  0  0  0
 13  2  1  0  0  0  0
 16  6  1  0  0  0  0
 17  6  1  0  0  0  0
 20  8  1  0  0  0  0
M  END
