18
title
O 1.9799263 0.5009961 1.4194975
C 1.3639523 0.84162384 0.19154356
C -0.056386054 0.28702632 0.12352591
O -0.6854659 0.90100783 1.2404573
C -0.8303854 0.22185166 -1.2403527
C 0.07062584 -0.9934995 -1.614878
C -0.33071083 -1.2333164 -0.13078147
C -1.7750096 -0.8239851 -0.5734188
H 1.3354576 0.7402107 2.0967274
H 1.3030074 1.9348792 0.06266251
H 2.0044765 0.45177463 -0.5993771
H -1.4542811 0.3884756 1.5026736
H -1.1195459 1.0564878 -1.8804581
H -0.3686679 -1.6913664 -2.3307586
H 1.1201718 -0.81583416 -1.843995
H -0.0424394 -2.0706477 0.5059949
H -2.4839942 -0.46930048 0.17929156
H -2.276301 -1.5171065 -1.2528706
