22
title
C -2.2871363 0.015307613 1.1860245
C -0.99078166 0.819314 1.0173787
C -0.1383732 0.3852579 -0.19564028
C -0.703444 1.0848107 -1.4390348
C 1.4273962 0.33234096 -0.005967817
C 1.2283019 -0.9176228 0.90546685
C 0.28922796 -1.1310557 -0.3170676
C 1.4998883 -0.67755055 -1.1876575
H -2.9089801 0.048141785 0.2852446
H -2.0745018 -1.037326 1.4002036
H -2.887056 0.40791413 2.0132055
H -1.2417382 1.8798939 0.8900139
H -0.42109004 0.7682427 1.9485255
H -0.52430594 2.1647239 -1.3776282
H -0.28933924 0.7354405 -2.3849852
H -1.7884061 0.94456804 -1.4942769
H 2.0920587 1.180405 0.17616282
H 2.0838308 -1.5950803 0.96778256
H 0.77714574 -0.7836858 1.887604
H -0.36430404 -1.9866284 -0.50115234
H 1.312965 -0.31178212 -2.1956382
H 2.3601806 -1.3519758 -1.1801668
