title
 OpenBabel02282110003D

 16 17  0  0  1  0  0  0  0  0999 V2000
    2.0152    0.5148    1.4387 O   0  0  0  0  0  0  0  0  0  0  0  0
    1.4090    0.8677    0.2098 C   0  0  0  0  0  0  0  0  0  0  0  0
   -0.0024    0.3111    0.1351 C   0  0  1  0  0  0  0  0  0  0  0  0
   -0.6861    0.8437    1.2337 O   0  0  0  0  0  0  0  0  0  0  0  0
   -0.8294    0.2073   -1.1904 C   0  0  1  0  0  0  0  0  0  0  0  0
    0.0368   -0.9780   -1.6624 C   0  0  0  0  0  0  0  0  0  0  0  0
   -0.3042   -1.1941   -0.1755 C   0  0  2  0  0  0  0  0  0  0  0  0
   -1.7062   -0.7727   -0.4826 O   0  0  0  0  0  0  0  0  0  0  0  0
    1.3722    0.7418    2.1214 H   0  0  0  0  0  0  0  0  0  0  0  0
    1.3532    1.9611    0.0846 H   0  0  0  0  0  0  0  0  0  0  0  0
    2.0479    0.4735   -0.5824 H   0  0  0  0  0  0  0  0  0  0  0  0
   -1.5668    0.4409    1.1980 H   0  0  0  0  0  0  0  0  0  0  0  0
   -1.3260    0.9880   -1.7674 H   0  0  0  0  0  0  0  0  0  0  0  0
   -0.4818   -1.6593   -2.3359 H   0  0  0  0  0  0  0  0  0  0  0  0
    1.0727   -0.8036   -1.9541 H   0  0  0  0  0  0  0  0  0  0  0  0
   -0.1766   -2.0751    0.4532 H   0  0  0  0  0  0  0  0  0  0  0  0
  1  9  1  0  0  0  0
  2  1  1  0  0  0  0
  3  2  1  0  0  0  0
  3  4  1  1  0  0  0
  5  8  1  0  0  0  0
  5  3  1  1  0  0  0
  6  5  1  0  0  0  0
  6  7  1  0  0  0  0
  7  3  1  1  0  0  0
  7 16  1  0  0  0  0
  8  7  1  0  0  0  0
 10  2  1  0  0  0  0
 11  2  1  0  0  0  0
 12  4  1  0  0  0  0
 13  5  1  0  0  0  0
 14  6  1  0  0  0  0
 15  6  1  0  0  0  0
M  END
