18
title
C -0.82475066 2.0667632 1.101244
O -1.0559666 0.70203435 0.8122736
C -0.30133206 0.17132227 -0.24887918
C -0.6695865 0.7670186 -1.5984349
C 1.2120241 -0.17485549 0.021014938
C 0.7795759 -1.2060039 1.0901465
C -0.11615114 -1.3731803 -0.15972017
O 1.0922875 -1.2359569 -1.0041904
H 0.24121173 2.2723138 1.2783371
H -1.179007 2.7313485 0.30208606
H -1.3811458 2.2943933 2.013506
H -0.3900185 1.8234142 -1.6594179
H -0.15604912 0.23232009 -2.3966825
H -1.7514528 0.6975313 -1.7498012
H 2.0999308 0.45758605 -0.022325387
H 1.492221 -2.0169587 1.2406628
H 0.31911606 -0.84476274 2.008013
H -0.8219192 -2.164361 -0.41540885
