title
 OpenBabel02282110003D

 22 23  0  0  1  0  0  0  0  0999 V2000
   -2.2871    0.0153    1.1860 C   0  0  0  0  0  0  0  0  0  0  0  0
   -0.9908    0.8193    1.0174 C   0  0  0  0  0  0  0  0  0  0  0  0
   -0.1384    0.3853   -0.1956 C   0  0  1  0  0  0  0  0  0  0  0  0
   -0.7034    1.0848   -1.4390 C   0  0  0  0  0  0  0  0  0  0  0  0
    1.4274    0.3323   -0.0060 C   0  0  1  0  0  0  0  0  0  0  0  0
    1.2283   -0.9176    0.9055 C   0  0  0  0  0  0  0  0  0  0  0  0
    0.2892   -1.1311   -0.3171 C   0  0  2  0  0  0  0  0  0  0  0  0
    1.4999   -0.6776   -1.1877 C   0  0  0  0  0  0  0  0  0  0  0  0
   -2.9090    0.0481    0.2852 H   0  0  0  0  0  0  0  0  0  0  0  0
   -2.0745   -1.0373    1.4002 H   0  0  0  0  0  0  0  0  0  0  0  0
   -2.8871    0.4079    2.0132 H   0  0  0  0  0  0  0  0  0  0  0  0
   -1.2417    1.8799    0.8900 H   0  0  0  0  0  0  0  0  0  0  0  0
   -0.4211    0.7682    1.9485 H   0  0  0  0  0  0  0  0  0  0  0  0
   -0.5243    2.1647   -1.3776 H   0  0  0  0  0  0  0  0  0  0  0  0
   -0.2893    0.7354   -2.3850 H   0  0  0  0  0  0  0  0  0  0  0  0
   -1.7884    0.9446   -1.4943 H   0  0  0  0  0  0  0  0  0  0  0  0
    2.0921    1.1804    0.1762 H   0  0  0  0  0  0  0  0  0  0  0  0
    2.0838   -1.5951    0.9678 H   0  0  0  0  0  0  0  0  0  0  0  0
    0.7771   -0.7837    1.8876 H   0  0  0  0  0  0  0  0  0  0  0  0
   -0.3643   -1.9866   -0.5012 H   0  0  0  0  0  0  0  0  0  0  0  0
    1.3130   -0.3118   -2.1956 H   0  0  0  0  0  0  0  0  0  0  0  0
    2.3602   -1.3520   -1.1802 H   0  0  0  0  0  0  0  0  0  0  0  0
  1 10  1  0  0  0  0
  1 11  1  0  0  0  0
  2  1  1  0  0  0  0
  2 13  1  0  0  0  0
  3  7  1  6  0  0  0
  3  2  1  0  0  0  0
  4 14  1  0  0  0  0
  4  3  1  0  0  0  0
  5  3  1  6  0  0  0
  5 17  1  0  0  0  0
  5  6  1  0  0  0  0
  6 18  1  0  0  0  0
  6 19  1  0  0  0  0
  7 20  1  6  0  0  0
  7  6  1  0  0  0  0
  8 22  1  0  0  0  0
  8  7  1  0  0  0  0
  8  5  1  0  0  0  0
  9  1  1  0  0  0  0
 12  2  1  0  0  0  0
 15  4  1  0  0  0  0
 16  4  1  0  0  0  0
 21  8  1  0  0  0  0
M  END
