20
title
O 0.8564709 1.4775113 0.12180478
C 0.92383677 0.082827084 -0.05617168
C 1.9671761 -0.49730048 -0.97524214
C 2.0795255 -0.6846947 0.53139096
C -0.45994064 -0.5071519 -0.027134491
C -1.392244 -0.17615895 1.1758499
C -2.5767686 -0.0675709 0.17841293
C -1.5471448 0.08288583 -0.9735475
H 1.7471572 1.8387148 0.09906692
H 1.7101995 -1.3540437 -1.5894657
H 2.6618419 0.19093908 -1.4478629
H 2.8483913 -0.12001825 1.0506433
H 1.9000674 -1.6701235 0.9487156
H -0.38036475 -1.5903552 -0.16364048
H -1.4634081 -0.91264266 1.9802765
H -1.1331283 0.794813 1.6040552
H -3.134491 -1.0061496 0.10540522
H -3.2898457 0.7465597 0.32746592
H -1.3348116 1.1318904 -1.1921053
H -1.7436088 -0.44372728 -1.9108869
