20
title
C 0.76501566 1.9503001 -0.89778364
C 0.720967 0.49512503 -0.4831314
C 1.8971521 -0.35877547 -0.70608604
O 1.6067764 0.15508255 0.59819216
C -0.6591015 -0.115614265 -0.39390877
C -0.83091617 -1.5527978 0.17001612
C -2.0999389 -1.0679357 0.9206107
C -1.6082805 0.39191046 0.73523253
H 1.7910687 2.3258846 -0.8838364
H 0.3581172 2.0788708 -1.9067489
H 0.16753308 2.5640318 -0.21536656
H 1.7751234 -1.4351453 -0.81848234
H 2.7837386 0.057061013 -1.1839234
H -1.1497748 -0.021338673 -1.3699167
H -0.94018173 -2.3713903 -0.5454732
H -0.021096127 -1.7861872 0.86627394
H -3.0110297 -1.264104 0.34780326
H -2.2491868 -1.4249451 1.942026
H -1.0306054 0.7336174 1.5991334
H -2.3483324 1.1538855 0.47935727
