20
title
C 0.8745167 2.0196764 0.6757647
C 0.7424229 0.5463176 0.34458715
C 1.6684604 -0.055321295 -0.68279517
C 1.8350449 -0.397634 0.78067374
C -0.68131506 0.041880857 0.4104427
C -1.649321 0.4026823 -0.7444689
C -1.8312153 -1.1207348 -0.8724431
O -0.81146646 -1.3709573 0.11910353
H 1.9196588 2.3392143 0.62599885
H 0.3045002 2.642637 -0.024162835
H 0.5081446 2.235453 1.6867598
H 1.2767816 -0.8370592 -1.3236525
H 2.4012942 0.59440553 -1.1495419
H 2.6812687 0.017186265 1.318422
H 1.5439357 -1.3963022 1.0849568
H -1.0986936 0.26438522 1.4048653
H -2.5365722 0.97764325 -0.47636393
H -1.1540483 0.870283 -1.5975862
H -2.8092482 -1.4992837 -0.5487395
H -1.5796934 -1.5699366 -1.8399469
