20
title
C 0.93991256 1.6176155 0.07133116
C 0.9446446 0.10360688 -0.05071145
C 2.0124326 -0.516419 -0.9258612
C 2.1060638 -0.63723856 0.57607657
C -0.39771688 -0.5994173 -0.02356585
C -1.3984829 -0.25692508 1.109172
O -2.3722963 0.23461229 0.16716309
C -1.5274411 -0.09033279 -0.9544156
H 1.961815 2.0071187 0.038976792
H 0.38377064 2.0916567 -0.7444168
H 0.49342337 1.9502366 1.0144452
H 1.7615503 -1.4058383 -1.4944973
H 2.7067428 0.14763233 -1.4297003
H 2.8638148 -0.05497184 1.089558
H 1.9184012 -1.6082944 1.0223813
H -0.2325163 -1.6757387 -0.120768145
H -1.7752613 -1.1167799 1.677799
H -1.0820762 0.51880187 1.8172029
H -1.2932914 0.7916979 -1.5630214
H -1.980239 -0.8519369 -1.6021768
