title
 OpenBabel02282110003D

 18 19  0  0  1  0  0  0  0  0999 V2000
    0.8027    1.9822   -0.8480 C   0  0  0  0  0  0  0  0  0  0  0  0
    0.7333    0.5124   -0.4934 C   0  0  1  0  0  0  0  0  0  0  0  0
    1.9058   -0.3463   -0.7159 C   0  0  0  0  0  0  0  0  0  0  0  0
    1.5775    0.1148    0.5986 O   0  0  0  0  0  0  0  0  0  0  0  0
   -0.6559   -0.0838   -0.4814 C   0  0  0  0  0  0  0  0  0  0  0  0
   -0.8687   -1.4987    0.0994 C   0  0  0  0  0  0  0  0  0  0  0  0
   -1.8729   -1.0182    1.0163 O   0  0  0  0  0  0  0  0  0  0  0  0
   -1.6103    0.3517    0.6592 C   0  0  0  0  0  0  0  0  0  0  0  0
    1.8316    2.3445   -0.7878 H   0  0  0  0  0  0  0  0  0  0  0  0
    0.4282    2.1557   -1.8626 H   0  0  0  0  0  0  0  0  0  0  0  0
    0.1927    2.5764   -0.1591 H   0  0  0  0  0  0  0  0  0  0  0  0
    1.7779   -1.4158   -0.8798 H   0  0  0  0  0  0  0  0  0  0  0  0
    2.8110    0.0793   -1.1471 H   0  0  0  0  0  0  0  0  0  0  0  0
   -1.1085    0.0402   -1.4695 H   0  0  0  0  0  0  0  0  0  0  0  0
   -1.2663   -2.2566   -0.5849 H   0  0  0  0  0  0  0  0  0  0  0  0
    0.0033   -1.8988    0.6303 H   0  0  0  0  0  0  0  0  0  0  0  0
   -1.1157    0.8984    1.4732 H   0  0  0  0  0  0  0  0  0  0  0  0
   -2.5227    0.8842    0.3675 H   0  0  0  0  0  0  0  0  0  0  0  0
  1  9  1  0  0  0  0
  1 11  1  0  0  0  0
  2  1  1  6  0  0  0
  2  5  1  0  0  0  0
  2  4  1  0  0  0  0
  3  2  1  0  0  0  0
  3  4  1  0  0  0  0
  5  6  1  0  0  0  0
  5  8  1  0  0  0  0
  6 16  1  0  0  0  0
  6  7  1  0  0  0  0
  8  7  1  0  0  0  0
  8 17  1  0  0  0  0
 10  1  1  0  0  0  0
 12  3  1  0  0  0  0
 13  3  1  0  0  0  0
 14  5  1  0  0  0  0
 15  6  1  0  0  0  0
 18  8  1  0  0  0  0
M  END
