title
 OpenBabel02282110003D

 22 23  0  0  0  0  0  0  0  0999 V2000
    1.0522    1.6658    0.0879 C   0  0  0  0  0  0  0  0  0  0  0  0
    0.9481    0.1583   -0.0541 C   0  0  0  0  0  0  0  0  0  0  0  0
    1.9555   -0.5207   -0.9569 C   0  0  0  0  0  0  0  0  0  0  0  0
    2.0667   -0.6694    0.5415 C   0  0  0  0  0  0  0  0  0  0  0  0
   -0.4398   -0.4474   -0.0114 C   0  0  0  0  0  0  0  0  0  0  0  0
   -1.4054   -0.1657    1.1794 C   0  0  0  0  0  0  0  0  0  0  0  0
   -2.5856   -0.1939    0.1713 C   0  0  0  0  0  0  0  0  0  0  0  0
   -1.5636    0.0455   -0.9724 C   0  0  0  0  0  0  0  0  0  0  0  0
    2.0975    1.9868    0.0416 H   0  0  0  0  0  0  0  0  0  0  0  0
    0.5151    2.1876   -0.7119 H   0  0  0  0  0  0  0  0  0  0  0  0
    0.6465    2.0132    1.0445 H   0  0  0  0  0  0  0  0  0  0  0  0
    1.6300   -1.3809   -1.5329 H   0  0  0  0  0  0  0  0  0  0  0  0
    2.6875    0.0992   -1.4642 H   0  0  0  0  0  0  0  0  0  0  0  0
    2.8739   -0.1501    1.0476 H   0  0  0  0  0  0  0  0  0  0  0  0
    1.8164   -1.6302    0.9795 H   0  0  0  0  0  0  0  0  0  0  0  0
   -0.3411   -1.5337   -0.1253 H   0  0  0  0  0  0  0  0  0  0  0  0
   -1.4137   -0.8802    2.0064 H   0  0  0  0  0  0  0  0  0  0  0  0
   -1.2595    0.8373    1.5914 H   0  0  0  0  0  0  0  0  0  0  0  0
   -3.0390   -1.1875    0.1071 H   0  0  0  0  0  0  0  0  0  0  0  0
   -3.3824    0.5418    0.3021 H   0  0  0  0  0  0  0  0  0  0  0  0
   -1.4648    1.1111   -1.1995 H   0  0  0  0  0  0  0  0  0  0  0  0
   -1.7019   -0.4957   -1.9119 H   0  0  0  0  0  0  0  0  0  0  0  0
  1 11  1  0  0  0  0
  2  5  1  0  0  0  0
  2  1  1  0  0  0  0
  2  4  1  0  0  0  0
  3  2  1  0  0  0  0
  3  4  1  0  0  0  0
  4 15  1  0  0  0  0
  4 14  1  0  0  0  0
  5  6  1  0  0  0  0
  6 18  1  0  0  0  0
  6 17  1  0  0  0  0
  7 20  1  0  0  0  0
  7  6  1  0  0  0  0
  8  5  1  0  0  0  0
  8  7  1  0  0  0  0
  9  1  1  0  0  0  0
 10  1  1  0  0  0  0
 12  3  1  0  0  0  0
 13  3  1  0  0  0  0
 16  5  1  0  0  0  0
 19  7  1  0  0  0  0
 21  8  1  0  0  0  0
 22  8  1  0  0  0  0
M  END
