title
 OpenBabel02282110003D

 20 21  0  0  0  0  0  0  0  0999 V2000
    0.9399    1.6176    0.0713 C   0  0  0  0  0  0  0  0  0  0  0  0
    0.9446    0.1036   -0.0507 C   0  0  0  0  0  0  0  0  0  0  0  0
    2.0124   -0.5164   -0.9259 C   0  0  0  0  0  0  0  0  0  0  0  0
    2.1061   -0.6372    0.5761 C   0  0  0  0  0  0  0  0  0  0  0  0
   -0.3977   -0.5994   -0.0236 C   0  0  0  0  0  0  0  0  0  0  0  0
   -1.3985   -0.2569    1.1092 C   0  0  0  0  0  0  0  0  0  0  0  0
   -2.3723    0.2346    0.1672 O   0  0  0  0  0  0  0  0  0  0  0  0
   -1.5274   -0.0903   -0.9544 C   0  0  0  0  0  0  0  0  0  0  0  0
    1.9618    2.0071    0.0390 H   0  0  0  0  0  0  0  0  0  0  0  0
    0.3838    2.0917   -0.7444 H   0  0  0  0  0  0  0  0  0  0  0  0
    0.4934    1.9502    1.0144 H   0  0  0  0  0  0  0  0  0  0  0  0
    1.7616   -1.4058   -1.4945 H   0  0  0  0  0  0  0  0  0  0  0  0
    2.7067    0.1476   -1.4297 H   0  0  0  0  0  0  0  0  0  0  0  0
    2.8638   -0.0550    1.0896 H   0  0  0  0  0  0  0  0  0  0  0  0
    1.9184   -1.6083    1.0224 H   0  0  0  0  0  0  0  0  0  0  0  0
   -0.2325   -1.6757   -0.1208 H   0  0  0  0  0  0  0  0  0  0  0  0
   -1.7753   -1.1168    1.6778 H   0  0  0  0  0  0  0  0  0  0  0  0
   -1.0821    0.5188    1.8172 H   0  0  0  0  0  0  0  0  0  0  0  0
   -1.2933    0.7917   -1.5630 H   0  0  0  0  0  0  0  0  0  0  0  0
   -1.9802   -0.8519   -1.6022 H   0  0  0  0  0  0  0  0  0  0  0  0
  1 11  1  0  0  0  0
  2  5  1  0  0  0  0
  2  1  1  0  0  0  0
  2  4  1  0  0  0  0
  3  2  1  0  0  0  0
  3  4  1  0  0  0  0
  4 15  1  0  0  0  0
  4 14  1  0  0  0  0
  5  6  1  0  0  0  0
  6 17  1  0  0  0  0
  6 18  1  0  0  0  0
  7  6  1  0  0  0  0
  8  5  1  0  0  0  0
  8  7  1  0  0  0  0
  9  1  1  0  0  0  0
 10  1  1  0  0  0  0
 12  3  1  0  0  0  0
 13  3  1  0  0  0  0
 16  5  1  0  0  0  0
 19  8  1  0  0  0  0
 20  8  1  0  0  0  0
M  END
