17
title
C -0.4897891 1.6975354 0.27195635
C -0.3878812 0.18272357 0.19221173
C -1.4675362 -0.4883788 0.88203025
C -2.39392 -1.0090132 1.4437985
C 0.17107835 -0.5642892 -0.9729388
C 1.2969892 0.18570659 -1.6784917
C 1.9873836 0.24711335 -0.29221913
N 0.8981648 -0.568898 0.358705
H 0.22636607 2.2094374 -0.37172064
H -1.4936761 2.0078766 -0.030310472
H -0.33225256 2.032671 1.3019348
H -3.200942 -1.4802102 1.9478042
H -0.32773542 -1.451422 -1.3505031
H 1.8367167 -0.44530383 -2.3867064
H 1.0362775 1.1232398 -2.177953
H 2.920855 -0.31640637 -0.24472193
H 2.149501 1.2298559 0.1585477
