16
title
C -0.46658838 1.7408574 0.22851036
C -0.44073018 0.22221187 0.18464024
C -1.5870003 -0.43851864 0.7522798
C -2.544263 -0.9839432 1.2363701
C 0.17664398 -0.57540816 -0.9778868
C 1.4404198 0.11767615 -1.4697895
O 1.9743253 0.17840825 -0.11617703
C 0.85470986 -0.55821973 0.36537486
H 0.5213546 2.147613 0.0040855664
H -1.1918706 2.1445184 -0.48449767
H -0.750533 2.0805097 1.2284527
H -3.391185 -1.4601192 1.6643798
H -0.37156904 -1.3559799 -1.4860486
H 2.0676994 -0.5278537 -2.0937898
H 1.3488488 1.106909 -1.9309568
H 1.0159678 -1.3032483 1.1352935
