title
 OpenBabel02282110003D

 18 19  0  0  1  0  0  0  0  0999 V2000
   -0.4939    1.7295   -0.2057 C   0  0  0  0  0  0  0  0  0  0  0  0
   -0.4054    0.2093   -0.1825 C   0  0  1  0  0  0  0  0  0  0  0  0
   -1.5774   -0.4359   -0.7248 C   0  0  0  0  0  0  0  0  0  0  0  0
   -2.5664   -0.9466   -1.1819 C   0  0  0  0  0  0  0  0  0  0  0  0
    0.8777   -0.5704   -0.4452 C   0  0  1  0  0  0  0  0  0  0  0  0
    2.1089    0.1603    0.1042 C   0  0  0  0  0  0  0  0  0  0  0  0
    1.4597    0.1438    1.5275 C   0  0  0  0  0  0  0  0  0  0  0  0
    0.2438   -0.5862    0.9439 C   0  0  1  0  0  0  0  0  0  0  0  0
    0.3987    2.2026    0.2077 H   0  0  0  0  0  0  0  0  0  0  0  0
   -0.6210    2.0870   -1.2322 H   0  0  0  0  0  0  0  0  0  0  0  0
   -1.3563    2.0688    0.3761 H   0  0  0  0  0  0  0  0  0  0  0  0
   -3.4375   -1.4003   -1.5846 H   0  0  0  0  0  0  0  0  0  0  0  0
    0.8902   -1.3489   -1.1979 H   0  0  0  0  0  0  0  0  0  0  0  0
    3.0074   -0.4588    0.0594 H   0  0  0  0  0  0  0  0  0  0  0  0
    2.3419    1.1347   -0.3354 H   0  0  0  0  0  0  0  0  0  0  0  0
    2.0202   -0.4841    2.2234 H   0  0  0  0  0  0  0  0  0  0  0  0
    1.2721    1.1074    2.0105 H   0  0  0  0  0  0  0  0  0  0  0  0
   -0.3097   -1.3789    1.4318 H   0  0  0  0  0  0  0  0  0  0  0  0
  1  2  1  0  0  0  0
  1  9  1  0  0  0  0
  1 11  1  0  0  0  0
  2  8  1  1  0  0  0
  3  2  1  0  0  0  0
  4  3  3  0  0  0  0
  5  2  1  6  0  0  0
  5  6  1  0  0  0  0
  6  7  1  0  0  0  0
  7 17  1  0  0  0  0
  7 16  1  0  0  0  0
  8  5  1  6  0  0  0
  8 18  1  0  0  0  0
  8  7  1  0  0  0  0
 10  1  1  0  0  0  0
 12  4  1  0  0  0  0
 13  5  1  0  0  0  0
 14  6  1  0  0  0  0
 15  6  1  0  0  0  0
M  END
