title
 OpenBabel02282110003D

 14 15  0  0  1  0  0  0  0  0999 V2000
    0.3145    1.6672    0.1246 N   0  0  0  0  0  0  0  0  0  0  0  0
    0.3723    0.2394    0.2332 C   0  0  1  0  0  0  0  0  0  0  0  0
    1.5331   -0.3453    0.8734 C   0  0  0  0  0  0  0  0  0  0  0  0
    2.4802   -0.7717    1.3853 N   0  0  0  0  0  0  0  0  0  0  0  0
   -0.9114   -0.5698    0.4553 C   0  0  1  0  0  0  0  0  0  0  0  0
   -2.0283    0.0913   -0.3486 C   0  0  0  0  0  0  0  0  0  0  0  0
   -1.2382    0.0132   -1.5715 O   0  0  0  0  0  0  0  0  0  0  0  0
   -0.2080   -0.6465   -0.8714 C   0  0  1  0  0  0  0  0  0  0  0  0
    0.4427    2.1053    1.0309 H   0  0  0  0  0  0  0  0  0  0  0  0
    1.0348    2.0179   -0.4981 H   0  0  0  0  0  0  0  0  0  0  0  0
   -1.0147   -1.2812    1.2623 H   0  0  0  0  0  0  0  0  0  0  0  0
   -2.9200   -0.5362   -0.4362 H   0  0  0  0  0  0  0  0  0  0  0  0
   -2.2903    1.1206   -0.0945 H   0  0  0  0  0  0  0  0  0  0  0  0
    0.3691   -1.4116   -1.3774 H   0  0  0  0  0  0  0  0  0  0  0  0
  1  2  1  0  0  0  0
  1  9  1  0  0  0  0
  2  8  1  6  0  0  0
  2  5  1  0  0  0  0
  2  3  1  0  0  0  0
  3  4  3  0  0  0  0
  5  8  1  6  0  0  0
  5 11  1  0  0  0  0
  6 13  1  0  0  0  0
  6  5  1  0  0  0  0
  7  8  1  0  0  0  0
  7  6  1  0  0  0  0
  8 14  1  6  0  0  0
 10  1  1  0  0  0  0
 12  6  1  0  0  0  0
M  END
