title
 OpenBabel02282110003D

 17 18  0  0  1  0  0  0  0  0999 V2000
   -0.4898    1.6975    0.2720 C   0  0  0  0  0  0  0  0  0  0  0  0
   -0.3879    0.1827    0.1922 C   0  0  1  0  0  0  0  0  0  0  0  0
   -1.4675   -0.4884    0.8820 C   0  0  0  0  0  0  0  0  0  0  0  0
   -2.3939   -1.0090    1.4438 C   0  0  0  0  0  0  0  0  0  0  0  0
    0.1711   -0.5643   -0.9729 C   0  0  1  0  0  0  0  0  0  0  0  0
    1.2970    0.1857   -1.6785 C   0  0  0  0  0  0  0  0  0  0  0  0
    1.9874    0.2471   -0.2922 C   0  0  0  0  0  0  0  0  0  0  0  0
    0.8982   -0.5689    0.3587 N   0  0  1  0  0  0  0  0  0  0  0  0
    0.2264    2.2094   -0.3717 H   0  0  0  0  0  0  0  0  0  0  0  0
   -1.4937    2.0079   -0.0303 H   0  0  0  0  0  0  0  0  0  0  0  0
   -0.3323    2.0327    1.3019 H   0  0  0  0  0  0  0  0  0  0  0  0
   -3.2009   -1.4802    1.9478 H   0  0  0  0  0  0  0  0  0  0  0  0
   -0.3277   -1.4514   -1.3505 H   0  0  0  0  0  0  0  0  0  0  0  0
    1.8367   -0.4453   -2.3867 H   0  0  0  0  0  0  0  0  0  0  0  0
    1.0363    1.1232   -2.1780 H   0  0  0  0  0  0  0  0  0  0  0  0
    2.9209   -0.3164   -0.2447 H   0  0  0  0  0  0  0  0  0  0  0  0
    2.1495    1.2299    0.1585 H   0  0  0  0  0  0  0  0  0  0  0  0
  1 11  1  0  0  0  0
  2  5  1  6  0  0  0
  2  1  1  0  0  0  0
  2  3  1  0  0  0  0
  3  4  3  0  0  0  0
  4 12  1  0  0  0  0
  5  8  1  1  0  0  0
  6  5  1  0  0  0  0
  6  7  1  0  0  0  0
  7 16  1  0  0  0  0
  7 17  1  0  0  0  0
  7  8  1  0  0  0  0
  8  2  1  1  0  0  0
  9  1  1  0  0  0  0
 10  1  1  0  0  0  0
 13  5  1  0  0  0  0
 14  6  1  0  0  0  0
 15  6  1  0  0  0  0
M  END
