title
 OpenBabel02282110003D

 16 17  0  0  1  0  0  0  0  0999 V2000
   -0.4900    1.7049    0.2706 C   0  0  0  0  0  0  0  0  0  0  0  0
   -0.3717    0.1932    0.1815 C   0  0  1  0  0  0  0  0  0  0  0  0
   -1.4532   -0.4873    0.8721 C   0  0  0  0  0  0  0  0  0  0  0  0
   -2.3438   -0.9937    1.4073 N   0  0  0  0  0  0  0  0  0  0  0  0
    0.1826   -0.5640   -0.9794 C   0  0  1  0  0  0  0  0  0  0  0  0
    1.3094    0.1889   -1.6797 C   0  0  0  0  0  0  0  0  0  0  0  0
    1.9962    0.2478   -0.2908 C   0  0  0  0  0  0  0  0  0  0  0  0
    0.9018   -0.5684    0.3538 N   0  0  1  0  0  0  0  0  0  0  0  0
    0.2167    2.2178   -0.3818 H   0  0  0  0  0  0  0  0  0  0  0  0
   -1.4984    2.0098   -0.0217 H   0  0  0  0  0  0  0  0  0  0  0  0
   -0.3215    2.0395    1.2987 H   0  0  0  0  0  0  0  0  0  0  0  0
   -0.3204   -1.4481   -1.3579 H   0  0  0  0  0  0  0  0  0  0  0  0
    1.8494   -0.4420   -2.3872 H   0  0  0  0  0  0  0  0  0  0  0  0
    1.0490    1.1265   -2.1781 H   0  0  0  0  0  0  0  0  0  0  0  0
    2.9264   -0.3195   -0.2388 H   0  0  0  0  0  0  0  0  0  0  0  0
    2.1565    1.2282    0.1646 H   0  0  0  0  0  0  0  0  0  0  0  0
  1 11  1  0  0  0  0
  2  5  1  6  0  0  0
  2  1  1  0  0  0  0
  2  3  1  0  0  0  0
  3  4  3  0  0  0  0
  5  8  1  1  0  0  0
  6  5  1  0  0  0  0
  6  7  1  0  0  0  0
  7 15  1  0  0  0  0
  7 16  1  0  0  0  0
  7  8  1  0  0  0  0
  8  2  1  1  0  0  0
  9  1  1  0  0  0  0
 10  1  1  0  0  0  0
 12  5  1  0  0  0  0
 13  6  1  0  0  0  0
 14  6  1  0  0  0  0
M  END
