14
title
N 0.3145264 1.6672069 0.12457178
C 0.37226912 0.23939995 0.23319769
C 1.5330783 -0.3453382 0.8734071
N 2.4801638 -0.7717289 1.3853421
C -0.9113714 -0.56982505 0.4552546
C -2.0282755 0.09131047 -0.3485864
O -1.2382473 0.013210134 -1.5714855
C -0.20798287 -0.64651924 -0.87135774
H 0.44265044 2.1052608 1.0308676
H 1.034791 2.0179443 -0.4981217
H -1.0147048 -1.2811668 1.262275
H -2.9200404 -0.5362197 -0.4361811
H -2.2902582 1.1205629 -0.09448188
H 0.3691346 -1.4116039 -1.3773681
