title
 OpenBabel02282110003D

 15 16  0  0  1  0  0  0  0  0999 V2000
    0.3282    1.6561    0.2478 N   0  0  0  0  0  0  0  0  0  0  0  0
    0.3494    0.2087    0.2464 C   0  0  1  0  0  0  0  0  0  0  0  0
    1.4547   -0.3711    0.9677 C   0  0  0  0  0  0  0  0  0  0  0  0
    2.3518   -0.8328    1.5339 N   0  0  0  0  0  0  0  0  0  0  0  0
   -0.9345   -0.6131    0.3451 C   0  0  1  0  0  0  0  0  0  0  0  0
   -2.0383    0.0846   -0.4525 C   0  0  0  0  0  0  0  0  0  0  0  0
   -1.1225    0.2030   -1.6428 N   0  0  0  0  0  0  0  0  0  0  0  0
   -0.1249   -0.6236   -0.9415 C   0  0  1  0  0  0  0  0  0  0  0  0
    1.2817    2.0040    0.2109 H   0  0  0  0  0  0  0  0  0  0  0  0
   -0.1204    1.9449   -0.6220 H   0  0  0  0  0  0  0  0  0  0  0  0
   -1.0738   -1.3595    1.1158 H   0  0  0  0  0  0  0  0  0  0  0  0
   -2.8827   -0.5846   -0.6383 H   0  0  0  0  0  0  0  0  0  0  0  0
   -2.4051    1.0433   -0.0740 H   0  0  0  0  0  0  0  0  0  0  0  0
   -1.5004   -0.2649   -2.4579 H   0  0  0  0  0  0  0  0  0  0  0  0
    0.4723   -1.3821   -1.4336 H   0  0  0  0  0  0  0  0  0  0  0  0
  2  8  1  6  0  0  0
  2  1  1  0  0  0  0
  2  5  1  0  0  0  0
  2  3  1  0  0  0  0
  3  4  3  0  0  0  0
  5  8  1  6  0  0  0
  5 11  1  0  0  0  0
  6 13  1  0  0  0  0
  6  5  1  0  0  0  0
  7  8  1  0  0  0  0
  7  6  1  0  0  0  0
  8 15  1  6  0  0  0
  9  1  1  0  0  0  0
 10  1  1  0  0  0  0
 12  6  1  0  0  0  0
 14  7  1  0  0  0  0
M  END
