title
 OpenBabel02282110003D

 16 17  0  0  1  0  0  0  0  0999 V2000
   -0.4666    1.7409    0.2285 C   0  0  0  0  0  0  0  0  0  0  0  0
   -0.4407    0.2222    0.1846 C   0  0  1  0  0  0  0  0  0  0  0  0
   -1.5870   -0.4385    0.7523 C   0  0  0  0  0  0  0  0  0  0  0  0
   -2.5443   -0.9839    1.2364 C   0  0  0  0  0  0  0  0  0  0  0  0
    0.1766   -0.5754   -0.9779 C   0  0  1  0  0  0  0  0  0  0  0  0
    1.4404    0.1177   -1.4698 C   0  0  0  0  0  0  0  0  0  0  0  0
    1.9743    0.1784   -0.1162 O   0  0  0  0  0  0  0  0  0  0  0  0
    0.8547   -0.5582    0.3654 C   0  0  1  0  0  0  0  0  0  0  0  0
    0.5214    2.1476    0.0041 H   0  0  0  0  0  0  0  0  0  0  0  0
   -1.1919    2.1445   -0.4845 H   0  0  0  0  0  0  0  0  0  0  0  0
   -0.7505    2.0805    1.2285 H   0  0  0  0  0  0  0  0  0  0  0  0
   -3.3912   -1.4601    1.6644 H   0  0  0  0  0  0  0  0  0  0  0  0
   -0.3716   -1.3560   -1.4860 H   0  0  0  0  0  0  0  0  0  0  0  0
    2.0677   -0.5279   -2.0938 H   0  0  0  0  0  0  0  0  0  0  0  0
    1.3488    1.1069   -1.9310 H   0  0  0  0  0  0  0  0  0  0  0  0
    1.0160   -1.3032    1.1353 H   0  0  0  0  0  0  0  0  0  0  0  0
  1 11  1  0  0  0  0
  2  5  1  6  0  0  0
  2  1  1  0  0  0  0
  2  3  1  0  0  0  0
  3  4  3  0  0  0  0
  4 12  1  0  0  0  0
  5  8  1  1  0  0  0
  6  5  1  0  0  0  0
  6  7  1  0  0  0  0
  7  8  1  0  0  0  0
  8  2  1  1  0  0  0
  8 16  1  0  0  0  0
  9  1  1  0  0  0  0
 10  1  1  0  0  0  0
 13  5  1  0  0  0  0
 14  6  1  0  0  0  0
 15  6  1  0  0  0  0
M  END
