14
title
O 0.3565776 1.5648149 0.27118695
C 0.3672794 0.17014658 0.27973703
C 1.4615015 -0.4179565 1.0016171
C 2.3669224 -0.93311745 1.6019114
C -0.9437716 -0.63149816 0.3253572
C -1.9784273 0.13804157 -0.4820494
O -1.0660933 0.23241568 -1.624195
C -0.114145905 -0.5835574 -0.9390477
H 0.0756301 1.8198383 -0.61930025
H 3.1727219 -1.3753878 2.1337492
H -1.123218 -1.4264168 1.0352232
H -2.8568065 -0.45309064 -0.7563156
H -2.276682 1.1223695 -0.10886861
H 0.45526648 -1.3081046 -1.5090872
