16
title
C -0.4074437 1.6346474 0.13906194
C -0.36913407 0.12516415 0.1135874
C -1.5589345 -0.57629913 0.6594177
O -2.5301452 -0.026817586 1.1198463
C 0.30438563 -0.70213115 -0.9955794
C 1.5893316 -0.007741865 -1.4335347
O 2.0590844 0.060140926 -0.056614887
C 0.91640776 -0.66847324 0.3700769
H 0.598801 2.050191 0.06003431
H -1.0217317 2.0305247 -0.67550915
H -0.8520954 1.9721835 1.0783583
H -1.4965132 -1.6901233 0.6244539
H -0.2099048 -1.4894578 -1.5301672
H 2.245305 -0.65743005 -2.0215192
H 1.5143168 0.97820365 -1.9027959
H 1.0431792 -1.4014239 1.1584325
