title
 OpenBabel02282110003D

 14 15  0  0  1  0  0  0  0  0999 V2000
    0.3566    1.5648    0.2712 O   0  0  0  0  0  0  0  0  0  0  0  0
    0.3673    0.1701    0.2797 C   0  0  1  0  0  0  0  0  0  0  0  0
    1.4615   -0.4180    1.0016 C   0  0  0  0  0  0  0  0  0  0  0  0
    2.3669   -0.9331    1.6019 C   0  0  0  0  0  0  0  0  0  0  0  0
   -0.9438   -0.6315    0.3254 C   0  0  1  0  0  0  0  0  0  0  0  0
   -1.9784    0.1380   -0.4820 C   0  0  0  0  0  0  0  0  0  0  0  0
   -1.0661    0.2324   -1.6242 O   0  0  0  0  0  0  0  0  0  0  0  0
   -0.1141   -0.5836   -0.9390 C   0  0  1  0  0  0  0  0  0  0  0  0
    0.0756    1.8198   -0.6193 H   0  0  0  0  0  0  0  0  0  0  0  0
    3.1727   -1.3754    2.1337 H   0  0  0  0  0  0  0  0  0  0  0  0
   -1.1232   -1.4264    1.0352 H   0  0  0  0  0  0  0  0  0  0  0  0
   -2.8568   -0.4531   -0.7563 H   0  0  0  0  0  0  0  0  0  0  0  0
   -2.2767    1.1224   -0.1089 H   0  0  0  0  0  0  0  0  0  0  0  0
    0.4553   -1.3081   -1.5091 H   0  0  0  0  0  0  0  0  0  0  0  0
  1  2  1  0  0  0  0
  2  8  1  6  0  0  0
  2  5  1  0  0  0  0
  2  3  1  0  0  0  0
  3  4  3  0  0  0  0
  4 10  1  0  0  0  0
  5  8  1  6  0  0  0
  5 11  1  0  0  0  0
  6 13  1  0  0  0  0
  6  5  1  0  0  0  0
  7  8  1  0  0  0  0
  7  6  1  0  0  0  0
  8 14  1  6  0  0  0
  9  1  1  0  0  0  0
 12  6  1  0  0  0  0
M  END
