title
 OpenBabel02282110003D

 20 21  0  0  1  0  0  0  0  0999 V2000
   -0.4716    1.6545    0.1021 C   0  0  0  0  0  0  0  0  0  0  0  0
   -0.3897    0.1406    0.0405 C   0  0  1  0  0  0  0  0  0  0  0  0
   -1.6476   -0.4993   -0.5119 C   0  0  0  0  0  0  0  0  0  0  0  0
   -1.8110   -0.0868   -1.8652 O   0  0  0  0  0  0  0  0  0  0  0  0
    0.8611   -0.6208   -0.3308 C   0  0  1  0  0  0  0  0  0  0  0  0
    2.1315    0.0452    0.2119 C   0  0  0  0  0  0  0  0  0  0  0  0
    1.5417   -0.0386    1.6576 C   0  0  0  0  0  0  0  0  0  0  0  0
    0.2844   -0.7110    1.0902 C   0  0  1  0  0  0  0  0  0  0  0  0
    0.4594    2.1174    0.4347 H   0  0  0  0  0  0  0  0  0  0  0  0
   -0.7145    2.0533   -0.8868 H   0  0  0  0  0  0  0  0  0  0  0  0
   -1.2626    1.9698    0.7936 H   0  0  0  0  0  0  0  0  0  0  0  0
   -1.5677   -1.5959   -0.4433 H   0  0  0  0  0  0  0  0  0  0  0  0
   -2.5137   -0.1919    0.0964 H   0  0  0  0  0  0  0  0  0  0  0  0
   -2.6779   -0.3771   -2.1630 H   0  0  0  0  0  0  0  0  0  0  0  0
    0.8391   -1.3571   -1.1259 H   0  0  0  0  0  0  0  0  0  0  0  0
    3.0145   -0.5873    0.0967 H   0  0  0  0  0  0  0  0  0  0  0  0
    2.3696    1.0396   -0.1788 H   0  0  0  0  0  0  0  0  0  0  0  0
    2.1202   -0.7095    2.2963 H   0  0  0  0  0  0  0  0  0  0  0  0
    1.3935    0.9032    2.1954 H   0  0  0  0  0  0  0  0  0  0  0  0
   -0.2377   -1.5361    1.5635 H   0  0  0  0  0  0  0  0  0  0  0  0
  1  9  1  0  0  0  0
  1 11  1  0  0  0  0
  2  1  1  0  0  0  0
  2  8  1  1  0  0  0
  3 12  1  0  0  0  0
  3  2  1  0  0  0  0
  3 13  1  0  0  0  0
  4  3  1  0  0  0  0
  5  2  1  6  0  0  0
  5  6  1  0  0  0  0
  6  7  1  0  0  0  0
  7 19  1  0  0  0  0
  7 18  1  0  0  0  0
  8  5  1  6  0  0  0
  8 20  1  0  0  0  0
  8  7  1  0  0  0  0
 10  1  1  0  0  0  0
 14  4  1  0  0  0  0
 15  5  1  0  0  0  0
 16  6  1  0  0  0  0
 17  6  1  0  0  0  0
M  END
