title
 OpenBabel02282110003D

 15 16  0  0  1  0  0  0  0  0999 V2000
    0.2730    1.5650   -0.3006 O   0  0  0  0  0  0  0  0  0  0  0  0
    0.3294    0.1714   -0.2407 C   0  0  1  0  0  0  0  0  0  0  0  0
    1.4235   -0.4098   -0.9952 C   0  0  0  0  0  0  0  0  0  0  0  0
    2.3183   -0.8480   -1.5828 N   0  0  0  0  0  0  0  0  0  0  0  0
   -0.0724   -0.6155    0.9942 C   0  0  1  0  0  0  0  0  0  0  0  0
   -1.1461    0.1618    1.7646 C   0  0  0  0  0  0  0  0  0  0  0  0
   -2.0444    0.1627    0.4862 C   0  0  0  0  0  0  0  0  0  0  0  0
   -0.9545   -0.6130   -0.2640 C   0  0  1  0  0  0  0  0  0  0  0  0
    1.0337    1.9220    0.1724 H   0  0  0  0  0  0  0  0  0  0  0  0
    0.5733   -1.3912    1.3880 H   0  0  0  0  0  0  0  0  0  0  0  0
   -1.5763   -0.4269    2.5764 H   0  0  0  0  0  0  0  0  0  0  0  0
   -0.8437    1.1373    2.1530 H   0  0  0  0  0  0  0  0  0  0  0  0
   -2.9499   -0.4321    0.6168 H   0  0  0  0  0  0  0  0  0  0  0  0
   -2.3068    1.1357    0.0679 H   0  0  0  0  0  0  0  0  0  0  0  0
   -1.1112   -1.3877   -1.0044 H   0  0  0  0  0  0  0  0  0  0  0  0
  1  2  1  0  0  0  0
  1  9  1  0  0  0  0
  2  5  1  1  0  0  0
  3  2  1  0  0  0  0
  4  3  3  0  0  0  0
  5  8  1  6  0  0  0
  5 10  1  0  0  0  0
  5  6  1  0  0  0  0
  6 12  1  0  0  0  0
  6 11  1  0  0  0  0
  7 13  1  0  0  0  0
  7  6  1  0  0  0  0
  8  2  1  6  0  0  0
  8  7  1  0  0  0  0
 14  7  1  0  0  0  0
 15  8  1  0  0  0  0
M  END
