18
title
O 1.3089057 1.6521202 1.2388433
C 1.0167527 1.0767311 -0.03872773
C -0.3446392 0.42444298 0.0016934877
O -1.3308705 1.3322878 0.4211377
C -0.8921218 -0.55892605 -0.977262
C 0.16908179 -1.537014 -1.4941368
C 0.46349058 -1.9826586 -0.022435933
C -0.59642076 -0.9944474 0.47804353
H 1.4179256 0.92395353 1.8608729
H 1.0036751 1.9172214 -0.7397373
H 1.8038223 0.3815076 -0.3525166
H -0.92941344 1.8165879 1.1551912
H -1.8512028 -0.35835224 -1.4394978
H -0.26737407 -2.3461447 -2.0831385
H 0.99884707 -1.1099348 -2.0664096
H 0.18174772 -3.023487 0.15151682
H 1.4859419 -1.8449051 0.34716764
H -1.304566 -1.1637771 1.2800946
