16
title
O 1.0829492 2.1704314 -0.36523053
C 1.1394082 0.7564191 -0.57908
C -0.2539025 0.18695147 -0.47303256
O -1.1783534 0.8547592 -1.284613
C -0.61760336 -1.2705449 -0.33167174
C 0.33943093 -1.9797732 0.6159517
O 0.16284908 -0.95299333 1.6343331
C -0.83295757 -0.3114758 0.83001167
H 0.9410563 2.311211 0.577401
H 1.5248463 0.62677515 -1.5952064
H 1.8223684 0.27184778 0.12587878
H -0.9523093 1.7912956 -1.1962589
H -1.3312515 -1.7314142 -1.0007173
H -0.04625373 -2.9403632 0.97554857
H 1.3867563 -2.0952513 0.3143477
H -1.7272338 0.07621462 1.3042822
