20
title
C 1.0715443 2.0463374 0.062108986
O 0.89023876 0.76105714 0.6226202
C -0.39886215 0.23029187 0.45833617
C -1.4762607 0.9253843 1.2685498
C -0.82012945 -0.34425882 -0.86924803
C 0.3760399 -0.9460408 -1.6193029
C 0.6896876 -1.8536942 -0.38851708
C -0.51224905 -1.2545753 0.34990624
H 2.1418347 2.2636385 0.103653066
H 0.73872936 2.0836453 -0.9848399
H 0.53666216 2.825297 0.6237035
H -1.6357524 1.9558767 0.93492746
H -2.429894 0.39825097 1.1751536
H -1.1977279 0.94845736 2.327017
H -1.7777596 -0.09732322 -1.3151367
H 0.06843903 -1.5269749 -2.4914522
H 1.1582228 -0.24526587 -1.9241327
H 0.55767787 -2.9142554 -0.6125591
H 1.6586643 -1.7052319 0.09299203
H -1.1964808 -1.8078637 0.9841858
