title
 OpenBabel02282110003D

 19 20  0  0  1  0  0  0  0  0999 V2000
   -0.5542    1.6569   -0.1343 C   0  0  0  0  0  0  0  0  0  0  0  0
   -0.4502    0.1474   -0.0963 C   0  0  1  0  0  0  0  0  0  0  0  0
   -1.6099   -0.5196    0.6332 C   0  0  0  0  0  0  0  0  0  0  0  0
   -1.5552   -0.2480    2.0216 O   0  0  0  0  0  0  0  0  0  0  0  0
    0.2210   -0.6833   -1.1192 C   0  0  1  0  0  0  0  0  0  0  0  0
    1.4460   -0.0085   -1.7359 C   0  0  0  0  0  0  0  0  0  0  0  0
    1.9752    0.1451   -0.2882 C   0  0  0  0  0  0  0  0  0  0  0  0
    0.7906   -0.5788    0.2956 N   0  0  1  0  0  0  0  0  0  0  0  0
    0.3029    2.1477   -0.5968 H   0  0  0  0  0  0  0  0  0  0  0  0
   -1.4450    1.9487   -0.7012 H   0  0  0  0  0  0  0  0  0  0  0  0
   -0.6688    2.0402    0.8840 H   0  0  0  0  0  0  0  0  0  0  0  0
   -2.5674   -0.1271    0.2743 H   0  0  0  0  0  0  0  0  0  0  0  0
   -1.5913   -1.6023    0.4379 H   0  0  0  0  0  0  0  0  0  0  0  0
   -0.6766   -0.5388    2.2978 H   0  0  0  0  0  0  0  0  0  0  0  0
   -0.2180   -1.6080   -1.4844 H   0  0  0  0  0  0  0  0  0  0  0  0
    2.0502   -0.6929   -2.3336 H   0  0  0  0  0  0  0  0  0  0  0  0
    1.2636    0.8976   -2.3206 H   0  0  0  0  0  0  0  0  0  0  0  0
    2.8788   -0.4357   -0.0935 H   0  0  0  0  0  0  0  0  0  0  0  0
    2.1214    1.1574    0.0995 H   0  0  0  0  0  0  0  0  0  0  0  0
  1  2  1  0  0  0  0
  1 11  1  0  0  0  0
  2  5  1  6  0  0  0
  2  3  1  0  0  0  0
  3  4  1  0  0  0  0
  4 14  1  0  0  0  0
  5  8  1  1  0  0  0
  6  5  1  0  0  0  0
  6  7  1  0  0  0  0
  7 18  1  0  0  0  0
  7 19  1  0  0  0  0
  7  8  1  0  0  0  0
  8  2  1  1  0  0  0
  9  1  1  0  0  0  0
 10  1  1  0  0  0  0
 12  3  1  0  0  0  0
 13  3  1  0  0  0  0
 15  5  1  0  0  0  0
 16  6  1  0  0  0  0
 17  6  1  0  0  0  0
M  END
