20
title
C 1.1803713 2.2885711 0.09618848
C 1.1242789 0.83131045 0.57215786
C -0.2615784 0.22679488 0.4518425
O -1.2195387 0.8653609 1.2713794
C -0.8621731 -0.3186066 -0.82282746
C 0.16149089 -1.0821811 -1.6722057
C 0.45802835 -2.0168855 -0.4516995
C -0.5667772 -1.2399255 0.3803725
H 2.1909368 2.6964455 0.1907376
H 0.88068444 2.374291 -0.95419943
H 0.5170708 2.9257932 0.69108725
H 1.8463671 0.2366632 0.005150341
H 1.4284085 0.77490944 1.6244783
H -1.444248 1.7070562 0.86125964
H -1.8219547 0.048732735 -1.1687204
H -0.30210885 -1.6259395 -2.4982944
H 0.9984854 -0.5015835 -2.0740168
H 0.14266244 -3.0449274 -0.6422441
H 1.48522 -2.0404391 -0.07364414
H -1.2646408 -1.6655077 1.0911498
