9
title
C 0.058778223 -4.4788218 -0.027799837
C 0.044071566 -3.2693715 -0.017992191
C 0.027448302 -1.9196833 -0.0085311625
C 0.0108956145 -0.6995414 -0.0019340337
C -0.007705672 0.64272016 0.005004557
C -0.025217127 1.8610262 0.010544532
C -0.043995056 3.2181501 0.01733185
N -0.060374435 4.382299 0.022480229
H 0.07306291 -5.5411735 -0.03383727
