12
title
N -0.8426496 -4.0850058 -0.013875483
C -0.87158483 -2.9302814 -0.0074768527
C -0.879399 -1.4699811 0.0003338791
C 0.5624772 -0.8946291 -0.010076298
C 0.5643166 0.5575651 -0.0023732088
C 0.5427826 1.7649039 0.0043042684
C 0.5250588 3.1304698 0.01178902
N 0.50825435 4.2917213 0.018286249
H -1.4313484 -1.1088172 -0.87287056
H -1.4149226 -1.1181546 0.88747054
H 1.1114931 -1.269055 0.8613819
H 1.0950748 -1.2597018 -0.89557797
