title
 OpenBabel02282110003D

  8  7  0  0  0  0  0  0  0  0999 V2000
    0.0600   -4.4105   -0.0242 N   0  0  0  0  0  0  0  0  0  0  0  0
    0.0441   -3.2474   -0.0179 C   0  0  0  0  0  0  0  0  0  0  0  0
    0.0255   -1.8889   -0.0104 C   0  0  0  0  0  0  0  0  0  0  0  0
    0.0090   -0.6725   -0.0037 C   0  0  0  0  0  0  0  0  0  0  0  0
   -0.0093    0.6725    0.0037 C   0  0  0  0  0  0  0  0  0  0  0  0
   -0.0257    1.8888    0.0104 C   0  0  0  0  0  0  0  0  0  0  0  0
   -0.0440    3.2474    0.0179 C   0  0  0  0  0  0  0  0  0  0  0  0
   -0.0596    4.4105    0.0243 N   0  0  0  0  0  0  0  0  0  0  0  0
  1  2  3  0  0  0  0
  2  3  1  0  0  0  0
  3  4  3  0  0  0  0
  4  5  1  0  0  0  0
  5  6  3  0  0  0  0
  6  7  1  0  0  0  0
  7  8  3  0  0  0  0
M  END
