title
 OpenBabel02282110003D

 10  9  0  0  0  0  0  0  0  0999 V2000
    0.0565   -4.4521   -0.0271 C   0  0  0  0  0  0  0  0  0  0  0  0
    0.0440   -3.2420   -0.0168 C   0  0  0  0  0  0  0  0  0  0  0  0
    0.0279   -1.8919   -0.0083 C   0  0  0  0  0  0  0  0  0  0  0  0
    0.0128   -0.6706   -0.0010 C   0  0  0  0  0  0  0  0  0  0  0  0
   -0.0045    0.6708    0.0064 C   0  0  0  0  0  0  0  0  0  0  0  0
   -0.0222    1.8920    0.0118 C   0  0  0  0  0  0  0  0  0  0  0  0
   -0.0459    3.2420    0.0156 C   0  0  0  0  0  0  0  0  0  0  0  0
   -0.0672    4.4520    0.0203 C   0  0  0  0  0  0  0  0  0  0  0  0
    0.0651   -5.5144   -0.0383 H   0  0  0  0  0  0  0  0  0  0  0  0
   -0.0821    5.5142    0.0262 H   0  0  0  0  0  0  0  0  0  0  0  0
  1  2  3  0  0  0  0
  2  3  1  0  0  0  0
  3  4  3  0  0  0  0
  4  5  1  0  0  0  0
  5  6  3  0  0  0  0
  6  7  1  0  0  0  0
  7  8  3  0  0  0  0
  8 10  1  0  0  0  0
  9  1  1  0  0  0  0
M  END
