13
title
C -0.8406047 -4.1563716 -0.014562362
C -0.88448524 -2.9557629 -0.0075790016
C -0.8959574 -1.4999752 0.0003312472
C 0.5443602 -0.9157854 -0.010160756
C 0.55374485 0.5361888 -0.0024678898
C 0.5346469 1.7442954 0.0042719003
C 0.52162784 3.1093886 0.011939651
N 0.5094791 4.271042 0.018513948
H -0.8215505 -5.2182894 -0.02040183
H -1.4423176 -1.1206747 -0.87037474
H -1.4257152 -1.1300892 0.88523155
H 1.0936065 -1.2913599 0.86081946
H 1.0769962 -1.2819424 -0.8953516
