title
 OpenBabel02282110003D

 12 11  0  0  0  0  0  0  0  0999 V2000
   -0.8426   -4.0850   -0.0139 N   0  0  0  0  0  0  0  0  0  0  0  0
   -0.8716   -2.9303   -0.0075 C   0  0  0  0  0  0  0  0  0  0  0  0
   -0.8794   -1.4700    0.0003 C   0  0  0  0  0  0  0  0  0  0  0  0
    0.5625   -0.8946   -0.0101 C   0  0  0  0  0  0  0  0  0  0  0  0
    0.5643    0.5576   -0.0024 C   0  0  0  0  0  0  0  0  0  0  0  0
    0.5428    1.7649    0.0043 C   0  0  0  0  0  0  0  0  0  0  0  0
    0.5251    3.1305    0.0118 C   0  0  0  0  0  0  0  0  0  0  0  0
    0.5083    4.2917    0.0183 N   0  0  0  0  0  0  0  0  0  0  0  0
   -1.4313   -1.1088   -0.8729 H   0  0  0  0  0  0  0  0  0  0  0  0
   -1.4149   -1.1182    0.8875 H   0  0  0  0  0  0  0  0  0  0  0  0
    1.1115   -1.2691    0.8614 H   0  0  0  0  0  0  0  0  0  0  0  0
    1.0951   -1.2597   -0.8956 H   0  0  0  0  0  0  0  0  0  0  0  0
  1  2  3  0  0  0  0
  2  3  1  0  0  0  0
  3 10  1  0  0  0  0
  4  5  1  0  0  0  0
  4  3  1  0  0  0  0
  4 11  1  0  0  0  0
  5  6  3  0  0  0  0
  6  7  1  0  0  0  0
  7  8  3  0  0  0  0
  9  3  1  0  0  0  0
 12  4  1  0  0  0  0
M  END
