title
 OpenBabel02282110003D

 13 12  0  0  0  0  0  0  0  0999 V2000
   -0.8406   -4.1564   -0.0146 C   0  0  0  0  0  0  0  0  0  0  0  0
   -0.8845   -2.9558   -0.0076 C   0  0  0  0  0  0  0  0  0  0  0  0
   -0.8960   -1.5000    0.0003 C   0  0  0  0  0  0  0  0  0  0  0  0
    0.5444   -0.9158   -0.0102 C   0  0  0  0  0  0  0  0  0  0  0  0
    0.5537    0.5362   -0.0025 C   0  0  0  0  0  0  0  0  0  0  0  0
    0.5346    1.7443    0.0043 C   0  0  0  0  0  0  0  0  0  0  0  0
    0.5216    3.1094    0.0119 C   0  0  0  0  0  0  0  0  0  0  0  0
    0.5095    4.2710    0.0185 N   0  0  0  0  0  0  0  0  0  0  0  0
   -0.8216   -5.2183   -0.0204 H   0  0  0  0  0  0  0  0  0  0  0  0
   -1.4423   -1.1207   -0.8704 H   0  0  0  0  0  0  0  0  0  0  0  0
   -1.4257   -1.1301    0.8852 H   0  0  0  0  0  0  0  0  0  0  0  0
    1.0936   -1.2914    0.8608 H   0  0  0  0  0  0  0  0  0  0  0  0
    1.0770   -1.2819   -0.8954 H   0  0  0  0  0  0  0  0  0  0  0  0
  1  2  3  0  0  0  0
  2  3  1  0  0  0  0
  3 11  1  0  0  0  0
  4  5  1  0  0  0  0
  4  3  1  0  0  0  0
  4 12  1  0  0  0  0
  5  6  3  0  0  0  0
  6  7  1  0  0  0  0
  7  8  3  0  0  0  0
  9  1  1  0  0  0  0
 10  3  1  0  0  0  0
 13  4  1  0  0  0  0
M  END
