14
title
C -1.985249 -3.2871978 -0.64417124
C -1.9317559 -2.186216 -0.16882445
C -1.8816087 -0.8443197 0.41509092
C -0.54348165 -0.24982081 0.40503496
C 0.55113095 0.24551596 0.39725572
C 1.8892677 0.84000957 0.38817304
C 1.9284081 2.188101 -0.1821568
C 1.9729433 3.2941225 -0.646603
H -2.0282083 -4.260411 -1.0665244
H -2.5753658 -0.18715964 -0.1272856
H -2.2587643 -0.88401985 1.4463422
H 2.2860236 0.868678 1.4124117
H 2.5724888 0.18877949 -0.17435603
H 2.0079398 4.271816 -1.0592306
