title
 OpenBabel02282110003D

 13 12  0  0  0  0  0  0  0  0999 V2000
   -0.5086   -4.3614   -0.0187 C   0  0  0  0  0  0  0  0  0  0  0  0
   -0.5281   -3.1544   -0.0119 C   0  0  0  0  0  0  0  0  0  0  0  0
   -0.5492   -1.7938   -0.0042 C   0  0  0  0  0  0  0  0  0  0  0  0
   -0.5721   -0.5842    0.0027 C   0  0  0  0  0  0  0  0  0  0  0  0
   -0.5731    0.8686    0.0105 C   0  0  0  0  0  0  0  0  0  0  0  0
    0.8681    1.4459   -0.0008 C   0  0  0  0  0  0  0  0  0  0  0  0
    0.8678    2.9064    0.0072 C   0  0  0  0  0  0  0  0  0  0  0  0
    0.8455    4.0616    0.0135 N   0  0  0  0  0  0  0  0  0  0  0  0
   -0.4928   -5.4232   -0.0247 H   0  0  0  0  0  0  0  0  0  0  0  0
   -1.1199    1.2500   -0.8599 H   0  0  0  0  0  0  0  0  0  0  0  0
   -1.1023    1.2406    0.8956 H   0  0  0  0  0  0  0  0  0  0  0  0
    1.4203    1.0827    0.8715 H   0  0  0  0  0  0  0  0  0  0  0  0
    1.4027    1.0922   -0.8879 H   0  0  0  0  0  0  0  0  0  0  0  0
  1  2  3  0  0  0  0
  2  3  1  0  0  0  0
  3  4  3  0  0  0  0
  4  5  1  0  0  0  0
  5 11  1  0  0  0  0
  6  7  1  0  0  0  0
  6  5  1  0  0  0  0
  6 12  1  0  0  0  0
  7  8  3  0  0  0  0
  9  1  1  0  0  0  0
 10  5  1  0  0  0  0
 13  6  1  0  0  0  0
M  END
