title
 OpenBabel02282110003D

 12 11  0  0  0  0  0  0  0  0999 V2000
   -2.0122   -3.3179   -0.3483 N   0  0  0  0  0  0  0  0  0  0  0  0
   -1.9625   -2.1936   -0.0920 C   0  0  0  0  0  0  0  0  0  0  0  0
   -1.9129   -0.7633    0.2375 C   0  0  0  0  0  0  0  0  0  0  0  0
   -0.5544   -0.2255    0.2288 C   0  0  0  0  0  0  0  0  0  0  0  0
    0.5587    0.2231    0.2206 C   0  0  0  0  0  0  0  0  0  0  0  0
    1.9172    0.7609    0.2092 C   0  0  0  0  0  0  0  0  0  0  0  0
    1.9606    2.1946   -0.1059 C   0  0  0  0  0  0  0  0  0  0  0  0
    2.0055    3.3217   -0.3510 N   0  0  0  0  0  0  0  0  0  0  0  0
   -2.5401   -0.2201   -0.4807 H   0  0  0  0  0  0  0  0  0  0  0  0
   -2.3761   -0.6186    1.2218 H   0  0  0  0  0  0  0  0  0  0  0  0
    2.3990    0.6057    1.1827 H   0  0  0  0  0  0  0  0  0  0  0  0
    2.5305    0.2256   -0.5267 H   0  0  0  0  0  0  0  0  0  0  0  0
  1  2  3  0  0  0  0
  2  3  1  0  0  0  0
  3 10  1  0  0  0  0
  4  3  1  0  0  0  0
  5  4  3  0  0  0  0
  6  5  1  0  0  0  0
  6 11  1  0  0  0  0
  7  6  1  0  0  0  0
  8  7  3  0  0  0  0
  9  3  1  0  0  0  0
 12  6  1  0  0  0  0
M  END
