12
title
N -2.0121531 -3.3179464 -0.34826308
C -1.9624575 -2.1935651 -0.09197008
C -1.9129101 -0.7632879 0.23753743
C -0.55436355 -0.2254989 0.22878389
C 0.5586522 0.22308864 0.2205672
C 1.917173 0.7608913 0.20915797
C 1.9605695 2.1946263 -0.105869286
N 2.0054798 3.3216982 -0.35098478
H -2.5400913 -0.22014962 -0.48073578
H -2.3761005 -0.6186333 1.2217549
H 2.39905 0.6057316 1.1827459
H 2.530474 0.22555532 -0.52674186
