title
 OpenBabel02282110003D

 16 15  0  0  0  0  0  0  0  0999 V2000
   -1.4185   -3.9729   -0.0118 C   0  0  0  0  0  0  0  0  0  0  0  0
   -1.4161   -2.7715    0.0092 C   0  0  0  0  0  0  0  0  0  0  0  0
   -1.3777   -1.3155    0.0352 C   0  0  0  0  0  0  0  0  0  0  0  0
    0.0572   -0.7666   -0.0294 C   0  0  0  0  0  0  0  0  0  0  0  0
    0.0365    0.6915    0.0187 N   0  0  0  0  0  0  0  0  0  0  0  0
    1.3743    1.2712    0.0200 C   0  0  0  0  0  0  0  0  0  0  0  0
    1.3141    2.7355    0.0183 C   0  0  0  0  0  0  0  0  0  0  0  0
    1.2681    3.8892   -0.0072 N   0  0  0  0  0  0  0  0  0  0  0  0
   -1.4358   -5.0344   -0.0287 H   0  0  0  0  0  0  0  0  0  0  0  0
   -1.9571   -0.9185   -0.8098 H   0  0  0  0  0  0  0  0  0  0  0  0
   -1.8587   -0.9351    0.9435 H   0  0  0  0  0  0  0  0  0  0  0  0
    0.6187   -1.1297    0.8392 H   0  0  0  0  0  0  0  0  0  0  0  0
    0.5637   -1.1680   -0.9245 H   0  0  0  0  0  0  0  0  0  0  0  0
   -0.4862    1.0578   -0.7715 H   0  0  0  0  0  0  0  0  0  0  0  0
    1.8975    0.9484    0.9289 H   0  0  0  0  0  0  0  0  0  0  0  0
    2.0062    0.9566   -0.8311 H   0  0  0  0  0  0  0  0  0  0  0  0
  1  2  3  0  0  0  0
  2  3  1  0  0  0  0
  3 11  1  0  0  0  0
  4  5  1  0  0  0  0
  4  3  1  0  0  0  0
  4 12  1  0  0  0  0
  5  6  1  0  0  0  0
  6 15  1  0  0  0  0
  7  6  1  0  0  0  0
  8  7  3  0  0  0  0
  9  1  1  0  0  0  0
 10  3  1  0  0  0  0
 13  4  1  0  0  0  0
 14  5  1  0  0  0  0
 16  6  1  0  0  0  0
M  END
