title
 OpenBabel02282110003D

 18 17  0  0  0  0  0  0  0  0999 V2000
   -1.4269   -4.0119   -0.0080 C   0  0  0  0  0  0  0  0  0  0  0  0
   -1.4423   -2.8100   -0.0011 C   0  0  0  0  0  0  0  0  0  0  0  0
   -1.4261   -1.3523    0.0071 C   0  0  0  0  0  0  0  0  0  0  0  0
   -0.0002   -0.7651   -0.0044 C   0  0  0  0  0  0  0  0  0  0  0  0
    0.0002    0.7651    0.0044 C   0  0  0  0  0  0  0  0  0  0  0  0
    1.4260    1.3523   -0.0071 C   0  0  0  0  0  0  0  0  0  0  0  0
    1.4422    2.8100    0.0011 C   0  0  0  0  0  0  0  0  0  0  0  0
    1.4271    4.0119    0.0080 C   0  0  0  0  0  0  0  0  0  0  0  0
   -1.4268   -5.0735   -0.0139 H   0  0  0  0  0  0  0  0  0  0  0  0
   -1.9826   -0.9761   -0.8615 H   0  0  0  0  0  0  0  0  0  0  0  0
   -1.9643   -0.9861    0.8915 H   0  0  0  0  0  0  0  0  0  0  0  0
    0.5478   -1.1463    0.8655 H   0  0  0  0  0  0  0  0  0  0  0  0
    0.5295   -1.1363   -0.8898 H   0  0  0  0  0  0  0  0  0  0  0  0
   -0.5479    1.1464   -0.8655 H   0  0  0  0  0  0  0  0  0  0  0  0
   -0.5296    1.1363    0.8898 H   0  0  0  0  0  0  0  0  0  0  0  0
    1.9825    0.9761    0.8615 H   0  0  0  0  0  0  0  0  0  0  0  0
    1.9642    0.9861   -0.8914 H   0  0  0  0  0  0  0  0  0  0  0  0
    1.4274    5.0735    0.0132 H   0  0  0  0  0  0  0  0  0  0  0  0
  1  2  3  0  0  0  0
  2  3  1  0  0  0  0
  3 11  1  0  0  0  0
  4  5  1  0  0  0  0
  4  3  1  0  0  0  0
  4 12  1  0  0  0  0
  5 15  1  0  0  0  0
  6  7  1  0  0  0  0
  6  5  1  0  0  0  0
  6 16  1  0  0  0  0
  7  8  3  0  0  0  0
  8 18  1  0  0  0  0
  9  1  1  0  0  0  0
 10  3  1  0  0  0  0
 13  4  1  0  0  0  0
 14  5  1  0  0  0  0
 17  6  1  0  0  0  0
M  END
