15
title
C -1.4003884 -3.8526838 -0.0080825845
C -1.407842 -2.652301 -0.0014086824
C -1.4533339 -1.1974481 0.0071104574
O -0.13506372 -0.67424464 -0.0023643589
C -0.11233802 0.7332295 0.00518636
C 1.3644845 1.1450859 -0.006604065
C 1.5273526 2.5952187 -6.663177e-05
N 1.6355796 3.7453938 0.00518598
H -1.3875961 -4.9147725 -0.0142843975
H -2.0146117 -0.83568823 -0.8707113
H -1.9979879 -0.84554076 0.8992918
H -0.628446 1.1461495 -0.87582904
H -0.6115178 1.1363424 0.9003828
H 1.8663788 0.71723664 0.86722714
H 1.8495774 0.7270385 -0.89455754
