title
 OpenBabel02282110003D

 17 16  0  0  0  0  0  0  0  0999 V2000
   -1.4398   -4.0278   -0.0077 C   0  0  0  0  0  0  0  0  0  0  0  0
   -1.4577   -2.8262   -0.0011 C   0  0  0  0  0  0  0  0  0  0  0  0
   -1.4436   -1.3688    0.0070 C   0  0  0  0  0  0  0  0  0  0  0  0
   -0.0169   -0.7840   -0.0043 C   0  0  0  0  0  0  0  0  0  0  0  0
   -0.0175    0.7465    0.0043 C   0  0  0  0  0  0  0  0  0  0  0  0
    1.4126    1.3220   -0.0070 C   0  0  0  0  0  0  0  0  0  0  0  0
    1.4310    2.7832    0.0013 C   0  0  0  0  0  0  0  0  0  0  0  0
    1.4256    3.9387    0.0074 N   0  0  0  0  0  0  0  0  0  0  0  0
   -1.4391   -5.0896   -0.0133 H   0  0  0  0  0  0  0  0  0  0  0  0
   -1.9995   -0.9924   -0.8619 H   0  0  0  0  0  0  0  0  0  0  0  0
   -1.9815   -1.0023    0.8913 H   0  0  0  0  0  0  0  0  0  0  0  0
    0.5306   -1.1646    0.8661 H   0  0  0  0  0  0  0  0  0  0  0  0
    0.5126   -1.1547   -0.8899 H   0  0  0  0  0  0  0  0  0  0  0  0
   -0.5627    1.1288   -0.8662 H   0  0  0  0  0  0  0  0  0  0  0  0
   -0.5449    1.1189    0.8900 H   0  0  0  0  0  0  0  0  0  0  0  0
    1.9734    0.9629    0.8641 H   0  0  0  0  0  0  0  0  0  0  0  0
    1.9555    0.9729   -0.8934 H   0  0  0  0  0  0  0  0  0  0  0  0
  1  2  3  0  0  0  0
  2  3  1  0  0  0  0
  3 11  1  0  0  0  0
  4  5  1  0  0  0  0
  4  3  1  0  0  0  0
  4 12  1  0  0  0  0
  5 15  1  0  0  0  0
  6  7  1  0  0  0  0
  6  5  1  0  0  0  0
  6 16  1  0  0  0  0
  7  8  3  0  0  0  0
  9  1  1  0  0  0  0
 10  3  1  0  0  0  0
 13  4  1  0  0  0  0
 14  5  1  0  0  0  0
 17  6  1  0  0  0  0
M  END
