17
title
C -1.4398297 -4.0278397 -0.0076916404
C -1.4577284 -2.8262005 -0.0010835308
C -1.4436479 -1.368769 0.0070126276
C -0.01688598 -0.7840103 -0.0043179453
C -0.017474754 0.74646294 0.004283188
C 1.4126475 1.3220221 -0.0070167854
C 1.4309518 2.7831795 0.0012683867
N 1.4256196 3.9386985 0.0074294438
H -1.4391365 -5.0895624 -0.013295721
H -1.999511 -0.9923847 -0.86191505
H -1.9815317 -1.0022753 0.8913428
H 0.5305649 -1.1645811 0.86606014
H 0.51259375 -1.1547288 -0.889931
H -0.5627409 1.1287607 -0.86621964
H -0.54485345 1.1188921 0.88995194
H 1.9733899 0.9629456 0.86407274
H 1.9554753 0.97291386 -0.89339256
