14
title
N -1.3823497 -3.8646586 -0.0075511215
C -1.355338 -2.7099018 -0.001770031
C -1.2919387 -1.2519234 0.005413428
C 0.15525252 -0.74846876 -0.005668446
O 0.08818822 0.66293585 0.0025402745
C 1.3608036 1.2656687 -0.0061657233
C 1.2000289 2.7218606 0.0034012082
N 1.1042781 3.872032 0.010714031
H -1.8202865 -0.85811853 -0.86878055
H -1.8035343 -0.86755145 0.89365214
H 0.69687945 -1.1226325 0.87618434
H 0.6799243 -1.1130948 -0.9016499
H 1.9541056 0.96962535 0.87384707
H 1.9373219 0.9794091 -0.90045285
