15
title
C -1.3889492 -3.9333444 -0.0071310834
C -1.3740169 -2.7319908 -0.0011874159
C -1.3168848 -1.276735 0.0058499603
C 0.12567154 -0.76398826 -0.0051262537
O 0.06913248 0.6518707 0.0026962394
C 1.3442639 1.2416439 -0.0061605135
C 1.2011858 2.7005725 0.0026926207
N 1.1221973 3.852148 0.0090502
H -1.4200774 -4.9946976 -0.012027244
H -1.840787 -0.86810064 -0.86603385
H -1.8242102 -0.8772446 0.891656
H 0.66947424 -1.1361578 0.8766055
H 0.652706 -1.1270202 -0.90073824
H 1.9370948 0.9416461 0.87362254
H 1.9206227 0.95065093 -0.8998201
