title
 OpenBabel02282110003D

 14 13  0  0  0  0  0  0  0  0999 V2000
   -2.5384   -3.1673    0.0081 O   0  0  0  0  0  0  0  0  0  0  0  0
   -2.4563   -1.9605    0.0120 C   0  0  0  0  0  0  0  0  0  0  0  0
   -1.2180   -1.2253    0.0052 C   0  0  0  0  0  0  0  0  0  0  0  0
   -0.1917   -0.5878   -0.0016 C   0  0  0  0  0  0  0  0  0  0  0  0
    1.0350    0.1920   -0.0092 C   0  0  0  0  0  0  0  0  0  0  0  0
    0.7770    1.7224    0.0022 C   0  0  0  0  0  0  0  0  0  0  0  0
    2.0187    2.4833   -0.0059 C   0  0  0  0  0  0  0  0  0  0  0  0
    3.0610    3.0811   -0.0126 C   0  0  0  0  0  0  0  0  0  0  0  0
   -3.3621   -1.3202    0.0214 H   0  0  0  0  0  0  0  0  0  0  0  0
    1.6468   -0.0799    0.8590 H   0  0  0  0  0  0  0  0  0  0  0  0
    1.6293   -0.0698   -0.8926 H   0  0  0  0  0  0  0  0  0  0  0  0
    0.1658    1.9881   -0.8677 H   0  0  0  0  0  0  0  0  0  0  0  0
    0.1834    1.9780    0.8872 H   0  0  0  0  0  0  0  0  0  0  0  0
    3.9733    3.6247   -0.0181 H   0  0  0  0  0  0  0  0  0  0  0  0
  1  2  2  0  0  0  0
  2  9  1  0  0  0  0
  3  2  1  0  0  0  0
  4  3  3  0  0  0  0
  5  4  1  0  0  0  0
  5  6  1  0  0  0  0
  5 10  1  0  0  0  0
  6 13  1  0  0  0  0
  7  6  1  0  0  0  0
  8  7  3  0  0  0  0
 11  5  1  0  0  0  0
 12  6  1  0  0  0  0
 14  8  1  0  0  0  0
M  END
