title
 OpenBabel02282110003D

 13 12  0  0  0  0  0  0  0  0999 V2000
   -1.7398   -2.7957    1.9570 O   0  0  0  0  0  0  0  0  0  0  0  0
   -1.2201   -1.7606    1.6450 C   0  0  0  0  0  0  0  0  0  0  0  0
    0.1923   -1.6700    1.0566 C   0  0  0  0  0  0  0  0  0  0  0  0
    0.2969   -0.6568    0.0179 C   0  0  0  0  0  0  0  0  0  0  0  0
    0.3320    0.1893   -0.8353 C   0  0  0  0  0  0  0  0  0  0  0  0
    0.3974    1.2091   -1.8794 C   0  0  0  0  0  0  0  0  0  0  0  0
    0.8685    2.5096   -1.3840 C   0  0  0  0  0  0  0  0  0  0  0  0
    1.2367    3.5359   -1.0050 N   0  0  0  0  0  0  0  0  0  0  0  0
   -1.7248   -0.7797    1.7772 H   0  0  0  0  0  0  0  0  0  0  0  0
    0.8671   -1.4201    1.8894 H   0  0  0  0  0  0  0  0  0  0  0  0
    0.4801   -2.6634    0.6984 H   0  0  0  0  0  0  0  0  0  0  0  0
    1.0664    0.8863   -2.6874 H   0  0  0  0  0  0  0  0  0  0  0  0
   -0.5887    1.3535   -2.3392 H   0  0  0  0  0  0  0  0  0  0  0  0
  2  9  1  0  0  0  0
  2  1  2  0  0  0  0
  3  2  1  0  0  0  0
  3 10  1  0  0  0  0
  4  3  1  0  0  0  0
  5  4  3  0  0  0  0
  6  7  1  0  0  0  0
  6  5  1  0  0  0  0
  7  8  3  0  0  0  0
 11  3  1  0  0  0  0
 12  6  1  0  0  0  0
 13  6  1  0  0  0  0
M  END
