title
 OpenBabel02282110003D

 14 13  0  0  0  0  0  0  0  0999 V2000
   -1.9517   -2.4081    2.2016 O   0  0  0  0  0  0  0  0  0  0  0  0
   -1.2809   -1.4992    1.7957 C   0  0  0  0  0  0  0  0  0  0  0  0
    0.0238   -1.6908    1.0175 C   0  0  0  0  0  0  0  0  0  0  0  0
    0.1897   -0.7024   -0.0376 C   0  0  0  0  0  0  0  0  0  0  0  0
    0.2784    0.1355   -0.8959 C   0  0  0  0  0  0  0  0  0  0  0  0
    0.4043    1.1430   -1.9512 C   0  0  0  0  0  0  0  0  0  0  0  0
    1.1208    2.3479   -1.5287 C   0  0  0  0  0  0  0  0  0  0  0  0
    1.7059    3.3406   -1.1927 C   0  0  0  0  0  0  0  0  0  0  0  0
   -1.5554   -0.4366    1.9716 H   0  0  0  0  0  0  0  0  0  0  0  0
    0.8421   -1.6017    1.7487 H   0  0  0  0  0  0  0  0  0  0  0  0
    0.0481   -2.7173    0.6376 H   0  0  0  0  0  0  0  0  0  0  0  0
    0.9164    0.7006   -2.8169 H   0  0  0  0  0  0  0  0  0  0  0  0
   -0.5951    1.4226   -2.3123 H   0  0  0  0  0  0  0  0  0  0  0  0
    2.2244    4.2174   -0.8927 H   0  0  0  0  0  0  0  0  0  0  0  0
  2  9  1  0  0  0  0
  2  1  2  0  0  0  0
  3 10  1  0  0  0  0
  3  2  1  0  0  0  0
  4  3  1  0  0  0  0
  5  4  3  0  0  0  0
  6  7  1  0  0  0  0
  6  5  1  0  0  0  0
  7  8  3  0  0  0  0
  8 14  1  0  0  0  0
 11  3  1  0  0  0  0
 12  6  1  0  0  0  0
 13  6  1  0  0  0  0
M  END
