13
title
O -1.7398212 -2.795701 1.9569958
C -1.2201144 -1.7606335 1.6449529
C 0.19227517 -1.6699682 1.0566444
C 0.29691255 -0.65678823 0.017949732
C 0.33198035 0.18932353 -0.83534604
C 0.3973956 1.2090775 -1.8794054
C 0.86845624 2.5095582 -1.3839992
N 1.2366744 3.535944 -1.0050365
H -1.7248306 -0.77965295 1.7772032
H 0.8671497 -1.4201176 1.889425
H 0.48009944 -2.6633952 0.69844
H 1.0664109 0.8862554 -2.68744
H -0.588733 1.3534952 -2.3391545
