13
title
O -2.546292 -3.1856349 0.0073158233
C -2.4726205 -1.9792761 0.011970982
C -1.2335821 -1.2404989 0.005964639
C -0.20573656 -0.6067723 -0.0010086658
C 1.0260481 0.16474238 -0.008623797
C 0.76000386 1.6926645 0.0019268406
C 2.0033176 2.4592047 -0.0061220857
N 2.9980228 3.046607 -0.012435662
H -3.380007 -1.3422768 0.021242056
H 1.6359142 -0.10689125 0.86073893
H 1.6191701 -0.097626306 -0.8923001
H 0.16166766 1.9719442 -0.8709129
H 0.17853697 1.9627303 0.8889705
