title
 OpenBabel02282110003D

 13 12  0  0  0  0  0  0  0  0999 V2000
   -1.2468   -3.2311    1.7329 O   0  0  0  0  0  0  0  0  0  0  0  0
   -0.8456   -2.6608    0.7547 C   0  0  0  0  0  0  0  0  0  0  0  0
    0.3689   -1.7364    0.7594 C   0  0  0  0  0  0  0  0  0  0  0  0
    0.2629   -0.7569   -0.2992 N   0  0  0  0  0  0  0  0  0  0  0  0
    0.3947    0.4515    0.0037 C   0  0  0  0  0  0  0  0  0  0  0  0
    0.2905    1.4020   -0.9713 O   0  0  0  0  0  0  0  0  0  0  0  0
    0.4352    2.7128   -0.6109 C   0  0  0  0  0  0  0  0  0  0  0  0
    0.3578    3.5931   -1.4045 O   0  0  0  0  0  0  0  0  0  0  0  0
   -1.3198   -2.7772   -0.2432 H   0  0  0  0  0  0  0  0  0  0  0  0
    0.4978   -1.3224    1.7705 H   0  0  0  0  0  0  0  0  0  0  0  0
    1.2381   -2.3791    0.5512 H   0  0  0  0  0  0  0  0  0  0  0  0
    0.5952    0.8481    1.0078 H   0  0  0  0  0  0  0  0  0  0  0  0
    0.6256    2.8433    0.4693 H   0  0  0  0  0  0  0  0  0  0  0  0
  2  3  1  0  0  0  0
  2  1  2  0  0  0  0
  3 10  1  0  0  0  0
  4  5  2  0  0  0  0
  4  3  1  0  0  0  0
  5 12  1  0  0  0  0
  6  7  1  0  0  0  0
  6  5  1  0  0  0  0
  7 13  1  0  0  0  0
  8  7  2  0  0  0  0
  9  2  1  0  0  0  0
 11  3  1  0  0  0  0
M  END
