14
title
O -2.7454917 -2.4643102 1.359221
C -2.165732 -2.0408385 0.39474556
C -0.8716209 -1.256803 0.43814975
C -0.96833086 0.04741486 -0.39025137
C 0.29586414 0.7602604 -0.46237978
C 1.3570745 1.3396 -0.5107238
C 2.5497475 1.9923624 -0.56630385
C 3.6081214 2.5714447 -0.61579704
H -2.5617511 -2.2133138 -0.63468575
H -0.6103438 -1.050685 1.4783405
H -0.083863474 -1.88854 0.006461166
H -1.3131261 -0.18968359 -1.406156
H -1.7337508 0.7016066 0.046978436
H 4.538726 3.080755 -0.65821385
