12
title
O -1.499321 -3.1691387 -0.255798
C -1.0638306 -2.126982 0.10876073
O -0.45843628 -1.2575523 -0.7613589
C 0.013760467 -0.08221683 -0.2611533
N 0.57117164 0.7236849 -1.0459266
C 1.0850345 1.985037 -0.5444865
C 0.91068566 2.2384508 0.8962985
N 0.7440859 2.3784096 2.0313594
H -1.0923606 -1.7470089 1.1448942
H -0.14012788 0.058827072 0.8145263
H 2.153745 2.041867 -0.78222114
H 0.6076523 2.7990592 -1.102489
