13
title
O -1.3500812 -3.110638 -0.8143172
C -1.1081595 -1.9520845 -0.69493175
O -0.24854822 -1.5124763 0.286562
C 0.1334974 -0.19922692 0.30617502
N 0.022853665 0.56193346 -0.6874195
C 0.45443183 1.9536102 -0.58598197
C 1.0129503 2.397497 0.69230646
C 1.4685382 2.741357 1.7502849
H -1.520451 -1.128808 -1.291635
H 0.5513244 0.052784864 1.281758
H 1.1881827 2.122907 -1.3842074
H -0.40759975 2.5814784 -0.84501034
H 1.8747433 3.0641215 2.6774497
