12
title
O -2.5485818 -1.7837296 -0.9709042
C -2.655573 -0.86128795 -0.19465123
N -1.6684037 -0.4351867 0.646866
C -0.34779194 -1.0432582 0.6313126
C 0.71048516 -0.08535848 0.33319727
C 1.5840247 0.7181071 0.11031998
C 2.5708892 1.627062 -0.14392199
N 3.409198 2.402288 -0.35669875
H -3.5798075 -0.26556286 -0.07652016
H -1.8305612 0.3693277 1.2313586
H -0.12987784 -1.5366807 1.5877416
H -0.38578942 -1.8234128 -0.13747616
