12
title
O -1.7274402 -3.0663884 -0.23204719
C -1.675213 -1.8804587 -0.32431534
O -1.4337262 -1.0813082 0.7421087
C -1.3427167 0.3265542 0.49030608
C 0.018342322 0.7582549 0.2102186
C 1.142248 1.1300036 -0.025348501
C 2.4976768 1.5428673 -0.30256802
O 2.8264527 2.6860344 -0.5138261
H -1.8264265 -1.3122231 -1.2627357
H -2.003879 0.61344755 -0.3386175
H -1.7174412 0.81833565 1.3926464
H 3.2302785 0.7116221 -0.30698302
