16
title
N 1.773068 3.5464358 0.002230047
C 1.8303995 2.2870708 -0.0045685237
O 0.692485 1.5623025 0.0013076
C 0.8466978 0.14649852 -0.0073112077
C -0.54843366 -0.46244043 0.0025217829
C -0.4853822 -2.001416 -0.006001079
C -1.8120247 -2.6133444 0.0031356185
N -2.8657982 -3.0867288 0.010645919
H 2.7121344 3.938861 -0.0035228746
H 2.7424903 1.6735193 -0.015152028
H 1.4009423 -0.16977231 -0.9029556
H 1.417424 -0.17882745 0.87463343
H -1.0870715 -0.11523192 0.8889124
H -1.1034185 -0.10616176 -0.8700763
H 0.052565705 -2.3587854 -0.8923182
H 0.068878904 -2.3678606 0.866453
