title
 OpenBabel02282110003D

 13 12  0  0  0  0  0  0  0  0999 V2000
   -2.7451   -1.6836   -1.0307 O   0  0  0  0  0  0  0  0  0  0  0  0
   -2.8276   -0.7738   -0.2354 C   0  0  0  0  0  0  0  0  0  0  0  0
   -1.8206   -0.3658    0.5879 N   0  0  0  0  0  0  0  0  0  0  0  0
   -0.5013   -0.9780    0.5401 C   0  0  0  0  0  0  0  0  0  0  0  0
    0.5687   -0.0215    0.2893 C   0  0  0  0  0  0  0  0  0  0  0  0
    1.4681    0.7635    0.1064 C   0  0  0  0  0  0  0  0  0  0  0  0
    2.5163    1.7237   -0.1311 C   0  0  0  0  0  0  0  0  0  0  0  0
    3.6971    1.4847   -0.0303 O   0  0  0  0  0  0  0  0  0  0  0  0
   -3.7464   -0.1754   -0.0871 H   0  0  0  0  0  0  0  0  0  0  0  0
   -1.9689    0.4267    1.1918 H   0  0  0  0  0  0  0  0  0  0  0  0
   -0.2893   -1.5241    1.4692 H   0  0  0  0  0  0  0  0  0  0  0  0
   -0.5443   -1.7212   -0.2644 H   0  0  0  0  0  0  0  0  0  0  0  0
    2.1500    2.7291   -0.4221 H   0  0  0  0  0  0  0  0  0  0  0  0
  1  2  2  0  0  0  0
  2  9  1  0  0  0  0
  2  3  1  0  0  0  0
  3 10  1  0  0  0  0
  4  3  1  0  0  0  0
  4 11  1  0  0  0  0
  5  4  1  0  0  0  0
  6  5  3  0  0  0  0
  7  8  2  0  0  0  0
  7  6  1  0  0  0  0
 12  4  1  0  0  0  0
 13  7  1  0  0  0  0
M  END
