11
title
O -1.7844591 -2.8805165 -0.1926003
C -1.7140653 -1.698603 -0.3050049
O -1.4237791 -0.8892682 0.74592495
C -1.3284521 0.5122966 0.4787085
C 0.039118014 0.9219009 0.18466485
C 1.1707509 1.262041 -0.06038113
C 2.4498417 1.6513184 -0.3401751
N 3.535601 1.9855899 -0.5800962
H -1.8844949 -1.1384596 -1.2446812
H -1.9890736 0.7966153 -0.35161826
H -1.6895899 1.0204636 1.3775319
