16
title
O -2.1031928 -2.9216495 1.6883676
C -1.8187611 -2.0242014 0.9417346
C -0.49981394 -1.2719108 0.9946716
O -0.51109225 -0.2957128 -0.014218437
C 0.67056483 0.47539607 -0.069273695
C 0.5098972 1.4869872 -1.2085032
C 1.6821461 2.3389003 -1.3523984
C 2.662762 3.0267694 -1.447295
H -2.503238 -1.6654447 0.14178742
H -0.38382283 -0.82957494 1.998685
H 0.32502505 -1.9930243 0.86476743
H 0.8386404 1.0005952 0.8837355
H 1.5468152 -0.16582093 -0.25184917
H 0.31896278 0.9395205 -2.139062
H -0.38220182 2.094241 -1.014833
H 3.5226905 3.6422632 -1.5431423
