title
 OpenBabel02282110003D

 16 15  0  0  0  0  0  0  0  0999 V2000
   -2.2057   -3.0750    1.4433 O   0  0  0  0  0  0  0  0  0  0  0  0
   -1.9733   -1.9510    1.0864 C   0  0  0  0  0  0  0  0  0  0  0  0
   -0.5773   -1.3576    0.9781 C   0  0  0  0  0  0  0  0  0  0  0  0
   -0.5229   -0.3647   -0.0851 N   0  0  0  0  0  0  0  0  0  0  0  0
    0.6968    0.4307   -0.0989 C   0  0  0  0  0  0  0  0  0  0  0  0
    0.5776    1.5371   -1.1627 C   0  0  0  0  0  0  0  0  0  0  0  0
    1.7612    2.3907   -1.2079 C   0  0  0  0  0  0  0  0  0  0  0  0
    2.7054    3.0562   -1.2276 N   0  0  0  0  0  0  0  0  0  0  0  0
   -2.7805   -1.2348    0.8127 H   0  0  0  0  0  0  0  0  0  0  0  0
   -0.3850   -0.8451    1.9329 H   0  0  0  0  0  0  0  0  0  0  0  0
    0.1545   -2.1777    0.9034 H   0  0  0  0  0  0  0  0  0  0  0  0
   -0.6364   -0.8254   -0.9837 H   0  0  0  0  0  0  0  0  0  0  0  0
    0.8145    0.8940    0.8868 H   0  0  0  0  0  0  0  0  0  0  0  0
    1.6114   -0.1574   -0.2840 H   0  0  0  0  0  0  0  0  0  0  0  0
    0.4315    1.0931   -2.1551 H   0  0  0  0  0  0  0  0  0  0  0  0
   -0.3064    2.1483   -0.9544 H   0  0  0  0  0  0  0  0  0  0  0  0
  2  1  2  0  0  0  0
  3  2  1  0  0  0  0
  3 10  1  0  0  0  0
  4  3  1  0  0  0  0
  5  4  1  0  0  0  0
  5 13  1  0  0  0  0
  6 16  1  0  0  0  0
  6  5  1  0  0  0  0
  7  6  1  0  0  0  0
  8  7  3  0  0  0  0
  9  2  1  0  0  0  0
 11  3  1  0  0  0  0
 12  4  1  0  0  0  0
 14  5  1  0  0  0  0
 15  6  1  0  0  0  0
M  END
