title
 OpenBabel02282110003D

 16 15  0  0  0  0  0  0  0  0999 V2000
   -2.5999   -0.9622   -1.2289 O   0  0  0  0  0  0  0  0  0  0  0  0
   -2.8344   -0.2902   -0.2477 C   0  0  0  0  0  0  0  0  0  0  0  0
   -1.9655   -0.0856    0.7812 N   0  0  0  0  0  0  0  0  0  0  0  0
   -0.6218   -0.6356    0.7814 C   0  0  0  0  0  0  0  0  0  0  0  0
    0.4322    0.3627    0.2839 C   0  0  0  0  0  0  0  0  0  0  0  0
    1.8378   -0.2690    0.2694 C   0  0  0  0  0  0  0  0  0  0  0  0
    2.8690    0.6732   -0.1580 C   0  0  0  0  0  0  0  0  0  0  0  0
    3.6721    1.4333   -0.4931 N   0  0  0  0  0  0  0  0  0  0  0  0
   -3.8002    0.2257   -0.0807 H   0  0  0  0  0  0  0  0  0  0  0  0
   -2.2448    0.5312    1.5271 H   0  0  0  0  0  0  0  0  0  0  0  0
   -0.3761   -0.9757    1.7944 H   0  0  0  0  0  0  0  0  0  0  0  0
   -0.6448   -1.5116    0.1275 H   0  0  0  0  0  0  0  0  0  0  0  0
    0.1667    0.6919   -0.7250 H   0  0  0  0  0  0  0  0  0  0  0  0
    0.4396    1.2526    0.9227 H   0  0  0  0  0  0  0  0  0  0  0  0
    2.1016   -0.6392    1.2677 H   0  0  0  0  0  0  0  0  0  0  0  0
    1.8565   -1.1357   -0.4016 H   0  0  0  0  0  0  0  0  0  0  0  0
  1  2  2  0  0  0  0
  2  9  1  0  0  0  0
  2  3  1  0  0  0  0
  3  4  1  0  0  0  0
  3 10  1  0  0  0  0
  4 11  1  0  0  0  0
  5  4  1  0  0  0  0
  5 14  1  0  0  0  0
  6  5  1  0  0  0  0
  6 15  1  0  0  0  0
  7  6  1  0  0  0  0
  8  7  3  0  0  0  0
 12  4  1  0  0  0  0
 13  5  1  0  0  0  0
 16  6  1  0  0  0  0
M  END
