title
 OpenBabel02282110003D

 17 16  0  0  0  0  0  0  0  0999 V2000
   -2.7231   -1.0615   -1.2531 O   0  0  0  0  0  0  0  0  0  0  0  0
   -2.8671   -0.3028   -0.3183 C   0  0  0  0  0  0  0  0  0  0  0  0
   -1.9327   -0.0444    0.6370 N   0  0  0  0  0  0  0  0  0  0  0  0
   -0.6028   -0.6301    0.6240 C   0  0  0  0  0  0  0  0  0  0  0  0
    0.4928    0.3884    0.2900 C   0  0  0  0  0  0  0  0  0  0  0  0
    1.8923   -0.2580    0.2882 C   0  0  0  0  0  0  0  0  0  0  0  0
    2.9553    0.6960   -0.0007 C   0  0  0  0  0  0  0  0  0  0  0  0
    3.8132    1.5032   -0.2394 C   0  0  0  0  0  0  0  0  0  0  0  0
   -3.8016    0.2655   -0.1394 H   0  0  0  0  0  0  0  0  0  0  0  0
   -2.1598    0.6314    1.3493 H   0  0  0  0  0  0  0  0  0  0  0  0
   -0.4003   -1.0963    1.5971 H   0  0  0  0  0  0  0  0  0  0  0  0
   -0.6303   -1.4243   -0.1264 H   0  0  0  0  0  0  0  0  0  0  0  0
    0.2910    0.8303   -0.6909 H   0  0  0  0  0  0  0  0  0  0  0  0
    0.4777    1.2090    1.0172 H   0  0  0  0  0  0  0  0  0  0  0  0
    2.0804   -0.7294    1.2624 H   0  0  0  0  0  0  0  0  0  0  0  0
    1.9174   -1.0700   -0.4503 H   0  0  0  0  0  0  0  0  0  0  0  0
    4.5798    2.2061   -0.4523 H   0  0  0  0  0  0  0  0  0  0  0  0
  1  2  2  0  0  0  0
  2  9  1  0  0  0  0
  2  3  1  0  0  0  0
  3 10  1  0  0  0  0
  4  3  1  0  0  0  0
  4 11  1  0  0  0  0
  5  4  1  0  0  0  0
  5 14  1  0  0  0  0
  6  5  1  0  0  0  0
  6 15  1  0  0  0  0
  7  6  1  0  0  0  0
  8  7  3  0  0  0  0
 12  4  1  0  0  0  0
 13  5  1  0  0  0  0
 16  6  1  0  0  0  0
 17  8  1  0  0  0  0
M  END
