16
title
O -2.2057316 -3.0750318 1.4432902
C -1.9732512 -1.9510032 1.086396
C -0.5773005 -1.3575691 0.9780528
N -0.5229351 -0.36472225 -0.08508494
C 0.69682235 0.43071723 -0.09889092
C 0.5775804 1.5370865 -1.1627156
C 1.7611519 2.3907337 -1.2078847
N 2.7053678 3.056244 -1.2275568
H -2.7805283 -1.2348262 0.81270593
H -0.38503167 -0.84511757 1.9328828
H 0.15450661 -2.1776555 0.9033844
H -0.6363502 -0.82541776 -0.9836639
H 0.8145003 0.89401627 0.88684386
H 1.6114305 -0.15739702 -0.28402117
H 0.43145505 1.0930576 -2.1550977
H -0.30641004 2.148333 -0.9543685
