16
title
O -2.5999334 -0.9622095 -1.2288696
C -2.834386 -0.29019484 -0.24768043
N -1.9654825 -0.085626945 0.781162
C -0.62179977 -0.63562477 0.7814015
C 0.43222135 0.36269155 0.28387478
C 1.8378068 -0.26897284 0.26942238
C 2.8690073 0.67315304 -0.15802649
N 3.672138 1.4332842 -0.49309462
H -3.800157 0.22573127 -0.080687284
H -2.2447758 0.53124154 1.5271444
H -0.376051 -0.9757072 1.794361
H -0.64480335 -1.5116284 0.12751542
H 0.16668338 0.69191587 -0.7249701
H 0.4395501 1.2526459 0.9227359
H 2.1015842 -0.639161 1.2676834
H 1.8564879 -1.1356754 -0.40163654
