title
 OpenBabel02282110003D

 15 14  0  0  0  0  0  0  0  0999 V2000
   -2.1183   -2.9451    1.6785 O   0  0  0  0  0  0  0  0  0  0  0  0
   -1.8297   -2.0457    0.9372 C   0  0  0  0  0  0  0  0  0  0  0  0
   -0.5106   -1.2938    1.0065 C   0  0  0  0  0  0  0  0  0  0  0  0
   -0.5122   -0.3126   -0.0018 O   0  0  0  0  0  0  0  0  0  0  0  0
    0.6676    0.4549   -0.0443 C   0  0  0  0  0  0  0  0  0  0  0  0
    0.4978    1.4649   -1.1854 C   0  0  0  0  0  0  0  0  0  0  0  0
    1.6679    2.3253   -1.3298 C   0  0  0  0  0  0  0  0  0  0  0  0
    2.6019    2.9977   -1.4293 N   0  0  0  0  0  0  0  0  0  0  0  0
   -2.5070   -1.6851    0.1317 H   0  0  0  0  0  0  0  0  0  0  0  0
   -0.4048   -0.8517    2.0111 H   0  0  0  0  0  0  0  0  0  0  0  0
    0.3160   -2.0126    0.8803 H   0  0  0  0  0  0  0  0  0  0  0  0
    0.8319    0.9814    0.9085 H   0  0  0  0  0  0  0  0  0  0  0  0
    1.5472   -0.1813   -0.2270 H   0  0  0  0  0  0  0  0  0  0  0  0
    0.3238    0.9275   -2.1235 H   0  0  0  0  0  0  0  0  0  0  0  0
   -0.3864    2.0823   -0.9958 H   0  0  0  0  0  0  0  0  0  0  0  0
  2  3  1  0  0  0  0
  2  1  2  0  0  0  0
  3 10  1  0  0  0  0
  4  3  1  0  0  0  0
  5  4  1  0  0  0  0
  5 12  1  0  0  0  0
  6 15  1  0  0  0  0
  6  5  1  0  0  0  0
  7  6  1  0  0  0  0
  8  7  3  0  0  0  0
  9  2  1  0  0  0  0
 11  3  1  0  0  0  0
 13  5  1  0  0  0  0
 14  6  1  0  0  0  0
M  END
