title
 OpenBabel02282110003D

 16 15  0  0  0  0  0  0  0  0999 V2000
   -2.1857   -3.1094    1.0207 O   0  0  0  0  0  0  0  0  0  0  0  0
   -1.9886   -1.9237    1.0734 C   0  0  0  0  0  0  0  0  0  0  0  0
   -0.6389   -1.2623    0.9089 C   0  0  0  0  0  0  0  0  0  0  0  0
   -0.6537   -0.1928   -0.1822 C   0  0  0  0  0  0  0  0  0  0  0  0
    0.5594    0.5235   -0.1026 O   0  0  0  0  0  0  0  0  0  0  0  0
    0.6589    1.5300   -1.0943 C   0  0  0  0  0  0  0  0  0  0  0  0
    1.9229    2.2397   -0.9565 C   0  0  0  0  0  0  0  0  0  0  0  0
    2.9576    2.8416   -0.8650 C   0  0  0  0  0  0  0  0  0  0  0  0
   -2.8281   -1.2129    1.2623 H   0  0  0  0  0  0  0  0  0  0  0  0
   -0.3900   -0.7644    1.8563 H   0  0  0  0  0  0  0  0  0  0  0  0
    0.1176   -2.0238    0.7079 H   0  0  0  0  0  0  0  0  0  0  0  0
   -0.7668   -0.6579   -1.1754 H   0  0  0  0  0  0  0  0  0  0  0  0
   -1.5128    0.4871   -0.0430 H   0  0  0  0  0  0  0  0  0  0  0  0
    0.5892    1.0855   -2.1018 H   0  0  0  0  0  0  0  0  0  0  0  0
   -0.1795    2.2420   -1.0045 H   0  0  0  0  0  0  0  0  0  0  0  0
    3.8750    3.3698   -0.7792 H   0  0  0  0  0  0  0  0  0  0  0  0
  1  2  2  0  0  0  0
  2  9  1  0  0  0  0
  3  2  1  0  0  0  0
  3 10  1  0  0  0  0
  4  5  1  0  0  0  0
  4 13  1  0  0  0  0
  4  3  1  0  0  0  0
  6 15  1  0  0  0  0
  6  7  1  0  0  0  0
  6  5  1  0  0  0  0
  7  8  3  0  0  0  0
  8 16  1  0  0  0  0
 11  3  1  0  0  0  0
 12  4  1  0  0  0  0
 14  6  1  0  0  0  0
M  END
