title
 OpenBabel02282110003D

 16 15  0  0  0  0  0  0  0  0999 V2000
   -2.1032   -2.9216    1.6884 O   0  0  0  0  0  0  0  0  0  0  0  0
   -1.8188   -2.0242    0.9417 C   0  0  0  0  0  0  0  0  0  0  0  0
   -0.4998   -1.2719    0.9947 C   0  0  0  0  0  0  0  0  0  0  0  0
   -0.5111   -0.2957   -0.0142 O   0  0  0  0  0  0  0  0  0  0  0  0
    0.6706    0.4754   -0.0693 C   0  0  0  0  0  0  0  0  0  0  0  0
    0.5099    1.4870   -1.2085 C   0  0  0  0  0  0  0  0  0  0  0  0
    1.6821    2.3389   -1.3524 C   0  0  0  0  0  0  0  0  0  0  0  0
    2.6628    3.0268   -1.4473 C   0  0  0  0  0  0  0  0  0  0  0  0
   -2.5032   -1.6654    0.1418 H   0  0  0  0  0  0  0  0  0  0  0  0
   -0.3838   -0.8296    1.9987 H   0  0  0  0  0  0  0  0  0  0  0  0
    0.3250   -1.9930    0.8648 H   0  0  0  0  0  0  0  0  0  0  0  0
    0.8386    1.0006    0.8837 H   0  0  0  0  0  0  0  0  0  0  0  0
    1.5468   -0.1658   -0.2518 H   0  0  0  0  0  0  0  0  0  0  0  0
    0.3190    0.9395   -2.1391 H   0  0  0  0  0  0  0  0  0  0  0  0
   -0.3822    2.0942   -1.0148 H   0  0  0  0  0  0  0  0  0  0  0  0
    3.5227    3.6423   -1.5431 H   0  0  0  0  0  0  0  0  0  0  0  0
  2  3  1  0  0  0  0
  2  1  2  0  0  0  0
  3 10  1  0  0  0  0
  4  3  1  0  0  0  0
  5  4  1  0  0  0  0
  5 12  1  0  0  0  0
  6 15  1  0  0  0  0
  6  5  1  0  0  0  0
  7  6  1  0  0  0  0
  8  7  3  0  0  0  0
  9  2  1  0  0  0  0
 11  3  1  0  0  0  0
 13  5  1  0  0  0  0
 14  6  1  0  0  0  0
 16  8  1  0  0  0  0
M  END
