title
 OpenBabel02282110003D

 15 14  0  0  0  0  0  0  0  0999 V2000
   -1.7914   -0.6483   -1.8911 O   0  0  0  0  0  0  0  0  0  0  0  0
   -2.0354   -0.3997   -0.7285 C   0  0  0  0  0  0  0  0  0  0  0  0
   -1.2603   -0.7958    0.3165 N   0  0  0  0  0  0  0  0  0  0  0  0
   -0.0538   -1.5808    0.1163 C   0  0  0  0  0  0  0  0  0  0  0  0
    1.1349   -0.7321   -0.3328 C   0  0  0  0  0  0  0  0  0  0  0  0
    1.4791    0.2079    0.6890 O   0  0  0  0  0  0  0  0  0  0  0  0
    1.1578    1.5026    0.4923 C   0  0  0  0  0  0  0  0  0  0  0  0
    1.3163    2.3382    1.3300 O   0  0  0  0  0  0  0  0  0  0  0  0
   -2.9220    0.1763   -0.4003 H   0  0  0  0  0  0  0  0  0  0  0  0
   -1.5134   -0.5105    1.2483 H   0  0  0  0  0  0  0  0  0  0  0  0
    0.1873   -2.0889    1.0532 H   0  0  0  0  0  0  0  0  0  0  0  0
   -0.2507   -2.3356   -0.6511 H   0  0  0  0  0  0  0  0  0  0  0  0
    2.0117   -1.3649   -0.4971 H   0  0  0  0  0  0  0  0  0  0  0  0
    0.8906   -0.2159   -1.2675 H   0  0  0  0  0  0  0  0  0  0  0  0
    0.7493    1.6941   -0.5185 H   0  0  0  0  0  0  0  0  0  0  0  0
  1  2  2  0  0  0  0
  2  9  1  0  0  0  0
  2  3  1  0  0  0  0
  3 10  1  0  0  0  0
  4  3  1  0  0  0  0
  4 11  1  0  0  0  0
  5  4  1  0  0  0  0
  5  6  1  0  0  0  0
  7  6  1  0  0  0  0
  7  8  2  0  0  0  0
 12  4  1  0  0  0  0
 13  5  1  0  0  0  0
 14  5  1  0  0  0  0
 15  7  1  0  0  0  0
M  END
