title
 OpenBabel02282110003D

 17 16  0  0  0  0  0  0  0  0999 V2000
   -2.4707   -2.6675    1.2398 O   0  0  0  0  0  0  0  0  0  0  0  0
   -1.7808   -1.6886    1.3605 C   0  0  0  0  0  0  0  0  0  0  0  0
   -0.4021   -1.5201    0.7636 C   0  0  0  0  0  0  0  0  0  0  0  0
   -0.3370   -0.2959   -0.1651 C   0  0  0  0  0  0  0  0  0  0  0  0
    1.0840   -0.0473   -0.6895 C   0  0  0  0  0  0  0  0  0  0  0  0
    1.1782    1.1161   -1.5575 N   0  0  0  0  0  0  0  0  0  0  0  0
    1.3179    2.3742   -1.0621 C   0  0  0  0  0  0  0  0  0  0  0  0
    1.4041    2.6450    0.1175 O   0  0  0  0  0  0  0  0  0  0  0  0
   -2.1381   -0.8029    1.9370 H   0  0  0  0  0  0  0  0  0  0  0  0
    0.3051   -1.3768    1.5936 H   0  0  0  0  0  0  0  0  0  0  0  0
   -0.1338   -2.4430    0.2403 H   0  0  0  0  0  0  0  0  0  0  0  0
   -1.0220   -0.4353   -1.0102 H   0  0  0  0  0  0  0  0  0  0  0  0
   -0.6652    0.6008    0.3721 H   0  0  0  0  0  0  0  0  0  0  0  0
    1.7596    0.1209    0.1545 H   0  0  0  0  0  0  0  0  0  0  0  0
    1.4472   -0.9195   -1.2427 H   0  0  0  0  0  0  0  0  0  0  0  0
    1.0579    1.0020   -2.5509 H   0  0  0  0  0  0  0  0  0  0  0  0
    1.3559    3.1364   -1.8654 H   0  0  0  0  0  0  0  0  0  0  0  0
  1  2  2  0  0  0  0
  2  9  1  0  0  0  0
  3  2  1  0  0  0  0
  3 10  1  0  0  0  0
  4 13  1  0  0  0  0
  4  3  1  0  0  0  0
  5  4  1  0  0  0  0
  5 14  1  0  0  0  0
  6  7  1  0  0  0  0
  6  5  1  0  0  0  0
  7  8  2  0  0  0  0
 11  3  1  0  0  0  0
 12  4  1  0  0  0  0
 15  5  1  0  0  0  0
 16  6  1  0  0  0  0
 17  7  1  0  0  0  0
M  END
