16
title
O -2.4915586 -1.1211908 -1.159601
C -2.7106452 -0.3075723 -0.28485432
N -1.7813028 0.14153117 0.5970595
C -0.40514666 -0.32599753 0.5679358
C 0.40514582 0.3259694 -0.5679567
N 1.7813165 -0.14152867 -0.5970535
C 2.710652 0.30760962 0.28484616
O 2.4915364 1.1211717 1.1596376
H -3.7058566 0.14867347 -0.114701256
H -2.0485957 0.8462569 1.264707
H 0.06580443 -0.09294242 1.524524
H -0.41029078 -1.4115714 0.43245205
H -0.06576448 0.092835486 -1.5245439
H 0.41021246 1.4115527 -0.4325454
H 2.048692 -0.84606874 -1.264863
H 3.7058847 -0.14857548 0.114651956
