16
title
O -2.6139543 -2.3883576 2.0152097
C -1.9390749 -2.198656 1.0378186
C -0.6570677 -1.3959361 1.0149392
C -0.7016702 -0.2747055 -0.022067778
O 0.59637076 0.26853338 -0.13576663
C 0.6807323 1.3402909 -1.0405022
C 2.1181269 1.8333434 -1.0575992
O 2.5045142 2.7277274 -1.7604738
H -2.2294552 -2.6282248 0.0498401
H -0.4559354 -1.0042022 2.0143683
H 0.15994295 -2.075285 0.73469377
H -1.0397942 -0.66505915 -0.9973947
H -1.419525 0.5038032 0.28268546
H 0.39409384 1.0439276 -2.063599
H 0.023159705 2.1778202 -0.75189567
H 2.7843008 1.287866 -0.35372818
