title
 OpenBabel02282110003D

 16 15  0  0  0  0  0  0  0  0999 V2000
    0.9923    2.5023   -0.0492 N   0  0  0  0  0  0  0  0  0  0  0  0
    1.2471    1.2682   -0.0484 C   0  0  0  0  0  0  0  0  0  0  0  0
    1.0133    0.5392    1.0677 O   0  0  0  0  0  0  0  0  0  0  0  0
    1.2058   -0.8667    0.9940 C   0  0  0  0  0  0  0  0  0  0  0  0
   -0.1229   -1.5877    0.8114 C   0  0  0  0  0  0  0  0  0  0  0  0
   -0.6612   -1.3388   -0.4798 O   0  0  0  0  0  0  0  0  0  0  0  0
   -1.6298   -0.3999   -0.5901 C   0  0  0  0  0  0  0  0  0  0  0  0
   -2.0600   -0.0820   -1.7311 N   0  0  0  0  0  0  0  0  0  0  0  0
    1.2353    2.9049   -0.9517 H   0  0  0  0  0  0  0  0  0  0  0  0
    1.6610    0.6788   -0.8764 H   0  0  0  0  0  0  0  0  0  0  0  0
    1.8855   -1.1263    0.1729 H   0  0  0  0  0  0  0  0  0  0  0  0
    1.6659   -1.1784    1.9376 H   0  0  0  0  0  0  0  0  0  0  0  0
    0.0320   -2.6687    0.8924 H   0  0  0  0  0  0  0  0  0  0  0  0
   -0.8251   -1.2771    1.5949 H   0  0  0  0  0  0  0  0  0  0  0  0
   -1.9600    0.0025    0.3759 H   0  0  0  0  0  0  0  0  0  0  0  0
   -2.7900    0.6214   -1.6417 H   0  0  0  0  0  0  0  0  0  0  0  0
  1  2  2  0  0  0  0
  2  3  1  0  0  0  0
  4  3  1  0  0  0  0
  4 12  1  0  0  0  0
  5 13  1  0  0  0  0
  5  4  1  0  0  0  0
  5 14  1  0  0  0  0
  6  5  1  0  0  0  0
  7  6  1  0  0  0  0
  7 15  1  0  0  0  0
  8 16  1  0  0  0  0
  8  7  2  0  0  0  0
  9  1  1  0  0  0  0
 10  2  1  0  0  0  0
 11  4  1  0  0  0  0
M  END
