title
 OpenBabel02282110003D

 18 17  0  0  0  0  0  0  0  0999 V2000
   -2.7169   -2.3173    2.1126 O   0  0  0  0  0  0  0  0  0  0  0  0
   -2.0142   -2.1968    1.1432 C   0  0  0  0  0  0  0  0  0  0  0  0
   -0.6917   -1.4645    1.1140 C   0  0  0  0  0  0  0  0  0  0  0  0
   -0.6822   -0.3438    0.0599 C   0  0  0  0  0  0  0  0  0  0  0  0
    0.6820    0.3442   -0.0601 C   0  0  0  0  0  0  0  0  0  0  0  0
    0.6914    1.4650   -1.1143 C   0  0  0  0  0  0  0  0  0  0  0  0
    2.0140    2.1970   -1.1432 C   0  0  0  0  0  0  0  0  0  0  0  0
    2.7176    2.3163   -2.1122 O   0  0  0  0  0  0  0  0  0  0  0  0
   -2.3153   -2.6326    0.1606 H   0  0  0  0  0  0  0  0  0  0  0  0
   -0.4844   -1.0779    2.1162 H   0  0  0  0  0  0  0  0  0  0  0  0
    0.0878   -2.1991    0.8631 H   0  0  0  0  0  0  0  0  0  0  0  0
   -0.9692   -0.7568   -0.9162 H   0  0  0  0  0  0  0  0  0  0  0  0
   -1.4462    0.4014    0.3154 H   0  0  0  0  0  0  0  0  0  0  0  0
    0.9689    0.7573    0.9160 H   0  0  0  0  0  0  0  0  0  0  0  0
    1.4460   -0.4009   -0.3156 H   0  0  0  0  0  0  0  0  0  0  0  0
    0.4843    1.0781   -2.1164 H   0  0  0  0  0  0  0  0  0  0  0  0
   -0.0880    2.1995   -0.8635 H   0  0  0  0  0  0  0  0  0  0  0  0
    2.3146    2.6336   -0.1608 H   0  0  0  0  0  0  0  0  0  0  0  0
  2  1  2  0  0  0  0
  3  2  1  0  0  0  0
  3 10  1  0  0  0  0
  4 13  1  0  0  0  0
  4  3  1  0  0  0  0
  5  4  1  0  0  0  0
  5 14  1  0  0  0  0
  6 17  1  0  0  0  0
  6  5  1  0  0  0  0
  7  6  1  0  0  0  0
  7 18  1  0  0  0  0
  8  7  2  0  0  0  0
  9  2  1  0  0  0  0
 11  3  1  0  0  0  0
 12  4  1  0  0  0  0
 15  5  1  0  0  0  0
 16  6  1  0  0  0  0
M  END
