16
title
O -1.8217643 -3.4193592 0.8539581
C -1.8423661 -2.2270339 1.0084946
C -0.622692 -1.3663951 1.261497
C -0.5099908 -0.22769706 0.23453291
C 0.64919543 0.7114237 0.5517794
O 0.6639652 1.8111128 -0.36367443
C 1.6387839 1.8529099 -1.2933394
O 1.7096479 2.7129343 -2.1167994
H -2.801188 -1.6582698 0.9697354
H -0.728091 -0.9361488 2.2686558
H 0.26195744 -2.0100331 1.2585706
H -0.37331745 -0.64168924 -0.77128714
H -1.4369668 0.35703644 0.2130241
H 0.54104185 1.140045 1.5532658
H 1.6081305 0.17752226 0.51578724
H 2.356376 1.0134367 -1.198568
