16
title
N 1.281032 1.7806342 -0.6159999
C 1.7752508 1.630251 0.54318094
O 1.7056785 0.5109021 1.2624738
C 1.1725124 -0.69122154 0.6595902
C -0.35287178 -0.76334983 0.64379644
N -0.94054735 -0.1354901 -0.5237855
C -2.0123403 -0.66801816 -1.1576482
O -2.6184986 -1.6604574 -0.802594
H 1.4745969 2.7135441 -0.97046775
H 2.323008 2.3868473 1.1121533
H 1.5791224 -0.79863006 -0.35033417
H 1.5670025 -1.4837699 1.2983333
H -0.66327703 -1.8126318 0.6327864
H -0.7343255 -0.32807606 1.5779836
H -0.44510734 0.66090906 -0.90975696
H -2.2855232 -0.08652739 -2.0605938
