title
 OpenBabel02282110003D

 16 15  0  0  0  0  0  0  0  0999 V2000
   -1.8218   -3.4194    0.8540 O   0  0  0  0  0  0  0  0  0  0  0  0
   -1.8424   -2.2270    1.0085 C   0  0  0  0  0  0  0  0  0  0  0  0
   -0.6227   -1.3664    1.2615 C   0  0  0  0  0  0  0  0  0  0  0  0
   -0.5100   -0.2277    0.2345 C   0  0  0  0  0  0  0  0  0  0  0  0
    0.6492    0.7114    0.5518 C   0  0  0  0  0  0  0  0  0  0  0  0
    0.6640    1.8111   -0.3637 O   0  0  0  0  0  0  0  0  0  0  0  0
    1.6388    1.8529   -1.2933 C   0  0  0  0  0  0  0  0  0  0  0  0
    1.7096    2.7129   -2.1168 O   0  0  0  0  0  0  0  0  0  0  0  0
   -2.8012   -1.6583    0.9697 H   0  0  0  0  0  0  0  0  0  0  0  0
   -0.7281   -0.9361    2.2687 H   0  0  0  0  0  0  0  0  0  0  0  0
    0.2620   -2.0100    1.2586 H   0  0  0  0  0  0  0  0  0  0  0  0
   -0.3733   -0.6417   -0.7713 H   0  0  0  0  0  0  0  0  0  0  0  0
   -1.4370    0.3570    0.2130 H   0  0  0  0  0  0  0  0  0  0  0  0
    0.5410    1.1400    1.5533 H   0  0  0  0  0  0  0  0  0  0  0  0
    1.6081    0.1775    0.5158 H   0  0  0  0  0  0  0  0  0  0  0  0
    2.3564    1.0134   -1.1986 H   0  0  0  0  0  0  0  0  0  0  0  0
  1  2  2  0  0  0  0
  2  3  1  0  0  0  0
  3 10  1  0  0  0  0
  4  5  1  0  0  0  0
  4  3  1  0  0  0  0
  5 14  1  0  0  0  0
  6  5  1  0  0  0  0
  7 16  1  0  0  0  0
  7  6  1  0  0  0  0
  8  7  2  0  0  0  0
  9  2  1  0  0  0  0
 11  3  1  0  0  0  0
 12  4  1  0  0  0  0
 13  4  1  0  0  0  0
 15  5  1  0  0  0  0
M  END
