14
title
C 1.588705 3.6440506 -0.037882756
C 1.5487278 2.1904376 0.02559109
C 1.5120149 0.98964 0.07772812
C 1.470135 -0.47281125 0.1414559
C 0.11791839 -1.0222778 0.056538586
C -0.9965968 -1.4854622 -0.012981574
C -2.2516246 -2.0060833 -0.09131112
C -3.3644986 -2.4692833 -0.16069768
H 2.1779146 3.9890468 -0.8944621
H 0.5808677 4.06123 -0.13835377
H 2.035775 4.0698686 0.86695224
H 2.0808349 -0.8981719 -0.66798097
H 1.9389284 -0.81819034 1.0742046
H -4.343336 -2.8755844 -0.22177823
