title
 OpenBabel02282110003D

 18 17  0  0  0  0  0  0  0  0999 V2000
    1.1825    4.1121    0.0106 C   0  0  0  0  0  0  0  0  0  0  0  0
    1.1774    2.6559    0.0030 C   0  0  0  0  0  0  0  0  0  0  0  0
    1.1835    1.4518   -0.0034 C   0  0  0  0  0  0  0  0  0  0  0  0
    1.1572   -0.0065   -0.0110 C   0  0  0  0  0  0  0  0  0  0  0  0
   -0.2720   -0.5825   -0.0005 C   0  0  0  0  0  0  0  0  0  0  0  0
   -0.2699   -2.1237   -0.0088 C   0  0  0  0  0  0  0  0  0  0  0  0
   -1.6119   -2.6921    0.0010 C   0  0  0  0  0  0  0  0  0  0  0  0
   -2.7294   -3.1349    0.0092 C   0  0  0  0  0  0  0  0  0  0  0  0
    2.2048    4.5066    0.0028 H   0  0  0  0  0  0  0  0  0  0  0  0
    0.6658    4.5181   -0.8662 H   0  0  0  0  0  0  0  0  0  0  0  0
    0.6828    4.5089    0.9013 H   0  0  0  0  0  0  0  0  0  0  0  0
    1.6925   -0.3811   -0.8946 H   0  0  0  0  0  0  0  0  0  0  0  0
    1.7093   -0.3906    0.8580 H   0  0  0  0  0  0  0  0  0  0  0  0
   -0.8058   -0.2225    0.8844 H   0  0  0  0  0  0  0  0  0  0  0  0
   -0.8226   -0.2130   -0.8710 H   0  0  0  0  0  0  0  0  0  0  0  0
    0.2729   -2.4844   -0.8929 H   0  0  0  0  0  0  0  0  0  0  0  0
    0.2897   -2.4939    0.8608 H   0  0  0  0  0  0  0  0  0  0  0  0
   -3.7123   -3.5360    0.0157 H   0  0  0  0  0  0  0  0  0  0  0  0
  1 11  1  0  0  0  0
  2  1  1  0  0  0  0
  3  2  3  0  0  0  0
  4  3  1  0  0  0  0
  4  5  1  0  0  0  0
  4 13  1  0  0  0  0
  5 14  1  0  0  0  0
  6  5  1  0  0  0  0
  6  7  1  0  0  0  0
  6 17  1  0  0  0  0
  7  8  3  0  0  0  0
  8 18  1  0  0  0  0
  9  1  1  0  0  0  0
 10  1  1  0  0  0  0
 12  4  1  0  0  0  0
 15  5  1  0  0  0  0
 16  6  1  0  0  0  0
M  END
