14
title
O -1.241196 -2.5467424 0.0465908
C -1.4123079 -1.3681197 0.0379703
O -0.9759064 -0.56635123 1.038653
C -1.2134975 0.83549875 0.9365731
C 0.1040226 1.5702763 0.7564408
O 0.64419067 1.28683 -0.5319818
C 1.7846624 0.55995196 -0.60649145
O 2.2894998 0.27319235 -1.6464145
H -1.9363872 -0.8089841 -0.76003325
H -1.8827733 1.0550795 0.09594648
H -1.6971438 1.1601882 1.8633847
H -0.06070795 2.6506867 0.81861717
H 0.8075074 1.2765994 1.54489
H 2.1790948 0.2802531 0.3886461
