13
title
C 1.5699806 3.6640987 0.0015045551
C 1.5426437 2.2113273 -0.07816041
C 1.5189598 1.0111045 -0.14383565
C 1.4892484 -0.44927263 -0.22362657
C 0.14563715 -1.0055916 -0.07701136
C -0.9620315 -1.4694443 0.0435596
C -2.215019 -1.9945617 0.17992604
N -3.280283 -2.443029 0.29574627
H 2.197207 4.003864 0.83247167
H 1.9669411 4.1042576 -0.91938746
H 0.56348217 4.0668554 0.15687972
H 1.9059017 -0.78682375 -1.1832507
H 2.1362202 -0.8862245 0.5502724
