title
 OpenBabel02282110003D

 14 13  0  0  0  0  0  0  0  0999 V2000
    0.4121    4.5085    0.2511 C   0  0  0  0  0  0  0  0  0  0  0  0
    0.4239    3.0576    0.2094 C   0  0  0  0  0  0  0  0  0  0  0  0
    0.4340    1.8479    0.1741 C   0  0  0  0  0  0  0  0  0  0  0  0
    0.4445    0.4890    0.1339 C   0  0  0  0  0  0  0  0  0  0  0  0
    0.4623   -0.7211    0.0993 C   0  0  0  0  0  0  0  0  0  0  0  0
    0.4255   -2.1710    0.0462 C   0  0  0  0  0  0  0  0  0  0  0  0
   -1.0020   -2.7203   -0.0728 C   0  0  0  0  0  0  0  0  0  0  0  0
   -1.2851   -3.6864   -0.7253 O   0  0  0  0  0  0  0  0  0  0  0  0
    1.4263    4.9089    0.3597 H   0  0  0  0  0  0  0  0  0  0  0  0
   -0.0159    4.9279   -0.6663 H   0  0  0  0  0  0  0  0  0  0  0  0
   -0.1830    4.8750    1.0951 H   0  0  0  0  0  0  0  0  0  0  0  0
    1.0154   -2.5742   -0.7840 H   0  0  0  0  0  0  0  0  0  0  0  0
    0.8471   -2.5952    0.9714 H   0  0  0  0  0  0  0  0  0  0  0  0
   -1.7597   -2.1567    0.5126 H   0  0  0  0  0  0  0  0  0  0  0  0
  1  9  1  0  0  0  0
  1 11  1  0  0  0  0
  2  1  1  0  0  0  0
  3  2  3  0  0  0  0
  4  3  1  0  0  0  0
  5  4  3  0  0  0  0
  6  5  1  0  0  0  0
  6 13  1  0  0  0  0
  7  6  1  0  0  0  0
  7 14  1  0  0  0  0
  8  7  2  0  0  0  0
 10  1  1  0  0  0  0
 12  6  1  0  0  0  0
M  END
