13
title
C 0.44980976 4.365367 0.019149028
C 0.45774886 2.914359 0.011269758
C 0.461807 1.704431 0.004724666
C 0.46557266 0.3449916 -0.0026215753
C 0.46717358 -0.8636676 -0.009136177
C 0.48724568 -2.3213983 -0.017167663
C -0.8553698 -2.9197502 -0.0074756807
N -1.9032235 -3.404131 -5.1361503e-06
H 1.4699178 4.765196 0.011591192
H -0.07166416 4.7617483 -0.8591434
H -0.05481381 4.752226 0.9114194
H 1.020895 -2.6932945 -0.902107
H 1.0377735 -2.702734 0.85329694
