14
title
C -0.062797606 4.6243377 0.025584036
C -0.042866964 3.1740057 0.017064156
C -0.026321102 1.9612789 0.010213842
C -0.008273049 0.60961574 0.0033053122
C 0.008126737 -0.6096187 -0.0030457852
C 0.026517019 -1.961274 -0.010555037
C 0.042996645 -3.1740024 -0.017312445
C 0.06266688 -4.6243415 -0.025345739
H 0.95357275 5.0345454 0.018235145
H -0.58760035 5.018458 -0.85224754
H -0.570697 5.0083194 0.9177381
H -0.9537683 -5.034389 -0.017876215
H 0.57051224 -5.0086865 -0.91737264
H 0.5874019 -5.0182633 0.8526155
