title
 OpenBabel02282110003D

 17 16  0  0  0  0  0  0  0  0999 V2000
    1.1739    4.1356    0.0110 C   0  0  0  0  0  0  0  0  0  0  0  0
    1.1762    2.6796    0.0029 C   0  0  0  0  0  0  0  0  0  0  0  0
    1.1893    1.4758   -0.0036 C   0  0  0  0  0  0  0  0  0  0  0  0
    1.1698    0.0179   -0.0112 C   0  0  0  0  0  0  0  0  0  0  0  0
   -0.2599   -0.5566   -0.0005 C   0  0  0  0  0  0  0  0  0  0  0  0
   -0.2479   -2.0976   -0.0088 C   0  0  0  0  0  0  0  0  0  0  0  0
   -1.5926   -2.6685    0.0009 C   0  0  0  0  0  0  0  0  0  0  0  0
   -2.6631   -3.1036    0.0090 N   0  0  0  0  0  0  0  0  0  0  0  0
    2.1944    4.5341    0.0034 H   0  0  0  0  0  0  0  0  0  0  0  0
    0.6551    4.5384   -0.8658 H   0  0  0  0  0  0  0  0  0  0  0  0
    0.6721    4.5285    0.9021 H   0  0  0  0  0  0  0  0  0  0  0  0
    1.7047   -0.3561   -0.8952 H   0  0  0  0  0  0  0  0  0  0  0  0
    1.7215   -0.3655    0.8584 H   0  0  0  0  0  0  0  0  0  0  0  0
   -0.7934   -0.1986    0.8848 H   0  0  0  0  0  0  0  0  0  0  0  0
   -0.8103   -0.1892   -0.8715 H   0  0  0  0  0  0  0  0  0  0  0  0
    0.2800   -2.4696   -0.8951 H   0  0  0  0  0  0  0  0  0  0  0  0
    0.2968   -2.4790    0.8632 H   0  0  0  0  0  0  0  0  0  0  0  0
  1 11  1  0  0  0  0
  2  1  1  0  0  0  0
  3  2  3  0  0  0  0
  4  3  1  0  0  0  0
  4  5  1  0  0  0  0
  4 13  1  0  0  0  0
  5 14  1  0  0  0  0
  6  5  1  0  0  0  0
  6  7  1  0  0  0  0
  6 17  1  0  0  0  0
  7  8  3  0  0  0  0
  9  1  1  0  0  0  0
 10  1  1  0  0  0  0
 12  4  1  0  0  0  0
 15  5  1  0  0  0  0
 16  6  1  0  0  0  0
M  END
