title
 OpenBabel02282110003D

 16 15  0  0  0  0  0  0  0  0999 V2000
    1.1754    4.2400   -0.1768 C   0  0  0  0  0  0  0  0  0  0  0  0
    1.0720    2.7924   -0.0602 C   0  0  0  0  0  0  0  0  0  0  0  0
    1.0044    1.5942    0.0351 C   0  0  0  0  0  0  0  0  0  0  0  0
    0.8722    0.1479    0.1560 C   0  0  0  0  0  0  0  0  0  0  0  0
   -0.5901   -0.2690    0.3660 C   0  0  0  0  0  0  0  0  0  0  0  0
   -0.6736   -1.6849    0.5524 O   0  0  0  0  0  0  0  0  0  0  0  0
   -1.1815   -2.4282   -0.4497 C   0  0  0  0  0  0  0  0  0  0  0  0
   -1.2569   -3.6179   -0.3987 O   0  0  0  0  0  0  0  0  0  0  0  0
    1.6078    4.5314   -1.1402 H   0  0  0  0  0  0  0  0  0  0  0  0
    0.1918    4.7158   -0.0977 H   0  0  0  0  0  0  0  0  0  0  0  0
    1.8098    4.6581    0.6123 H   0  0  0  0  0  0  0  0  0  0  0  0
    1.2583   -0.3509   -0.7422 H   0  0  0  0  0  0  0  0  0  0  0  0
    1.4655   -0.2284    0.9979 H   0  0  0  0  0  0  0  0  0  0  0  0
   -0.9954    0.1956    1.2680 H   0  0  0  0  0  0  0  0  0  0  0  0
   -1.2048    0.0431   -0.4867 H   0  0  0  0  0  0  0  0  0  0  0  0
   -1.5222   -1.8138   -1.3070 H   0  0  0  0  0  0  0  0  0  0  0  0
  1 10  1  0  0  0  0
  1  2  1  0  0  0  0
  1 11  1  0  0  0  0
  2  3  3  0  0  0  0
  3  4  1  0  0  0  0
  4  5  1  0  0  0  0
  4 13  1  0  0  0  0
  5  6  1  0  0  0  0
  5 14  1  0  0  0  0
  7  8  2  0  0  0  0
  7  6  1  0  0  0  0
  9  1  1  0  0  0  0
 12  4  1  0  0  0  0
 15  5  1  0  0  0  0
 16  7  1  0  0  0  0
M  END
