title
 OpenBabel02282110003D

 18 17  0  0  0  0  0  0  0  0999 V2000
    1.2184    4.2389    0.2654 C   0  0  0  0  0  0  0  0  0  0  0  0
    1.2100    2.7864    0.1631 C   0  0  0  0  0  0  0  0  0  0  0  0
    1.2143    1.5854    0.0761 C   0  0  0  0  0  0  0  0  0  0  0  0
    1.1816    0.1309   -0.0257 C   0  0  0  0  0  0  0  0  0  0  0  0
   -0.2459   -0.4446    0.0710 C   0  0  0  0  0  0  0  0  0  0  0  0
   -0.2649   -1.9778   -0.0442 C   0  0  0  0  0  0  0  0  0  0  0  0
   -1.6534   -2.5375    0.1641 C   0  0  0  0  0  0  0  0  0  0  0  0
   -2.2434   -3.2366   -0.6180 O   0  0  0  0  0  0  0  0  0  0  0  0
    1.4495    4.5667    1.2850 H   0  0  0  0  0  0  0  0  0  0  0  0
    1.9670    4.6807   -0.4016 H   0  0  0  0  0  0  0  0  0  0  0  0
    0.2448    4.6627   -0.0049 H   0  0  0  0  0  0  0  0  0  0  0  0
    1.6344   -0.1859   -0.9747 H   0  0  0  0  0  0  0  0  0  0  0  0
    1.8022   -0.3119    0.7655 H   0  0  0  0  0  0  0  0  0  0  0  0
   -0.6911   -0.1350    1.0238 H   0  0  0  0  0  0  0  0  0  0  0  0
   -0.8641   -0.0053   -0.7193 H   0  0  0  0  0  0  0  0  0  0  0  0
    0.1065   -2.3162   -1.0162 H   0  0  0  0  0  0  0  0  0  0  0  0
    0.3830   -2.4048    0.7361 H   0  0  0  0  0  0  0  0  0  0  0  0
   -2.1221   -2.2416    1.1331 H   0  0  0  0  0  0  0  0  0  0  0  0
  1  9  1  0  0  0  0
  2  1  1  0  0  0  0
  3  2  3  0  0  0  0
  4  5  1  0  0  0  0
  4  3  1  0  0  0  0
  4 13  1  0  0  0  0
  5 14  1  0  0  0  0
  6  5  1  0  0  0  0
  6  7  1  0  0  0  0
  6 17  1  0  0  0  0
  7 18  1  0  0  0  0
  8  7  2  0  0  0  0
 10  1  1  0  0  0  0
 11  1  1  0  0  0  0
 12  4  1  0  0  0  0
 15  5  1  0  0  0  0
 16  6  1  0  0  0  0
M  END
