15
title
C 1.1293194 4.029984 0.010848397
C 1.1326891 2.5751987 0.0029849845
C 1.1295433 1.3723112 -0.0034551919
C 1.1522094 -0.079657525 -0.0114672305
O -0.18164928 -0.5835681 -0.0013991804
C -0.20327921 -1.9887142 -0.008626842
C -1.5944655 -2.44846 0.0021529084
N -2.6786473 -2.8446836 0.010220047
H 2.1514819 4.4237485 0.0029631774
H 0.6115771 4.430255 -0.86725587
H 0.6289014 4.42073 0.90317136
H 1.6844298 -0.44963428 -0.90436697
H 1.7013892 -0.45913908 0.867058
H 0.29497594 -2.4005299 -0.9024124
H 0.31177974 -2.4098935 0.8711526
