16
title
C 1.183829 4.001841 0.010238048
C 1.1589073 2.5469446 0.0026333146
C 1.131671 1.3442369 -0.0035855053
C 1.1274598 -0.11015099 -0.01142701
O -0.20750429 -0.5929522 -0.00121569
C -0.24742366 -2.0073404 -0.008458615
C -1.6297271 -2.4646263 0.002329804
C -2.7593553 -2.8712597 0.01098366
H 2.2130659 4.377213 0.0041961153
H 0.6756173 4.4132247 -0.86855704
H 0.6894944 4.4036975 0.9012716
H 1.6598241 -0.48530048 -0.90324396
H 1.6768279 -0.49488705 0.8658754
H 0.26810044 -2.4049563 -0.90032876
H 0.28506434 -2.4144974 0.8690241
H -3.7617304 -3.2218165 0.018722434
