title
 OpenBabel02282110003D

 16 15  0  0  0  0  0  0  0  0999 V2000
    1.1457    4.1863    0.1832 C   0  0  0  0  0  0  0  0  0  0  0  0
    1.1361    2.7319    0.1391 C   0  0  0  0  0  0  0  0  0  0  0  0
    1.1239    1.5295    0.1024 C   0  0  0  0  0  0  0  0  0  0  0  0
    1.1368    0.0754    0.0600 C   0  0  0  0  0  0  0  0  0  0  0  0
   -0.1902   -0.4230   -0.0226 O   0  0  0  0  0  0  0  0  0  0  0  0
   -0.2431   -1.8252   -0.0669 C   0  0  0  0  0  0  0  0  0  0  0  0
   -1.7027   -2.2380   -0.1524 C   0  0  0  0  0  0  0  0  0  0  0  0
   -2.0679   -3.3817   -0.2060 O   0  0  0  0  0  0  0  0  0  0  0  0
    2.1712    4.5710    0.2049 H   0  0  0  0  0  0  0  0  0  0  0  0
    0.6495    4.6139   -0.6947 H   0  0  0  0  0  0  0  0  0  0  0  0
    0.6315    4.5613    1.0746 H   0  0  0  0  0  0  0  0  0  0  0  0
    1.7244   -0.2740   -0.8064 H   0  0  0  0  0  0  0  0  0  0  0  0
    1.6341   -0.3264    0.9595 H   0  0  0  0  0  0  0  0  0  0  0  0
    0.2930   -2.2358   -0.9401 H   0  0  0  0  0  0  0  0  0  0  0  0
    0.2039   -2.2883    0.8298 H   0  0  0  0  0  0  0  0  0  0  0  0
   -2.4077   -1.3782   -0.1608 H   0  0  0  0  0  0  0  0  0  0  0  0
  1  9  1  0  0  0  0
  1 11  1  0  0  0  0
  2  1  1  0  0  0  0
  3  2  3  0  0  0  0
  4  3  1  0  0  0  0
  4 13  1  0  0  0  0
  5  4  1  0  0  0  0
  6  5  1  0  0  0  0
  6 15  1  0  0  0  0
  7  6  1  0  0  0  0
  8  7  2  0  0  0  0
 10  1  1  0  0  0  0
 12  4  1  0  0  0  0
 14  6  1  0  0  0  0
 16  7  1  0  0  0  0
M  END
