title
 OpenBabel02282110003D

 17 16  0  0  0  0  0  0  0  0999 V2000
    1.1019    4.0564    0.1347 C   0  0  0  0  0  0  0  0  0  0  0  0
    1.0116    2.6031    0.1348 C   0  0  0  0  0  0  0  0  0  0  0  0
    0.9496    1.4006    0.1236 C   0  0  0  0  0  0  0  0  0  0  0  0
    0.8281   -0.0516    0.1313 C   0  0  0  0  0  0  0  0  0  0  0  0
   -0.5474   -0.5162    0.6622 C   0  0  0  0  0  0  0  0  0  0  0  0
   -0.6704   -1.9634    0.7167 N   0  0  0  0  0  0  0  0  0  0  0  0
   -1.0289   -2.7043   -0.3656 C   0  0  0  0  0  0  0  0  0  0  0  0
   -1.3048   -2.2489   -1.4555 O   0  0  0  0  0  0  0  0  0  0  0  0
    1.3458    4.4399   -0.8622 H   0  0  0  0  0  0  0  0  0  0  0  0
    0.1546    4.5138    0.4412 H   0  0  0  0  0  0  0  0  0  0  0  0
    1.8772    4.4090    0.8240 H   0  0  0  0  0  0  0  0  0  0  0  0
    0.9535   -0.4532   -0.8808 H   0  0  0  0  0  0  0  0  0  0  0  0
    1.6209   -0.4959    0.7474 H   0  0  0  0  0  0  0  0  0  0  0  0
   -0.7182   -0.1120    1.6634 H   0  0  0  0  0  0  0  0  0  0  0  0
   -1.3318   -0.1379    0.0032 H   0  0  0  0  0  0  0  0  0  0  0  0
   -0.4066   -2.4477    1.5594 H   0  0  0  0  0  0  0  0  0  0  0  0
   -1.0529   -3.7886   -0.1363 H   0  0  0  0  0  0  0  0  0  0  0  0
  1  2  1  0  0  0  0
  1 10  1  0  0  0  0
  1 11  1  0  0  0  0
  3  4  1  0  0  0  0
  3  2  3  0  0  0  0
  4  5  1  0  0  0  0
  4 13  1  0  0  0  0
  5  6  1  0  0  0  0
  5 14  1  0  0  0  0
  6 16  1  0  0  0  0
  7 17  1  0  0  0  0
  7  6  1  0  0  0  0
  8  7  2  0  0  0  0
  9  1  1  0  0  0  0
 12  4  1  0  0  0  0
 15  5  1  0  0  0  0
M  END
