17
title
C -0.4980572 3.8486903 1.1377213
N -0.51890904 2.4049578 1.2364745
C -0.17039275 1.7497548 0.22245148
O -0.15338966 0.40059593 0.246555
C 0.20437571 -0.22316965 -0.99492806
C 0.30671778 -1.6593183 -0.8057417
C 0.3957046 -2.8516514 -0.6751254
C 0.5008136 -4.2923756 -0.50356644
H 0.17410412 4.260119 1.8995042
H -0.17676038 4.228017 0.15322492
H -1.4974031 4.246104 1.3489627
H 0.14512828 2.1960356 -0.73515767
H -0.5547416 0.00754467 -1.7563349
H 1.1619614 0.18286529 -1.3521639
H 1.5053142 -4.6516314 -0.75172764
H 0.29347178 -4.574989 0.5341548
H -0.21340859 -4.823464 -1.1419061
