12
title
O 3.08265 2.5457823 -0.01531441
C 3.0902019 1.1279621 -0.023421213
C 1.7254002 0.62657106 -0.0132266795
C 0.6008103 0.17697263 -0.005055031
C -0.6568403 -0.32338458 0.004146183
C -1.7842808 -0.7765805 0.012428472
C -3.1316462 -1.276827 0.022695953
O -3.425868 -2.451035 0.020214094
H 3.9993784 2.8404918 -0.02161093
H 3.5997703 0.7271064 -0.9155762
H 3.6166928 0.7170777 0.85421973
H -3.905201 -0.48262268 0.034182236
