title
 OpenBabel02282110003D

 12 11  0  0  0  0  0  0  0  0999 V2000
    3.0827    2.5458   -0.0153 O   0  0  0  0  0  0  0  0  0  0  0  0
    3.0902    1.1280   -0.0234 C   0  0  0  0  0  0  0  0  0  0  0  0
    1.7254    0.6266   -0.0132 C   0  0  0  0  0  0  0  0  0  0  0  0
    0.6008    0.1770   -0.0051 C   0  0  0  0  0  0  0  0  0  0  0  0
   -0.6568   -0.3234    0.0041 C   0  0  0  0  0  0  0  0  0  0  0  0
   -1.7843   -0.7766    0.0124 C   0  0  0  0  0  0  0  0  0  0  0  0
   -3.1316   -1.2768    0.0227 C   0  0  0  0  0  0  0  0  0  0  0  0
   -3.4259   -2.4510    0.0202 O   0  0  0  0  0  0  0  0  0  0  0  0
    3.9994    2.8405   -0.0216 H   0  0  0  0  0  0  0  0  0  0  0  0
    3.5998    0.7271   -0.9156 H   0  0  0  0  0  0  0  0  0  0  0  0
    3.6167    0.7171    0.8542 H   0  0  0  0  0  0  0  0  0  0  0  0
   -3.9052   -0.4826    0.0342 H   0  0  0  0  0  0  0  0  0  0  0  0
  2  1  1  0  0  0  0
  2  3  1  0  0  0  0
  2 11  1  0  0  0  0
  3  4  3  0  0  0  0
  4  5  1  0  0  0  0
  5  6  3  0  0  0  0
  6  7  1  0  0  0  0
  7 12  1  0  0  0  0
  8  7  2  0  0  0  0
  9  1  1  0  0  0  0
 10  2  1  0  0  0  0
M  END
