title
 OpenBabel02282110003D

 14 13  0  0  0  0  0  0  0  0999 V2000
   -1.6256    2.6123    2.8283 C   0  0  0  0  0  0  0  0  0  0  0  0
   -1.5703    1.0739    2.7617 C   0  0  0  0  0  0  0  0  0  0  0  0
   -0.8956    0.5708    1.5768 C   0  0  0  0  0  0  0  0  0  0  0  0
   -0.3308    0.1630    0.5846 C   0  0  0  0  0  0  0  0  0  0  0  0
    0.2996   -0.2948   -0.5229 C   0  0  0  0  0  0  0  0  0  0  0  0
    0.8646   -0.7089   -1.5161 C   0  0  0  0  0  0  0  0  0  0  0  0
    1.5389   -1.1602   -2.7015 C   0  0  0  0  0  0  0  0  0  0  0  0
    1.7109   -2.3230   -2.9931 O   0  0  0  0  0  0  0  0  0  0  0  0
   -0.6189    3.0375    2.8366 H   0  0  0  0  0  0  0  0  0  0  0  0
   -2.1602    3.0199    1.9666 H   0  0  0  0  0  0  0  0  0  0  0  0
   -2.1429    2.9284    3.7382 H   0  0  0  0  0  0  0  0  0  0  0  0
   -1.0621    0.6795    3.6513 H   0  0  0  0  0  0  0  0  0  0  0  0
   -2.5877    0.6620    2.7901 H   0  0  0  0  0  0  0  0  0  0  0  0
    1.9031   -0.3399   -3.3528 H   0  0  0  0  0  0  0  0  0  0  0  0
  1  9  1  0  0  0  0
  1 11  1  0  0  0  0
  2 13  1  0  0  0  0
  2  1  1  0  0  0  0
  2 12  1  0  0  0  0
  3  2  1  0  0  0  0
  4  3  3  0  0  0  0
  5  4  1  0  0  0  0
  6  5  3  0  0  0  0
  7  6  1  0  0  0  0
  8  7  2  0  0  0  0
 10  1  1  0  0  0  0
 14  7  1  0  0  0  0
M  END
