title
 OpenBabel02282110003D

 17 16  0  0  0  0  0  0  0  0999 V2000
    1.7987    3.6985    0.2183 C   0  0  0  0  0  0  0  0  0  0  0  0
    1.8027    2.2578    0.3592 N   0  0  0  0  0  0  0  0  0  0  0  0
    0.7312    1.6487    0.1183 C   0  0  0  0  0  0  0  0  0  0  0  0
    0.6706    0.3017    0.2134 O   0  0  0  0  0  0  0  0  0  0  0  0
   -0.6124   -0.2808    0.0047 C   0  0  0  0  0  0  0  0  0  0  0  0
   -0.4257   -1.7952   -0.0420 C   0  0  0  0  0  0  0  0  0  0  0  0
   -1.7486   -2.5292   -0.0042 C   0  0  0  0  0  0  0  0  0  0  0  0
   -2.1063   -3.3416   -0.8156 O   0  0  0  0  0  0  0  0  0  0  0  0
    2.5477    3.9967   -0.5240 H   0  0  0  0  0  0  0  0  0  0  0  0
    0.8253    4.1180   -0.0851 H   0  0  0  0  0  0  0  0  0  0  0  0
    2.0917    4.1604    1.1679 H   0  0  0  0  0  0  0  0  0  0  0  0
   -0.2134    2.1273   -0.1863 H   0  0  0  0  0  0  0  0  0  0  0  0
   -1.2904   -0.0013    0.8245 H   0  0  0  0  0  0  0  0  0  0  0  0
   -1.0498    0.0832   -0.9345 H   0  0  0  0  0  0  0  0  0  0  0  0
    0.1350   -2.0992   -0.9284 H   0  0  0  0  0  0  0  0  0  0  0  0
    0.1462   -2.0878    0.8494 H   0  0  0  0  0  0  0  0  0  0  0  0
   -2.3960   -2.2650    0.8653 H   0  0  0  0  0  0  0  0  0  0  0  0
  1  2  1  0  0  0  0
  1 11  1  0  0  0  0
  3  4  1  0  0  0  0
  3  2  2  0  0  0  0
  5  4  1  0  0  0  0
  5 13  1  0  0  0  0
  6  7  1  0  0  0  0
  6  5  1  0  0  0  0
  6 16  1  0  0  0  0
  7 17  1  0  0  0  0
  8  7  2  0  0  0  0
  9  1  1  0  0  0  0
 10  1  1  0  0  0  0
 12  3  1  0  0  0  0
 14  5  1  0  0  0  0
 15  6  1  0  0  0  0
M  END
