title
 OpenBabel02282110003D

 17 16  0  0  0  0  0  0  0  0999 V2000
   -0.4981    3.8487    1.1377 C   0  0  0  0  0  0  0  0  0  0  0  0
   -0.5189    2.4050    1.2365 N   0  0  0  0  0  0  0  0  0  0  0  0
   -0.1704    1.7498    0.2225 C   0  0  0  0  0  0  0  0  0  0  0  0
   -0.1534    0.4006    0.2466 O   0  0  0  0  0  0  0  0  0  0  0  0
    0.2044   -0.2232   -0.9949 C   0  0  0  0  0  0  0  0  0  0  0  0
    0.3067   -1.6593   -0.8057 C   0  0  0  0  0  0  0  0  0  0  0  0
    0.3957   -2.8517   -0.6751 C   0  0  0  0  0  0  0  0  0  0  0  0
    0.5008   -4.2924   -0.5036 C   0  0  0  0  0  0  0  0  0  0  0  0
    0.1741    4.2601    1.8995 H   0  0  0  0  0  0  0  0  0  0  0  0
   -0.1768    4.2280    0.1532 H   0  0  0  0  0  0  0  0  0  0  0  0
   -1.4974    4.2461    1.3490 H   0  0  0  0  0  0  0  0  0  0  0  0
    0.1451    2.1960   -0.7352 H   0  0  0  0  0  0  0  0  0  0  0  0
   -0.5547    0.0075   -1.7563 H   0  0  0  0  0  0  0  0  0  0  0  0
    1.1620    0.1829   -1.3522 H   0  0  0  0  0  0  0  0  0  0  0  0
    1.5053   -4.6516   -0.7517 H   0  0  0  0  0  0  0  0  0  0  0  0
    0.2935   -4.5750    0.5342 H   0  0  0  0  0  0  0  0  0  0  0  0
   -0.2134   -4.8235   -1.1419 H   0  0  0  0  0  0  0  0  0  0  0  0
  1  2  1  0  0  0  0
  1 11  1  0  0  0  0
  1  9  1  0  0  0  0
  3  4  1  0  0  0  0
  3  2  2  0  0  0  0
  5  6  1  0  0  0  0
  5  4  1  0  0  0  0
  6  7  3  0  0  0  0
  7  8  1  0  0  0  0
  8 16  1  0  0  0  0
 10  1  1  0  0  0  0
 12  3  1  0  0  0  0
 13  5  1  0  0  0  0
 14  5  1  0  0  0  0
 15  8  1  0  0  0  0
 17  8  1  0  0  0  0
M  END
