title
 OpenBabel02282110003D

 16 15  0  0  0  0  0  0  0  0999 V2000
    1.7870    3.5932   -0.0388 C   0  0  0  0  0  0  0  0  0  0  0  0
    1.8006    2.1519   -0.1770 N   0  0  0  0  0  0  0  0  0  0  0  0
    0.7176    1.5417   -0.0062 C   0  0  0  0  0  0  0  0  0  0  0  0
    0.6666    0.1932   -0.1222 O   0  0  0  0  0  0  0  0  0  0  0  0
   -0.6065   -0.3997    0.0903 C   0  0  0  0  0  0  0  0  0  0  0  0
   -0.4084   -1.9076   -0.0934 C   0  0  0  0  0  0  0  0  0  0  0  0
   -1.6542   -2.6430    0.1000 C   0  0  0  0  0  0  0  0  0  0  0  0
   -2.6501   -3.2067    0.2569 N   0  0  0  0  0  0  0  0  0  0  0  0
    2.4935    3.8919    0.7436 H   0  0  0  0  0  0  0  0  0  0  0  0
    2.1323    4.0530   -0.9714 H   0  0  0  0  0  0  0  0  0  0  0  0
    0.7978    4.0116    0.2088 H   0  0  0  0  0  0  0  0  0  0  0  0
   -0.2462    2.0137    0.2411 H   0  0  0  0  0  0  0  0  0  0  0  0
   -0.9755   -0.1853    1.1012 H   0  0  0  0  0  0  0  0  0  0  0  0
   -1.3409   -0.0220   -0.6322 H   0  0  0  0  0  0  0  0  0  0  0  0
   -0.0196   -2.1039   -1.0979 H   0  0  0  0  0  0  0  0  0  0  0  0
    0.3423   -2.2656    0.6186 H   0  0  0  0  0  0  0  0  0  0  0  0
  1 11  1  0  0  0  0
  1  9  1  0  0  0  0
  2  1  1  0  0  0  0
  2  3  2  0  0  0  0
  3 12  1  0  0  0  0
  4  3  1  0  0  0  0
  4  5  1  0  0  0  0
  5 13  1  0  0  0  0
  6  5  1  0  0  0  0
  6  7  1  0  0  0  0
  6 16  1  0  0  0  0
  7  8  3  0  0  0  0
 10  1  1  0  0  0  0
 14  5  1  0  0  0  0
 15  6  1  0  0  0  0
M  END
