title
 OpenBabel02282110003D

 15 14  0  0  0  0  0  0  0  0999 V2000
    2.9438    2.1156    0.9332 O   0  0  0  0  0  0  0  0  0  0  0  0
    2.6702    1.6585   -0.3849 C   0  0  0  0  0  0  0  0  0  0  0  0
    1.3428    1.0574   -0.4270 C   0  0  0  0  0  0  0  0  0  0  0  0
    0.2438    0.5708   -0.4847 C   0  0  0  0  0  0  0  0  0  0  0  0
   -1.0735   -0.0482   -0.5245 C   0  0  0  0  0  0  0  0  0  0  0  0
   -1.1037   -1.3841    0.2637 C   0  0  0  0  0  0  0  0  0  0  0  0
   -2.4209   -2.0144    0.2242 C   0  0  0  0  0  0  0  0  0  0  0  0
   -3.4700   -2.4967    0.1792 N   0  0  0  0  0  0  0  0  0  0  0  0
    3.8211    2.5119    0.9236 H   0  0  0  0  0  0  0  0  0  0  0  0
    2.7097    2.4855   -1.1126 H   0  0  0  0  0  0  0  0  0  0  0  0
    3.4131    0.9126   -0.7119 H   0  0  0  0  0  0  0  0  0  0  0  0
   -1.8259    0.6308   -0.1076 H   0  0  0  0  0  0  0  0  0  0  0  0
   -1.3709   -0.2375   -1.5622 H   0  0  0  0  0  0  0  0  0  0  0  0
   -0.3638   -2.0760   -0.1507 H   0  0  0  0  0  0  0  0  0  0  0  0
   -0.8233   -1.2047    1.3063 H   0  0  0  0  0  0  0  0  0  0  0  0
  2  1  1  0  0  0  0
  3  2  1  0  0  0  0
  4  3  3  0  0  0  0
  5  4  1  0  0  0  0
  5 12  1  0  0  0  0
  5  6  1  0  0  0  0
  6 15  1  0  0  0  0
  7  6  1  0  0  0  0
  8  7  3  0  0  0  0
  9  1  1  0  0  0  0
 10  2  1  0  0  0  0
 11  2  1  0  0  0  0
 13  5  1  0  0  0  0
 14  6  1  0  0  0  0
M  END
