title
 OpenBabel02282110003D

 18 17  0  0  0  0  0  0  0  0999 V2000
   -2.0265    2.8035    1.6367 C   0  0  0  0  0  0  0  0  0  0  0  0
   -0.8404    1.9669    2.1499 C   0  0  0  0  0  0  0  0  0  0  0  0
   -0.0818    1.3299    1.0781 C   0  0  0  0  0  0  0  0  0  0  0  0
    0.5263    0.8117    0.1781 C   0  0  0  0  0  0  0  0  0  0  0  0
    1.2774    0.1818   -0.9112 C   0  0  0  0  0  0  0  0  0  0  0  0
    0.8695   -1.1976   -1.1911 C   0  0  0  0  0  0  0  0  0  0  0  0
    0.5390   -2.3301   -1.4253 C   0  0  0  0  0  0  0  0  0  0  0  0
    0.1356   -3.7007   -1.7053 C   0  0  0  0  0  0  0  0  0  0  0  0
   -1.6810    3.6021    0.9745 H   0  0  0  0  0  0  0  0  0  0  0  0
   -2.7267    2.1797    1.0746 H   0  0  0  0  0  0  0  0  0  0  0  0
   -2.5642    3.2583    2.4741 H   0  0  0  0  0  0  0  0  0  0  0  0
   -0.1708    2.6049    2.7412 H   0  0  0  0  0  0  0  0  0  0  0  0
   -1.2075    1.1968    2.8406 H   0  0  0  0  0  0  0  0  0  0  0  0
    1.1705    0.7856   -1.8237 H   0  0  0  0  0  0  0  0  0  0  0  0
    2.3505    0.2034   -0.6733 H   0  0  0  0  0  0  0  0  0  0  0  0
   -0.2263   -3.8084   -2.7338 H   0  0  0  0  0  0  0  0  0  0  0  0
    0.9707   -4.3976   -1.5734 H   0  0  0  0  0  0  0  0  0  0  0  0
   -0.6706   -4.0204   -1.0358 H   0  0  0  0  0  0  0  0  0  0  0  0
  1  2  1  0  0  0  0
  1 11  1  0  0  0  0
  2 12  1  0  0  0  0
  2 13  1  0  0  0  0
  3  2  1  0  0  0  0
  4  3  3  0  0  0  0
  5 15  1  0  0  0  0
  5  4  1  0  0  0  0
  6  5  1  0  0  0  0
  7  6  3  0  0  0  0
  8 17  1  0  0  0  0
  8  7  1  0  0  0  0
  8 18  1  0  0  0  0
  9  1  1  0  0  0  0
 10  1  1  0  0  0  0
 14  5  1  0  0  0  0
 16  8  1  0  0  0  0
M  END
