16
title
C -1.6874619 2.7168934 -2.790336
C -1.6433114 1.1770762 -2.7467258
C -0.94538593 0.6597168 -1.5790844
C -0.36215416 0.24374203 -0.60268176
C 0.29242977 -0.22480728 0.49305686
C 0.87412935 -0.64554083 1.4671911
C 1.5795032 -1.1120638 2.6508133
O 1.619887 -2.5338023 2.6589715
H -0.6772943 3.1338625 -2.8127165
H -2.2211113 3.0532894 -3.6838896
H -2.1991742 3.1157248 -1.910636
H -2.6666226 0.779509 -2.7618759
H -1.1582015 0.79741937 -3.6555505
H 2.5955415 -0.683148 2.6525257
H 1.0691944 -0.7213758 3.5470817
H 2.0942292 -2.8015316 3.4529312
