18
title
C 2.8832517 3.1047804 -0.10913585
C 2.8598819 1.5750052 0.063393384
C 1.5088863 1.0280943 0.14315015
C 0.38228965 0.60729605 0.21192318
C -0.9662442 0.058842603 0.28450337
C -1.0627921 -1.3653351 -0.31284273
C -2.4879844 -1.8692471 -0.33282343
O -2.8538177 -2.927335 0.10807036
H 3.9142418 3.4668357 -0.16306902
H 2.3654459 3.4006493 -1.0255766
H 2.3880053 3.5979452 0.7316486
H 3.3938892 1.104469 -0.77224684
H 3.4177356 1.3001583 0.9678624
H -1.3038671 0.034963194 1.3286607
H -1.6657608 0.7201181 -0.24491435
H -0.7055931 -1.3327011 -1.351082
H -0.43870783 -2.0722792 0.23851912
H -3.2141278 -1.1659323 -0.80748534
