title
 OpenBabel02282110003D

 18 17  0  0  0  0  0  0  0  0999 V2000
    2.8705    2.9634   -0.0115 C   0  0  0  0  0  0  0  0  0  0  0  0
    2.8228    1.4243   -0.0194 C   0  0  0  0  0  0  0  0  0  0  0  0
    1.4624    0.8953   -0.0093 C   0  0  0  0  0  0  0  0  0  0  0  0
    0.3262    0.4946   -0.0005 C   0  0  0  0  0  0  0  0  0  0  0  0
   -1.0311   -0.0372    0.0097 C   0  0  0  0  0  0  0  0  0  0  0  0
   -1.0556   -1.5895    0.0017 C   0  0  0  0  0  0  0  0  0  0  0  0
   -2.4115   -2.1221    0.0117 C   0  0  0  0  0  0  0  0  0  0  0  0
   -3.5424   -2.5293    0.0202 C   0  0  0  0  0  0  0  0  0  0  0  0
    3.9071    3.3132   -0.0195 H   0  0  0  0  0  0  0  0  0  0  0  0
    2.3614    3.3720   -0.8886 H   0  0  0  0  0  0  0  0  0  0  0  0
    2.3783    3.3623    0.8795 H   0  0  0  0  0  0  0  0  0  0  0  0
    3.3548    1.0471   -0.9024 H   0  0  0  0  0  0  0  0  0  0  0  0
    3.3715    1.0376    0.8491 H   0  0  0  0  0  0  0  0  0  0  0  0
   -1.5737    0.3189    0.8933 H   0  0  0  0  0  0  0  0  0  0  0  0
   -1.5904    0.3282   -0.8596 H   0  0  0  0  0  0  0  0  0  0  0  0
   -0.5169   -1.9495   -0.8823 H   0  0  0  0  0  0  0  0  0  0  0  0
   -0.5002   -1.9588    0.8714 H   0  0  0  0  0  0  0  0  0  0  0  0
   -4.5349   -2.9051    0.0276 H   0  0  0  0  0  0  0  0  0  0  0  0
  1 11  1  0  0  0  0
  2  1  1  0  0  0  0
  2  3  1  0  0  0  0
  2 13  1  0  0  0  0
  3  4  3  0  0  0  0
  4  5  1  0  0  0  0
  5 14  1  0  0  0  0
  6  5  1  0  0  0  0
  6  7  1  0  0  0  0
  6 17  1  0  0  0  0
  7  8  3  0  0  0  0
  8 18  1  0  0  0  0
  9  1  1  0  0  0  0
 10  1  1  0  0  0  0
 12  2  1  0  0  0  0
 15  5  1  0  0  0  0
 16  6  1  0  0  0  0
M  END
