15
title
O 2.9437728 2.115575 0.9332131
C 2.6702485 1.6584759 -0.38494882
C 1.3428259 1.0574269 -0.4269614
C 0.24378604 0.57081115 -0.4847144
C -1.0734677 -0.048223794 -0.52447766
C -1.1037135 -1.3840879 0.26368263
C -2.420896 -2.0144296 0.22415021
N -3.4699512 -2.4967358 0.17918792
H 3.8210611 2.5119326 0.9236227
H 2.7097404 2.485454 -1.1126113
H 3.4131145 0.91258657 -0.7118958
H -1.8258934 0.6307639 -0.10759788
H -1.3709006 -0.23753375 -1.5622265
H -0.3637722 -2.0759523 -0.1507012
H -0.82328683 -1.2046515 1.3062686
