title
 OpenBabel02282110003D

 17 16  0  0  0  0  0  0  0  0999 V2000
   -1.4761    2.9081    2.5619 C   0  0  0  0  0  0  0  0  0  0  0  0
   -1.4226    1.3707    2.4937 C   0  0  0  0  0  0  0  0  0  0  0  0
   -0.7436    0.8769    1.2999 C   0  0  0  0  0  0  0  0  0  0  0  0
   -0.1772    0.5065    0.3034 C   0  0  0  0  0  0  0  0  0  0  0  0
    0.5006    0.0136   -0.8882 C   0  0  0  0  0  0  0  0  0  0  0  0
    0.5380   -1.5370   -0.9238 C   0  0  0  0  0  0  0  0  0  0  0  0
    1.2155   -2.0445   -2.1143 C   0  0  0  0  0  0  0  0  0  0  0  0
    1.7549   -2.4254   -3.0625 N   0  0  0  0  0  0  0  0  0  0  0  0
   -0.4684    3.3320    2.5686 H   0  0  0  0  0  0  0  0  0  0  0  0
   -2.0084    3.3170    1.6990 H   0  0  0  0  0  0  0  0  0  0  0  0
   -1.9924    3.2303    3.4708 H   0  0  0  0  0  0  0  0  0  0  0  0
   -0.9170    0.9815    3.3867 H   0  0  0  0  0  0  0  0  0  0  0  0
   -2.4425    0.9666    2.5252 H   0  0  0  0  0  0  0  0  0  0  0  0
   -0.0000    0.3773   -1.7930 H   0  0  0  0  0  0  0  0  0  0  0  0
    1.5276    0.3944   -0.9311 H   0  0  0  0  0  0  0  0  0  0  0  0
    1.0493   -1.9155   -0.0330 H   0  0  0  0  0  0  0  0  0  0  0  0
   -0.4823   -1.9326   -0.8974 H   0  0  0  0  0  0  0  0  0  0  0  0
  1  9  1  0  0  0  0
  1 11  1  0  0  0  0
  2 13  1  0  0  0  0
  2  1  1  0  0  0  0
  2 12  1  0  0  0  0
  3  2  1  0  0  0  0
  4  3  3  0  0  0  0
  5  4  1  0  0  0  0
  6 17  1  0  0  0  0
  6  5  1  0  0  0  0
  6 16  1  0  0  0  0
  7  6  1  0  0  0  0
  8  7  3  0  0  0  0
 10  1  1  0  0  0  0
 14  5  1  0  0  0  0
 15  5  1  0  0  0  0
M  END
