title
 OpenBabel02282110003D

 16 15  0  0  0  0  0  0  0  0999 V2000
    1.5670    3.8598   -0.2141 C   0  0  0  0  0  0  0  0  0  0  0  0
    1.5416    2.4224    0.0150 C   0  0  0  0  0  0  0  0  0  0  0  0
    1.5173    1.2345    0.2019 C   0  0  0  0  0  0  0  0  0  0  0  0
    1.4951   -0.2119    0.4325 C   0  0  0  0  0  0  0  0  0  0  0  0
    0.1604   -0.8074    0.3367 C   0  0  0  0  0  0  0  0  0  0  0  0
   -0.9300   -1.3071    0.2533 C   0  0  0  0  0  0  0  0  0  0  0  0
   -2.2607   -1.8949    0.1733 C   0  0  0  0  0  0  0  0  0  0  0  0
   -2.3263   -2.7866   -0.9338 O   0  0  0  0  0  0  0  0  0  0  0  0
    2.2234    4.1185   -1.0522 H   0  0  0  0  0  0  0  0  0  0  0  0
    0.5665    4.2403   -0.4478 H   0  0  0  0  0  0  0  0  0  0  0  0
    1.9283    4.3986    0.6687 H   0  0  0  0  0  0  0  0  0  0  0  0
    2.1579   -0.7099   -0.2893 H   0  0  0  0  0  0  0  0  0  0  0  0
    1.9224   -0.4335    1.4207 H   0  0  0  0  0  0  0  0  0  0  0  0
   -2.4815   -2.4179    1.1184 H   0  0  0  0  0  0  0  0  0  0  0  0
   -3.0033   -1.0857    0.0776 H   0  0  0  0  0  0  0  0  0  0  0  0
   -3.2183   -3.1480   -0.9569 H   0  0  0  0  0  0  0  0  0  0  0  0
  1  2  1  0  0  0  0
  1 11  1  0  0  0  0
  2  3  3  0  0  0  0
  3  4  1  0  0  0  0
  4 13  1  0  0  0  0
  5  4  1  0  0  0  0
  6  5  3  0  0  0  0
  7  6  1  0  0  0  0
  7 14  1  0  0  0  0
  8  7  1  0  0  0  0
  9  1  1  0  0  0  0
 10  1  1  0  0  0  0
 12  4  1  0  0  0  0
 15  7  1  0  0  0  0
 16  8  1  0  0  0  0
M  END
