14
title
O 3.1114194 2.6207118 -0.015514224
C 3.1220152 1.1993165 -0.023420973
C 1.7551823 0.6992613 -0.013035486
C 0.6319589 0.2502342 -0.0047274795
C -0.63209826 -0.25004244 0.004656065
C -1.7552977 -0.69912696 0.012961701
C -3.1220417 -1.1994247 0.023332193
O -3.1112132 -2.6208336 0.015711758
H 4.0285573 2.9136126 -0.022190865
H 3.6374063 0.8063387 -0.9155921
H 3.6544058 0.7966148 0.85431117
H -3.6375651 -0.8063419 0.91537833
H -3.6544194 -0.796976 -0.8545206
H -4.028297 -2.9139087 0.022266857
