18
title
C -2.0264924 2.803526 1.6366992
C -0.8403896 1.9668828 2.1499255
C -0.08183332 1.3299029 1.0781153
C 0.526288 0.81169194 0.17811002
C 1.2774055 0.18175124 -0.9112245
C 0.8695052 -1.1975753 -1.19112
C 0.53897256 -2.330107 -1.4253348
C 0.13563089 -3.700716 -1.7052604
H -1.6809615 3.6020672 0.9744724
H -2.7266808 2.1796694 1.0746315
H -2.5642488 3.2583072 2.4740977
H -0.17082687 2.6049178 2.741159
H -1.2074823 1.1968136 2.8406267
H 1.1705177 0.78559077 -1.8236774
H 2.3505118 0.20340084 -0.67331064
H -0.22633465 -3.8084273 -2.7337613
H 0.9707177 -4.397617 -1.5734025
H -0.6706005 -4.020357 -1.0357901
