15
title
O 3.0116646 2.1271582 0.9252499
C 2.611674 1.5627359 -0.31746477
C 1.2468102 1.0640047 -0.21290956
C 0.11878262 0.6489315 -0.15517497
C -1.2459203 0.14711057 -0.046544127
N -1.3110989 -1.1617128 0.59558654
C -1.9911207 -2.2032397 0.046811208
O -2.6490555 -2.1480951 -0.97044957
H 3.909955 2.455513 0.815236
H 2.6561258 2.3073063 -1.1289029
H 3.2749047 0.7330193 -0.6117518
H -1.8640493 0.8726143 0.49956506
H -1.7024764 0.020789256 -1.0336227
H -0.7504779 -1.3192314 1.4176779
H -1.8808044 -3.1264153 0.64864004
