title
 OpenBabel02282110003D

 16 15  0  0  0  0  0  0  0  0999 V2000
   -1.2529    2.5142    1.1619 C   0  0  0  0  0  0  0  0  0  0  0  0
   -2.1095    1.2474    1.2405 C   0  0  0  0  0  0  0  0  0  0  0  0
   -1.5059   -0.0278    0.8888 N   0  0  0  0  0  0  0  0  0  0  0  0
   -0.3111   -0.1003    0.5276 C   0  0  0  0  0  0  0  0  0  0  0  0
    0.2153   -1.3260    0.2201 O   0  0  0  0  0  0  0  0  0  0  0  0
    1.5637   -1.3265   -0.2026 C   0  0  0  0  0  0  0  0  0  0  0  0
    1.7378   -0.8077   -1.5703 C   0  0  0  0  0  0  0  0  0  0  0  0
    1.8759   -0.3897   -2.6381 N   0  0  0  0  0  0  0  0  0  0  0  0
   -0.3913    2.4681    1.8369 H   0  0  0  0  0  0  0  0  0  0  0  0
   -0.8841    2.6960    0.1468 H   0  0  0  0  0  0  0  0  0  0  0  0
   -1.8547    3.3796    1.4546 H   0  0  0  0  0  0  0  0  0  0  0  0
   -2.5073    1.1366    2.2575 H   0  0  0  0  0  0  0  0  0  0  0  0
   -2.9923    1.3630    0.5987 H   0  0  0  0  0  0  0  0  0  0  0  0
    0.4038    0.7246    0.4251 H   0  0  0  0  0  0  0  0  0  0  0  0
    2.2048   -0.7488    0.4769 H   0  0  0  0  0  0  0  0  0  0  0  0
    1.8939   -2.3677   -0.1710 H   0  0  0  0  0  0  0  0  0  0  0  0
  1  2  1  0  0  0  0
  1 11  1  0  0  0  0
  1  9  1  0  0  0  0
  2 12  1  0  0  0  0
  3  2  1  0  0  0  0
  4  3  2  0  0  0  0
  5  4  1  0  0  0  0
  6 16  1  0  0  0  0
  6  5  1  0  0  0  0
  6 15  1  0  0  0  0
  7  6  1  0  0  0  0
  8  7  3  0  0  0  0
 10  1  1  0  0  0  0
 13  2  1  0  0  0  0
 14  4  1  0  0  0  0
M  END
