title
 OpenBabel02282110003D

 16 15  0  0  0  0  0  0  0  0999 V2000
    2.9531    2.6186   -0.4486 O   0  0  0  0  0  0  0  0  0  0  0  0
    2.8025    1.5588    0.4854 C   0  0  0  0  0  0  0  0  0  0  0  0
    1.4497    1.0030    0.5261 C   0  0  0  0  0  0  0  0  0  0  0  0
    0.3310    0.5558    0.5158 C   0  0  0  0  0  0  0  0  0  0  0  0
   -1.0138   -0.0047    0.5059 C   0  0  0  0  0  0  0  0  0  0  0  0
   -1.0843   -1.3870   -0.1851 C   0  0  0  0  0  0  0  0  0  0  0  0
   -2.4650   -1.9960   -0.0805 C   0  0  0  0  0  0  0  0  0  0  0  0
   -3.0992   -2.4296   -1.0061 O   0  0  0  0  0  0  0  0  0  0  0  0
    2.6279    2.3025   -1.2980 H   0  0  0  0  0  0  0  0  0  0  0  0
    3.5226    0.7475    0.2914 H   0  0  0  0  0  0  0  0  0  0  0  0
    3.0643    1.9842    1.4607 H   0  0  0  0  0  0  0  0  0  0  0  0
   -1.3822   -0.0937    1.5368 H   0  0  0  0  0  0  0  0  0  0  0  0
   -1.6964    0.6900    0.0000 H   0  0  0  0  0  0  0  0  0  0  0  0
   -0.7995   -1.3227   -1.2378 H   0  0  0  0  0  0  0  0  0  0  0  0
   -0.3817   -2.0653    0.3177 H   0  0  0  0  0  0  0  0  0  0  0  0
   -2.8754   -2.0225    0.9575 H   0  0  0  0  0  0  0  0  0  0  0  0
  1  2  1  0  0  0  0
  2  3  1  0  0  0  0
  2 11  1  0  0  0  0
  4  3  3  0  0  0  0
  5  4  1  0  0  0  0
  5 12  1  0  0  0  0
  6  7  1  0  0  0  0
  6 15  1  0  0  0  0
  6  5  1  0  0  0  0
  7 16  1  0  0  0  0
  8  7  2  0  0  0  0
  9  1  1  0  0  0  0
 10  2  1  0  0  0  0
 13  5  1  0  0  0  0
 14  6  1  0  0  0  0
M  END
