17
title
C 2.7152126 2.6780024 -0.5812704
C 2.7885797 1.4445796 0.33728674
C 1.4992627 0.7847982 0.516229
C 0.41854718 0.2692728 0.64675254
C -0.8740392 -0.38348794 0.82329386
N -0.99466705 -1.5989954 0.022495056
C -2.0948184 -1.8659527 -0.72889405
O -3.0943062 -1.1800764 -0.7714739
H 3.7036254 3.1355066 -0.68377733
H 2.357741 2.400486 -1.5764112
H 2.0295234 3.425375 -0.17340122
H 3.5086324 0.72415304 -0.07181434
H 3.1840878 1.7384634 1.3179871
H -1.0365403 -0.6100446 1.8862648
H -1.6980698 0.26609206 0.51086783
H -0.19423912 -2.2067015 -0.045351647
H -1.9775875 -2.8034627 -1.3074156
