14
title
O 2.8809085 2.3121638 0.427553
C 2.454944 1.4175874 -0.589388
C 1.0538511 1.0739195 -0.3836437
C -0.10229757 0.77942276 -0.22783528
C -1.4980264 0.4182493 -0.034056574
O -1.6607704 -0.85864884 0.6134463
C -1.6081257 -1.9470187 -0.18174379
O -1.691669 -3.0580413 0.24434865
H 3.8138788 2.4962854 0.2775666
H 2.5688806 1.8623661 -1.5915552
H 3.0468643 0.48789138 -0.58507663
H -1.995657 1.1354002 0.6238279
H -2.0356627 0.41983694 -0.99138075
H -1.49298 -1.6937145 -1.2539078
