title
 OpenBabel02282110003D

 17 16  0  0  0  0  0  0  0  0999 V2000
   -1.3471    2.5201    0.9195 C   0  0  0  0  0  0  0  0  0  0  0  0
   -2.1293    1.2253    1.1639 C   0  0  0  0  0  0  0  0  0  0  0  0
   -1.4706   -0.0486    0.9282 N   0  0  0  0  0  0  0  0  0  0  0  0
   -0.2809   -0.0938    0.5348 C   0  0  0  0  0  0  0  0  0  0  0  0
    0.3139   -1.3010    0.3415 O   0  0  0  0  0  0  0  0  0  0  0  0
    1.6569   -1.2543   -0.1386 C   0  0  0  0  0  0  0  0  0  0  0  0
    1.7604   -0.8429   -1.5367 C   0  0  0  0  0  0  0  0  0  0  0  0
    1.8388   -0.4966   -2.6844 C   0  0  0  0  0  0  0  0  0  0  0  0
   -0.4627    2.5911    1.5620 H   0  0  0  0  0  0  0  0  0  0  0  0
   -1.0200    2.6093   -0.1219 H   0  0  0  0  0  0  0  0  0  0  0  0
   -1.9862    3.3801    1.1410 H   0  0  0  0  0  0  0  0  0  0  0  0
   -2.4884    1.2099    2.2016 H   0  0  0  0  0  0  0  0  0  0  0  0
   -3.0383    1.2306    0.5480 H   0  0  0  0  0  0  0  0  0  0  0  0
    0.3728    0.7603    0.3221 H   0  0  0  0  0  0  0  0  0  0  0  0
    2.2673   -0.5938    0.4934 H   0  0  0  0  0  0  0  0  0  0  0  0
    2.0393   -2.2710   -0.0130 H   0  0  0  0  0  0  0  0  0  0  0  0
    1.9089   -0.1968   -3.7010 H   0  0  0  0  0  0  0  0  0  0  0  0
  1 11  1  0  0  0  0
  1  2  1  0  0  0  0
  1  9  1  0  0  0  0
  2 12  1  0  0  0  0
  3  2  1  0  0  0  0
  4  3  2  0  0  0  0
  5  4  1  0  0  0  0
  6 16  1  0  0  0  0
  6  5  1  0  0  0  0
  6 15  1  0  0  0  0
  7  6  1  0  0  0  0
  8  7  3  0  0  0  0
 10  1  1  0  0  0  0
 13  2  1  0  0  0  0
 14  4  1  0  0  0  0
 17  8  1  0  0  0  0
M  END
