17
title
C -0.8324605 2.6673963 1.4985648
O -1.5181229 1.8913987 0.5242314
C -0.8602497 0.79637355 0.09236931
N -1.3891397 0.04875074 -0.77070653
C -0.66929257 -1.1333928 -1.2311162
C 0.6560848 -1.4049728 -0.6631211
C 1.7439024 -1.6203222 -0.19132186
C 3.060743 -1.9044528 0.36237782
H -0.63701224 2.0889812 2.4099047
H 0.11614858 3.056857 1.1089913
H -1.488016 3.5044725 1.7418225
H 0.12566517 0.63806236 0.54752153
H -1.3204002 -2.0005612 -1.0555793
H -0.58382654 -1.0581324 -2.323711
H 3.4808924 -2.81773 -0.073246844
H 3.7647874 -1.0894668 0.16132604
H 3.0172703 -2.0469804 1.4477804
