title
 OpenBabel02282110003D

 14 13  0  0  0  0  0  0  0  0999 V2000
    2.8809    2.3122    0.4276 O   0  0  0  0  0  0  0  0  0  0  0  0
    2.4549    1.4176   -0.5894 C   0  0  0  0  0  0  0  0  0  0  0  0
    1.0539    1.0739   -0.3836 C   0  0  0  0  0  0  0  0  0  0  0  0
   -0.1023    0.7794   -0.2278 C   0  0  0  0  0  0  0  0  0  0  0  0
   -1.4980    0.4182   -0.0341 C   0  0  0  0  0  0  0  0  0  0  0  0
   -1.6608   -0.8586    0.6134 O   0  0  0  0  0  0  0  0  0  0  0  0
   -1.6081   -1.9470   -0.1817 C   0  0  0  0  0  0  0  0  0  0  0  0
   -1.6917   -3.0580    0.2443 O   0  0  0  0  0  0  0  0  0  0  0  0
    3.8139    2.4963    0.2776 H   0  0  0  0  0  0  0  0  0  0  0  0
    2.5689    1.8624   -1.5916 H   0  0  0  0  0  0  0  0  0  0  0  0
    3.0469    0.4879   -0.5851 H   0  0  0  0  0  0  0  0  0  0  0  0
   -1.9957    1.1354    0.6238 H   0  0  0  0  0  0  0  0  0  0  0  0
   -2.0357    0.4198   -0.9914 H   0  0  0  0  0  0  0  0  0  0  0  0
   -1.4930   -1.6937   -1.2539 H   0  0  0  0  0  0  0  0  0  0  0  0
  2 11  1  0  0  0  0
  2  3  1  0  0  0  0
  2  1  1  0  0  0  0
  3  4  3  0  0  0  0
  4  5  1  0  0  0  0
  5  6  1  0  0  0  0
  5 12  1  0  0  0  0
  7  8  2  0  0  0  0
  7  6  1  0  0  0  0
  9  1  1  0  0  0  0
 10  2  1  0  0  0  0
 13  5  1  0  0  0  0
 14  7  1  0  0  0  0
M  END
