17
title
C 2.116084 3.2207255 0.6583789
O 2.1462183 1.8003976 0.5676052
C 0.94899917 1.1894294 0.59498054
N 0.8657174 -0.0637914 0.5056811
C -0.45941436 -0.6475359 0.54041016
C -0.74135196 -1.4104079 -0.76731414
C -1.9957758 -2.2452576 -0.6745358
O -2.9315999 -2.1780455 -1.4290746
H 3.155452 3.5500953 0.6484823
H 1.5901719 3.666012 -0.19462684
H 1.6430115 3.553328 1.5901159
H 0.08857321 1.8692628 0.7040621
H -0.50038683 -1.35652 1.3783803
H -1.2539049 0.09952854 0.71080333
H -0.8242246 -0.7273234 -1.6166786
H 0.10662424 -2.0849416 -0.94793814
H -2.0031688 -2.963401 0.18044385
