title
 OpenBabel02282110003D

 17 16  0  0  0  0  0  0  0  0999 V2000
    2.1161    3.2207    0.6584 C   0  0  0  0  0  0  0  0  0  0  0  0
    2.1462    1.8004    0.5676 O   0  0  0  0  0  0  0  0  0  0  0  0
    0.9490    1.1894    0.5950 C   0  0  0  0  0  0  0  0  0  0  0  0
    0.8657   -0.0638    0.5057 N   0  0  0  0  0  0  0  0  0  0  0  0
   -0.4594   -0.6475    0.5404 C   0  0  0  0  0  0  0  0  0  0  0  0
   -0.7414   -1.4104   -0.7673 C   0  0  0  0  0  0  0  0  0  0  0  0
   -1.9958   -2.2453   -0.6745 C   0  0  0  0  0  0  0  0  0  0  0  0
   -2.9316   -2.1780   -1.4291 O   0  0  0  0  0  0  0  0  0  0  0  0
    3.1555    3.5501    0.6485 H   0  0  0  0  0  0  0  0  0  0  0  0
    1.5902    3.6660   -0.1946 H   0  0  0  0  0  0  0  0  0  0  0  0
    1.6430    3.5533    1.5901 H   0  0  0  0  0  0  0  0  0  0  0  0
    0.0886    1.8693    0.7041 H   0  0  0  0  0  0  0  0  0  0  0  0
   -0.5004   -1.3565    1.3784 H   0  0  0  0  0  0  0  0  0  0  0  0
   -1.2539    0.0995    0.7108 H   0  0  0  0  0  0  0  0  0  0  0  0
   -0.8242   -0.7273   -1.6167 H   0  0  0  0  0  0  0  0  0  0  0  0
    0.1066   -2.0849   -0.9479 H   0  0  0  0  0  0  0  0  0  0  0  0
   -2.0032   -2.9634    0.1804 H   0  0  0  0  0  0  0  0  0  0  0  0
  1 11  1  0  0  0  0
  2  3  1  0  0  0  0
  2  1  1  0  0  0  0
  3 12  1  0  0  0  0
  4  5  1  0  0  0  0
  4  3  2  0  0  0  0
  5 14  1  0  0  0  0
  5 13  1  0  0  0  0
  6  7  1  0  0  0  0
  6  5  1  0  0  0  0
  7 17  1  0  0  0  0
  8  7  2  0  0  0  0
  9  1  1  0  0  0  0
 10  1  1  0  0  0  0
 15  6  1  0  0  0  0
 16  6  1  0  0  0  0
M  END
