title
 OpenBabel02282110003D

 17 16  0  0  0  0  0  0  0  0999 V2000
   -1.7114    2.1082    2.2326 C   0  0  0  0  0  0  0  0  0  0  0  0
   -2.5451    1.2006    1.3226 C   0  0  0  0  0  0  0  0  0  0  0  0
   -1.8625    0.3709    0.3435 N   0  0  0  0  0  0  0  0  0  0  0  0
   -0.6135    0.3814    0.2475 C   0  0  0  0  0  0  0  0  0  0  0  0
   -0.0013   -0.4293   -0.6555 O   0  0  0  0  0  0  0  0  0  0  0  0
    1.3935   -0.2717   -0.8247 C   0  0  0  0  0  0  0  0  0  0  0  0
    1.9993   -1.6295   -1.1487 C   0  0  0  0  0  0  0  0  0  0  0  0
    3.1224   -1.7686   -1.5509 O   0  0  0  0  0  0  0  0  0  0  0  0
   -1.0155    1.5357    2.8554 H   0  0  0  0  0  0  0  0  0  0  0  0
   -1.1335    2.8415    1.6598 H   0  0  0  0  0  0  0  0  0  0  0  0
   -2.3754    2.6619    2.9029 H   0  0  0  0  0  0  0  0  0  0  0  0
   -3.1525    0.5263    1.9405 H   0  0  0  0  0  0  0  0  0  0  0  0
   -3.2705    1.8105    0.7684 H   0  0  0  0  0  0  0  0  0  0  0  0
    0.0880    0.9843    0.8385 H   0  0  0  0  0  0  0  0  0  0  0  0
    1.6217    0.4298   -1.6374 H   0  0  0  0  0  0  0  0  0  0  0  0
    1.8742    0.1077    0.0898 H   0  0  0  0  0  0  0  0  0  0  0  0
    1.3091   -2.4819   -0.9680 H   0  0  0  0  0  0  0  0  0  0  0  0
  1  9  1  0  0  0  0
  1 11  1  0  0  0  0
  2 12  1  0  0  0  0
  2  1  1  0  0  0  0
  3  2  1  0  0  0  0
  4  3  2  0  0  0  0
  4 14  1  0  0  0  0
  5  4  1  0  0  0  0
  6  5  1  0  0  0  0
  6 16  1  0  0  0  0
  7 17  1  0  0  0  0
  7  6  1  0  0  0  0
  8  7  2  0  0  0  0
 10  1  1  0  0  0  0
 13  2  1  0  0  0  0
 15  6  1  0  0  0  0
M  END
