17
title
C -0.662844 3.8244514 1.2790049
C -0.53826904 2.3029337 1.1828698
C -0.65201586 1.7988082 -0.2706973
C -0.5327873 0.3504587 -0.38935417
C -0.42802498 -0.8457086 -0.45887393
C -0.30587378 -2.2980363 -0.55693513
C 1.0884345 -2.762678 -0.5430457
N 2.179422 -3.1404598 -0.53270715
H 0.12280604 4.3249283 0.7022177
H -1.6284086 4.1700897 0.8931972
H -0.5793305 4.161113 2.316429
H 0.4218388 1.9751383 1.5961233
H -1.3154582 1.8211213 1.7864835
H -1.6124805 2.1206865 -0.69502085
H 0.12328705 2.2765334 -0.88432735
H -0.83505654 -2.788439 0.2705403
H -0.77681047 -2.6647446 -1.4783647
