title
 OpenBabel02282110003D

 16 15  0  0  0  0  0  0  0  0999 V2000
    2.0296    3.2348    0.5517 C   0  0  0  0  0  0  0  0  0  0  0  0
    2.0631    1.8146    0.4407 O   0  0  0  0  0  0  0  0  0  0  0  0
    0.8719    1.1981    0.4767 C   0  0  0  0  0  0  0  0  0  0  0  0
    0.7945   -0.0557    0.3769 N   0  0  0  0  0  0  0  0  0  0  0  0
   -0.5242   -0.6464    0.4282 C   0  0  0  0  0  0  0  0  0  0  0  0
   -0.7466   -1.4965   -0.8418 C   0  0  0  0  0  0  0  0  0  0  0  0
   -2.0354   -2.1821   -0.8308 C   0  0  0  0  0  0  0  0  0  0  0  0
   -3.0618   -2.7124   -0.8032 N   0  0  0  0  0  0  0  0  0  0  0  0
    3.0674    3.5675    0.5230 H   0  0  0  0  0  0  0  0  0  0  0  0
    1.4832    3.6885   -0.2836 H   0  0  0  0  0  0  0  0  0  0  0  0
    1.5764    3.5513    1.4983 H   0  0  0  0  0  0  0  0  0  0  0  0
    0.0081    1.8706    0.6024 H   0  0  0  0  0  0  0  0  0  0  0  0
   -0.5864   -1.3068    1.3008 H   0  0  0  0  0  0  0  0  0  0  0  0
   -1.3354    0.0945    0.5195 H   0  0  0  0  0  0  0  0  0  0  0  0
   -0.6891   -0.8574   -1.7295 H   0  0  0  0  0  0  0  0  0  0  0  0
    0.0592   -2.2324   -0.9267 H   0  0  0  0  0  0  0  0  0  0  0  0
  1 11  1  0  0  0  0
  2  3  1  0  0  0  0
  2  1  1  0  0  0  0
  3 12  1  0  0  0  0
  4  5  1  0  0  0  0
  4  3  2  0  0  0  0
  5 14  1  0  0  0  0
  5 13  1  0  0  0  0
  6  7  1  0  0  0  0
  6  5  1  0  0  0  0
  7  8  3  0  0  0  0
  9  1  1  0  0  0  0
 10  1  1  0  0  0  0
 15  6  1  0  0  0  0
 16  6  1  0  0  0  0
M  END
