title
 OpenBabel02282110003D

 16 15  0  0  0  0  0  0  0  0999 V2000
    0.3806    4.6529    0.0212 C   0  0  0  0  0  0  0  0  0  0  0  0
    0.3868    3.2012    0.0134 C   0  0  0  0  0  0  0  0  0  0  0  0
    0.3929    1.9908    0.0068 C   0  0  0  0  0  0  0  0  0  0  0  0
    0.4002    0.6306   -0.0005 C   0  0  0  0  0  0  0  0  0  0  0  0
    0.4074   -0.5802   -0.0071 C   0  0  0  0  0  0  0  0  0  0  0  0
    0.3957   -2.0333   -0.0147 C   0  0  0  0  0  0  0  0  0  0  0  0
   -1.0240   -2.6156   -0.0040 C   0  0  0  0  0  0  0  0  0  0  0  0
   -0.8859   -4.0255   -0.0130 O   0  0  0  0  0  0  0  0  0  0  0  0
    1.4007    5.0536    0.0135 H   0  0  0  0  0  0  0  0  0  0  0  0
   -0.1398    5.0529   -0.8565 H   0  0  0  0  0  0  0  0  0  0  0  0
   -0.1228    5.0435    0.9129 H   0  0  0  0  0  0  0  0  0  0  0  0
    0.9190   -2.4154   -0.9005 H   0  0  0  0  0  0  0  0  0  0  0  0
    0.9361   -2.4249    0.8564 H   0  0  0  0  0  0  0  0  0  0  0  0
   -1.5566   -2.2618    0.8910 H   0  0  0  0  0  0  0  0  0  0  0  0
   -1.5740   -2.2522   -0.8845 H   0  0  0  0  0  0  0  0  0  0  0  0
   -1.7646   -4.4156   -0.0061 H   0  0  0  0  0  0  0  0  0  0  0  0
  1 11  1  0  0  0  0
  2  1  1  0  0  0  0
  3  2  3  0  0  0  0
  4  3  1  0  0  0  0
  5  4  3  0  0  0  0
  6  5  1  0  0  0  0
  6  7  1  0  0  0  0
  6 13  1  0  0  0  0
  7 14  1  0  0  0  0
  8 16  1  0  0  0  0
  8  7  1  0  0  0  0
  9  1  1  0  0  0  0
 10  1  1  0  0  0  0
 12  6  1  0  0  0  0
 15  7  1  0  0  0  0
M  END
