18
title
C 0.9176085 3.9784005 -0.55915016
O 0.85608315 2.571803 -0.5463652
C 0.14587753 2.0828207 0.5763499
C 0.10844569 0.62730753 0.5561692
C 0.07302205 -0.57574093 0.56776625
C 0.01249771 -2.030736 0.55297506
C -1.0124965 -2.570068 -0.4508437
O -0.97409195 -3.983971 -0.35943016
H 1.4776782 4.269664 -1.4504894
H -0.085260585 4.433261 -0.6040481
H 1.4326085 4.375235 0.33067966
H 0.6209173 2.431639 1.5105262
H -0.88271326 2.4854152 0.58183855
H 0.994954 -2.4514375 0.30664
H -0.24453135 -2.4110408 1.5492781
H -2.008393 -2.1718602 -0.2053584
H -0.75373834 -2.218275 -1.4603908
H -1.5972865 -4.3449397 -0.9962328
