title
 OpenBabel02282110003D

 15 14  0  0  0  0  0  0  0  0999 V2000
   -0.4875    3.7407    1.0903 C   0  0  0  0  0  0  0  0  0  0  0  0
   -0.4606    2.3309    1.0893 O   0  0  0  0  0  0  0  0  0  0  0  0
   -0.4493    1.8026   -0.2203 C   0  0  0  0  0  0  0  0  0  0  0  0
   -0.4120    0.3464   -0.1700 C   0  0  0  0  0  0  0  0  0  0  0  0
   -0.3771   -0.8543   -0.1523 C   0  0  0  0  0  0  0  0  0  0  0  0
   -0.3420   -2.3135   -0.1135 C   0  0  0  0  0  0  0  0  0  0  0  0
    0.8803   -2.8796   -0.7006 C   0  0  0  0  0  0  0  0  0  0  0  0
    1.8342   -3.3377   -1.1620 N   0  0  0  0  0  0  0  0  0  0  0  0
    0.3981    4.1670    0.5932 H   0  0  0  0  0  0  0  0  0  0  0  0
   -1.3861    4.1330    0.5881 H   0  0  0  0  0  0  0  0  0  0  0  0
   -0.4966    4.0610    2.1341 H   0  0  0  0  0  0  0  0  0  0  0  0
   -1.3422    2.1322   -0.7802 H   0  0  0  0  0  0  0  0  0  0  0  0
    0.4265    2.1714   -0.7824 H   0  0  0  0  0  0  0  0  0  0  0  0
   -0.4195   -2.6654    0.9233 H   0  0  0  0  0  0  0  0  0  0  0  0
   -1.2046   -2.7361   -0.6446 H   0  0  0  0  0  0  0  0  0  0  0  0
  1 11  1  0  0  0  0
  2  1  1  0  0  0  0
  3  4  1  0  0  0  0
  3  2  1  0  0  0  0
  4  5  3  0  0  0  0
  5  6  1  0  0  0  0
  6 14  1  0  0  0  0
  7  6  1  0  0  0  0
  8  7  3  0  0  0  0
  9  1  1  0  0  0  0
 10  1  1  0  0  0  0
 12  3  1  0  0  0  0
 13  3  1  0  0  0  0
 15  6  1  0  0  0  0
M  END
