title
 OpenBabel02282110003D

 16 15  0  0  0  0  0  0  0  0999 V2000
    1.2653    3.5172   -0.5112 O   0  0  0  0  0  0  0  0  0  0  0  0
    0.7409    2.2041   -0.6109 C   0  0  0  0  0  0  0  0  0  0  0  0
    0.7587    1.6097    0.8020 C   0  0  0  0  0  0  0  0  0  0  0  0
    0.2398    0.2487    0.8394 C   0  0  0  0  0  0  0  0  0  0  0  0
   -0.1934   -0.8736    0.8403 C   0  0  0  0  0  0  0  0  0  0  0  0
   -0.7178   -2.2408    0.8598 C   0  0  0  0  0  0  0  0  0  0  0  0
   -1.1279   -2.7304   -0.4584 C   0  0  0  0  0  0  0  0  0  0  0  0
   -1.4676   -3.1433   -1.5333 C   0  0  0  0  0  0  0  0  0  0  0  0
    1.2636    3.9103   -1.3885 H   0  0  0  0  0  0  0  0  0  0  0  0
   -0.2903    2.2037   -0.9941 H   0  0  0  0  0  0  0  0  0  0  0  0
    1.3439    1.5728   -1.2801 H   0  0  0  0  0  0  0  0  0  0  0  0
    1.7893    1.6387    1.1762 H   0  0  0  0  0  0  0  0  0  0  0  0
    0.1720    2.2630    1.4592 H   0  0  0  0  0  0  0  0  0  0  0  0
    0.0389   -2.9204    1.2761 H   0  0  0  0  0  0  0  0  0  0  0  0
   -1.5738   -2.2980    1.5466 H   0  0  0  0  0  0  0  0  0  0  0  0
   -1.7669   -3.5049   -2.4856 H   0  0  0  0  0  0  0  0  0  0  0  0
  2  1  1  0  0  0  0
  2  3  1  0  0  0  0
  3  4  1  0  0  0  0
  3 12  1  0  0  0  0
  3 13  1  0  0  0  0
  4  5  3  0  0  0  0
  5  6  1  0  0  0  0
  6 14  1  0  0  0  0
  6 15  1  0  0  0  0
  7  6  1  0  0  0  0
  8  7  3  0  0  0  0
  9  1  1  0  0  0  0
 10  2  1  0  0  0  0
 11  2  1  0  0  0  0
 16  8  1  0  0  0  0
M  END
