title
 OpenBabel02282110003D

 22 21  0  0  0  0  0  0  0  0999 V2000
   -0.8042    4.1644   -1.2443 C   0  0  0  0  0  0  0  0  0  0  0  0
   -0.7774    2.6348   -1.2421 C   0  0  0  0  0  0  0  0  0  0  0  0
   -0.0424    2.0608   -0.0134 C   0  0  0  0  0  0  0  0  0  0  0  0
   -0.0057    0.6024    0.0076 C   0  0  0  0  0  0  0  0  0  0  0  0
    0.0057   -0.6024   -0.0076 C   0  0  0  0  0  0  0  0  0  0  0  0
    0.0424   -2.0608    0.0134 C   0  0  0  0  0  0  0  0  0  0  0  0
    0.7774   -2.6348    1.2421 C   0  0  0  0  0  0  0  0  0  0  0  0
    0.8042   -4.1644    1.2443 C   0  0  0  0  0  0  0  0  0  0  0  0
    0.2098    4.5799   -1.2539 H   0  0  0  0  0  0  0  0  0  0  0  0
   -1.3296    4.5500   -2.1232 H   0  0  0  0  0  0  0  0  0  0  0  0
   -1.3123    4.5545   -0.3551 H   0  0  0  0  0  0  0  0  0  0  0  0
   -1.7991    2.2392   -1.2590 H   0  0  0  0  0  0  0  0  0  0  0  0
   -0.2891    2.2644   -2.1504 H   0  0  0  0  0  0  0  0  0  0  0  0
    0.9822    2.4571    0.0101 H   0  0  0  0  0  0  0  0  0  0  0  0
   -0.5264    2.4319    0.9007 H   0  0  0  0  0  0  0  0  0  0  0  0
   -0.9822   -2.4571   -0.0101 H   0  0  0  0  0  0  0  0  0  0  0  0
    0.5263   -2.4319   -0.9007 H   0  0  0  0  0  0  0  0  0  0  0  0
    1.7991   -2.2392    1.2590 H   0  0  0  0  0  0  0  0  0  0  0  0
    0.2892   -2.2644    2.1505 H   0  0  0  0  0  0  0  0  0  0  0  0
    1.3297   -4.5500    2.1232 H   0  0  0  0  0  0  0  0  0  0  0  0
   -0.2098   -4.5799    1.2539 H   0  0  0  0  0  0  0  0  0  0  0  0
    1.3122   -4.5545    0.3551 H   0  0  0  0  0  0  0  0  0  0  0  0
  1  2  1  0  0  0  0
  1 11  1  0  0  0  0
  2  3  1  0  0  0  0
  3  4  1  0  0  0  0
  3 14  1  0  0  0  0
  3 15  1  0  0  0  0
  5  4  3  0  0  0  0
  5  6  1  0  0  0  0
  6  7  1  0  0  0  0
  7  8  1  0  0  0  0
  7 18  1  0  0  0  0
  7 19  1  0  0  0  0
  8 21  1  0  0  0  0
  8 20  1  0  0  0  0
  9  1  1  0  0  0  0
 10  1  1  0  0  0  0
 12  2  1  0  0  0  0
 13  2  1  0  0  0  0
 16  6  1  0  0  0  0
 17  6  1  0  0  0  0
 22  8  1  0  0  0  0
M  END
