20
title
C 1.4515554 4.221511 0.0090864
C 1.4502118 2.6917503 0.001022699
C 0.023524914 2.1052067 0.010613003
C 0.0010918718 0.6465 0.0029901292
C 0.02165011 -0.5580677 -0.0037722515
C 0.005246435 -2.0153599 -0.011422114
C -1.4166914 -2.5870333 0.0002325529
O -1.2960702 -3.9996767 -0.0086491415
H 2.472006 4.6161804 0.0020859642
H 0.9329177 4.624363 -0.86818546
H 0.9486547 4.6150327 0.89965487
H 1.9796703 2.3181503 -0.8825413
H 1.9952638 2.3088927 0.8710372
H -0.5132409 2.4786406 0.8936358
H -0.5288413 2.488015 -0.8586697
H 0.5242768 -2.4030085 -0.8968697
H 0.5425058 -2.412449 0.8588367
H -1.9465822 -2.2283578 0.8952704
H -1.964996 -2.2187667 -0.8796916
H -2.17987 -4.3779535 -0.0015511328
