15
title
O 1.1037562 3.6207712 0.11374546
C 0.77708894 2.2643025 0.3555589
C 0.21135896 1.7085373 -0.9573554
C -0.16948932 0.30701792 -0.84910077
C -0.47495466 -0.84989333 -0.7307264
C -0.85057205 -2.255754 -0.6012373
C -0.59773165 -2.7952843 0.74209195
N -0.40309662 -3.229259 1.794138
H 1.4621282 3.9949343 0.9236785
H 1.6583749 1.6764222 0.65140283
H 0.024846142 2.158885 1.1510541
H -0.6527079 2.3175502 -1.2486421
H 0.9645857 1.839867 -1.7433308
H -1.9153959 -2.3950953 -0.8289788
H -0.30083674 -2.8720975 -1.3244551
