title
 OpenBabel02282110003D

 16 15  0  0  0  0  0  0  0  0999 V2000
    1.1508    3.8335    0.6480 C   0  0  0  0  0  0  0  0  0  0  0  0
    1.1333    2.4307    0.5143 O   0  0  0  0  0  0  0  0  0  0  0  0
    0.0515    1.9878   -0.2808 C   0  0  0  0  0  0  0  0  0  0  0  0
    0.0722    0.5355   -0.3924 C   0  0  0  0  0  0  0  0  0  0  0  0
    0.0840   -0.6620   -0.5103 C   0  0  0  0  0  0  0  0  0  0  0  0
    0.0573   -2.1133   -0.6056 C   0  0  0  0  0  0  0  0  0  0  0  0
   -0.9643   -2.7434    0.3447 C   0  0  0  0  0  0  0  0  0  0  0  0
   -1.6329   -3.6996    0.0626 O   0  0  0  0  0  0  0  0  0  0  0  0
    2.0087    4.0869    1.2742 H   0  0  0  0  0  0  0  0  0  0  0  0
    1.2588    4.3367   -0.3262 H   0  0  0  0  0  0  0  0  0  0  0  0
    0.2339    4.2106    1.1287 H   0  0  0  0  0  0  0  0  0  0  0  0
   -0.9080    2.3145    0.1576 H   0  0  0  0  0  0  0  0  0  0  0  0
    0.1025    2.4376   -1.2882 H   0  0  0  0  0  0  0  0  0  0  0  0
   -0.1560   -2.4629   -1.6211 H   0  0  0  0  0  0  0  0  0  0  0  0
    1.0410   -2.5226   -0.3279 H   0  0  0  0  0  0  0  0  0  0  0  0
   -1.0297   -2.2473    1.3371 H   0  0  0  0  0  0  0  0  0  0  0  0
  1 11  1  0  0  0  0
  1  9  1  0  0  0  0
  2  1  1  0  0  0  0
  3 12  1  0  0  0  0
  3  2  1  0  0  0  0
  4  3  1  0  0  0  0
  5  4  3  0  0  0  0
  6  5  1  0  0  0  0
  6 15  1  0  0  0  0
  6  7  1  0  0  0  0
  7 16  1  0  0  0  0
  8  7  2  0  0  0  0
 10  1  1  0  0  0  0
 13  3  1  0  0  0  0
 14  6  1  0  0  0  0
M  END
