16
title
C 1.1507527 3.8335354 0.6479951
O 1.1333183 2.430701 0.5143262
C 0.051478177 1.9878174 -0.2808043
C 0.07220963 0.5355001 -0.39238596
C 0.08399835 -0.6620086 -0.51031625
C 0.057293445 -2.1133127 -0.6056305
C -0.9643392 -2.7434392 0.34465095
O -1.632925 -3.6996074 0.06256244
H 2.0087316 4.0869393 1.274225
H 1.2588092 4.336679 -0.32616514
H 0.23391047 4.2106395 1.1286587
H -0.9080383 2.314517 0.15760535
H 0.102472216 2.4375875 -1.2881672
H -0.15600786 -2.462862 -1.6210587
H 1.0409635 -2.5225692 -0.3278592
H -1.0297241 -2.2472544 1.3370976
