title
 OpenBabel02282110003D

 15 14  0  0  0  0  0  0  0  0999 V2000
    1.1038    3.6208    0.1137 O   0  0  0  0  0  0  0  0  0  0  0  0
    0.7771    2.2643    0.3556 C   0  0  0  0  0  0  0  0  0  0  0  0
    0.2114    1.7085   -0.9574 C   0  0  0  0  0  0  0  0  0  0  0  0
   -0.1695    0.3070   -0.8491 C   0  0  0  0  0  0  0  0  0  0  0  0
   -0.4750   -0.8499   -0.7307 C   0  0  0  0  0  0  0  0  0  0  0  0
   -0.8506   -2.2558   -0.6012 C   0  0  0  0  0  0  0  0  0  0  0  0
   -0.5977   -2.7953    0.7421 C   0  0  0  0  0  0  0  0  0  0  0  0
   -0.4031   -3.2293    1.7941 N   0  0  0  0  0  0  0  0  0  0  0  0
    1.4621    3.9949    0.9237 H   0  0  0  0  0  0  0  0  0  0  0  0
    1.6584    1.6764    0.6514 H   0  0  0  0  0  0  0  0  0  0  0  0
    0.0248    2.1589    1.1511 H   0  0  0  0  0  0  0  0  0  0  0  0
   -0.6527    2.3176   -1.2486 H   0  0  0  0  0  0  0  0  0  0  0  0
    0.9646    1.8399   -1.7433 H   0  0  0  0  0  0  0  0  0  0  0  0
   -1.9154   -2.3951   -0.8290 H   0  0  0  0  0  0  0  0  0  0  0  0
   -0.3008   -2.8721   -1.3245 H   0  0  0  0  0  0  0  0  0  0  0  0
  1  2  1  0  0  0  0
  1  9  1  0  0  0  0
  2 10  1  0  0  0  0
  2 11  1  0  0  0  0
  3  4  1  0  0  0  0
  3  2  1  0  0  0  0
  4  5  3  0  0  0  0
  5  6  1  0  0  0  0
  6  7  1  0  0  0  0
  7  8  3  0  0  0  0
 12  3  1  0  0  0  0
 13  3  1  0  0  0  0
 14  6  1  0  0  0  0
 15  6  1  0  0  0  0
M  END
