15
title
C -0.48754877 3.7407467 1.090281
O -0.46063524 2.3309078 1.0893018
C -0.44932207 1.8026059 -0.22031909
C -0.41196215 0.346391 -0.16998583
C -0.37714314 -0.85430115 -0.15225405
C -0.34202617 -2.3135283 -0.11350638
C 0.88027614 -2.8795931 -0.70061034
N 1.8342333 -3.3377259 -1.1619798
H 0.3980817 4.1670136 0.5932014
H -1.3861066 4.1330214 0.588102
H -0.49662215 4.0609717 2.1340983
H -1.3421668 2.132238 -0.78015584
H 0.42650643 2.1713521 -0.7824045
H -0.41951528 -2.6653588 0.92331976
H -1.2046059 -2.7361271 -0.6446336
