17
title
C -0.7794755 3.4291573 1.9692054
C -0.6598842 1.9174567 1.9445493
O -0.064272456 1.545002 0.6942824
C 0.15147896 0.23441805 0.51060915
N 0.64955515 -0.19117175 -0.5662483
C 0.84751064 -1.6164407 -0.69014776
C 0.16886856 -2.1458387 -1.9481176
O -0.18905412 -3.2855225 -2.0879378
H 0.2054512 3.8944921 1.8775818
H -1.4040036 3.7788353 1.1429889
H -1.2326243 3.7528906 2.9105566
H -0.032558966 1.559589 2.7717934
H -1.6464317 1.4442182 2.0367937
H -0.13342915 -0.4040154 1.3619041
H 1.9225308 -1.819898 -0.82025516
H 0.5072014 -2.2149496 0.16984178
H 0.04368503 -1.3807489 -2.745151
