16
title
C -0.7635353 2.9481502 0.87180424
C -0.74754703 1.6652834 1.689796
O 0.40258265 0.86200994 1.3869848
C 0.27247947 -0.02171101 0.39065427
N 1.2759213 -0.68081343 -0.0012222002
C 1.1238241 -1.662839 -1.0549885
C -0.22207002 -1.8083333 -1.6425899
N -1.2935258 -1.8832098 -2.0701625
H 0.1594433 3.5130672 1.0276077
H -0.86055493 2.7335842 -0.19694084
H -1.6099074 3.5737412 1.1723036
H -0.67110765 1.8807175 2.7584417
H -1.6612124 1.0789454 1.5290452
H -0.744424 -0.11751081 -0.013682074
H 1.8218037 -1.4228822 -1.8667823
H 1.434568 -2.6443756 -0.6752673
