title
 OpenBabel02282110003D

 16 15  0  0  0  0  0  0  0  0999 V2000
   -0.7635    2.9482    0.8718 C   0  0  0  0  0  0  0  0  0  0  0  0
   -0.7475    1.6653    1.6898 C   0  0  0  0  0  0  0  0  0  0  0  0
    0.4026    0.8620    1.3870 O   0  0  0  0  0  0  0  0  0  0  0  0
    0.2725   -0.0217    0.3907 C   0  0  0  0  0  0  0  0  0  0  0  0
    1.2759   -0.6808   -0.0012 N   0  0  0  0  0  0  0  0  0  0  0  0
    1.1238   -1.6628   -1.0550 C   0  0  0  0  0  0  0  0  0  0  0  0
   -0.2221   -1.8083   -1.6426 C   0  0  0  0  0  0  0  0  0  0  0  0
   -1.2935   -1.8832   -2.0702 N   0  0  0  0  0  0  0  0  0  0  0  0
    0.1594    3.5131    1.0276 H   0  0  0  0  0  0  0  0  0  0  0  0
   -0.8606    2.7336   -0.1969 H   0  0  0  0  0  0  0  0  0  0  0  0
   -1.6099    3.5737    1.1723 H   0  0  0  0  0  0  0  0  0  0  0  0
   -0.6711    1.8807    2.7584 H   0  0  0  0  0  0  0  0  0  0  0  0
   -1.6612    1.0789    1.5290 H   0  0  0  0  0  0  0  0  0  0  0  0
   -0.7444   -0.1175   -0.0137 H   0  0  0  0  0  0  0  0  0  0  0  0
    1.8218   -1.4229   -1.8668 H   0  0  0  0  0  0  0  0  0  0  0  0
    1.4346   -2.6444   -0.6753 H   0  0  0  0  0  0  0  0  0  0  0  0
  1  9  1  0  0  0  0
  1 11  1  0  0  0  0
  1  2  1  0  0  0  0
  2 12  1  0  0  0  0
  3  2  1  0  0  0  0
  4  3  1  0  0  0  0
  5  4  2  0  0  0  0
  6 16  1  0  0  0  0
  6  5  1  0  0  0  0
  7  6  1  0  0  0  0
  8  7  3  0  0  0  0
 10  1  1  0  0  0  0
 13  2  1  0  0  0  0
 14  4  1  0  0  0  0
 15  6  1  0  0  0  0
M  END
