title
 OpenBabel02282110003D

 17 16  0  0  0  0  0  0  0  0999 V2000
    1.0627    2.9606    0.2209 C   0  0  0  0  0  0  0  0  0  0  0  0
    1.8213    1.6812   -0.1054 C   0  0  0  0  0  0  0  0  0  0  0  0
    1.0772    0.8361   -0.9878 O   0  0  0  0  0  0  0  0  0  0  0  0
    0.2354   -0.0403   -0.4104 C   0  0  0  0  0  0  0  0  0  0  0  0
   -0.5434   -0.7272   -1.1236 N   0  0  0  0  0  0  0  0  0  0  0  0
   -1.4228   -1.7020   -0.4920 C   0  0  0  0  0  0  0  0  0  0  0  0
   -1.3868   -1.8200    0.9700 C   0  0  0  0  0  0  0  0  0  0  0  0
   -1.3448   -1.9023    2.1693 C   0  0  0  0  0  0  0  0  0  0  0  0
    1.6810    3.6192    0.8393 H   0  0  0  0  0  0  0  0  0  0  0  0
    0.7981    3.4923   -0.6971 H   0  0  0  0  0  0  0  0  0  0  0  0
    0.1408    2.7428    0.7691 H   0  0  0  0  0  0  0  0  0  0  0  0
    2.7519    1.9032   -0.6345 H   0  0  0  0  0  0  0  0  0  0  0  0
    2.0795    1.1309    0.8091 H   0  0  0  0  0  0  0  0  0  0  0  0
    0.3107   -0.1008    0.6830 H   0  0  0  0  0  0  0  0  0  0  0  0
   -2.4506   -1.4722   -0.8031 H   0  0  0  0  0  0  0  0  0  0  0  0
   -1.2028   -2.6840   -0.9322 H   0  0  0  0  0  0  0  0  0  0  0  0
   -1.3235   -1.9917    3.2274 H   0  0  0  0  0  0  0  0  0  0  0  0
  1 11  1  0  0  0  0
  1  9  1  0  0  0  0
  2  1  1  0  0  0  0
  2 13  1  0  0  0  0
  3  4  1  0  0  0  0
  3  2  1  0  0  0  0
  4 14  1  0  0  0  0
  5  6  1  0  0  0  0
  5  4  2  0  0  0  0
  6  7  1  0  0  0  0
  7  8  3  0  0  0  0
  8 17  1  0  0  0  0
 10  1  1  0  0  0  0
 12  2  1  0  0  0  0
 15  6  1  0  0  0  0
 16  6  1  0  0  0  0
M  END
