15
title
O 1.588977 1.9089816 1.5560055
C 2.0299366 0.59166926 1.8189914
C 0.8807128 -0.42051417 1.7804779
N 0.31552818 -0.46372557 0.44125172
C -0.8971774 -0.16238457 0.30663654
O -1.5456862 -0.14335203 -0.8966436
C -1.0105445 -0.8426589 -1.9570755
O -1.463095 -0.7266184 -3.0503983
H 1.2817421 1.9293529 0.6433911
H 2.812729 0.27677125 1.1133718
H 2.4645128 0.6034141 2.8234372
H 1.2743394 -1.4150064 2.024153
H 0.13195232 -0.15068966 2.5414767
H -1.5871172 0.1348868 1.1020167
H -0.17807648 -1.4897422 -1.6528283
