16
title
O 2.1291347 1.0062325 1.6912963
C 2.0490463 -0.3680535 2.0167785
C 0.70214933 -0.9791152 1.6194599
N 0.53792745 -0.9022329 0.17785339
C -0.48007068 -0.29335013 -0.26582274
N -0.6930457 -0.17778124 -1.6333687
C -1.7765111 0.4616478 -2.1937988
O -2.6562018 1.0025252 -1.5686007
H 2.0207899 1.0709772 0.7361359
H 2.8580606 -0.9431512 1.541284
H 2.1761153 -0.43880707 3.10167
H 0.6969903 -2.0361674 1.9169083
H -0.10713537 -0.46610355 2.162936
H -1.2660719 0.17573568 0.33184424
H -0.00613697 -0.6118138 -2.234154
H -1.7451433 0.4210186 -3.2986393
