title
 OpenBabel02282110003D

 17 16  0  0  0  0  0  0  0  0999 V2000
    0.3316    3.5515    1.8409 C   0  0  0  0  0  0  0  0  0  0  0  0
   -0.1086    2.1513    1.4030 C   0  0  0  0  0  0  0  0  0  0  0  0
    0.6971    1.6623    0.1943 C   0  0  0  0  0  0  0  0  0  0  0  0
    0.4073    0.3484   -0.3613 N   0  0  0  0  0  0  0  0  0  0  0  0
   -0.4744   -0.3882    0.1396 C   0  0  0  0  0  0  0  0  0  0  0  0
   -0.7807   -1.6350   -0.3524 O   0  0  0  0  0  0  0  0  0  0  0  0
    0.1250   -2.2783   -1.1599 C   0  0  0  0  0  0  0  0  0  0  0  0
   -0.1612   -3.2982   -1.7037 O   0  0  0  0  0  0  0  0  0  0  0  0
    1.3902    3.5646    2.1221 H   0  0  0  0  0  0  0  0  0  0  0  0
    0.1935    4.2805    1.0352 H   0  0  0  0  0  0  0  0  0  0  0  0
   -0.2460    3.8956    2.7035 H   0  0  0  0  0  0  0  0  0  0  0  0
    0.0129    1.4510    2.2393 H   0  0  0  0  0  0  0  0  0  0  0  0
   -1.1778    2.1643    1.1563 H   0  0  0  0  0  0  0  0  0  0  0  0
    0.5898    2.3798   -0.6303 H   0  0  0  0  0  0  0  0  0  0  0  0
    1.7671    1.6700    0.4423 H   0  0  0  0  0  0  0  0  0  0  0  0
   -1.1298   -0.1762    0.9853 H   0  0  0  0  0  0  0  0  0  0  0  0
    1.0892   -1.7568   -1.2085 H   0  0  0  0  0  0  0  0  0  0  0  0
  1  9  1  0  0  0  0
  1 11  1  0  0  0  0
  2  1  1  0  0  0  0
  2 12  1  0  0  0  0
  3 15  1  0  0  0  0
  3  2  1  0  0  0  0
  4  5  2  0  0  0  0
  4  3  1  0  0  0  0
  5 16  1  0  0  0  0
  6  5  1  0  0  0  0
  7  6  1  0  0  0  0
  8  7  2  0  0  0  0
 10  1  1  0  0  0  0
 13  2  1  0  0  0  0
 14  3  1  0  0  0  0
 17  7  1  0  0  0  0
M  END
