title
 OpenBabel02282110003D

 18 17  0  0  0  0  0  0  0  0999 V2000
    1.3309    4.0346    0.0090 O   0  0  0  0  0  0  0  0  0  0  0  0
    1.4437    2.6216    0.0003 C   0  0  0  0  0  0  0  0  0  0  0  0
    0.0179    2.0592    0.0107 C   0  0  0  0  0  0  0  0  0  0  0  0
   -0.0073    0.6022    0.0031 C   0  0  0  0  0  0  0  0  0  0  0  0
    0.0073   -0.6022   -0.0034 C   0  0  0  0  0  0  0  0  0  0  0  0
   -0.0179   -2.0592   -0.0110 C   0  0  0  0  0  0  0  0  0  0  0  0
   -1.4437   -2.6216   -0.0000 C   0  0  0  0  0  0  0  0  0  0  0  0
   -1.3309   -4.0346   -0.0088 O   0  0  0  0  0  0  0  0  0  0  0  0
    2.2168    4.4082    0.0028 H   0  0  0  0  0  0  0  0  0  0  0  0
    1.9720    2.2595   -0.8942 H   0  0  0  0  0  0  0  0  0  0  0  0
    1.9886    2.2499    0.8809 H   0  0  0  0  0  0  0  0  0  0  0  0
   -0.4994    2.4498    0.8958 H   0  0  0  0  0  0  0  0  0  0  0  0
   -0.5159    2.4592   -0.8603 H   0  0  0  0  0  0  0  0  0  0  0  0
    0.4990   -2.4498   -0.8963 H   0  0  0  0  0  0  0  0  0  0  0  0
    0.5163   -2.4592    0.8597 H   0  0  0  0  0  0  0  0  0  0  0  0
   -1.9716   -2.2595    0.8948 H   0  0  0  0  0  0  0  0  0  0  0  0
   -1.9890   -2.2499   -0.8803 H   0  0  0  0  0  0  0  0  0  0  0  0
   -2.2168   -4.4082   -0.0022 H   0  0  0  0  0  0  0  0  0  0  0  0
  2  1  1  0  0  0  0
  2  3  1  0  0  0  0
  2 11  1  0  0  0  0
  3 12  1  0  0  0  0
  4  3  1  0  0  0  0
  5  4  3  0  0  0  0
  6  5  1  0  0  0  0
  6  7  1  0  0  0  0
  6 15  1  0  0  0  0
  7 16  1  0  0  0  0
  8 18  1  0  0  0  0
  8  7  1  0  0  0  0
  9  1  1  0  0  0  0
 10  2  1  0  0  0  0
 13  3  1  0  0  0  0
 14  6  1  0  0  0  0
 17  7  1  0  0  0  0
M  END
