title
 OpenBabel02282110003D

 18 17  0  0  0  0  0  0  0  0999 V2000
   -1.3222    3.1306    2.2832 C   0  0  0  0  0  0  0  0  0  0  0  0
   -1.2669    1.6021    2.2140 C   0  0  0  0  0  0  0  0  0  0  0  0
   -0.5534    1.0891    0.9598 C   0  0  0  0  0  0  0  0  0  0  0  0
   -0.5031   -0.4531    0.8997 C   0  0  0  0  0  0  0  0  0  0  0  0
    0.1710   -0.9604   -0.2847 C   0  0  0  0  0  0  0  0  0  0  0  0
    0.7356   -1.3616   -1.2776 C   0  0  0  0  0  0  0  0  0  0  0  0
    1.3704   -1.8130   -2.3934 C   0  0  0  0  0  0  0  0  0  0  0  0
    1.9339   -2.2135   -3.3838 C   0  0  0  0  0  0  0  0  0  0  0  0
   -0.3156    3.5628    2.2898 H   0  0  0  0  0  0  0  0  0  0  0  0
   -1.8546    3.5465    1.4209 H   0  0  0  0  0  0  0  0  0  0  0  0
   -1.8364    3.4697    3.1877 H   0  0  0  0  0  0  0  0  0  0  0  0
   -0.7588    1.2116    3.1058 H   0  0  0  0  0  0  0  0  0  0  0  0
   -2.2866    1.1955    2.2432 H   0  0  0  0  0  0  0  0  0  0  0  0
   -1.0582    1.4637    0.0616 H   0  0  0  0  0  0  0  0  0  0  0  0
    0.4703    1.4799    0.9245 H   0  0  0  0  0  0  0  0  0  0  0  0
    0.0014   -0.8367    1.7971 H   0  0  0  0  0  0  0  0  0  0  0  0
   -1.5259   -0.8528    0.9348 H   0  0  0  0  0  0  0  0  0  0  0  0
    2.4291   -2.5652   -4.2543 H   0  0  0  0  0  0  0  0  0  0  0  0
  1  9  1  0  0  0  0
  1 11  1  0  0  0  0
  2 13  1  0  0  0  0
  2  1  1  0  0  0  0
  2 12  1  0  0  0  0
  3  2  1  0  0  0  0
  4 17  1  0  0  0  0
  4  3  1  0  0  0  0
  4 16  1  0  0  0  0
  5  4  1  0  0  0  0
  6  5  3  0  0  0  0
  7  6  1  0  0  0  0
  8  7  3  0  0  0  0
 10  1  1  0  0  0  0
 14  3  1  0  0  0  0
 15  3  1  0  0  0  0
 18  8  1  0  0  0  0
M  END
