17
title
C -1.3267032 3.1498835 2.2923555
C -1.2738402 1.6212525 2.227309
C -0.56078494 1.1069063 0.9732494
C -0.51459634 -0.43649685 0.92049736
C 0.15774629 -0.9469961 -0.26141658
C 0.7214836 -1.3464535 -1.2531983
C 1.3571671 -1.8020631 -2.371697
N 1.8981436 -2.1901598 -3.324016
H -0.31974962 3.580886 2.2984934
H -1.8592473 3.5646157 1.4297132
H -1.8404503 3.4900796 3.1963527
H -0.76529163 1.2317493 3.1190922
H -2.293734 1.2155839 2.256652
H -1.0658594 1.4788396 0.07440313
H 0.4636067 1.4951041 0.9373848
H -0.006805568 -0.82268417 1.8142672
H -1.5358127 -0.8389622 0.95151323
