title
 OpenBabel02282110003D

 16 15  0  0  0  0  0  0  0  0999 V2000
    2.2894    3.1407   -0.0051 C   0  0  0  0  0  0  0  0  0  0  0  0
    2.2490    1.7326   -0.0121 O   0  0  0  0  0  0  0  0  0  0  0  0
    0.9382    1.2206   -0.0025 C   0  0  0  0  0  0  0  0  0  0  0  0
    1.0480   -0.3101   -0.0114 C   0  0  0  0  0  0  0  0  0  0  0  0
   -0.2501   -0.9627   -0.0028 C   0  0  0  0  0  0  0  0  0  0  0  0
   -1.3394   -1.4899    0.0050 C   0  0  0  0  0  0  0  0  0  0  0  0
   -2.5639   -2.0835    0.0134 C   0  0  0  0  0  0  0  0  0  0  0  0
   -3.6510   -2.6094    0.0205 C   0  0  0  0  0  0  0  0  0  0  0  0
    3.3410    3.4363   -0.0133 H   0  0  0  0  0  0  0  0  0  0  0  0
    1.7922    3.5677   -0.8902 H   0  0  0  0  0  0  0  0  0  0  0  0
    1.8087    3.5583    0.8934 H   0  0  0  0  0  0  0  0  0  0  0  0
    0.3882    1.5542    0.8922 H   0  0  0  0  0  0  0  0  0  0  0  0
    0.3716    1.5633   -0.8833 H   0  0  0  0  0  0  0  0  0  0  0  0
    1.6197   -0.6131   -0.8972 H   0  0  0  0  0  0  0  0  0  0  0  0
    1.6360   -0.6222    0.8605 H   0  0  0  0  0  0  0  0  0  0  0  0
   -4.6061   -3.0726    0.0270 H   0  0  0  0  0  0  0  0  0  0  0  0
  1 11  1  0  0  0  0
  2  1  1  0  0  0  0
  2  3  1  0  0  0  0
  3 12  1  0  0  0  0
  4  5  1  0  0  0  0
  4  3  1  0  0  0  0
  4 15  1  0  0  0  0
  5  6  3  0  0  0  0
  6  7  1  0  0  0  0
  7  8  3  0  0  0  0
  8 16  1  0  0  0  0
  9  1  1  0  0  0  0
 10  1  1  0  0  0  0
 13  3  1  0  0  0  0
 14  4  1  0  0  0  0
M  END
