15
title
O 2.4201221 3.0436456 -0.0063753813
C 2.4944856 1.6301616 -0.014957582
C 1.0657834 1.0997041 -0.004177364
C 1.02878 -0.4423854 -0.012387262
C -0.3223484 -0.9755528 -0.0024167227
C -1.4530845 -1.4015131 0.0061177253
C -2.7287657 -1.8870018 0.01579538
N -3.8145154 -2.3005345 0.02413487
H 3.3148267 3.3960369 -0.013153232
H 3.022189 1.2588466 -0.90941656
H 3.039241 1.2489742 0.86500925
H 0.54926664 1.4789006 0.8828173
H 0.5323598 1.4886665 -0.87682086
H 1.553918 -0.82513785 -0.89775664
H 1.570786 -0.83488727 0.8584325
