title
 OpenBabel02282110003D

 17 16  0  0  0  0  0  0  0  0999 V2000
   -1.3267    3.1499    2.2924 C   0  0  0  0  0  0  0  0  0  0  0  0
   -1.2738    1.6213    2.2273 C   0  0  0  0  0  0  0  0  0  0  0  0
   -0.5608    1.1069    0.9732 C   0  0  0  0  0  0  0  0  0  0  0  0
   -0.5146   -0.4365    0.9205 C   0  0  0  0  0  0  0  0  0  0  0  0
    0.1577   -0.9470   -0.2614 C   0  0  0  0  0  0  0  0  0  0  0  0
    0.7215   -1.3465   -1.2532 C   0  0  0  0  0  0  0  0  0  0  0  0
    1.3572   -1.8021   -2.3717 C   0  0  0  0  0  0  0  0  0  0  0  0
    1.8981   -2.1902   -3.3240 N   0  0  0  0  0  0  0  0  0  0  0  0
   -0.3197    3.5809    2.2985 H   0  0  0  0  0  0  0  0  0  0  0  0
   -1.8592    3.5646    1.4297 H   0  0  0  0  0  0  0  0  0  0  0  0
   -1.8405    3.4901    3.1964 H   0  0  0  0  0  0  0  0  0  0  0  0
   -0.7653    1.2317    3.1191 H   0  0  0  0  0  0  0  0  0  0  0  0
   -2.2937    1.2156    2.2567 H   0  0  0  0  0  0  0  0  0  0  0  0
   -1.0659    1.4788    0.0744 H   0  0  0  0  0  0  0  0  0  0  0  0
    0.4636    1.4951    0.9374 H   0  0  0  0  0  0  0  0  0  0  0  0
   -0.0068   -0.8227    1.8143 H   0  0  0  0  0  0  0  0  0  0  0  0
   -1.5358   -0.8390    0.9515 H   0  0  0  0  0  0  0  0  0  0  0  0
  1  9  1  0  0  0  0
  1 11  1  0  0  0  0
  2 13  1  0  0  0  0
  2  1  1  0  0  0  0
  2 12  1  0  0  0  0
  3  2  1  0  0  0  0
  4 17  1  0  0  0  0
  4  3  1  0  0  0  0
  4 16  1  0  0  0  0
  5  4  1  0  0  0  0
  6  5  3  0  0  0  0
  7  6  1  0  0  0  0
  8  7  3  0  0  0  0
 10  1  1  0  0  0  0
 14  3  1  0  0  0  0
 15  3  1  0  0  0  0
M  END
