15
title
C -1.2757207 2.8908029 2.203976
C -1.2591792 1.3732272 2.2037115
O -0.5912411 0.93606985 1.0286789
C -0.5254755 -0.46657425 0.93959975
C 0.16835696 -0.85165495 -0.28207287
C 0.7396477 -1.1988338 -1.2868763
C 1.3864542 -1.5883552 -2.4246206
N 1.9361664 -1.9218615 -3.3919353
H -0.25617176 3.2852976 2.1942482
H -1.7998413 3.2685084 1.3220193
H -1.7849221 3.2622688 3.0979948
H -0.74000734 0.9866328 3.0963898
H -2.285263 0.96998274 2.2242146
H 0.006709997 -0.8985495 1.805633
H -1.5345402 -0.91556495 0.935596
