title
 OpenBabel02282110003D

 15 14  0  0  0  0  0  0  0  0999 V2000
    2.4201    3.0436   -0.0064 O   0  0  0  0  0  0  0  0  0  0  0  0
    2.4945    1.6302   -0.0150 C   0  0  0  0  0  0  0  0  0  0  0  0
    1.0658    1.0997   -0.0042 C   0  0  0  0  0  0  0  0  0  0  0  0
    1.0288   -0.4424   -0.0124 C   0  0  0  0  0  0  0  0  0  0  0  0
   -0.3223   -0.9756   -0.0024 C   0  0  0  0  0  0  0  0  0  0  0  0
   -1.4531   -1.4015    0.0061 C   0  0  0  0  0  0  0  0  0  0  0  0
   -2.7288   -1.8870    0.0158 C   0  0  0  0  0  0  0  0  0  0  0  0
   -3.8145   -2.3005    0.0241 N   0  0  0  0  0  0  0  0  0  0  0  0
    3.3148    3.3960   -0.0132 H   0  0  0  0  0  0  0  0  0  0  0  0
    3.0222    1.2588   -0.9094 H   0  0  0  0  0  0  0  0  0  0  0  0
    3.0392    1.2490    0.8650 H   0  0  0  0  0  0  0  0  0  0  0  0
    0.5493    1.4789    0.8828 H   0  0  0  0  0  0  0  0  0  0  0  0
    0.5324    1.4887   -0.8768 H   0  0  0  0  0  0  0  0  0  0  0  0
    1.5539   -0.8251   -0.8978 H   0  0  0  0  0  0  0  0  0  0  0  0
    1.5708   -0.8349    0.8584 H   0  0  0  0  0  0  0  0  0  0  0  0
  2  1  1  0  0  0  0
  2  3  1  0  0  0  0
  2 11  1  0  0  0  0
  3 12  1  0  0  0  0
  4  3  1  0  0  0  0
  4  5  1  0  0  0  0
  4 15  1  0  0  0  0
  5  6  3  0  0  0  0
  6  7  1  0  0  0  0
  7  8  3  0  0  0  0
  9  1  1  0  0  0  0
 10  2  1  0  0  0  0
 13  3  1  0  0  0  0
 14  4  1  0  0  0  0
M  END
