title
 OpenBabel02282110003D

 18 17  0  0  0  0  0  0  0  0999 V2000
    2.5684    3.4000   -0.0062 C   0  0  0  0  0  0  0  0  0  0  0  0
    2.5228    1.8700   -0.0139 C   0  0  0  0  0  0  0  0  0  0  0  0
    1.0950    1.3162   -0.0034 C   0  0  0  0  0  0  0  0  0  0  0  0
    1.0617   -0.2254   -0.0114 C   0  0  0  0  0  0  0  0  0  0  0  0
   -0.2817   -0.7832   -0.0016 C   0  0  0  0  0  0  0  0  0  0  0  0
   -1.4008   -1.2395    0.0067 C   0  0  0  0  0  0  0  0  0  0  0  0
   -2.7460   -1.7490    0.0168 C   0  0  0  0  0  0  0  0  0  0  0  0
   -3.0389   -2.9233    0.0133 O   0  0  0  0  0  0  0  0  0  0  0  0
    3.5993    3.7665   -0.0140 H   0  0  0  0  0  0  0  0  0  0  0  0
    2.0601    3.8161   -0.8830 H   0  0  0  0  0  0  0  0  0  0  0  0
    2.0769    3.8066    0.8844 H   0  0  0  0  0  0  0  0  0  0  0  0
    3.0521    1.4908   -0.8983 H   0  0  0  0  0  0  0  0  0  0  0  0
    3.0687    1.4814    0.8561 H   0  0  0  0  0  0  0  0  0  0  0  0
    0.5591    1.6795    0.8815 H   0  0  0  0  0  0  0  0  0  0  0  0
    0.5424    1.6889   -0.8739 H   0  0  0  0  0  0  0  0  0  0  0  0
    1.5947   -0.6051   -0.8938 H   0  0  0  0  0  0  0  0  0  0  0  0
    1.6114   -0.6146    0.8566 H   0  0  0  0  0  0  0  0  0  0  0  0
   -3.5277   -0.9616    0.0285 H   0  0  0  0  0  0  0  0  0  0  0  0
  1 11  1  0  0  0  0
  2  1  1  0  0  0  0
  2  3  1  0  0  0  0
  2 13  1  0  0  0  0
  3 14  1  0  0  0  0
  4  3  1  0  0  0  0
  4  5  1  0  0  0  0
  4 17  1  0  0  0  0
  5  6  3  0  0  0  0
  6  7  1  0  0  0  0
  7 18  1  0  0  0  0
  8  7  2  0  0  0  0
  9  1  1  0  0  0  0
 10  1  1  0  0  0  0
 12  2  1  0  0  0  0
 15  3  1  0  0  0  0
 16  4  1  0  0  0  0
M  END
