18
title
C 2.5683925 3.39999 -0.006188981
C 2.5228481 1.8699925 -0.013941026
C 1.0950204 1.3161893 -0.0033705004
C 1.0616909 -0.22542071 -0.011354944
C -0.28166744 -0.7831862 -0.0016066007
C -1.4007552 -1.2394586 0.006720333
C -2.746028 -1.7490115 0.016771032
O -3.0388837 -2.9233446 0.013256523
H 3.5992928 3.76649 -0.013997935
H 2.0601466 3.8160667 -0.88295305
H 2.0768948 3.8066149 0.8844484
H 3.05208 1.4908031 -0.89826185
H 3.0687103 1.4814171 0.85608035
H 0.5590605 1.6795168 0.88148296
H 0.5424009 1.68894 -0.8739457
H 1.5947117 -0.6050992 -0.89377385
H 1.611382 -0.61457324 0.85660386
H -3.5277038 -0.9615917 0.02846347
