title
 OpenBabel02282110003D

 16 15  0  0  0  0  0  0  0  0999 V2000
    2.4880    3.1211   -0.0064 C   0  0  0  0  0  0  0  0  0  0  0  0
    2.5132    1.6032   -0.0150 C   0  0  0  0  0  0  0  0  0  0  0  0
    1.1742    1.1357   -0.0050 O   0  0  0  0  0  0  0  0  0  0  0  0
    1.0945   -0.2705   -0.0118 C   0  0  0  0  0  0  0  0  0  0  0  0
   -0.2952   -0.6997   -0.0011 C   0  0  0  0  0  0  0  0  0  0  0  0
   -1.4354   -1.0963    0.0074 C   0  0  0  0  0  0  0  0  0  0  0  0
   -2.8110   -1.5204    0.0177 C   0  0  0  0  0  0  0  0  0  0  0  0
   -3.1727   -2.6747    0.0161 O   0  0  0  0  0  0  0  0  0  0  0  0
    3.5077    3.5171   -0.0138 H   0  0  0  0  0  0  0  0  0  0  0  0
    1.9605    3.5004   -0.8859 H   0  0  0  0  0  0  0  0  0  0  0  0
    1.9772    3.4906    0.8869 H   0  0  0  0  0  0  0  0  0  0  0  0
    3.0380    1.2263   -0.9089 H   0  0  0  0  0  0  0  0  0  0  0  0
    3.0547    1.2166    0.8648 H   0  0  0  0  0  0  0  0  0  0  0  0
    1.5932   -0.6929   -0.9024 H   0  0  0  0  0  0  0  0  0  0  0  0
    1.6098   -0.7024    0.8647 H   0  0  0  0  0  0  0  0  0  0  0  0
   -3.5385   -0.6835    0.0276 H   0  0  0  0  0  0  0  0  0  0  0  0
  1 11  1  0  0  0  0
  2  1  1  0  0  0  0
  2  3  1  0  0  0  0
  2 13  1  0  0  0  0
  4  3  1  0  0  0  0
  4  5  1  0  0  0  0
  4 15  1  0  0  0  0
  5  6  3  0  0  0  0
  6  7  1  0  0  0  0
  7 16  1  0  0  0  0
  8  7  2  0  0  0  0
  9  1  1  0  0  0  0
 10  1  1  0  0  0  0
 12  2  1  0  0  0  0
 14  4  1  0  0  0  0
M  END
