20
title
C 2.530115 3.3979845 0.19097343
C 2.5337338 1.8921711 -0.08521522
C 1.1308459 1.2782773 -0.06905139
C 1.1421928 -0.23806956 -0.34800938
C -0.18500327 -0.84179354 -0.33212683
C -1.2914855 -1.3156235 -0.30589536
C -2.6278675 -1.8952193 -0.3015289
O -2.9583542 -2.3353565 1.011915
H 3.5440474 3.8095691 0.17371926
H 1.9390657 3.936236 -0.55826515
H 2.0972717 3.6188784 1.1728811
H 3.0036442 1.6985276 -1.0588869
H 3.1605797 1.3838024 0.65962994
H 0.6556301 1.4569993 0.90289927
H 0.49811438 1.7732196 -0.8157988
H 1.6169198 -0.42603305 -1.3207723
H 1.7766651 -0.74000144 0.39504564
H -3.34955 -1.1424401 -0.65968764
H -2.6612809 -2.7315633 -1.0192902
H -3.843835 -2.7110112 0.9721528
