22
title
C -0.8355448 3.3358223 -2.4350138
C -1.243952 1.888442 -2.1483707
C -0.49873635 1.2814442 -0.9561056
C -0.91430616 -0.17607524 -0.6721419
C -0.21131662 -0.76705384 0.4618212
C 0.37973973 -1.2245259 1.4069914
C 1.1053846 -1.8063335 2.532077
C 2.149624 -2.8529541 2.102351
H 0.23457131 3.407969 -2.6588187
H -1.3828356 3.743638 -3.2906003
H -1.0358402 3.9815016 -1.5728002
H -2.3253477 1.8422822 -1.9620166
H -1.0643263 1.2729412 -3.0401013
H 0.58273387 1.3144152 -1.1358429
H -0.67850435 1.8841351 -0.05754937
H -1.997949 -0.21427585 -0.4946196
H -0.73836404 -0.78285813 -1.5710924
H 1.6019878 -1.0079029 3.0988715
H 0.39258036 -2.2673342 3.2283175
H 2.6668959 -3.2599466 2.9765995
H 1.673358 -3.6793725 1.5676965
H 2.894504 -2.407468 1.437244
