20
title
C -0.9612029 2.9145927 2.8415031
C -1.7655375 1.7479559 2.2394547
C -1.145192 1.178758 1.0470182
C -0.6171204 0.7315092 0.06088939
C 0.02339386 0.15799043 -1.1178747
C 0.6668719 -1.215338 -0.84734905
C 1.3298548 -1.7960744 -2.0891376
O 1.8884317 -3.051894 -1.7372919
H 0.041979186 2.587166 3.1278863
H -0.85569465 3.7275753 2.117905
H -1.4632163 3.3072731 3.7310035
H -1.8900341 0.9623113 2.9960442
H -2.7794626 2.0912454 1.9957954
H -0.71473503 0.06232283 -1.9262944
H 0.7886337 0.85174465 -1.492891
H 1.4146167 -1.1238403 -0.052890632
H -0.09342397 -1.9161437 -0.48753604
H 0.58370125 -1.9021373 -2.894536
H 2.105168 -1.1026165 -2.4561582
H 2.3082302 -3.4242508 -2.5180497
