20
title
C 2.4086666 2.9961886 0.7512899
C 2.4349995 1.655763 0.037351184
O 1.1338912 1.1040908 0.07423992
C 1.0613093 -0.1517751 -0.5739582
C -0.29527044 -0.67777693 -0.5084107
C -1.4112632 -1.1278147 -0.47215724
C -2.7599776 -1.6787838 -0.39797768
C -3.0022104 -2.5261092 0.8642997
H 3.4030118 3.452625 0.74248785
H 1.7080659 3.6775253 0.2605669
H 2.0922694 2.8701181 1.7904708
H 2.767583 1.7792917 -1.0079858
H 3.1534095 0.97203165 0.52219623
H 1.375813 -0.05610584 -1.6284724
H 1.7626079 -0.8647417 -0.1050133
H -3.4863503 -0.85672104 -0.4339277
H -2.9522326 -2.286476 -1.2917076
H -4.0250697 -2.914527 0.87324655
H -2.311404 -3.372795 0.90229934
H -2.8517554 -1.928039 1.7669971
