title
 OpenBabel02282110003D

 20 19  0  0  0  0  0  0  0  0999 V2000
   -0.9612    2.9146    2.8415 C   0  0  0  0  0  0  0  0  0  0  0  0
   -1.7655    1.7480    2.2395 C   0  0  0  0  0  0  0  0  0  0  0  0
   -1.1452    1.1788    1.0470 C   0  0  0  0  0  0  0  0  0  0  0  0
   -0.6171    0.7315    0.0609 C   0  0  0  0  0  0  0  0  0  0  0  0
    0.0234    0.1580   -1.1179 C   0  0  0  0  0  0  0  0  0  0  0  0
    0.6669   -1.2153   -0.8473 C   0  0  0  0  0  0  0  0  0  0  0  0
    1.3299   -1.7961   -2.0891 C   0  0  0  0  0  0  0  0  0  0  0  0
    1.8884   -3.0519   -1.7373 O   0  0  0  0  0  0  0  0  0  0  0  0
    0.0420    2.5872    3.1279 H   0  0  0  0  0  0  0  0  0  0  0  0
   -0.8557    3.7276    2.1179 H   0  0  0  0  0  0  0  0  0  0  0  0
   -1.4632    3.3073    3.7310 H   0  0  0  0  0  0  0  0  0  0  0  0
   -1.8900    0.9623    2.9960 H   0  0  0  0  0  0  0  0  0  0  0  0
   -2.7795    2.0912    1.9958 H   0  0  0  0  0  0  0  0  0  0  0  0
   -0.7147    0.0623   -1.9263 H   0  0  0  0  0  0  0  0  0  0  0  0
    0.7886    0.8517   -1.4929 H   0  0  0  0  0  0  0  0  0  0  0  0
    1.4146   -1.1238   -0.0529 H   0  0  0  0  0  0  0  0  0  0  0  0
   -0.0934   -1.9161   -0.4875 H   0  0  0  0  0  0  0  0  0  0  0  0
    0.5837   -1.9021   -2.8945 H   0  0  0  0  0  0  0  0  0  0  0  0
    2.1052   -1.1026   -2.4562 H   0  0  0  0  0  0  0  0  0  0  0  0
    2.3082   -3.4243   -2.5180 H   0  0  0  0  0  0  0  0  0  0  0  0
  1  9  1  0  0  0  0
  1 11  1  0  0  0  0
  2  1  1  0  0  0  0
  2 12  1  0  0  0  0
  3  2  1  0  0  0  0
  4  3  3  0  0  0  0
  5  6  1  0  0  0  0
  5  4  1  0  0  0  0
  6 17  1  0  0  0  0
  6 16  1  0  0  0  0
  7  8  1  0  0  0  0
  7  6  1  0  0  0  0
 10  1  1  0  0  0  0
 13  2  1  0  0  0  0
 14  5  1  0  0  0  0
 15  5  1  0  0  0  0
 18  7  1  0  0  0  0
 19  7  1  0  0  0  0
 20  8  1  0  0  0  0
M  END
