title
 OpenBabel02282110003D

 20 19  0  0  0  0  0  0  0  0999 V2000
    2.4087    2.9962    0.7513 C   0  0  0  0  0  0  0  0  0  0  0  0
    2.4350    1.6558    0.0374 C   0  0  0  0  0  0  0  0  0  0  0  0
    1.1339    1.1041    0.0742 O   0  0  0  0  0  0  0  0  0  0  0  0
    1.0613   -0.1518   -0.5740 C   0  0  0  0  0  0  0  0  0  0  0  0
   -0.2953   -0.6778   -0.5084 C   0  0  0  0  0  0  0  0  0  0  0  0
   -1.4113   -1.1278   -0.4722 C   0  0  0  0  0  0  0  0  0  0  0  0
   -2.7600   -1.6788   -0.3980 C   0  0  0  0  0  0  0  0  0  0  0  0
   -3.0022   -2.5261    0.8643 C   0  0  0  0  0  0  0  0  0  0  0  0
    3.4030    3.4526    0.7425 H   0  0  0  0  0  0  0  0  0  0  0  0
    1.7081    3.6775    0.2606 H   0  0  0  0  0  0  0  0  0  0  0  0
    2.0923    2.8701    1.7905 H   0  0  0  0  0  0  0  0  0  0  0  0
    2.7676    1.7793   -1.0080 H   0  0  0  0  0  0  0  0  0  0  0  0
    3.1534    0.9720    0.5222 H   0  0  0  0  0  0  0  0  0  0  0  0
    1.3758   -0.0561   -1.6285 H   0  0  0  0  0  0  0  0  0  0  0  0
    1.7626   -0.8647   -0.1050 H   0  0  0  0  0  0  0  0  0  0  0  0
   -3.4864   -0.8567   -0.4339 H   0  0  0  0  0  0  0  0  0  0  0  0
   -2.9522   -2.2865   -1.2917 H   0  0  0  0  0  0  0  0  0  0  0  0
   -4.0251   -2.9145    0.8732 H   0  0  0  0  0  0  0  0  0  0  0  0
   -2.3114   -3.3728    0.9023 H   0  0  0  0  0  0  0  0  0  0  0  0
   -2.8518   -1.9280    1.7670 H   0  0  0  0  0  0  0  0  0  0  0  0
  1 11  1  0  0  0  0
  2  3  1  0  0  0  0
  2 13  1  0  0  0  0
  2  1  1  0  0  0  0
  4  5  1  0  0  0  0
  4 15  1  0  0  0  0
  4  3  1  0  0  0  0
  5  6  3  0  0  0  0
  6  7  1  0  0  0  0
  7  8  1  0  0  0  0
  8 18  1  0  0  0  0
  8 19  1  0  0  0  0
  8 20  1  0  0  0  0
  9  1  1  0  0  0  0
 10  1  1  0  0  0  0
 12  2  1  0  0  0  0
 14  4  1  0  0  0  0
 16  7  1  0  0  0  0
 17  7  1  0  0  0  0
M  END
