16
title
C 2.2851071 3.3365684 -0.004234349
O 2.2467473 1.9276798 -0.01117785
C 0.93817145 1.4136882 -0.0014706837
C 1.0528468 -0.11522544 -0.010403471
C -0.23801355 -0.78164566 -0.0017249078
C -1.3146636 -1.3298131 0.00582788
C -2.612277 -1.9526435 0.015100503
O -2.8021312 -3.1474636 0.009009918
H 3.336295 3.6330783 -0.012467015
H 1.7871786 3.7618058 -0.889492
H 1.803762 3.7525575 0.89448667
H 0.38684374 1.745925 0.8932326
H 0.37008578 1.7550011 -0.8821679
H 1.6238602 -0.42363608 -0.894716
H 1.6402879 -0.43267453 0.85985726
H -3.4579215 -1.2346247 0.028797371
