19
title
C 1.5507095 2.8222528 1.9981786
O 1.873063 2.1427822 0.8061279
C 0.7641527 1.564763 0.14845859
C 0.37415314 0.19623677 0.7300174
N -0.79886734 -0.30741975 0.04562317
C -0.68669724 -1.3949645 -0.5769247
O -1.7325422 -1.9151652 -1.2472001
C -1.4827994 -3.1457794 -1.9153799
H 0.8175475 3.6245 1.8206328
H 1.1463007 2.155252 2.7738638
H 2.4752996 3.2673008 2.374836
H -0.10953212 2.2331688 0.17270969
H 1.0560945 1.4379474 -0.89978445
H 1.2444463 -0.47854802 0.66476065
H 0.12987667 0.31281164 1.7931684
H 0.23368204 -1.9993327 -0.6249026
H -0.7124351 -3.0348494 -2.6882489
H -1.178854 -3.9309008 -1.212344
H -2.4222636 -3.4347608 -2.387744
