title
 OpenBabel02282110003D

 19 18  0  0  0  0  0  0  0  0999 V2000
    1.5507    2.8223    1.9982 C   0  0  0  0  0  0  0  0  0  0  0  0
    1.8731    2.1428    0.8061 O   0  0  0  0  0  0  0  0  0  0  0  0
    0.7642    1.5648    0.1485 C   0  0  0  0  0  0  0  0  0  0  0  0
    0.3742    0.1962    0.7300 C   0  0  0  0  0  0  0  0  0  0  0  0
   -0.7989   -0.3074    0.0456 N   0  0  0  0  0  0  0  0  0  0  0  0
   -0.6867   -1.3950   -0.5769 C   0  0  0  0  0  0  0  0  0  0  0  0
   -1.7325   -1.9152   -1.2472 O   0  0  0  0  0  0  0  0  0  0  0  0
   -1.4828   -3.1458   -1.9154 C   0  0  0  0  0  0  0  0  0  0  0  0
    0.8175    3.6245    1.8206 H   0  0  0  0  0  0  0  0  0  0  0  0
    1.1463    2.1553    2.7739 H   0  0  0  0  0  0  0  0  0  0  0  0
    2.4753    3.2673    2.3748 H   0  0  0  0  0  0  0  0  0  0  0  0
   -0.1095    2.2332    0.1727 H   0  0  0  0  0  0  0  0  0  0  0  0
    1.0561    1.4379   -0.8998 H   0  0  0  0  0  0  0  0  0  0  0  0
    1.2444   -0.4785    0.6648 H   0  0  0  0  0  0  0  0  0  0  0  0
    0.1299    0.3128    1.7932 H   0  0  0  0  0  0  0  0  0  0  0  0
    0.2337   -1.9993   -0.6249 H   0  0  0  0  0  0  0  0  0  0  0  0
   -0.7124   -3.0348   -2.6882 H   0  0  0  0  0  0  0  0  0  0  0  0
   -1.1789   -3.9309   -1.2123 H   0  0  0  0  0  0  0  0  0  0  0  0
   -2.4223   -3.4348   -2.3877 H   0  0  0  0  0  0  0  0  0  0  0  0
  1 11  1  0  0  0  0
  1 10  1  0  0  0  0
  2  1  1  0  0  0  0
  3 12  1  0  0  0  0
  3  4  1  0  0  0  0
  3  2  1  0  0  0  0
  4 15  1  0  0  0  0
  5  4  1  0  0  0  0
  6  5  2  0  0  0  0
  7  6  1  0  0  0  0
  8  7  1  0  0  0  0
  8 18  1  0  0  0  0
  9  1  1  0  0  0  0
 13  3  1  0  0  0  0
 14  4  1  0  0  0  0
 16  6  1  0  0  0  0
 17  8  1  0  0  0  0
 19  8  1  0  0  0  0
M  END
