19
title
C 2.0600376 3.0006337 0.025018394
O 1.6947566 2.0425584 1.008566
C 0.88664454 1.0477675 0.5779608
N 0.51335293 0.15531987 1.3794299
C -0.3538223 -0.9242421 0.94214165
C -0.81323296 -0.9639314 -0.5211439
C -1.7136315 -2.1602516 -0.8005451
O -2.086736 -2.114296 -2.1699367
H 2.7035897 3.725337 0.5254172
H 2.6159344 2.5405514 -0.80163777
H 1.1825259 3.521339 -0.37858748
H 0.6224533 1.1202573 -0.48501742
H 0.16194622 -1.8644124 1.1840776
H -1.2364997 -0.9083527 1.5971949
H -1.3652905 -0.052026216 -0.7793082
H 0.048813272 -1.0187742 -1.1970549
H -1.1767665 -3.093954 -0.56549037
H -2.5992873 -2.1214533 -0.14527303
H -2.6557581 -2.867906 -2.3516903
