title
 OpenBabel02282110003D

 18 17  0  0  0  0  0  0  0  0999 V2000
    2.4217    3.2164   -0.3426 O   0  0  0  0  0  0  0  0  0  0  0  0
    2.5065    1.8495    0.0266 C   0  0  0  0  0  0  0  0  0  0  0  0
    1.0981    1.2710   -0.0021 C   0  0  0  0  0  0  0  0  0  0  0  0
    1.0725   -0.2170    0.3955 C   0  0  0  0  0  0  0  0  0  0  0  0
   -0.2651   -0.7963    0.3686 C   0  0  0  0  0  0  0  0  0  0  0  0
   -1.3763   -1.2575    0.3318 C   0  0  0  0  0  0  0  0  0  0  0  0
   -2.7236   -1.8113    0.3121 C   0  0  0  0  0  0  0  0  0  0  0  0
   -2.8851   -2.6442   -0.8313 O   0  0  0  0  0  0  0  0  0  0  0  0
    3.3090    3.5866   -0.3342 H   0  0  0  0  0  0  0  0  0  0  0  0
    3.1540    1.2871   -0.6668 H   0  0  0  0  0  0  0  0  0  0  0  0
    2.9363    1.7339    1.0360 H   0  0  0  0  0  0  0  0  0  0  0  0
    0.4620    1.8475    0.6775 H   0  0  0  0  0  0  0  0  0  0  0  0
    0.6813    1.3928   -1.0069 H   0  0  0  0  0  0  0  0  0  0  0  0
    1.7235   -0.7893   -0.2794 H   0  0  0  0  0  0  0  0  0  0  0  0
    1.5025   -0.3375    1.3993 H   0  0  0  0  0  0  0  0  0  0  0  0
   -2.8951   -2.3778    1.2423 H   0  0  0  0  0  0  0  0  0  0  0  0
   -3.4528   -0.9844    0.3063 H   0  0  0  0  0  0  0  0  0  0  0  0
   -3.7857   -2.9837   -0.8118 H   0  0  0  0  0  0  0  0  0  0  0  0
  1  9  1  0  0  0  0
  1  2  1  0  0  0  0
  2 11  1  0  0  0  0
  3  2  1  0  0  0  0
  3  4  1  0  0  0  0
  3 12  1  0  0  0  0
  4 15  1  0  0  0  0
  5  4  1  0  0  0  0
  6  5  3  0  0  0  0
  7  6  1  0  0  0  0
  7 16  1  0  0  0  0
  8 18  1  0  0  0  0
  8  7  1  0  0  0  0
 10  2  1  0  0  0  0
 13  3  1  0  0  0  0
 14  4  1  0  0  0  0
 17  7  1  0  0  0  0
M  END
