title
 OpenBabel02282110003D

 22 21  0  0  0  0  0  0  0  0999 V2000
   -0.9617    3.9653   -1.5178 C   0  0  0  0  0  0  0  0  0  0  0  0
   -0.9294    2.4345   -1.5072 C   0  0  0  0  0  0  0  0  0  0  0  0
   -0.2019    1.8549   -0.2891 C   0  0  0  0  0  0  0  0  0  0  0  0
   -0.1668    0.3242   -0.2740 C   0  0  0  0  0  0  0  0  0  0  0  0
    0.5681   -0.2431    0.9577 C   0  0  0  0  0  0  0  0  0  0  0  0
    0.6083   -1.7015    0.9845 C   0  0  0  0  0  0  0  0  0  0  0  0
    0.6261   -2.9057    0.9797 C   0  0  0  0  0  0  0  0  0  0  0  0
    0.6559   -4.3617    0.9856 C   0  0  0  0  0  0  0  0  0  0  0  0
    0.0514    4.3827   -1.5267 H   0  0  0  0  0  0  0  0  0  0  0  0
   -1.4869    4.3487   -2.3982 H   0  0  0  0  0  0  0  0  0  0  0  0
   -1.4708    4.3567   -0.6299 H   0  0  0  0  0  0  0  0  0  0  0  0
   -1.9560    2.0456   -1.5337 H   0  0  0  0  0  0  0  0  0  0  0  0
   -0.4453    2.0713   -2.4235 H   0  0  0  0  0  0  0  0  0  0  0  0
    0.8259    2.2442   -0.2618 H   0  0  0  0  0  0  0  0  0  0  0  0
   -0.6859    2.2183    0.6287 H   0  0  0  0  0  0  0  0  0  0  0  0
   -1.1887   -0.0738   -0.2919 H   0  0  0  0  0  0  0  0  0  0  0  0
    0.3231   -0.0479   -1.1820 H   0  0  0  0  0  0  0  0  0  0  0  0
    1.5922    0.1546    0.9815 H   0  0  0  0  0  0  0  0  0  0  0  0
    0.0825    0.1291    1.8704 H   0  0  0  0  0  0  0  0  0  0  0  0
    1.1864   -4.7464    1.8640 H   0  0  0  0  0  0  0  0  0  0  0  0
   -0.3558   -4.7828    1.0018 H   0  0  0  0  0  0  0  0  0  0  0  0
    1.1622   -4.7555    0.0969 H   0  0  0  0  0  0  0  0  0  0  0  0
  1  2  1  0  0  0  0
  1 11  1  0  0  0  0
  2  3  1  0  0  0  0
  3  4  1  0  0  0  0
  3 14  1  0  0  0  0
  3 15  1  0  0  0  0
  4  5  1  0  0  0  0
  5 18  1  0  0  0  0
  5  6  1  0  0  0  0
  5 19  1  0  0  0  0
  7  6  3  0  0  0  0
  7  8  1  0  0  0  0
  8 21  1  0  0  0  0
  8 20  1  0  0  0  0
  9  1  1  0  0  0  0
 10  1  1  0  0  0  0
 12  2  1  0  0  0  0
 13  2  1  0  0  0  0
 16  4  1  0  0  0  0
 17  4  1  0  0  0  0
 22  8  1  0  0  0  0
M  END
