title
 OpenBabel02282110003D

 21 20  0  0  0  0  0  0  0  0999 V2000
   -0.9488    3.3841   -1.7122 C   0  0  0  0  0  0  0  0  0  0  0  0
   -0.4057    2.0040   -2.0923 C   0  0  0  0  0  0  0  0  0  0  0  0
   -0.2478    1.0652   -0.8905 C   0  0  0  0  0  0  0  0  0  0  0  0
    0.2978   -0.3088   -1.3023 C   0  0  0  0  0  0  0  0  0  0  0  0
    0.5106   -1.3262   -0.2878 N   0  0  0  0  0  0  0  0  0  0  0  0
    0.2552   -1.0985    0.9204 C   0  0  0  0  0  0  0  0  0  0  0  0
    0.4625   -2.0639    1.8458 O   0  0  0  0  0  0  0  0  0  0  0  0
    0.1426   -1.7059    3.1824 C   0  0  0  0  0  0  0  0  0  0  0  0
   -0.2843    3.8897   -1.0027 H   0  0  0  0  0  0  0  0  0  0  0  0
   -1.0497    4.0291   -2.5907 H   0  0  0  0  0  0  0  0  0  0  0  0
   -1.9353    3.3059   -1.2418 H   0  0  0  0  0  0  0  0  0  0  0  0
   -1.0729    1.5384   -2.8295 H   0  0  0  0  0  0  0  0  0  0  0  0
    0.5651    2.1176   -2.5923 H   0  0  0  0  0  0  0  0  0  0  0  0
    0.4234    1.5305   -0.1554 H   0  0  0  0  0  0  0  0  0  0  0  0
   -1.2209    0.9490   -0.3935 H   0  0  0  0  0  0  0  0  0  0  0  0
   -0.3710   -0.7464   -2.0571 H   0  0  0  0  0  0  0  0  0  0  0  0
    1.2569   -0.1707   -1.8213 H   0  0  0  0  0  0  0  0  0  0  0  0
   -0.1365   -0.1623    1.3392 H   0  0  0  0  0  0  0  0  0  0  0  0
    0.3623   -2.5801    3.7966 H   0  0  0  0  0  0  0  0  0  0  0  0
    0.7506   -0.8622    3.5329 H   0  0  0  0  0  0  0  0  0  0  0  0
   -0.9195   -1.4517    3.2911 H   0  0  0  0  0  0  0  0  0  0  0  0
  1 11  1  0  0  0  0
  1  9  1  0  0  0  0
  2  1  1  0  0  0  0
  2  3  1  0  0  0  0
  3 15  1  0  0  0  0
  3 14  1  0  0  0  0
  4  3  1  0  0  0  0
  4  5  1  0  0  0  0
  5  6  2  0  0  0  0
  6 18  1  0  0  0  0
  6  7  1  0  0  0  0
  7  8  1  0  0  0  0
  8 21  1  0  0  0  0
  8 20  1  0  0  0  0
  8 19  1  0  0  0  0
 10  1  1  0  0  0  0
 12  2  1  0  0  0  0
 13  2  1  0  0  0  0
 16  4  1  0  0  0  0
 17  4  1  0  0  0  0
M  END
