title
 OpenBabel02282110003D

 20 19  0  0  0  0  0  0  0  0999 V2000
   -0.7720    3.8151    1.2990 C   0  0  0  0  0  0  0  0  0  0  0  0
   -0.7542    2.4090    1.2906 O   0  0  0  0  0  0  0  0  0  0  0  0
   -0.1076    1.8745    0.1575 C   0  0  0  0  0  0  0  0  0  0  0  0
   -0.1440    0.3551    0.2484 C   0  0  0  0  0  0  0  0  0  0  0  0
    0.5447   -0.3129   -0.9575 C   0  0  0  0  0  0  0  0  0  0  0  0
    0.5223   -1.7702   -0.8926 C   0  0  0  0  0  0  0  0  0  0  0  0
    0.4910   -2.9714   -0.8163 C   0  0  0  0  0  0  0  0  0  0  0  0
    0.4589   -4.4251   -0.7341 C   0  0  0  0  0  0  0  0  0  0  0  0
    0.2457    4.2382    1.3045 H   0  0  0  0  0  0  0  0  0  0  0  0
   -1.3054    4.2239    0.4255 H   0  0  0  0  0  0  0  0  0  0  0  0
   -1.2898    4.1318    2.2077 H   0  0  0  0  0  0  0  0  0  0  0  0
   -0.6065    2.2173   -0.7670 H   0  0  0  0  0  0  0  0  0  0  0  0
    0.9366    2.2326    0.1064 H   0  0  0  0  0  0  0  0  0  0  0  0
    0.3450    0.0389    1.1753 H   0  0  0  0  0  0  0  0  0  0  0  0
   -1.1855    0.0239    0.3095 H   0  0  0  0  0  0  0  0  0  0  0  0
    0.0593    0.0207   -1.8852 H   0  0  0  0  0  0  0  0  0  0  0  0
    1.5847    0.0358   -1.0224 H   0  0  0  0  0  0  0  0  0  0  0  0
    0.9584   -4.8841   -1.5946 H   0  0  0  0  0  0  0  0  0  0  0  0
    0.9623   -4.7856    0.1700 H   0  0  0  0  0  0  0  0  0  0  0  0
   -0.5699   -4.8015   -0.7108 H   0  0  0  0  0  0  0  0  0  0  0  0
  1  9  1  0  0  0  0
  1 11  1  0  0  0  0
  2  1  1  0  0  0  0
  3  4  1  0  0  0  0
  3  2  1  0  0  0  0
  4 15  1  0  0  0  0
  4 14  1  0  0  0  0
  5  6  1  0  0  0  0
  5  4  1  0  0  0  0
  6  7  3  0  0  0  0
  7  8  1  0  0  0  0
  8 20  1  0  0  0  0
  8 19  1  0  0  0  0
 10  1  1  0  0  0  0
 12  3  1  0  0  0  0
 13  3  1  0  0  0  0
 16  5  1  0  0  0  0
 17  5  1  0  0  0  0
 18  8  1  0  0  0  0
M  END
