19
title
C 2.146484 3.593829 -0.001018606
C 2.1656199 2.0630033 -0.0094780745
C 0.7598441 1.4528849 0.0006460773
C 0.7823464 -0.067489564 -0.007777017
O -0.5580309 -0.5381493 0.0024084693
C -0.6336556 -1.9388014 -0.0043211197
C -2.0413942 -2.3496273 0.0067223916
N -3.1396604 -2.705078 0.015089336
H 3.160793 4.0040207 -0.008505478
H 1.62033 3.9873295 -0.8774897
H 1.6372354 3.9777777 0.8895604
H 2.7113874 1.7086484 -0.89393866
H 2.728143 1.6991637 0.8605158
H 0.20858367 1.7895602 0.8867962
H 0.1918077 1.7990468 -0.8711376
H 1.3063699 -0.44457883 -0.9024546
H 1.3232241 -0.45415848 0.87266684
H -0.15104537 -2.3699758 -0.8975513
H -0.13439469 -2.3793762 0.8750641
