title
 OpenBabel02282110003D

 22 21  0  0  0  0  0  0  0  0999 V2000
   -1.1694    3.6161    2.0044 C   0  0  0  0  0  0  0  0  0  0  0  0
   -1.1230    2.0867    1.9511 C   0  0  0  0  0  0  0  0  0  0  0  0
   -0.4136    1.5483    0.7038 C   0  0  0  0  0  0  0  0  0  0  0  0
   -0.3626    0.0182    0.6424 C   0  0  0  0  0  0  0  0  0  0  0  0
    0.3473   -0.5134   -0.6060 C   0  0  0  0  0  0  0  0  0  0  0  0
    0.3905   -2.0543   -0.6532 C   0  0  0  0  0  0  0  0  0  0  0  0
    1.0642   -2.5729   -1.8376 C   0  0  0  0  0  0  0  0  0  0  0  0
    1.6242   -2.9739   -2.8229 C   0  0  0  0  0  0  0  0  0  0  0  0
   -0.1601    4.0428    2.0054 H   0  0  0  0  0  0  0  0  0  0  0  0
   -1.6989    4.0264    1.1373 H   0  0  0  0  0  0  0  0  0  0  0  0
   -1.6811    3.9704    2.9047 H   0  0  0  0  0  0  0  0  0  0  0  0
   -0.6181    1.7032    2.8477 H   0  0  0  0  0  0  0  0  0  0  0  0
   -2.1452    1.6869    1.9862 H   0  0  0  0  0  0  0  0  0  0  0  0
   -0.9181    1.9315   -0.1942 H   0  0  0  0  0  0  0  0  0  0  0  0
    0.6096    1.9478    0.6676 H   0  0  0  0  0  0  0  0  0  0  0  0
    0.1425   -0.3653    1.5401 H   0  0  0  0  0  0  0  0  0  0  0  0
   -1.3859   -0.3816    0.6779 H   0  0  0  0  0  0  0  0  0  0  0  0
   -0.1550   -0.1445   -1.5081 H   0  0  0  0  0  0  0  0  0  0  0  0
    1.3731   -0.1282   -0.6461 H   0  0  0  0  0  0  0  0  0  0  0  0
    0.8929   -2.4326    0.2470 H   0  0  0  0  0  0  0  0  0  0  0  0
   -0.6336   -2.4489   -0.6142 H   0  0  0  0  0  0  0  0  0  0  0  0
    2.1169   -3.3393   -3.6892 H   0  0  0  0  0  0  0  0  0  0  0  0
  1  9  1  0  0  0  0
  1 11  1  0  0  0  0
  2 13  1  0  0  0  0
  2  1  1  0  0  0  0
  2 12  1  0  0  0  0
  3  2  1  0  0  0  0
  4 17  1  0  0  0  0
  4  3  1  0  0  0  0
  4 16  1  0  0  0  0
  5  4  1  0  0  0  0
  6 21  1  0  0  0  0
  6  5  1  0  0  0  0
  6 20  1  0  0  0  0
  7  6  1  0  0  0  0
  8  7  3  0  0  0  0
 10  1  1  0  0  0  0
 14  3  1  0  0  0  0
 15  3  1  0  0  0  0
 18  5  1  0  0  0  0
 19  5  1  0  0  0  0
 22  8  1  0  0  0  0
M  END
