title
 OpenBabel02282110003D

 21 20  0  0  0  0  0  0  0  0999 V2000
   -1.1707    3.6401    2.0087 C   0  0  0  0  0  0  0  0  0  0  0  0
   -1.1262    2.1107    1.9584 C   0  0  0  0  0  0  0  0  0  0  0  0
   -0.4175    1.5709    0.7111 C   0  0  0  0  0  0  0  0  0  0  0  0
   -0.3689    0.0404    0.6536 C   0  0  0  0  0  0  0  0  0  0  0  0
    0.3407   -0.4897   -0.5956 C   0  0  0  0  0  0  0  0  0  0  0  0
    0.3777   -2.0309   -0.6318 C   0  0  0  0  0  0  0  0  0  0  0  0
    1.0521   -2.5529   -1.8183 C   0  0  0  0  0  0  0  0  0  0  0  0
    1.5885   -2.9473   -2.7628 N   0  0  0  0  0  0  0  0  0  0  0  0
   -0.1611    4.0657    2.0090 H   0  0  0  0  0  0  0  0  0  0  0  0
   -1.7002    4.0494    1.1412 H   0  0  0  0  0  0  0  0  0  0  0  0
   -1.6819    3.9956    2.9086 H   0  0  0  0  0  0  0  0  0  0  0  0
   -0.6209    1.7280    2.8551 H   0  0  0  0  0  0  0  0  0  0  0  0
   -2.1486    1.7118    1.9940 H   0  0  0  0  0  0  0  0  0  0  0  0
   -0.9222    1.9524   -0.1873 H   0  0  0  0  0  0  0  0  0  0  0  0
    0.6061    1.9686    0.6740 H   0  0  0  0  0  0  0  0  0  0  0  0
    0.1373   -0.3426    1.5507 H   0  0  0  0  0  0  0  0  0  0  0  0
   -1.3921   -0.3588    0.6888 H   0  0  0  0  0  0  0  0  0  0  0  0
   -0.1624   -0.1238   -1.4978 H   0  0  0  0  0  0  0  0  0  0  0  0
    1.3670   -0.1075   -0.6359 H   0  0  0  0  0  0  0  0  0  0  0  0
    0.8897   -2.4187    0.2568 H   0  0  0  0  0  0  0  0  0  0  0  0
   -0.6413   -2.4351   -0.6061 H   0  0  0  0  0  0  0  0  0  0  0  0
  1  9  1  0  0  0  0
  1 11  1  0  0  0  0
  2 13  1  0  0  0  0
  2  1  1  0  0  0  0
  2 12  1  0  0  0  0
  3  2  1  0  0  0  0
  4 17  1  0  0  0  0
  4  3  1  0  0  0  0
  4 16  1  0  0  0  0
  5  4  1  0  0  0  0
  6 21  1  0  0  0  0
  6  5  1  0  0  0  0
  6 20  1  0  0  0  0
  7  6  1  0  0  0  0
  8  7  3  0  0  0  0
 10  1  1  0  0  0  0
 14  3  1  0  0  0  0
 15  3  1  0  0  0  0
 18  5  1  0  0  0  0
 19  5  1  0  0  0  0
M  END
