20
title
C 2.1838996 3.6409044 0.00018138696
C 2.180603 2.110024 -0.011980596
C 0.7680299 1.516324 -0.010267328
C 0.76148784 -0.01101335 -0.013559034
N -0.60471666 -0.5291477 -0.05158235
C -0.6528541 -1.9844064 -0.0054408982
C -2.0358546 -2.4697397 0.005684574
N -3.1246808 -2.8535125 0.038487528
H 3.2038696 4.037115 -0.0027738048
H 1.6664591 4.044502 -0.87697244
H 1.6775445 4.0306816 0.89014834
H 2.723273 1.7492063 -0.89560235
H 2.7348437 1.7350172 0.858492
H 0.22409451 1.8776468 0.87445414
H 0.20738184 1.8722405 -0.88284737
H 1.2832717 -0.379989 -0.90713406
H 1.3327222 -0.3881851 0.8567303
H -1.1375204 -0.15066703 0.72565347
H -0.15567863 -2.3823392 -0.89928186
H -0.130633 -2.4291737 0.8626965
