22
title
C -1.1693819 3.6161277 2.004442
C -1.1229926 2.0867453 1.9511033
C -0.41359058 1.5483278 0.70379037
C -0.36262462 0.018179039 0.64241844
C 0.3472949 -0.51335514 -0.6059608
C 0.39048025 -2.0543034 -0.65324754
C 1.0641874 -2.572861 -1.8375511
C 1.624221 -2.973858 -2.8228528
H -0.16010574 4.0428076 2.0054464
H -1.6988671 4.026411 1.1372572
H -1.6811222 3.9704213 2.9047484
H -0.61809874 1.7032112 2.8477461
H -2.145196 1.6869336 1.9862456
H -0.91807944 1.9315184 -0.1942236
H 0.6095694 1.9478339 0.66757447
H 0.14253148 -0.36530438 1.54014
H -1.3858718 -0.3816339 0.67793614
H -0.15500781 -0.14453377 -1.5081401
H 1.3731052 -0.12817086 -0.64610356
H 0.8929449 -2.4325774 0.24702148
H -0.6336274 -2.4489338 -0.61420625
H 2.1168556 -3.3392723 -3.689244
