title
 OpenBabel02282110003D

 21 20  0  0  0  0  0  0  0  0999 V2000
   -1.1647    3.7205   -1.8304 C   0  0  0  0  0  0  0  0  0  0  0  0
   -1.0394    2.1949   -1.8632 C   0  0  0  0  0  0  0  0  0  0  0  0
   -0.4124    1.6251   -0.5864 C   0  0  0  0  0  0  0  0  0  0  0  0
   -0.2896    0.1101   -0.6229 C   0  0  0  0  0  0  0  0  0  0  0  0
    0.3032   -0.3167    0.6063 O   0  0  0  0  0  0  0  0  0  0  0  0
    0.4846   -1.6438    0.7437 C   0  0  0  0  0  0  0  0  0  0  0  0
    0.9986   -2.1203    1.7881 N   0  0  0  0  0  0  0  0  0  0  0  0
    1.1585   -3.5571    1.8538 C   0  0  0  0  0  0  0  0  0  0  0  0
   -0.1840    4.1948   -1.7156 H   0  0  0  0  0  0  0  0  0  0  0  0
   -1.6146    4.1026   -2.7517 H   0  0  0  0  0  0  0  0  0  0  0  0
   -1.7898    4.0475   -0.9925 H   0  0  0  0  0  0  0  0  0  0  0  0
   -2.0317    1.7494   -2.0137 H   0  0  0  0  0  0  0  0  0  0  0  0
   -0.4374    1.8957   -2.7314 H   0  0  0  0  0  0  0  0  0  0  0  0
    0.5850    2.0537   -0.4314 H   0  0  0  0  0  0  0  0  0  0  0  0
   -1.0118    1.9070    0.2875 H   0  0  0  0  0  0  0  0  0  0  0  0
   -1.2782   -0.3560   -0.7423 H   0  0  0  0  0  0  0  0  0  0  0  0
    0.3360   -0.2077   -1.4693 H   0  0  0  0  0  0  0  0  0  0  0  0
    0.1502   -2.2429   -0.1194 H   0  0  0  0  0  0  0  0  0  0  0  0
    0.6175   -3.9492    2.7228 H   0  0  0  0  0  0  0  0  0  0  0  0
    0.8024   -4.0911    0.9568 H   0  0  0  0  0  0  0  0  0  0  0  0
    2.2162   -3.8043    2.0018 H   0  0  0  0  0  0  0  0  0  0  0  0
  1  9  1  0  0  0  0
  1 11  1  0  0  0  0
  2  1  1  0  0  0  0
  2  3  1  0  0  0  0
  3 14  1  0  0  0  0
  3 15  1  0  0  0  0
  4  3  1  0  0  0  0
  4  5  1  0  0  0  0
  5  6  1  0  0  0  0
  6  7  2  0  0  0  0
  7  8  1  0  0  0  0
  8 21  1  0  0  0  0
  8 19  1  0  0  0  0
 10  1  1  0  0  0  0
 12  2  1  0  0  0  0
 13  2  1  0  0  0  0
 16  4  1  0  0  0  0
 17  4  1  0  0  0  0
 18  6  1  0  0  0  0
 20  8  1  0  0  0  0
M  END
