19
title
C 1.6988328 3.8606286 0.002674922
N 1.7497166 2.419434 -0.11819955
C 0.67072123 1.7893409 0.021646889
O 0.63799125 0.44580024 -0.07705448
C -0.64292854 -0.16069703 0.100099765
C -0.46865597 -1.6635995 -0.047444012
C -1.7805449 -2.4195414 0.12392178
O -1.4998292 -3.8000836 -0.03291061
H 2.3686206 4.1869636 0.80668056
H 2.0661323 4.321257 -0.92168427
H 0.6916892 4.2596 0.20996046
H -0.30621257 2.256322 0.22889929
H -1.0409161 0.09088488 1.0937952
H -1.3465189 0.22672863 -0.65088326
H -0.050737426 -1.8859344 -1.0345408
H 0.25270328 -2.0204363 0.694687
H -2.2078693 -2.2089276 1.1185234
H -2.5136626 -2.073173 -0.6235765
H -2.3210475 -4.2890716 0.07213733
