19
title
C 2.1418786 3.4293048 -0.0017825254
C 2.212421 1.9122562 -0.010802975
O 0.8938627 1.3989685 -0.00089827937
C 0.8409511 -0.005700257 -0.007934404
C -0.62393224 -0.42619064 0.003593426
C -0.7699474 -1.959316 -0.003099072
C -2.1659164 -2.390332 0.0076338556
N -3.273529 -2.719278 0.016235145
H 3.148858 3.8567977 -0.009209568
H 1.6029712 3.7938352 -0.88078606
H 1.6201705 3.7841024 0.89146316
H 2.7511284 1.5536865 -0.9044034
H 2.7682426 1.543946 0.86823624
H 1.3489112 -0.41091493 -0.90166265
H 1.3655893 -0.4204159 0.8716909
H -1.1115576 -0.009834673 0.89008546
H -1.1280738 -0.000585344 -0.86916053
H -0.28459325 -2.3861244 -0.88901937
H -0.26819196 -2.3953617 0.8690777
