17
title
C 0.87484235 2.351032 -0.11103754
O 0.39156812 1.1919265 -0.758481
C -1.0031918 1.0192173 -0.6268494
C -1.3656814 -0.365742 -1.1393368
O -1.0642985 -1.432168 -0.24821572
C 0.30192524 -1.6851585 -0.015893027
C 0.8220129 -0.97002053 1.166602
N 1.2152941 -0.43732336 2.1136568
H 1.9469074 2.4093292 -0.3108408
H 0.38839749 3.25901 -0.49896058
H 0.71860135 2.2966447 0.9751271
H -1.3187015 1.1203679 0.42315686
H -1.5455276 1.778504 -1.2167614
H -2.4471674 -0.42711 -1.2898339
H -0.8694822 -0.5256252 -2.1085637
H 0.40338087 -2.760181 0.17154945
H 0.92356366 -1.4233267 -0.8806635
