18
title
C 0.13594767 2.5851555 0.063026376
O -1.1420963 2.0426989 0.33623025
C -1.156164 1.009744 1.2945398
C -0.7467294 -0.35621372 0.7580656
O 0.66566986 -0.40769544 0.61777425
C 1.1465522 -1.6391004 0.11603289
C 0.79082423 -1.8909317 -1.2834871
C 0.49509487 -2.0897312 -2.4312909
H 0.8021751 1.8582497 -0.4141557
H -0.019870795 3.4338567 -0.60817873
H 0.62151784 2.9464028 0.98324263
H -0.52171427 1.2618498 2.159664
H -2.1926289 0.936029 1.6436884
H -1.0805576 -1.1381594 1.4622873
H -1.240129 -0.53349817 -0.20768508
H 2.2362156 -1.6004754 0.2191919
H 0.78795856 -2.4756007 0.73884624
H 0.23869762 -2.2673225 -3.4465888
