19
title
O 2.091657 3.5208192 -0.0010032918
C 2.1825988 2.104912 -0.009454996
C 0.7653741 1.5464936 0.00096961635
C 0.7266527 0.0158595 -0.0068868455
C -0.7008906 -0.5385841 0.0036427982
C -0.7221406 -2.0801394 -0.0043123863
C -2.0771132 -2.6273382 0.005849292
N -3.1551933 -3.0434005 0.013764488
H 2.9829457 3.8817282 -0.0074257446
H 2.7180328 1.7440962 -0.9034374
H 2.7348292 1.7345852 0.87030655
H 0.24690649 1.932868 0.8868618
H 0.23025748 1.9423 -0.8707441
H 1.2565517 -0.3626231 -0.89215577
H 1.2731674 -0.3720423 0.8640891
H -1.237231 -0.17808972 0.88853145
H -1.2538371 -0.16874324 -0.8670574
H -0.20113829 -2.4621484 -0.89037824
H -0.18433598 -2.4714415 0.86751556
