title
 OpenBabel02282110003D

 20 19  0  0  0  0  0  0  0  0999 V2000
    2.1676    3.7389    0.1840 C   0  0  0  0  0  0  0  0  0  0  0  0
    2.1800    2.2093    0.1190 C   0  0  0  0  0  0  0  0  0  0  0  0
    0.7726    1.6051    0.0767 C   0  0  0  0  0  0  0  0  0  0  0  0
    0.7862    0.0850    0.0126 C   0  0  0  0  0  0  0  0  0  0  0  0
   -0.5500   -0.3817   -0.0233 O   0  0  0  0  0  0  0  0  0  0  0  0
   -0.6565   -1.7781   -0.0837 C   0  0  0  0  0  0  0  0  0  0  0  0
   -2.1307   -2.1421   -0.1148 C   0  0  0  0  0  0  0  0  0  0  0  0
   -2.5387   -3.2715   -0.1673 O   0  0  0  0  0  0  0  0  0  0  0  0
    3.1834    4.1446    0.2127 H   0  0  0  0  0  0  0  0  0  0  0  0
    1.6613    4.1672   -0.6879 H   0  0  0  0  0  0  0  0  0  0  0  0
    1.6414    4.0921    1.0775 H   0  0  0  0  0  0  0  0  0  0  0  0
    2.7433    1.8851   -0.7660 H   0  0  0  0  0  0  0  0  0  0  0  0
    2.7225    1.8105    0.9864 H   0  0  0  0  0  0  0  0  0  0  0  0
    0.2039    1.9130    0.9627 H   0  0  0  0  0  0  0  0  0  0  0  0
    0.2250    1.9872   -0.7936 H   0  0  0  0  0  0  0  0  0  0  0  0
    1.3312   -0.2602   -0.8828 H   0  0  0  0  0  0  0  0  0  0  0  0
    1.3096   -0.3350    0.8887 H   0  0  0  0  0  0  0  0  0  0  0  0
   -0.1705   -2.1952   -0.9829 H   0  0  0  0  0  0  0  0  0  0  0  0
   -0.1895   -2.2703    0.7871 H   0  0  0  0  0  0  0  0  0  0  0  0
   -2.8061   -1.2586   -0.0845 H   0  0  0  0  0  0  0  0  0  0  0  0
  1  9  1  0  0  0  0
  1 11  1  0  0  0  0
  2  1  1  0  0  0  0
  2 13  1  0  0  0  0
  3  2  1  0  0  0  0
  3 14  1  0  0  0  0
  4  3  1  0  0  0  0
  4 17  1  0  0  0  0
  5  4  1  0  0  0  0
  6  5  1  0  0  0  0
  6 19  1  0  0  0  0
  7 20  1  0  0  0  0
  7  6  1  0  0  0  0
  8  7  2  0  0  0  0
 10  1  1  0  0  0  0
 12  2  1  0  0  0  0
 15  3  1  0  0  0  0
 16  4  1  0  0  0  0
 18  6  1  0  0  0  0
M  END
