18
title
O 2.0365975 3.3798957 -0.0014520669
C 2.1530004 1.9660829 -0.009821913
C 0.74407935 1.3871984 0.00031629112
C 0.7373135 -0.13399455 -0.0076118563
O -0.6067929 -0.57237047 0.0026774611
C -0.7132864 -1.9810636 -0.0036420692
C -2.1154008 -2.3774543 0.0072348695
C -3.262279 -2.7327147 0.016249549
H 2.9220214 3.754701 -0.007604014
H 2.696097 1.6163507 -0.9036196
H 2.71262 1.6072099 0.8700487
H 0.21354628 1.7475026 0.88775593
H 0.19709492 1.7567604 -0.87322104
H 1.2576532 -0.52175635 -0.9013443
H 1.2742703 -0.53107375 0.8720902
H -0.21642423 -2.402965 -0.8948335
H -0.20000696 -2.4121542 0.87375
H -4.2790403 -3.0388346 0.025059478
