title
 OpenBabel02282110003D

 17 16  0  0  0  0  0  0  0  0999 V2000
    2.0074    3.4156   -0.0009 O   0  0  0  0  0  0  0  0  0  0  0  0
    2.1475    2.0053   -0.0095 C   0  0  0  0  0  0  0  0  0  0  0  0
    0.7457    1.4076    0.0005 C   0  0  0  0  0  0  0  0  0  0  0  0
    0.7615   -0.1124   -0.0078 C   0  0  0  0  0  0  0  0  0  0  0  0
   -0.5826   -0.5686    0.0026 O   0  0  0  0  0  0  0  0  0  0  0  0
   -0.6717   -1.9690   -0.0041 C   0  0  0  0  0  0  0  0  0  0  0  0
   -2.0831   -2.3662    0.0071 C   0  0  0  0  0  0  0  0  0  0  0  0
   -3.1842   -2.7125    0.0155 N   0  0  0  0  0  0  0  0  0  0  0  0
    2.8858    3.8067   -0.0068 H   0  0  0  0  0  0  0  0  0  0  0  0
    2.6951    1.6631   -0.9035 H   0  0  0  0  0  0  0  0  0  0  0  0
    2.7117    1.6539    0.8704 H   0  0  0  0  0  0  0  0  0  0  0  0
    0.2109    1.7602    0.8883 H   0  0  0  0  0  0  0  0  0  0  0  0
    0.1943    1.7697   -0.8731 H   0  0  0  0  0  0  0  0  0  0  0  0
    1.2813   -0.4956   -0.9025 H   0  0  0  0  0  0  0  0  0  0  0  0
    1.2983   -0.5052    0.8725 H   0  0  0  0  0  0  0  0  0  0  0  0
   -0.1932   -2.4042   -0.8975 H   0  0  0  0  0  0  0  0  0  0  0  0
   -0.1765   -2.4137    0.8754 H   0  0  0  0  0  0  0  0  0  0  0  0
  2  1  1  0  0  0  0
  2  3  1  0  0  0  0
  2 11  1  0  0  0  0
  3 12  1  0  0  0  0
  4  3  1  0  0  0  0
  4  5  1  0  0  0  0
  4 15  1  0  0  0  0
  6  5  1  0  0  0  0
  6  7  1  0  0  0  0
  6 17  1  0  0  0  0
  7  8  3  0  0  0  0
  9  1  1  0  0  0  0
 10  2  1  0  0  0  0
 13  3  1  0  0  0  0
 14  4  1  0  0  0  0
 16  6  1  0  0  0  0
M  END
