title
 OpenBabel02282110003D

 19 18  0  0  0  0  0  0  0  0999 V2000
    2.0917    3.5208   -0.0010 O   0  0  0  0  0  0  0  0  0  0  0  0
    2.1826    2.1049   -0.0095 C   0  0  0  0  0  0  0  0  0  0  0  0
    0.7654    1.5465    0.0010 C   0  0  0  0  0  0  0  0  0  0  0  0
    0.7267    0.0159   -0.0069 C   0  0  0  0  0  0  0  0  0  0  0  0
   -0.7009   -0.5386    0.0036 C   0  0  0  0  0  0  0  0  0  0  0  0
   -0.7221   -2.0801   -0.0043 C   0  0  0  0  0  0  0  0  0  0  0  0
   -2.0771   -2.6273    0.0058 C   0  0  0  0  0  0  0  0  0  0  0  0
   -3.1552   -3.0434    0.0138 N   0  0  0  0  0  0  0  0  0  0  0  0
    2.9829    3.8817   -0.0074 H   0  0  0  0  0  0  0  0  0  0  0  0
    2.7180    1.7441   -0.9034 H   0  0  0  0  0  0  0  0  0  0  0  0
    2.7348    1.7346    0.8703 H   0  0  0  0  0  0  0  0  0  0  0  0
    0.2469    1.9329    0.8869 H   0  0  0  0  0  0  0  0  0  0  0  0
    0.2303    1.9423   -0.8707 H   0  0  0  0  0  0  0  0  0  0  0  0
    1.2566   -0.3626   -0.8922 H   0  0  0  0  0  0  0  0  0  0  0  0
    1.2732   -0.3720    0.8641 H   0  0  0  0  0  0  0  0  0  0  0  0
   -1.2372   -0.1781    0.8885 H   0  0  0  0  0  0  0  0  0  0  0  0
   -1.2538   -0.1687   -0.8671 H   0  0  0  0  0  0  0  0  0  0  0  0
   -0.2011   -2.4621   -0.8904 H   0  0  0  0  0  0  0  0  0  0  0  0
   -0.1843   -2.4714    0.8675 H   0  0  0  0  0  0  0  0  0  0  0  0
  2  1  1  0  0  0  0
  2  3  1  0  0  0  0
  2 11  1  0  0  0  0
  3 12  1  0  0  0  0
  4  3  1  0  0  0  0
  4  5  1  0  0  0  0
  4 15  1  0  0  0  0
  5 16  1  0  0  0  0
  6  5  1  0  0  0  0
  6  7  1  0  0  0  0
  6 19  1  0  0  0  0
  7  8  3  0  0  0  0
  9  1  1  0  0  0  0
 10  2  1  0  0  0  0
 13  3  1  0  0  0  0
 14  4  1  0  0  0  0
 17  5  1  0  0  0  0
 18  6  1  0  0  0  0
M  END
