title
 OpenBabel02282110003D

 22 21  0  0  0  0  0  0  0  0999 V2000
    2.2770    3.7916    0.2547 C   0  0  0  0  0  0  0  0  0  0  0  0
    2.2382    2.2618    0.2079 C   0  0  0  0  0  0  0  0  0  0  0  0
    0.8145    1.6968    0.1519 C   0  0  0  0  0  0  0  0  0  0  0  0
    0.7679    0.1661    0.1047 C   0  0  0  0  0  0  0  0  0  0  0  0
   -0.6573   -0.3947    0.0487 C   0  0  0  0  0  0  0  0  0  0  0  0
   -0.6960   -1.9321   -0.0094 C   0  0  0  0  0  0  0  0  0  0  0  0
   -2.1092   -2.4627    0.0466 C   0  0  0  0  0  0  0  0  0  0  0  0
   -2.6156   -3.1815   -0.7757 O   0  0  0  0  0  0  0  0  0  0  0  0
    3.3052    4.1648    0.2918 H   0  0  0  0  0  0  0  0  0  0  0  0
    1.7966    4.2269   -0.6287 H   0  0  0  0  0  0  0  0  0  0  0  0
    1.7519    4.1742    1.1370 H   0  0  0  0  0  0  0  0  0  0  0  0
    2.8021    1.9067   -0.6649 H   0  0  0  0  0  0  0  0  0  0  0  0
    2.7545    1.8542    1.0872 H   0  0  0  0  0  0  0  0  0  0  0  0
    0.2485    2.0516    1.0247 H   0  0  0  0  0  0  0  0  0  0  0  0
    0.2974    2.1038   -0.7282 H   0  0  0  0  0  0  0  0  0  0  0  0
    1.3320   -0.1896   -0.7682 H   0  0  0  0  0  0  0  0  0  0  0  0
    1.2828   -0.2432    0.9849 H   0  0  0  0  0  0  0  0  0  0  0  0
   -1.2203   -0.0493    0.9265 H   0  0  0  0  0  0  0  0  0  0  0  0
   -1.1777    0.0123   -0.8278 H   0  0  0  0  0  0  0  0  0  0  0  0
   -0.2137   -2.3143   -0.9140 H   0  0  0  0  0  0  0  0  0  0  0  0
   -0.1571   -2.3361    0.8607 H   0  0  0  0  0  0  0  0  0  0  0  0
   -2.6870   -2.1221    0.9396 H   0  0  0  0  0  0  0  0  0  0  0  0
  1  9  1  0  0  0  0
  1 11  1  0  0  0  0
  2  1  1  0  0  0  0
  2 13  1  0  0  0  0
  3  2  1  0  0  0  0
  3 14  1  0  0  0  0
  4  3  1  0  0  0  0
  4 17  1  0  0  0  0
  5  4  1  0  0  0  0
  5 18  1  0  0  0  0
  6  7  1  0  0  0  0
  6  5  1  0  0  0  0
  6 21  1  0  0  0  0
  7 22  1  0  0  0  0
  8  7  2  0  0  0  0
 10  1  1  0  0  0  0
 12  2  1  0  0  0  0
 15  3  1  0  0  0  0
 16  4  1  0  0  0  0
 19  5  1  0  0  0  0
 20  6  1  0  0  0  0
M  END
