title
 OpenBabel02282110003D

 18 17  0  0  0  0  0  0  0  0999 V2000
    2.0379    3.4666   -0.0089 O   0  0  0  0  0  0  0  0  0  0  0  0
    2.1571    2.0538   -0.0345 C   0  0  0  0  0  0  0  0  0  0  0  0
    0.7490    1.4724   -0.0247 C   0  0  0  0  0  0  0  0  0  0  0  0
    0.7401   -0.0540   -0.0170 C   0  0  0  0  0  0  0  0  0  0  0  0
   -0.6292   -0.5621   -0.0529 N   0  0  0  0  0  0  0  0  0  0  0  0
   -0.6871   -2.0163    0.0119 C   0  0  0  0  0  0  0  0  0  0  0  0
   -2.0731   -2.4924    0.0251 C   0  0  0  0  0  0  0  0  0  0  0  0
   -3.1640   -2.8700    0.0594 N   0  0  0  0  0  0  0  0  0  0  0  0
    2.9217    3.8449   -0.0254 H   0  0  0  0  0  0  0  0  0  0  0  0
    2.6938    1.7134   -0.9355 H   0  0  0  0  0  0  0  0  0  0  0  0
    2.7212    1.6846    0.8381 H   0  0  0  0  0  0  0  0  0  0  0  0
    0.2257    1.8546    0.8612 H   0  0  0  0  0  0  0  0  0  0  0  0
    0.2011    1.8370   -0.8994 H   0  0  0  0  0  0  0  0  0  0  0  0
    1.2596   -0.4346   -0.9072 H   0  0  0  0  0  0  0  0  0  0  0  0
    1.3069   -0.4295    0.8571 H   0  0  0  0  0  0  0  0  0  0  0  0
   -1.1628   -0.1685    0.7162 H   0  0  0  0  0  0  0  0  0  0  0  0
   -0.1900   -2.4290   -0.8752 H   0  0  0  0  0  0  0  0  0  0  0  0
   -0.1704   -2.4528    0.8875 H   0  0  0  0  0  0  0  0  0  0  0  0
  2  3  1  0  0  0  0
  2  1  1  0  0  0  0
  2 11  1  0  0  0  0
  3  4  1  0  0  0  0
  3 12  1  0  0  0  0
  4 15  1  0  0  0  0
  5  4  1  0  0  0  0
  5  6  1  0  0  0  0
  5 16  1  0  0  0  0
  6  7  1  0  0  0  0
  6 18  1  0  0  0  0
  7  8  3  0  0  0  0
  9  1  1  0  0  0  0
 10  2  1  0  0  0  0
 13  3  1  0  0  0  0
 14  4  1  0  0  0  0
 17  6  1  0  0  0  0
M  END
