20
title
C 2.1676028 3.738882 0.18397197
C 2.1800234 2.2092538 0.11902141
C 0.7726033 1.6051147 0.07665762
C 0.7861823 0.08498791 0.012613759
O -0.549994 -0.38173935 -0.023309432
C -0.6564808 -1.7780697 -0.08368602
C -2.130654 -2.1420956 -0.11484792
O -2.5387037 -3.271474 -0.16732834
H 3.1834228 4.144629 0.21270117
H 1.6613172 4.1672487 -0.6879483
H 1.6413767 4.09214 1.0774789
H 2.7432988 1.8851011 -0.76604587
H 2.7225463 1.8105469 0.98643607
H 0.20391726 1.9130365 0.9626541
H 0.22496378 1.9871755 -0.79358596
H 1.3311892 -0.26016995 -0.88277894
H 1.3096473 -0.3350341 0.8886655
H -0.17052412 -2.1952295 -0.98287904
H -0.18946052 -2.2702966 0.7871344
H -2.8061001 -1.2586143 -0.084458284
