21
title
C 2.1787746 3.6039586 0.013675593
C 2.0912273 2.075931 -0.021366395
C 0.6904583 1.5457655 0.3035139
C 0.59635687 0.017204689 0.26826555
C -0.81139743 -0.49317104 0.59619266
N -0.9118558 -1.9446696 0.579683
C -1.579369 -2.6358058 -0.38247514
O -2.1950126 -2.1433003 -1.3042957
H 3.1892855 3.9518738 -0.22206873
H 1.493331 4.0562553 -0.711595
H 1.9150109 3.9934256 1.0033647
H 2.39293 1.7133708 -1.0127364
H 2.8126113 1.650309 0.68889767
H 0.38675573 1.908604 1.2957468
H -0.03219304 1.9699678 -0.4070856
H 0.8831974 -0.35420042 -0.72318727
H 1.3154807 -0.41153055 0.9805751
H -1.1276253 -0.11973484 1.5787458
H -1.5309111 -0.13274248 -0.14288563
H -0.40908036 -2.4733574 1.2749099
H -1.5041372 -3.7306163 -0.22413173
