title
 OpenBabel02282110003D

 20 19  0  0  0  0  0  0  0  0999 V2000
   -0.8538    3.6688   -1.8431 C   0  0  0  0  0  0  0  0  0  0  0  0
   -0.8479    2.2630   -1.7943 O   0  0  0  0  0  0  0  0  0  0  0  0
   -0.2220    1.7549   -0.6376 C   0  0  0  0  0  0  0  0  0  0  0  0
   -0.2824    0.2336   -0.6837 C   0  0  0  0  0  0  0  0  0  0  0  0
    0.3764   -0.4206    0.5344 C   0  0  0  0  0  0  0  0  0  0  0  0
    0.2994   -1.9569    0.4950 C   0  0  0  0  0  0  0  0  0  0  0  0
    1.0503   -2.5883    1.6442 C   0  0  0  0  0  0  0  0  0  0  0  0
    0.5805   -3.3573    2.4422 O   0  0  0  0  0  0  0  0  0  0  0  0
    0.1672    4.0834   -1.8484 H   0  0  0  0  0  0  0  0  0  0  0  0
   -1.3580    3.9630   -2.7668 H   0  0  0  0  0  0  0  0  0  0  0  0
   -1.3945    4.1063   -0.9884 H   0  0  0  0  0  0  0  0  0  0  0  0
    0.8271    2.0971   -0.5853 H   0  0  0  0  0  0  0  0  0  0  0  0
   -0.7257    2.1321    0.2702 H   0  0  0  0  0  0  0  0  0  0  0  0
   -1.3327   -0.0724   -0.7542 H   0  0  0  0  0  0  0  0  0  0  0  0
    0.2056   -0.1087   -1.6043 H   0  0  0  0  0  0  0  0  0  0  0  0
    1.4287   -0.1114    0.5956 H   0  0  0  0  0  0  0  0  0  0  0  0
   -0.1034   -0.0606    1.4535 H   0  0  0  0  0  0  0  0  0  0  0  0
   -0.7358   -2.3097    0.5160 H   0  0  0  0  0  0  0  0  0  0  0  0
    0.7621   -2.3141   -0.4371 H   0  0  0  0  0  0  0  0  0  0  0  0
    2.1202   -2.2760    1.7142 H   0  0  0  0  0  0  0  0  0  0  0  0
  1  2  1  0  0  0  0
  1 11  1  0  0  0  0
  2  3  1  0  0  0  0
  3 12  1  0  0  0  0
  3 13  1  0  0  0  0
  4  3  1  0  0  0  0
  4  5  1  0  0  0  0
  5 16  1  0  0  0  0
  5 17  1  0  0  0  0
  6 18  1  0  0  0  0
  6  5  1  0  0  0  0
  6  7  1  0  0  0  0
  7 20  1  0  0  0  0
  7  8  2  0  0  0  0
  9  1  1  0  0  0  0
 10  1  1  0  0  0  0
 14  4  1  0  0  0  0
 15  4  1  0  0  0  0
 19  6  1  0  0  0  0
M  END
