20
title
C 2.1452303 3.6924367 0.2714136
C 2.049041 2.1670184 0.19196539
C 0.60823125 1.6772726 0.15291177
O 0.6096913 0.26508212 0.074966714
C -0.68115 -0.29290807 0.029464006
C -0.5390671 -1.8103997 -0.09475557
C -1.8595527 -2.5225008 0.08454266
O -2.3390965 -3.2975466 -0.70144606
H 3.1887753 4.0183945 0.29920435
H 1.672107 4.1685905 -0.5944667
H 1.6533422 4.078223 1.1712126
H 2.5650446 1.7987037 -0.7019979
H 2.5492182 1.7083889 1.0526029
H 0.06437152 2.0090864 1.0547425
H 0.07944649 2.1064513 -0.71586335
H -1.2477111 -0.035746455 0.94226015
H -1.25044 0.10853112 -0.82562053
H -0.10163862 -2.0905564 -1.0555614
H 0.13502125 -2.1456778 0.7059457
H -2.3858929 -2.2786114 1.0381274
