title
 OpenBabel02282110003D

 19 18  0  0  0  0  0  0  0  0999 V2000
    1.7855    2.6048    0.2491 C   0  0  0  0  0  0  0  0  0  0  0  0
    2.0600    1.1131    0.3248 C   0  0  0  0  0  0  0  0  0  0  0  0
    0.8436    0.4443    0.6054 O   0  0  0  0  0  0  0  0  0  0  0  0
    0.9703   -0.9563    0.6753 C   0  0  0  0  0  0  0  0  0  0  0  0
   -0.4189   -1.5587    0.7961 C   0  0  0  0  0  0  0  0  0  0  0  0
   -1.1605   -1.4351   -0.4116 O   0  0  0  0  0  0  0  0  0  0  0  0
   -1.8218   -0.2743   -0.6097 C   0  0  0  0  0  0  0  0  0  0  0  0
   -2.3859   -0.0590   -1.7181 N   0  0  0  0  0  0  0  0  0  0  0  0
    2.7086    3.1505    0.0332 H   0  0  0  0  0  0  0  0  0  0  0  0
    1.0615    2.8207   -0.5416 H   0  0  0  0  0  0  0  0  0  0  0  0
    1.3800    2.9703    1.1968 H   0  0  0  0  0  0  0  0  0  0  0  0
    2.4797    0.7460   -0.6259 H   0  0  0  0  0  0  0  0  0  0  0  0
    2.8006    0.8932    1.1120 H   0  0  0  0  0  0  0  0  0  0  0  0
    1.4618   -1.3532   -0.2272 H   0  0  0  0  0  0  0  0  0  0  0  0
    1.5754   -1.2570    1.5484 H   0  0  0  0  0  0  0  0  0  0  0  0
   -0.3412   -2.6310    0.9944 H   0  0  0  0  0  0  0  0  0  0  0  0
   -0.9550   -1.0882    1.6308 H   0  0  0  0  0  0  0  0  0  0  0  0
   -1.8103    0.3895    0.2625 H   0  0  0  0  0  0  0  0  0  0  0  0
   -2.8615    0.8406   -1.6903 H   0  0  0  0  0  0  0  0  0  0  0  0
  1  2  1  0  0  0  0
  1 11  1  0  0  0  0
  2  3  1  0  0  0  0
  2 13  1  0  0  0  0
  3  4  1  0  0  0  0
  4  5  1  0  0  0  0
  4 15  1  0  0  0  0
  5 16  1  0  0  0  0
  5 17  1  0  0  0  0
  6  5  1  0  0  0  0
  7  6  1  0  0  0  0
  7 18  1  0  0  0  0
  8 19  1  0  0  0  0
  8  7  2  0  0  0  0
  9  1  1  0  0  0  0
 10  1  1  0  0  0  0
 12  2  1  0  0  0  0
 14  4  1  0  0  0  0
M  END
