19
title
C 1.7854638 2.6048245 0.24905537
C 2.0600295 1.1130526 0.3247808
O 0.8436111 0.44425854 0.60535794
C 0.970338 -0.9563138 0.67531973
C -0.41888025 -1.55872 0.79610395
O -1.1605384 -1.4350656 -0.4116246
C -1.8217626 -0.27425817 -0.6096898
N -2.3859248 -0.058998615 -1.7180536
H 2.708646 3.1505125 0.03321446
H 1.061499 2.8206868 -0.54164475
H 1.3799913 2.9702923 1.1968453
H 2.4796786 0.7460177 -0.62592643
H 2.8005788 0.89322394 1.1120013
H 1.4617891 -1.353244 -0.22718893
H 1.5753826 -1.2570466 1.5484258
H -0.3412197 -2.6310425 0.9943894
H -0.9549985 -1.0882276 1.6307827
H -1.8102684 0.3894525 0.26246643
H -2.861495 0.84060186 -1.6903045
