title
 OpenBabel02282110003D

 19 18  0  0  0  0  0  0  0  0999 V2000
    1.8035    3.7350    0.0024 C   0  0  0  0  0  0  0  0  0  0  0  0
    1.7774    2.3281   -0.0048 O   0  0  0  0  0  0  0  0  0  0  0  0
    0.4704    1.8030    0.0047 C   0  0  0  0  0  0  0  0  0  0  0  0
    0.5686    0.2828   -0.0042 C   0  0  0  0  0  0  0  0  0  0  0  0
   -0.7989   -0.3815    0.0053 C   0  0  0  0  0  0  0  0  0  0  0  0
   -0.5954   -1.7960   -0.0038 O   0  0  0  0  0  0  0  0  0  0  0  0
   -1.7061   -2.5555    0.0031 C   0  0  0  0  0  0  0  0  0  0  0  0
   -1.6126   -3.8143   -0.0040 N   0  0  0  0  0  0  0  0  0  0  0  0
    2.8518    4.0426   -0.0057 H   0  0  0  0  0  0  0  0  0  0  0  0
    1.3018    4.1586   -0.8824 H   0  0  0  0  0  0  0  0  0  0  0  0
    1.3185    4.1491    0.9009 H   0  0  0  0  0  0  0  0  0  0  0  0
   -0.0781    2.1517    0.8983 H   0  0  0  0  0  0  0  0  0  0  0  0
   -0.0947    2.1610   -0.8747 H   0  0  0  0  0  0  0  0  0  0  0  0
    1.1220   -0.0393   -0.8919 H   0  0  0  0  0  0  0  0  0  0  0  0
    1.1389   -0.0487    0.8693 H   0  0  0  0  0  0  0  0  0  0  0  0
   -1.3678   -0.0925    0.9006 H   0  0  0  0  0  0  0  0  0  0  0  0
   -1.3846   -0.0835   -0.8760 H   0  0  0  0  0  0  0  0  0  0  0  0
   -2.6385   -1.9724    0.0152 H   0  0  0  0  0  0  0  0  0  0  0  0
   -2.5419   -4.2298    0.0030 H   0  0  0  0  0  0  0  0  0  0  0  0
  1 11  1  0  0  0  0
  2  1  1  0  0  0  0
  2  3  1  0  0  0  0
  3 12  1  0  0  0  0
  4  3  1  0  0  0  0
  4  5  1  0  0  0  0
  4 15  1  0  0  0  0
  5 16  1  0  0  0  0
  6  7  1  0  0  0  0
  6  5  1  0  0  0  0
  7 18  1  0  0  0  0
  8 19  1  0  0  0  0
  8  7  2  0  0  0  0
  9  1  1  0  0  0  0
 10  1  1  0  0  0  0
 13  3  1  0  0  0  0
 14  4  1  0  0  0  0
 17  5  1  0  0  0  0
M  END
