title
 OpenBabel02282110003D

 19 18  0  0  0  0  0  0  0  0999 V2000
   -1.4716    2.5787    2.1580 C   0  0  0  0  0  0  0  0  0  0  0  0
   -1.4551    1.0683    1.9976 C   0  0  0  0  0  0  0  0  0  0  0  0
   -0.9770    0.7556    0.7025 O   0  0  0  0  0  0  0  0  0  0  0  0
   -0.9112   -0.6323    0.4418 C   0  0  0  0  0  0  0  0  0  0  0  0
   -0.3216   -0.8108   -0.9490 C   0  0  0  0  0  0  0  0  0  0  0  0
    0.9915   -0.1996   -1.0367 N   0  0  0  0  0  0  0  0  0  0  0  0
    2.0892   -0.8504   -1.4991 C   0  0  0  0  0  0  0  0  0  0  0  0
    2.1056   -1.9874   -1.9236 O   0  0  0  0  0  0  0  0  0  0  0  0
   -0.4650    2.9899    2.0386 H   0  0  0  0  0  0  0  0  0  0  0  0
   -2.1211    3.0377    1.4074 H   0  0  0  0  0  0  0  0  0  0  0  0
   -1.8410    2.8516    3.1508 H   0  0  0  0  0  0  0  0  0  0  0  0
   -0.8099    0.6027    2.7613 H   0  0  0  0  0  0  0  0  0  0  0  0
   -2.4671    0.6528    2.1349 H   0  0  0  0  0  0  0  0  0  0  0  0
   -0.2779   -1.1349    1.1909 H   0  0  0  0  0  0  0  0  0  0  0  0
   -1.9140   -1.0875    0.4874 H   0  0  0  0  0  0  0  0  0  0  0  0
   -0.2035   -1.8697   -1.1882 H   0  0  0  0  0  0  0  0  0  0  0  0
   -1.0006   -0.3656   -1.6875 H   0  0  0  0  0  0  0  0  0  0  0  0
    1.0848    0.7346   -0.6705 H   0  0  0  0  0  0  0  0  0  0  0  0
    2.9941   -0.2125   -1.4477 H   0  0  0  0  0  0  0  0  0  0  0  0
  1 11  1  0  0  0  0
  2 13  1  0  0  0  0
  2  1  1  0  0  0  0
  2 12  1  0  0  0  0
  3  2  1  0  0  0  0
  4 15  1  0  0  0  0
  4  3  1  0  0  0  0
  4 14  1  0  0  0  0
  5  4  1  0  0  0  0
  6  5  1  0  0  0  0
  6 18  1  0  0  0  0
  7 19  1  0  0  0  0
  7  6  1  0  0  0  0
  8  7  2  0  0  0  0
  9  1  1  0  0  0  0
 10  1  1  0  0  0  0
 16  5  1  0  0  0  0
 17  5  1  0  0  0  0
M  END
