19
title
C 1.803535 3.7349699 0.002447818
O 1.7773734 2.328069 -0.004772352
C 0.47035536 1.8029943 0.0047326074
C 0.56863344 0.28276715 -0.004232871
C -0.79892945 -0.38148084 0.0053301393
O -0.5953882 -1.7960342 -0.003802511
C -1.7061322 -2.5555077 0.003096745
N -1.6126409 -3.814311 -0.0040351693
H 2.8518264 4.042554 -0.0057272334
H 1.3017989 4.1585803 -0.88237005
H 1.318491 4.1491137 0.90094966
H -0.07807484 2.1516845 0.8983201
H -0.09472111 2.1610365 -0.87467337
H 1.1220286 -0.039338734 -0.8919252
H 1.1388601 -0.0486578 0.8692586
H -1.3678124 -0.09250131 0.9005708
H -1.3846097 -0.083468586 -0.87601024
H -2.6384878 -1.9724048 0.01520642
H -2.5418959 -4.229781 0.003039002
