20
title
C 2.1926723 3.522767 0.23861583
C 2.24883 2.0048184 0.2150905
O 0.92804176 1.5055398 0.14751108
C 0.86191446 0.09953911 0.11831539
C -0.60236114 -0.3118264 0.028017495
C -0.7787351 -1.8381153 -0.004044409
C -2.2370605 -2.235575 0.029908393
O -2.7768898 -2.957774 -0.7670059
H 3.2022808 3.940975 0.29061425
H 1.7050238 3.902387 -0.6636843
H 1.6264035 3.8723018 1.1065339
H 2.8328307 1.6518847 -0.6520451
H 2.753966 1.6216621 1.1183102
H 1.4252057 -0.29789108 -0.74419534
H 1.3228605 -0.3303768 1.0257133
H -1.1376376 0.11267979 0.8858605
H -1.0399237 0.13684624 -0.8706422
H -0.31654593 -2.2860835 -0.8886653
H -0.30196783 -2.2758586 0.88617724
H -2.8085413 -1.7932323 0.88060087
