title
 OpenBabel02282110003D

 19 18  0  0  0  0  0  0  0  0999 V2000
    2.0413    3.4105   -0.0411 O   0  0  0  0  0  0  0  0  0  0  0  0
    2.0448    1.9940    0.0450 C   0  0  0  0  0  0  0  0  0  0  0  0
    0.6502    1.4999   -0.3163 C   0  0  0  0  0  0  0  0  0  0  0  0
    0.5318   -0.0259   -0.2831 C   0  0  0  0  0  0  0  0  0  0  0  0
   -0.8829   -0.5053   -0.6310 C   0  0  0  0  0  0  0  0  0  0  0  0
   -1.0154   -1.9541   -0.6297 N   0  0  0  0  0  0  0  0  0  0  0  0
   -1.5804   -2.6461    0.3956 C   0  0  0  0  0  0  0  0  0  0  0  0
   -2.0681   -2.1526    1.3905 O   0  0  0  0  0  0  0  0  0  0  0  0
    2.9116    3.7303    0.2135 H   0  0  0  0  0  0  0  0  0  0  0  0
    2.7853    1.5543   -0.6442 H   0  0  0  0  0  0  0  0  0  0  0  0
    2.3064    1.6554    1.0608 H   0  0  0  0  0  0  0  0  0  0  0  0
   -0.0684    1.9496    0.3795 H   0  0  0  0  0  0  0  0  0  0  0  0
    0.3973    1.8794   -1.3143 H   0  0  0  0  0  0  0  0  0  0  0  0
    1.2495   -0.4709   -0.9863 H   0  0  0  0  0  0  0  0  0  0  0  0
    0.7927   -0.4062    0.7120 H   0  0  0  0  0  0  0  0  0  0  0  0
   -1.5992   -0.1312    0.1044 H   0  0  0  0  0  0  0  0  0  0  0  0
   -1.1804   -0.1214   -1.6144 H   0  0  0  0  0  0  0  0  0  0  0  0
   -0.6032   -2.4812   -1.3830 H   0  0  0  0  0  0  0  0  0  0  0  0
   -1.5553   -3.7396    0.2138 H   0  0  0  0  0  0  0  0  0  0  0  0
  1  2  1  0  0  0  0
  1  9  1  0  0  0  0
  2 11  1  0  0  0  0
  3  4  1  0  0  0  0
  3  2  1  0  0  0  0
  3 12  1  0  0  0  0
  4 15  1  0  0  0  0
  5  6  1  0  0  0  0
  5  4  1  0  0  0  0
  5 16  1  0  0  0  0
  6  7  1  0  0  0  0
  7  8  2  0  0  0  0
 10  2  1  0  0  0  0
 13  3  1  0  0  0  0
 14  4  1  0  0  0  0
 17  5  1  0  0  0  0
 18  6  1  0  0  0  0
 19  7  1  0  0  0  0
M  END
