title
 OpenBabel02282110003D

 26 25  0  0  0  0  0  0  0  0999 V2000
   -1.1859    3.9050   -1.8987 C   0  0  0  0  0  0  0  0  0  0  0  0
   -1.1442    2.3748   -1.8714 C   0  0  0  0  0  0  0  0  0  0  0  0
   -0.4127    1.8122   -0.6476 C   0  0  0  0  0  0  0  0  0  0  0  0
   -0.3656    0.2809   -0.6121 C   0  0  0  0  0  0  0  0  0  0  0  0
    0.3656   -0.2809    0.6121 C   0  0  0  0  0  0  0  0  0  0  0  0
    0.4127   -1.8122    0.6476 C   0  0  0  0  0  0  0  0  0  0  0  0
    1.1442   -2.3748    1.8714 C   0  0  0  0  0  0  0  0  0  0  0  0
    1.1859   -3.9050    1.8987 C   0  0  0  0  0  0  0  0  0  0  0  0
   -0.1752    4.3282   -1.9131 H   0  0  0  0  0  0  0  0  0  0  0  0
   -1.7145    4.2768   -2.7822 H   0  0  0  0  0  0  0  0  0  0  0  0
   -1.6960    4.3027   -1.0141 H   0  0  0  0  0  0  0  0  0  0  0  0
   -2.1685    1.9794   -1.8934 H   0  0  0  0  0  0  0  0  0  0  0  0
   -0.6586    2.0047   -2.7843 H   0  0  0  0  0  0  0  0  0  0  0  0
    0.6124    2.2082   -0.6247 H   0  0  0  0  0  0  0  0  0  0  0  0
   -0.8983    2.1825    0.2663 H   0  0  0  0  0  0  0  0  0  0  0  0
   -1.3909   -0.1143   -0.6354 H   0  0  0  0  0  0  0  0  0  0  0  0
    0.1201   -0.0885   -1.5262 H   0  0  0  0  0  0  0  0  0  0  0  0
    1.3909    0.1143    0.6354 H   0  0  0  0  0  0  0  0  0  0  0  0
   -0.1201    0.0885    1.5262 H   0  0  0  0  0  0  0  0  0  0  0  0
   -0.6124   -2.2082    0.6247 H   0  0  0  0  0  0  0  0  0  0  0  0
    0.8983   -2.1825   -0.2663 H   0  0  0  0  0  0  0  0  0  0  0  0
    2.1685   -1.9794    1.8934 H   0  0  0  0  0  0  0  0  0  0  0  0
    0.6586   -2.0047    2.7843 H   0  0  0  0  0  0  0  0  0  0  0  0
    0.1752   -4.3282    1.9131 H   0  0  0  0  0  0  0  0  0  0  0  0
    1.6960   -4.3027    1.0141 H   0  0  0  0  0  0  0  0  0  0  0  0
    1.7145   -4.2768    2.7822 H   0  0  0  0  0  0  0  0  0  0  0  0
  1  2  1  0  0  0  0
  1 11  1  0  0  0  0
  2  3  1  0  0  0  0
  3 14  1  0  0  0  0
  3  4  1  0  0  0  0
  3 15  1  0  0  0  0
  4  5  1  0  0  0  0
  5 18  1  0  0  0  0
  5  6  1  0  0  0  0
  5 19  1  0  0  0  0
  6  7  1  0  0  0  0
  7 22  1  0  0  0  0
  7  8  1  0  0  0  0
  7 23  1  0  0  0  0
  8 24  1  0  0  0  0
  8 26  1  0  0  0  0
  9  1  1  0  0  0  0
 10  1  1  0  0  0  0
 12  2  1  0  0  0  0
 13  2  1  0  0  0  0
 16  4  1  0  0  0  0
 17  4  1  0  0  0  0
 20  6  1  0  0  0  0
 21  6  1  0  0  0  0
 25  8  1  0  0  0  0
M  END
