title
 OpenBabel02282110003D

 18 17  0  0  0  0  0  0  0  0999 V2000
    2.0696    3.5521   -0.2521 O   0  0  0  0  0  0  0  0  0  0  0  0
    2.0511    2.1357   -0.1856 C   0  0  0  0  0  0  0  0  0  0  0  0
    0.6135    1.7030    0.0737 C   0  0  0  0  0  0  0  0  0  0  0  0
    0.4607    0.1821    0.1630 C   0  0  0  0  0  0  0  0  0  0  0  0
   -0.9812   -0.2331    0.4302 C   0  0  0  0  0  0  0  0  0  0  0  0
   -1.0765   -1.6543    0.5974 O   0  0  0  0  0  0  0  0  0  0  0  0
   -1.6265   -2.3743   -0.3964 C   0  0  0  0  0  0  0  0  0  0  0  0
   -1.7122   -3.5647   -0.3650 O   0  0  0  0  0  0  0  0  0  0  0  0
    2.9746    3.8357   -0.4107 H   0  0  0  0  0  0  0  0  0  0  0  0
    2.4105    1.6854   -1.1256 H   0  0  0  0  0  0  0  0  0  0  0  0
    2.7017    1.7631    0.6225 H   0  0  0  0  0  0  0  0  0  0  0  0
    0.2734    2.1749    1.0037 H   0  0  0  0  0  0  0  0  0  0  0  0
   -0.0174    2.1049   -0.7288 H   0  0  0  0  0  0  0  0  0  0  0  0
    0.7988   -0.2897   -0.7685 H   0  0  0  0  0  0  0  0  0  0  0  0
    1.0918   -0.2201    0.9643 H   0  0  0  0  0  0  0  0  0  0  0  0
   -1.3520    0.2110    1.3590 H   0  0  0  0  0  0  0  0  0  0  0  0
   -1.6415    0.0925   -0.3849 H   0  0  0  0  0  0  0  0  0  0  0  0
   -1.9922   -1.7426   -1.2310 H   0  0  0  0  0  0  0  0  0  0  0  0
  1  2  1  0  0  0  0
  2  3  1  0  0  0  0
  2 11  1  0  0  0  0
  3  4  1  0  0  0  0
  3 12  1  0  0  0  0
  4  5  1  0  0  0  0
  4 15  1  0  0  0  0
  5  6  1  0  0  0  0
  5 16  1  0  0  0  0
  7  8  2  0  0  0  0
  7  6  1  0  0  0  0
  9  1  1  0  0  0  0
 10  2  1  0  0  0  0
 13  3  1  0  0  0  0
 14  4  1  0  0  0  0
 17  5  1  0  0  0  0
 18  7  1  0  0  0  0
M  END
