19
title
O 2.0413256 3.4104903 -0.041062295
C 2.044844 1.9939573 0.044986933
C 0.6502221 1.4998996 -0.31627512
C 0.53183025 -0.025922574 -0.28310752
C -0.8828911 -0.50531965 -0.63103324
N -1.0154306 -1.9541321 -0.62965184
C -1.5804411 -2.6461341 0.39564854
O -2.0680735 -2.152631 1.3905109
H 2.911596 3.7302623 0.21352044
H 2.7852907 1.5542965 -0.64420646
H 2.306408 1.6553851 1.0608388
H -0.06843299 1.9495971 0.37948143
H 0.39728802 1.8793968 -1.314281
H 1.2495492 -0.4708877 -0.9862945
H 0.7927273 -0.406225 0.71200836
H -1.5992001 -0.13120392 0.10436049
H -1.1803852 -0.12143115 -1.6144015
H -0.60316056 -2.4811676 -1.3830452
H -1.5552634 -3.7395718 0.21384281
