24
title
C 2.2209735 3.9674218 -5.0259173e-06
C 2.191034 2.43662 -0.007919008
C 0.7711755 1.8599278 0.0025836607
C 0.7325139 0.32837743 -0.0052490192
C -0.6879592 -0.24696545 0.0052608843
C -0.7192211 -1.7780468 -0.0026382892
C -2.1318512 -2.3458698 0.007842811
O -2.0378423 -3.7633035 -0.0006678091
H 3.2470212 4.348592 -0.0077858726
H 1.7067944 4.377898 -0.8763466
H 1.7237078 4.368433 0.89036685
H 2.7258468 2.0639126 -0.891689
H 2.74263 2.0545206 0.8614065
H 0.23513842 2.2331064 0.8867875
H 0.21835172 2.2424986 -0.8671519
H 1.2679474 -0.044668484 -0.88938344
H 1.2847317 -0.054063845 0.8644292
H -1.2227879 0.12677927 0.8897747
H -1.2395723 0.13617273 -0.8648076
H -0.197896 -2.161928 -0.88837445
H -0.181072 -2.1713383 0.86879164
H -2.669711 -1.9881957 0.9016884
H -2.6866927 -1.9786761 -0.87164897
H -2.9293318 -4.123396 0.006019699
