title
 OpenBabel02282110003D

 18 17  0  0  0  0  0  0  0  0999 V2000
    2.6292    1.5480    1.4254 O   0  0  0  0  0  0  0  0  0  0  0  0
    2.8058    0.1570    1.2493 C   0  0  0  0  0  0  0  0  0  0  0  0
    1.4733   -0.5752    1.2380 C   0  0  0  0  0  0  0  0  0  0  0  0
    0.7251   -0.0436    0.1564 O   0  0  0  0  0  0  0  0  0  0  0  0
   -0.5986   -0.5249    0.0893 C   0  0  0  0  0  0  0  0  0  0  0  0
   -1.2775    0.1109   -1.1237 C   0  0  0  0  0  0  0  0  0  0  0  0
   -2.7640   -0.1657   -1.1513 C   0  0  0  0  0  0  0  0  0  0  0  0
   -3.3526   -0.6734   -2.0696 O   0  0  0  0  0  0  0  0  0  0  0  0
    1.9759    1.8140    0.7679 H   0  0  0  0  0  0  0  0  0  0  0  0
    3.3451   -0.0675    0.3154 H   0  0  0  0  0  0  0  0  0  0  0  0
    3.4158   -0.2016    2.0847 H   0  0  0  0  0  0  0  0  0  0  0  0
    1.6218   -1.6604    1.1158 H   0  0  0  0  0  0  0  0  0  0  0  0
    0.9416   -0.4037    2.1874 H   0  0  0  0  0  0  0  0  0  0  0  0
   -0.6045   -1.6230   -0.0013 H   0  0  0  0  0  0  0  0  0  0  0  0
   -1.1462   -0.2721    1.0136 H   0  0  0  0  0  0  0  0  0  0  0  0
   -1.1405    1.1990   -1.0504 H   0  0  0  0  0  0  0  0  0  0  0  0
   -0.8268   -0.2338   -2.0569 H   0  0  0  0  0  0  0  0  0  0  0  0
   -3.3067    0.1488   -0.2285 H   0  0  0  0  0  0  0  0  0  0  0  0
  2  1  1  0  0  0  0
  2 11  1  0  0  0  0
  3  2  1  0  0  0  0
  3 13  1  0  0  0  0
  4  3  1  0  0  0  0
  5  4  1  0  0  0  0
  5 15  1  0  0  0  0
  6 16  1  0  0  0  0
  6  5  1  0  0  0  0
  7  6  1  0  0  0  0
  7 18  1  0  0  0  0
  8  7  2  0  0  0  0
  9  1  1  0  0  0  0
 10  2  1  0  0  0  0
 12  3  1  0  0  0  0
 14  5  1  0  0  0  0
 17  6  1  0  0  0  0
M  END
