24
title
C -1.16736 3.8505347 -1.8679502
C -1.1117291 2.3213494 -1.8210181
C -0.37804037 1.7820281 -0.5882466
C -0.3212675 0.2523007 -0.53975546
C 0.40829092 -0.27431205 0.6884725
O 0.41132337 -1.6846924 0.647563
C 1.0674298 -2.275356 1.7486916
C 1.0083923 -3.7860572 1.5967412
H -0.16075987 4.283276 -1.8854221
H -1.6967832 4.2046027 -2.7580829
H -1.6841387 4.255311 -0.9904986
H -2.1319153 1.9158802 -1.8396755
H -0.62020767 1.9436215 -2.7272553
H 0.64293283 2.188793 -0.56930065
H -0.8699372 2.1608 0.31883025
H -1.3365521 -0.16301681 -0.5472642
H 0.17958218 -0.13496639 -1.4355882
H 1.4433403 0.11088584 0.7145786
H -0.0856641 0.0816078 1.6102686
H 2.115662 -1.9324377 1.7973566
H 0.58679074 -1.9627273 2.6921031
H 1.5097787 -4.2747536 2.437569
H -0.030102316 -4.127824 1.5647097
H 1.499165 -4.097697 0.6702852
