title
 OpenBabel02282110003D

 24 23  0  0  0  0  0  0  0  0999 V2000
   -1.1808    3.9036   -1.8902 C   0  0  0  0  0  0  0  0  0  0  0  0
   -1.1443    2.3730   -1.8724 C   0  0  0  0  0  0  0  0  0  0  0  0
   -0.4151    1.8011   -0.6521 C   0  0  0  0  0  0  0  0  0  0  0  0
   -0.3741    0.2694   -0.6267 C   0  0  0  0  0  0  0  0  0  0  0  0
    0.3563   -0.2946    0.5959 C   0  0  0  0  0  0  0  0  0  0  0  0
    0.3926   -1.8164    0.6133 C   0  0  0  0  0  0  0  0  0  0  0  0
    1.0817   -2.2423    1.7694 O   0  0  0  0  0  0  0  0  0  0  0  0
    1.1655   -3.6415    1.8723 C   0  0  0  0  0  0  0  0  0  0  0  0
   -0.1687    4.3235   -1.9009 H   0  0  0  0  0  0  0  0  0  0  0  0
   -1.7071    4.2819   -2.7723 H   0  0  0  0  0  0  0  0  0  0  0  0
   -1.6907    4.2976   -1.0039 H   0  0  0  0  0  0  0  0  0  0  0  0
   -2.1701    1.9814   -1.8970 H   0  0  0  0  0  0  0  0  0  0  0  0
   -0.6598    2.0070   -2.7875 H   0  0  0  0  0  0  0  0  0  0  0  0
    0.6116    2.1921   -0.6262 H   0  0  0  0  0  0  0  0  0  0  0  0
   -0.8991    2.1665    0.2644 H   0  0  0  0  0  0  0  0  0  0  0  0
   -1.4015   -0.1203   -0.6528 H   0  0  0  0  0  0  0  0  0  0  0  0
    0.1099   -0.0946   -1.5439 H   0  0  0  0  0  0  0  0  0  0  0  0
    1.3872    0.0790    0.6248 H   0  0  0  0  0  0  0  0  0  0  0  0
   -0.1266    0.0531    1.5174 H   0  0  0  0  0  0  0  0  0  0  0  0
   -0.6334   -2.2259    0.6067 H   0  0  0  0  0  0  0  0  0  0  0  0
    0.8934   -2.1998   -0.2937 H   0  0  0  0  0  0  0  0  0  0  0  0
    1.7113   -3.8719    2.7908 H   0  0  0  0  0  0  0  0  0  0  0  0
    0.1694   -4.1105    1.9248 H   0  0  0  0  0  0  0  0  0  0  0  0
    1.7044   -4.0851    1.0191 H   0  0  0  0  0  0  0  0  0  0  0  0
  1  2  1  0  0  0  0
  1 11  1  0  0  0  0
  2  3  1  0  0  0  0
  3  4  1  0  0  0  0
  3 14  1  0  0  0  0
  3 15  1  0  0  0  0
  4  5  1  0  0  0  0
  5  6  1  0  0  0  0
  5 18  1  0  0  0  0
  5 19  1  0  0  0  0
  6  7  1  0  0  0  0
  7  8  1  0  0  0  0
  8 23  1  0  0  0  0
  8 22  1  0  0  0  0
  9  1  1  0  0  0  0
 10  1  1  0  0  0  0
 12  2  1  0  0  0  0
 13  2  1  0  0  0  0
 16  4  1  0  0  0  0
 17  4  1  0  0  0  0
 20  6  1  0  0  0  0
 21  6  1  0  0  0  0
 24  8  1  0  0  0  0
M  END
