18
title
O 2.0282497 3.5605338 0.19037494
C 2.1609647 2.1503613 0.12286916
C 0.75792605 1.5586876 0.08202944
C 0.7667956 0.03917838 0.009606126
O -0.5723334 -0.41469812 -0.025596948
C -0.6912404 -1.8097885 -0.09277574
C -2.168891 -2.1606617 -0.12469303
O -2.58562 -3.2864175 -0.18214226
H 2.9090743 3.945333 0.21615954
H 2.7233887 1.8446279 -0.7751094
H 2.7081861 1.7583947 0.9964259
H 0.20820661 1.8765692 0.9741332
H 0.22387715 1.960332 -0.78547454
H 1.3065164 -0.30660486 -0.88898754
H 1.2886109 -0.39112163 0.8818753
H -0.20953302 -2.226468 -0.99446756
H -0.22791128 -2.3101063 0.7753995
H -2.8367772 -1.2717001 -0.08902999
