19
title
O 1.9666977 3.6735282 0.0010065314
C 2.0509348 2.2570488 -0.0076241177
C 0.6308534 1.7065213 0.0029414229
C 0.59272945 0.17615923 -0.004849704
C -0.82919157 -0.3623127 0.006000893
O -0.7598642 -1.7908517 -0.0020823686
C -1.9356173 -2.4438355 0.005165484
N -1.9598125 -3.7063024 -0.0007890986
H 2.8602207 4.028647 -0.006710058
H 2.5833204 1.8929102 -0.9016104
H 2.6002934 1.8831296 0.8719502
H 0.116113655 2.0977008 0.88922155
H 0.099367134 2.1070867 -0.86914456
H 1.1060519 -0.21566692 -0.8909814
H 1.1230211 -0.22503582 0.86698014
H -1.3662261 -0.019206911 0.9014246
H -1.383262 -0.009983211 -0.875351
H -2.8100724 -1.7771012 0.01644773
H -2.9240122 -4.032725 0.0063440856
