22
title
C -1.040683 3.8321214 -1.654848
O -1.0065861 2.4270754 -1.6399673
C -0.33593193 1.9048351 -0.5135424
C -0.35497728 0.38466355 -0.5929867
C 0.35253432 -0.28035095 0.59190464
C 0.3344076 -1.8097491 0.5138931
C 1.0369921 -2.4733543 1.6904123
O 0.9580845 -3.879963 1.5127833
H -0.028381793 4.2677135 -1.677589
H -1.5756536 4.1388893 -2.5571613
H -1.5656556 4.2399673 -0.7755979
H 0.70437294 2.275562 -0.48106202
H -0.8243402 2.247837 0.41626075
H -1.3981985 0.050469603 -0.64448357
H 0.11734906 0.077989064 -1.5340014
H 1.3927188 0.071181975 0.64078903
H -0.12098363 0.04382011 1.529264
H -0.6998025 -2.173267 0.47674277
H 0.8155506 -2.145863 -0.41273627
H 2.085858 -2.1355581 1.7356911
H 0.55652624 -2.1631432 2.633393
H 1.4017124 -4.3019285 2.2540972
