title
 OpenBabel02282110003D

 20 19  0  0  0  0  0  0  0  0999 V2000
    1.4466    3.6183    0.7561 C   0  0  0  0  0  0  0  0  0  0  0  0
    1.5399    2.2199    0.8841 O   0  0  0  0  0  0  0  0  0  0  0  0
    0.4251    1.5446    0.3530 C   0  0  0  0  0  0  0  0  0  0  0  0
    0.6512    0.0545    0.5575 C   0  0  0  0  0  0  0  0  0  0  0  0
   -0.4648   -0.6277    0.0287 O   0  0  0  0  0  0  0  0  0  0  0  0
   -0.3837   -2.0370    0.1444 C   0  0  0  0  0  0  0  0  0  0  0  0
   -1.5796   -2.6063   -0.6021 C   0  0  0  0  0  0  0  0  0  0  0  0
   -1.5665   -2.2245   -1.9630 O   0  0  0  0  0  0  0  0  0  0  0  0
    1.3806    3.9284   -0.2988 H   0  0  0  0  0  0  0  0  0  0  0  0
    0.5681    4.0191    1.2861 H   0  0  0  0  0  0  0  0  0  0  0  0
    2.3503    4.0481    1.1948 H   0  0  0  0  0  0  0  0  0  0  0  0
   -0.5062    1.8518    0.8564 H   0  0  0  0  0  0  0  0  0  0  0  0
    0.3032    1.7581   -0.7220 H   0  0  0  0  0  0  0  0  0  0  0  0
    1.5801   -0.2543    0.0532 H   0  0  0  0  0  0  0  0  0  0  0  0
    0.7708   -0.1575    1.6314 H   0  0  0  0  0  0  0  0  0  0  0  0
    0.5517   -2.4019   -0.3089 H   0  0  0  0  0  0  0  0  0  0  0  0
   -0.3972   -2.3457    1.2025 H   0  0  0  0  0  0  0  0  0  0  0  0
   -1.5493   -3.7004   -0.5696 H   0  0  0  0  0  0  0  0  0  0  0  0
   -2.5040   -2.2785   -0.0998 H   0  0  0  0  0  0  0  0  0  0  0  0
   -1.4181   -1.2714   -1.9626 H   0  0  0  0  0  0  0  0  0  0  0  0
  1  2  1  0  0  0  0
  1 11  1  0  0  0  0
  1 10  1  0  0  0  0
  3  4  1  0  0  0  0
  3 12  1  0  0  0  0
  3  2  1  0  0  0  0
  4 15  1  0  0  0  0
  5  6  1  0  0  0  0
  5  4  1  0  0  0  0
  6 17  1  0  0  0  0
  7 18  1  0  0  0  0
  7 19  1  0  0  0  0
  7  6  1  0  0  0  0
  8 20  1  0  0  0  0
  8  7  1  0  0  0  0
  9  1  1  0  0  0  0
 13  3  1  0  0  0  0
 14  4  1  0  0  0  0
 16  6  1  0  0  0  0
M  END
