title
 OpenBabel02282110003D

 22 21  0  0  0  0  0  0  0  0999 V2000
   -1.2468    3.5148    1.9129 C   0  0  0  0  0  0  0  0  0  0  0  0
   -1.2230    1.9840    1.9162 C   0  0  0  0  0  0  0  0  0  0  0  0
   -0.5838    1.3954    0.6543 C   0  0  0  0  0  0  0  0  0  0  0  0
   -0.5628   -0.1266    0.6584 C   0  0  0  0  0  0  0  0  0  0  0  0
    0.0427   -0.5799   -0.5361 O   0  0  0  0  0  0  0  0  0  0  0  0
    0.1304   -1.9881   -0.6397 C   0  0  0  0  0  0  0  0  0  0  0  0
    0.9387   -2.2835   -1.8937 C   0  0  0  0  0  0  0  0  0  0  0  0
    2.2259   -1.7040   -1.8224 O   0  0  0  0  0  0  0  0  0  0  0  0
   -0.2334    3.9262    1.8503 H   0  0  0  0  0  0  0  0  0  0  0  0
   -1.8123    3.8995    1.0571 H   0  0  0  0  0  0  0  0  0  0  0  0
   -1.7105    3.9081    2.8228 H   0  0  0  0  0  0  0  0  0  0  0  0
   -0.6786    1.6286    2.8010 H   0  0  0  0  0  0  0  0  0  0  0  0
   -2.2479    1.6030    2.0178 H   0  0  0  0  0  0  0  0  0  0  0  0
   -1.1262    1.7362   -0.2362 H   0  0  0  0  0  0  0  0  0  0  0  0
    0.4460    1.7597    0.5502 H   0  0  0  0  0  0  0  0  0  0  0  0
   -0.0053   -0.5033    1.5332 H   0  0  0  0  0  0  0  0  0  0  0  0
   -1.5890   -0.5250    0.7364 H   0  0  0  0  0  0  0  0  0  0  0  0
    0.6415   -2.4046    0.2434 H   0  0  0  0  0  0  0  0  0  0  0  0
   -0.8721   -2.4435   -0.7024 H   0  0  0  0  0  0  0  0  0  0  0  0
    1.0718   -3.3648   -2.0040 H   0  0  0  0  0  0  0  0  0  0  0  0
    0.3811   -1.9199   -2.7720 H   0  0  0  0  0  0  0  0  0  0  0  0
    2.0814   -0.7916   -1.5443 H   0  0  0  0  0  0  0  0  0  0  0  0
  1  2  1  0  0  0  0
  1 11  1  0  0  0  0
  2 13  1  0  0  0  0
  2 12  1  0  0  0  0
  3  4  1  0  0  0  0
  3  2  1  0  0  0  0
  4 17  1  0  0  0  0
  4 16  1  0  0  0  0
  5  4  1  0  0  0  0
  6  5  1  0  0  0  0
  6 18  1  0  0  0  0
  7  8  1  0  0  0  0
  7  6  1  0  0  0  0
  8 22  1  0  0  0  0
  9  1  1  0  0  0  0
 10  1  1  0  0  0  0
 14  3  1  0  0  0  0
 15  3  1  0  0  0  0
 19  6  1  0  0  0  0
 20  7  1  0  0  0  0
 21  7  1  0  0  0  0
M  END
