22
title
C -1.2468224 3.5148385 1.9129066
C -1.2229775 1.9839982 1.9161807
C -0.5838306 1.3953834 0.65431654
C -0.5628206 -0.12664133 0.6584246
O 0.042652987 -0.5798901 -0.5360743
C 0.1304008 -1.9880772 -0.63972104
C 0.9386784 -2.2834573 -1.8937396
O 2.2259264 -1.7040434 -1.8223947
H -0.23340985 3.9262264 1.850302
H -1.8123094 3.8994832 1.0570875
H -1.710514 3.908077 2.8227987
H -0.6785561 1.6285585 2.8010252
H -2.247866 1.6030192 2.017756
H -1.1261808 1.736231 -0.23623192
H 0.44596818 1.7597283 0.55016613
H -0.0052807103 -0.5032988 1.5331599
H -1.5889614 -0.52497584 0.7364074
H 0.64149666 -2.4046378 0.24338996
H -0.87205625 -2.4434915 -0.7023951
H 1.0718135 -3.3647861 -2.0039825
H 0.38113156 -1.9199264 -2.7720213
H 2.0814357 -0.7916079 -1.5442513
