title
 OpenBabel02282110003D

 22 21  0  0  0  0  0  0  0  0999 V2000
    1.2473    4.0792   -0.7212 C   0  0  0  0  0  0  0  0  0  0  0  0
    1.3728    2.5572   -0.8224 C   0  0  0  0  0  0  0  0  0  0  0  0
    0.2341    1.8319   -0.1192 C   0  0  0  0  0  0  0  0  0  0  0  0
    0.4234    0.4397   -0.2584 O   0  0  0  0  0  0  0  0  0  0  0  0
   -0.5835   -0.3252    0.3611 C   0  0  0  0  0  0  0  0  0  0  0  0
   -0.2564   -1.7931    0.1339 C   0  0  0  0  0  0  0  0  0  0  0  0
   -1.2643   -2.5574    0.7541 O   0  0  0  0  0  0  0  0  0  0  0  0
   -1.0676   -3.9426    0.6102 C   0  0  0  0  0  0  0  0  0  0  0  0
    2.0758    4.5767   -1.2333 H   0  0  0  0  0  0  0  0  0  0  0  0
    0.3156    4.4347   -1.1752 H   0  0  0  0  0  0  0  0  0  0  0  0
    1.2546    4.4125    0.3225 H   0  0  0  0  0  0  0  0  0  0  0  0
    1.3875    2.2456   -1.8732 H   0  0  0  0  0  0  0  0  0  0  0  0
    2.3207    2.2236   -0.3847 H   0  0  0  0  0  0  0  0  0  0  0  0
    0.2046    2.1085    0.9495 H   0  0  0  0  0  0  0  0  0  0  0  0
   -0.7369    2.1305   -0.5523 H   0  0  0  0  0  0  0  0  0  0  0  0
   -0.6329   -0.1206    1.4430 H   0  0  0  0  0  0  0  0  0  0  0  0
   -1.5758   -0.0978   -0.0614 H   0  0  0  0  0  0  0  0  0  0  0  0
   -0.2076   -1.9996   -0.9478 H   0  0  0  0  0  0  0  0  0  0  0  0
    0.7355   -2.0222    0.5568 H   0  0  0  0  0  0  0  0  0  0  0  0
   -1.8934   -4.4459    1.1192 H   0  0  0  0  0  0  0  0  0  0  0  0
   -1.0637   -4.2476   -0.4485 H   0  0  0  0  0  0  0  0  0  0  0  0
   -0.1182   -4.2704    1.0630 H   0  0  0  0  0  0  0  0  0  0  0  0
  1 11  1  0  0  0  0
  2  1  1  0  0  0  0
  2 13  1  0  0  0  0
  2  3  1  0  0  0  0
  3 14  1  0  0  0  0
  4  3  1  0  0  0  0
  4  5  1  0  0  0  0
  5 16  1  0  0  0  0
  6  5  1  0  0  0  0
  6 19  1  0  0  0  0
  6  7  1  0  0  0  0
  8  7  1  0  0  0  0
  8 22  1  0  0  0  0
  8 20  1  0  0  0  0
  9  1  1  0  0  0  0
 10  1  1  0  0  0  0
 12  2  1  0  0  0  0
 15  3  1  0  0  0  0
 17  5  1  0  0  0  0
 18  6  1  0  0  0  0
 21  8  1  0  0  0  0
M  END
