24
title
C -1.1534985 3.7843685 -1.8428855
C -1.1292087 2.2534478 -1.8547411
C -0.4078152 1.6595327 -0.64081824
C -0.38345167 0.13731408 -0.6522435
O 0.29785904 -0.31693292 0.49678838
C 0.3754581 -1.7225177 0.58379304
C 1.1260985 -2.0978084 1.8541266
C 1.2585229 -3.6121793 2.0313482
H -0.13798715 4.19548 -1.8420098
H -1.6738815 4.182643 -2.7194707
H -1.6632422 4.1643815 -0.9506803
H -2.1582992 1.8718817 -1.8907709
H -0.6441705 1.9027562 -2.77543
H 0.6256535 2.0254462 -0.6012981
H -0.8913991 1.9945868 0.28513706
H -1.4129645 -0.26275396 -0.6709086
H 0.116658196 -0.23152995 -1.5655721
H -0.6375628 -2.1636086 0.5931798
H 0.8917841 -2.1346354 -0.3018943
H 2.1169832 -1.630265 1.8231665
H 0.60111916 -1.6589937 2.710427
H 0.27688906 -4.0956297 2.0886245
H 1.8023025 -4.066733 1.1957082
H 1.8007599 -3.8546395 2.9498317
