title
 OpenBabel02282110003D

 22 21  0  0  0  0  0  0  0  0999 V2000
   -1.0146    3.8016   -1.6116 C   0  0  0  0  0  0  0  0  0  0  0  0
   -0.9906    2.3960   -1.6117 O   0  0  0  0  0  0  0  0  0  0  0  0
   -0.3217    1.8577   -0.4919 C   0  0  0  0  0  0  0  0  0  0  0  0
   -0.3528    0.3386   -0.5890 C   0  0  0  0  0  0  0  0  0  0  0  0
    0.3528   -0.3386    0.5890 C   0  0  0  0  0  0  0  0  0  0  0  0
    0.3217   -1.8577    0.4919 C   0  0  0  0  0  0  0  0  0  0  0  0
    0.9906   -2.3960    1.6116 O   0  0  0  0  0  0  0  0  0  0  0  0
    1.0145   -3.8016    1.6116 C   0  0  0  0  0  0  0  0  0  0  0  0
    0.0007    4.2300   -1.6319 H   0  0  0  0  0  0  0  0  0  0  0  0
   -1.5492    4.1215   -2.5095 H   0  0  0  0  0  0  0  0  0  0  0  0
   -1.5349    4.2037   -0.7270 H   0  0  0  0  0  0  0  0  0  0  0  0
    0.7214    2.2191   -0.4573 H   0  0  0  0  0  0  0  0  0  0  0  0
   -0.8060    2.1928    0.4425 H   0  0  0  0  0  0  0  0  0  0  0  0
   -1.3996    0.0158   -0.6434 H   0  0  0  0  0  0  0  0  0  0  0  0
    0.1152    0.0419   -1.5356 H   0  0  0  0  0  0  0  0  0  0  0  0
    1.3996   -0.0158    0.6434 H   0  0  0  0  0  0  0  0  0  0  0  0
   -0.1151   -0.0419    1.5356 H   0  0  0  0  0  0  0  0  0  0  0  0
   -0.7214   -2.2191    0.4573 H   0  0  0  0  0  0  0  0  0  0  0  0
    0.8060   -2.1928   -0.4425 H   0  0  0  0  0  0  0  0  0  0  0  0
    1.5348   -4.2038    0.7271 H   0  0  0  0  0  0  0  0  0  0  0  0
    1.5491   -4.1215    2.5096 H   0  0  0  0  0  0  0  0  0  0  0  0
   -0.0008   -4.2299    1.6319 H   0  0  0  0  0  0  0  0  0  0  0  0
  1 11  1  0  0  0  0
  2  1  1  0  0  0  0
  2  3  1  0  0  0  0
  3 12  1  0  0  0  0
  3 13  1  0  0  0  0
  4  3  1  0  0  0  0
  4  5  1  0  0  0  0
  5 16  1  0  0  0  0
  5 17  1  0  0  0  0
  6  5  1  0  0  0  0
  6  7  1  0  0  0  0
  8  7  1  0  0  0  0
  8 22  1  0  0  0  0
  8 21  1  0  0  0  0
  9  1  1  0  0  0  0
 10  1  1  0  0  0  0
 14  4  1  0  0  0  0
 15  4  1  0  0  0  0
 18  6  1  0  0  0  0
 19  6  1  0  0  0  0
 20  8  1  0  0  0  0
M  END
