title
 OpenBabel02282110003D

 22 21  0  0  0  0  0  0  0  0999 V2000
   -1.0407    3.8321   -1.6548 C   0  0  0  0  0  0  0  0  0  0  0  0
   -1.0066    2.4271   -1.6400 O   0  0  0  0  0  0  0  0  0  0  0  0
   -0.3359    1.9048   -0.5135 C   0  0  0  0  0  0  0  0  0  0  0  0
   -0.3550    0.3847   -0.5930 C   0  0  0  0  0  0  0  0  0  0  0  0
    0.3525   -0.2804    0.5919 C   0  0  0  0  0  0  0  0  0  0  0  0
    0.3344   -1.8097    0.5139 C   0  0  0  0  0  0  0  0  0  0  0  0
    1.0370   -2.4734    1.6904 C   0  0  0  0  0  0  0  0  0  0  0  0
    0.9581   -3.8800    1.5128 O   0  0  0  0  0  0  0  0  0  0  0  0
   -0.0284    4.2677   -1.6776 H   0  0  0  0  0  0  0  0  0  0  0  0
   -1.5757    4.1389   -2.5572 H   0  0  0  0  0  0  0  0  0  0  0  0
   -1.5657    4.2400   -0.7756 H   0  0  0  0  0  0  0  0  0  0  0  0
    0.7044    2.2756   -0.4811 H   0  0  0  0  0  0  0  0  0  0  0  0
   -0.8243    2.2478    0.4163 H   0  0  0  0  0  0  0  0  0  0  0  0
   -1.3982    0.0505   -0.6445 H   0  0  0  0  0  0  0  0  0  0  0  0
    0.1173    0.0780   -1.5340 H   0  0  0  0  0  0  0  0  0  0  0  0
    1.3927    0.0712    0.6408 H   0  0  0  0  0  0  0  0  0  0  0  0
   -0.1210    0.0438    1.5293 H   0  0  0  0  0  0  0  0  0  0  0  0
   -0.6998   -2.1733    0.4767 H   0  0  0  0  0  0  0  0  0  0  0  0
    0.8156   -2.1459   -0.4127 H   0  0  0  0  0  0  0  0  0  0  0  0
    2.0859   -2.1356    1.7357 H   0  0  0  0  0  0  0  0  0  0  0  0
    0.5565   -2.1631    2.6334 H   0  0  0  0  0  0  0  0  0  0  0  0
    1.4017   -4.3019    2.2541 H   0  0  0  0  0  0  0  0  0  0  0  0
  1  2  1  0  0  0  0
  1 11  1  0  0  0  0
  2  3  1  0  0  0  0
  3 12  1  0  0  0  0
  3 13  1  0  0  0  0
  4  3  1  0  0  0  0
  4  5  1  0  0  0  0
  5 16  1  0  0  0  0
  5 17  1  0  0  0  0
  6  5  1  0  0  0  0
  6  7  1  0  0  0  0
  7 20  1  0  0  0  0
  7 21  1  0  0  0  0
  8  7  1  0  0  0  0
  8 22  1  0  0  0  0
  9  1  1  0  0  0  0
 10  1  1  0  0  0  0
 14  4  1  0  0  0  0
 15  4  1  0  0  0  0
 18  6  1  0  0  0  0
 19  6  1  0  0  0  0
M  END
