title
 OpenBabel02282110003D

 15 15  0  0  1  0  0  0  0  0999 V2000
   -1.4828   -2.1596   -0.8432 C   0  0  0  0  0  0  0  0  0  0  0  0
   -1.2765   -1.0206   -0.5195 C   0  0  0  0  0  0  0  0  0  0  0  0
   -1.0134    0.3405   -0.1138 C   0  0  1  0  0  0  0  0  0  0  0  0
   -0.8606    0.6775    1.4030 C   0  0  0  0  0  0  0  0  0  0  0  0
    0.2746    1.6676    1.0447 C   0  0  0  0  0  0  0  0  0  0  0  0
    0.4202    0.9703   -0.3495 C   0  0  1  0  0  0  0  0  0  0  0  0
    1.5048    0.0039   -0.4063 C   0  0  0  0  0  0  0  0  0  0  0  0
    2.3793   -0.7516   -0.4399 N   0  0  0  0  0  0  0  0  0  0  0  0
   -1.6574   -3.1669   -1.1311 H   0  0  0  0  0  0  0  0  0  0  0  0
   -1.7424    1.0177   -0.5707 H   0  0  0  0  0  0  0  0  0  0  0  0
   -1.7441    1.0714    1.9072 H   0  0  0  0  0  0  0  0  0  0  0  0
   -0.4871   -0.1871    1.9553 H   0  0  0  0  0  0  0  0  0  0  0  0
   -0.0835    2.6923    0.9229 H   0  0  0  0  0  0  0  0  0  0  0  0
    1.1609    1.6713    1.6786 H   0  0  0  0  0  0  0  0  0  0  0  0
    0.4918    1.6309   -1.2163 H   0  0  0  0  0  0  0  0  0  0  0  0
  1  2  3  0  0  0  0
  2  3  1  0  0  0  0
  3  6  1  6  0  0  0
  3  4  1  0  0  0  0
  4 11  1  0  0  0  0
  4 12  1  0  0  0  0
  5  4  1  0  0  0  0
  5 14  1  0  0  0  0
  6 15  1  6  0  0  0
  6  5  1  0  0  0  0
  7  6  1  0  0  0  0
  8  7  3  0  0  0  0
  9  1  1  0  0  0  0
 10  3  1  0  0  0  0
 13  5  1  0  0  0  0
M  END
