14
title
C -1.2898791 -2.3761146 -0.44411266
C -1.1831104 -1.1879784 -0.29781163
C -1.0662601 0.23807366 -0.1069959
C -0.8781375 0.7864483 1.3321571
O 0.27109635 1.5598549 0.93955785
C 0.30940902 0.9588049 -0.3768169
C 1.4736452 0.1217236 -0.6003309
C 2.442062 -0.5621678 -0.79564583
H -1.3771539 -3.4261234 -0.5765408
H -1.867665 0.7604943 -0.63580483
H -1.6873076 1.4156665 1.7161152
H -0.62508506 0.015962074 2.0688796
H 0.24790323 1.7287642 -1.1548549
H 3.2974956 -1.1687288 -0.9645403
