title
 OpenBabel02282110003D

 16 16  0  0  1  0  0  0  0  0999 V2000
   -1.5258   -2.1515   -0.8177 C   0  0  0  0  0  0  0  0  0  0  0  0
   -1.2919   -1.0258   -0.4657 C   0  0  0  0  0  0  0  0  0  0  0  0
   -1.0097    0.3220   -0.0287 C   0  0  1  0  0  0  0  0  0  0  0  0
   -0.7458    0.6030    1.4828 C   0  0  0  0  0  0  0  0  0  0  0  0
    0.3260    1.6422    1.0744 C   0  0  0  0  0  0  0  0  0  0  0  0
    0.3949    0.9885   -0.3479 C   0  0  1  0  0  0  0  0  0  0  0  0
    1.4933    0.0602   -0.5187 C   0  0  0  0  0  0  0  0  0  0  0  0
    2.4131   -0.7033   -0.6482 C   0  0  0  0  0  0  0  0  0  0  0  0
   -1.7274   -3.1455   -1.1315 H   0  0  0  0  0  0  0  0  0  0  0  0
   -1.7858    1.0019   -0.3964 H   0  0  0  0  0  0  0  0  0  0  0  0
   -1.5969    0.9445    2.0747 H   0  0  0  0  0  0  0  0  0  0  0  0
   -0.3008   -0.2699    1.9644 H   0  0  0  0  0  0  0  0  0  0  0  0
   -0.0777    2.6564    1.0178 H   0  0  0  0  0  0  0  0  0  0  0  0
    1.2564    1.6579    1.6420 H   0  0  0  0  0  0  0  0  0  0  0  0
    0.3670    1.6886   -1.1876 H   0  0  0  0  0  0  0  0  0  0  0  0
    3.2205   -1.3818   -0.7704 H   0  0  0  0  0  0  0  0  0  0  0  0
  1  2  3  0  0  0  0
  2  3  1  0  0  0  0
  3  6  1  6  0  0  0
  3  4  1  0  0  0  0
  4 12  1  0  0  0  0
  4 11  1  0  0  0  0
  5  4  1  0  0  0  0
  5 14  1  0  0  0  0
  6 15  1  6  0  0  0
  6  5  1  0  0  0  0
  7  6  1  0  0  0  0
  8  7  3  0  0  0  0
  9  1  1  0  0  0  0
 10  3  1  0  0  0  0
 13  5  1  0  0  0  0
 16  8  1  0  0  0  0
M  END
