15
title
C -1.4828438 -2.1596074 -0.84324324
C -1.2765261 -1.0206093 -0.51953644
C -1.0133975 0.34046564 -0.11378624
C -0.86061674 0.6774671 1.4030071
C 0.27461955 1.6676406 1.0446682
C 0.42016575 0.9702996 -0.3494782
C 1.5047673 0.003920057 -0.4062523
N 2.379314 -0.75159854 -0.43986136
H -1.6574179 -3.166871 -1.1310934
H -1.7423698 1.0176774 -0.5706678
H -1.7440856 1.0714217 1.9072257
H -0.48710546 -0.18706234 1.9552714
H -0.08354417 2.692268 0.922872
H 1.1609122 1.6712753 1.6785905
H 0.49180302 1.6309034 -1.2163408
