14
title
N -1.594159 -1.9666356 -0.961036
C -1.3157295 -0.912221 -0.5783747
C -0.9772495 0.40875193 -0.081895076
C -0.8081731 0.6228959 1.4534125
C 0.37569913 1.5773495 1.1570309
C 0.4832947 0.97177345 -0.28387988
C 1.5173982 -0.042803317 -0.40942553
N 2.3537264 -0.83632284 -0.49247423
H -1.6832694 1.1341332 -0.4952123
H -1.6720165 1.0244511 1.9834689
H -0.47953886 -0.29548058 1.9431864
H 0.069928385 2.6245754 1.1100852
H 1.2620252 1.4889764 1.7839625
H 0.5840548 1.6852466 -1.1041899
