title
 OpenBabel02282110003D

 13 13  0  0  1  0  0  0  0  0999 V2000
   -1.2439   -2.3888   -0.4729 C   0  0  0  0  0  0  0  0  0  0  0  0
   -1.1721   -1.1985   -0.3274 C   0  0  0  0  0  0  0  0  0  0  0  0
   -1.0774    0.2292   -0.1394 C   0  0  1  0  0  0  0  0  0  0  0  0
   -0.9225    0.7929    1.2999 C   0  0  0  0  0  0  0  0  0  0  0  0
    0.2168    1.5910    0.9058 O   0  0  0  0  0  0  0  0  0  0  0  0
    0.2916    0.9613   -0.3813 C   0  0  1  0  0  0  0  0  0  0  0  0
    1.4714    0.1032   -0.5278 C   0  0  0  0  0  0  0  0  0  0  0  0
    2.4072   -0.5626   -0.6521 N   0  0  0  0  0  0  0  0  0  0  0  0
   -1.2976   -3.4416   -0.6042 H   0  0  0  0  0  0  0  0  0  0  0  0
   -1.8676    0.7467   -0.6891 H   0  0  0  0  0  0  0  0  0  0  0  0
   -1.7450    1.4110    1.6697 H   0  0  0  0  0  0  0  0  0  0  0  0
   -0.6538    0.0364    2.0442 H   0  0  0  0  0  0  0  0  0  0  0  0
    0.2844    1.6941   -1.1952 H   0  0  0  0  0  0  0  0  0  0  0  0
  1  2  3  0  0  0  0
  2  3  1  0  0  0  0
  3  6  1  6  0  0  0
  3  4  1  0  0  0  0
  4 11  1  0  0  0  0
  4 12  1  0  0  0  0
  5  4  1  0  0  0  0
  6 13  1  6  0  0  0
  6  5  1  0  0  0  0
  7  6  1  0  0  0  0
  8  7  3  0  0  0  0
  9  1  1  0  0  0  0
 10  3  1  0  0  0  0
M  END
