13
title
C -1.2438674 -2.3888001 -0.4729359
C -1.1721237 -1.1984502 -0.32735163
C -1.0773996 0.22922677 -0.13942002
C -0.92250335 0.79285735 1.2998961
O 0.21675262 1.5910122 0.90578634
C 0.291604 0.96126 -0.3813176
C 1.4713923 0.103228755 -0.5277695
N 2.4072247 -0.56258005 -0.65211153
H -1.2976295 -3.4416327 -0.6042489
H -1.8675919 0.746666 -0.68906164
H -1.7450038 1.4109528 1.669691
H -0.6537901 0.036442343 2.0442462
H 0.284386 1.6940899 -1.1951597
