title
 OpenBabel02282110003D

 14 14  0  0  1  0  0  0  0  0999 V2000
   -1.1325   -2.3560   -0.2689 C   0  0  0  0  0  0  0  0  0  0  0  0
   -1.1091   -1.1569   -0.1990 C   0  0  0  0  0  0  0  0  0  0  0  0
   -1.0883    0.2859   -0.1155 C   0  0  1  0  0  0  0  0  0  0  0  0
   -1.1205    0.8847    1.3282 C   0  0  0  0  0  0  0  0  0  0  0  0
    0.3383    1.1094    1.2510 N   0  0  0  0  0  0  0  0  0  0  0  0
    0.3298    0.9729   -0.2163 C   0  0  1  0  0  0  0  0  0  0  0  0
    1.4449    0.2195   -0.7876 C   0  0  0  0  0  0  0  0  0  0  0  0
    2.3292   -0.3552   -1.2591 N   0  0  0  0  0  0  0  0  0  0  0  0
   -1.1399   -3.4161   -0.3335 H   0  0  0  0  0  0  0  0  0  0  0  0
   -1.8163    0.7202   -0.8035 H   0  0  0  0  0  0  0  0  0  0  0  0
   -1.7289    1.7976    1.3738 H   0  0  0  0  0  0  0  0  0  0  0  0
   -1.4268    0.2033    2.1250 H   0  0  0  0  0  0  0  0  0  0  0  0
    0.6832    1.9950    1.6028 H   0  0  0  0  0  0  0  0  0  0  0  0
    0.2438    1.9209   -0.7663 H   0  0  0  0  0  0  0  0  0  0  0  0
  1  2  3  0  0  0  0
  2  3  1  0  0  0  0
  3  6  1  6  0  0  0
  3  4  1  0  0  0  0
  4 11  1  0  0  0  0
  4 12  1  0  0  0  0
  5  4  1  0  0  0  0
  5 13  1  0  0  0  0
  6 14  1  6  0  0  0
  6  5  1  0  0  0  0
  7  6  1  0  0  0  0
  8  7  3  0  0  0  0
  9  1  1  0  0  0  0
 10  3  1  0  0  0  0
M  END
