22
title
O 2.0815487 3.790826 0.00029930513
C 2.1678562 2.3730707 -0.008076846
C 0.75185144 1.813607 0.0024612998
C 0.71221673 0.28291595 -0.005264174
C -0.7122165 -0.28291595 0.0052631167
C -0.7518517 -1.8136071 -0.0024716952
C -2.1678565 -2.3730705 0.008072114
O -2.081549 -3.7908256 -0.00028196216
H 2.9749422 4.1461606 -0.0065897815
H 2.703508 2.0120451 -0.901852
H 2.720422 2.0026047 0.8714271
H 0.23292577 2.2006574 0.88823766
H 0.21615922 2.2099652 -0.8691024
H 1.2438372 -0.094822526 -0.88967645
H 1.2604878 -0.1041106 0.8648503
H -1.2438334 0.09481561 0.88968045
H -1.2604913 0.10411751 -0.8648461
H -0.23292887 -2.2006514 -0.88825214
H -0.21615636 -2.2099707 0.8690877
H -2.703509 -2.0120313 0.9018415
H -2.7204216 -2.002618 -0.8714378
H -2.974943 -4.14616 0.0065496773
