title
 OpenBabel02282110003D

 20 19  0  0  0  0  0  0  0  0999 V2000
    2.0429    3.4023    0.0914 O   0  0  0  0  0  0  0  0  0  0  0  0
    2.1957    1.9919    0.0844 C   0  0  0  0  0  0  0  0  0  0  0  0
    0.8043    1.3773    0.1630 C   0  0  0  0  0  0  0  0  0  0  0  0
    0.8342   -0.1442    0.1595 C   0  0  0  0  0  0  0  0  0  0  0  0
   -0.4943   -0.6196    0.2355 O   0  0  0  0  0  0  0  0  0  0  0  0
   -0.6012   -2.0308    0.2228 C   0  0  0  0  0  0  0  0  0  0  0  0
   -2.0854   -2.3551    0.1539 C   0  0  0  0  0  0  0  0  0  0  0  0
   -2.6785   -1.8036   -1.0044 O   0  0  0  0  0  0  0  0  0  0  0  0
    2.9169    3.8000    0.0420 H   0  0  0  0  0  0  0  0  0  0  0  0
    2.7054    1.6506   -0.8319 H   0  0  0  0  0  0  0  0  0  0  0  0
    2.8044    1.6527    0.9390 H   0  0  0  0  0  0  0  0  0  0  0  0
    0.3075    1.7291    1.0733 H   0  0  0  0  0  0  0  0  0  0  0  0
    0.2088    1.7310   -0.6855 H   0  0  0  0  0  0  0  0  0  0  0  0
    1.3205   -0.5232   -0.7557 H   0  0  0  0  0  0  0  0  0  0  0  0
    1.4199   -0.5233    1.0146 H   0  0  0  0  0  0  0  0  0  0  0  0
   -0.0852   -2.4445   -0.6587 H   0  0  0  0  0  0  0  0  0  0  0  0
   -0.1447   -2.4695    1.1257 H   0  0  0  0  0  0  0  0  0  0  0  0
   -2.2260   -3.4401    0.1077 H   0  0  0  0  0  0  0  0  0  0  0  0
   -2.5744   -1.9892    1.0710 H   0  0  0  0  0  0  0  0  0  0  0  0
   -2.3946   -0.8819   -1.0255 H   0  0  0  0  0  0  0  0  0  0  0  0
  2  1  1  0  0  0  0
  2  3  1  0  0  0  0
  2 11  1  0  0  0  0
  3 12  1  0  0  0  0
  4  3  1  0  0  0  0
  4  5  1  0  0  0  0
  4 15  1  0  0  0  0
  6  5  1  0  0  0  0
  6 17  1  0  0  0  0
  7  6  1  0  0  0  0
  7 19  1  0  0  0  0
  8  7  1  0  0  0  0
  9  1  1  0  0  0  0
 10  2  1  0  0  0  0
 13  3  1  0  0  0  0
 14  4  1  0  0  0  0
 16  6  1  0  0  0  0
 18  7  1  0  0  0  0
 20  8  1  0  0  0  0
M  END
