title
 OpenBabel02282110003D

 14 14  0  0  1  0  0  0  0  0999 V2000
   -1.5942   -1.9666   -0.9610 N   0  0  0  0  0  0  0  0  0  0  0  0
   -1.3157   -0.9122   -0.5784 C   0  0  0  0  0  0  0  0  0  0  0  0
   -0.9772    0.4088   -0.0819 C   0  0  1  0  0  0  0  0  0  0  0  0
   -0.8082    0.6229    1.4534 C   0  0  0  0  0  0  0  0  0  0  0  0
    0.3757    1.5773    1.1570 C   0  0  0  0  0  0  0  0  0  0  0  0
    0.4833    0.9718   -0.2839 C   0  0  1  0  0  0  0  0  0  0  0  0
    1.5174   -0.0428   -0.4094 C   0  0  0  0  0  0  0  0  0  0  0  0
    2.3537   -0.8363   -0.4925 N   0  0  0  0  0  0  0  0  0  0  0  0
   -1.6833    1.1341   -0.4952 H   0  0  0  0  0  0  0  0  0  0  0  0
   -1.6720    1.0245    1.9835 H   0  0  0  0  0  0  0  0  0  0  0  0
   -0.4795   -0.2955    1.9432 H   0  0  0  0  0  0  0  0  0  0  0  0
    0.0699    2.6246    1.1101 H   0  0  0  0  0  0  0  0  0  0  0  0
    1.2620    1.4890    1.7840 H   0  0  0  0  0  0  0  0  0  0  0  0
    0.5841    1.6852   -1.1042 H   0  0  0  0  0  0  0  0  0  0  0  0
  1  2  3  0  0  0  0
  2  3  1  0  0  0  0
  3  6  1  6  0  0  0
  3  4  1  0  0  0  0
  4 11  1  0  0  0  0
  4 10  1  0  0  0  0
  5  4  1  0  0  0  0
  5 13  1  0  0  0  0
  6 14  1  6  0  0  0
  6  5  1  0  0  0  0
  7  6  1  0  0  0  0
  8  7  3  0  0  0  0
  9  3  1  0  0  0  0
 12  5  1  0  0  0  0
M  END
