title
 OpenBabel02282110003D

 14 14  0  0  1  0  0  0  0  0999 V2000
   -1.4549   -2.2039   -0.7411 C   0  0  0  0  0  0  0  0  0  0  0  0
   -1.2523   -1.0658   -0.4144 C   0  0  0  0  0  0  0  0  0  0  0  0
   -1.0141    0.3149   -0.0430 C   0  0  1  0  0  0  0  0  0  0  0  0
   -0.7745    0.5881    1.3949 N   0  0  0  0  0  0  0  0  0  0  0  0
    0.2589    1.5936    1.0786 C   0  0  0  0  0  0  0  0  0  0  0  0
    0.3822    0.9827   -0.3509 C   0  0  1  0  0  0  0  0  0  0  0  0
    1.4929    0.0647   -0.5288 C   0  0  0  0  0  0  0  0  0  0  0  0
    2.3929   -0.6446   -0.6796 N   0  0  0  0  0  0  0  0  0  0  0  0
   -1.6178   -3.2157   -1.0208 H   0  0  0  0  0  0  0  0  0  0  0  0
   -1.7961    0.9513   -0.4848 H   0  0  0  0  0  0  0  0  0  0  0  0
   -1.5815    0.9177    1.9128 H   0  0  0  0  0  0  0  0  0  0  0  0
   -0.0954    2.6322    1.0296 H   0  0  0  0  0  0  0  0  0  0  0  0
    1.1480    1.5438    1.7113 H   0  0  0  0  0  0  0  0  0  0  0  0
    0.3675    1.6958   -1.1761 H   0  0  0  0  0  0  0  0  0  0  0  0
  1  2  3  0  0  0  0
  2  3  1  0  0  0  0
  3  6  1  6  0  0  0
  3  4  1  0  0  0  0
  4 11  1  0  0  0  0
  5  4  1  0  0  0  0
  5 13  1  0  0  0  0
  6 14  1  6  0  0  0
  6  5  1  0  0  0  0
  7  6  1  0  0  0  0
  8  7  3  0  0  0  0
  9  1  1  0  0  0  0
 10  3  1  0  0  0  0
 12  5  1  0  0  0  0
M  END
