14
title
C -1.132476 -2.3559768 -0.26887
C -1.1091049 -1.1568587 -0.1989875
C -1.0882578 0.28592816 -0.11551862
C -1.1205218 0.88470113 1.328202
N 0.3382805 1.109417 1.2510362
C 0.32982582 0.9728935 -0.21631102
C 1.4448783 0.21949294 -0.7875649
N 2.3292255 -0.35523936 -1.2590662
H -1.1399124 -3.4160562 -0.3334724
H -1.8163265 0.7201556 -0.80353403
H -1.7288971 1.7976377 1.3738118
H -1.4268346 0.20325926 2.125018
H 0.68319815 1.9950137 1.6028042
H 0.24380358 1.920944 -0.7662885
