14
title
O -0.596587 -2.391667 -1.0241328
C -0.6327289 -1.226125 -0.72762
C 0.5644084 -0.3090664 -0.7583009
C 0.31796107 1.0353647 -1.4872597
O 0.40197346 1.7871739 -0.26217392
C 0.7625892 0.607895 0.49619678
C -0.07132026 0.38255918 1.6646371
C -0.7469041 0.18691002 2.63915
H -1.5823859 -0.73297477 -0.4243533
H 1.4472287 -0.8715042 -1.0598887
H 1.102674 1.3113486 -2.20068
H -0.6614055 1.1470066 -1.9680849
H 1.8164055 0.65115035 0.8013363
H -1.3453114 0.016181579 3.500369
