16
title
O -0.7468295 -2.2653232 -0.9977935
C -0.6924426 -1.0883605 -0.7498311
C 0.5755379 -0.27473223 -0.7621992
C 0.4404304 1.0190159 -1.6322806
C 0.18250811 1.849502 -0.35080022
C 0.7445537 0.66402066 0.49659142
C 0.08958697 0.31051552 1.7395905
C -0.4721295 0.016837241 2.76174
H -1.6151612 -0.5110978 -0.5114729
H 1.413238 -0.9389286 -0.97840244
H 1.3882732 1.2667943 -2.1149473
H -0.3442424 1.0177509 -2.3923728
H 0.6967679 2.8069458 -0.25039318
H -0.8820797 2.0017152 -0.16072227
H 1.815548 0.80707824 0.6717422
H -0.9619901 -0.246032 3.6665654
