13
title
N -1.1238216 -2.3170416 -0.19810875
C -1.0860677 -1.162649 -0.16670386
C -1.076307 0.28871927 -0.12308699
C -1.1176537 0.90145266 1.312885
N 0.34321597 1.1085292 1.2399324
C 0.3367807 0.9741496 -0.22717799
C 1.4559823 0.23290345 -0.8052404
N 2.346085 -0.3280693 -1.2817631
H -1.8119152 0.6787945 -0.82708395
H -1.7195139 1.8191415 1.3324858
H -1.4391336 0.23660538 2.117124
H 0.70269805 1.9853886 1.5989783
H 0.23599342 1.9213527 -0.77624094
