title
 OpenBabel02282110003D

 13 13  0  0  1  0  0  0  0  0999 V2000
   -1.2204   -1.6260   -1.2999 O   0  0  0  0  0  0  0  0  0  0  0  0
   -0.3100   -1.5304   -0.5204 C   0  0  0  0  0  0  0  0  0  0  0  0
    0.7648   -0.4674   -0.6156 C   0  0  1  0  0  0  0  0  0  0  0  0
    0.4526    0.7503   -1.4998 C   0  0  0  0  0  0  0  0  0  0  0  0
    0.4774    1.6402   -0.3514 O   0  0  0  0  0  0  0  0  0  0  0  0
    0.8358    0.5802    0.5433 C   0  0  1  0  0  0  0  0  0  0  0  0
   -0.1098    0.4122    1.6524 C   0  0  0  0  0  0  0  0  0  0  0  0
   -0.8445    0.2560    2.5306 N   0  0  0  0  0  0  0  0  0  0  0  0
   -0.1920   -2.2386    0.3274 H   0  0  0  0  0  0  0  0  0  0  0  0
    1.7249   -0.9609   -0.7921 H   0  0  0  0  0  0  0  0  0  0  0  0
    1.2206    1.0184   -2.2312 H   0  0  0  0  0  0  0  0  0  0  0  0
   -0.5305    0.7185   -1.9763 H   0  0  0  0  0  0  0  0  0  0  0  0
    1.8403    0.7193    0.9610 H   0  0  0  0  0  0  0  0  0  0  0  0
  1  2  2  0  0  0  0
  2  9  1  0  0  0  0
  3  2  1  0  0  0  0
  3  6  1  1  0  0  0
  4  3  1  0  0  0  0
  4  5  1  0  0  0  0
  5  6  1  0  0  0  0
  6 13  1  1  0  0  0
  6  7  1  0  0  0  0
  7  8  3  0  0  0  0
 10  3  1  0  0  0  0
 11  4  1  0  0  0  0
 12  4  1  0  0  0  0
M  END
