12
title
N -1.2960739 -2.2979274 -0.5140123
C -1.1815197 -1.1595548 -0.35348907
C -1.0577264 0.26823708 -0.13641873
C -0.8998978 0.7843569 1.3196136
O 0.26142034 1.5604957 0.9520477
C 0.32729277 0.96969324 -0.3536327
C 1.4883628 0.092377864 -0.5258177
N 2.4117856 -0.58659106 -0.66841483
H -1.8436171 0.79241186 -0.68302125
H -1.7118815 1.4123536 1.6938285
H -0.65887153 0.0027526214 2.0467541
H 0.33161446 1.7262601 -1.1449361
