title
 OpenBabel02282110003D

 13 13  0  0  1  0  0  0  0  0999 V2000
   -1.3819   -1.0644    1.8081 O   0  0  0  0  0  0  0  0  0  0  0  0
   -0.6730   -1.1447    0.8422 C   0  0  0  0  0  0  0  0  0  0  0  0
    0.6228   -0.3588    0.6994 C   0  0  1  0  0  0  0  0  0  0  0  0
    1.5466   -0.9777   -0.2067 O   0  0  0  0  0  0  0  0  0  0  0  0
    1.5717    0.1632   -1.0835 C   0  0  0  0  0  0  0  0  0  0  0  0
    0.5622    0.9346   -0.1870 C   0  0  1  0  0  0  0  0  0  0  0  0
   -0.7110    1.2838   -0.7926 C   0  0  0  0  0  0  0  0  0  0  0  0
   -1.7182    1.5530   -1.2917 N   0  0  0  0  0  0  0  0  0  0  0  0
   -0.9024   -1.7977   -0.0274 H   0  0  0  0  0  0  0  0  0  0  0  0
    1.0485   -0.1847    1.6934 H   0  0  0  0  0  0  0  0  0  0  0  0
    2.5653    0.6187   -1.1435 H   0  0  0  0  0  0  0  0  0  0  0  0
    1.2117   -0.0764   -2.0885 H   0  0  0  0  0  0  0  0  0  0  0  0
    0.9814    1.8097    0.3114 H   0  0  0  0  0  0  0  0  0  0  0  0
  2  1  2  0  0  0  0
  3  6  1  6  0  0  0
  3  2  1  0  0  0  0
  3 10  1  0  0  0  0
  4  3  1  0  0  0  0
  5  4  1  0  0  0  0
  5  6  1  0  0  0  0
  6 13  1  1  0  0  0
  7  6  1  0  0  0  0
  8  7  3  0  0  0  0
  9  2  1  0  0  0  0
 11  5  1  0  0  0  0
 12  5  1  0  0  0  0
M  END
