14
title
C -1.0088149 2.5748146 0.73557585
N -1.0724976 1.1224263 0.64378846
C -0.3296853 0.51691216 -0.14752057
O 0.6273314 0.96024996 -1.0471561
C 0.9708842 -0.396694 -1.4395535
C -0.13332608 -0.959282 -0.5022633
C 0.28195682 -1.8541247 0.5632142
N 0.6323385 -2.570087 1.3994821
H -0.25212696 3.0312302 0.087769955
H -1.9901062 2.988416 0.48098412
H -0.8026335 2.8519561 1.7742282
H 0.80995953 -0.55739194 -2.5070925
H 1.994242 -0.6478031 -1.1554749
H -0.9906185 -1.3805598 -1.0329692
