title
 OpenBabel02282110003D

 14 14  0  0  1  0  0  0  0  0999 V2000
   -1.0473   -2.4403    0.7864 O   0  0  0  0  0  0  0  0  0  0  0  0
   -1.0433   -1.2328    0.6986 C   0  0  0  0  0  0  0  0  0  0  0  0
    0.0141   -0.5137    0.2397 N   0  0  0  0  0  0  0  0  0  0  0  0
    1.3825   -0.9443   -0.0574 C   0  0  0  0  0  0  0  0  0  0  0  0
    1.7931    0.5548   -0.1208 C   0  0  0  0  0  0  0  0  0  0  0  0
    0.3231    0.9184    0.2890 C   0  0  1  0  0  0  0  0  0  0  0  0
   -0.4256    1.7593   -0.6477 C   0  0  0  0  0  0  0  0  0  0  0  0
   -1.0087    2.4306   -1.3856 N   0  0  0  0  0  0  0  0  0  0  0  0
   -1.9022   -0.5865    0.9695 H   0  0  0  0  0  0  0  0  0  0  0  0
    1.8353   -1.5236    0.7527 H   0  0  0  0  0  0  0  0  0  0  0  0
    1.4754   -1.5052   -0.9909 H   0  0  0  0  0  0  0  0  0  0  0  0
    2.5423    0.8715    0.6032 H   0  0  0  0  0  0  0  0  0  0  0  0
    2.0665    0.9101   -1.1129 H   0  0  0  0  0  0  0  0  0  0  0  0
    0.2397    1.3542    1.2917 H   0  0  0  0  0  0  0  0  0  0  0  0
  2  1  2  0  0  0  0
  2  9  1  0  0  0  0
  3  6  1  0  0  0  0
  3  2  1  0  0  0  0
  4  3  1  0  0  0  0
  4 10  1  0  0  0  0
  5  4  1  0  0  0  0
  5  6  1  0  0  0  0
  5 12  1  0  0  0  0
  6 14  1  1  0  0  0
  7  6  1  0  0  0  0
  8  7  3  0  0  0  0
 11  4  1  0  0  0  0
 13  5  1  0  0  0  0
M  END
