title
 OpenBabel02282110003D

 15 15  0  0  1  0  0  0  0  0999 V2000
   -1.0462   -2.4350    0.7028 O   0  0  0  0  0  0  0  0  0  0  0  0
   -1.0230   -1.2221    0.6651 C   0  0  0  0  0  0  0  0  0  0  0  0
    0.0585   -0.4939    0.3073 N   0  0  0  0  0  0  0  0  0  0  0  0
    1.4150   -0.9116   -0.0406 C   0  0  0  0  0  0  0  0  0  0  0  0
    1.7968    0.5901   -0.1712 C   0  0  0  0  0  0  0  0  0  0  0  0
    0.3392    0.9527    0.2894 C   0  0  1  0  0  0  0  0  0  0  0  0
   -0.4684    1.7546   -0.6161 C   0  0  0  0  0  0  0  0  0  0  0  0
   -1.1279    2.4271   -1.3626 C   0  0  0  0  0  0  0  0  0  0  0  0
   -1.8916   -0.5792    0.9137 H   0  0  0  0  0  0  0  0  0  0  0  0
    1.9197   -1.4583    0.7623 H   0  0  0  0  0  0  0  0  0  0  0  0
    1.4719   -1.5035   -0.9587 H   0  0  0  0  0  0  0  0  0  0  0  0
    2.5783    0.9394    0.5028 H   0  0  0  0  0  0  0  0  0  0  0  0
    2.0154    0.9138   -1.1876 H   0  0  0  0  0  0  0  0  0  0  0  0
    0.3120    1.3954    1.2934 H   0  0  0  0  0  0  0  0  0  0  0  0
   -1.7152    3.0164   -2.0230 H   0  0  0  0  0  0  0  0  0  0  0  0
  2  1  2  0  0  0  0
  2  9  1  0  0  0  0
  3  2  1  0  0  0  0
  4  3  1  0  0  0  0
  4 10  1  0  0  0  0
  5  4  1  0  0  0  0
  5  6  1  0  0  0  0
  5 12  1  0  0  0  0
  6  3  1  0  0  0  0
  6 14  1  1  0  0  0
  7  6  1  0  0  0  0
  8  7  3  0  0  0  0
 11  4  1  0  0  0  0
 13  5  1  0  0  0  0
 15  8  1  0  0  0  0
M  END
