19
title
C 1.5259383 2.0754333 -0.9752362
C 1.5636904 0.55350035 -1.1451381
C 0.17237897 -0.07684093 -1.0829256
C 0.06214268 -1.6182543 -1.0394335
O -0.5908981 -1.5518314 0.26365775
C -0.48720294 -0.16710751 0.28167206
N -0.81974703 0.65952605 1.1595519
C -1.423639 0.18162866 2.3962355
H 2.535996 2.4957948 -0.98647785
H 0.9582479 2.546916 -1.7851905
H 1.0457935 2.3443289 -0.03064471
H 2.025317 0.29156658 -2.1058216
H 2.1930985 0.106760986 -0.3652054
H -0.48583847 0.37862408 -1.8297933
H -0.58858234 -2.088244 -1.7810231
H 1.0113617 -2.1581607 -0.9721514
H -2.4351542 0.5938327 2.484794
H -1.4826472 -0.91021585 2.4735968
H -0.8482974 0.56449753 3.246153
