title
 OpenBabel02282110003D

 15 15  0  0  1  0  0  0  0  0999 V2000
    1.0540    2.5960    0.5073 C   0  0  0  0  0  0  0  0  0  0  0  0
    1.0694    1.1425    0.5984 N   0  0  0  0  0  0  0  0  0  0  0  0
    0.0300    0.5003    0.3579 C   0  0  0  0  0  0  0  0  0  0  0  0
   -1.2425    0.9185   -0.0020 O   0  0  0  0  0  0  0  0  0  0  0  0
   -1.7166   -0.4517   -0.1195 C   0  0  0  0  0  0  0  0  0  0  0  0
   -0.3342   -0.9866    0.3509 C   0  0  1  0  0  0  0  0  0  0  0  0
    0.3980   -1.8656   -0.5352 C   0  0  0  0  0  0  0  0  0  0  0  0
    0.9883   -2.5982   -1.2821 C   0  0  0  0  0  0  0  0  0  0  0  0
    1.8408    2.9157   -0.1840 H   0  0  0  0  0  0  0  0  0  0  0  0
    0.0975    3.0144    0.1735 H   0  0  0  0  0  0  0  0  0  0  0  0
    1.2992    3.0176    1.4882 H   0  0  0  0  0  0  0  0  0  0  0  0
   -2.5582   -0.6398    0.5506 H   0  0  0  0  0  0  0  0  0  0  0  0
   -1.9767   -0.6952   -1.1514 H   0  0  0  0  0  0  0  0  0  0  0  0
   -0.3646   -1.3939    1.3663 H   0  0  0  0  0  0  0  0  0  0  0  0
    1.5228   -3.2395   -1.9385 H   0  0  0  0  0  0  0  0  0  0  0  0
  1  2  1  0  0  0  0
  1 11  1  0  0  0  0
  3  2  2  0  0  0  0
  4  3  1  0  0  0  0
  5  4  1  0  0  0  0
  5  6  1  0  0  0  0
  5 12  1  0  0  0  0
  6  3  1  0  0  0  0
  6 14  1  1  0  0  0
  7  6  1  0  0  0  0
  8  7  3  0  0  0  0
  9  1  1  0  0  0  0
 10  1  1  0  0  0  0
 13  5  1  0  0  0  0
 15  8  1  0  0  0  0
M  END
