15
title
O -2.5433 -0.1867925 -1.4874008
C -1.7583281 -0.28272045 -0.582325
C -0.5126458 0.5720461 -0.44432348
C -0.5548691 1.5785216 0.7608876
C 0.7080658 0.8724589 1.3312377
N 0.61429363 -0.0813393 0.22461571
C 1.5048205 -1.0182287 -0.18538585
O 2.5049071 -1.3197749 0.42901784
H -1.9012328 -1.0036991 0.25570768
H -0.27832893 1.0286094 -1.4113739
H -0.43260112 2.6216717 0.47356534
H -1.4441944 1.4795519 1.3856049
H 1.6286248 1.4642149 1.3123757
H 0.6008268 0.4184987 2.3203425
H 1.2039486 -1.4860109 -1.145644
