title
 OpenBabel02282110003D

 16 16  0  0  0  0  0  0  0  0999 V2000
    1.9189    1.4120   -0.3783 C   0  0  0  0  0  0  0  0  0  0  0  0
    1.7702   -0.0066   -0.1098 N   0  0  0  0  0  0  0  0  0  0  0  0
    0.6802   -0.5890    0.0647 C   0  0  0  0  0  0  0  0  0  0  0  0
    0.3595   -2.0511    0.3517 C   0  0  0  0  0  0  0  0  0  0  0  0
   -1.1400   -1.6512    0.3737 C   0  0  0  0  0  0  0  0  0  0  0  0
   -0.7299   -0.2600    0.0933 N   0  0  0  0  0  0  0  0  0  0  0  0
   -1.5426    0.8303   -0.0546 C   0  0  0  0  0  0  0  0  0  0  0  0
   -1.2063    1.9696   -0.2844 O   0  0  0  0  0  0  0  0  0  0  0  0
    2.5640    1.8433    0.3960 H   0  0  0  0  0  0  0  0  0  0  0  0
    2.4554    1.5286   -1.3271 H   0  0  0  0  0  0  0  0  0  0  0  0
    0.9778    1.9670   -0.4205 H   0  0  0  0  0  0  0  0  0  0  0  0
    0.6458   -2.7359   -0.4479 H   0  0  0  0  0  0  0  0  0  0  0  0
    0.7570   -2.4175    1.2995 H   0  0  0  0  0  0  0  0  0  0  0  0
   -1.7528   -2.0914   -0.4175 H   0  0  0  0  0  0  0  0  0  0  0  0
   -1.6418   -1.7705    1.3376 H   0  0  0  0  0  0  0  0  0  0  0  0
   -2.6045    0.5355    0.0667 H   0  0  0  0  0  0  0  0  0  0  0  0
  1  2  1  0  0  0  0
  1  9  1  0  0  0  0
  2  3  2  0  0  0  0
  3  6  1  0  0  0  0
  3  4  1  0  0  0  0
  4  5  1  0  0  0  0
  4 13  1  0  0  0  0
  5 15  1  0  0  0  0
  6  5  1  0  0  0  0
  7 16  1  0  0  0  0
  7  6  1  0  0  0  0
  8  7  2  0  0  0  0
 10  1  1  0  0  0  0
 11  1  1  0  0  0  0
 12  4  1  0  0  0  0
 14  5  1  0  0  0  0
M  END
