14
title
O -1.074356 -1.8727387 -0.18501577
C -0.4510595 -1.4098396 -1.105918
C 0.6666306 -0.4130257 -0.97745866
C 0.36937806 1.0219768 -1.5015763
O 0.6451256 1.5876237 -0.21071056
C 0.89728045 0.3070909 0.38001713
C -0.020635936 -0.019906603 1.5512786
O -0.88439316 0.71570104 1.9436877
H -0.68023354 -1.6993831 -2.1564376
H 1.5700035 -0.84533674 -1.418317
H 1.0522289 1.3909985 -2.274207
H -0.66639537 1.2001692 -1.8155941
H 1.9328375 0.21916358 0.74445033
H 0.22554383 -0.97875375 2.055269
