16
title
O -1.3039247 -1.571593 -0.13041228
C -0.7452517 -1.1797986 -1.1241904
C 0.48418498 -0.3158102 -1.1491456
C 0.18685538 1.1357737 -1.6682333
C 0.35229456 1.6676505 -0.21819836
C 0.93572295 0.30171323 0.21373641
C 0.446707 -0.29188395 1.5172915
O -0.16071129 0.33949828 2.3441417
H -1.1380883 -1.4316096 -2.1361134
H 1.2517629 -0.84653795 -1.7232931
H 0.9567777 1.4903665 -2.3561602
H -0.7895901 1.2851305 -2.1366417
H 0.99688923 2.5385854 -0.091566265
H -0.59717095 1.8604028 0.28511882
H 2.0319293 0.30440784 0.26433945
H 0.74809194 -1.3455335 1.6980236
