19
title
C -0.63662475 2.6667745 0.8916298
C -0.5501693 1.1404816 0.79793704
C -0.16830656 0.66020906 -0.6014489
C 1.3373559 0.8315875 -0.9686202
C 1.5736158 -0.67254466 -0.67461395
C 0.030613625 -0.8945127 -0.75002503
C -0.58902055 -1.7777307 0.22279708
N -1.0759593 -2.4695482 1.0118124
H 0.31634763 3.1420114 0.6353065
H -1.3971469 3.0609272 0.2085707
H -0.9021431 2.982911 1.9046
H 0.17615202 0.76461184 1.5301433
H -1.5139555 0.69850576 1.0771312
H -0.87216675 1.0729052 -1.330456
H 1.486229 1.0788344 -2.0227172
H 1.9049773 1.542548 -0.36420402
H 2.1759017 -1.2442362 -1.3824239
H 1.9553113 -0.8486975 0.33274654
H -0.2636138 -1.220273 -1.7518153
