title
 OpenBabel02282110003D

 19 19  0  0  1  0  0  0  0  0999 V2000
   -0.6366    2.6668    0.8916 C   0  0  0  0  0  0  0  0  0  0  0  0
   -0.5502    1.1405    0.7979 C   0  0  0  0  0  0  0  0  0  0  0  0
   -0.1683    0.6602   -0.6014 C   0  0  1  0  0  0  0  0  0  0  0  0
    1.3374    0.8316   -0.9686 C   0  0  0  0  0  0  0  0  0  0  0  0
    1.5736   -0.6725   -0.6746 C   0  0  0  0  0  0  0  0  0  0  0  0
    0.0306   -0.8945   -0.7500 C   0  0  1  0  0  0  0  0  0  0  0  0
   -0.5890   -1.7777    0.2228 C   0  0  0  0  0  0  0  0  0  0  0  0
   -1.0760   -2.4695    1.0118 N   0  0  0  0  0  0  0  0  0  0  0  0
    0.3163    3.1420    0.6353 H   0  0  0  0  0  0  0  0  0  0  0  0
   -1.3971    3.0609    0.2086 H   0  0  0  0  0  0  0  0  0  0  0  0
   -0.9021    2.9829    1.9046 H   0  0  0  0  0  0  0  0  0  0  0  0
    0.1762    0.7646    1.5301 H   0  0  0  0  0  0  0  0  0  0  0  0
   -1.5140    0.6985    1.0771 H   0  0  0  0  0  0  0  0  0  0  0  0
   -0.8722    1.0729   -1.3305 H   0  0  0  0  0  0  0  0  0  0  0  0
    1.4862    1.0788   -2.0227 H   0  0  0  0  0  0  0  0  0  0  0  0
    1.9050    1.5425   -0.3642 H   0  0  0  0  0  0  0  0  0  0  0  0
    2.1759   -1.2442   -1.3824 H   0  0  0  0  0  0  0  0  0  0  0  0
    1.9553   -0.8487    0.3327 H   0  0  0  0  0  0  0  0  0  0  0  0
   -0.2636   -1.2203   -1.7518 H   0  0  0  0  0  0  0  0  0  0  0  0
  1 11  1  0  0  0  0
  2  1  1  0  0  0  0
  2 13  1  0  0  0  0
  2 12  1  0  0  0  0
  3  6  1  1  0  0  0
  3  2  1  0  0  0  0
  4  5  1  0  0  0  0
  4  3  1  0  0  0  0
  4 16  1  0  0  0  0
  5 18  1  0  0  0  0
  6 19  1  6  0  0  0
  6  5  1  0  0  0  0
  6  7  1  0  0  0  0
  7  8  3  0  0  0  0
  9  1  1  0  0  0  0
 10  1  1  0  0  0  0
 14  3  1  0  0  0  0
 15  4  1  0  0  0  0
 17  5  1  0  0  0  0
M  END
