title
 OpenBabel02282110003D

 20 20  0  0  1  0  0  0  0  0999 V2000
   -0.6903    2.6741    0.8175 C   0  0  0  0  0  0  0  0  0  0  0  0
   -0.5428    1.1499    0.7841 C   0  0  0  0  0  0  0  0  0  0  0  0
   -0.2247    0.6186   -0.6122 C   0  0  1  0  0  0  0  0  0  0  0  0
    1.2494    0.8280   -1.0724 C   0  0  0  0  0  0  0  0  0  0  0  0
    1.5594   -0.6479   -0.7138 C   0  0  0  0  0  0  0  0  0  0  0  0
    0.0241   -0.9358   -0.7025 C   0  0  1  0  0  0  0  0  0  0  0  0
   -0.5192   -1.8130    0.3134 C   0  0  0  0  0  0  0  0  0  0  0  0
   -0.9612   -2.5344    1.1693 C   0  0  0  0  0  0  0  0  0  0  0  0
    0.2246    3.1761    0.4846 H   0  0  0  0  0  0  0  0  0  0  0  0
   -1.5045    3.0058    0.1633 H   0  0  0  0  0  0  0  0  0  0  0  0
   -0.9114    3.0276    1.8294 H   0  0  0  0  0  0  0  0  0  0  0  0
    0.2405    0.8378    1.4868 H   0  0  0  0  0  0  0  0  0  0  0  0
   -1.4671    0.6801    1.1401 H   0  0  0  0  0  0  0  0  0  0  0  0
   -0.9844    0.9779   -1.3143 H   0  0  0  0  0  0  0  0  0  0  0  0
    1.3288    1.0211   -2.1456 H   0  0  0  0  0  0  0  0  0  0  0  0
    1.8212    1.5942   -0.5429 H   0  0  0  0  0  0  0  0  0  0  0  0
    2.1590   -1.2307   -1.4161 H   0  0  0  0  0  0  0  0  0  0  0  0
    1.9896   -0.7540    0.2843 H   0  0  0  0  0  0  0  0  0  0  0  0
   -0.2884   -1.2891   -1.6913 H   0  0  0  0  0  0  0  0  0  0  0  0
   -1.3521   -3.1756    1.9198 H   0  0  0  0  0  0  0  0  0  0  0  0
  1 11  1  0  0  0  0
  2  1  1  0  0  0  0
  2 13  1  0  0  0  0
  2 12  1  0  0  0  0
  3  6  1  1  0  0  0
  3  2  1  0  0  0  0
  4  5  1  0  0  0  0
  4  3  1  0  0  0  0
  4 16  1  0  0  0  0
  5  6  1  0  0  0  0
  5 18  1  0  0  0  0
  6 19  1  6  0  0  0
  6  7  1  0  0  0  0
  7  8  3  0  0  0  0
  8 20  1  0  0  0  0
  9  1  1  0  0  0  0
 10  1  1  0  0  0  0
 14  3  1  0  0  0  0
 15  4  1  0  0  0  0
 17  5  1  0  0  0  0
M  END
