title
 OpenBabel02282110003D

 17 17  0  0  1  0  0  0  0  0999 V2000
   -0.3102    2.4757   -1.1188 C   0  0  0  0  0  0  0  0  0  0  0  0
   -0.0765    1.0376   -1.0732 N   0  0  0  0  0  0  0  0  0  0  0  0
    0.3054    0.5034   -0.0054 C   0  0  0  0  0  0  0  0  0  0  0  0
    0.5457    1.0314    1.2489 O   0  0  0  0  0  0  0  0  0  0  0  0
    0.7472   -0.3108    1.8026 C   0  0  0  0  0  0  0  0  0  0  0  0
    0.5424   -0.9314    0.4024 C   0  0  1  0  0  0  0  0  0  0  0  0
   -0.6652   -1.8294    0.1233 C   0  0  0  0  0  0  0  0  0  0  0  0
   -0.8873   -1.9305   -1.2645 O   0  0  0  0  0  0  0  0  0  0  0  0
    0.3777    2.9294   -1.8405 H   0  0  0  0  0  0  0  0  0  0  0  0
   -1.3260    2.6613   -1.4831 H   0  0  0  0  0  0  0  0  0  0  0  0
   -0.1845    2.9749   -0.1515 H   0  0  0  0  0  0  0  0  0  0  0  0
    1.7418   -0.4072    2.2426 H   0  0  0  0  0  0  0  0  0  0  0  0
   -0.0233   -0.5391    2.5441 H   0  0  0  0  0  0  0  0  0  0  0  0
    1.4440   -1.3660   -0.0355 H   0  0  0  0  0  0  0  0  0  0  0  0
   -0.4910   -2.8440    0.4978 H   0  0  0  0  0  0  0  0  0  0  0  0
   -1.5452   -1.4276    0.6544 H   0  0  0  0  0  0  0  0  0  0  0  0
   -0.8912   -1.0262   -1.6143 H   0  0  0  0  0  0  0  0  0  0  0  0
  1  2  1  0  0  0  0
  1 11  1  0  0  0  0
  2  3  2  0  0  0  0
  3  6  1  0  0  0  0
  3  4  1  0  0  0  0
  4  5  1  0  0  0  0
  5 12  1  0  0  0  0
  5 13  1  0  0  0  0
  6 14  1  6  0  0  0
  6  5  1  0  0  0  0
  7  6  1  0  0  0  0
  7 15  1  0  0  0  0
  7 16  1  0  0  0  0
  8  7  1  0  0  0  0
  9  1  1  0  0  0  0
 10  1  1  0  0  0  0
 17  8  1  0  0  0  0
M  END
