18
title
C -0.06685944 2.3044438 1.1751292
O 0.3409645 0.9960463 1.545839
C 0.9080196 0.28226835 0.48802283
C 1.2407 -1.1878855 0.86517817
N 0.4398413 -1.6102905 -0.29949734
C -0.057952806 -0.32799226 -0.5436081
N -0.95144254 0.17064242 -1.2824559
C -1.7423418 -0.7513866 -2.0876474
H 0.79134554 2.9048557 0.8350995
H -0.8172994 2.2767208 0.37740818
H -0.49148637 2.7670121 2.068943
H 1.7425531 0.83442086 0.030483156
H 2.2905245 -1.4896677 0.82173294
H 0.8095486 -1.4501462 1.8361348
H -0.07762298 -2.474021 -0.37059018
H -2.5280495 -1.2331669 -1.4876995
H -2.2393606 -0.1990797 -2.8896205
H -1.1378661 -1.5475266 -2.5485003
