title
 OpenBabel02282110003D

 18 18  0  0  1  0  0  0  0  0999 V2000
   -0.1844    2.1923    1.4712 C   0  0  0  0  0  0  0  0  0  0  0  0
    0.2892    0.8278    1.7057 N   0  0  0  0  0  0  0  0  0  0  0  0
    0.9239    0.2426    0.5405 C   0  0  1  0  0  0  0  0  0  0  0  0
    1.2604   -1.2592    0.6607 C   0  0  0  0  0  0  0  0  0  0  0  0
    0.3270   -1.5731   -0.4157 O   0  0  0  0  0  0  0  0  0  0  0  0
   -0.0370   -0.2405   -0.5359 C   0  0  0  0  0  0  0  0  0  0  0  0
   -0.8732    0.3128   -1.2821 N   0  0  0  0  0  0  0  0  0  0  0  0
   -1.6591   -0.5022   -2.1993 C   0  0  0  0  0  0  0  0  0  0  0  0
    0.6123    2.8939    1.1669 H   0  0  0  0  0  0  0  0  0  0  0  0
   -0.9348    2.1752    0.6773 H   0  0  0  0  0  0  0  0  0  0  0  0
   -0.6502    2.5730    2.3844 H   0  0  0  0  0  0  0  0  0  0  0  0
    0.9562    0.8292    2.4718 H   0  0  0  0  0  0  0  0  0  0  0  0
    1.7466    0.8473    0.1207 H   0  0  0  0  0  0  0  0  0  0  0  0
    2.2772   -1.5603    0.3979 H   0  0  0  0  0  0  0  0  0  0  0  0
    0.9436   -1.7171    1.6008 H   0  0  0  0  0  0  0  0  0  0  0  0
   -2.7235   -0.3345   -2.0023 H   0  0  0  0  0  0  0  0  0  0  0  0
   -1.4680   -0.1704   -3.2259 H   0  0  0  0  0  0  0  0  0  0  0  0
   -1.4532   -1.5766   -2.1329 H   0  0  0  0  0  0  0  0  0  0  0  0
  1  2  1  0  0  0  0
  1 11  1  0  0  0  0
  2 12  1  0  0  0  0
  3 13  1  6  0  0  0
  3  4  1  0  0  0  0
  3  2  1  0  0  0  0
  4 15  1  0  0  0  0
  5  4  1  0  0  0  0
  6  5  1  0  0  0  0
  6  3  1  0  0  0  0
  7  6  2  0  0  0  0
  8 18  1  0  0  0  0
  8 16  1  0  0  0  0
  8  7  1  0  0  0  0
  9  1  1  0  0  0  0
 10  1  1  0  0  0  0
 14  4  1  0  0  0  0
 17  8  1  0  0  0  0
M  END
