17
title
C 0.924409 2.7661114 0.3196897
C 0.95237917 1.2375128 0.42277026
C -0.44601253 0.63844466 0.47569108
C -1.2921363 0.63498515 -0.8184086
O -1.475505 -0.8006172 -0.7512963
C -0.62129974 -0.91124964 0.39866775
C 0.5893337 -1.6970148 0.12947102
N 1.5489049 -2.3097281 -0.06982299
H 1.9383503 3.1733842 0.27754852
H 0.39762822 3.0970201 -0.5822374
H 0.41919157 3.2140372 1.1823981
H 1.498315 0.815053 -0.4289445
H 1.5073068 0.9361397 1.3195322
H -0.9975147 1.0398992 1.3301188
H -2.2496288 1.1642082 -0.7858255
H -0.74526453 0.9280382 -1.7233291
H -1.1435393 -1.365191 1.2492505
