20
title
C -0.69031286 2.674139 0.81751627
C -0.54281586 1.1498666 0.7840667
C -0.2247332 0.6186149 -0.61224496
C 1.2494365 0.8280103 -1.0723667
C 1.5594074 -0.64787 -0.7138417
C 0.024055092 -0.9358433 -0.7024965
C -0.5192058 -1.8130301 0.31341022
C -0.9612363 -2.5344422 1.1693391
H 0.22464028 3.176134 0.4845901
H -1.5044523 3.0057504 0.16325958
H -0.9114007 3.0275686 1.8293781
H 0.24054876 0.8377854 1.4867969
H -1.4671365 0.68007207 1.1400784
H -0.9843889 0.97785336 -1.3143195
H 1.328771 1.0210898 -2.1455822
H 1.8212258 1.5941831 -0.5429419
H 2.1590257 -1.2307149 -1.4160651
H 1.9896299 -0.75400907 0.28426367
H -0.28835544 -1.2891496 -1.69126
H -1.3521373 -3.1756077 1.9198124
