17
title
C 0.24401245 2.6820474 -0.41603908
O 0.26490203 1.4403386 0.25760075
C -0.67433596 0.53279555 -0.2194152
C -0.44031727 -0.19234808 -1.5746422
C -0.92091477 -1.503841 -0.89957047
C -0.66584706 -0.850571 0.5030654
C 0.62285817 -1.2088994 1.0763592
N 1.6372199 -1.5303365 1.528206
H 1.0026641 3.3126667 0.05140923
H 0.480875 2.5725403 -1.484085
H -0.7370019 3.1735806 -0.32534125
H -1.6905977 0.9565565 -0.1767781
H -0.98750484 0.16187845 -2.4498396
H 0.6286986 -0.22888227 -1.8012059
H -1.9864756 -1.6897155 -1.0485241
H -0.36501712 -2.4156058 -1.1153803
H -1.4408737 -0.9946118 1.2592734
