18
title
C 1.2840545 2.6409338 -0.1438304
C 1.3507167 1.1236526 0.009361331
N 0.024412056 0.5404178 0.10441417
C -0.78234005 0.74365276 1.3272672
C -1.308924 -0.7034102 1.1830804
C -0.084228136 -0.92238957 0.24931985
C -0.26563463 -1.670941 -0.9943469
N -0.41346857 -2.270375 -1.9713998
H 2.2898626 3.0615697 -0.23212686
H 0.7111202 2.9122188 -1.0347688
H 0.8044455 3.1060865 0.7238827
H 1.8427715 0.68160546 -0.8652428
H 1.9678662 0.86203575 0.8921169
H -0.16713034 0.8713917 2.233266
H -1.506798 1.5604455 1.2713472
H -1.3507247 -1.3223404 2.078075
H -2.252783 -0.7623802 0.6415617
H 0.7602307 -1.3672572 0.80251676
