title
 OpenBabel02282110003D

 18 18  0  0  1  0  0  0  0  0999 V2000
    1.2841    2.6409   -0.1438 C   0  0  0  0  0  0  0  0  0  0  0  0
    1.3507    1.1237    0.0094 C   0  0  0  0  0  0  0  0  0  0  0  0
    0.0244    0.5404    0.1044 N   0  0  0  0  0  0  0  0  0  0  0  0
   -0.7823    0.7437    1.3273 C   0  0  0  0  0  0  0  0  0  0  0  0
   -1.3089   -0.7034    1.1831 C   0  0  0  0  0  0  0  0  0  0  0  0
   -0.0842   -0.9224    0.2493 C   0  0  1  0  0  0  0  0  0  0  0  0
   -0.2656   -1.6709   -0.9943 C   0  0  0  0  0  0  0  0  0  0  0  0
   -0.4135   -2.2704   -1.9714 N   0  0  0  0  0  0  0  0  0  0  0  0
    2.2899    3.0616   -0.2321 H   0  0  0  0  0  0  0  0  0  0  0  0
    0.7111    2.9122   -1.0348 H   0  0  0  0  0  0  0  0  0  0  0  0
    0.8044    3.1061    0.7239 H   0  0  0  0  0  0  0  0  0  0  0  0
    1.8428    0.6816   -0.8652 H   0  0  0  0  0  0  0  0  0  0  0  0
    1.9679    0.8620    0.8921 H   0  0  0  0  0  0  0  0  0  0  0  0
   -0.1671    0.8714    2.2333 H   0  0  0  0  0  0  0  0  0  0  0  0
   -1.5068    1.5604    1.2713 H   0  0  0  0  0  0  0  0  0  0  0  0
   -1.3507   -1.3223    2.0781 H   0  0  0  0  0  0  0  0  0  0  0  0
   -2.2528   -0.7624    0.6416 H   0  0  0  0  0  0  0  0  0  0  0  0
    0.7602   -1.3673    0.8025 H   0  0  0  0  0  0  0  0  0  0  0  0
  1  2  1  0  0  0  0
  1 11  1  0  0  0  0
  2  3  1  0  0  0  0
  2 13  1  0  0  0  0
  3  6  1  0  0  0  0
  3  4  1  0  0  0  0
  4 14  1  0  0  0  0
  5  4  1  0  0  0  0
  5 16  1  0  0  0  0
  6 18  1  1  0  0  0
  6  5  1  0  0  0  0
  7  6  1  0  0  0  0
  8  7  3  0  0  0  0
  9  1  1  0  0  0  0
 10  1  1  0  0  0  0
 12  2  1  0  0  0  0
 15  4  1  0  0  0  0
 17  5  1  0  0  0  0
M  END
