title
 OpenBabel02282110003D

 15 15  0  0  1  0  0  0  0  0999 V2000
    0.6825    2.3692    0.2075 C   0  0  0  0  0  0  0  0  0  0  0  0
    0.5752    1.2794   -0.6951 O   0  0  0  0  0  0  0  0  0  0  0  0
   -0.6131    0.5758   -0.5957 C   0  0  1  0  0  0  0  0  0  0  0  0
   -0.7327   -0.5733   -1.6056 C   0  0  0  0  0  0  0  0  0  0  0  0
   -1.0089   -1.5298   -0.5522 O   0  0  0  0  0  0  0  0  0  0  0  0
   -0.7388   -0.5674    0.4803 C   0  0  1  0  0  0  0  0  0  0  0  0
    0.4841   -0.8545    1.2341 C   0  0  0  0  0  0  0  0  0  0  0  0
    1.4421   -1.0642    1.8456 N   0  0  0  0  0  0  0  0  0  0  0  0
    1.6277    2.8687   -0.0112 H   0  0  0  0  0  0  0  0  0  0  0  0
   -0.1445    3.0809    0.0686 H   0  0  0  0  0  0  0  0  0  0  0  0
    0.6938    2.0316    1.2518 H   0  0  0  0  0  0  0  0  0  0  0  0
   -1.4827    1.2463   -0.5634 H   0  0  0  0  0  0  0  0  0  0  0  0
   -1.5490   -0.5204   -2.3313 H   0  0  0  0  0  0  0  0  0  0  0  0
    0.2149   -0.7819   -2.1141 H   0  0  0  0  0  0  0  0  0  0  0  0
   -1.5779   -0.4803    1.1798 H   0  0  0  0  0  0  0  0  0  0  0  0
  1 11  1  0  0  0  0
  2  3  1  0  0  0  0
  2  1  1  0  0  0  0
  3 12  1  0  0  0  0
  3  6  1  1  0  0  0
  4  3  1  0  0  0  0
  4  5  1  0  0  0  0
  5  6  1  0  0  0  0
  6 15  1  1  0  0  0
  6  7  1  0  0  0  0
  7  8  3  0  0  0  0
  9  1  1  0  0  0  0
 10  1  1  0  0  0  0
 13  4  1  0  0  0  0
 14  4  1  0  0  0  0
M  END
