title
 OpenBabel02282110003D

 18 18  0  0  1  0  0  0  0  0999 V2000
    0.8397    2.5393    0.0663 O   0  0  0  0  0  0  0  0  0  0  0  0
    0.9258    1.1206    0.0674 C   0  0  0  0  0  0  0  0  0  0  0  0
   -0.4189    0.5895    0.5333 C   0  0  1  0  0  0  0  0  0  0  0  0
   -1.5646    0.7931   -0.4965 C   0  0  0  0  0  0  0  0  0  0  0  0
   -1.4029   -0.6816   -0.9493 C   0  0  0  0  0  0  0  0  0  0  0  0
   -0.5987   -0.9634    0.3626 C   0  0  1  0  0  0  0  0  0  0  0  0
    0.5666   -1.8229    0.3033 C   0  0  0  0  0  0  0  0  0  0  0  0
    1.5374   -2.5311    0.2379 C   0  0  0  0  0  0  0  0  0  0  0  0
    1.6825    2.8898   -0.2356 H   0  0  0  0  0  0  0  0  0  0  0  0
    1.1597    0.7348   -0.9377 H   0  0  0  0  0  0  0  0  0  0  0  0
    1.7180    0.7634    0.7422 H   0  0  0  0  0  0  0  0  0  0  0  0
   -0.6116    0.9658    1.5413 H   0  0  0  0  0  0  0  0  0  0  0  0
   -2.5273    0.9749   -0.0120 H   0  0  0  0  0  0  0  0  0  0  0  0
   -1.3995    1.5716   -1.2432 H   0  0  0  0  0  0  0  0  0  0  0  0
   -2.3076   -1.2742   -1.0991 H   0  0  0  0  0  0  0  0  0  0  0  0
   -0.7692   -0.7844   -1.8328 H   0  0  0  0  0  0  0  0  0  0  0  0
   -1.2793   -1.3289    1.1388 H   0  0  0  0  0  0  0  0  0  0  0  0
    2.3903   -3.1613    0.1849 H   0  0  0  0  0  0  0  0  0  0  0  0
  1  2  1  0  0  0  0
  2  3  1  0  0  0  0
  2 11  1  0  0  0  0
  3  6  1  1  0  0  0
  3 12  1  0  0  0  0
  4 13  1  0  0  0  0
  4  3  1  0  0  0  0
  5  4  1  0  0  0  0
  5  6  1  0  0  0  0
  6 17  1  1  0  0  0
  7  6  1  0  0  0  0
  8  7  3  0  0  0  0
  9  1  1  0  0  0  0
 10  2  1  0  0  0  0
 14  4  1  0  0  0  0
 15  5  1  0  0  0  0
 16  5  1  0  0  0  0
 18  8  1  0  0  0  0
M  END
