title
 OpenBabel02282110003D

 15 15  0  0  1  0  0  0  0  0999 V2000
    0.8597    2.5258    0.0854 O   0  0  0  0  0  0  0  0  0  0  0  0
    0.9855    1.1275    0.2330 C   0  0  0  0  0  0  0  0  0  0  0  0
   -0.3643    0.5352    0.6042 C   0  0  1  0  0  0  0  0  0  0  0  0
   -1.3403    0.8306   -0.4268 O   0  0  0  0  0  0  0  0  0  0  0  0
   -1.4886   -0.5587   -0.7714 C   0  0  0  0  0  0  0  0  0  0  0  0
   -0.5865   -0.9970    0.4151 C   0  0  1  0  0  0  0  0  0  0  0  0
    0.5623   -1.8337    0.1165 C   0  0  0  0  0  0  0  0  0  0  0  0
    1.4731   -2.5016   -0.1307 N   0  0  0  0  0  0  0  0  0  0  0  0
    0.1598    2.6668   -0.5641 H   0  0  0  0  0  0  0  0  0  0  0  0
    1.3657    0.6502   -0.6834 H   0  0  0  0  0  0  0  0  0  0  0  0
    1.7140    0.9456    1.0302 H   0  0  0  0  0  0  0  0  0  0  0  0
   -0.6954    0.9250    1.5726 H   0  0  0  0  0  0  0  0  0  0  0  0
   -2.5298   -0.8900   -0.7138 H   0  0  0  0  0  0  0  0  0  0  0  0
   -1.0820   -0.7922   -1.7611 H   0  0  0  0  0  0  0  0  0  0  0  0
   -1.1515   -1.4415    1.2364 H   0  0  0  0  0  0  0  0  0  0  0  0
  1  2  1  0  0  0  0
  2  3  1  0  0  0  0
  2 11  1  0  0  0  0
  3  6  1  1  0  0  0
  3 12  1  0  0  0  0
  4  3  1  0  0  0  0
  5 13  1  0  0  0  0
  5  4  1  0  0  0  0
  5  6  1  0  0  0  0
  6 15  1  1  0  0  0
  7  6  1  0  0  0  0
  8  7  3  0  0  0  0
  9  1  1  0  0  0  0
 10  2  1  0  0  0  0
 14  5  1  0  0  0  0
M  END
