title
 OpenBabel02282110003D

 16 16  0  0  1  0  0  0  0  0999 V2000
    0.8155    2.5302    0.0760 O   0  0  0  0  0  0  0  0  0  0  0  0
    0.9712    1.1326    0.2242 C   0  0  0  0  0  0  0  0  0  0  0  0
   -0.3587    0.5117    0.6175 C   0  0  1  0  0  0  0  0  0  0  0  0
   -1.3594    0.8129   -0.3897 O   0  0  0  0  0  0  0  0  0  0  0  0
   -1.4678   -0.5719   -0.7741 C   0  0  0  0  0  0  0  0  0  0  0  0
   -0.5577   -1.0212    0.4029 C   0  0  1  0  0  0  0  0  0  0  0  0
    0.5897   -1.8543    0.1106 C   0  0  0  0  0  0  0  0  0  0  0  0
    1.5357   -2.5529   -0.1403 C   0  0  0  0  0  0  0  0  0  0  0  0
    0.0726    2.6486   -0.5293 H   0  0  0  0  0  0  0  0  0  0  0  0
    1.3444    0.6627   -0.6985 H   0  0  0  0  0  0  0  0  0  0  0  0
    1.7178    0.9660    1.0077 H   0  0  0  0  0  0  0  0  0  0  0  0
   -0.6751    0.8873    1.5971 H   0  0  0  0  0  0  0  0  0  0  0  0
   -2.5027   -0.9272   -0.7404 H   0  0  0  0  0  0  0  0  0  0  0  0
   -1.0452   -0.7649   -1.7665 H   0  0  0  0  0  0  0  0  0  0  0  0
   -1.1409   -1.4600    1.2167 H   0  0  0  0  0  0  0  0  0  0  0  0
    2.3733   -3.1684   -0.3587 H   0  0  0  0  0  0  0  0  0  0  0  0
  1  2  1  0  0  0  0
  2  3  1  0  0  0  0
  2 11  1  0  0  0  0
  3  6  1  1  0  0  0
  3 12  1  0  0  0  0
  4  3  1  0  0  0  0
  5 13  1  0  0  0  0
  5  4  1  0  0  0  0
  5  6  1  0  0  0  0
  6 15  1  1  0  0  0
  7  6  1  0  0  0  0
  8  7  3  0  0  0  0
  9  1  1  0  0  0  0
 10  2  1  0  0  0  0
 14  5  1  0  0  0  0
 16  8  1  0  0  0  0
M  END
