15
title
O 0.85970163 2.525782 0.08544564
C 0.98552537 1.1275498 0.23300987
C -0.364257 0.535174 0.6041614
O -1.3402897 0.8306164 -0.42677626
C -1.488602 -0.55873317 -0.77138716
C -0.5865033 -0.9970365 0.41508633
C 0.56234473 -1.8336724 0.11647983
N 1.4730954 -2.501586 -0.13074845
H 0.15978827 2.6667786 -0.5641297
H 1.365697 0.6501554 -0.6834397
H 1.7139872 0.94557565 1.0301666
H -0.69542915 0.92500526 1.5725759
H -2.5298288 -0.8900021 -0.7138031
H -1.081987 -0.7921677 -1.7610983
H -1.1514767 -1.4415425 1.2363639
