17
title
O 0.8908365 2.521647 -0.029122112
C 0.9482086 1.1070778 0.06327909
C -0.43544134 0.63553715 0.48128068
C -1.5182552 0.80717915 -0.62069345
C -1.3832171 -0.69737065 -0.9761687
C -0.6494843 -0.9169024 0.38639694
C 0.51238716 -1.790393 0.41329512
N 1.4465947 -2.4727387 0.41773474
H 1.7583457 2.8416874 -0.29298088
H 1.2295363 0.6541658 -0.9012757
H 1.6916621 0.77704334 0.8044982
H -0.67408633 1.0673963 1.4558411
H -2.4988961 1.0497531 -0.2045519
H -1.2832029 1.5299419 -1.4030478
H -2.2978444 -1.2737006 -1.1236315
H -0.717854 -0.8745345 -1.8231897
H -1.3520386 -1.2482494 1.1558161
