18
title
C 1.0223913 2.780848 0.36708826
C 1.0282145 1.2561991 0.5238311
C -0.38237476 0.681098 0.5954226
C -1.2354234 0.6808824 -0.69524163
O -1.476493 -0.73813826 -0.59750015
C -0.6046277 -0.8681608 0.52483344
C 0.63411784 -1.6956314 0.25464788
O 0.9671215 -2.110525 -0.8231841
H 2.0411513 3.1744385 0.3084982
H 0.49694672 3.0848763 -0.54469305
H 0.5242997 3.2648273 1.2143533
H 1.5675664 0.80133146 -0.31624183
H 1.5819181 0.9852233 1.4316854
H -0.91969883 1.1143728 1.4435911
H -2.1670353 1.256476 -0.66947895
H -0.6795032 0.9334462 -1.6076264
H -1.11192 -1.2962683 1.4032321
H 1.2424428 -1.8884133 1.1712744
