title
 OpenBabel02282110003D

 16 16  0  0  1  0  0  0  0  0999 V2000
    0.8602    2.5480    0.1029 O   0  0  0  0  0  0  0  0  0  0  0  0
    0.9395    1.1317    0.1514 C   0  0  0  0  0  0  0  0  0  0  0  0
   -0.4557    0.6298    0.4812 C   0  0  1  0  0  0  0  0  0  0  0  0
   -1.4682    0.7600   -0.6847 C   0  0  0  0  0  0  0  0  0  0  0  0
   -1.2213   -0.6643   -1.0237 N   0  0  0  0  0  0  0  0  0  0  0  0
   -0.6593   -0.9120    0.3200 C   0  0  1  0  0  0  0  0  0  0  0  0
    0.5134   -1.7900    0.3609 C   0  0  0  0  0  0  0  0  0  0  0  0
    1.4419   -2.4767    0.4120 N   0  0  0  0  0  0  0  0  0  0  0  0
    1.7201    2.8886   -0.1598 H   0  0  0  0  0  0  0  0  0  0  0  0
    1.2660    0.7102   -0.8109 H   0  0  0  0  0  0  0  0  0  0  0  0
    1.6489    0.7909    0.9210 H   0  0  0  0  0  0  0  0  0  0  0  0
   -0.7768    1.0363    1.4409 H   0  0  0  0  0  0  0  0  0  0  0  0
   -2.4862    0.9749   -0.3344 H   0  0  0  0  0  0  0  0  0  0  0  0
   -1.2066    1.4647   -1.4783 H   0  0  0  0  0  0  0  0  0  0  0  0
   -2.0323   -1.2235   -1.2629 H   0  0  0  0  0  0  0  0  0  0  0  0
   -1.3839   -1.2857    1.0575 H   0  0  0  0  0  0  0  0  0  0  0  0
  1  2  1  0  0  0  0
  2  3  1  0  0  0  0
  2 11  1  0  0  0  0
  3  6  1  1  0  0  0
  3 12  1  0  0  0  0
  4 13  1  0  0  0  0
  4  3  1  0  0  0  0
  5  4  1  0  0  0  0
  5  6  1  0  0  0  0
  6  7  1  0  0  0  0
  6 16  1  1  0  0  0
  7  8  3  0  0  0  0
  9  1  1  0  0  0  0
 10  2  1  0  0  0  0
 14  4  1  0  0  0  0
 15  5  1  0  0  0  0
M  END
