title
 OpenBabel02282110003D

 16 16  0  0  1  0  0  0  0  0999 V2000
    0.7660    2.5848    0.2921 O   0  0  0  0  0  0  0  0  0  0  0  0
    0.9194    1.1732    0.3373 C   0  0  0  0  0  0  0  0  0  0  0  0
   -0.4694    0.5905    0.5119 C   0  0  1  0  0  0  0  0  0  0  0  0
   -1.3775    0.6722   -0.7295 C   0  0  0  0  0  0  0  0  0  0  0  0
   -1.3291   -0.7618   -0.9189 O   0  0  0  0  0  0  0  0  0  0  0  0
   -0.6123   -0.9505    0.3253 C   0  0  1  0  0  0  0  0  0  0  0  0
    0.5886   -1.7603    0.1940 C   0  0  0  0  0  0  0  0  0  0  0  0
    1.5780   -2.4375    0.1032 C   0  0  0  0  0  0  0  0  0  0  0  0
    1.6265    2.9757    0.1154 H   0  0  0  0  0  0  0  0  0  0  0  0
    1.3709    0.7855   -0.5882 H   0  0  0  0  0  0  0  0  0  0  0  0
    1.5647    0.8603    1.1724 H   0  0  0  0  0  0  0  0  0  0  0  0
   -0.9120    0.9703    1.4347 H   0  0  0  0  0  0  0  0  0  0  0  0
   -2.3992    1.0223   -0.5412 H   0  0  0  0  0  0  0  0  0  0  0  0
   -0.9624    1.2154   -1.5852 H   0  0  0  0  0  0  0  0  0  0  0  0
   -1.2688   -1.4036    1.0813 H   0  0  0  0  0  0  0  0  0  0  0  0
    2.4490   -3.0393    0.0167 H   0  0  0  0  0  0  0  0  0  0  0  0
  1  2  1  0  0  0  0
  2  3  1  0  0  0  0
  2 11  1  0  0  0  0
  3  6  1  1  0  0  0
  3 12  1  0  0  0  0
  4 13  1  0  0  0  0
  4  3  1  0  0  0  0
  5  4  1  0  0  0  0
  5  6  1  0  0  0  0
  6 15  1  1  0  0  0
  7  6  1  0  0  0  0
  8  7  3  0  0  0  0
  9  1  1  0  0  0  0
 10  2  1  0  0  0  0
 14  4  1  0  0  0  0
 16  8  1  0  0  0  0
M  END
