17
title
O 1.6500609 1.7166988 -0.71561724
C 1.60072 0.343389 -1.0657158
C 0.14550811 -0.08351886 -1.0262655
C -0.15115494 -1.5977734 -1.2373587
C -0.83628756 -1.6080359 0.16084372
N -0.43802518 -0.20918623 0.3161728
C -0.80759984 0.69055426 1.2586275
O -1.4497694 0.40698785 2.2508974
H 2.5683281 1.9693679 -0.5834062
H 1.9948925 0.16770156 -2.0805228
H 2.1788528 -0.27641883 -0.36373636
H -0.43238062 0.58156043 -1.6802936
H -0.8005999 -1.8295208 -2.0810683
H 0.74712354 -2.2155623 -1.2984923
H -1.9221014 -1.7490588 0.15023075
H -0.40466624 -2.2815046 0.90726745
H -0.44010347 1.7074848 1.0259043
