18
title
C 0.26738396 2.6922922 0.67922246
O -0.29355434 1.4554341 0.29501218
C 0.6242178 0.59101343 -0.31428963
C 1.6623162 -0.16151987 0.5649676
C 1.3208113 -1.4506098 -0.228445
C 0.0114658065 -0.76860785 -0.7555298
C -1.1988626 -1.1623374 0.05500841
O -2.2452316 -1.520141 -0.42114395
H 1.059378 2.5688913 1.432577
H 0.6916408 3.2271795 -0.18469828
H -0.53688234 3.2934809 1.1086591
H 1.1151943 1.0871731 -1.1660392
H 2.6970878 0.1866752 0.5505376
H 1.3186888 -0.21648107 1.601854
H 2.0200214 -1.6462735 -1.0436589
H 1.1937094 -2.3704278 0.34680784
H -0.22923292 -0.87927616 -1.813664
H -1.0553162 -1.1285859 1.1584613
