title
 OpenBabel02282110003D

 16 16  0  0  1  0  0  0  0  0999 V2000
    0.8886    2.4762    0.1353 O   0  0  0  0  0  0  0  0  0  0  0  0
    0.9751    1.0688    0.2617 C   0  0  0  0  0  0  0  0  0  0  0  0
   -0.4206    0.5124    0.5033 C   0  0  1  0  0  0  0  0  0  0  0  0
   -1.2823    0.8669   -0.6191 O   0  0  0  0  0  0  0  0  0  0  0  0
   -1.5076   -0.5114   -0.9659 C   0  0  0  0  0  0  0  0  0  0  0  0
   -0.7233   -0.9897    0.2835 C   0  0  1  0  0  0  0  0  0  0  0  0
    0.3794   -1.9928    0.0789 C   0  0  0  0  0  0  0  0  0  0  0  0
    1.5254   -1.8543    0.4229 O   0  0  0  0  0  0  0  0  0  0  0  0
    0.2414    2.6421   -0.5611 H   0  0  0  0  0  0  0  0  0  0  0  0
    1.4199    0.6084   -0.6319 H   0  0  0  0  0  0  0  0  0  0  0  0
    1.6315    0.8515    1.1078 H   0  0  0  0  0  0  0  0  0  0  0  0
   -0.8217    0.9317    1.4329 H   0  0  0  0  0  0  0  0  0  0  0  0
   -2.5735   -0.7606   -0.9942 H   0  0  0  0  0  0  0  0  0  0  0  0
   -1.0531   -0.7777   -1.9296 H   0  0  0  0  0  0  0  0  0  0  0  0
   -1.3941   -1.4050    1.0444 H   0  0  0  0  0  0  0  0  0  0  0  0
    0.0436   -2.9288   -0.4267 H   0  0  0  0  0  0  0  0  0  0  0  0
  1  2  1  0  0  0  0
  2  3  1  0  0  0  0
  2 11  1  0  0  0  0
  3  6  1  1  0  0  0
  3 12  1  0  0  0  0
  4  3  1  0  0  0  0
  5  4  1  0  0  0  0
  5  6  1  0  0  0  0
  6 15  1  1  0  0  0
  7  6  1  0  0  0  0
  7  8  2  0  0  0  0
  9  1  1  0  0  0  0
 10  2  1  0  0  0  0
 13  5  1  0  0  0  0
 14  5  1  0  0  0  0
 16  7  1  0  0  0  0
M  END
