title
 OpenBabel02282110003D

 16 16  0  0  1  0  0  0  0  0999 V2000
    1.1169    2.5306    0.0494 O   0  0  0  0  0  0  0  0  0  0  0  0
    1.0162    1.1167    0.0431 C   0  0  0  0  0  0  0  0  0  0  0  0
   -0.3807    0.6510    0.4366 C   0  0  1  0  0  0  0  0  0  0  0  0
   -1.4805    0.7601   -0.6457 C   0  0  0  0  0  0  0  0  0  0  0  0
   -1.6225   -0.6750   -0.7229 O   0  0  0  0  0  0  0  0  0  0  0  0
   -0.6834   -0.8742    0.3475 C   0  0  1  0  0  0  0  0  0  0  0  0
    0.4457   -1.8060   -0.0456 C   0  0  0  0  0  0  0  0  0  0  0  0
    1.4105   -2.0111    0.6454 O   0  0  0  0  0  0  0  0  0  0  0  0
    0.5805    2.8740   -0.6724 H   0  0  0  0  0  0  0  0  0  0  0  0
    1.2962    0.6975   -0.9372 H   0  0  0  0  0  0  0  0  0  0  0  0
    1.7486    0.7509    0.7680 H   0  0  0  0  0  0  0  0  0  0  0  0
   -0.6484    1.0993    1.3947 H   0  0  0  0  0  0  0  0  0  0  0  0
   -2.4110    1.2434   -0.3267 H   0  0  0  0  0  0  0  0  0  0  0  0
   -1.1688    1.1881   -1.6089 H   0  0  0  0  0  0  0  0  0  0  0  0
   -1.1628   -1.2813    1.2495 H   0  0  0  0  0  0  0  0  0  0  0  0
    0.3033   -2.2882   -1.0392 H   0  0  0  0  0  0  0  0  0  0  0  0
  2  1  1  0  0  0  0
  2  3  1  0  0  0  0
  2 11  1  0  0  0  0
  3  6  1  1  0  0  0
  3 12  1  0  0  0  0
  4 13  1  0  0  0  0
  4  3  1  0  0  0  0
  5  4  1  0  0  0  0
  5  6  1  0  0  0  0
  6 15  1  1  0  0  0
  7  6  1  0  0  0  0
  7  8  2  0  0  0  0
  9  1  1  0  0  0  0
 10  2  1  0  0  0  0
 14  4  1  0  0  0  0
 16  7  1  0  0  0  0
M  END
