16
title
O 0.8886132 2.4762034 0.13531378
C 0.9751011 1.0687836 0.26169673
C -0.42063755 0.51239353 0.503328
O -1.2823392 0.86691403 -0.61907977
C -1.5076421 -0.51144755 -0.9659158
C -0.7233183 -0.98970616 0.28346962
C 0.3794362 -1.9928268 0.078912824
O 1.5253661 -1.8542849 0.42290908
H 0.24139448 2.6421096 -0.5611138
H 1.41988 0.6084381 -0.6319214
H 1.6314844 0.85149586 1.1077975
H -0.8217333 0.93167907 1.4329387
H -2.5735445 -0.7606226 -0.9942312
H -1.0530926 -0.7777331 -1.9295524
H -1.3940567 -1.4050249 1.044421
H 0.04360647 -2.9287882 -0.42669466
