24
title
C -0.47604862 3.0582502 0.6429834
C -0.87767684 1.5985206 0.40197384
C 0.15409474 0.83507794 -0.42064744
C 1.5494946 0.53219813 0.19517356
C 1.525329 -0.8476629 -0.51359993
C -0.01473249 -0.6967943 -0.7090716
C -0.85563225 -1.48737 0.2964398
C -0.8938553 -2.9876142 -0.013861471
H 0.4805305 3.1232116 1.1728147
H -0.36569378 3.599626 -0.30341238
H -1.2246779 3.5850677 1.2429905
H -1.0257417 1.0998561 1.3679823
H -1.8492069 1.5679373 -0.10965251
H 0.29249203 1.353889 -1.3779789
H 2.371352 1.210969 -0.045775644
H 1.4962438 0.43397772 1.2846334
H 2.06696 -0.83253217 -1.4634145
H 1.8697435 -1.7113953 0.06235952
H -0.37536559 -0.9249716 -1.7187384
H -0.46589682 -1.3363476 1.3118049
H -1.8806062 -1.0954807 0.3034825
H -1.3329642 -3.1735835 -1.000508
H 0.11114388 -3.422923 -0.014123016
H -1.4906298 -3.532178 0.72468245
