16
title
O 1.1168572 2.5305858 0.049373634
C 1.0162022 1.1167381 0.04306466
C -0.38074017 0.6509609 0.43656027
C -1.4804804 0.76007414 -0.6457315
O -1.6224823 -0.67497987 -0.7229096
C -0.68336713 -0.87422436 0.3475134
C 0.44574252 -1.8059822 -0.045614265
O 1.4105337 -2.011059 0.6454309
H 0.5804984 2.8740382 -0.6723593
H 1.2962375 0.697461 -0.93715507
H 1.7486231 0.75089306 0.76801133
H -0.64844096 1.0993317 1.3947221
H -2.4109504 1.2433656 -0.3266866
H -1.1687853 1.1880959 -1.6088666
H -1.162785 -1.281262 1.2495137
H 0.30329454 -2.288221 -1.0391546
