16
title
C -0.79256094 2.2603395 0.3337973
O 0.20729631 1.3362188 0.74283147
C 0.7582355 0.60563904 -0.30544576
C 1.9226462 -0.30047965 0.12220798
O 1.2650275 -1.4766537 -0.40208432
C 0.07036365 -0.74351156 -0.720355
C -1.1072929 -1.155265 0.14234726
O -2.2185555 -0.71100414 0.008282284
H -0.38707408 2.9797297 -0.39300403
H -1.6561962 1.7485571 -0.10586437
H -1.1093278 2.7987847 1.2290798
H 0.9734016 1.2480177 -1.1695985
H 2.8899052 -0.1216836 -0.35781094
H 2.0477028 -0.34276986 1.2104753
H -0.20615381 -0.8305739 -1.778414
H -0.85295105 -1.910448 0.9186658
