title
 OpenBabel02282110003D

 18 18  0  0  1  0  0  0  0  0999 V2000
    0.2674    2.6923    0.6792 C   0  0  0  0  0  0  0  0  0  0  0  0
   -0.2936    1.4554    0.2950 O   0  0  0  0  0  0  0  0  0  0  0  0
    0.6242    0.5910   -0.3143 C   0  0  1  0  0  0  0  0  0  0  0  0
    1.6623   -0.1615    0.5650 C   0  0  0  0  0  0  0  0  0  0  0  0
    1.3208   -1.4506   -0.2284 C   0  0  0  0  0  0  0  0  0  0  0  0
    0.0115   -0.7686   -0.7555 C   0  0  1  0  0  0  0  0  0  0  0  0
   -1.1989   -1.1623    0.0550 C   0  0  0  0  0  0  0  0  0  0  0  0
   -2.2452   -1.5201   -0.4211 O   0  0  0  0  0  0  0  0  0  0  0  0
    1.0594    2.5689    1.4326 H   0  0  0  0  0  0  0  0  0  0  0  0
    0.6916    3.2272   -0.1847 H   0  0  0  0  0  0  0  0  0  0  0  0
   -0.5369    3.2935    1.1087 H   0  0  0  0  0  0  0  0  0  0  0  0
    1.1152    1.0872   -1.1660 H   0  0  0  0  0  0  0  0  0  0  0  0
    2.6971    0.1867    0.5505 H   0  0  0  0  0  0  0  0  0  0  0  0
    1.3187   -0.2165    1.6019 H   0  0  0  0  0  0  0  0  0  0  0  0
    2.0200   -1.6463   -1.0437 H   0  0  0  0  0  0  0  0  0  0  0  0
    1.1937   -2.3704    0.3468 H   0  0  0  0  0  0  0  0  0  0  0  0
   -0.2292   -0.8793   -1.8137 H   0  0  0  0  0  0  0  0  0  0  0  0
   -1.0553   -1.1286    1.1585 H   0  0  0  0  0  0  0  0  0  0  0  0
  1 11  1  0  0  0  0
  1  9  1  0  0  0  0
  2  1  1  0  0  0  0
  3  6  1  6  0  0  0
  3  2  1  0  0  0  0
  3  4  1  0  0  0  0
  4 14  1  0  0  0  0
  5 16  1  0  0  0  0
  5  4  1  0  0  0  0
  6 17  1  6  0  0  0
  6  5  1  0  0  0  0
  6  7  1  0  0  0  0
  7 18  1  0  0  0  0
  8  7  2  0  0  0  0
 10  1  1  0  0  0  0
 12  3  1  0  0  0  0
 13  4  1  0  0  0  0
 15  5  1  0  0  0  0
M  END
