18
title
O 0.88670087 2.485459 0.02538541
C 0.9486504 1.0659702 0.11947845
C -0.46632314 0.59514743 0.42776892
C -1.4647024 0.8488888 -0.74041045
C -1.3887515 -0.6519705 -1.1328361
C -0.74533546 -0.92988765 0.2667954
C 0.3334248 -1.9708554 0.32637247
O 1.4664875 -1.8078512 0.7075685
H 1.7793376 2.8122525 -0.11806053
H 1.3044394 0.6238993 -0.8252521
H 1.6370308 0.7395814 0.90748984
H -0.7640079 1.0162537 1.3913326
H -2.458663 1.129141 -0.3832336
H -1.1434429 1.5767436 -1.4868904
H -2.3240638 -1.1671735 -1.359812
H -0.68542194 -0.8353504 -1.9501387
H -1.5313702 -1.2539376 0.9619116
H -0.0019351849 -2.9718575 -0.03863135
