title
 OpenBabel02282110003D

 22 22  0  0  1  0  0  0  0  0999 V2000
    0.6831    3.1098    0.0860 C   0  0  0  0  0  0  0  0  0  0  0  0
    0.7372    1.6527    0.5589 C   0  0  0  0  0  0  0  0  0  0  0  0
   -0.4707    0.8434    0.0964 C   0  0  1  0  0  0  0  0  0  0  0  0
   -0.6506    0.5274   -1.4172 C   0  0  0  0  0  0  0  0  0  0  0  0
   -1.1962   -0.8722   -1.0245 C   0  0  0  0  0  0  0  0  0  0  0  0
   -0.5811   -0.6896    0.3923 C   0  0  1  0  0  0  0  0  0  0  0  0
    0.7398   -1.4208    0.5712 C   0  0  0  0  0  0  0  0  0  0  0  0
    0.4499   -2.8121    0.6257 O   0  0  0  0  0  0  0  0  0  0  0  0
    1.5612    3.6717    0.4195 H   0  0  0  0  0  0  0  0  0  0  0  0
    0.6445    3.1697   -1.0070 H   0  0  0  0  0  0  0  0  0  0  0  0
   -0.2062    3.6180    0.4756 H   0  0  0  0  0  0  0  0  0  0  0  0
    1.6611    1.1885    0.1903 H   0  0  0  0  0  0  0  0  0  0  0  0
    0.7973    1.6273    1.6552 H   0  0  0  0  0  0  0  0  0  0  0  0
   -1.3806    1.3302    0.4693 H   0  0  0  0  0  0  0  0  0  0  0  0
   -1.3044    1.1823   -1.9985 H   0  0  0  0  0  0  0  0  0  0  0  0
    0.3134    0.4634   -1.9331 H   0  0  0  0  0  0  0  0  0  0  0  0
   -2.2887   -0.8949   -0.9974 H   0  0  0  0  0  0  0  0  0  0  0  0
   -0.8465   -1.7355   -1.5947 H   0  0  0  0  0  0  0  0  0  0  0  0
   -1.2301   -0.9619    1.2302 H   0  0  0  0  0  0  0  0  0  0  0  0
    1.4209   -1.1960   -0.2657 H   0  0  0  0  0  0  0  0  0  0  0  0
    1.2365   -1.0836    1.4951 H   0  0  0  0  0  0  0  0  0  0  0  0
    1.2809   -3.2886    0.7088 H   0  0  0  0  0  0  0  0  0  0  0  0
  1  9  1  0  0  0  0
  1 11  1  0  0  0  0
  1  2  1  0  0  0  0
  2 13  1  0  0  0  0
  3  6  1  1  0  0  0
  3 14  1  0  0  0  0
  3  2  1  0  0  0  0
  4  5  1  0  0  0  0
  4  3  1  0  0  0  0
  5 17  1  0  0  0  0
  5  6  1  0  0  0  0
  6  7  1  0  0  0  0
  6 19  1  1  0  0  0
  7  8  1  0  0  0  0
  7 21  1  0  0  0  0
  8 22  1  0  0  0  0
 10  1  1  0  0  0  0
 12  2  1  0  0  0  0
 15  4  1  0  0  0  0
 16  4  1  0  0  0  0
 18  5  1  0  0  0  0
 20  7  1  0  0  0  0
M  END
