title
 OpenBabel02282110003D

 18 18  0  0  1  0  0  0  0  0999 V2000
    0.6189    2.7961   -0.7545 C   0  0  0  0  0  0  0  0  0  0  0  0
    0.5715    1.5996   -0.0067 O   0  0  0  0  0  0  0  0  0  0  0  0
   -0.5737    0.8348   -0.2560 C   0  0  1  0  0  0  0  0  0  0  0  0
   -0.5927   -0.0606   -1.5196 C   0  0  0  0  0  0  0  0  0  0  0  0
   -0.7911   -1.2444   -0.7143 O   0  0  0  0  0  0  0  0  0  0  0  0
   -0.6193   -0.4957    0.5225 C   0  0  1  0  0  0  0  0  0  0  0  0
    0.6489   -0.9523    1.2295 C   0  0  0  0  0  0  0  0  0  0  0  0
    0.5741   -2.3451    1.4722 O   0  0  0  0  0  0  0  0  0  0  0  0
    1.5285    3.3249   -0.4621 H   0  0  0  0  0  0  0  0  0  0  0  0
    0.6539    2.6037   -1.8372 H   0  0  0  0  0  0  0  0  0  0  0  0
   -0.2517    3.4366   -0.5449 H   0  0  0  0  0  0  0  0  0  0  0  0
   -1.4797    1.4466   -0.1431 H   0  0  0  0  0  0  0  0  0  0  0  0
   -1.4132    0.0879   -2.2299 H   0  0  0  0  0  0  0  0  0  0  0  0
    0.3638   -0.0766   -2.0577 H   0  0  0  0  0  0  0  0  0  0  0  0
   -1.4867   -0.6383    1.1770 H   0  0  0  0  0  0  0  0  0  0  0  0
    1.5287   -0.6884    0.6269 H   0  0  0  0  0  0  0  0  0  0  0  0
    0.7467   -0.4551    2.1996 H   0  0  0  0  0  0  0  0  0  0  0  0
    0.3571   -2.7455    0.6207 H   0  0  0  0  0  0  0  0  0  0  0  0
  1 11  1  0  0  0  0
  1  9  1  0  0  0  0
  1  2  1  0  0  0  0
  3 12  1  0  0  0  0
  3  2  1  0  0  0  0
  3  6  1  1  0  0  0
  4  5  1  0  0  0  0
  4  3  1  0  0  0  0
  5  6  1  0  0  0  0
  6 15  1  1  0  0  0
  6  7  1  0  0  0  0
  7  8  1  0  0  0  0
  7 17  1  0  0  0  0
 10  1  1  0  0  0  0
 13  4  1  0  0  0  0
 14  4  1  0  0  0  0
 16  7  1  0  0  0  0
 18  8  1  0  0  0  0
M  END
