20
title
C 0.7554539 3.0188735 -0.027028002
C 0.783901 1.5863439 0.5171579
C -0.47950774 0.82359415 0.15296693
O -0.64084727 0.6602048 -1.2780479
C -0.9746416 -0.736063 -1.122827
C -0.599261 -0.7093289 0.37186742
C 0.6600697 -1.478085 0.72771776
O 0.32746392 -2.8587656 0.6657988
H 1.6808426 3.5515177 0.21104546
H 0.6341551 3.0102382 -1.1137531
H -0.07854764 3.5871706 0.39943337
H 1.6589283 1.0607425 0.11923186
H 0.8828658 1.5984142 1.610712
H -1.3495619 1.3567598 0.56900465
H -2.034967 -0.92816615 -1.330945
H -0.36329025 -1.3829782 -1.7622873
H -1.3972697 -1.0116916 1.0538943
H 1.4665139 -1.2350991 0.01892215
H 1.0073192 -1.1947505 1.7342347
H 1.1271799 -3.3693018 0.8221506
