title
 OpenBabel02282110003D

 20 20  0  0  1  0  0  0  0  0999 V2000
   -0.6303    2.8549   -0.7318 C   0  0  0  0  0  0  0  0  0  0  0  0
   -0.3675    1.3658   -0.9753 C   0  0  0  0  0  0  0  0  0  0  0  0
    0.5401    0.7757    0.0910 C   0  0  1  0  0  0  0  0  0  0  0  0
   -0.0423    0.8331    1.4211 O   0  0  0  0  0  0  0  0  0  0  0  0
   -0.0254   -0.6008    1.5571 C   0  0  0  0  0  0  0  0  0  0  0  0
    0.6553   -0.7644    0.1778 C   0  0  1  0  0  0  0  0  0  0  0  0
   -0.0607   -1.4399   -0.8187 O   0  0  0  0  0  0  0  0  0  0  0  0
    0.0087   -2.8439   -0.7002 C   0  0  0  0  0  0  0  0  0  0  0  0
    0.2979    3.4360   -0.7745 H   0  0  0  0  0  0  0  0  0  0  0  0
   -1.3145    3.2621   -1.4821 H   0  0  0  0  0  0  0  0  0  0  0  0
   -1.0752    3.0068    0.2557 H   0  0  0  0  0  0  0  0  0  0  0  0
   -1.3087    0.8080   -0.9903 H   0  0  0  0  0  0  0  0  0  0  0  0
    0.1038    1.2111   -1.9538 H   0  0  0  0  0  0  0  0  0  0  0  0
    1.5126    1.2882    0.0848 H   0  0  0  0  0  0  0  0  0  0  0  0
    0.5511   -0.9244    2.4322 H   0  0  0  0  0  0  0  0  0  0  0  0
   -1.0359   -1.0273    1.6070 H   0  0  0  0  0  0  0  0  0  0  0  0
    1.6872   -1.1404    0.2293 H   0  0  0  0  0  0  0  0  0  0  0  0
   -0.5529   -3.2682   -1.5355 H   0  0  0  0  0  0  0  0  0  0  0  0
    1.0489   -3.2023   -0.7489 H   0  0  0  0  0  0  0  0  0  0  0  0
   -0.4349   -3.2014    0.2413 H   0  0  0  0  0  0  0  0  0  0  0  0
  1 11  1  0  0  0  0
  2  1  1  0  0  0  0
  2  3  1  0  0  0  0
  3  6  1  6  0  0  0
  3  4  1  0  0  0  0
  4  5  1  0  0  0  0
  5 16  1  0  0  0  0
  5 15  1  0  0  0  0
  6 17  1  1  0  0  0
  6  5  1  0  0  0  0
  7  8  1  0  0  0  0
  7  6  1  0  0  0  0
  8 20  1  0  0  0  0
  9  1  1  0  0  0  0
 10  1  1  0  0  0  0
 12  2  1  0  0  0  0
 13  2  1  0  0  0  0
 14  3  1  0  0  0  0
 18  8  1  0  0  0  0
 19  8  1  0  0  0  0
M  END
