22
title
C 1.0349158 2.88015 -0.09662795
C 0.99235827 1.351073 -0.019121049
C -0.3898577 0.8199144 0.36820334
C -1.4370121 0.8263812 -0.78916794
C -1.1542593 -0.68297595 -1.0293769
C -0.50917155 -0.7276158 0.38418305
O 0.70040846 -1.4133977 0.5675441
C 0.5555733 -2.8146214 0.5593784
H 2.03004 3.2345088 -0.38337937
H 0.32148826 3.2676718 -0.8322439
H 0.78672856 3.3314753 0.87076485
H 1.2998612 0.9225271 -0.9808967
H 1.7247574 0.9945522 0.71312124
H -0.7130386 1.3073484 1.294317
H -2.4544995 1.0073756 -0.4333544
H -1.2397732 1.5033764 -1.6239665
H -2.0055785 -1.337782 -1.2291821
H -0.39707273 -0.83806676 -1.8030232
H -1.2464217 -1.059008 1.1339316
H -0.12637942 -3.156773 1.354395
H 0.17166384 -3.1851916 -0.40307894
H 1.5442429 -3.2468686 0.7323763
