title
 OpenBabel02282110003D

 20 20  0  0  1  0  0  0  0  0999 V2000
    0.2667    2.8406    0.7203 C   0  0  0  0  0  0  0  0  0  0  0  0
   -0.3352    1.6379    0.2994 O   0  0  0  0  0  0  0  0  0  0  0  0
    0.5626    0.7541   -0.3210 C   0  0  1  0  0  0  0  0  0  0  0  0
    1.5927   -0.0234    0.5482 C   0  0  0  0  0  0  0  0  0  0  0  0
    1.2414   -1.2946   -0.2761 C   0  0  0  0  0  0  0  0  0  0  0  0
   -0.0570   -0.5926   -0.7706 C   0  0  1  0  0  0  0  0  0  0  0  0
   -1.2998   -0.9916    0.0106 C   0  0  0  0  0  0  0  0  0  0  0  0
   -1.6066   -2.3342   -0.3479 O   0  0  0  0  0  0  0  0  0  0  0  0
    1.0519    2.6683    1.4716 H   0  0  0  0  0  0  0  0  0  0  0  0
    0.7148    3.3865   -0.1252 H   0  0  0  0  0  0  0  0  0  0  0  0
   -0.5158    3.4599    1.1655 H   0  0  0  0  0  0  0  0  0  0  0  0
    1.0663    1.2578   -1.1617 H   0  0  0  0  0  0  0  0  0  0  0  0
    2.6299    0.3193    0.5444 H   0  0  0  0  0  0  0  0  0  0  0  0
    1.2473   -0.0968    1.5833 H   0  0  0  0  0  0  0  0  0  0  0  0
    1.9516   -1.4735   -1.0869 H   0  0  0  0  0  0  0  0  0  0  0  0
    1.0982   -2.2269    0.2724 H   0  0  0  0  0  0  0  0  0  0  0  0
   -0.2761   -0.6828   -1.8380 H   0  0  0  0  0  0  0  0  0  0  0  0
   -1.1189   -0.9009    1.0925 H   0  0  0  0  0  0  0  0  0  0  0  0
   -2.1252   -0.3090   -0.2369 H   0  0  0  0  0  0  0  0  0  0  0  0
   -2.3884   -2.6016    0.1436 H   0  0  0  0  0  0  0  0  0  0  0  0
  1 11  1  0  0  0  0
  1  9  1  0  0  0  0
  2  1  1  0  0  0  0
  3  6  1  6  0  0  0
  3  2  1  0  0  0  0
  3  4  1  0  0  0  0
  4 14  1  0  0  0  0
  5 16  1  0  0  0  0
  5  4  1  0  0  0  0
  6 17  1  6  0  0  0
  6  5  1  0  0  0  0
  6  7  1  0  0  0  0
  7 18  1  0  0  0  0
  8  7  1  0  0  0  0
  8 20  1  0  0  0  0
 10  1  1  0  0  0  0
 12  3  1  0  0  0  0
 13  4  1  0  0  0  0
 15  5  1  0  0  0  0
 19  7  1  0  0  0  0
M  END
