title
 OpenBabel02282110003D

 20 20  0  0  1  0  0  0  0  0999 V2000
    0.7915    3.1052   -0.1113 C   0  0  0  0  0  0  0  0  0  0  0  0
    0.8845    1.6529    0.3707 C   0  0  0  0  0  0  0  0  0  0  0  0
   -0.4311    0.9011    0.1958 C   0  0  1  0  0  0  0  0  0  0  0  0
   -0.8700    0.4914   -1.2288 C   0  0  0  0  0  0  0  0  0  0  0  0
   -1.0847   -0.8780   -0.8204 O   0  0  0  0  0  0  0  0  0  0  0  0
   -0.5284   -0.6190    0.4982 C   0  0  1  0  0  0  0  0  0  0  0  0
    0.7366   -1.4463    0.6768 C   0  0  0  0  0  0  0  0  0  0  0  0
    0.4320   -2.8172    0.5035 O   0  0  0  0  0  0  0  0  0  0  0  0
    1.7434    3.6281    0.0202 H   0  0  0  0  0  0  0  0  0  0  0  0
    0.5301    3.1558   -1.1741 H   0  0  0  0  0  0  0  0  0  0  0  0
    0.0260    3.6583    0.4441 H   0  0  0  0  0  0  0  0  0  0  0  0
    1.6862    1.1410   -0.1746 H   0  0  0  0  0  0  0  0  0  0  0  0
    1.1732    1.6381    1.4294 H   0  0  0  0  0  0  0  0  0  0  0  0
   -1.2268    1.4460    0.7133 H   0  0  0  0  0  0  0  0  0  0  0  0
   -1.7870    0.9460   -1.6192 H   0  0  0  0  0  0  0  0  0  0  0  0
   -0.0822    0.5727   -1.9909 H   0  0  0  0  0  0  0  0  0  0  0  0
   -1.2498   -0.8988    1.2759 H   0  0  0  0  0  0  0  0  0  0  0  0
    1.5106   -1.1193   -0.0348 H   0  0  0  0  0  0  0  0  0  0  0  0
    1.1387   -1.3281    1.6891 H   0  0  0  0  0  0  0  0  0  0  0  0
   -0.0516   -2.8695   -0.3309 H   0  0  0  0  0  0  0  0  0  0  0  0
  1  9  1  0  0  0  0
  1  2  1  0  0  0  0
  1 11  1  0  0  0  0
  2 13  1  0  0  0  0
  3  2  1  0  0  0  0
  3  6  1  1  0  0  0
  3 14  1  0  0  0  0
  4  5  1  0  0  0  0
  4  3  1  0  0  0  0
  5  6  1  0  0  0  0
  6  7  1  0  0  0  0
  6 17  1  1  0  0  0
  7 19  1  0  0  0  0
  8  7  1  0  0  0  0
 10  1  1  0  0  0  0
 12  2  1  0  0  0  0
 15  4  1  0  0  0  0
 16  4  1  0  0  0  0
 18  7  1  0  0  0  0
 20  8  1  0  0  0  0
M  END
