22
title
C 0.8591659 3.0427585 -0.072827145
C 0.9119587 1.5585241 0.30618405
C -0.4510048 0.88153106 0.1870262
C -0.9397108 0.56021 -1.2436365
O -0.90400845 -0.8578471 -0.9953516
C -0.55635065 -0.6572856 0.39823142
C 0.6539858 -1.4757456 0.8166318
C 0.38812917 -2.9805 0.69890016
H 1.8461131 3.5084438 0.006416202
H 0.5109117 3.178689 -1.102803
H 0.17525905 3.5941038 0.58202356
H 1.6388763 1.0455517 -0.3351026
H 1.2827233 1.457319 1.333978
H -1.1827431 1.4374046 0.7814096
H -1.9512057 0.90822655 -1.490484
H -0.26040822 0.8505434 -2.0564158
H -1.4100325 -0.9293519 1.0389638
H 1.5134419 -1.2041682 0.19420418
H 0.9117438 -1.2162429 1.8519974
H 1.2743306 -3.5619752 0.96986943
H -0.4312436 -3.2907865 1.3569072
H 0.10963578 -3.2375143 -0.3268818
