title
 OpenBabel02282110003D

 22 22  0  0  1  0  0  0  0  0999 V2000
    0.8592    3.0428   -0.0728 C   0  0  0  0  0  0  0  0  0  0  0  0
    0.9120    1.5585    0.3062 C   0  0  0  0  0  0  0  0  0  0  0  0
   -0.4510    0.8815    0.1870 C   0  0  1  0  0  0  0  0  0  0  0  0
   -0.9397    0.5602   -1.2436 C   0  0  0  0  0  0  0  0  0  0  0  0
   -0.9040   -0.8578   -0.9954 O   0  0  0  0  0  0  0  0  0  0  0  0
   -0.5564   -0.6573    0.3982 C   0  0  1  0  0  0  0  0  0  0  0  0
    0.6540   -1.4757    0.8166 C   0  0  0  0  0  0  0  0  0  0  0  0
    0.3881   -2.9805    0.6989 C   0  0  0  0  0  0  0  0  0  0  0  0
    1.8461    3.5084    0.0064 H   0  0  0  0  0  0  0  0  0  0  0  0
    0.5109    3.1787   -1.1028 H   0  0  0  0  0  0  0  0  0  0  0  0
    0.1753    3.5941    0.5820 H   0  0  0  0  0  0  0  0  0  0  0  0
    1.6389    1.0456   -0.3351 H   0  0  0  0  0  0  0  0  0  0  0  0
    1.2827    1.4573    1.3340 H   0  0  0  0  0  0  0  0  0  0  0  0
   -1.1827    1.4374    0.7814 H   0  0  0  0  0  0  0  0  0  0  0  0
   -1.9512    0.9082   -1.4905 H   0  0  0  0  0  0  0  0  0  0  0  0
   -0.2604    0.8505   -2.0564 H   0  0  0  0  0  0  0  0  0  0  0  0
   -1.4100   -0.9294    1.0390 H   0  0  0  0  0  0  0  0  0  0  0  0
    1.5134   -1.2042    0.1942 H   0  0  0  0  0  0  0  0  0  0  0  0
    0.9117   -1.2162    1.8520 H   0  0  0  0  0  0  0  0  0  0  0  0
    1.2743   -3.5620    0.9699 H   0  0  0  0  0  0  0  0  0  0  0  0
   -0.4312   -3.2908    1.3569 H   0  0  0  0  0  0  0  0  0  0  0  0
    0.1096   -3.2375   -0.3269 H   0  0  0  0  0  0  0  0  0  0  0  0
  1  9  1  0  0  0  0
  1  2  1  0  0  0  0
  1 11  1  0  0  0  0
  2 13  1  0  0  0  0
  3  2  1  0  0  0  0
  3  6  1  1  0  0  0
  3 14  1  0  0  0  0
  4  5  1  0  0  0  0
  4  3  1  0  0  0  0
  5  6  1  0  0  0  0
  6  7  1  0  0  0  0
  6 17  1  1  0  0  0
  7 19  1  0  0  0  0
  8  7  1  0  0  0  0
  8 20  1  0  0  0  0
  8 21  1  0  0  0  0
 10  1  1  0  0  0  0
 12  2  1  0  0  0  0
 15  4  1  0  0  0  0
 16  4  1  0  0  0  0
 18  7  1  0  0  0  0
 22  8  1  0  0  0  0
M  END
