title
 OpenBabel02282110003D

 20 20  0  0  1  0  0  0  0  0999 V2000
    0.7442    2.8413   -0.1251 O   0  0  0  0  0  0  0  0  0  0  0  0
    0.8889    1.4626    0.1897 C   0  0  0  0  0  0  0  0  0  0  0  0
   -0.5028    0.8482    0.1695 C   0  0  1  0  0  0  0  0  0  0  0  0
   -1.0892    0.7082   -1.2657 C   0  0  0  0  0  0  0  0  0  0  0  0
   -0.7040   -0.7966   -1.2526 C   0  0  0  0  0  0  0  0  0  0  0  0
   -0.5617   -0.7089    0.2912 C   0  0  1  0  0  0  0  0  0  0  0  0
    0.5531   -1.4759    0.9754 C   0  0  0  0  0  0  0  0  0  0  0  0
    0.2547   -2.8601    0.8443 O   0  0  0  0  0  0  0  0  0  0  0  0
    1.6208    3.2346   -0.1644 H   0  0  0  0  0  0  0  0  0  0  0  0
    1.5419    0.9605   -0.5424 H   0  0  0  0  0  0  0  0  0  0  0  0
    1.3481    1.3306    1.1831 H   0  0  0  0  0  0  0  0  0  0  0  0
   -1.1211    1.3989    0.8844 H   0  0  0  0  0  0  0  0  0  0  0  0
   -2.1720    0.8571   -1.2816 H   0  0  0  0  0  0  0  0  0  0  0  0
   -0.6417    1.3456   -2.0313 H   0  0  0  0  0  0  0  0  0  0  0  0
   -1.4279   -1.5118   -1.6474 H   0  0  0  0  0  0  0  0  0  0  0  0
    0.2593   -0.9835   -1.7376 H   0  0  0  0  0  0  0  0  0  0  0  0
   -1.5050   -0.9990    0.7661 H   0  0  0  0  0  0  0  0  0  0  0  0
    1.5238   -1.2393    0.5104 H   0  0  0  0  0  0  0  0  0  0  0  0
    0.6174   -1.1818    2.0366 H   0  0  0  0  0  0  0  0  0  0  0  0
    0.9712   -3.3618    1.2438 H   0  0  0  0  0  0  0  0  0  0  0  0
  1  2  1  0  0  0  0
  2 11  1  0  0  0  0
  3  2  1  0  0  0  0
  3  6  1  1  0  0  0
  3 12  1  0  0  0  0
  4  5  1  0  0  0  0
  4  3  1  0  0  0  0
  5  6  1  0  0  0  0
  6 17  1  1  0  0  0
  6  7  1  0  0  0  0
  7 19  1  0  0  0  0
  8  7  1  0  0  0  0
  8 20  1  0  0  0  0
  9  1  1  0  0  0  0
 10  2  1  0  0  0  0
 13  4  1  0  0  0  0
 14  4  1  0  0  0  0
 15  5  1  0  0  0  0
 16  5  1  0  0  0  0
 18  7  1  0  0  0  0
M  END
