18
title
C 0.61885554 2.7961285 -0.7544606
O 0.57146096 1.5995644 -0.0067040157
C -0.5736704 0.8347647 -0.2560145
C -0.5926937 -0.060647037 -1.5195589
O -0.7911235 -1.244408 -0.7143325
C -0.6193384 -0.49565223 0.52245057
C 0.64885265 -0.95233643 1.2295314
O 0.57405275 -2.3450775 1.4721504
H 1.528528 3.3248537 -0.4620747
H 0.6539019 2.6037226 -1.8372412
H -0.25171915 3.436624 -0.54493
H -1.4796857 1.4466169 -0.14309774
H -1.4132072 0.08793113 -2.2299216
H 0.36379877 -0.07658103 -2.0576785
H -1.4867331 -0.6383157 1.1770241
H 1.5287373 -0.68836987 0.6268595
H 0.746683 -0.45506337 2.199634
H 0.35705775 -2.7454748 0.6207437
