15
title
N 0.14921668 -3.1385827 0.09452917
C 0.022808097 -1.9916277 0.032153975
C -0.08239873 -0.5451262 -0.051388066
N -1.2446232 -0.017542597 0.026377808
C -1.297669 1.4402964 -0.044504594
C -0.01728555 2.1305485 0.44646662
C 1.2011156 1.5400307 -0.2695275
N 1.1231887 0.087610245 -0.21257272
H -1.5081306 1.729814 -1.0845255
H -2.1589184 1.7737472 0.54332215
H -0.06551756 3.2094002 0.27347586
H 0.08684602 1.9729099 1.5256147
H 1.2315772 1.8825526 -1.3135169
H 2.1317387 1.8637965 0.20695587
H 1.9628788 -0.46503985 -0.22641365
