title
 OpenBabel02282110003D

 16 16  0  0  0  0  0  0  0  0999 V2000
    0.1076   -3.2655    0.0244 C   0  0  0  0  0  0  0  0  0  0  0  0
   -0.0258   -2.0679   -0.0007 C   0  0  0  0  0  0  0  0  0  0  0  0
   -0.1027   -0.6500   -0.0293 C   0  0  0  0  0  0  0  0  0  0  0  0
   -1.2630    0.0231   -0.0213 C   0  0  0  0  0  0  0  0  0  0  0  0
   -1.3082    1.5245    0.0105 C   0  0  0  0  0  0  0  0  0  0  0  0
    0.0599    2.0846    0.4051 C   0  0  0  0  0  0  0  0  0  0  0  0
    1.0898    1.4659   -0.3471 O   0  0  0  0  0  0  0  0  0  0  0  0
    1.2241    0.0934   -0.0545 C   0  0  0  0  0  0  0  0  0  0  0  0
    0.2033   -4.3227    0.0479 H   0  0  0  0  0  0  0  0  0  0  0  0
   -2.2012   -0.5232   -0.0284 H   0  0  0  0  0  0  0  0  0  0  0  0
   -1.6071    1.9145   -0.9726 H   0  0  0  0  0  0  0  0  0  0  0  0
   -2.0725    1.8657    0.7204 H   0  0  0  0  0  0  0  0  0  0  0  0
    0.1301    3.1560    0.1995 H   0  0  0  0  0  0  0  0  0  0  0  0
    0.2294    1.9317    1.4837 H   0  0  0  0  0  0  0  0  0  0  0  0
    1.7405   -0.0563    0.9105 H   0  0  0  0  0  0  0  0  0  0  0  0
    1.8682   -0.3284   -0.8328 H   0  0  0  0  0  0  0  0  0  0  0  0
  1  9  1  0  0  0  0
  2  1  3  0  0  0  0
  3  4  2  0  0  0  0
  3  2  1  0  0  0  0
  4  5  1  0  0  0  0
  5  6  1  0  0  0  0
  5 12  1  0  0  0  0
  6 14  1  0  0  0  0
  7  8  1  0  0  0  0
  7  6  1  0  0  0  0
  8  3  1  0  0  0  0
  8 15  1  0  0  0  0
 10  4  1  0  0  0  0
 11  5  1  0  0  0  0
 13  6  1  0  0  0  0
 16  8  1  0  0  0  0
M  END
