title
 OpenBabel02282110003D

 18 18  0  0  1  0  0  0  0  0999 V2000
    0.6778    2.9171   -0.2118 O   0  0  0  0  0  0  0  0  0  0  0  0
    0.8839    1.6076    0.3001 C   0  0  0  0  0  0  0  0  0  0  0  0
   -0.4434    0.8839    0.1737 C   0  0  1  0  0  0  0  0  0  0  0  0
   -0.8871    0.4625   -1.2418 C   0  0  0  0  0  0  0  0  0  0  0  0
   -1.0286   -0.9202   -0.8375 O   0  0  0  0  0  0  0  0  0  0  0  0
   -0.5436   -0.6292    0.5005 C   0  0  1  0  0  0  0  0  0  0  0  0
    0.7072   -1.4535    0.7724 C   0  0  0  0  0  0  0  0  0  0  0  0
    0.4078   -2.8269    0.6158 O   0  0  0  0  0  0  0  0  0  0  0  0
    1.5182    3.3844   -0.1965 H   0  0  0  0  0  0  0  0  0  0  0  0
    1.6669    1.0826   -0.2677 H   0  0  0  0  0  0  0  0  0  0  0  0
    1.2016    1.6343    1.3550 H   0  0  0  0  0  0  0  0  0  0  0  0
   -1.2019    1.4726    0.6946 H   0  0  0  0  0  0  0  0  0  0  0  0
   -1.8346    0.8783   -1.5998 H   0  0  0  0  0  0  0  0  0  0  0  0
   -0.1256    0.5886   -2.0219 H   0  0  0  0  0  0  0  0  0  0  0  0
   -1.3065   -0.8879    1.2456 H   0  0  0  0  0  0  0  0  0  0  0  0
    1.5214   -1.1465    0.0977 H   0  0  0  0  0  0  0  0  0  0  0  0
    1.0496   -1.3119    1.8036 H   0  0  0  0  0  0  0  0  0  0  0  0
   -0.0218   -2.9013   -0.2460 H   0  0  0  0  0  0  0  0  0  0  0  0
  1  9  1  0  0  0  0
  1  2  1  0  0  0  0
  2 11  1  0  0  0  0
  3  2  1  0  0  0  0
  3  6  1  1  0  0  0
  3 12  1  0  0  0  0
  4  5  1  0  0  0  0
  4  3  1  0  0  0  0
  5  6  1  0  0  0  0
  6  7  1  0  0  0  0
  6 15  1  1  0  0  0
  7 17  1  0  0  0  0
  8  7  1  0  0  0  0
 10  2  1  0  0  0  0
 13  4  1  0  0  0  0
 14  4  1  0  0  0  0
 16  7  1  0  0  0  0
 18  8  1  0  0  0  0
M  END
