17
title
N 0.08403326 -3.2082925 -0.0043465765
C 0.01013371 -2.0519488 -0.0048951795
C -0.031881697 -0.6225567 -0.005094014
C -1.2131548 0.01411818 0.013038575
C -1.3484247 1.5092463 0.04441587
C -0.025923427 2.2146163 0.3775198
C 1.1376438 1.5815125 -0.39428887
C 1.3023336 0.10112904 -0.026148936
H -2.1280813 -0.5716808 0.0042123543
H -1.7277986 1.8475449 -0.93185383
H -2.1275246 1.785181 0.76586574
H -0.104341134 3.2829132 0.15323952
H 0.16705777 2.1309252 1.4545275
H 0.94740254 1.667443 -1.4717251
H 2.0714111 2.116562 -0.19504958
H 1.7775825 0.00083397323 0.959167
H 1.973583 -0.39965883 -0.73216766
