title
 OpenBabel02282110003D

 18 18  0  0  0  0  0  0  0  0999 V2000
    0.1077   -3.2707   -0.0066 C   0  0  0  0  0  0  0  0  0  0  0  0
    0.0058   -2.0696   -0.0074 C   0  0  0  0  0  0  0  0  0  0  0  0
   -0.0456   -0.6465   -0.0093 C   0  0  0  0  0  0  0  0  0  0  0  0
   -1.2184    0.0090    0.0106 C   0  0  0  0  0  0  0  0  0  0  0  0
   -1.3448    1.5067    0.0446 C   0  0  0  0  0  0  0  0  0  0  0  0
   -0.0193    2.2016    0.3858 C   0  0  0  0  0  0  0  0  0  0  0  0
    1.1387    1.5645   -0.3900 C   0  0  0  0  0  0  0  0  0  0  0  0
    1.2894    0.0811   -0.0299 C   0  0  0  0  0  0  0  0  0  0  0  0
    0.1778   -4.3299   -0.0043 H   0  0  0  0  0  0  0  0  0  0  0  0
   -2.1393   -0.5677    0.0030 H   0  0  0  0  0  0  0  0  0  0  0  0
   -1.7158    1.8579   -0.9309 H   0  0  0  0  0  0  0  0  0  0  0  0
   -2.1229    1.7895    0.7652 H   0  0  0  0  0  0  0  0  0  0  0  0
   -0.0890    3.2730    0.1712 H   0  0  0  0  0  0  0  0  0  0  0  0
    0.1728    2.1063    1.4623 H   0  0  0  0  0  0  0  0  0  0  0  0
    0.9465    1.6587   -1.4667 H   0  0  0  0  0  0  0  0  0  0  0  0
    2.0771    2.0925   -0.1903 H   0  0  0  0  0  0  0  0  0  0  0  0
    1.7666   -0.0266    0.9542 H   0  0  0  0  0  0  0  0  0  0  0  0
    1.9579   -0.4207   -0.7382 H   0  0  0  0  0  0  0  0  0  0  0  0
  1  9  1  0  0  0  0
  2  1  3  0  0  0  0
  3  2  1  0  0  0  0
  3  4  2  0  0  0  0
  4  5  1  0  0  0  0
  5  6  1  0  0  0  0
  5 12  1  0  0  0  0
  6 14  1  0  0  0  0
  7 16  1  0  0  0  0
  7  8  1  0  0  0  0
  7  6  1  0  0  0  0
  8  3  1  0  0  0  0
  8 17  1  0  0  0  0
 10  4  1  0  0  0  0
 11  5  1  0  0  0  0
 13  6  1  0  0  0  0
 15  7  1  0  0  0  0
 18  8  1  0  0  0  0
M  END
