18
title
C 0.107675746 -3.2706788 -0.0065511996
C 0.00576989 -2.0695515 -0.0074158283
C -0.04560492 -0.6464746 -0.009319559
C -1.2183712 0.008979442 0.010582008
C -1.3448396 1.506684 0.04462304
C -0.019296898 2.2016408 0.3858091
C 1.1386839 1.5645322 -0.38998306
C 1.2893882 0.08106387 -0.029888878
H 0.17781878 -4.3298974 -0.0042610797
H -2.1393008 -0.56769514 0.003010957
H -1.7157546 1.8579432 -0.93087375
H -2.122917 1.7895492 0.765244
H -0.088962436 3.2730477 0.17115845
H 0.17283572 2.1062505 1.4622821
H 0.94654316 1.6587356 -1.4667357
H 2.0771048 2.092459 -0.19029795
H 1.7666011 -0.026609061 0.9541952
H 1.9578694 -0.42072558 -0.73817056
