title
 OpenBabel02282110003D

 14 14  0  0  0  0  0  0  0  0999 V2000
    0.0941   -3.1259    0.0481 N   0  0  0  0  0  0  0  0  0  0  0  0
    0.0153   -1.9742    0.0103 C   0  0  0  0  0  0  0  0  0  0  0  0
   -0.0851   -0.5285   -0.0348 C   0  0  0  0  0  0  0  0  0  0  0  0
   -1.2277    0.0158    0.0077 N   0  0  0  0  0  0  0  0  0  0  0  0
   -1.2958    1.4741    0.0226 C   0  0  0  0  0  0  0  0  0  0  0  0
    0.0271    2.1336    0.4245 C   0  0  0  0  0  0  0  0  0  0  0  0
    1.1600    1.4557   -0.3339 C   0  0  0  0  0  0  0  0  0  0  0  0
    1.1441    0.0313   -0.1166 O   0  0  0  0  0  0  0  0  0  0  0  0
   -1.6110    1.8065   -0.9755 H   0  0  0  0  0  0  0  0  0  0  0  0
   -2.1019    1.7597    0.7059 H   0  0  0  0  0  0  0  0  0  0  0  0
    0.0204    3.2057    0.2061 H   0  0  0  0  0  0  0  0  0  0  0  0
    0.1922    2.0164    1.5011 H   0  0  0  0  0  0  0  0  0  0  0  0
    1.0744    1.6344   -1.4131 H   0  0  0  0  0  0  0  0  0  0  0  0
    2.1467    1.7857   -0.0045 H   0  0  0  0  0  0  0  0  0  0  0  0
  2  1  3  0  0  0  0
  3  4  2  0  0  0  0
  3  2  1  0  0  0  0
  4  5  1  0  0  0  0
  5  6  1  0  0  0  0
  5 10  1  0  0  0  0
  6 12  1  0  0  0  0
  7  8  1  0  0  0  0
  7 14  1  0  0  0  0
  7  6  1  0  0  0  0
  8  3  1  0  0  0  0
  9  5  1  0  0  0  0
 11  6  1  0  0  0  0
 13  7  1  0  0  0  0
M  END
