15
title
N 0.091983184 -3.2056687 0.037769105
C -0.012790749 -2.052139 0.009463779
C -0.08377195 -0.62812996 -0.021640461
C -1.255267 0.022241326 -0.01921984
C -1.3174582 1.5215499 0.005454381
C 0.046256382 2.1020925 0.38850242
O 1.0804075 1.4842057 -0.360662
C 1.2387658 0.12135264 -0.04771647
H -2.185447 -0.5373578 -0.027564203
H -1.6280092 1.8946068 -0.9800261
H -2.0851266 1.8539126 0.7151719
H 0.10291366 3.1704895 0.1672467
H 0.22195329 1.9660394 1.4677395
H 1.749752 -0.008799818 0.9224039
H 1.8919846 -0.30274907 -0.81694514
