14
title
N 0.094129585 -3.1259127 0.04805328
C 0.015258249 -1.9741795 0.010293311
C -0.08514302 -0.5285081 -0.034774102
N -1.2276589 0.01577323 0.007716478
C -1.2957879 1.4741255 0.022573428
C 0.027057912 2.1335683 0.42447573
C 1.1599784 1.4556831 -0.33394593
O 1.1440955 0.031328134 -0.11661682
H -1.6109672 1.8064774 -0.97551763
H -2.1018846 1.7597364 0.70587057
H 0.020391427 3.2057424 0.20614147
H 0.19219437 2.0163827 1.5010574
H 1.0743685 1.6343704 -1.4130639
H 2.146695 1.7856897 -0.004506098
