title
 OpenBabel02282110003D

 15 15  0  0  0  0  0  0  0  0999 V2000
    0.1492   -3.1386    0.0945 N   0  0  0  0  0  0  0  0  0  0  0  0
    0.0228   -1.9916    0.0322 C   0  0  0  0  0  0  0  0  0  0  0  0
   -0.0824   -0.5451   -0.0514 C   0  0  0  0  0  0  0  0  0  0  0  0
   -1.2446   -0.0175    0.0264 N   0  0  0  0  0  0  0  0  0  0  0  0
   -1.2977    1.4403   -0.0445 C   0  0  0  0  0  0  0  0  0  0  0  0
   -0.0173    2.1305    0.4465 C   0  0  0  0  0  0  0  0  0  0  0  0
    1.2011    1.5400   -0.2695 C   0  0  0  0  0  0  0  0  0  0  0  0
    1.1232    0.0876   -0.2126 N   0  0  0  0  0  0  0  0  0  0  0  0
   -1.5081    1.7298   -1.0845 H   0  0  0  0  0  0  0  0  0  0  0  0
   -2.1589    1.7737    0.5433 H   0  0  0  0  0  0  0  0  0  0  0  0
   -0.0655    3.2094    0.2735 H   0  0  0  0  0  0  0  0  0  0  0  0
    0.0868    1.9729    1.5256 H   0  0  0  0  0  0  0  0  0  0  0  0
    1.2316    1.8826   -1.3135 H   0  0  0  0  0  0  0  0  0  0  0  0
    2.1317    1.8638    0.2070 H   0  0  0  0  0  0  0  0  0  0  0  0
    1.9629   -0.4650   -0.2264 H   0  0  0  0  0  0  0  0  0  0  0  0
  2  1  3  0  0  0  0
  3  4  2  0  0  0  0
  3  2  1  0  0  0  0
  5  4  1  0  0  0  0
  5  6  1  0  0  0  0
  5 10  1  0  0  0  0
  6 12  1  0  0  0  0
  7  8  1  0  0  0  0
  7 14  1  0  0  0  0
  7  6  1  0  0  0  0
  8  3  1  0  0  0  0
  9  5  1  0  0  0  0
 11  6  1  0  0  0  0
 13  7  1  0  0  0  0
 15  8  1  0  0  0  0
M  END
