15
title
C -0.56893915 -2.4320369 -1.0838838
C -0.5504638 -1.2322283 -1.0184668
C -0.52495325 0.224734 -0.93631005
C -1.2213782 0.7340594 0.33673814
O -0.4815792 0.39156884 1.5106171
C 0.867903 0.47133905 1.3993133
N 1.5779136 0.67018634 0.37374392
C 0.9186177 0.78791577 -0.91931987
H -0.5836244 -3.4921381 -1.1446967
H -1.0611268 0.636898 -1.8004422
H -1.3193939 1.8260261 0.28584507
H -2.211692 0.29434603 0.46444634
H 1.3252347 0.32526046 2.3758497
H 1.5297602 0.26879126 -1.6634287
H 0.8976126 1.8456825 -1.2118251
