16
title
C -0.2637005 -3.1242766 -0.46398595
C -0.25056294 -1.9238663 -0.4279941
C -0.28185248 -0.46659958 -0.36197993
C -0.98171604 0.047907606 0.9106877
C -0.7683318 1.5328933 1.038603
C 0.17410953 2.1635237 0.3427119
C 1.1141634 1.4264263 -0.5701319
O 1.0569403 0.019503012 -0.41697568
H -0.26473725 -4.185463 -0.50473446
H -0.83939815 -0.08622871 -1.2356796
H -2.0507886 -0.18943809 0.85745573
H -0.5863728 -0.4857459 1.7839586
H -1.4206417 2.0807672 1.7129723
H 0.3018717 3.2407026 0.40728346
H 0.91988635 1.7099179 -1.6215256
H 2.1530178 1.7048265 -0.35695416
