title
 OpenBabel02282110003D

 14 14  0  0  1  0  0  0  0  0999 V2000
   -0.6668   -2.3742   -1.0731 N   0  0  0  0  0  0  0  0  0  0  0  0
   -0.5901   -1.2248   -0.9875 C   0  0  0  0  0  0  0  0  0  0  0  0
   -0.5241    0.2445   -0.8712 C   0  0  1  0  0  0  0  0  0  0  0  0
   -1.2255    0.7450    0.3991 C   0  0  0  0  0  0  0  0  0  0  0  0
   -0.4029    0.3241    1.6195 C   0  0  0  0  0  0  0  0  0  0  0  0
    1.0216    0.6036    1.4643 N   0  0  0  0  0  0  0  0  0  0  0  0
    1.4815    0.7530    0.3013 C   0  0  0  0  0  0  0  0  0  0  0  0
    0.8420    0.6688   -0.9071 O   0  0  0  0  0  0  0  0  0  0  0  0
   -0.9848    0.6707   -1.7672 H   0  0  0  0  0  0  0  0  0  0  0  0
   -1.2779    1.8366    0.3361 H   0  0  0  0  0  0  0  0  0  0  0  0
   -2.2476    0.3589    0.4392 H   0  0  0  0  0  0  0  0  0  0  0  0
   -0.7563    0.8467    2.5137 H   0  0  0  0  0  0  0  0  0  0  0  0
   -0.5273   -0.7480    1.8174 H   0  0  0  0  0  0  0  0  0  0  0  0
    2.5280    0.9932    0.1289 H   0  0  0  0  0  0  0  0  0  0  0  0
  1  2  3  0  0  0  0
  2  3  1  0  0  0  0
  3  9  1  6  0  0  0
  3  4  1  0  0  0  0
  4 11  1  0  0  0  0
  4  5  1  0  0  0  0
  5 13  1  0  0  0  0
  5 12  1  0  0  0  0
  6  5  1  0  0  0  0
  7  6  2  0  0  0  0
  8  3  1  0  0  0  0
  8  7  1  0  0  0  0
 10  4  1  0  0  0  0
 14  7  1  0  0  0  0
M  END
