title
 OpenBabel02282110003D

 16 16  0  0  1  0  0  0  0  0999 V2000
   -0.2559   -3.0881   -0.4238 N   0  0  0  0  0  0  0  0  0  0  0  0
   -0.2515   -1.9329   -0.4221 C   0  0  0  0  0  0  0  0  0  0  0  0
   -0.2629   -0.4651   -0.3753 C   0  0  1  0  0  0  0  0  0  0  0  0
   -0.9880    0.0437    0.8935 C   0  0  0  0  0  0  0  0  0  0  0  0
   -0.7713    1.5274    1.0480 C   0  0  0  0  0  0  0  0  0  0  0  0
    0.1639    2.1928    0.3726 C   0  0  0  0  0  0  0  0  0  0  0  0
    1.1191    1.5136   -0.5779 C   0  0  0  0  0  0  0  0  0  0  0  0
    1.1034    0.0483   -0.5149 N   0  0  0  0  0  0  0  0  0  0  0  0
   -0.8236   -0.1145   -1.2522 H   0  0  0  0  0  0  0  0  0  0  0  0
   -2.0585   -0.1844    0.8260 H   0  0  0  0  0  0  0  0  0  0  0  0
   -0.6197   -0.5001    1.7743 H   0  0  0  0  0  0  0  0  0  0  0  0
   -1.4280    2.0500    1.7381 H   0  0  0  0  0  0  0  0  0  0  0  0
    0.2619    3.2701    0.4819 H   0  0  0  0  0  0  0  0  0  0  0  0
    0.9000    1.8257   -1.6107 H   0  0  0  0  0  0  0  0  0  0  0  0
    2.1464    1.8430   -0.3842 H   0  0  0  0  0  0  0  0  0  0  0  0
    1.6482   -0.2603    0.2850 H   0  0  0  0  0  0  0  0  0  0  0  0
  1  2  3  0  0  0  0
  2  3  1  0  0  0  0
  3  9  1  6  0  0  0
  3  4  1  0  0  0  0
  4  5  1  0  0  0  0
  4 11  1  0  0  0  0
  5 12  1  0  0  0  0
  6 13  1  0  0  0  0
  6  5  2  0  0  0  0
  7  8  1  0  0  0  0
  7 15  1  0  0  0  0
  7  6  1  0  0  0  0
  8  3  1  0  0  0  0
  8 16  1  0  0  0  0
 10  4  1  0  0  0  0
 14  7  1  0  0  0  0
M  END
