15
title
C -0.646041 -2.4420774 -1.0761578
C -0.5846775 -1.2451438 -0.9932895
C -0.5352937 0.21283536 -0.8824075
C -1.2349637 0.73232776 0.38238057
C -0.41363865 0.32404608 1.6071393
N 1.0084289 0.6205216 1.4578903
C 1.4647183 0.7671272 0.29044947
O 0.83440113 0.66874164 -0.9127102
H -0.69360983 -3.5003207 -1.156879
H -0.988046 0.653418 -1.7762322
H -1.2897674 1.8240664 0.3133776
H -2.2561154 0.34411246 0.42744693
H -0.7769926 0.8413256 2.501047
H -0.5276488 -0.7500873 1.8004737
H 2.5099142 1.0219438 0.124692045
