title
 OpenBabel02282110003D

 15 15  0  0  1  0  0  0  0  0999 V2000
   -0.6460   -2.4421   -1.0762 C   0  0  0  0  0  0  0  0  0  0  0  0
   -0.5847   -1.2451   -0.9933 C   0  0  0  0  0  0  0  0  0  0  0  0
   -0.5353    0.2128   -0.8824 C   0  0  1  0  0  0  0  0  0  0  0  0
   -1.2350    0.7323    0.3824 C   0  0  0  0  0  0  0  0  0  0  0  0
   -0.4136    0.3240    1.6071 C   0  0  0  0  0  0  0  0  0  0  0  0
    1.0084    0.6205    1.4579 N   0  0  0  0  0  0  0  0  0  0  0  0
    1.4647    0.7671    0.2904 C   0  0  0  0  0  0  0  0  0  0  0  0
    0.8344    0.6687   -0.9127 O   0  0  0  0  0  0  0  0  0  0  0  0
   -0.6936   -3.5003   -1.1569 H   0  0  0  0  0  0  0  0  0  0  0  0
   -0.9880    0.6534   -1.7762 H   0  0  0  0  0  0  0  0  0  0  0  0
   -1.2898    1.8241    0.3134 H   0  0  0  0  0  0  0  0  0  0  0  0
   -2.2561    0.3441    0.4274 H   0  0  0  0  0  0  0  0  0  0  0  0
   -0.7770    0.8413    2.5010 H   0  0  0  0  0  0  0  0  0  0  0  0
   -0.5276   -0.7501    1.8005 H   0  0  0  0  0  0  0  0  0  0  0  0
    2.5099    1.0219    0.1247 H   0  0  0  0  0  0  0  0  0  0  0  0
  1  2  3  0  0  0  0
  2  3  1  0  0  0  0
  3 10  1  6  0  0  0
  3  4  1  0  0  0  0
  4 12  1  0  0  0  0
  4  5  1  0  0  0  0
  5 14  1  0  0  0  0
  5 13  1  0  0  0  0
  6  5  1  0  0  0  0
  7  6  2  0  0  0  0
  8  3  1  0  0  0  0
  8  7  1  0  0  0  0
  9  1  1  0  0  0  0
 11  4  1  0  0  0  0
 15  7  1  0  0  0  0
M  END
