title
 OpenBabel02282110003D

 16 16  0  0  1  0  0  0  0  0999 V2000
   -0.2637   -3.1243   -0.4640 C   0  0  0  0  0  0  0  0  0  0  0  0
   -0.2506   -1.9239   -0.4280 C   0  0  0  0  0  0  0  0  0  0  0  0
   -0.2819   -0.4666   -0.3620 C   0  0  1  0  0  0  0  0  0  0  0  0
   -0.9817    0.0479    0.9107 C   0  0  0  0  0  0  0  0  0  0  0  0
   -0.7683    1.5329    1.0386 C   0  0  0  0  0  0  0  0  0  0  0  0
    0.1741    2.1635    0.3427 C   0  0  0  0  0  0  0  0  0  0  0  0
    1.1142    1.4264   -0.5701 C   0  0  0  0  0  0  0  0  0  0  0  0
    1.0569    0.0195   -0.4170 O   0  0  0  0  0  0  0  0  0  0  0  0
   -0.2647   -4.1855   -0.5047 H   0  0  0  0  0  0  0  0  0  0  0  0
   -0.8394   -0.0862   -1.2357 H   0  0  0  0  0  0  0  0  0  0  0  0
   -2.0508   -0.1894    0.8575 H   0  0  0  0  0  0  0  0  0  0  0  0
   -0.5864   -0.4857    1.7840 H   0  0  0  0  0  0  0  0  0  0  0  0
   -1.4206    2.0808    1.7130 H   0  0  0  0  0  0  0  0  0  0  0  0
    0.3019    3.2407    0.4073 H   0  0  0  0  0  0  0  0  0  0  0  0
    0.9199    1.7099   -1.6215 H   0  0  0  0  0  0  0  0  0  0  0  0
    2.1530    1.7048   -0.3570 H   0  0  0  0  0  0  0  0  0  0  0  0
  1  2  3  0  0  0  0
  2  3  1  0  0  0  0
  3 10  1  6  0  0  0
  3  4  1  0  0  0  0
  4  5  1  0  0  0  0
  4 12  1  0  0  0  0
  5 13  1  0  0  0  0
  6 14  1  0  0  0  0
  6  5  2  0  0  0  0
  7  8  1  0  0  0  0
  7 16  1  0  0  0  0
  7  6  1  0  0  0  0
  8  3  1  0  0  0  0
  9  1  1  0  0  0  0
 11  4  1  0  0  0  0
 15  7  1  0  0  0  0
M  END
