17
title
N -0.6060982 -2.2846704 -1.1553928
C -0.55945486 -1.1342509 -1.0509803
C -0.5149803 0.32618853 -0.9170748
C -1.2381134 0.7783723 0.3732446
C -0.53492033 0.24403857 1.6272904
C 0.9606946 0.40161213 1.5464071
C 1.614125 0.67706513 0.4186215
C 0.94481725 0.8418437 -0.9210995
H -1.0395523 0.737131 -1.7870711
H -1.2281433 1.8741624 0.38197264
H -2.2847023 0.4620236 0.35023007
H -0.91823554 0.76593673 2.5123055
H -0.7845772 -0.81577665 1.777495
H 1.5181115 0.271028 2.4704676
H 2.6950192 0.7897879 0.43285117
H 1.5189741 0.3233975 -1.6969109
H 0.9360108 1.9012973 -1.212336
