title
 OpenBabel02282110003D

 14 14  0  0  1  0  0  0  0  0999 V2000
   -0.5729   -2.3746   -1.0839 N   0  0  0  0  0  0  0  0  0  0  0  0
   -0.5467   -1.2218   -1.0083 C   0  0  0  0  0  0  0  0  0  0  0  0
   -0.5193    0.2400   -0.9252 C   0  0  1  0  0  0  0  0  0  0  0  0
   -1.2165    0.7379    0.3521 C   0  0  0  0  0  0  0  0  0  0  0  0
   -0.4753    0.3863    1.5184 O   0  0  0  0  0  0  0  0  0  0  0  0
    0.8754    0.4775    1.4106 C   0  0  0  0  0  0  0  0  0  0  0  0
    1.5824    0.6801    0.3838 N   0  0  0  0  0  0  0  0  0  0  0  0
    0.9296    0.7908   -0.9099 C   0  0  0  0  0  0  0  0  0  0  0  0
   -1.0584    0.6318   -1.7951 H   0  0  0  0  0  0  0  0  0  0  0  0
   -1.3100    1.8297    0.2995 H   0  0  0  0  0  0  0  0  0  0  0  0
   -2.2088    0.3022    0.4773 H   0  0  0  0  0  0  0  0  0  0  0  0
    1.3327    0.3338    2.3868 H   0  0  0  0  0  0  0  0  0  0  0  0
    1.5402    0.2647   -1.6497 H   0  0  0  0  0  0  0  0  0  0  0  0
    0.9081    1.8449   -1.2130 H   0  0  0  0  0  0  0  0  0  0  0  0
  1  2  3  0  0  0  0
  2  3  1  0  0  0  0
  3  9  1  6  0  0  0
  3  8  1  0  0  0  0
  3  4  1  0  0  0  0
  4 11  1  0  0  0  0
  4  5  1  0  0  0  0
  6  5  1  0  0  0  0
  6 12  1  0  0  0  0
  7  6  2  0  0  0  0
  8  7  1  0  0  0  0
 10  4  1  0  0  0  0
 13  8  1  0  0  0  0
 14  8  1  0  0  0  0
M  END
