title
 OpenBabel02282110003D

 20 20  0  0  0  0  0  0  0  0999 V2000
   -0.2523   -3.2062   -0.5181 C   0  0  0  0  0  0  0  0  0  0  0  0
   -0.2643   -2.0037   -0.5059 C   0  0  0  0  0  0  0  0  0  0  0  0
   -0.2657   -0.5448   -0.4666 C   0  0  0  0  0  0  0  0  0  0  0  0
   -1.0190   -0.0101    0.7750 C   0  0  0  0  0  0  0  0  0  0  0  0
   -1.0175    1.5240    0.8128 C   0  0  0  0  0  0  0  0  0  0  0  0
    0.4078    2.0908    0.7514 C   0  0  0  0  0  0  0  0  0  0  0  0
    1.1653    1.5609   -0.4742 C   0  0  0  0  0  0  0  0  0  0  0  0
    1.1715    0.0269   -0.5164 C   0  0  0  0  0  0  0  0  0  0  0  0
   -0.2461   -4.2676   -0.5381 H   0  0  0  0  0  0  0  0  0  0  0  0
   -0.7980   -0.1814   -1.3590 H   0  0  0  0  0  0  0  0  0  0  0  0
   -2.0430   -0.3973    0.7771 H   0  0  0  0  0  0  0  0  0  0  0  0
   -0.5313   -0.4062    1.6749 H   0  0  0  0  0  0  0  0  0  0  0  0
   -1.5967    1.9072   -0.0391 H   0  0  0  0  0  0  0  0  0  0  0  0
   -1.5289    1.8734    1.7168 H   0  0  0  0  0  0  0  0  0  0  0  0
    0.3808    3.1861    0.7370 H   0  0  0  0  0  0  0  0  0  0  0  0
    0.9501    1.8040    1.6631 H   0  0  0  0  0  0  0  0  0  0  0  0
    0.6908    1.9458   -1.3877 H   0  0  0  0  0  0  0  0  0  0  0  0
    2.1948    1.9363   -0.4786 H   0  0  0  0  0  0  0  0  0  0  0  0
    1.7326   -0.3680    0.3403 H   0  0  0  0  0  0  0  0  0  0  0  0
    1.6785   -0.3345   -1.4168 H   0  0  0  0  0  0  0  0  0  0  0  0
  1  2  3  0  0  0  0
  2  3  1  0  0  0  0
  3  4  1  0  0  0  0
  4 11  1  0  0  0  0
  4  5  1  0  0  0  0
  4 12  1  0  0  0  0
  5 14  1  0  0  0  0
  6  5  1  0  0  0  0
  6 16  1  0  0  0  0
  7  6  1  0  0  0  0
  8  7  1  0  0  0  0
  8  3  1  0  0  0  0
  8 19  1  0  0  0  0
  9  1  1  0  0  0  0
 10  3  1  0  0  0  0
 13  5  1  0  0  0  0
 15  6  1  0  0  0  0
 17  7  1  0  0  0  0
 18  7  1  0  0  0  0
 20  8  1  0  0  0  0
M  END
