title
 OpenBabel02282110003D

 16 16  0  0  1  0  0  0  0  0999 V2000
   -0.3755   -2.9724   -0.7379 N   0  0  0  0  0  0  0  0  0  0  0  0
   -0.3514   -1.8189   -0.6808 C   0  0  0  0  0  0  0  0  0  0  0  0
   -0.3367   -0.3448   -0.6480 C   0  0  1  0  0  0  0  0  0  0  0  0
   -1.0429    0.1181    0.5450 N   0  0  0  0  0  0  0  0  0  0  0  0
   -0.8727    1.5533    0.7697 C   0  0  0  0  0  0  0  0  0  0  0  0
    0.5913    1.8358    1.1148 C   0  0  0  0  0  0  0  0  0  0  0  0
    1.5034    1.1418    0.1405 C   0  0  0  0  0  0  0  0  0  0  0  0
    1.0907    0.1692   -0.6663 C   0  0  0  0  0  0  0  0  0  0  0  0
   -0.8232   -0.0171   -1.5897 H   0  0  0  0  0  0  0  0  0  0  0  0
   -2.0243   -0.1243    0.4760 H   0  0  0  0  0  0  0  0  0  0  0  0
   -1.1590    2.1588   -0.1100 H   0  0  0  0  0  0  0  0  0  0  0  0
   -1.5283    1.8463    1.5945 H   0  0  0  0  0  0  0  0  0  0  0  0
    0.7770    2.9164    1.1007 H   0  0  0  0  0  0  0  0  0  0  0  0
    0.8110    1.4953    2.1352 H   0  0  0  0  0  0  0  0  0  0  0  0
    2.5398    1.4665    0.0981 H   0  0  0  0  0  0  0  0  0  0  0  0
    1.7562   -0.3034   -1.3806 H   0  0  0  0  0  0  0  0  0  0  0  0
  1  2  3  0  0  0  0
  2  3  1  0  0  0  0
  3  9  1  6  0  0  0
  3  4  1  0  0  0  0
  4  5  1  0  0  0  0
  5  6  1  0  0  0  0
  5 12  1  0  0  0  0
  6 14  1  0  0  0  0
  7  6  1  0  0  0  0
  8  3  1  0  0  0  0
  8  7  2  0  0  0  0
 10  4  1  0  0  0  0
 11  5  1  0  0  0  0
 13  6  1  0  0  0  0
 15  7  1  0  0  0  0
 16  8  1  0  0  0  0
M  END
