15
title
N -0.31431884 -2.950209 -0.68821615
C -0.33676976 -1.7964457 -0.65137833
C -0.33571294 -0.32190302 -0.6581699
O -1.061212 0.103653036 0.47758287
C -0.88079935 1.4886131 0.7553511
C 0.56891906 1.7885332 1.1344966
C 1.4963584 1.1546798 0.13328321
C 1.0860533 0.20449562 -0.7005468
H -0.8610933 -0.010824243 -1.5811585
H -1.1727202 2.0900714 -0.120082006
H -1.5715832 1.7157867 1.5703917
H 0.7261418 2.8735635 1.168066
H 0.7853254 1.4125307 2.1431313
H 2.5247629 1.502589 0.0940866
H 1.7386408 -0.23663633 -1.4466356
