16
title
N -0.3754511 -2.972355 -0.73788214
C -0.3513796 -1.8188986 -0.6807755
C -0.33665997 -0.34482867 -0.64802605
N -1.0428834 0.1181298 0.544953
C -0.87269837 1.5532898 0.76972103
C 0.59132075 1.8357972 1.1147811
C 1.5033984 1.1418456 0.14053673
C 1.0907452 0.16924734 -0.6662991
H -0.82315284 -0.017125063 -1.5897217
H -2.0242774 -0.124342136 0.47598135
H -1.1590346 2.1587846 -0.11002933
H -1.5282904 1.8462535 1.5944918
H 0.7769993 2.9164348 1.100717
H 0.81099695 1.4952668 2.135196
H 2.5397754 1.4664651 0.098108836
H 1.7562137 -0.30344158 -1.3805677
