15
title
N -0.38863117 -3.0091507 -0.735194
C -0.3496519 -1.8544357 -0.70536
C -0.30930603 -0.3919462 -0.6498268
C -1.0246238 0.12344253 0.62333703
O -0.8469708 1.5153775 0.743361
C 0.5005032 1.8801937 0.9842458
C 1.4739825 1.1567011 0.09781285
C 1.1169746 0.12956262 -0.6663485
H -0.85144854 -0.017144563 -1.5291424
H -2.1001375 -0.05635381 0.5639299
H -0.62836635 -0.4100386 1.5004823
H 0.5560385 2.9610972 0.81230617
H 0.76404214 1.7112997 2.0440247
H 2.5003402 1.5128696 0.10666217
H 1.8272035 -0.37340093 -1.3137536
