title
 OpenBabel02282110003D

 15 15  0  0  1  0  0  0  0  0999 V2000
   -0.3886   -3.0092   -0.7352 N   0  0  0  0  0  0  0  0  0  0  0  0
   -0.3497   -1.8544   -0.7054 C   0  0  0  0  0  0  0  0  0  0  0  0
   -0.3093   -0.3919   -0.6498 C   0  0  1  0  0  0  0  0  0  0  0  0
   -1.0246    0.1234    0.6233 C   0  0  0  0  0  0  0  0  0  0  0  0
   -0.8470    1.5154    0.7434 O   0  0  0  0  0  0  0  0  0  0  0  0
    0.5005    1.8802    0.9842 C   0  0  0  0  0  0  0  0  0  0  0  0
    1.4740    1.1567    0.0978 C   0  0  0  0  0  0  0  0  0  0  0  0
    1.1170    0.1296   -0.6663 C   0  0  0  0  0  0  0  0  0  0  0  0
   -0.8514   -0.0171   -1.5291 H   0  0  0  0  0  0  0  0  0  0  0  0
   -2.1001   -0.0564    0.5639 H   0  0  0  0  0  0  0  0  0  0  0  0
   -0.6284   -0.4100    1.5005 H   0  0  0  0  0  0  0  0  0  0  0  0
    0.5560    2.9611    0.8123 H   0  0  0  0  0  0  0  0  0  0  0  0
    0.7640    1.7113    2.0440 H   0  0  0  0  0  0  0  0  0  0  0  0
    2.5003    1.5129    0.1067 H   0  0  0  0  0  0  0  0  0  0  0  0
    1.8272   -0.3734   -1.3138 H   0  0  0  0  0  0  0  0  0  0  0  0
  1  2  3  0  0  0  0
  2  3  1  0  0  0  0
  3  9  1  6  0  0  0
  3  4  1  0  0  0  0
  4  5  1  0  0  0  0
  4 11  1  0  0  0  0
  5  6  1  0  0  0  0
  6 13  1  0  0  0  0
  7 14  1  0  0  0  0
  7  6  1  0  0  0  0
  8  3  1  0  0  0  0
  8  7  2  0  0  0  0
 10  4  1  0  0  0  0
 12  6  1  0  0  0  0
 15  8  1  0  0  0  0
M  END
