20
title
C -0.2522921 -3.2061787 -0.51810706
C -0.2642627 -2.0036523 -0.5058556
C -0.26571456 -0.5448247 -0.4665751
C -1.0190413 -0.010074637 0.7750492
C -1.0175276 1.5240471 0.8127525
C 0.40782428 2.0907688 0.75142014
C 1.165309 1.560904 -0.47415334
C 1.1715394 0.026911236 -0.51635784
H -0.24607275 -4.267558 -0.53808194
H -0.79796016 -0.18137719 -1.3590032
H -2.0429883 -0.39732614 0.7771472
H -0.531291 -0.40624872 1.6748661
H -1.5967116 1.907243 -0.039055556
H -1.5288941 1.8733597 1.7167538
H 0.38082272 3.1861086 0.7369975
H 0.9501474 1.8039896 1.6630834
H 0.69075817 1.9458432 -1.3876598
H 2.1947868 1.936254 -0.47858292
H 1.7325863 -0.3679749 0.34027037
H 1.678549 -0.3345193 -1.4167699
