17
title
N -0.37046143 -3.0155432 -0.71349686
C -0.3557769 -1.8603741 -0.677451
C -0.33896565 -0.3940609 -0.6276321
C -1.1167725 0.12479226 0.6047639
C -0.8875174 1.6292168 0.7798776
C 0.59778047 1.9377431 1.0158947
C 1.4919152 1.160339 0.08689022
C 1.0877725 0.12986486 -0.6522359
H -0.8548534 -0.05206115 -1.5379975
H -2.180205 -0.10353394 0.48953325
H -0.76642966 -0.41183478 1.4935948
H -1.2297851 2.1539788 -0.12121183
H -1.4914471 2.0057476 1.6113206
H 0.78667 3.0114744 0.8955938
H 0.8735953 1.7084006 2.055779
H 2.5311646 1.4745547 0.025593758
H 1.7782779 -0.38349444 -1.3141612
