title
 OpenBabel02282110003D

 17 17  0  0  1  0  0  0  0  0999 V2000
   -0.2866   -3.0854   -0.5457 N   0  0  0  0  0  0  0  0  0  0  0  0
   -0.2588   -1.9317   -0.5073 C   0  0  0  0  0  0  0  0  0  0  0  0
   -0.2812   -0.4636   -0.4438 C   0  0  1  0  0  0  0  0  0  0  0  0
   -1.0407    0.0366    0.7999 C   0  0  0  0  0  0  0  0  0  0  0  0
   -0.9686    1.5688    0.8604 C   0  0  0  0  0  0  0  0  0  0  0  0
    0.4884    2.0384    0.7445 C   0  0  0  0  0  0  0  0  0  0  0  0
    1.1458    1.4097   -0.4839 C   0  0  0  0  0  0  0  0  0  0  0  0
    1.0611   -0.0125   -0.4578 O   0  0  0  0  0  0  0  0  0  0  0  0
   -0.8046   -0.1028   -1.3477 H   0  0  0  0  0  0  0  0  0  0  0  0
   -2.0766   -0.3150    0.7614 H   0  0  0  0  0  0  0  0  0  0  0  0
   -0.5730   -0.4045    1.6867 H   0  0  0  0  0  0  0  0  0  0  0  0
   -1.5565    1.9929    0.0349 H   0  0  0  0  0  0  0  0  0  0  0  0
   -1.4234    1.9299    1.7878 H   0  0  0  0  0  0  0  0  0  0  0  0
    0.5446    3.1301    0.6730 H   0  0  0  0  0  0  0  0  0  0  0  0
    1.0489    1.7387    1.6380 H   0  0  0  0  0  0  0  0  0  0  0  0
    0.6732    1.7921   -1.4049 H   0  0  0  0  0  0  0  0  0  0  0  0
    2.2135    1.6374   -0.5336 H   0  0  0  0  0  0  0  0  0  0  0  0
  1  2  3  0  0  0  0
  2  3  1  0  0  0  0
  3  9  1  6  0  0  0
  3  4  1  0  0  0  0
  4  5  1  0  0  0  0
  4 11  1  0  0  0  0
  5 13  1  0  0  0  0
  6  5  1  0  0  0  0
  6 15  1  0  0  0  0
  7  8  1  0  0  0  0
  7  6  1  0  0  0  0
  8  3  1  0  0  0  0
 10  4  1  0  0  0  0
 12  5  1  0  0  0  0
 14  6  1  0  0  0  0
 16  7  1  0  0  0  0
 17  7  1  0  0  0  0
M  END
