16
title
C -0.26871413 -3.1836238 -0.53900105
C -0.2916765 -1.9815769 -0.54373425
C -0.2988188 -0.5278054 -0.51498055
C -1.0094147 0.019461544 0.7446175
O -0.91624194 1.4325799 0.78310996
C 0.42103878 1.8569998 0.75682575
O 1.0882525 1.4660314 -0.41411635
C 1.1332173 0.055223137 -0.53518784
H -0.25694448 -4.2454886 -0.5488882
H -0.82922614 -0.13721439 -1.3920516
H -2.0716465 -0.2329782 0.73934597
H -0.54978716 -0.4244152 1.6427448
H 0.41201946 2.9480565 0.77220684
H 0.9563 1.4615668 1.6419632
H 1.7169933 -0.3866181 0.28876698
H 1.6380416 -0.17105481 -1.4764864
