title
 OpenBabel02282110003D

 16 16  0  0  0  0  0  0  0  0999 V2000
   -0.2799   -3.0977   -0.5628 C   0  0  0  0  0  0  0  0  0  0  0  0
   -0.2535   -1.9012   -0.4842 C   0  0  0  0  0  0  0  0  0  0  0  0
   -0.2481   -0.4414   -0.4336 C   0  0  0  0  0  0  0  0  0  0  0  0
   -0.9297   -0.0242    0.7270 O   0  0  0  0  0  0  0  0  0  0  0  0
   -0.9924    1.3969    0.8013 C   0  0  0  0  0  0  0  0  0  0  0  0
    0.4145    1.9966    0.7601 C   0  0  0  0  0  0  0  0  0  0  0  0
    1.1468    1.4326   -0.4592 C   0  0  0  0  0  0  0  0  0  0  0  0
    1.0866    0.0094   -0.4611 O   0  0  0  0  0  0  0  0  0  0  0  0
   -0.2966   -4.1582   -0.6211 H   0  0  0  0  0  0  0  0  0  0  0  0
   -0.7769   -0.0331   -1.3195 H   0  0  0  0  0  0  0  0  0  0  0  0
   -1.5958    1.7870   -0.0364 H   0  0  0  0  0  0  0  0  0  0  0  0
   -1.5137    1.6310    1.7324 H   0  0  0  0  0  0  0  0  0  0  0  0
    0.3664    3.0901    0.7093 H   0  0  0  0  0  0  0  0  0  0  0  0
    0.9554    1.7175    1.6700 H   0  0  0  0  0  0  0  0  0  0  0  0
    0.6967    1.8252   -1.3872 H   0  0  0  0  0  0  0  0  0  0  0  0
    2.2077    1.6932   -0.4603 H   0  0  0  0  0  0  0  0  0  0  0  0
  1  2  3  0  0  0  0
  2  3  1  0  0  0  0
  3  4  1  0  0  0  0
  4  5  1  0  0  0  0
  5 12  1  0  0  0  0
  6  5  1  0  0  0  0
  6 14  1  0  0  0  0
  7  6  1  0  0  0  0
  8  7  1  0  0  0  0
  8  3  1  0  0  0  0
  9  1  1  0  0  0  0
 10  3  1  0  0  0  0
 11  5  1  0  0  0  0
 13  6  1  0  0  0  0
 15  7  1  0  0  0  0
 16  7  1  0  0  0  0
M  END
