title
 OpenBabel02282110003D

 18 18  0  0  0  0  0  0  0  0999 V2000
   -0.2693   -3.2267   -0.5432 C   0  0  0  0  0  0  0  0  0  0  0  0
   -0.2815   -2.0244   -0.5296 C   0  0  0  0  0  0  0  0  0  0  0  0
   -0.2827   -0.5667   -0.4904 C   0  0  0  0  0  0  0  0  0  0  0  0
   -1.0150   -0.0180    0.7564 C   0  0  0  0  0  0  0  0  0  0  0  0
   -0.9211    1.5087    0.7918 C   0  0  0  0  0  0  0  0  0  0  0  0
    0.4217    1.9594    0.7631 O   0  0  0  0  0  0  0  0  0  0  0  0
    1.0969    1.5427   -0.4106 C   0  0  0  0  0  0  0  0  0  0  0  0
    1.1484    0.0184   -0.5326 C   0  0  0  0  0  0  0  0  0  0  0  0
   -0.2635   -4.2882   -0.5632 H   0  0  0  0  0  0  0  0  0  0  0  0
   -0.8186   -0.2006   -1.3795 H   0  0  0  0  0  0  0  0  0  0  0  0
   -2.0639   -0.3320    0.7516 H   0  0  0  0  0  0  0  0  0  0  0  0
   -0.5499   -0.4331    1.6573 H   0  0  0  0  0  0  0  0  0  0  0  0
   -1.4810    1.9369   -0.0590 H   0  0  0  0  0  0  0  0  0  0  0  0
   -1.3584    1.9053    1.7126 H   0  0  0  0  0  0  0  0  0  0  0  0
    0.6046    1.9719   -1.3017 H   0  0  0  0  0  0  0  0  0  0  0  0
    2.1047    1.9636   -0.3507 H   0  0  0  0  0  0  0  0  0  0  0  0
    1.7295   -0.3948    0.2992 H   0  0  0  0  0  0  0  0  0  0  0  0
    1.6509   -0.2695   -1.4618 H   0  0  0  0  0  0  0  0  0  0  0  0
  1  2  3  0  0  0  0
  2  3  1  0  0  0  0
  3  4  1  0  0  0  0
  4  5  1  0  0  0  0
  4 12  1  0  0  0  0
  5 14  1  0  0  0  0
  6  5  1  0  0  0  0
  7 16  1  0  0  0  0
  7  6  1  0  0  0  0
  8  3  1  0  0  0  0
  8  7  1  0  0  0  0
  8 17  1  0  0  0  0
  9  1  1  0  0  0  0
 10  3  1  0  0  0  0
 11  4  1  0  0  0  0
 13  5  1  0  0  0  0
 15  7  1  0  0  0  0
 18  8  1  0  0  0  0
M  END
