title
 OpenBabel02282110003D

 16 16  0  0  1  0  0  0  0  0999 V2000
   -0.2796   -3.1701   -0.5581 C   0  0  0  0  0  0  0  0  0  0  0  0
   -0.2664   -1.9698   -0.5263 C   0  0  0  0  0  0  0  0  0  0  0  0
   -0.2983   -0.5140   -0.4684 C   0  0  1  0  0  0  0  0  0  0  0  0
   -1.0386    0.0160    0.7755 C   0  0  0  0  0  0  0  0  0  0  0  0
   -0.8894    1.5386    0.8214 C   0  0  0  0  0  0  0  0  0  0  0  0
    0.4796    1.9094    0.7305 O   0  0  0  0  0  0  0  0  0  0  0  0
    1.0647    1.3850   -0.4291 C   0  0  0  0  0  0  0  0  0  0  0  0
    1.0437   -0.0201   -0.4697 O   0  0  0  0  0  0  0  0  0  0  0  0
   -0.2791   -4.2316   -0.5926 H   0  0  0  0  0  0  0  0  0  0  0  0
   -0.8132   -0.1338   -1.3696 H   0  0  0  0  0  0  0  0  0  0  0  0
   -2.0939   -0.2724    0.7395 H   0  0  0  0  0  0  0  0  0  0  0  0
   -0.5871   -0.4305    1.6659 H   0  0  0  0  0  0  0  0  0  0  0  0
   -1.4575    1.9995   -0.0053 H   0  0  0  0  0  0  0  0  0  0  0  0
   -1.2650    1.9509    1.7611 H   0  0  0  0  0  0  0  0  0  0  0  0
    0.5523    1.7902   -1.3242 H   0  0  0  0  0  0  0  0  0  0  0  0
    2.1144    1.6833   -0.4258 H   0  0  0  0  0  0  0  0  0  0  0  0
  1  2  3  0  0  0  0
  2  3  1  0  0  0  0
  3 10  1  6  0  0  0
  3  4  1  0  0  0  0
  4  5  1  0  0  0  0
  4 12  1  0  0  0  0
  5 14  1  0  0  0  0
  6  5  1  0  0  0  0
  7 16  1  0  0  0  0
  7  6  1  0  0  0  0
  8  3  1  0  0  0  0
  8  7  1  0  0  0  0
  9  1  1  0  0  0  0
 11  4  1  0  0  0  0
 13  5  1  0  0  0  0
 15  7  1  0  0  0  0
M  END
