16
title
C -0.2799231 -3.0976934 -0.5628031
C -0.25354823 -1.9011999 -0.4841544
C -0.24809653 -0.44141236 -0.43355605
O -0.9296893 -0.024248883 0.72698694
C -0.9923995 1.3969463 0.80128473
C 0.41454676 1.9966482 0.7600929
C 1.1467608 1.4326466 -0.4591697
O 1.0866194 0.009401038 -0.46107516
H -0.29656404 -4.158169 -0.6210799
H -0.7769064 -0.03312187 -1.3194575
H -1.5958358 1.7869502 -0.036424514
H -1.5136634 1.6310495 1.7324057
H 0.3663964 3.0900679 0.70934695
H 0.9553523 1.7175189 1.6700051
H 0.6966852 1.8252076 -1.3872446
H 2.2077222 1.6931573 -0.46034342
