title
 OpenBabel02282110003D

 16 16  0  0  1  0  0  0  0  0999 V2000
   -0.2764   -3.1424   -0.5390 C   0  0  0  0  0  0  0  0  0  0  0  0
   -0.2419   -1.9420   -0.5348 C   0  0  0  0  0  0  0  0  0  0  0  0
   -0.2553   -0.4862   -0.4934 C   0  0  1  0  0  0  0  0  0  0  0  0
   -0.9809    0.0357    0.7609 C   0  0  0  0  0  0  0  0  0  0  0  0
   -0.9410    1.4489    0.8000 O   0  0  0  0  0  0  0  0  0  0  0  0
    0.3968    1.9256    0.7817 C   0  0  0  0  0  0  0  0  0  0  0  0
    1.1211    1.4162   -0.4581 C   0  0  0  0  0  0  0  0  0  0  0  0
    1.0880   -0.0039   -0.5089 O   0  0  0  0  0  0  0  0  0  0  0  0
   -0.2961   -4.2042   -0.5547 H   0  0  0  0  0  0  0  0  0  0  0  0
   -0.7888   -0.0959   -1.3776 H   0  0  0  0  0  0  0  0  0  0  0  0
   -2.0336   -0.2573    0.7443 H   0  0  0  0  0  0  0  0  0  0  0  0
   -0.5002   -0.3984    1.6513 H   0  0  0  0  0  0  0  0  0  0  0  0
    0.3435    3.0183    0.7861 H   0  0  0  0  0  0  0  0  0  0  0  0
    0.9322    1.5923    1.6855 H   0  0  0  0  0  0  0  0  0  0  0  0
    0.6503    1.8408   -1.3598 H   0  0  0  0  0  0  0  0  0  0  0  0
    2.1771    1.7017   -0.4453 H   0  0  0  0  0  0  0  0  0  0  0  0
  1  2  3  0  0  0  0
  2  3  1  0  0  0  0
  3 10  1  6  0  0  0
  3  4  1  0  0  0  0
  4  5  1  0  0  0  0
  4 12  1  0  0  0  0
  6 13  1  0  0  0  0
  6  5  1  0  0  0  0
  6 14  1  0  0  0  0
  7 16  1  0  0  0  0
  7  6  1  0  0  0  0
  8  3  1  0  0  0  0
  8  7  1  0  0  0  0
  9  1  1  0  0  0  0
 11  4  1  0  0  0  0
 15  7  1  0  0  0  0
M  END
