19
title
N -0.25511104 -3.1410682 -0.52239656
C -0.2633178 -1.9852028 -0.50240797
C -0.2641135 -0.52196634 -0.4619508
C -1.0197724 0.00062762445 0.78283143
C -1.0132506 1.5346029 0.8209256
C 0.41344106 2.0978944 0.7600353
C 1.1693741 1.5712612 -0.46783882
C 1.1773523 0.03752922 -0.51455647
H -0.79902935 -0.17663218 -1.3579917
H -2.0440981 -0.3844427 0.78141606
H -0.53246623 -0.39827228 1.6810722
H -1.5934817 1.9198511 -0.02895911
H -1.5231512 1.8802917 1.7264202
H 0.3875999 3.1927812 0.74741185
H 0.9559378 1.8087785 1.6705794
H 0.6958033 1.9583223 -1.3806937
H 2.1995971 1.9428046 -0.47172678
H 1.7385294 -0.36021912 0.34002948
H 1.6800208 -0.32184887 -1.4177152
