16
title
C -0.27638105 -3.1424258 -0.5389897
C -0.24187876 -1.9419692 -0.5347544
C -0.25525236 -0.486243 -0.49344242
C -0.98091346 0.03566432 0.7608988
O -0.9409759 1.4488815 0.7999966
C 0.3968043 1.9255866 0.7817365
C 1.1211365 1.4162453 -0.45805627
O 1.0879955 -0.003853798 -0.5088797
H -0.29613298 -4.2041802 -0.5546623
H -0.7887671 -0.09587073 -1.3775617
H -2.0336404 -0.25734222 0.7443416
H -0.500173 -0.39837325 1.6513479
H 0.34354624 3.018308 0.7860805
H 0.9322024 1.5922679 1.6854563
H 0.6502758 1.8407663 -1.3597608
H 2.177064 1.7016705 -0.4452627
