title
 OpenBabel02282110003D

 16 16  0  0  0  0  0  0  0  0999 V2000
   -0.2687   -3.1836   -0.5390 C   0  0  0  0  0  0  0  0  0  0  0  0
   -0.2917   -1.9816   -0.5437 C   0  0  0  0  0  0  0  0  0  0  0  0
   -0.2988   -0.5278   -0.5150 C   0  0  0  0  0  0  0  0  0  0  0  0
   -1.0094    0.0195    0.7446 C   0  0  0  0  0  0  0  0  0  0  0  0
   -0.9162    1.4326    0.7831 O   0  0  0  0  0  0  0  0  0  0  0  0
    0.4210    1.8570    0.7568 C   0  0  0  0  0  0  0  0  0  0  0  0
    1.0883    1.4660   -0.4141 O   0  0  0  0  0  0  0  0  0  0  0  0
    1.1332    0.0552   -0.5352 C   0  0  0  0  0  0  0  0  0  0  0  0
   -0.2569   -4.2455   -0.5489 H   0  0  0  0  0  0  0  0  0  0  0  0
   -0.8292   -0.1372   -1.3921 H   0  0  0  0  0  0  0  0  0  0  0  0
   -2.0716   -0.2330    0.7393 H   0  0  0  0  0  0  0  0  0  0  0  0
   -0.5498   -0.4244    1.6427 H   0  0  0  0  0  0  0  0  0  0  0  0
    0.4120    2.9481    0.7722 H   0  0  0  0  0  0  0  0  0  0  0  0
    0.9563    1.4616    1.6420 H   0  0  0  0  0  0  0  0  0  0  0  0
    1.7170   -0.3866    0.2888 H   0  0  0  0  0  0  0  0  0  0  0  0
    1.6380   -0.1711   -1.4765 H   0  0  0  0  0  0  0  0  0  0  0  0
  2  1  3  0  0  0  0
  2  3  1  0  0  0  0
  3  4  1  0  0  0  0
  4  5  1  0  0  0  0
  4 12  1  0  0  0  0
  6 13  1  0  0  0  0
  6  5  1  0  0  0  0
  6 14  1  0  0  0  0
  7  6  1  0  0  0  0
  8  3  1  0  0  0  0
  8  7  1  0  0  0  0
  8 15  1  0  0  0  0
  9  1  1  0  0  0  0
 10  3  1  0  0  0  0
 11  4  1  0  0  0  0
 16  8  1  0  0  0  0
M  END
