title
 OpenBabel02282110003D

 18 18  0  0  0  0  0  0  0  0999 V2000
   -1.9240   -2.1522    0.0011 O   0  0  0  0  0  0  0  0  0  0  0  0
   -1.8492   -0.9436    0.0169 C   0  0  0  0  0  0  0  0  0  0  0  0
   -0.5874   -0.1838    0.0124 C   0  0  0  0  0  0  0  0  0  0  0  0
   -0.6464    1.1572    0.0213 C   0  0  0  0  0  0  0  0  0  0  0  0
    0.5597    2.0496    0.0320 C   0  0  0  0  0  0  0  0  0  0  0  0
    1.8535    1.2802    0.3421 C   0  0  0  0  0  0  0  0  0  0  0  0
    1.8931   -0.0550   -0.4126 C   0  0  0  0  0  0  0  0  0  0  0  0
    0.7129   -0.9491   -0.0093 C   0  0  0  0  0  0  0  0  0  0  0  0
   -2.7665   -0.3110    0.0364 H   0  0  0  0  0  0  0  0  0  0  0  0
   -1.6239    1.6386    0.0134 H   0  0  0  0  0  0  0  0  0  0  0  0
    0.6346    2.5462   -0.9478 H   0  0  0  0  0  0  0  0  0  0  0  0
    0.4080    2.8635    0.7525 H   0  0  0  0  0  0  0  0  0  0  0  0
    2.7235    1.8958    0.0916 H   0  0  0  0  0  0  0  0  0  0  0  0
    1.9059    1.0849    1.4208 H   0  0  0  0  0  0  0  0  0  0  0  0
    1.8498    0.1392   -1.4924 H   0  0  0  0  0  0  0  0  0  0  0  0
    2.8386   -0.5740   -0.2251 H   0  0  0  0  0  0  0  0  0  0  0  0
    0.8866   -1.3866    0.9836 H   0  0  0  0  0  0  0  0  0  0  0  0
    0.6100   -1.8050   -0.6843 H   0  0  0  0  0  0  0  0  0  0  0  0
  1  2  2  0  0  0  0
  2  9  1  0  0  0  0
  3  2  1  0  0  0  0
  3  4  2  0  0  0  0
  4  5  1  0  0  0  0
  5  6  1  0  0  0  0
  5 12  1  0  0  0  0
  6 14  1  0  0  0  0
  7 16  1  0  0  0  0
  7  8  1  0  0  0  0
  7  6  1  0  0  0  0
  8  3  1  0  0  0  0
  8 17  1  0  0  0  0
 10  4  1  0  0  0  0
 11  5  1  0  0  0  0
 13  6  1  0  0  0  0
 15  7  1  0  0  0  0
 18  8  1  0  0  0  0
M  END
