15
title
N -0.26528993 -3.1240132 -0.5318373
C -0.28437883 -1.9682733 -0.5314979
C -0.29379034 -0.5106221 -0.50634676
C -1.0087047 0.032079976 0.75547224
O -0.9169092 1.4419162 0.78127354
C 0.4199147 1.8718765 0.75570756
O 1.0864738 1.4756031 -0.41531077
C 1.1422378 0.06824378 -0.52918833
H -0.8270923 -0.14057751 -1.3888688
H -2.0697682 -0.22401889 0.7494928
H -0.54683626 -0.4077818 1.6539196
H 0.40625027 2.9623692 0.7635352
H 0.95584965 1.4825418 1.6420327
H 1.7251472 -0.36954662 0.29698363
H 1.6461142 -0.16154666 -1.4698163
