title
 OpenBabel02282110003D

 15 15  0  0  0  0  0  0  0  0999 V2000
   -0.3049   -3.0261   -0.6033 N   0  0  0  0  0  0  0  0  0  0  0  0
   -0.2691   -1.8772   -0.5099 C   0  0  0  0  0  0  0  0  0  0  0  0
   -0.2528   -0.4039   -0.4406 C   0  0  0  0  0  0  0  0  0  0  0  0
   -0.9318   -0.0183    0.7218 O   0  0  0  0  0  0  0  0  0  0  0  0
   -0.9747    1.4058    0.8346 C   0  0  0  0  0  0  0  0  0  0  0  0
    0.4418    1.9826    0.8061 C   0  0  0  0  0  0  0  0  0  0  0  0
    1.1671    1.4415   -0.4273 C   0  0  0  0  0  0  0  0  0  0  0  0
    1.0830    0.0153   -0.4653 O   0  0  0  0  0  0  0  0  0  0  0  0
   -0.7823   -0.0012   -1.3278 H   0  0  0  0  0  0  0  0  0  0  0  0
   -1.5762    1.8217    0.0093 H   0  0  0  0  0  0  0  0  0  0  0  0
   -1.4900    1.6174    1.7734 H   0  0  0  0  0  0  0  0  0  0  0  0
    0.4096    3.0771    0.7823 H   0  0  0  0  0  0  0  0  0  0  0  0
    0.9786    1.6735    1.7083 H   0  0  0  0  0  0  0  0  0  0  0  0
    0.7264    1.8601   -1.3473 H   0  0  0  0  0  0  0  0  0  0  0  0
    2.2325    1.6795   -0.4198 H   0  0  0  0  0  0  0  0  0  0  0  0
  1  2  3  0  0  0  0
  2  3  1  0  0  0  0
  3  4  1  0  0  0  0
  4  5  1  0  0  0  0
  5 11  1  0  0  0  0
  6  5  1  0  0  0  0
  6 13  1  0  0  0  0
  7 15  1  0  0  0  0
  7  6  1  0  0  0  0
  8  3  1  0  0  0  0
  8  7  1  0  0  0  0
  9  3  1  0  0  0  0
 10  5  1  0  0  0  0
 12  6  1  0  0  0  0
 14  7  1  0  0  0  0
M  END
