17
title
N -0.24870956 -3.1109521 -0.48648122
C -0.23528056 -1.9558707 -0.5163185
C -0.24841662 -0.4901843 -0.48930144
C -1.0178456 0.032934677 0.7580498
N -0.9739761 1.4850541 0.86686975
C 0.3916581 2.0107355 0.7737505
C 1.1503253 1.4921147 -0.4570812
N 1.1229168 0.02890874 -0.579928
H -0.7837389 -0.14533435 -1.3862706
H -2.0601916 -0.29982567 0.73049647
H -0.5569429 -0.4010992 1.6549392
H -1.5514418 1.9018832 0.14208704
H 0.3471171 3.105245 0.7727019
H 0.928901 1.7100946 1.6844263
H 0.69998026 1.9115559 -1.3679904
H 2.197454 1.8126048 -0.43983933
H 1.6833566 -0.38849473 0.15885586
