title
 OpenBabel02282110003D

 17 17  0  0  1  0  0  0  0  0999 V2000
   -0.2429   -3.1318   -0.5263 N   0  0  0  0  0  0  0  0  0  0  0  0
   -0.2864   -1.9768   -0.5051 C   0  0  0  0  0  0  0  0  0  0  0  0
   -0.3176   -0.5168   -0.4636 C   0  0  1  0  0  0  0  0  0  0  0  0
   -1.0720    0.0087    0.7804 C   0  0  0  0  0  0  0  0  0  0  0  0
   -0.9706    1.5386    0.8387 C   0  0  0  0  0  0  0  0  0  0  0  0
    0.4882    1.9814    0.7198 C   0  0  0  0  0  0  0  0  0  0  0  0
    1.0910    1.4692   -0.4610 O   0  0  0  0  0  0  0  0  0  0  0  0
    1.1191    0.0618   -0.4854 C   0  0  0  0  0  0  0  0  0  0  0  0
   -0.8291   -0.1626   -1.3674 H   0  0  0  0  0  0  0  0  0  0  0  0
   -2.1147   -0.3198    0.7553 H   0  0  0  0  0  0  0  0  0  0  0  0
   -0.6191   -0.4318    1.6772 H   0  0  0  0  0  0  0  0  0  0  0  0
   -1.5449    1.9823    0.0165 H   0  0  0  0  0  0  0  0  0  0  0  0
   -1.3986    1.9127    1.7749 H   0  0  0  0  0  0  0  0  0  0  0  0
    0.5716    3.0693    0.6543 H   0  0  0  0  0  0  0  0  0  0  0  0
    1.0574    1.6482    1.6045 H   0  0  0  0  0  0  0  0  0  0  0  0
    1.6816   -0.3382    0.3744 H   0  0  0  0  0  0  0  0  0  0  0  0
    1.6385   -0.2306   -1.4010 H   0  0  0  0  0  0  0  0  0  0  0  0
  1  2  3  0  0  0  0
  2  3  1  0  0  0  0
  3  9  1  6  0  0  0
  3  4  1  0  0  0  0
  4  5  1  0  0  0  0
  4 11  1  0  0  0  0
  5 13  1  0  0  0  0
  6  5  1  0  0  0  0
  6 15  1  0  0  0  0
  7  6  1  0  0  0  0
  8  3  1  0  0  0  0
  8  7  1  0  0  0  0
  8 16  1  0  0  0  0
 10  4  1  0  0  0  0
 12  5  1  0  0  0  0
 14  6  1  0  0  0  0
 17  8  1  0  0  0  0
M  END
