title
 OpenBabel02282110003D

 15 15  0  0  1  0  0  0  0  0999 V2000
   -2.7615   -0.8479   -0.1562 O   0  0  0  0  0  0  0  0  0  0  0  0
   -1.6173   -1.0955   -0.4285 C   0  0  0  0  0  0  0  0  0  0  0  0
   -0.5132   -0.0501   -0.3882 C   0  0  1  0  0  0  0  0  0  0  0  0
   -0.3317    0.5567    1.0052 C   0  0  0  0  0  0  0  0  0  0  0  0
    0.8901    1.4790    0.9733 C   0  0  0  0  0  0  0  0  0  0  0  0
    2.0489    0.8711    0.3227 N   0  0  0  0  0  0  0  0  0  0  0  0
    1.8568   -0.1081   -0.4494 C   0  0  0  0  0  0  0  0  0  0  0  0
    0.6870   -0.6919   -0.8321 O   0  0  0  0  0  0  0  0  0  0  0  0
   -1.2722   -2.1111   -0.7215 H   0  0  0  0  0  0  0  0  0  0  0  0
   -0.7719    0.7428   -1.1047 H   0  0  0  0  0  0  0  0  0  0  0  0
   -1.2471    1.0814    1.2900 H   0  0  0  0  0  0  0  0  0  0  0  0
   -0.1705   -0.2505    1.7289 H   0  0  0  0  0  0  0  0  0  0  0  0
    0.6531    2.4178    0.4552 H   0  0  0  0  0  0  0  0  0  0  0  0
    1.1836    1.7578    1.9907 H   0  0  0  0  0  0  0  0  0  0  0  0
    2.6895   -0.6215   -0.9258 H   0  0  0  0  0  0  0  0  0  0  0  0
  2  3  1  0  0  0  0
  2  1  2  0  0  0  0
  3 10  1  6  0  0  0
  3  4  1  0  0  0  0
  4 11  1  0  0  0  0
  4 12  1  0  0  0  0
  5  4  1  0  0  0  0
  5 14  1  0  0  0  0
  6  5  1  0  0  0  0
  7  6  2  0  0  0  0
  8  7  1  0  0  0  0
  8  3  1  0  0  0  0
  9  2  1  0  0  0  0
 13  5  1  0  0  0  0
 15  7  1  0  0  0  0
M  END
