title
 OpenBabel02282110003D

 17 17  0  0  0  0  0  0  0  0999 V2000
   -1.6583   -2.0517   -0.6363 O   0  0  0  0  0  0  0  0  0  0  0  0
   -1.5919   -0.8425   -0.5518 C   0  0  0  0  0  0  0  0  0  0  0  0
   -0.4427   -0.1217   -0.4474 N   0  0  0  0  0  0  0  0  0  0  0  0
   -0.4320    1.3277   -0.3545 C   0  0  0  0  0  0  0  0  0  0  0  0
    0.2682    1.7877    0.9311 C   0  0  0  0  0  0  0  0  0  0  0  0
    1.5567    1.0316    1.1282 C   0  0  0  0  0  0  0  0  0  0  0  0
    1.8133   -0.1183    0.5081 C   0  0  0  0  0  0  0  0  0  0  0  0
    0.8434   -0.8043   -0.4125 C   0  0  0  0  0  0  0  0  0  0  0  0
   -2.4869   -0.1883   -0.5477 H   0  0  0  0  0  0  0  0  0  0  0  0
    0.0949    1.7475   -1.2230 H   0  0  0  0  0  0  0  0  0  0  0  0
   -1.4654    1.6840   -0.3950 H   0  0  0  0  0  0  0  0  0  0  0  0
    0.4624    2.8658    0.8751 H   0  0  0  0  0  0  0  0  0  0  0  0
   -0.3949    1.6402    1.7946 H   0  0  0  0  0  0  0  0  0  0  0  0
    2.2914    1.4599    1.8043 H   0  0  0  0  0  0  0  0  0  0  0  0
    2.7630   -0.6260    0.6515 H   0  0  0  0  0  0  0  0  0  0  0  0
    0.6516   -1.8333   -0.0927 H   0  0  0  0  0  0  0  0  0  0  0  0
    1.2707   -0.8761   -1.4266 H   0  0  0  0  0  0  0  0  0  0  0  0
  1  2  2  0  0  0  0
  2  9  1  0  0  0  0
  2  3  1  0  0  0  0
  3  8  1  0  0  0  0
  3  4  1  0  0  0  0
  4  5  1  0  0  0  0
  5  6  1  0  0  0  0
  5 13  1  0  0  0  0
  6 14  1  0  0  0  0
  7 15  1  0  0  0  0
  7  6  2  0  0  0  0
  8 16  1  0  0  0  0
  8  7  1  0  0  0  0
 10  4  1  0  0  0  0
 11  4  1  0  0  0  0
 12  5  1  0  0  0  0
 17  8  1  0  0  0  0
M  END
