title
 OpenBabel02282110003D

 16 16  0  0  1  0  0  0  0  0999 V2000
   -2.7116   -0.8067   -0.2159 O   0  0  0  0  0  0  0  0  0  0  0  0
   -1.5753   -1.1538   -0.4044 C   0  0  0  0  0  0  0  0  0  0  0  0
   -0.3884   -0.2044   -0.4116 C   0  0  1  0  0  0  0  0  0  0  0  0
   -0.5313    0.9616    0.5709 C   0  0  0  0  0  0  0  0  0  0  0  0
    0.7926    1.6643    0.7112 C   0  0  0  0  0  0  0  0  0  0  0  0
    1.9276    1.1083    0.2948 C   0  0  0  0  0  0  0  0  0  0  0  0
    1.9710   -0.2725   -0.2985 C   0  0  0  0  0  0  0  0  0  0  0  0
    0.7577   -0.9878   -0.1350 O   0  0  0  0  0  0  0  0  0  0  0  0
   -1.2978   -2.2121   -0.6035 H   0  0  0  0  0  0  0  0  0  0  0  0
   -0.3229    0.2039   -1.4394 H   0  0  0  0  0  0  0  0  0  0  0  0
   -1.3069    1.6455    0.2105 H   0  0  0  0  0  0  0  0  0  0  0  0
   -0.8832    0.5906    1.5424 H   0  0  0  0  0  0  0  0  0  0  0  0
    0.7945    2.6530    1.1615 H   0  0  0  0  0  0  0  0  0  0  0  0
    2.8762    1.6330    0.3684 H   0  0  0  0  0  0  0  0  0  0  0  0
    2.2412   -0.2176   -1.3693 H   0  0  0  0  0  0  0  0  0  0  0  0
    2.7433   -0.8777    0.1904 H   0  0  0  0  0  0  0  0  0  0  0  0
  2  1  2  0  0  0  0
  3 10  1  6  0  0  0
  3  2  1  0  0  0  0
  3  8  1  0  0  0  0
  3  4  1  0  0  0  0
  4  5  1  0  0  0  0
  4 12  1  0  0  0  0
  5 13  1  0  0  0  0
  6 14  1  0  0  0  0
  6  5  2  0  0  0  0
  7  8  1  0  0  0  0
  7 16  1  0  0  0  0
  7  6  1  0  0  0  0
  9  2  1  0  0  0  0
 11  4  1  0  0  0  0
 15  7  1  0  0  0  0
M  END
