16
title
O -2.6302493 -0.91633475 -0.08124084
C -1.5129102 -1.3400981 0.09812485
C -0.30061662 -0.46441373 0.12315188
N 0.83161247 -1.0431448 0.31169623
C 1.9987394 -0.1657673 0.31523824
C 1.8186227 1.1049227 -0.53113115
C 0.52760136 1.8298093 -0.13213389
N -0.5495889 0.8592509 -0.06085657
H -1.2818798 -2.4100087 0.2564952
H 2.2270515 0.10665693 1.3569696
H 2.8605075 -0.74000967 -0.041644424
H 2.675933 1.7741781 -0.4140124
H 1.7613028 0.8248097 -1.5889641
H 0.6603931 2.3348224 0.83576834
H 0.2720853 2.6016824 -0.865717
H -1.5107446 1.1152071 -0.22475208
