title
 OpenBabel02282110003D

 18 18  0  0  1  0  0  0  0  0999 V2000
   -1.6428   -2.5028    0.0052 O   0  0  0  0  0  0  0  0  0  0  0  0
   -1.5199   -1.3059    0.0407 C   0  0  0  0  0  0  0  0  0  0  0  0
   -0.2072   -0.5562    0.0333 C   0  0  1  0  0  0  0  0  0  0  0  0
   -0.1102    0.3256   -1.2300 C   0  0  0  0  0  0  0  0  0  0  0  0
    1.2370    1.0591   -1.2864 C   0  0  0  0  0  0  0  0  0  0  0  0
    1.6096    1.6654    0.0406 C   0  0  0  0  0  0  0  0  0  0  0  0
    1.0102    1.3455    1.1860 C   0  0  0  0  0  0  0  0  0  0  0  0
   -0.0838    0.3159    1.3004 C   0  0  0  0  0  0  0  0  0  0  0  0
   -2.4169   -0.6394    0.0770 H   0  0  0  0  0  0  0  0  0  0  0  0
    0.5950   -1.3018    0.0187 H   0  0  0  0  0  0  0  0  0  0  0  0
   -0.2482   -0.2844   -2.1290 H   0  0  0  0  0  0  0  0  0  0  0  0
   -0.9249    1.0612   -1.2144 H   0  0  0  0  0  0  0  0  0  0  0  0
    2.0286    0.3685   -1.6124 H   0  0  0  0  0  0  0  0  0  0  0  0
    1.1987    1.8413   -2.0548 H   0  0  0  0  0  0  0  0  0  0  0  0
    2.4101    2.4012    0.0388 H   0  0  0  0  0  0  0  0  0  0  0  0
    1.3109    1.8337    2.1099 H   0  0  0  0  0  0  0  0  0  0  0  0
   -1.0432    0.8175    1.5050 H   0  0  0  0  0  0  0  0  0  0  0  0
    0.0992   -0.3265    2.1706 H   0  0  0  0  0  0  0  0  0  0  0  0
  1  2  2  0  0  0  0
  2  9  1  0  0  0  0
  3 10  1  6  0  0  0
  3  2  1  0  0  0  0
  3  8  1  0  0  0  0
  4 12  1  0  0  0  0
  4  3  1  0  0  0  0
  5  4  1  0  0  0  0
  5  6  1  0  0  0  0
  6  7  2  0  0  0  0
  7  8  1  0  0  0  0
  7 16  1  0  0  0  0
  8 17  1  0  0  0  0
  8 18  1  0  0  0  0
 11  4  1  0  0  0  0
 13  5  1  0  0  0  0
 14  5  1  0  0  0  0
 15  6  1  0  0  0  0
M  END
