15
title
O -2.6497476 -0.91724825 0.038454752
C -1.5337101 -1.2971736 -0.19607057
C -0.29626387 -0.45526946 -0.052421577
N 0.8138663 -1.0000558 -0.35299304
C 2.025118 -0.19061683 -0.28567785
C 1.7400997 1.3148689 -0.29198197
C 0.6043388 1.5986466 0.68243843
O -0.5482823 0.7951882 0.3796396
H -1.2922573 -2.3179429 -0.55217475
H 2.5761657 -0.47808993 0.6204574
H 2.6646175 -0.47369552 -1.128593
H 2.6276178 1.8907318 -0.012052815
H 1.4419801 1.6342835 -1.2967199
H 0.9110629 1.381355 1.7138419
H 0.25983018 2.6336703 0.6368123
