17
title
O -1.945036 -2.151151 0.023493413
C -1.8327141 -0.9381847 0.02638725
C -0.58075196 -0.21570554 0.055364948
C -0.6040116 1.1425711 0.027814046
N 0.507577 1.9189874 0.024218433
C 1.8275979 1.3265544 0.20576513
C 1.8681419 -0.06068245 -0.4476689
C 0.73477775 -0.9562449 0.07855113
H -2.7380838 -0.28390935 0.006193091
H -1.5489527 1.6782464 -0.016924692
H 0.407728 2.913404 0.12945552
H 2.5716841 1.9911958 -0.24411002
H 2.0665872 1.2413822 1.2768025
H 1.7667599 0.061153974 -1.5320755
H 2.845647 -0.51538414 -0.2615791
H 0.9642187 -1.2975723 1.0970372
H 0.6455441 -1.8658628 -0.5233211
