title
 OpenBabel02282110003D

 17 17  0  0  0  0  0  0  0  0999 V2000
   -1.9450   -2.1512    0.0235 O   0  0  0  0  0  0  0  0  0  0  0  0
   -1.8327   -0.9382    0.0264 C   0  0  0  0  0  0  0  0  0  0  0  0
   -0.5808   -0.2157    0.0554 C   0  0  0  0  0  0  0  0  0  0  0  0
   -0.6040    1.1426    0.0278 C   0  0  0  0  0  0  0  0  0  0  0  0
    0.5076    1.9190    0.0242 N   0  0  0  0  0  0  0  0  0  0  0  0
    1.8276    1.3266    0.2058 C   0  0  0  0  0  0  0  0  0  0  0  0
    1.8681   -0.0607   -0.4477 C   0  0  0  0  0  0  0  0  0  0  0  0
    0.7348   -0.9562    0.0786 C   0  0  0  0  0  0  0  0  0  0  0  0
   -2.7381   -0.2839    0.0062 H   0  0  0  0  0  0  0  0  0  0  0  0
   -1.5490    1.6782   -0.0169 H   0  0  0  0  0  0  0  0  0  0  0  0
    0.4077    2.9134    0.1295 H   0  0  0  0  0  0  0  0  0  0  0  0
    2.5717    1.9912   -0.2441 H   0  0  0  0  0  0  0  0  0  0  0  0
    2.0666    1.2414    1.2768 H   0  0  0  0  0  0  0  0  0  0  0  0
    1.7668    0.0612   -1.5321 H   0  0  0  0  0  0  0  0  0  0  0  0
    2.8456   -0.5154   -0.2616 H   0  0  0  0  0  0  0  0  0  0  0  0
    0.9642   -1.2976    1.0970 H   0  0  0  0  0  0  0  0  0  0  0  0
    0.6455   -1.8659   -0.5233 H   0  0  0  0  0  0  0  0  0  0  0  0
  1  2  2  0  0  0  0
  2  3  1  0  0  0  0
  3  8  1  0  0  0  0
  4  3  2  0  0  0  0
  5  4  1  0  0  0  0
  5 11  1  0  0  0  0
  5  6  1  0  0  0  0
  6 13  1  0  0  0  0
  7 15  1  0  0  0  0
  7  8  1  0  0  0  0
  7  6  1  0  0  0  0
  8 16  1  0  0  0  0
  9  2  1  0  0  0  0
 10  4  1  0  0  0  0
 12  6  1  0  0  0  0
 14  7  1  0  0  0  0
 17  8  1  0  0  0  0
M  END
