title
 OpenBabel02282110003D

 15 15  0  0  1  0  0  0  0  0999 V2000
   -1.5647   -2.5685    0.0817 O   0  0  0  0  0  0  0  0  0  0  0  0
   -1.4708   -1.3704    0.0300 C   0  0  0  0  0  0  0  0  0  0  0  0
   -0.1706   -0.5996    0.0082 C   0  0  1  0  0  0  0  0  0  0  0  0
   -0.1019    0.3131   -1.2227 C   0  0  0  0  0  0  0  0  0  0  0  0
    1.0552    1.1531   -1.1921 O   0  0  0  0  0  0  0  0  0  0  0  0
    1.4355    1.6067    0.0268 C   0  0  0  0  0  0  0  0  0  0  0  0
    0.9903    1.3040    1.1696 N   0  0  0  0  0  0  0  0  0  0  0  0
   -0.0540    0.2942    1.2653 C   0  0  0  0  0  0  0  0  0  0  0  0
   -2.3807   -0.7227    0.0144 H   0  0  0  0  0  0  0  0  0  0  0  0
    0.6534   -1.3183   -0.0186 H   0  0  0  0  0  0  0  0  0  0  0  0
   -0.0290   -0.2595   -2.1498 H   0  0  0  0  0  0  0  0  0  0  0  0
   -0.9958    0.9495   -1.2773 H   0  0  0  0  0  0  0  0  0  0  0  0
    2.2481    2.3215   -0.0847 H   0  0  0  0  0  0  0  0  0  0  0  0
   -1.0121    0.7957    1.4636 H   0  0  0  0  0  0  0  0  0  0  0  0
    0.1527   -0.3278    2.1419 H   0  0  0  0  0  0  0  0  0  0  0  0
  2  1  2  0  0  0  0
  3 10  1  6  0  0  0
  3  2  1  0  0  0  0
  3  8  1  0  0  0  0
  4  5  1  0  0  0  0
  4  3  1  0  0  0  0
  5  6  1  0  0  0  0
  6  7  2  0  0  0  0
  7  8  1  0  0  0  0
  8 14  1  0  0  0  0
  8 15  1  0  0  0  0
  9  2  1  0  0  0  0
 11  4  1  0  0  0  0
 12  4  1  0  0  0  0
 13  6  1  0  0  0  0
M  END
