18
title
O -1.6001401 -2.6255233 -0.0023439028
C -1.4994359 -1.4262048 0.004526543
C -0.19676004 -0.6573367 -0.003967187
C -0.107069835 0.24116564 -1.2561687
C 1.1273701 1.1430614 -1.1776582
O 1.1361034 1.9244545 0.0034728982
C 1.153986 1.1226218 1.170714
C -0.078528866 0.21921325 1.2614622
H -2.4068253 -0.7744969 0.018551454
H 0.6147313 -1.3942212 -0.019466793
H -0.06518899 -0.3691802 -2.1651208
H -1.002991 0.87154484 -1.3228765
H 2.0422235 0.52750945 -1.2317119
H 1.1478081 1.8488519 -2.0129457
H 2.0697143 0.5064137 1.1933134
H 1.1934423 1.813762 2.0174925
H -0.97259814 0.8481288 1.3594875
H -0.016157137 -0.40699482 2.1583586
