20
title
O -1.6193388 -2.5785043 0.0018230684
C -1.504802 -1.3799239 0.00665928
C -0.19712062 -0.6209495 -0.0016322563
C -0.107305475 0.2588127 -1.2679741
C 1.1626728 1.1219676 -1.2707596
C 1.2677057 1.9773636 -0.0012977024
C 1.1865058 1.1082127 1.2605472
C -0.08338756 0.24500802 1.2723043
H -2.4073718 -0.7201841 0.018266458
H 0.6077083 -1.3653917 -0.013224207
H -0.14003034 -0.37378165 -2.1619163
H -0.9906835 0.91202354 -1.3126891
H 2.04228 0.4678233 -1.3411883
H 1.1750777 1.7576399 -2.1630316
H 2.2010896 2.5508714 -0.006967866
H 0.45033258 2.7118611 0.010387856
H 2.0672138 0.453429 1.3072883
H 1.2157743 1.7341542 2.159282
H -0.965703 0.89759946 1.3407518
H -0.099331684 -0.39729115 2.1597567
