title
 OpenBabel02282110003D

 16 16  0  0  1  0  0  0  0  0999 V2000
   -2.7586   -0.7964   -0.4232 O   0  0  0  0  0  0  0  0  0  0  0  0
   -1.6185   -1.1708   -0.5011 C   0  0  0  0  0  0  0  0  0  0  0  0
   -0.4219   -0.2340   -0.4971 C   0  0  1  0  0  0  0  0  0  0  0  0
   -0.5652    0.9439    0.4725 C   0  0  0  0  0  0  0  0  0  0  0  0
    0.7652    1.6988    0.5085 C   0  0  0  0  0  0  0  0  0  0  0  0
    1.8366    0.8012    0.7814 O   0  0  0  0  0  0  0  0  0  0  0  0
    1.8884   -0.2293   -0.1619 C   0  0  0  0  0  0  0  0  0  0  0  0
    0.7193   -1.0156   -0.1794 O   0  0  0  0  0  0  0  0  0  0  0  0
   -1.3436   -2.2441   -0.5945 H   0  0  0  0  0  0  0  0  0  0  0  0
   -0.3227    0.1590   -1.5289 H   0  0  0  0  0  0  0  0  0  0  0  0
   -1.3877    1.5915    0.1573 H   0  0  0  0  0  0  0  0  0  0  0  0
   -0.7963    0.5593    1.4708 H   0  0  0  0  0  0  0  0  0  0  0  0
    0.9407    2.2064   -0.4554 H   0  0  0  0  0  0  0  0  0  0  0  0
    0.7828    2.4530    1.2985 H   0  0  0  0  0  0  0  0  0  0  0  0
    2.0601    0.1898   -1.1728 H   0  0  0  0  0  0  0  0  0  0  0  0
    2.7105   -0.8888    0.1212 H   0  0  0  0  0  0  0  0  0  0  0  0
  2  3  1  0  0  0  0
  2  1  2  0  0  0  0
  3 10  1  6  0  0  0
  3  8  1  0  0  0  0
  3  4  1  0  0  0  0
  4  5  1  0  0  0  0
  4 12  1  0  0  0  0
  5  6  1  0  0  0  0
  5 14  1  0  0  0  0
  7 16  1  0  0  0  0
  7  6  1  0  0  0  0
  8  7  1  0  0  0  0
  9  2  1  0  0  0  0
 11  4  1  0  0  0  0
 13  5  1  0  0  0  0
 15  7  1  0  0  0  0
M  END
