16
title
O -1.7908118 -1.9796462 -0.6210276
C -1.0765481 -1.7279288 0.31457618
C 0.11605678 -0.79052085 0.2648712
C 0.2314764 -0.060036015 -1.0783471
O 1.2264274 0.9463758 -1.0185329
C 0.9005121 1.9850761 -0.11741222
C 0.39210495 1.4833566 1.2064831
C 0.059700944 0.2098109 1.3973737
H -1.2497759 -2.1948228 1.3126037
H 0.99635017 -1.4405639 0.41380522
H 0.525525 -0.7428605 -1.8777814
H -0.74722165 0.36604184 -1.3444812
H 1.8194755 2.5664527 0.023044791
H 0.15662274 2.6707728 -0.56461126
H 0.31135067 2.2115352 2.0089989
H -0.281481 -0.14082249 2.368625
