title
 OpenBabel02282110003D

 16 16  0  0  0  0  0  0  0  0999 V2000
   -2.4162   -1.2135    1.1469 O   0  0  0  0  0  0  0  0  0  0  0  0
   -1.6502   -1.0126    0.2460 C   0  0  0  0  0  0  0  0  0  0  0  0
   -0.4015   -0.1393    0.3715 C   0  0  0  0  0  0  0  0  0  0  0  0
    0.6937   -0.9676    0.0825 O   0  0  0  0  0  0  0  0  0  0  0  0
    1.9205   -0.2397    0.1065 C   0  0  0  0  0  0  0  0  0  0  0  0
    1.8572    0.9360   -0.8710 C   0  0  0  0  0  0  0  0  0  0  0  0
    0.5963    1.7518   -0.5769 C   0  0  0  0  0  0  0  0  0  0  0  0
   -0.5486    0.9009   -0.5587 O   0  0  0  0  0  0  0  0  0  0  0  0
   -1.7791   -1.4456   -0.7680 H   0  0  0  0  0  0  0  0  0  0  0  0
   -0.3227    0.2650    1.3970 H   0  0  0  0  0  0  0  0  0  0  0  0
    2.1139    0.1234    1.1294 H   0  0  0  0  0  0  0  0  0  0  0  0
    2.7056   -0.9523   -0.1566 H   0  0  0  0  0  0  0  0  0  0  0  0
    2.7510    1.5624   -0.7774 H   0  0  0  0  0  0  0  0  0  0  0  0
    1.8116    0.5539   -1.8959 H   0  0  0  0  0  0  0  0  0  0  0  0
    0.6904    2.2643    0.3946 H   0  0  0  0  0  0  0  0  0  0  0  0
    0.4060    2.5064   -1.3436 H   0  0  0  0  0  0  0  0  0  0  0  0
  2  3  1  0  0  0  0
  2  1  2  0  0  0  0
  3 10  1  0  0  0  0
  4  5  1  0  0  0  0
  4  3  1  0  0  0  0
  5 11  1  0  0  0  0
  6 13  1  0  0  0  0
  6  7  1  0  0  0  0
  6  5  1  0  0  0  0
  7  8  1  0  0  0  0
  7 15  1  0  0  0  0
  8  3  1  0  0  0  0
  9  2  1  0  0  0  0
 12  5  1  0  0  0  0
 14  6  1  0  0  0  0
 16  7  1  0  0  0  0
M  END
