title
 OpenBabel02282110003D

 19 19  0  0  0  0  0  0  0  0999 V2000
   -1.7451   -2.0611   -0.4988 O   0  0  0  0  0  0  0  0  0  0  0  0
   -1.6633   -0.8504   -0.4584 C   0  0  0  0  0  0  0  0  0  0  0  0
   -0.5074   -0.1314   -0.4438 N   0  0  0  0  0  0  0  0  0  0  0  0
    0.7895   -0.7987   -0.4659 C   0  0  0  0  0  0  0  0  0  0  0  0
    1.6518   -0.3455    0.7188 C   0  0  0  0  0  0  0  0  0  0  0  0
    1.7438    1.1866    0.7799 C   0  0  0  0  0  0  0  0  0  0  0  0
    0.3431    1.8178    0.7978 C   0  0  0  0  0  0  0  0  0  0  0  0
   -0.4906    1.3204   -0.3913 C   0  0  0  0  0  0  0  0  0  0  0  0
   -2.5532   -0.1899   -0.4251 H   0  0  0  0  0  0  0  0  0  0  0  0
    0.5960   -1.8720   -0.4487 H   0  0  0  0  0  0  0  0  0  0  0  0
    1.3006   -0.5588   -1.4107 H   0  0  0  0  0  0  0  0  0  0  0  0
    1.2080   -0.7263    1.6469 H   0  0  0  0  0  0  0  0  0  0  0  0
    2.6491   -0.7899    0.6323 H   0  0  0  0  0  0  0  0  0  0  0  0
    2.3148    1.5019    1.6595 H   0  0  0  0  0  0  0  0  0  0  0  0
    2.2939    1.5528   -0.0984 H   0  0  0  0  0  0  0  0  0  0  0  0
   -0.1712    1.5493    1.7291 H   0  0  0  0  0  0  0  0  0  0  0  0
    0.4081    2.9109    0.7654 H   0  0  0  0  0  0  0  0  0  0  0  0
   -0.0651    1.7172   -1.3264 H   0  0  0  0  0  0  0  0  0  0  0  0
   -1.5231    1.6775   -0.3272 H   0  0  0  0  0  0  0  0  0  0  0  0
  1  2  2  0  0  0  0
  2  3  1  0  0  0  0
  2  9  1  0  0  0  0
  3  8  1  0  0  0  0
  4 10  1  0  0  0  0
  4  3  1  0  0  0  0
  4  5  1  0  0  0  0
  5  6  1  0  0  0  0
  5 12  1  0  0  0  0
  6  7  1  0  0  0  0
  6 14  1  0  0  0  0
  7 16  1  0  0  0  0
  8 19  1  0  0  0  0
  8  7  1  0  0  0  0
 11  4  1  0  0  0  0
 13  5  1  0  0  0  0
 15  6  1  0  0  0  0
 17  7  1  0  0  0  0
 18  8  1  0  0  0  0
M  END
