title
 OpenBabel02282110003D

 16 16  0  0  1  0  0  0  0  0999 V2000
   -2.7306   -0.7627   -0.4566 O   0  0  0  0  0  0  0  0  0  0  0  0
   -1.5984   -1.1701   -0.4706 C   0  0  0  0  0  0  0  0  0  0  0  0
   -0.3815   -0.2633   -0.4966 C   0  0  1  0  0  0  0  0  0  0  0  0
   -0.5068    0.9213    0.4677 C   0  0  0  0  0  0  0  0  0  0  0  0
    0.6854    1.6856    0.4565 O   0  0  0  0  0  0  0  0  0  0  0  0
    1.8076    0.8862    0.7980 C   0  0  0  0  0  0  0  0  0  0  0  0
    1.9395   -0.2890   -0.1648 C   0  0  0  0  0  0  0  0  0  0  0  0
    0.7447   -1.0606   -0.1750 O   0  0  0  0  0  0  0  0  0  0  0  0
   -1.3493   -2.2537   -0.4678 H   0  0  0  0  0  0  0  0  0  0  0  0
   -0.2807    0.1374   -1.5227 H   0  0  0  0  0  0  0  0  0  0  0  0
   -1.3246    1.5760    0.1613 H   0  0  0  0  0  0  0  0  0  0  0  0
   -0.7151    0.5439    1.4818 H   0  0  0  0  0  0  0  0  0  0  0  0
    2.6872    1.5344    0.7455 H   0  0  0  0  0  0  0  0  0  0  0  0
    1.7070    0.5082    1.8285 H   0  0  0  0  0  0  0  0  0  0  0  0
    2.1528    0.0859   -1.1788 H   0  0  0  0  0  0  0  0  0  0  0  0
    2.7467   -0.9613    0.1398 H   0  0  0  0  0  0  0  0  0  0  0  0
  2  9  1  0  0  0  0
  2  1  2  0  0  0  0
  3 10  1  6  0  0  0
  3  2  1  0  0  0  0
  3  8  1  0  0  0  0
  3  4  1  0  0  0  0
  4 12  1  0  0  0  0
  5  4  1  0  0  0  0
  5  6  1  0  0  0  0
  6 14  1  0  0  0  0
  7 16  1  0  0  0  0
  7  6  1  0  0  0  0
  8  7  1  0  0  0  0
 11  4  1  0  0  0  0
 13  6  1  0  0  0  0
 15  7  1  0  0  0  0
M  END
