17
title
C 1.7233177 2.2298977 -0.33957544
N 1.7200985 0.77818716 -0.33371636
C 0.63221955 0.16115019 -0.11162782
O -0.55445194 0.81986356 0.077433325
C -1.5968118 0.0990285 0.7454266
C -1.858881 -1.26106 0.1066956
C -0.5532193 -1.9862573 -0.06302943
C 0.5939901 -1.3050683 -0.12778385
H 2.710692 2.5822136 -0.026310604
H 1.5576832 2.6014583 -1.3598713
H 0.95642185 2.6774673 0.30340463
H -1.3202033 -0.03575364 1.7999146
H -2.4734838 0.74917054 0.7001797
H -2.5468695 -1.8304875 0.74254364
H -2.359759 -1.1432316 -0.86452144
H -0.56080365 -3.0692275 -0.14180729
H 1.5576828 -1.78426 -0.24883935
