17
title
C 1.578458 2.1411717 0.8970994
N 1.6023662 0.69168884 0.7632857
C 0.63034356 0.12673427 0.1850224
C 0.61872023 -1.3762764 0.0073321364
C -0.76468885 -1.9476839 -0.11335615
C -1.7702109 -1.1958174 -0.5440082
C -1.5621561 0.24260767 -0.90158856
O -0.41982996 0.852973 -0.29320052
H 2.4871452 2.46682 1.40953
H 1.5298171 2.6452296 -0.07728074
H 0.7116881 2.4853663 1.4767125
H 1.1986314 -1.6260341 -0.894516
H 1.1745089 -1.8068422 0.8430035
H -0.90980136 -2.9938996 0.13765414
H -2.773914 -1.5890888 -0.6719204
H -1.4743391 0.36019388 -1.9930264
H -2.4190452 0.8499896 -0.5885638
