title
 OpenBabel02282110003D

 17 17  0  0  0  0  0  0  0  0999 V2000
    1.7233    2.2299   -0.3396 C   0  0  0  0  0  0  0  0  0  0  0  0
    1.7201    0.7782   -0.3337 N   0  0  0  0  0  0  0  0  0  0  0  0
    0.6322    0.1612   -0.1116 C   0  0  0  0  0  0  0  0  0  0  0  0
   -0.5545    0.8199    0.0774 O   0  0  0  0  0  0  0  0  0  0  0  0
   -1.5968    0.0990    0.7454 C   0  0  0  0  0  0  0  0  0  0  0  0
   -1.8589   -1.2611    0.1067 C   0  0  0  0  0  0  0  0  0  0  0  0
   -0.5532   -1.9863   -0.0630 C   0  0  0  0  0  0  0  0  0  0  0  0
    0.5940   -1.3051   -0.1278 C   0  0  0  0  0  0  0  0  0  0  0  0
    2.7107    2.5822   -0.0263 H   0  0  0  0  0  0  0  0  0  0  0  0
    1.5577    2.6015   -1.3599 H   0  0  0  0  0  0  0  0  0  0  0  0
    0.9564    2.6775    0.3034 H   0  0  0  0  0  0  0  0  0  0  0  0
   -1.3202   -0.0358    1.7999 H   0  0  0  0  0  0  0  0  0  0  0  0
   -2.4735    0.7492    0.7002 H   0  0  0  0  0  0  0  0  0  0  0  0
   -2.5469   -1.8305    0.7425 H   0  0  0  0  0  0  0  0  0  0  0  0
   -2.3598   -1.1432   -0.8645 H   0  0  0  0  0  0  0  0  0  0  0  0
   -0.5608   -3.0692   -0.1418 H   0  0  0  0  0  0  0  0  0  0  0  0
    1.5577   -1.7843   -0.2488 H   0  0  0  0  0  0  0  0  0  0  0  0
  1  2  1  0  0  0  0
  1  9  1  0  0  0  0
  1 11  1  0  0  0  0
  2  3  2  0  0  0  0
  3  4  1  0  0  0  0
  4  5  1  0  0  0  0
  5 12  1  0  0  0  0
  6 14  1  0  0  0  0
  6  5  1  0  0  0  0
  7  6  1  0  0  0  0
  8  3  1  0  0  0  0
  8  7  2  0  0  0  0
 10  1  1  0  0  0  0
 13  5  1  0  0  0  0
 15  6  1  0  0  0  0
 16  7  1  0  0  0  0
 17  8  1  0  0  0  0
M  END
