18
title
O 2.080668 1.9754381 -0.044036556
C 2.025787 0.5623026 -0.018028224
C 0.6005211 0.08615443 -0.014526676
C -0.44400164 0.9113726 0.018433696
C -1.8629215 0.41700634 -0.008072056
O -1.9823916 -0.96391106 -0.29810408
C -1.033103 -1.7466311 0.4014662
C 0.39176038 -1.4098715 -0.043760926
H 3.0045226 2.2390118 -0.02731792
H 2.5446281 0.124162614 -0.8901287
H 2.537675 0.1588555 0.87459254
H -0.29331848 1.9844996 0.0665355
H -2.356779 0.65127444 0.9542211
H -2.4342685 0.9379678 -0.7861116
H -1.1285009 -1.5876491 1.4887899
H -1.2810321 -2.7908337 0.19054976
H 0.57141495 -1.8021297 -1.0542547
H 1.1121522 -1.9136176 0.61573595
