title
 OpenBabel02282110003D

 17 17  0  0  0  0  0  0  0  0999 V2000
    2.0569    1.8841   -0.1758 O   0  0  0  0  0  0  0  0  0  0  0  0
    1.9453    0.4954   -0.0497 C   0  0  0  0  0  0  0  0  0  0  0  0
    0.4994    0.0604    0.0364 C   0  0  0  0  0  0  0  0  0  0  0  0
   -0.4160    0.9376    0.0364 N   0  0  0  0  0  0  0  0  0  0  0  0
   -1.8120    0.5175    0.0611 C   0  0  0  0  0  0  0  0  0  0  0  0
   -1.9906   -0.9445   -0.3618 C   0  0  0  0  0  0  0  0  0  0  0  0
   -0.9439   -1.7878    0.3535 C   0  0  0  0  0  0  0  0  0  0  0  0
    0.3799   -1.2842    0.1040 O   0  0  0  0  0  0  0  0  0  0  0  0
    1.1415    2.2087   -0.1373 H   0  0  0  0  0  0  0  0  0  0  0  0
    2.4079   -0.0211   -0.9052 H   0  0  0  0  0  0  0  0  0  0  0  0
    2.4657    0.1312    0.8507 H   0  0  0  0  0  0  0  0  0  0  0  0
   -2.2084    0.6762    1.0733 H   0  0  0  0  0  0  0  0  0  0  0  0
   -2.3810    1.1833   -0.5965 H   0  0  0  0  0  0  0  0  0  0  0  0
   -2.9942   -1.3105   -0.1231 H   0  0  0  0  0  0  0  0  0  0  0  0
   -1.8516   -1.0404   -1.4445 H   0  0  0  0  0  0  0  0  0  0  0  0
   -1.1140   -1.7839    1.4380 H   0  0  0  0  0  0  0  0  0  0  0  0
   -0.9330   -2.8246    0.0104 H   0  0  0  0  0  0  0  0  0  0  0  0
  1  9  1  0  0  0  0
  1  2  1  0  0  0  0
  2  3  1  0  0  0  0
  2 11  1  0  0  0  0
  3  4  2  0  0  0  0
  3  8  1  0  0  0  0
  4  5  1  0  0  0  0
  5 12  1  0  0  0  0
  6 14  1  0  0  0  0
  6  5  1  0  0  0  0
  6  7  1  0  0  0  0
  7 16  1  0  0  0  0
  8  7  1  0  0  0  0
 10  2  1  0  0  0  0
 13  5  1  0  0  0  0
 15  6  1  0  0  0  0
 17  7  1  0  0  0  0
M  END
