title
 OpenBabel02282110003D

 20 20  0  0  0  0  0  0  0  0999 V2000
   -1.2064    2.0401    1.8358 C   0  0  0  0  0  0  0  0  0  0  0  0
   -0.9504    0.5217    1.8291 C   0  0  0  0  0  0  0  0  0  0  0  0
   -0.1992    0.0351    0.6145 C   0  0  0  0  0  0  0  0  0  0  0  0
    1.0767   -0.3532    0.6483 C   0  0  0  0  0  0  0  0  0  0  0  0
    1.7977   -0.8692   -0.5690 C   0  0  0  0  0  0  0  0  0  0  0  0
    0.7849   -1.2433   -1.6523 C   0  0  0  0  0  0  0  0  0  0  0  0
   -0.1684   -0.2103   -1.8318 O   0  0  0  0  0  0  0  0  0  0  0  0
   -0.9709   -0.0127   -0.6857 C   0  0  0  0  0  0  0  0  0  0  0  0
   -0.2620    2.5921    1.8077 H   0  0  0  0  0  0  0  0  0  0  0  0
   -1.8031    2.3574    0.9750 H   0  0  0  0  0  0  0  0  0  0  0  0
   -1.7480    2.3370    2.7395 H   0  0  0  0  0  0  0  0  0  0  0  0
   -0.3892    0.2477    2.7291 H   0  0  0  0  0  0  0  0  0  0  0  0
   -1.9157   -0.0005    1.8958 H   0  0  0  0  0  0  0  0  0  0  0  0
    1.6300   -0.3086    1.5844 H   0  0  0  0  0  0  0  0  0  0  0  0
    2.4966   -0.1121   -0.9514 H   0  0  0  0  0  0  0  0  0  0  0  0
    2.4057   -1.7466   -0.3129 H   0  0  0  0  0  0  0  0  0  0  0  0
    1.2668   -1.3874   -2.6234 H   0  0  0  0  0  0  0  0  0  0  0  0
    0.2797   -2.1852   -1.3796 H   0  0  0  0  0  0  0  0  0  0  0  0
   -1.7459   -0.8006   -0.6150 H   0  0  0  0  0  0  0  0  0  0  0  0
   -1.5023    0.9310   -0.8539 H   0  0  0  0  0  0  0  0  0  0  0  0
  1 11  1  0  0  0  0
  2  1  1  0  0  0  0
  2 13  1  0  0  0  0
  2 12  1  0  0  0  0
  3  4  2  0  0  0  0
  3  2  1  0  0  0  0
  4 14  1  0  0  0  0
  5 16  1  0  0  0  0
  5  4  1  0  0  0  0
  6 18  1  0  0  0  0
  6  5  1  0  0  0  0
  7  6  1  0  0  0  0
  7  8  1  0  0  0  0
  8 19  1  0  0  0  0
  8  3  1  0  0  0  0
  9  1  1  0  0  0  0
 10  1  1  0  0  0  0
 15  5  1  0  0  0  0
 17  6  1  0  0  0  0
 20  8  1  0  0  0  0
M  END
