20
title
C -1.2408093 2.063969 1.8187603
C -0.9542211 0.5523619 1.8567396
C -0.25166458 0.03244582 0.626368
C 1.0229487 -0.36153468 0.6363978
C 1.7240498 -0.9137248 -0.5749101
O 0.85124767 -1.2103232 -1.6472783
C -0.10184234 -0.18520573 -1.8623698
C -1.040626 -0.045449466 -0.66279906
H -0.30993676 2.6338665 1.7366861
H -1.8753335 2.3372436 0.96980876
H -1.7558609 2.3834074 2.7301123
H -0.34890944 0.32407555 2.7410502
H -1.9050891 0.015394031 1.9833343
H 1.616158 -0.29907188 1.5465611
H 2.5137928 -0.21090874 -0.90340465
H 2.2289717 -1.8555418 -0.32695624
H 0.40519428 0.77626854 -2.050491
H -0.64855576 -0.46044543 -2.768873
H -1.7312498 -0.8995595 -0.6242401
H -1.6652406 0.8475773 -0.79118365
