19
title
C 2.138141 2.0705056 -0.09319116
C 1.9428451 0.5609545 0.019741256
C 0.5002735 0.123423845 0.05337705
N -0.4635082 0.9461613 0.06988028
C -1.8329623 0.44500983 0.0473631
C -1.9375854 -1.0042615 -0.43602774
C -0.8619717 -1.8165705 0.2707017
O 0.43302983 -1.2415926 0.06107973
H 3.2045515 2.3150992 -0.10639957
H 1.6810882 2.4577012 -1.0071703
H 1.6707845 2.589582 0.7467172
H 2.4261444 0.036940694 -0.8146191
H 2.429488 0.16992202 0.922793
H -2.2568402 0.54118544 1.056943
H -2.4254766 1.1094956 -0.59157497
H -2.9270687 -1.4268339 -0.23300698
H -1.7719088 -1.0522107 -1.518357
H -1.056643 -1.8571191 1.3513489
H -0.7955504 -2.8416502 -0.1023876
