title
 OpenBabel02282110003D

 18 18  0  0  0  0  0  0  0  0999 V2000
    2.0807    1.9754   -0.0440 O   0  0  0  0  0  0  0  0  0  0  0  0
    2.0258    0.5623   -0.0180 C   0  0  0  0  0  0  0  0  0  0  0  0
    0.6005    0.0862   -0.0145 C   0  0  0  0  0  0  0  0  0  0  0  0
   -0.4440    0.9114    0.0184 C   0  0  0  0  0  0  0  0  0  0  0  0
   -1.8629    0.4170   -0.0081 C   0  0  0  0  0  0  0  0  0  0  0  0
   -1.9824   -0.9639   -0.2981 O   0  0  0  0  0  0  0  0  0  0  0  0
   -1.0331   -1.7466    0.4015 C   0  0  0  0  0  0  0  0  0  0  0  0
    0.3918   -1.4099   -0.0438 C   0  0  0  0  0  0  0  0  0  0  0  0
    3.0045    2.2390   -0.0273 H   0  0  0  0  0  0  0  0  0  0  0  0
    2.5446    0.1242   -0.8901 H   0  0  0  0  0  0  0  0  0  0  0  0
    2.5377    0.1589    0.8746 H   0  0  0  0  0  0  0  0  0  0  0  0
   -0.2933    1.9845    0.0665 H   0  0  0  0  0  0  0  0  0  0  0  0
   -2.3568    0.6513    0.9542 H   0  0  0  0  0  0  0  0  0  0  0  0
   -2.4343    0.9380   -0.7861 H   0  0  0  0  0  0  0  0  0  0  0  0
   -1.1285   -1.5876    1.4888 H   0  0  0  0  0  0  0  0  0  0  0  0
   -1.2810   -2.7908    0.1905 H   0  0  0  0  0  0  0  0  0  0  0  0
    0.5714   -1.8021   -1.0543 H   0  0  0  0  0  0  0  0  0  0  0  0
    1.1122   -1.9136    0.6157 H   0  0  0  0  0  0  0  0  0  0  0  0
  1  9  1  0  0  0  0
  1  2  1  0  0  0  0
  2  3  1  0  0  0  0
  2 11  1  0  0  0  0
  3  4  2  0  0  0  0
  4 12  1  0  0  0  0
  5  4  1  0  0  0  0
  5 13  1  0  0  0  0
  6  5  1  0  0  0  0
  6  7  1  0  0  0  0
  7 15  1  0  0  0  0
  8  3  1  0  0  0  0
  8  7  1  0  0  0  0
  8 18  1  0  0  0  0
 10  2  1  0  0  0  0
 14  5  1  0  0  0  0
 16  7  1  0  0  0  0
 17  8  1  0  0  0  0
M  END
