title
 OpenBabel02282110003D

 18 18  0  0  0  0  0  0  0  0999 V2000
   -1.3358    2.2162    1.2634 C   0  0  0  0  0  0  0  0  0  0  0  0
   -1.2685    0.7644    1.2330 N   0  0  0  0  0  0  0  0  0  0  0  0
   -0.5473    0.1808    0.3764 C   0  0  0  0  0  0  0  0  0  0  0  0
   -0.5237   -1.3344    0.2866 C   0  0  0  0  0  0  0  0  0  0  0  0
    0.7562   -1.9167   -0.1235 N   0  0  0  0  0  0  0  0  0  0  0  0
    1.2627   -1.2195   -1.3039 C   0  0  0  0  0  0  0  0  0  0  0  0
    1.3805    0.2822   -1.0719 C   0  0  0  0  0  0  0  0  0  0  0  0
    0.1592    0.8593   -0.5851 O   0  0  0  0  0  0  0  0  0  0  0  0
   -0.5027    2.7145    0.7555 H   0  0  0  0  0  0  0  0  0  0  0  0
   -2.2691    2.5485    0.7915 H   0  0  0  0  0  0  0  0  0  0  0  0
   -1.3733    2.5449    2.3069 H   0  0  0  0  0  0  0  0  0  0  0  0
   -0.8376   -1.7406    1.2488 H   0  0  0  0  0  0  0  0  0  0  0  0
   -1.2771   -1.6349   -0.4559 H   0  0  0  0  0  0  0  0  0  0  0  0
    1.4266   -1.8215    0.6352 H   0  0  0  0  0  0  0  0  0  0  0  0
    2.2400   -1.6262   -1.5852 H   0  0  0  0  0  0  0  0  0  0  0  0
    0.5723   -1.4137   -2.1348 H   0  0  0  0  0  0  0  0  0  0  0  0
    2.1798    0.4865   -0.3437 H   0  0  0  0  0  0  0  0  0  0  0  0
    1.6150    0.8230   -1.9939 H   0  0  0  0  0  0  0  0  0  0  0  0
  1 11  1  0  0  0  0
  2  1  1  0  0  0  0
  3  2  2  0  0  0  0
  4  3  1  0  0  0  0
  4 12  1  0  0  0  0
  5  4  1  0  0  0  0
  5 14  1  0  0  0  0
  6  7  1  0  0  0  0
  6  5  1  0  0  0  0
  7  8  1  0  0  0  0
  7 17  1  0  0  0  0
  8  3  1  0  0  0  0
  9  1  1  0  0  0  0
 10  1  1  0  0  0  0
 13  4  1  0  0  0  0
 15  6  1  0  0  0  0
 16  6  1  0  0  0  0
 18  7  1  0  0  0  0
M  END
