title
 OpenBabel02282110003D

 18 18  0  0  0  0  0  0  0  0999 V2000
    2.0589    1.9834   -0.1107 O   0  0  0  0  0  0  0  0  0  0  0  0
    1.9872    0.5767    0.0228 C   0  0  0  0  0  0  0  0  0  0  0  0
    0.5546    0.1223    0.0389 C   0  0  0  0  0  0  0  0  0  0  0  0
   -0.4841    0.9551    0.0748 C   0  0  0  0  0  0  0  0  0  0  0  0
   -1.9034    0.4534    0.0555 C   0  0  0  0  0  0  0  0  0  0  0  0
   -1.9380   -1.0118   -0.3816 C   0  0  0  0  0  0  0  0  0  0  0  0
   -0.9685   -1.7740    0.3196 O   0  0  0  0  0  0  0  0  0  0  0  0
    0.3502   -1.3750    0.0115 C   0  0  0  0  0  0  0  0  0  0  0  0
    2.9788    2.2448   -0.0168 H   0  0  0  0  0  0  0  0  0  0  0  0
    2.5167    0.0698   -0.8048 H   0  0  0  0  0  0  0  0  0  0  0  0
    2.4809    0.2390    0.9518 H   0  0  0  0  0  0  0  0  0  0  0  0
   -0.3098    2.0249    0.1136 H   0  0  0  0  0  0  0  0  0  0  0  0
   -2.3589    0.5622    1.0497 H   0  0  0  0  0  0  0  0  0  0  0  0
   -2.5144    1.0566   -0.6285 H   0  0  0  0  0  0  0  0  0  0  0  0
   -2.9045   -1.4761   -0.1668 H   0  0  0  0  0  0  0  0  0  0  0  0
   -1.7607   -1.0804   -1.4681 H   0  0  0  0  0  0  0  0  0  0  0  0
    0.6535   -1.7720   -0.9767 H   0  0  0  0  0  0  0  0  0  0  0  0
    0.9940   -1.8632    0.7546 H   0  0  0  0  0  0  0  0  0  0  0  0
  1  9  1  0  0  0  0
  1  2  1  0  0  0  0
  2  3  1  0  0  0  0
  2 11  1  0  0  0  0
  3  4  2  0  0  0  0
  4 12  1  0  0  0  0
  5  4  1  0  0  0  0
  5 13  1  0  0  0  0
  6 15  1  0  0  0  0
  6  5  1  0  0  0  0
  6  7  1  0  0  0  0
  8  3  1  0  0  0  0
  8  7  1  0  0  0  0
  8 18  1  0  0  0  0
 10  2  1  0  0  0  0
 14  5  1  0  0  0  0
 16  6  1  0  0  0  0
 17  8  1  0  0  0  0
M  END
