title
 OpenBabel02282110003D

 22 22  0  0  0  0  0  0  0  0999 V2000
   -0.9909    2.0782   -1.9134 C   0  0  0  0  0  0  0  0  0  0  0  0
   -1.1038    0.5536   -1.7334 C   0  0  0  0  0  0  0  0  0  0  0  0
   -0.3942    0.0291   -0.5063 C   0  0  0  0  0  0  0  0  0  0  0  0
   -1.0666   -0.3878    0.5706 C   0  0  0  0  0  0  0  0  0  0  0  0
   -0.4310   -0.9379    1.8215 C   0  0  0  0  0  0  0  0  0  0  0  0
    1.0468   -1.2977    1.6128 C   0  0  0  0  0  0  0  0  0  0  0  0
    1.7631   -0.1984    0.8216 C   0  0  0  0  0  0  0  0  0  0  0  0
    1.1191   -0.0129   -0.5590 C   0  0  0  0  0  0  0  0  0  0  0  0
    0.0510    2.4021   -2.0009 H   0  0  0  0  0  0  0  0  0  0  0  0
   -1.5136    2.4027   -2.8188 H   0  0  0  0  0  0  0  0  0  0  0  0
   -1.4319    2.6026   -1.0597 H   0  0  0  0  0  0  0  0  0  0  0  0
   -2.1632    0.2781   -1.6846 H   0  0  0  0  0  0  0  0  0  0  0  0
   -0.6953    0.0617   -2.6279 H   0  0  0  0  0  0  0  0  0  0  0  0
   -2.1546   -0.3356    0.5632 H   0  0  0  0  0  0  0  0  0  0  0  0
   -0.5269   -0.2024    2.6353 H   0  0  0  0  0  0  0  0  0  0  0  0
   -0.9902   -1.8188    2.1628 H   0  0  0  0  0  0  0  0  0  0  0  0
    1.5373   -1.4656    2.5778 H   0  0  0  0  0  0  0  0  0  0  0  0
    1.1140   -2.2415    1.0559 H   0  0  0  0  0  0  0  0  0  0  0  0
    1.7007    0.7454    1.3792 H   0  0  0  0  0  0  0  0  0  0  0  0
    2.8285   -0.4291    0.7124 H   0  0  0  0  0  0  0  0  0  0  0  0
    1.4264   -0.8309   -1.2292 H   0  0  0  0  0  0  0  0  0  0  0  0
    1.5022    0.9013   -1.0294 H   0  0  0  0  0  0  0  0  0  0  0  0
  1  2  1  0  0  0  0
  1 11  1  0  0  0  0
  2 12  1  0  0  0  0
  2  3  1  0  0  0  0
  3  4  2  0  0  0  0
  4  5  1  0  0  0  0
  5 16  1  0  0  0  0
  5 15  1  0  0  0  0
  6  5  1  0  0  0  0
  6 17  1  0  0  0  0
  7 19  1  0  0  0  0
  7  6  1  0  0  0  0
  8  3  1  0  0  0  0
  8  7  1  0  0  0  0
  9  1  1  0  0  0  0
 10  1  1  0  0  0  0
 13  2  1  0  0  0  0
 14  4  1  0  0  0  0
 18  6  1  0  0  0  0
 20  7  1  0  0  0  0
 21  8  1  0  0  0  0
 22  8  1  0  0  0  0
M  END
