17
title
C -0.53268 2.233025 1.6708295
O -0.5192274 0.81489253 1.5986211
C 0.21591301 0.30093426 0.5505732
C 0.30487227 -1.2082944 0.677341
C 0.9463471 -1.7864039 -0.58884513
N 0.37145025 -1.2540679 -1.8207866
C -0.24806137 -0.15544404 -1.7522975
O -0.44034123 0.66292095 -0.68600786
H 0.4892516 2.6363444 1.7222799
H -1.0460877 2.6740725 0.80984294
H -1.0666243 2.4955192 2.5859156
H 1.217532 0.7634693 0.51184416
H 0.8725985 -1.4652708 1.5759228
H -0.71285456 -1.5927973 0.8014253
H 2.0282538 -1.5947502 -0.59957397
H 0.8338758 -2.8753185 -0.60320914
H -0.7260732 0.2713945 -2.632312
