title
 OpenBabel02282110003D

 20 20  0  0  1  0  0  0  0  0999 V2000
   -0.9329    2.3493   -1.4191 C   0  0  0  0  0  0  0  0  0  0  0  0
   -1.1326    0.9727   -1.2015 O   0  0  0  0  0  0  0  0  0  0  0  0
   -0.3942    0.4281   -0.1195 C   0  0  1  0  0  0  0  0  0  0  0  0
   -0.9794   -0.9502    0.1790 C   0  0  0  0  0  0  0  0  0  0  0  0
   -0.3091   -1.5833    1.4064 C   0  0  0  0  0  0  0  0  0  0  0  0
    1.1882   -1.4193    1.3792 C   0  0  0  0  0  0  0  0  0  0  0  0
    1.8186   -0.5824    0.5561 C   0  0  0  0  0  0  0  0  0  0  0  0
    1.1089    0.3177   -0.4243 C   0  0  0  0  0  0  0  0  0  0  0  0
    0.0851    2.5834   -1.7636 H   0  0  0  0  0  0  0  0  0  0  0  0
   -1.6379    2.6582   -2.1953 H   0  0  0  0  0  0  0  0  0  0  0  0
   -1.1307    2.9382   -0.5089 H   0  0  0  0  0  0  0  0  0  0  0  0
   -0.5263    1.0716    0.7688 H   0  0  0  0  0  0  0  0  0  0  0  0
   -2.0602   -0.8602    0.3233 H   0  0  0  0  0  0  0  0  0  0  0  0
   -0.8242   -1.5864   -0.7007 H   0  0  0  0  0  0  0  0  0  0  0  0
   -0.7090   -1.1397    2.3307 H   0  0  0  0  0  0  0  0  0  0  0  0
   -0.5665   -2.6483    1.4636 H   0  0  0  0  0  0  0  0  0  0  0  0
    1.7637   -2.0243    2.0761 H   0  0  0  0  0  0  0  0  0  0  0  0
    2.9041   -0.5203    0.5777 H   0  0  0  0  0  0  0  0  0  0  0  0
    1.2263   -0.0617   -1.4501 H   0  0  0  0  0  0  0  0  0  0  0  0
    1.5784    1.3090   -0.4150 H   0  0  0  0  0  0  0  0  0  0  0  0
  1  2  1  0  0  0  0
  1 11  1  0  0  0  0
  2  3  1  0  0  0  0
  3  4  1  0  0  0  0
  3 12  1  1  0  0  0
  4 13  1  0  0  0  0
  4  5  1  0  0  0  0
  5 16  1  0  0  0  0
  5 15  1  0  0  0  0
  6  5  1  0  0  0  0
  6 17  1  0  0  0  0
  7 18  1  0  0  0  0
  7  6  2  0  0  0  0
  8 20  1  0  0  0  0
  8  3  1  0  0  0  0
  8  7  1  0  0  0  0
  9  1  1  0  0  0  0
 10  1  1  0  0  0  0
 14  4  1  0  0  0  0
 19  8  1  0  0  0  0
M  END
