20
title
C -0.9328805 2.349329 -1.4190735
O -1.1326379 0.9727469 -1.2014638
C -0.39419833 0.42807677 -0.11950546
C -0.9794251 -0.95019454 0.17904098
C -0.30910274 -1.5832827 1.406392
C 1.1882074 -1.4192917 1.3792096
C 1.8186018 -0.5824104 0.55614847
C 1.1088884 0.31774482 -0.4243325
H 0.085072376 2.5834098 -1.763598
H -1.6379153 2.658222 -2.1953113
H -1.1307294 2.9381704 -0.5089074
H -0.526345 1.0715874 0.76883775
H -2.0601702 -0.86015385 0.32327145
H -0.8242145 -1.586422 -0.7007463
H -0.70901704 -1.1397455 2.3306637
H -0.56647533 -2.6483424 1.4635719
H 1.7637062 -2.0242674 2.076089
H 2.9041426 -0.5203137 0.5776916
H 1.2262528 -0.06169419 -1.4500664
H 1.5783541 1.3090029 -0.41501874
