title
 OpenBabel02282110003D

 18 18  0  0  1  0  0  0  0  0999 V2000
   -1.2282    2.1861   -1.2200 C   0  0  0  0  0  0  0  0  0  0  0  0
   -1.1666    0.7699   -1.2308 O   0  0  0  0  0  0  0  0  0  0  0  0
   -0.5433    0.2207   -0.1231 C   0  0  1  0  0  0  0  0  0  0  0  0
   -0.6955   -1.2956   -0.1722 C   0  0  0  0  0  0  0  0  0  0  0  0
    0.2348   -1.9379    0.8234 C   0  0  0  0  0  0  0  0  0  0  0  0
    1.2397   -1.2640    1.3772 C   0  0  0  0  0  0  0  0  0  0  0  0
    1.5341    0.1629    1.0038 C   0  0  0  0  0  0  0  0  0  0  0  0
    0.8310    0.5816   -0.1514 O   0  0  0  0  0  0  0  0  0  0  0  0
   -0.2288    2.6322   -1.2552 H   0  0  0  0  0  0  0  0  0  0  0  0
   -1.7925    2.4842   -2.1059 H   0  0  0  0  0  0  0  0  0  0  0  0
   -1.7498    2.5536   -0.3231 H   0  0  0  0  0  0  0  0  0  0  0  0
   -0.9889    0.6202    0.8116 H   0  0  0  0  0  0  0  0  0  0  0  0
   -1.7372   -1.5647    0.0379 H   0  0  0  0  0  0  0  0  0  0  0  0
   -0.4830   -1.6318   -1.1949 H   0  0  0  0  0  0  0  0  0  0  0  0
    0.0511   -2.9748    1.0905 H   0  0  0  0  0  0  0  0  0  0  0  0
    1.8879   -1.7198    2.1207 H   0  0  0  0  0  0  0  0  0  0  0  0
    1.3142    0.8305    1.8582 H   0  0  0  0  0  0  0  0  0  0  0  0
    2.5983    0.2905    0.7730 H   0  0  0  0  0  0  0  0  0  0  0  0
  1 11  1  0  0  0  0
  2  1  1  0  0  0  0
  2  3  1  0  0  0  0
  3 12  1  1  0  0  0
  4  3  1  0  0  0  0
  4 13  1  0  0  0  0
  4  5  1  0  0  0  0
  5 15  1  0  0  0  0
  5  6  2  0  0  0  0
  6 16  1  0  0  0  0
  7  6  1  0  0  0  0
  7 17  1  0  0  0  0
  8  3  1  0  0  0  0
  8  7  1  0  0  0  0
  9  1  1  0  0  0  0
 10  1  1  0  0  0  0
 14  4  1  0  0  0  0
 18  7  1  0  0  0  0
M  END
