18
title
C -1.2281792 2.1861012 -1.2199575
O -1.166589 0.7698634 -1.2308366
C -0.54327685 0.22066046 -0.12313466
C -0.69553053 -1.2956023 -0.17219274
C 0.23483309 -1.9378788 0.8234152
C 1.2397287 -1.2639589 1.3771977
C 1.5341084 0.1629426 1.0037744
O 0.8310446 0.58157384 -0.15144078
H -0.2288436 2.632207 -1.2552032
H -1.7925348 2.4842203 -2.1059463
H -1.749761 2.5536158 -0.32308537
H -0.9889006 0.62024087 0.81164426
H -1.7371674 -1.5646966 0.037897896
H -0.48304197 -1.6317959 -1.1949296
H 0.051122636 -2.9747946 1.0904613
H 1.8878942 -1.7197549 2.1206791
H 1.3142221 0.8305196 1.8582282
H 2.598254 0.2904676 0.7729991
