19
title
C -0.59088445 2.3271432 -1.9338315
C -0.57342553 0.7989597 -1.8131113
C 0.13966152 0.2607718 -0.56480587
C -0.6011092 0.59766704 0.72780097
O 0.056192063 0.04199282 1.876803
C 0.6206002 -1.1775072 1.7008668
N 0.7620839 -1.8546449 0.6435391
C 0.31223336 -1.2644049 -0.6140616
H 0.42582056 2.7350993 -1.9251605
H -1.06552 2.6385076 -2.869251
H -1.1443313 2.7992597 -1.1157035
H -1.6025383 0.41449693 -1.8313422
H -0.07995544 0.3753979 -2.697
H 1.1382874 0.7153165 -0.50243497
H -0.65315247 1.6721356 0.91480935
H -1.6275048 0.20543514 0.69036114
H 0.98194337 -1.5539128 2.6564593
H -0.63467306 -1.7419502 -0.9058053
H 1.036609 -1.5359322 -1.3909672
