title
 OpenBabel02282110003D

 17 17  0  0  1  0  0  0  0  0999 V2000
   -0.5327    2.2330    1.6708 C   0  0  0  0  0  0  0  0  0  0  0  0
   -0.5192    0.8149    1.5986 O   0  0  0  0  0  0  0  0  0  0  0  0
    0.2159    0.3009    0.5506 C   0  0  1  0  0  0  0  0  0  0  0  0
    0.3049   -1.2083    0.6773 C   0  0  0  0  0  0  0  0  0  0  0  0
    0.9463   -1.7864   -0.5888 C   0  0  0  0  0  0  0  0  0  0  0  0
    0.3715   -1.2541   -1.8208 N   0  0  0  0  0  0  0  0  0  0  0  0
   -0.2481   -0.1554   -1.7523 C   0  0  0  0  0  0  0  0  0  0  0  0
   -0.4403    0.6629   -0.6860 O   0  0  0  0  0  0  0  0  0  0  0  0
    0.4893    2.6363    1.7223 H   0  0  0  0  0  0  0  0  0  0  0  0
   -1.0461    2.6741    0.8098 H   0  0  0  0  0  0  0  0  0  0  0  0
   -1.0666    2.4955    2.5859 H   0  0  0  0  0  0  0  0  0  0  0  0
    1.2175    0.7635    0.5118 H   0  0  0  0  0  0  0  0  0  0  0  0
    0.8726   -1.4653    1.5759 H   0  0  0  0  0  0  0  0  0  0  0  0
   -0.7129   -1.5928    0.8014 H   0  0  0  0  0  0  0  0  0  0  0  0
    2.0283   -1.5948   -0.5996 H   0  0  0  0  0  0  0  0  0  0  0  0
    0.8339   -2.8753   -0.6032 H   0  0  0  0  0  0  0  0  0  0  0  0
   -0.7261    0.2714   -2.6323 H   0  0  0  0  0  0  0  0  0  0  0  0
  1  9  1  0  0  0  0
  1 11  1  0  0  0  0
  2  1  1  0  0  0  0
  3 12  1  1  0  0  0
  3  4  1  0  0  0  0
  3  2  1  0  0  0  0
  4 14  1  0  0  0  0
  4 13  1  0  0  0  0
  5  4  1  0  0  0  0
  6  7  2  0  0  0  0
  6  5  1  0  0  0  0
  7  8  1  0  0  0  0
  8  3  1  0  0  0  0
 10  1  1  0  0  0  0
 15  5  1  0  0  0  0
 16  5  1  0  0  0  0
 17  7  1  0  0  0  0
M  END
