title
 OpenBabel02282110003D

 20 20  0  0  1  0  0  0  0  0999 V2000
    1.6263    2.2942   -0.5868 O   0  0  0  0  0  0  0  0  0  0  0  0
    1.6877    0.8746   -0.5955 C   0  0  0  0  0  0  0  0  0  0  0  0
    0.2568    0.3317   -0.5551 C   0  0  1  0  0  0  0  0  0  0  0  0
    0.2371   -1.1910   -0.7636 C   0  0  0  0  0  0  0  0  0  0  0  0
   -1.1441   -1.7767   -0.4458 C   0  0  0  0  0  0  0  0  0  0  0  0
   -1.5298   -1.5140    1.0170 C   0  0  0  0  0  0  0  0  0  0  0  0
   -1.2096   -0.1022    1.4358 C   0  0  0  0  0  0  0  0  0  0  0  0
   -0.4346    0.7207    0.7301 C   0  0  0  0  0  0  0  0  0  0  0  0
    2.5209    2.6349   -0.4998 H   0  0  0  0  0  0  0  0  0  0  0  0
    2.1926    0.5068   -1.5037 H   0  0  0  0  0  0  0  0  0  0  0  0
    2.2479    0.4945    0.2739 H   0  0  0  0  0  0  0  0  0  0  0  0
   -0.2692    0.8136   -1.3942 H   0  0  0  0  0  0  0  0  0  0  0  0
    0.5319   -1.4331   -1.7911 H   0  0  0  0  0  0  0  0  0  0  0  0
    0.9844   -1.6549   -0.1041 H   0  0  0  0  0  0  0  0  0  0  0  0
   -1.8891   -1.3119   -1.1043 H   0  0  0  0  0  0  0  0  0  0  0  0
   -1.1635   -2.8511   -0.6575 H   0  0  0  0  0  0  0  0  0  0  0  0
   -2.5982   -1.7142    1.1689 H   0  0  0  0  0  0  0  0  0  0  0  0
   -1.0058   -2.2203    1.6790 H   0  0  0  0  0  0  0  0  0  0  0  0
   -1.6499    0.2449    2.3684 H   0  0  0  0  0  0  0  0  0  0  0  0
   -0.2550    1.7358    1.0723 H   0  0  0  0  0  0  0  0  0  0  0  0
  1  9  1  0  0  0  0
  2  1  1  0  0  0  0
  2  3  1  0  0  0  0
  2 11  1  0  0  0  0
  3 12  1  6  0  0  0
  3  8  1  0  0  0  0
  4  3  1  0  0  0  0
  4  5  1  0  0  0  0
  4 14  1  0  0  0  0
  5  6  1  0  0  0  0
  6 17  1  0  0  0  0
  6  7  1  0  0  0  0
  6 18  1  0  0  0  0
  7 19  1  0  0  0  0
  8 20  1  0  0  0  0
  8  7  2  0  0  0  0
 10  2  1  0  0  0  0
 13  4  1  0  0  0  0
 15  5  1  0  0  0  0
 16  5  1  0  0  0  0
M  END
