22
title
C -1.5483767 2.4133234 -1.2204239
C -1.3829459 0.8908565 -1.1873424
C -0.6095835 0.35220736 0.03510552
C -0.75851285 -1.1749157 0.15351157
C 0.20036942 -1.7610987 1.1957806
C 1.6605036 -1.4885942 0.80801946
C 1.8538158 -0.07447445 0.3260519
C 0.85071486 0.7430445 0.0052336976
H -0.586006 2.9320092 -1.2734536
H -2.1337423 2.7242527 -2.0915112
H -2.0685296 2.772923 -0.3253706
H -2.3775437 0.42629647 -1.1934757
H -0.88115895 0.5512244 -2.1029751
H -1.0675912 0.8099804 0.9282569
H -1.7969753 -1.4265326 0.39830893
H -0.54906946 -1.6286029 -0.82543963
H -0.0054667573 -1.302059 2.1714983
H 0.032107413 -2.8371491 1.3130046
H 2.3246298 -1.684858 1.6595298
H 1.9811351 -2.1898522 0.022568874
H 2.8791254 0.28124648 0.24734454
H 1.0797012 1.7585346 -0.3097489
