title
 OpenBabel02282110003D

 20 20  0  0  1  0  0  0  0  0999 V2000
   -0.5241    2.5108    1.4439 C   0  0  0  0  0  0  0  0  0  0  0  0
   -0.3498    1.1153    1.4788 O   0  0  0  0  0  0  0  0  0  0  0  0
    0.2407    0.5640    0.3031 C   0  0  1  0  0  0  0  0  0  0  0  0
    0.8780   -0.7687    0.6961 C   0  0  0  0  0  0  0  0  0  0  0  0
    1.2912   -1.5643   -0.5467 C   0  0  0  0  0  0  0  0  0  0  0  0
    0.0736   -1.8899   -1.4254 C   0  0  0  0  0  0  0  0  0  0  0  0
   -0.8614   -0.7157   -1.5517 C   0  0  0  0  0  0  0  0  0  0  0  0
   -0.7816    0.3783   -0.7954 C   0  0  0  0  0  0  0  0  0  0  0  0
    0.4317    3.0367    1.2874 H   0  0  0  0  0  0  0  0  0  0  0  0
   -1.2228    2.8361    0.6583 H   0  0  0  0  0  0  0  0  0  0  0  0
   -0.9347    2.8093    2.4121 H   0  0  0  0  0  0  0  0  0  0  0  0
    1.0299    1.2554   -0.0453 H   0  0  0  0  0  0  0  0  0  0  0  0
    1.7328   -0.5854    1.3543 H   0  0  0  0  0  0  0  0  0  0  0  0
    0.1385   -1.3324    1.2776 H   0  0  0  0  0  0  0  0  0  0  0  0
    2.0103   -0.9753   -1.1311 H   0  0  0  0  0  0  0  0  0  0  0  0
    1.8069   -2.4853   -0.2553 H   0  0  0  0  0  0  0  0  0  0  0  0
    0.3970   -2.2183   -2.4215 H   0  0  0  0  0  0  0  0  0  0  0  0
   -0.4793   -2.7431   -1.0040 H   0  0  0  0  0  0  0  0  0  0  0  0
   -1.6431   -0.7906   -2.3051 H   0  0  0  0  0  0  0  0  0  0  0  0
   -1.4863    1.1925   -0.9445 H   0  0  0  0  0  0  0  0  0  0  0  0
  1  2  1  0  0  0  0
  1 11  1  0  0  0  0
  3 12  1  6  0  0  0
  3  4  1  0  0  0  0
  3  2  1  0  0  0  0
  4 14  1  0  0  0  0
  4 13  1  0  0  0  0
  5 16  1  0  0  0  0
  5  4  1  0  0  0  0
  6 18  1  0  0  0  0
  6  5  1  0  0  0  0
  7  6  1  0  0  0  0
  7  8  2  0  0  0  0
  8  3  1  0  0  0  0
  9  1  1  0  0  0  0
 10  1  1  0  0  0  0
 15  5  1  0  0  0  0
 17  6  1  0  0  0  0
 19  7  1  0  0  0  0
 20  8  1  0  0  0  0
M  END
