title
 OpenBabel02282110003D

 18 18  0  0  1  0  0  0  0  0999 V2000
   -1.0345    2.5464   -1.0919 C   0  0  0  0  0  0  0  0  0  0  0  0
   -1.0935    1.1412   -1.0145 O   0  0  0  0  0  0  0  0  0  0  0  0
   -0.3548    0.5823    0.0642 C   0  0  1  0  0  0  0  0  0  0  0  0
   -0.9645   -0.7940    0.3467 C   0  0  0  0  0  0  0  0  0  0  0  0
   -0.1659   -1.5181    1.2620 O   0  0  0  0  0  0  0  0  0  0  0  0
    1.1102   -1.8426    0.7444 C   0  0  0  0  0  0  0  0  0  0  0  0
    1.7654   -0.7016    0.0178 C   0  0  0  0  0  0  0  0  0  0  0  0
    1.1076    0.4173   -0.2745 C   0  0  0  0  0  0  0  0  0  0  0  0
   -0.0150    2.9186   -1.2727 H   0  0  0  0  0  0  0  0  0  0  0  0
   -1.6659    2.8497   -1.9308 H   0  0  0  0  0  0  0  0  0  0  0  0
   -1.4131    3.0196   -0.1723 H   0  0  0  0  0  0  0  0  0  0  0  0
   -0.4713    1.2218    0.9555 H   0  0  0  0  0  0  0  0  0  0  0  0
   -1.9543   -0.6969    0.7987 H   0  0  0  0  0  0  0  0  0  0  0  0
   -1.0709   -1.3279   -0.6105 H   0  0  0  0  0  0  0  0  0  0  0  0
    1.7180   -2.1545    1.6023 H   0  0  0  0  0  0  0  0  0  0  0  0
    1.0426   -2.7168    0.0697 H   0  0  0  0  0  0  0  0  0  0  0  0
    2.8046   -0.8405   -0.2698 H   0  0  0  0  0  0  0  0  0  0  0  0
    1.5983    1.2347   -0.7954 H   0  0  0  0  0  0  0  0  0  0  0  0
  1  2  1  0  0  0  0
  1 11  1  0  0  0  0
  2  3  1  0  0  0  0
  3  4  1  0  0  0  0
  3 12  1  1  0  0  0
  4 13  1  0  0  0  0
  4  5  1  0  0  0  0
  6  5  1  0  0  0  0
  6 15  1  0  0  0  0
  7  6  1  0  0  0  0
  8  7  2  0  0  0  0
  8  3  1  0  0  0  0
  9  1  1  0  0  0  0
 10  1  1  0  0  0  0
 14  4  1  0  0  0  0
 16  6  1  0  0  0  0
 17  7  1  0  0  0  0
 18  8  1  0  0  0  0
M  END
