title
 OpenBabel02282110003D

 22 22  0  0  1  0  0  0  0  0999 V2000
   -1.5484    2.4133   -1.2204 C   0  0  0  0  0  0  0  0  0  0  0  0
   -1.3829    0.8909   -1.1873 C   0  0  0  0  0  0  0  0  0  0  0  0
   -0.6096    0.3522    0.0351 C   0  0  1  0  0  0  0  0  0  0  0  0
   -0.7585   -1.1749    0.1535 C   0  0  0  0  0  0  0  0  0  0  0  0
    0.2004   -1.7611    1.1958 C   0  0  0  0  0  0  0  0  0  0  0  0
    1.6605   -1.4886    0.8080 C   0  0  0  0  0  0  0  0  0  0  0  0
    1.8538   -0.0745    0.3261 C   0  0  0  0  0  0  0  0  0  0  0  0
    0.8507    0.7430    0.0052 C   0  0  0  0  0  0  0  0  0  0  0  0
   -0.5860    2.9320   -1.2735 H   0  0  0  0  0  0  0  0  0  0  0  0
   -2.1337    2.7243   -2.0915 H   0  0  0  0  0  0  0  0  0  0  0  0
   -2.0685    2.7729   -0.3254 H   0  0  0  0  0  0  0  0  0  0  0  0
   -2.3775    0.4263   -1.1935 H   0  0  0  0  0  0  0  0  0  0  0  0
   -0.8812    0.5512   -2.1030 H   0  0  0  0  0  0  0  0  0  0  0  0
   -1.0676    0.8100    0.9283 H   0  0  0  0  0  0  0  0  0  0  0  0
   -1.7970   -1.4265    0.3983 H   0  0  0  0  0  0  0  0  0  0  0  0
   -0.5491   -1.6286   -0.8254 H   0  0  0  0  0  0  0  0  0  0  0  0
   -0.0055   -1.3021    2.1715 H   0  0  0  0  0  0  0  0  0  0  0  0
    0.0321   -2.8371    1.3130 H   0  0  0  0  0  0  0  0  0  0  0  0
    2.3246   -1.6849    1.6595 H   0  0  0  0  0  0  0  0  0  0  0  0
    1.9811   -2.1899    0.0226 H   0  0  0  0  0  0  0  0  0  0  0  0
    2.8791    0.2812    0.2473 H   0  0  0  0  0  0  0  0  0  0  0  0
    1.0797    1.7585   -0.3097 H   0  0  0  0  0  0  0  0  0  0  0  0
  1  2  1  0  0  0  0
  1 11  1  0  0  0  0
  2  3  1  0  0  0  0
  3  4  1  0  0  0  0
  3 14  1  1  0  0  0
  4 15  1  0  0  0  0
  4  5  1  0  0  0  0
  5 18  1  0  0  0  0
  5 17  1  0  0  0  0
  6  5  1  0  0  0  0
  6 19  1  0  0  0  0
  7  6  1  0  0  0  0
  8  3  1  0  0  0  0
  8  7  2  0  0  0  0
  9  1  1  0  0  0  0
 10  1  1  0  0  0  0
 12  2  1  0  0  0  0
 13  2  1  0  0  0  0
 16  4  1  0  0  0  0
 20  6  1  0  0  0  0
 21  7  1  0  0  0  0
 22  8  1  0  0  0  0
M  END
