18
title
C -1.0344934 2.5463843 -1.0919344
O -1.0935285 1.1411924 -1.0145087
C -0.35477564 0.5822944 0.06423809
C -0.9644785 -0.79400516 0.34673885
O -0.16589539 -1.5181123 1.2620087
C 1.1102473 -1.8426391 0.74436164
C 1.7653896 -0.70162594 0.017847199
C 1.1076189 0.41726804 -0.27453384
H -0.015035549 2.9186218 -1.2727404
H -1.6659044 2.8497272 -1.9307843
H -1.413079 3.0195537 -0.17228721
H -0.47134838 1.2217853 0.9555416
H -1.954333 -0.6968539 0.7986978
H -1.0709264 -1.3279129 -0.61054647
H 1.7179524 -2.1545427 1.60235
H 1.0426403 -2.7167668 0.0697055
H 2.8046362 -0.8404647 -0.26981428
H 1.598318 1.2347295 -0.79535806
