title
 OpenBabel02282110003D

 17 17  0  0  1  0  0  0  0  0999 V2000
    1.7524    2.1844    0.4219 O   0  0  0  0  0  0  0  0  0  0  0  0
    1.8238    0.7664    0.4558 C   0  0  0  0  0  0  0  0  0  0  0  0
    0.4027    0.2191    0.4351 C   0  0  1  0  0  0  0  0  0  0  0  0
   -0.3334    0.6238   -0.8397 C   0  0  0  0  0  0  0  0  0  0  0  0
   -1.6555    0.0655   -0.8801 O   0  0  0  0  0  0  0  0  0  0  0  0
   -1.7858   -1.1792   -0.3645 C   0  0  0  0  0  0  0  0  0  0  0  0
   -0.9456   -1.8869    0.2616 N   0  0  0  0  0  0  0  0  0  0  0  0
    0.3660   -1.3111    0.5452 C   0  0  0  0  0  0  0  0  0  0  0  0
    2.6477    2.5350    0.4155 H   0  0  0  0  0  0  0  0  0  0  0  0
    2.3819    0.3752   -0.4117 H   0  0  0  0  0  0  0  0  0  0  0  0
    2.3389    0.4116    1.3626 H   0  0  0  0  0  0  0  0  0  0  0  0
   -0.1382    0.6484    1.2878 H   0  0  0  0  0  0  0  0  0  0  0  0
   -0.4555    1.7046   -0.9118 H   0  0  0  0  0  0  0  0  0  0  0  0
    0.2174    0.2752   -1.7250 H   0  0  0  0  0  0  0  0  0  0  0  0
   -2.7910   -1.5516   -0.5551 H   0  0  0  0  0  0  0  0  0  0  0  0
    1.0996   -1.7613   -0.1398 H   0  0  0  0  0  0  0  0  0  0  0  0
    0.6601   -1.6283    1.5525 H   0  0  0  0  0  0  0  0  0  0  0  0
  1  2  1  0  0  0  0
  2 11  1  0  0  0  0
  3  2  1  0  0  0  0
  3  8  1  0  0  0  0
  3 12  1  1  0  0  0
  4  3  1  0  0  0  0
  5  4  1  0  0  0  0
  5  6  1  0  0  0  0
  6  7  2  0  0  0  0
  7  8  1  0  0  0  0
  8 17  1  0  0  0  0
  9  1  1  0  0  0  0
 10  2  1  0  0  0  0
 13  4  1  0  0  0  0
 14  4  1  0  0  0  0
 15  6  1  0  0  0  0
 16  8  1  0  0  0  0
M  END
