17
title
O 1.7524111 2.1844442 0.42193636
C 1.8238463 0.76644945 0.4557754
C 0.40267587 0.21907064 0.4351319
C -0.333449 0.6237831 -0.8397441
O -1.655481 0.06546392 -0.88009024
C -1.7857717 -1.1792493 -0.3645412
N -0.9455501 -1.8869482 0.26158437
C 0.36599278 -1.3111326 0.5451564
H 2.647729 2.5350072 0.41554138
H 2.3819404 0.37522724 -0.41168532
H 2.3389416 0.411646 1.3625542
H -0.13817632 0.6483736 1.2878354
H -0.45546496 1.7045602 -0.911759
H 0.21735919 0.27516493 -1.7249951
H -2.7909744 -1.5516192 -0.5550846
H 1.099625 -1.7613095 -0.1397588
H 0.6601306 -1.6282808 1.5524505
