17
title
O 1.8115832 2.1504416 -0.36320844
C 1.8061792 0.7398207 -0.4095227
C 0.39472073 0.176366 -0.5072628
C 0.31732637 -1.3445323 -0.5488322
C -1.1509967 -1.7745609 -0.44965333
N -1.8826041 -1.083648 0.6091222
C -1.4089079 0.00017986007 1.0501068
O -0.30113524 0.680832 0.6573433
H 1.2300302 2.4014897 0.36352706
H 2.3745368 0.44671196 -1.2984325
H 2.3035748 0.30006066 0.4701919
H -0.10041922 0.6084661 -1.3875296
H 0.7787849 -1.7171054 -1.4692487
H 0.88337034 -1.7571728 0.29495627
H -1.668215 -1.5960057 -1.4018313
H -1.2239478 -2.8511145 -0.26208785
H -1.8946035 0.5317903 1.8666954
