20
title
C -0.5240892 2.5108075 1.4438956
O -0.34977722 1.1152613 1.4788134
C 0.24065503 0.5640241 0.30308747
C 0.87800497 -0.7687173 0.6960881
C 1.2912481 -1.5643303 -0.54668
C 0.07363763 -1.8898988 -1.4254034
C -0.8614083 -0.7157233 -1.5516965
C -0.78158486 0.37832114 -0.79537296
H 0.4316624 3.0366662 1.2873894
H -1.2228107 2.8360715 0.658316
H -0.9346829 2.809257 2.4120917
H 1.0298746 1.2553905 -0.045332063
H 1.7328384 -0.5853684 1.3543402
H 0.1385347 -1.3324375 1.2776421
H 2.01027 -0.97530746 -1.1310735
H 1.8069072 -2.4852507 -0.25531638
H 0.3969597 -2.2182837 -2.421456
H -0.47932097 -2.743148 -1.004045
H -1.6430908 -0.79056454 -2.3050632
H -1.4863437 1.1924564 -0.94447565
