18
title
O 1.6880273 2.181501 0.47428083
C 1.6767956 0.77442867 0.57880664
C 0.24617536 0.23418848 0.66140497
O -0.39929894 0.7200564 -0.51206255
C -1.6437643 0.092503175 -0.77610755
C -1.4494658 -1.394198 -1.082177
C -0.54882604 -2.0124118 -0.045170996
C 0.1979204 -1.2650352 0.76450735
H 1.0642486 2.3948054 -0.23010662
H 2.1816363 0.2950153 -0.27497146
H 2.2245753 0.5114952 1.4898078
H -0.23185806 0.68777436 1.5495433
H -2.3179557 0.21078084 0.08722809
H -2.0826478 0.62577164 -1.623867
H -2.423319 -1.900022 -1.0962522
H -1.0214858 -1.5221963 -2.0857196
H -0.5356532 -3.0958433 0.038403656
H 0.81343275 -1.7159593 1.5389826
