title
 OpenBabel02282110003D

 24 24  0  0  0  0  0  0  0  0999 V2000
    1.9683    2.3826    0.4819 C   0  0  0  0  0  0  0  0  0  0  0  0
    1.8685    0.8540    0.4323 C   0  0  0  0  0  0  0  0  0  0  0  0
    0.4347    0.2979    0.4095 C   0  0  0  0  0  0  0  0  0  0  0  0
   -0.3388    0.6913   -0.8622 C   0  0  0  0  0  0  0  0  0  0  0  0
   -1.7585    0.1047   -0.8840 C   0  0  0  0  0  0  0  0  0  0  0  0
   -1.7432   -1.4201   -0.7137 C   0  0  0  0  0  0  0  0  0  0  0  0
   -0.9818   -1.8256    0.5552 C   0  0  0  0  0  0  0  0  0  0  0  0
    0.4347   -1.2330    0.5726 C   0  0  0  0  0  0  0  0  0  0  0  0
    3.0117    2.7042    0.5594 H   0  0  0  0  0  0  0  0  0  0  0  0
    1.5484    2.8513   -0.4134 H   0  0  0  0  0  0  0  0  0  0  0  0
    1.4323    2.7854    1.3490 H   0  0  0  0  0  0  0  0  0  0  0  0
    2.4102    0.4797   -0.4478 H   0  0  0  0  0  0  0  0  0  0  0  0
    2.3887    0.4368    1.3046 H   0  0  0  0  0  0  0  0  0  0  0  0
   -0.1033    0.7239    1.2720 H   0  0  0  0  0  0  0  0  0  0  0  0
   -0.3895    1.7812   -0.9579 H   0  0  0  0  0  0  0  0  0  0  0  0
    0.2175    0.3283   -1.7395 H   0  0  0  0  0  0  0  0  0  0  0  0
   -2.3454    0.5524   -0.0696 H   0  0  0  0  0  0  0  0  0  0  0  0
   -2.2650    0.3794   -1.8165 H   0  0  0  0  0  0  0  0  0  0  0  0
   -2.7665   -1.8116   -0.6862 H   0  0  0  0  0  0  0  0  0  0  0  0
   -1.2580   -1.8766   -1.5879 H   0  0  0  0  0  0  0  0  0  0  0  0
   -1.5331   -1.4688    1.4365 H   0  0  0  0  0  0  0  0  0  0  0  0
   -0.9350   -2.9174    0.6406 H   0  0  0  0  0  0  0  0  0  0  0  0
    1.0226   -1.6763   -0.2449 H   0  0  0  0  0  0  0  0  0  0  0  0
    0.9476   -1.5066    1.5029 H   0  0  0  0  0  0  0  0  0  0  0  0
  1  9  1  0  0  0  0
  1 11  1  0  0  0  0
  2  1  1  0  0  0  0
  2 13  1  0  0  0  0
  3  2  1  0  0  0  0
  3  8  1  0  0  0  0
  3 14  1  0  0  0  0
  4  3  1  0  0  0  0
  5  4  1  0  0  0  0
  5  6  1  0  0  0  0
  5 17  1  0  0  0  0
  6 19  1  0  0  0  0
  6  7  1  0  0  0  0
  7  8  1  0  0  0  0
  7 22  1  0  0  0  0
  7 21  1  0  0  0  0
  8 24  1  0  0  0  0
 10  1  1  0  0  0  0
 12  2  1  0  0  0  0
 15  4  1  0  0  0  0
 16  4  1  0  0  0  0
 18  5  1  0  0  0  0
 20  6  1  0  0  0  0
 23  8  1  0  0  0  0
M  END
