title
 OpenBabel02282110003D

 20 20  0  0  1  0  0  0  0  0999 V2000
   -0.5550    2.3333    1.8632 C   0  0  0  0  0  0  0  0  0  0  0  0
   -0.4936    0.8038    1.8477 C   0  0  0  0  0  0  0  0  0  0  0  0
    0.2133    0.2413    0.6202 C   0  0  1  0  0  0  0  0  0  0  0  0
    0.3427   -1.2872    0.6260 C   0  0  0  0  0  0  0  0  0  0  0  0
    0.8819   -1.7561   -0.7283 C   0  0  0  0  0  0  0  0  0  0  0  0
    0.0972   -1.2255   -1.7881 O   0  0  0  0  0  0  0  0  0  0  0  0
    0.0479    0.1742   -1.7203 C   0  0  0  0  0  0  0  0  0  0  0  0
   -0.5303    0.6445   -0.5334 O   0  0  0  0  0  0  0  0  0  0  0  0
    0.4502    2.7693    1.8823 H   0  0  0  0  0  0  0  0  0  0  0  0
   -1.0653    2.7060    0.9718 H   0  0  0  0  0  0  0  0  0  0  0  0
   -1.0923    2.6962    2.7444 H   0  0  0  0  0  0  0  0  0  0  0  0
    0.0283    0.4350    2.7395 H   0  0  0  0  0  0  0  0  0  0  0  0
   -1.5074    0.3866    1.8791 H   0  0  0  0  0  0  0  0  0  0  0  0
    1.2264    0.6808    0.5508 H   0  0  0  0  0  0  0  0  0  0  0  0
    1.0074   -1.6126    1.4344 H   0  0  0  0  0  0  0  0  0  0  0  0
   -0.6454   -1.7291    0.7968 H   0  0  0  0  0  0  0  0  0  0  0  0
    1.9323   -1.4377   -0.8467 H   0  0  0  0  0  0  0  0  0  0  0  0
    0.8456   -2.8441   -0.8268 H   0  0  0  0  0  0  0  0  0  0  0  0
    1.0700    0.5889   -1.8276 H   0  0  0  0  0  0  0  0  0  0  0  0
   -0.5851    0.5131   -2.5431 H   0  0  0  0  0  0  0  0  0  0  0  0
  1  9  1  0  0  0  0
  1 11  1  0  0  0  0
  2  1  1  0  0  0  0
  2 13  1  0  0  0  0
  2 12  1  0  0  0  0
  3 14  1  6  0  0  0
  3  4  1  0  0  0  0
  3  2  1  0  0  0  0
  4 16  1  0  0  0  0
  4 15  1  0  0  0  0
  5  4  1  0  0  0  0
  6  7  1  0  0  0  0
  6  5  1  0  0  0  0
  7  8  1  0  0  0  0
  8  3  1  0  0  0  0
 10  1  1  0  0  0  0
 17  5  1  0  0  0  0
 18  5  1  0  0  0  0
 19  7  1  0  0  0  0
 20  7  1  0  0  0  0
M  END
