title
 OpenBabel02282110003D

 22 22  0  0  0  0  0  0  0  0999 V2000
    1.9669    2.4123    0.4972 C   0  0  0  0  0  0  0  0  0  0  0  0
    1.8773    0.8829    0.4653 C   0  0  0  0  0  0  0  0  0  0  0  0
    0.4467    0.3232    0.4360 C   0  0  0  0  0  0  0  0  0  0  0  0
   -0.3297    0.6992   -0.8384 C   0  0  0  0  0  0  0  0  0  0  0  0
   -1.7056    0.0275   -0.8574 C   0  0  0  0  0  0  0  0  0  0  0  0
   -1.6137   -1.3805   -0.7311 O   0  0  0  0  0  0  0  0  0  0  0  0
   -0.9856   -1.7624    0.4804 C   0  0  0  0  0  0  0  0  0  0  0  0
    0.4365   -1.2080    0.5851 C   0  0  0  0  0  0  0  0  0  0  0  0
    3.0078    2.7414    0.5738 H   0  0  0  0  0  0  0  0  0  0  0  0
    1.5467    2.8665   -0.4056 H   0  0  0  0  0  0  0  0  0  0  0  0
    1.4255    2.8222    1.3575 H   0  0  0  0  0  0  0  0  0  0  0  0
    2.4272    0.5003   -0.4056 H   0  0  0  0  0  0  0  0  0  0  0  0
    2.3900    0.4766    1.3472 H   0  0  0  0  0  0  0  0  0  0  0  0
   -0.0988    0.7454    1.2955 H   0  0  0  0  0  0  0  0  0  0  0  0
   -0.4587    1.7843   -0.9187 H   0  0  0  0  0  0  0  0  0  0  0  0
    0.2374    0.3723   -1.7203 H   0  0  0  0  0  0  0  0  0  0  0  0
   -2.3301    0.4382   -0.0434 H   0  0  0  0  0  0  0  0  0  0  0  0
   -2.2245    0.2157   -1.8021 H   0  0  0  0  0  0  0  0  0  0  0  0
   -1.5851   -1.4147    1.3410 H   0  0  0  0  0  0  0  0  0  0  0  0
   -0.9871   -2.8565    0.4937 H   0  0  0  0  0  0  0  0  0  0  0  0
    1.0504   -1.6566   -0.2071 H   0  0  0  0  0  0  0  0  0  0  0  0
    0.8781   -1.5053    1.5443 H   0  0  0  0  0  0  0  0  0  0  0  0
  1  9  1  0  0  0  0
  1 11  1  0  0  0  0
  2  1  1  0  0  0  0
  2 13  1  0  0  0  0
  3  2  1  0  0  0  0
  3  8  1  0  0  0  0
  3 14  1  0  0  0  0
  4  3  1  0  0  0  0
  5  4  1  0  0  0  0
  5  6  1  0  0  0  0
  5 17  1  0  0  0  0
  6  7  1  0  0  0  0
  7 20  1  0  0  0  0
  7  8  1  0  0  0  0
  7 19  1  0  0  0  0
  8 22  1  0  0  0  0
 10  1  1  0  0  0  0
 12  2  1  0  0  0  0
 15  4  1  0  0  0  0
 16  4  1  0  0  0  0
 18  5  1  0  0  0  0
 21  8  1  0  0  0  0
M  END
