22
title
C -0.5784087 2.3156238 1.8400086
C -0.5115408 0.78654194 1.8234931
C 0.19407076 0.22380133 0.5927239
C 0.34215444 -1.3027306 0.62647516
C 0.95681936 -1.8212688 -0.6813031
C 0.17611045 -1.2767191 -1.885584
C 0.040218778 0.24302144 -1.7743136
O -0.5579542 0.6284269 -0.5493246
H 0.4256782 2.7546093 1.8571239
H -1.090709 2.6860662 0.94890815
H -1.1147891 2.677586 2.7224593
H 0.012470312 0.42060485 2.7150939
H -1.5245506 0.3668471 1.8579751
H 1.2049139 0.6704527 0.5230437
H 0.9568139 -1.5936828 1.4862663
H -0.6519228 -1.7453856 0.7722519
H 2.0019658 -1.488281 -0.7475229
H 0.9763641 -2.9162853 -0.6921192
H 0.6707813 -1.5372872 -2.8284783
H -0.82749116 -1.7192392 -1.9096543
H 1.0345649 0.71414435 -1.8729187
H -0.599086 0.64606756 -2.565876
