title
 OpenBabel02282110003D

 22 22  0  0  1  0  0  0  0  0999 V2000
   -0.5784    2.3156    1.8400 C   0  0  0  0  0  0  0  0  0  0  0  0
   -0.5115    0.7865    1.8235 C   0  0  0  0  0  0  0  0  0  0  0  0
    0.1941    0.2238    0.5927 C   0  0  1  0  0  0  0  0  0  0  0  0
    0.3422   -1.3027    0.6265 C   0  0  0  0  0  0  0  0  0  0  0  0
    0.9568   -1.8213   -0.6813 C   0  0  0  0  0  0  0  0  0  0  0  0
    0.1761   -1.2767   -1.8856 C   0  0  0  0  0  0  0  0  0  0  0  0
    0.0402    0.2430   -1.7743 C   0  0  0  0  0  0  0  0  0  0  0  0
   -0.5580    0.6284   -0.5493 O   0  0  0  0  0  0  0  0  0  0  0  0
    0.4257    2.7546    1.8571 H   0  0  0  0  0  0  0  0  0  0  0  0
   -1.0907    2.6861    0.9489 H   0  0  0  0  0  0  0  0  0  0  0  0
   -1.1148    2.6776    2.7225 H   0  0  0  0  0  0  0  0  0  0  0  0
    0.0125    0.4206    2.7151 H   0  0  0  0  0  0  0  0  0  0  0  0
   -1.5246    0.3668    1.8580 H   0  0  0  0  0  0  0  0  0  0  0  0
    1.2049    0.6705    0.5230 H   0  0  0  0  0  0  0  0  0  0  0  0
    0.9568   -1.5937    1.4863 H   0  0  0  0  0  0  0  0  0  0  0  0
   -0.6519   -1.7454    0.7723 H   0  0  0  0  0  0  0  0  0  0  0  0
    2.0020   -1.4883   -0.7475 H   0  0  0  0  0  0  0  0  0  0  0  0
    0.9764   -2.9163   -0.6921 H   0  0  0  0  0  0  0  0  0  0  0  0
    0.6708   -1.5373   -2.8285 H   0  0  0  0  0  0  0  0  0  0  0  0
   -0.8275   -1.7192   -1.9097 H   0  0  0  0  0  0  0  0  0  0  0  0
    1.0346    0.7141   -1.8729 H   0  0  0  0  0  0  0  0  0  0  0  0
   -0.5991    0.6461   -2.5659 H   0  0  0  0  0  0  0  0  0  0  0  0
  1  9  1  0  0  0  0
  1 11  1  0  0  0  0
  2  1  1  0  0  0  0
  2 13  1  0  0  0  0
  2 12  1  0  0  0  0
  3 14  1  6  0  0  0
  3  4  1  0  0  0  0
  3  2  1  0  0  0  0
  4 16  1  0  0  0  0
  4 15  1  0  0  0  0
  5  4  1  0  0  0  0
  6  7  1  0  0  0  0
  6  5  1  0  0  0  0
  7  8  1  0  0  0  0
  8  3  1  0  0  0  0
 10  1  1  0  0  0  0
 17  5  1  0  0  0  0
 18  5  1  0  0  0  0
 19  6  1  0  0  0  0
 20  6  1  0  0  0  0
 21  7  1  0  0  0  0
 22  7  1  0  0  0  0
M  END
