17
title
O 1.7046422 2.2314522 -0.49471837
C 1.716609 0.83278507 -0.65251786
C 0.29245988 0.262314 -0.6045052
C 0.24038449 -1.2630817 -0.71540445
C -1.1616514 -1.7346529 -0.34946388
O -1.5563526 -1.2430729 0.94352615
C -1.1024954 -0.014964551 1.2739483
N -0.31102774 0.7436305 0.64328253
H 1.0983888 2.3906984 0.24282582
H 2.178836 0.61286557 -1.6215777
H 2.3211493 0.3391314 0.12822433
H -0.2644113 0.71659726 -1.4361085
H 0.4933137 -1.6016608 -1.7253889
H 0.965699 -1.7110478 -0.0253986
H -1.8950849 -1.3828832 -1.0859145
H -1.2334034 -2.82261 -0.28449178
H -1.5210738 0.28746077 2.2323453
