18
title
O 1.6005543 2.322446 -0.6115903
C 1.673993 0.9042991 -0.60054916
C 0.24558698 0.3601413 -0.5373386
C 0.23019753 -1.1669843 -0.6812111
O -1.0555189 -1.6990583 -0.42050445
C -1.466789 -1.5052252 0.91922003
C -1.1929162 -0.11686935 1.4273139
C -0.43709543 0.7448222 0.7518789
H 2.4943433 2.671889 -0.5542153
H 2.1733568 0.52657163 -1.5079794
H 2.2456236 0.5414998 0.26875442
H -0.297529 0.8033213 -1.3841649
H 0.48531434 -1.4731157 -1.7002041
H 0.9752336 -1.6112239 0.0023487064
H -2.5427592 -1.7169366 0.9382202
H -0.9869976 -2.2497735 1.5826997
H -1.6475039 0.15196548 2.3775196
H -0.26548043 1.7534158 1.1145654
