title
 OpenBabel02282110003D

 17 17  0  0  1  0  0  0  0  0999 V2000
    1.7046    2.2315   -0.4947 O   0  0  0  0  0  0  0  0  0  0  0  0
    1.7166    0.8328   -0.6525 C   0  0  0  0  0  0  0  0  0  0  0  0
    0.2925    0.2623   -0.6045 C   0  0  1  0  0  0  0  0  0  0  0  0
    0.2404   -1.2631   -0.7154 C   0  0  0  0  0  0  0  0  0  0  0  0
   -1.1617   -1.7347   -0.3495 C   0  0  0  0  0  0  0  0  0  0  0  0
   -1.5564   -1.2431    0.9435 O   0  0  0  0  0  0  0  0  0  0  0  0
   -1.1025   -0.0150    1.2739 C   0  0  0  0  0  0  0  0  0  0  0  0
   -0.3110    0.7436    0.6433 N   0  0  0  0  0  0  0  0  0  0  0  0
    1.0984    2.3907    0.2428 H   0  0  0  0  0  0  0  0  0  0  0  0
    2.1788    0.6129   -1.6216 H   0  0  0  0  0  0  0  0  0  0  0  0
    2.3211    0.3391    0.1282 H   0  0  0  0  0  0  0  0  0  0  0  0
   -0.2644    0.7166   -1.4361 H   0  0  0  0  0  0  0  0  0  0  0  0
    0.4933   -1.6017   -1.7254 H   0  0  0  0  0  0  0  0  0  0  0  0
    0.9657   -1.7110   -0.0254 H   0  0  0  0  0  0  0  0  0  0  0  0
   -1.8951   -1.3829   -1.0859 H   0  0  0  0  0  0  0  0  0  0  0  0
   -1.2334   -2.8226   -0.2845 H   0  0  0  0  0  0  0  0  0  0  0  0
   -1.5211    0.2875    2.2323 H   0  0  0  0  0  0  0  0  0  0  0  0
  1  9  1  0  0  0  0
  2  3  1  0  0  0  0
  2  1  1  0  0  0  0
  2 11  1  0  0  0  0
  3 12  1  6  0  0  0
  3  8  1  0  0  0  0
  4  3  1  0  0  0  0
  4  5  1  0  0  0  0
  4 14  1  0  0  0  0
  5 16  1  0  0  0  0
  5  6  1  0  0  0  0
  6  7  1  0  0  0  0
  7 17  1  0  0  0  0
  8  7  2  0  0  0  0
 10  2  1  0  0  0  0
 13  4  1  0  0  0  0
 15  5  1  0  0  0  0
M  END
