title
 OpenBabel02282110003D

 22 22  0  0  0  0  0  0  0  0999 V2000
   -0.9937    2.3956    1.4106 C   0  0  0  0  0  0  0  0  0  0  0  0
   -1.1429    1.0090    1.2232 O   0  0  0  0  0  0  0  0  0  0  0  0
   -0.4248    0.4724    0.1213 C   0  0  0  0  0  0  0  0  0  0  0  0
    1.0806    0.3437    0.4016 C   0  0  0  0  0  0  0  0  0  0  0  0
    1.8091   -0.3487   -0.7612 C   0  0  0  0  0  0  0  0  0  0  0  0
    1.1892   -1.7169   -1.0770 C   0  0  0  0  0  0  0  0  0  0  0  0
   -0.3170   -1.5928   -1.3475 C   0  0  0  0  0  0  0  0  0  0  0  0
   -1.0405   -0.8928   -0.1885 C   0  0  0  0  0  0  0  0  0  0  0  0
    0.0280    2.6813    1.7013 H   0  0  0  0  0  0  0  0  0  0  0  0
   -1.2616    2.9603    0.5029 H   0  0  0  0  0  0  0  0  0  0  0  0
   -1.6732    2.6867    2.2161 H   0  0  0  0  0  0  0  0  0  0  0  0
   -0.5648    1.1328   -0.7545 H   0  0  0  0  0  0  0  0  0  0  0  0
    1.5220    1.3290    0.5871 H   0  0  0  0  0  0  0  0  0  0  0  0
    1.2045   -0.2400    1.3233 H   0  0  0  0  0  0  0  0  0  0  0  0
    1.7539    0.2880   -1.6555 H   0  0  0  0  0  0  0  0  0  0  0  0
    2.8738   -0.4550   -0.5252 H   0  0  0  0  0  0  0  0  0  0  0  0
    1.6940   -2.1740   -1.9355 H   0  0  0  0  0  0  0  0  0  0  0  0
    1.3492   -2.3911   -0.2243 H   0  0  0  0  0  0  0  0  0  0  0  0
   -0.4715   -1.0201   -2.2727 H   0  0  0  0  0  0  0  0  0  0  0  0
   -0.7577   -2.5809   -1.5200 H   0  0  0  0  0  0  0  0  0  0  0  0
   -0.9778   -1.5071    0.7193 H   0  0  0  0  0  0  0  0  0  0  0  0
   -2.1052   -0.7640   -0.4090 H   0  0  0  0  0  0  0  0  0  0  0  0
  1  9  1  0  0  0  0
  1 11  1  0  0  0  0
  2  1  1  0  0  0  0
  3  4  1  0  0  0  0
  3  2  1  0  0  0  0
  4 13  1  0  0  0  0
  4 14  1  0  0  0  0
  5 16  1  0  0  0  0
  5  4  1  0  0  0  0
  6  5  1  0  0  0  0
  6 18  1  0  0  0  0
  7  6  1  0  0  0  0
  7  8  1  0  0  0  0
  8  3  1  0  0  0  0
  8 21  1  0  0  0  0
 10  1  1  0  0  0  0
 12  3  1  0  0  0  0
 15  5  1  0  0  0  0
 17  6  1  0  0  0  0
 19  7  1  0  0  0  0
 20  7  1  0  0  0  0
 22  8  1  0  0  0  0
M  END
