title
 OpenBabel02282110003D

 22 22  0  0  0  0  0  0  0  0999 V2000
    1.7886    2.2282    0.4167 O   0  0  0  0  0  0  0  0  0  0  0  0
    1.8478    0.8078    0.4350 C   0  0  0  0  0  0  0  0  0  0  0  0
    0.4231    0.2621    0.4149 C   0  0  0  0  0  0  0  0  0  0  0  0
   -0.3312    0.6801   -0.8582 C   0  0  0  0  0  0  0  0  0  0  0  0
   -1.7618    0.1245   -0.8804 C   0  0  0  0  0  0  0  0  0  0  0  0
   -1.7741   -1.4016   -0.7139 C   0  0  0  0  0  0  0  0  0  0  0  0
   -1.0189   -1.8297    0.5522 C   0  0  0  0  0  0  0  0  0  0  0  0
    0.4104   -1.2670    0.5755 C   0  0  0  0  0  0  0  0  0  0  0  0
    2.6867    2.5666    0.3640 H   0  0  0  0  0  0  0  0  0  0  0  0
    2.4009    0.4231   -0.4388 H   0  0  0  0  0  0  0  0  0  0  0  0
    2.3695    0.4473    1.3368 H   0  0  0  0  0  0  0  0  0  0  0  0
   -0.0979    0.7022    1.2784 H   0  0  0  0  0  0  0  0  0  0  0  0
   -0.3345    1.7705   -0.9391 H   0  0  0  0  0  0  0  0  0  0  0  0
    0.2181    0.3016   -1.7337 H   0  0  0  0  0  0  0  0  0  0  0  0
   -2.3398    0.5816   -0.0649 H   0  0  0  0  0  0  0  0  0  0  0  0
   -2.2638    0.4097   -1.8121 H   0  0  0  0  0  0  0  0  0  0  0  0
   -2.8040   -1.7756   -0.6851 H   0  0  0  0  0  0  0  0  0  0  0  0
   -1.2992   -1.8640   -1.5908 H   0  0  0  0  0  0  0  0  0  0  0  0
   -1.5615   -1.4670    1.4363 H   0  0  0  0  0  0  0  0  0  0  0  0
   -0.9939   -2.9227    0.6307 H   0  0  0  0  0  0  0  0  0  0  0  0
    0.9901   -1.7193   -0.2429 H   0  0  0  0  0  0  0  0  0  0  0  0
    0.9139   -1.5537    1.5070 H   0  0  0  0  0  0  0  0  0  0  0  0
  1  2  1  0  0  0  0
  2 11  1  0  0  0  0
  3  2  1  0  0  0  0
  3  8  1  0  0  0  0
  3 12  1  0  0  0  0
  4  3  1  0  0  0  0
  5  4  1  0  0  0  0
  5  6  1  0  0  0  0
  5 15  1  0  0  0  0
  6 17  1  0  0  0  0
  6  7  1  0  0  0  0
  7  8  1  0  0  0  0
  7 20  1  0  0  0  0
  7 19  1  0  0  0  0
  8 22  1  0  0  0  0
  9  1  1  0  0  0  0
 10  2  1  0  0  0  0
 13  4  1  0  0  0  0
 14  4  1  0  0  0  0
 16  5  1  0  0  0  0
 18  6  1  0  0  0  0
 21  8  1  0  0  0  0
M  END
