title
 OpenBabel02282110003D

 20 20  0  0  1  0  0  0  0  0999 V2000
    1.7591    2.2219   -0.4446 O   0  0  0  0  0  0  0  0  0  0  0  0
    1.8328    0.8038   -0.4990 C   0  0  0  0  0  0  0  0  0  0  0  0
    0.4140    0.2480   -0.4742 C   0  0  1  0  0  0  0  0  0  0  0  0
    0.3976   -1.2803   -0.6356 C   0  0  0  0  0  0  0  0  0  0  0  0
   -1.0318   -1.8199   -0.4898 C   0  0  0  0  0  0  0  0  0  0  0  0
   -1.6637   -1.2954    0.8016 C   0  0  0  0  0  0  0  0  0  0  0  0
   -1.6367    0.1193    0.8620 O   0  0  0  0  0  0  0  0  0  0  0  0
   -0.3179    0.6353    0.8193 C   0  0  0  0  0  0  0  0  0  0  0  0
    2.6542    2.5711   -0.4117 H   0  0  0  0  0  0  0  0  0  0  0  0
    2.3433    0.4662   -1.4157 H   0  0  0  0  0  0  0  0  0  0  0  0
    2.4021    0.4029    0.3569 H   0  0  0  0  0  0  0  0  0  0  0  0
   -0.1358    0.6988   -1.3112 H   0  0  0  0  0  0  0  0  0  0  0  0
    0.8256   -1.5708   -1.6021 H   0  0  0  0  0  0  0  0  0  0  0  0
    1.0353   -1.7316    0.1388 H   0  0  0  0  0  0  0  0  0  0  0  0
   -1.6414   -1.4907   -1.3401 H   0  0  0  0  0  0  0  0  0  0  0  0
   -1.0380   -2.9160   -0.4882 H   0  0  0  0  0  0  0  0  0  0  0  0
   -2.7162   -1.5851    0.8760 H   0  0  0  0  0  0  0  0  0  0  0  0
   -1.1343   -1.7203    1.6737 H   0  0  0  0  0  0  0  0  0  0  0  0
    0.2606    0.2691    1.6882 H   0  0  0  0  0  0  0  0  0  0  0  0
   -0.4026    1.7200    0.9038 H   0  0  0  0  0  0  0  0  0  0  0  0
  1  9  1  0  0  0  0
  2  3  1  0  0  0  0
  2  1  1  0  0  0  0
  2 11  1  0  0  0  0
  3 12  1  6  0  0  0
  3  8  1  0  0  0  0
  4  5  1  0  0  0  0
  4  3  1  0  0  0  0
  4 14  1  0  0  0  0
  5 16  1  0  0  0  0
  5  6  1  0  0  0  0
  6  7  1  0  0  0  0
  6 17  1  0  0  0  0
  6 18  1  0  0  0  0
  8  7  1  0  0  0  0
  8 20  1  0  0  0  0
  8 19  1  0  0  0  0
 10  2  1  0  0  0  0
 13  4  1  0  0  0  0
 15  5  1  0  0  0  0
M  END
