20
title
C 1.6235831 2.2933648 -0.42282757
O 1.6275464 0.8762209 -0.44101834
C 0.36538896 0.3046099 -0.44057226
C 0.50582904 -1.2026521 -0.6238794
C -0.8672721 -1.8818876 -0.51101464
C -1.5775968 -1.4443904 0.77792627
C -1.5839866 0.0824762 0.87695295
O -0.26897493 0.60966 0.7946289
H 2.665596 2.6129339 -0.49144983
H 1.067721 2.6998556 -1.2816671
H 1.1809802 2.6833184 0.4996598
H -0.25307348 0.7348231 -1.2582844
H 0.9743585 -1.4072148 -1.5915766
H 1.1827233 -1.5651923 0.15783523
H -1.4842244 -1.6025921 -1.3763468
H -0.75761503 -2.9704792 -0.54625404
H -2.6057336 -1.8228363 0.8086154
H -1.0517274 -1.8511702 1.6501487
H -2.2136114 0.5072596 0.074941084
H -1.9893814 0.42322934 1.833881
