20
title
C -0.7687478 2.4427805 -1.5164022
O -0.4696619 1.0690492 -1.5999776
C 0.12086122 0.5171245 -0.43596417
C -0.8704849 0.34110847 0.7246601
C -0.21156962 -0.44280103 1.865184
O 0.28133863 -1.6963531 1.430466
C 1.2596167 -1.5568906 0.41513282
C 0.7029574 -0.8425773 -0.82010365
H 0.120149896 3.03719 -1.2506223
H -1.1169358 2.7561436 -2.5038967
H -1.5597476 2.6632128 -0.7848032
H 0.9424448 1.1764917 -0.09953064
H -1.218897 1.3083797 1.1031972
H -1.744099 -0.21002892 0.3577581
H 0.60802114 0.15368244 2.3046498
H -0.93112665 -0.6541968 2.6612332
H 2.1328642 -1.0057791 0.8074078
H 1.590616 -2.568792 0.16539782
H -0.09304334 -1.4492458 -1.2664263
H 1.486846 -0.71672505 -1.5743504
