title
 OpenBabel02282110003D

 18 18  0  0  1  0  0  0  0  0999 V2000
   -0.4712    2.2778    1.6720 C   0  0  0  0  0  0  0  0  0  0  0  0
   -0.4417    0.8597    1.6238 O   0  0  0  0  0  0  0  0  0  0  0  0
    0.2029    0.3431    0.5170 C   0  0  1  0  0  0  0  0  0  0  0  0
    0.2982   -1.1724    0.6786 C   0  0  0  0  0  0  0  0  0  0  0  0
    0.8605   -1.7599   -0.4830 O   0  0  0  0  0  0  0  0  0  0  0  0
    0.1105   -1.4373   -1.6437 C   0  0  0  0  0  0  0  0  0  0  0  0
    0.0214    0.0752   -1.8111 C   0  0  0  0  0  0  0  0  0  0  0  0
   -0.5489    0.6591   -0.6488 O   0  0  0  0  0  0  0  0  0  0  0  0
    0.5465    2.6953    1.6541 H   0  0  0  0  0  0  0  0  0  0  0  0
   -1.0405    2.6949    0.8349 H   0  0  0  0  0  0  0  0  0  0  0  0
   -0.9524    2.5509    2.6131 H   0  0  0  0  0  0  0  0  0  0  0  0
    1.2186    0.7745    0.4041 H   0  0  0  0  0  0  0  0  0  0  0  0
    0.9508   -1.4292    1.5165 H   0  0  0  0  0  0  0  0  0  0  0  0
   -0.7129   -1.5608    0.8760 H   0  0  0  0  0  0  0  0  0  0  0  0
    0.6268   -1.8983   -2.4913 H   0  0  0  0  0  0  0  0  0  0  0  0
   -0.9050   -1.8597   -1.5735 H   0  0  0  0  0  0  0  0  0  0  0  0
    1.0281    0.4853   -1.9937 H   0  0  0  0  0  0  0  0  0  0  0  0
   -0.6244    0.3455   -2.6519 H   0  0  0  0  0  0  0  0  0  0  0  0
  1 11  1  0  0  0  0
  2  1  1  0  0  0  0
  3 12  1  6  0  0  0
  3  4  1  0  0  0  0
  3  2  1  0  0  0  0
  4 14  1  0  0  0  0
  4 13  1  0  0  0  0
  5  4  1  0  0  0  0
  6 16  1  0  0  0  0
  6  5  1  0  0  0  0
  7  6  1  0  0  0  0
  7  8  1  0  0  0  0
  8  3  1  0  0  0  0
  9  1  1  0  0  0  0
 10  1  1  0  0  0  0
 15  6  1  0  0  0  0
 17  7  1  0  0  0  0
 18  7  1  0  0  0  0
M  END
