title
 OpenBabel02282110003D

 20 20  0  0  1  0  0  0  0  0999 V2000
   -0.6774    2.4102    1.5638 C   0  0  0  0  0  0  0  0  0  0  0  0
   -0.4771    1.0147    1.5954 O   0  0  0  0  0  0  0  0  0  0  0  0
    0.1429    0.4767    0.4403 C   0  0  1  0  0  0  0  0  0  0  0  0
    0.7540   -0.8717    0.8196 C   0  0  0  0  0  0  0  0  0  0  0  0
    1.3024   -1.5820   -0.4269 C   0  0  0  0  0  0  0  0  0  0  0  0
    0.2334   -1.6342   -1.5190 C   0  0  0  0  0  0  0  0  0  0  0  0
   -0.2613   -0.3405   -1.8270 O   0  0  0  0  0  0  0  0  0  0  0  0
   -0.8651    0.2802   -0.7066 C   0  0  0  0  0  0  0  0  0  0  0  0
    0.2677    2.9512    1.4006 H   0  0  0  0  0  0  0  0  0  0  0  0
   -1.3897    2.7225    0.7865 H   0  0  0  0  0  0  0  0  0  0  0  0
   -1.0829    2.6980    2.5371 H   0  0  0  0  0  0  0  0  0  0  0  0
    0.9395    1.1540    0.0891 H   0  0  0  0  0  0  0  0  0  0  0  0
    1.5327   -0.7274    1.5750 H   0  0  0  0  0  0  0  0  0  0  0  0
   -0.0334   -1.4799    1.2839 H   0  0  0  0  0  0  0  0  0  0  0  0
    2.1754   -1.0417   -0.8131 H   0  0  0  0  0  0  0  0  0  0  0  0
    1.6328   -2.5973   -0.1796 H   0  0  0  0  0  0  0  0  0  0  0  0
    0.6364   -2.0352   -2.4535 H   0  0  0  0  0  0  0  0  0  0  0  0
   -0.5976   -2.2872   -1.1992 H   0  0  0  0  0  0  0  0  0  0  0  0
   -1.7097   -0.3209   -0.3283 H   0  0  0  0  0  0  0  0  0  0  0  0
   -1.2602    1.2356   -1.0626 H   0  0  0  0  0  0  0  0  0  0  0  0
  1  2  1  0  0  0  0
  1 11  1  0  0  0  0
  3 12  1  6  0  0  0
  3  4  1  0  0  0  0
  3  2  1  0  0  0  0
  4 14  1  0  0  0  0
  4 13  1  0  0  0  0
  5 16  1  0  0  0  0
  5  4  1  0  0  0  0
  6 18  1  0  0  0  0
  6  5  1  0  0  0  0
  7  6  1  0  0  0  0
  7  8  1  0  0  0  0
  8 19  1  0  0  0  0
  8  3  1  0  0  0  0
  9  1  1  0  0  0  0
 10  1  1  0  0  0  0
 15  5  1  0  0  0  0
 17  6  1  0  0  0  0
 20  8  1  0  0  0  0
M  END
