18
title
C -0.47116765 2.2777805 1.6719917
O -0.44165286 0.8597265 1.6237748
C 0.20287196 0.34306893 0.51698285
C 0.2982398 -1.172446 0.67863876
O 0.8605125 -1.7598531 -0.48303944
C 0.11053685 -1.4373281 -1.6437094
C 0.021404395 0.07515315 -1.8110821
O -0.54893696 0.6590875 -0.6487859
H 0.54646844 2.6952636 1.6541327
H -1.0404706 2.6948793 0.8349396
H -0.95238036 2.5509152 2.6131036
H 1.218564 0.77445996 0.40405935
H 0.9507524 -1.429162 1.5165209
H -0.71290255 -1.5608428 0.87595415
H 0.6268126 -1.8982975 -2.4912503
H -0.90499836 -1.85974 -1.5735478
H 1.0281444 0.4853351 -1.9936628
H -0.62437195 0.34549776 -2.6518586
