title
 OpenBabel02282110003D

 15 15  0  0  1  0  0  0  0  0999 V2000
   -0.1781   -2.7487    0.5826 C   0  0  0  0  0  0  0  0  0  0  0  0
   -0.0393   -1.5581    0.5250 C   0  0  0  0  0  0  0  0  0  0  0  0
    0.1033   -0.1024    0.4348 C   0  0  1  0  0  0  0  0  0  0  0  0
    1.5271    0.2849    0.4163 C   0  0  0  0  0  0  0  0  0  0  0  0
    2.6352    0.6092    0.3919 N   0  0  0  0  0  0  0  0  0  0  0  0
   -0.6273    0.4771   -0.7796 C   0  0  0  0  0  0  0  0  0  0  0  0
   -2.0941    0.7913   -0.6701 C   0  0  0  0  0  0  0  0  0  0  0  0
   -1.0846    1.9103   -0.7541 C   0  0  0  0  0  0  0  0  0  0  0  0
   -0.2931   -3.8032    0.6386 H   0  0  0  0  0  0  0  0  0  0  0  0
   -0.3325    0.3483    1.3380 H   0  0  0  0  0  0  0  0  0  0  0  0
   -0.2691    0.0818   -1.7238 H   0  0  0  0  0  0  0  0  0  0  0  0
   -2.7212    0.5901   -1.5309 H   0  0  0  0  0  0  0  0  0  0  0  0
   -2.5816    0.6156    0.2831 H   0  0  0  0  0  0  0  0  0  0  0  0
   -0.8917    2.4901    0.1425 H   0  0  0  0  0  0  0  0  0  0  0  0
   -1.0142    2.4811   -1.6726 H   0  0  0  0  0  0  0  0  0  0  0  0
  1  9  1  0  0  0  0
  2  1  3  0  0  0  0
  3  2  1  0  0  0  0
  3 10  1  1  0  0  0
  4  3  1  0  0  0  0
  5  4  3  0  0  0  0
  6  8  1  0  0  0  0
  6  7  1  0  0  0  0
  6  3  1  0  0  0  0
  7 13  1  0  0  0  0
  8  7  1  0  0  0  0
  8 14  1  0  0  0  0
 11  6  1  0  0  0  0
 12  7  1  0  0  0  0
 15  8  1  0  0  0  0
M  END
