15
title
C -0.17812887 -2.748667 0.58260643
C -0.039306346 -1.5581275 0.52502775
C 0.10333527 -0.102446474 0.43477067
C 1.5270718 0.28487787 0.4162691
N 2.6351624 0.6092022 0.39194456
C -0.6273437 0.47708783 -0.7795976
C -2.0940623 0.79126245 -0.670149
C -1.0845854 1.9102789 -0.75410944
H -0.2931494 -3.8032236 0.63861185
H -0.33246073 0.34831414 1.3379893
H -0.26910132 0.08175465 -1.7237628
H -2.7211828 0.590103 -1.5308514
H -2.581563 0.6155849 0.28314707
H -0.8916574 2.4900942 0.1425384
H -1.01422 2.4810548 -1.6725595
