title
 OpenBabel02282110003D

 18 18  0  0  1  0  0  0  0  0999 V2000
    1.8071    2.1882   -0.3949 O   0  0  0  0  0  0  0  0  0  0  0  0
    1.8216    0.7808   -0.5039 C   0  0  0  0  0  0  0  0  0  0  0  0
    0.4112    0.2075   -0.5259 C   0  0  1  0  0  0  0  0  0  0  0  0
    0.3480   -1.3194   -0.6130 C   0  0  0  0  0  0  0  0  0  0  0  0
   -1.0964   -1.7742   -0.3792 C   0  0  0  0  0  0  0  0  0  0  0  0
   -1.6061   -1.2163    0.8258 O   0  0  0  0  0  0  0  0  0  0  0  0
   -1.5259    0.1810    0.8067 C   0  0  0  0  0  0  0  0  0  0  0  0
   -0.2046    0.6450    0.6923 O   0  0  0  0  0  0  0  0  0  0  0  0
    1.2201    2.3876    0.3441 H   0  0  0  0  0  0  0  0  0  0  0  0
    2.3354    0.5326   -1.4387 H   0  0  0  0  0  0  0  0  0  0  0  0
    2.3800    0.3145    0.3240 H   0  0  0  0  0  0  0  0  0  0  0  0
   -0.1385    0.6523   -1.3735 H   0  0  0  0  0  0  0  0  0  0  0  0
    0.7023   -1.6633   -1.5913 H   0  0  0  0  0  0  0  0  0  0  0  0
    0.9941   -1.7533    0.1581 H   0  0  0  0  0  0  0  0  0  0  0  0
   -1.7307   -1.4690   -1.2288 H   0  0  0  0  0  0  0  0  0  0  0  0
   -1.1684   -2.8595   -0.2744 H   0  0  0  0  0  0  0  0  0  0  0  0
   -2.1327    0.5827   -0.0280 H   0  0  0  0  0  0  0  0  0  0  0  0
   -1.9110    0.5402    1.7630 H   0  0  0  0  0  0  0  0  0  0  0  0
  1  9  1  0  0  0  0
  2  1  1  0  0  0  0
  2 11  1  0  0  0  0
  3 12  1  6  0  0  0
  3  2  1  0  0  0  0
  3  8  1  0  0  0  0
  4  3  1  0  0  0  0
  4  5  1  0  0  0  0
  4 14  1  0  0  0  0
  5 16  1  0  0  0  0
  5  6  1  0  0  0  0
  7  6  1  0  0  0  0
  7 18  1  0  0  0  0
  8  7  1  0  0  0  0
 10  2  1  0  0  0  0
 13  4  1  0  0  0  0
 15  5  1  0  0  0  0
 17  7  1  0  0  0  0
M  END
