title
 OpenBabel02282110003D

 20 20  0  0  0  0  0  0  0  0999 V2000
    1.7922    2.2539    0.4276 O   0  0  0  0  0  0  0  0  0  0  0  0
    1.8590    0.8350    0.4626 C   0  0  0  0  0  0  0  0  0  0  0  0
    0.4363    0.2878    0.4409 C   0  0  0  0  0  0  0  0  0  0  0  0
   -0.3230    0.6880   -0.8343 C   0  0  0  0  0  0  0  0  0  0  0  0
   -1.7113    0.0469   -0.8530 C   0  0  0  0  0  0  0  0  0  0  0  0
   -1.6445   -1.3652   -0.7291 O   0  0  0  0  0  0  0  0  0  0  0  0
   -1.0248   -1.7638    0.4800 C   0  0  0  0  0  0  0  0  0  0  0  0
    0.4106   -1.2413    0.5895 C   0  0  0  0  0  0  0  0  0  0  0  0
    2.6886    2.5978    0.3813 H   0  0  0  0  0  0  0  0  0  0  0  0
    2.4171    0.4416   -0.4036 H   0  0  0  0  0  0  0  0  0  0  0  0
    2.3754    0.4847    1.3716 H   0  0  0  0  0  0  0  0  0  0  0  0
   -0.0897    0.7265    1.3020 H   0  0  0  0  0  0  0  0  0  0  0  0
   -0.4045    1.7766   -0.9019 H   0  0  0  0  0  0  0  0  0  0  0  0
    0.2374    0.3447   -1.7144 H   0  0  0  0  0  0  0  0  0  0  0  0
   -2.3278    0.4660   -0.0378 H   0  0  0  0  0  0  0  0  0  0  0  0
   -2.2278    0.2446   -1.7969 H   0  0  0  0  0  0  0  0  0  0  0  0
   -1.6148   -1.4061    1.3429 H   0  0  0  0  0  0  0  0  0  0  0  0
   -1.0484   -2.8576    0.4901 H   0  0  0  0  0  0  0  0  0  0  0  0
    1.0152   -1.7013   -0.2034 H   0  0  0  0  0  0  0  0  0  0  0  0
    0.8420   -1.5503    1.5497 H   0  0  0  0  0  0  0  0  0  0  0  0
  1  2  1  0  0  0  0
  2 11  1  0  0  0  0
  3  2  1  0  0  0  0
  3  8  1  0  0  0  0
  3 12  1  0  0  0  0
  4  3  1  0  0  0  0
  5  4  1  0  0  0  0
  5  6  1  0  0  0  0
  5 15  1  0  0  0  0
  6  7  1  0  0  0  0
  7 18  1  0  0  0  0
  7  8  1  0  0  0  0
  7 17  1  0  0  0  0
  8 20  1  0  0  0  0
  9  1  1  0  0  0  0
 10  2  1  0  0  0  0
 13  4  1  0  0  0  0
 14  4  1  0  0  0  0
 16  5  1  0  0  0  0
 19  8  1  0  0  0  0
M  END
