title
 OpenBabel02282110003D

 15 15  0  0  1  0  0  0  0  0999 V2000
   -0.1902   -2.8406    0.4762 C   0  0  0  0  0  0  0  0  0  0  0  0
   -0.1985   -1.6448    0.5820 C   0  0  0  0  0  0  0  0  0  0  0  0
   -0.2459   -0.1817    0.7013 C   0  0  0  0  0  0  0  0  0  0  0  0
    1.1051    0.3848    0.7760 C   0  0  0  0  0  0  0  0  0  0  0  0
    2.2074    0.8610    0.8155 C   0  0  0  0  0  0  0  0  0  0  0  0
   -1.0813    0.4292   -0.4413 C   0  0  1  0  0  0  0  0  0  0  0  0
   -0.9284    1.8499   -0.8271 C   0  0  0  0  0  0  0  0  0  0  0  0
   -0.4832    0.7693   -1.7300 N   0  0  0  0  0  0  0  0  0  0  0  0
   -0.1746   -3.8983    0.3824 H   0  0  0  0  0  0  0  0  0  0  0  0
   -0.7677    0.0613    1.6395 H   0  0  0  0  0  0  0  0  0  0  0  0
    3.1867    1.2695    0.8691 H   0  0  0  0  0  0  0  0  0  0  0  0
   -2.0597   -0.0390   -0.5156 H   0  0  0  0  0  0  0  0  0  0  0  0
   -1.7919    2.4118   -1.1709 H   0  0  0  0  0  0  0  0  0  0  0  0
   -0.1703    2.4340   -0.3136 H   0  0  0  0  0  0  0  0  0  0  0  0
    0.5300    0.6813   -1.6680 H   0  0  0  0  0  0  0  0  0  0  0  0
  1  2  3  0  0  0  0
  2  3  1  0  0  0  0
  3  4  1  0  0  0  0
  3 10  1  0  0  0  0
  4  5  3  0  0  0  0
  5 11  1  0  0  0  0
  6 12  1  6  0  0  0
  6  3  1  0  0  0  0
  7  6  1  0  0  0  0
  7 14  1  0  0  0  0
  8 15  1  0  0  0  0
  8  7  1  0  0  0  0
  8  6  1  0  0  0  0
  9  1  1  0  0  0  0
 13  7  1  0  0  0  0
M  END
