title
 OpenBabel02282110003D

 16 16  0  0  0  0  0  0  0  0999 V2000
   -0.1783   -2.7360    0.5787 C   0  0  0  0  0  0  0  0  0  0  0  0
   -0.0288   -1.5457    0.5253 C   0  0  0  0  0  0  0  0  0  0  0  0
    0.1291   -0.0880    0.4407 C   0  0  0  0  0  0  0  0  0  0  0  0
    1.5468    0.2956    0.4316 C   0  0  0  0  0  0  0  0  0  0  0  0
    2.7004    0.6279    0.4081 C   0  0  0  0  0  0  0  0  0  0  0  0
   -0.6096    0.4823   -0.7745 C   0  0  0  0  0  0  0  0  0  0  0  0
   -2.0858    0.7551   -0.6858 C   0  0  0  0  0  0  0  0  0  0  0  0
   -1.1045    1.9020   -0.7441 C   0  0  0  0  0  0  0  0  0  0  0  0
   -0.3022   -3.7892    0.6322 H   0  0  0  0  0  0  0  0  0  0  0  0
   -0.3317    0.3519    1.3382 H   0  0  0  0  0  0  0  0  0  0  0  0
    3.7227    0.9149    0.3935 H   0  0  0  0  0  0  0  0  0  0  0  0
   -0.2297    0.1091   -1.7196 H   0  0  0  0  0  0  0  0  0  0  0  0
   -2.6972    0.5482   -1.5566 H   0  0  0  0  0  0  0  0  0  0  0  0
   -2.5821    0.5588    0.2591 H   0  0  0  0  0  0  0  0  0  0  0  0
   -0.9410    2.4770    0.1616 H   0  0  0  0  0  0  0  0  0  0  0  0
   -1.0395    2.4857   -1.6551 H   0  0  0  0  0  0  0  0  0  0  0  0
  1  9  1  0  0  0  0
  2  1  3  0  0  0  0
  3  2  1  0  0  0  0
  3 10  1  0  0  0  0
  4  3  1  0  0  0  0
  5  4  3  0  0  0  0
  6  8  1  0  0  0  0
  6  7  1  0  0  0  0
  6  3  1  0  0  0  0
  7 14  1  0  0  0  0
  8  7  1  0  0  0  0
  8 15  1  0  0  0  0
 11  5  1  0  0  0  0
 12  6  1  0  0  0  0
 13  7  1  0  0  0  0
 16  8  1  0  0  0  0
M  END
