15
title
C -0.19021517 -2.8405647 0.47617736
C -0.19847657 -1.6447631 0.58196676
C -0.24589595 -0.18174002 0.70133704
C 1.1050625 0.38475552 0.7759731
C 2.207411 0.86103284 0.8155249
C -1.0812911 0.42915764 -0.44125393
C -0.9284401 1.8498651 -0.82705146
N -0.48317632 0.76931417 -1.7299635
H -0.17458051 -3.898338 0.3823603
H -0.7676965 0.061300904 1.6394565
H 3.1866772 1.2695068 0.8691004
H -2.0596566 -0.038990945 -0.51564914
H -1.7918689 2.4117901 -1.1708812
H -0.17027822 2.4339602 -0.31360427
H 0.53002584 0.6812693 -1.667959
