title
 OpenBabel02282110003D

 13 13  0  0  0  0  0  0  0  0999 V2000
   -0.2697   -2.6637    0.5207 N   0  0  0  0  0  0  0  0  0  0  0  0
   -0.0891   -1.5259    0.4570 C   0  0  0  0  0  0  0  0  0  0  0  0
    0.0939   -0.0633    0.4029 C   0  0  0  0  0  0  0  0  0  0  0  0
    1.5274    0.2818    0.3641 C   0  0  0  0  0  0  0  0  0  0  0  0
    2.6394    0.5889    0.3541 N   0  0  0  0  0  0  0  0  0  0  0  0
   -0.5807    0.4794   -0.7756 N   0  0  0  0  0  0  0  0  0  0  0  0
   -2.0073    0.7662   -0.5982 C   0  0  0  0  0  0  0  0  0  0  0  0
   -1.0162    1.8740   -0.6555 C   0  0  0  0  0  0  0  0  0  0  0  0
   -0.3079    0.3445    1.3500 H   0  0  0  0  0  0  0  0  0  0  0  0
   -2.6279    0.5307   -1.4559 H   0  0  0  0  0  0  0  0  0  0  0  0
   -2.4580    0.5448    0.3670 H   0  0  0  0  0  0  0  0  0  0  0  0
   -0.7975    2.4008    0.2711 H   0  0  0  0  0  0  0  0  0  0  0  0
   -0.8962    2.4665   -1.5559 H   0  0  0  0  0  0  0  0  0  0  0  0
  2  1  3  0  0  0  0
  3  2  1  0  0  0  0
  3  9  1  0  0  0  0
  4  3  1  0  0  0  0
  5  4  3  0  0  0  0
  6  8  1  0  0  0  0
  6  7  1  0  0  0  0
  6  3  1  0  0  0  0
  7 11  1  0  0  0  0
  8  7  1  0  0  0  0
  8 12  1  0  0  0  0
 10  7  1  0  0  0  0
 13  8  1  0  0  0  0
M  END
