title
 OpenBabel02282110003D

 13 13  0  0  1  0  0  0  0  0999 V2000
   -0.1309   -2.8287    0.4380 C   0  0  0  0  0  0  0  0  0  0  0  0
   -0.1632   -1.6370    0.5709 C   0  0  0  0  0  0  0  0  0  0  0  0
   -0.2469   -0.1828    0.7213 C   0  0  1  0  0  0  0  0  0  0  0  0
    1.0907    0.4268    0.7911 C   0  0  0  0  0  0  0  0  0  0  0  0
    2.1264    0.9311    0.8672 N   0  0  0  0  0  0  0  0  0  0  0  0
   -1.1034    0.4397   -0.3933 C   0  0  1  0  0  0  0  0  0  0  0  0
   -0.8768    1.7909   -0.9145 C   0  0  0  0  0  0  0  0  0  0  0  0
   -0.4907    0.6223   -1.6521 O   0  0  0  0  0  0  0  0  0  0  0  0
   -0.0892   -3.8837    0.3193 H   0  0  0  0  0  0  0  0  0  0  0  0
   -0.7502    0.0428    1.6735 H   0  0  0  0  0  0  0  0  0  0  0  0
   -2.1074    0.0161   -0.4204 H   0  0  0  0  0  0  0  0  0  0  0  0
   -1.7160    2.3471   -1.3276 H   0  0  0  0  0  0  0  0  0  0  0  0
   -0.0512    2.3868   -0.5325 H   0  0  0  0  0  0  0  0  0  0  0  0
  1  2  3  0  0  0  0
  2  3  1  0  0  0  0
  3  4  1  0  0  0  0
  3 10  1  1  0  0  0
  4  5  3  0  0  0  0
  6 11  1  6  0  0  0
  6  3  1  0  0  0  0
  7 13  1  0  0  0  0
  7  6  1  0  0  0  0
  8  7  1  0  0  0  0
  8  6  1  0  0  0  0
  9  1  1  0  0  0  0
 12  7  1  0  0  0  0
M  END
