13
title
C -0.13087417 -2.8286831 0.43795735
C -0.16318801 -1.6369966 0.5709193
C -0.2469351 -0.18281081 0.7213304
C 1.0907406 0.42675743 0.7911493
N 2.1263824 0.93113196 0.86723584
C -1.1034325 0.4397348 -0.39334258
C -0.8767671 1.7909433 -0.9145497
O -0.49073985 0.6222795 -1.6521271
H -0.08919817 -3.8836691 0.31934345
H -0.7501676 0.042766903 1.6735144
H -2.107433 0.016120408 -0.42042992
H -1.7159814 2.347108 -1.3275502
H -0.051186636 2.3867521 -0.53248394
