title
 OpenBabel02282110003D

 14 14  0  0  1  0  0  0  0  0999 V2000
   -0.1639   -2.8482    0.4599 C   0  0  0  0  0  0  0  0  0  0  0  0
   -0.1930   -1.6540    0.5722 C   0  0  0  0  0  0  0  0  0  0  0  0
   -0.2681   -0.1958    0.6980 C   0  0  1  0  0  0  0  0  0  0  0  0
    1.0809    0.3889    0.7768 C   0  0  0  0  0  0  0  0  0  0  0  0
    2.1295    0.8722    0.8120 N   0  0  0  0  0  0  0  0  0  0  0  0
   -1.0885    0.4298   -0.4457 C   0  0  1  0  0  0  0  0  0  0  0  0
   -0.9095    1.8472   -0.8372 C   0  0  0  0  0  0  0  0  0  0  0  0
   -0.4929    0.7542   -1.7375 N   0  0  0  0  0  0  0  0  0  0  0  0
   -0.1299   -3.9054    0.3607 H   0  0  0  0  0  0  0  0  0  0  0  0
   -0.7786    0.0476    1.6411 H   0  0  0  0  0  0  0  0  0  0  0  0
   -2.0748   -0.0227   -0.5099 H   0  0  0  0  0  0  0  0  0  0  0  0
   -1.7655    2.4228   -1.1760 H   0  0  0  0  0  0  0  0  0  0  0  0
   -0.1376    2.4229   -0.3344 H   0  0  0  0  0  0  0  0  0  0  0  0
    0.5194    0.6481   -1.7053 H   0  0  0  0  0  0  0  0  0  0  0  0
  1  2  3  0  0  0  0
  2  3  1  0  0  0  0
  3  4  1  0  0  0  0
  3 10  1  1  0  0  0
  4  5  3  0  0  0  0
  6 11  1  6  0  0  0
  6  3  1  0  0  0  0
  7  6  1  0  0  0  0
  7 13  1  0  0  0  0
  8 14  1  0  0  0  0
  8  7  1  0  0  0  0
  8  6  1  0  0  0  0
  9  1  1  0  0  0  0
 12  7  1  0  0  0  0
M  END
