15
title
C 1.3039235 2.173103 0.35278764
N 1.2249273 0.7557244 0.07020799
C 0.11086267 0.19174287 -0.15763015
C -1.1816893 0.8642036 -0.1068263
N -2.1949944 1.4169321 -0.035380926
N 0.0066276193 -1.1417087 -0.5576204
C 0.9461156 -2.1226587 -0.04995295
C -0.49020857 -2.1661942 0.36310014
H 1.926133 2.6508594 -0.41256118
H 0.33597797 2.689365 0.39313224
H 1.8200623 2.3119256 1.3090676
H 1.3177636 -2.8293202 -0.7852089
H 1.6763362 -1.7709776 0.672355
H -0.7292114 -1.8581682 1.37772
H -1.1692126 -2.891291 -0.07374138
