title
 OpenBabel02282110003D

 15 15  0  0  0  0  0  0  0  0999 V2000
   -1.5107   -1.6586   -0.2386 O   0  0  0  0  0  0  0  0  0  0  0  0
   -1.4627   -0.4696   -0.0916 C   0  0  0  0  0  0  0  0  0  0  0  0
   -0.1609    0.3453   -0.0728 C   0  0  0  0  0  0  0  0  0  0  0  0
   -0.2152    1.3050    1.1158 C   0  0  0  0  0  0  0  0  0  0  0  0
   -1.0503    2.1629    1.2302 O   0  0  0  0  0  0  0  0  0  0  0  0
    1.0117   -0.4895    0.0001 N   0  0  0  0  0  0  0  0  0  0  0  0
    1.3917   -1.2065   -1.2114 C   0  0  0  0  0  0  0  0  0  0  0  0
    2.1947   -0.0456   -0.7431 C   0  0  0  0  0  0  0  0  0  0  0  0
   -2.3675    0.1616    0.0290 H   0  0  0  0  0  0  0  0  0  0  0  0
   -0.2223    0.9783   -0.9825 H   0  0  0  0  0  0  0  0  0  0  0  0
    0.5689    1.1174    1.8789 H   0  0  0  0  0  0  0  0  0  0  0  0
    1.7422   -2.2220   -1.0592 H   0  0  0  0  0  0  0  0  0  0  0  0
    0.7801   -1.0668   -2.0999 H   0  0  0  0  0  0  0  0  0  0  0  0
    2.1221    0.8789   -1.3138 H   0  0  0  0  0  0  0  0  0  0  0  0
    3.1441   -0.1967   -0.2392 H   0  0  0  0  0  0  0  0  0  0  0  0
  1  2  2  0  0  0  0
  2  3  1  0  0  0  0
  2  9  1  0  0  0  0
  3  6  1  0  0  0  0
  3  4  1  0  0  0  0
  4  5  2  0  0  0  0
  4 11  1  0  0  0  0
  7 12  1  0  0  0  0
  7  8  1  0  0  0  0
  7  6  1  0  0  0  0
  8 15  1  0  0  0  0
  8  6  1  0  0  0  0
 10  3  1  0  0  0  0
 13  7  1  0  0  0  0
 14  8  1  0  0  0  0
M  END
