15
title
O -1.5423336 -2.3729348 0.14613593
C -1.3510537 -1.2045057 -0.057874132
C 0.027426314 -0.56203663 -0.11877238
C 0.19343336 0.24917199 -1.3972441
O 1.2614088 0.5100689 -1.887867
C 0.20737608 0.32348445 1.1259925
C 1.3073072 1.3124099 1.2157673
N -0.09367244 1.7654574 1.1431834
H -2.198739 -0.4933612 -0.1924061
H 0.7838704 -1.3531497 -0.10066582
H -0.7498618 0.6150851 -1.862188
H -0.097080395 -0.1829543 2.0397444
H 1.793575 1.48118 2.1718922
H 1.9417052 1.4393134 0.34350607
H -0.29441524 2.116544 0.20975131
