title
 OpenBabel02282110003D

 14 14  0  0  1  0  0  0  0  0999 V2000
   -2.1866   -0.8604   -0.9634 O   0  0  0  0  0  0  0  0  0  0  0  0
   -1.5076   -0.9116    0.0209 C   0  0  0  0  0  0  0  0  0  0  0  0
    0.0178   -0.6885    0.0502 C   0  0  1  0  0  0  0  0  0  0  0  0
    0.5022   -0.0486   -1.1841 C   0  0  0  0  0  0  0  0  0  0  0  0
    0.9339    0.5008   -2.1043 N   0  0  0  0  0  0  0  0  0  0  0  0
    0.3533   -0.0139    1.2990 N   0  0  0  0  0  0  0  0  0  0  0  0
    1.6684    0.6029    1.4508 C   0  0  0  0  0  0  0  0  0  0  0  0
    0.4482    1.4472    1.3203 C   0  0  0  0  0  0  0  0  0  0  0  0
   -1.9068   -1.1406    1.0301 H   0  0  0  0  0  0  0  0  0  0  0  0
    0.4603   -1.6956    0.0996 H   0  0  0  0  0  0  0  0  0  0  0  0
    2.1360    0.4501    2.4186 H   0  0  0  0  0  0  0  0  0  0  0  0
    2.3451    0.5879    0.5998 H   0  0  0  0  0  0  0  0  0  0  0  0
    0.3233    1.9857    0.3841 H   0  0  0  0  0  0  0  0  0  0  0  0
    0.0069    1.9206    2.1915 H   0  0  0  0  0  0  0  0  0  0  0  0
  1  2  2  0  0  0  0
  2  3  1  0  0  0  0
  2  9  1  0  0  0  0
  3 10  1  1  0  0  0
  3  6  1  0  0  0  0
  4  3  1  0  0  0  0
  5  4  3  0  0  0  0
  6  8  1  0  0  0  0
  6  7  1  0  0  0  0
  7 11  1  0  0  0  0
  8  7  1  0  0  0  0
  8 14  1  0  0  0  0
 12  7  1  0  0  0  0
 13  8  1  0  0  0  0
M  END
