14
title
O -1.3635532 -2.3585916 0.18403827
C -1.18539 -1.227646 -0.16860263
C 0.2174041 -0.5851109 -0.19729303
C 0.35917863 0.2681972 -1.3735375
N 0.43012533 0.96504104 -2.2932067
C 0.41689393 0.19486633 1.1120497
C 1.3759539 1.3202428 1.212099
N -0.07603327 1.5638837 1.2842233
H -2.0162463 -0.5506623 -0.45465297
H 0.9426624 -1.4050475 -0.24089417
H 0.26270303 -0.44376835 1.9785489
H 1.9167783 1.4781493 2.140177
H 1.9056714 1.62054 0.31247622
H -0.39826736 1.9458159 0.39667016
