title
 OpenBabel02282110003D

 15 15  0  0  1  0  0  0  0  0999 V2000
   -1.5423   -2.3729    0.1461 O   0  0  0  0  0  0  0  0  0  0  0  0
   -1.3511   -1.2045   -0.0579 C   0  0  0  0  0  0  0  0  0  0  0  0
    0.0274   -0.5620   -0.1188 C   0  0  0  0  0  0  0  0  0  0  0  0
    0.1934    0.2492   -1.3972 C   0  0  0  0  0  0  0  0  0  0  0  0
    1.2614    0.5101   -1.8879 O   0  0  0  0  0  0  0  0  0  0  0  0
    0.2074    0.3235    1.1260 C   0  0  1  0  0  0  0  0  0  0  0  0
    1.3073    1.3124    1.2158 C   0  0  0  0  0  0  0  0  0  0  0  0
   -0.0937    1.7655    1.1432 N   0  0  0  0  0  0  0  0  0  0  0  0
   -2.1987   -0.4934   -0.1924 H   0  0  0  0  0  0  0  0  0  0  0  0
    0.7839   -1.3531   -0.1007 H   0  0  0  0  0  0  0  0  0  0  0  0
   -0.7499    0.6151   -1.8622 H   0  0  0  0  0  0  0  0  0  0  0  0
   -0.0971   -0.1830    2.0397 H   0  0  0  0  0  0  0  0  0  0  0  0
    1.7936    1.4812    2.1719 H   0  0  0  0  0  0  0  0  0  0  0  0
    1.9417    1.4393    0.3435 H   0  0  0  0  0  0  0  0  0  0  0  0
   -0.2944    2.1165    0.2098 H   0  0  0  0  0  0  0  0  0  0  0  0
  2  1  2  0  0  0  0
  3 10  1  0  0  0  0
  3  2  1  0  0  0  0
  3  6  1  0  0  0  0
  4  3  1  0  0  0  0
  5  4  2  0  0  0  0
  6  8  1  0  0  0  0
  6  7  1  0  0  0  0
  6 12  1  1  0  0  0
  7 13  1  0  0  0  0
  8  7  1  0  0  0  0
  9  2  1  0  0  0  0
 11  4  1  0  0  0  0
 14  7  1  0  0  0  0
 15  8  1  0  0  0  0
M  END
