title
 OpenBabel02282110003D

 14 14  0  0  1  0  0  0  0  0999 V2000
   -1.3636   -2.3586    0.1840 O   0  0  0  0  0  0  0  0  0  0  0  0
   -1.1854   -1.2276   -0.1686 C   0  0  0  0  0  0  0  0  0  0  0  0
    0.2174   -0.5851   -0.1973 C   0  0  1  0  0  0  0  0  0  0  0  0
    0.3592    0.2682   -1.3735 C   0  0  0  0  0  0  0  0  0  0  0  0
    0.4301    0.9650   -2.2932 N   0  0  0  0  0  0  0  0  0  0  0  0
    0.4169    0.1949    1.1120 C   0  0  1  0  0  0  0  0  0  0  0  0
    1.3760    1.3202    1.2121 C   0  0  0  0  0  0  0  0  0  0  0  0
   -0.0760    1.5639    1.2842 N   0  0  0  0  0  0  0  0  0  0  0  0
   -2.0162   -0.5507   -0.4547 H   0  0  0  0  0  0  0  0  0  0  0  0
    0.9427   -1.4050   -0.2409 H   0  0  0  0  0  0  0  0  0  0  0  0
    0.2627   -0.4438    1.9785 H   0  0  0  0  0  0  0  0  0  0  0  0
    1.9168    1.4781    2.1402 H   0  0  0  0  0  0  0  0  0  0  0  0
    1.9057    1.6205    0.3125 H   0  0  0  0  0  0  0  0  0  0  0  0
   -0.3983    1.9458    0.3967 H   0  0  0  0  0  0  0  0  0  0  0  0
  2  1  2  0  0  0  0
  3 10  1  6  0  0  0
  3  2  1  0  0  0  0
  3  6  1  0  0  0  0
  4  3  1  0  0  0  0
  5  4  3  0  0  0  0
  6  7  1  0  0  0  0
  6  8  1  0  0  0  0
  6 11  1  1  0  0  0
  7  8  1  0  0  0  0
  7 12  1  0  0  0  0
  9  2  1  0  0  0  0
 13  7  1  0  0  0  0
 14  8  1  0  0  0  0
M  END
