14
title
O -1.1912831 -1.9101976 0.72873724
C -0.5779566 -1.5349855 -0.23475164
C 0.19462931 -0.21733002 -0.2785018
C -0.14128089 0.5194344 -1.5800761
O -0.06409764 -0.0007839649 -2.661784
C -0.024045233 0.6292245 0.9517295
C 0.9683057 0.71712035 2.0256574
O 0.8319875 1.7701061 1.0681689
H -0.53302646 -2.1151226 -1.177819
H 1.256975 -0.48788133 -0.3717891
H -0.47119635 1.5718825 -1.4546944
H -1.0665936 0.81893057 1.2048078
H 0.64577055 0.9588699 3.0362985
H 1.8877407 0.13730188 1.9564183
