title
 OpenBabel02282110003D

 15 15  0  0  0  0  0  0  0  0999 V2000
    1.3039    2.1731    0.3528 C   0  0  0  0  0  0  0  0  0  0  0  0
    1.2249    0.7557    0.0702 N   0  0  0  0  0  0  0  0  0  0  0  0
    0.1109    0.1917   -0.1576 C   0  0  0  0  0  0  0  0  0  0  0  0
   -1.1817    0.8642   -0.1068 C   0  0  0  0  0  0  0  0  0  0  0  0
   -2.1950    1.4169   -0.0354 N   0  0  0  0  0  0  0  0  0  0  0  0
    0.0066   -1.1417   -0.5576 N   0  0  0  0  0  0  0  0  0  0  0  0
    0.9461   -2.1227   -0.0500 C   0  0  0  0  0  0  0  0  0  0  0  0
   -0.4902   -2.1662    0.3631 C   0  0  0  0  0  0  0  0  0  0  0  0
    1.9261    2.6509   -0.4126 H   0  0  0  0  0  0  0  0  0  0  0  0
    0.3360    2.6894    0.3931 H   0  0  0  0  0  0  0  0  0  0  0  0
    1.8201    2.3119    1.3091 H   0  0  0  0  0  0  0  0  0  0  0  0
    1.3178   -2.8293   -0.7852 H   0  0  0  0  0  0  0  0  0  0  0  0
    1.6763   -1.7710    0.6724 H   0  0  0  0  0  0  0  0  0  0  0  0
   -0.7292   -1.8582    1.3777 H   0  0  0  0  0  0  0  0  0  0  0  0
   -1.1692   -2.8913   -0.0737 H   0  0  0  0  0  0  0  0  0  0  0  0
  1 10  1  0  0  0  0
  1 11  1  0  0  0  0
  2  1  1  0  0  0  0
  3  4  1  0  0  0  0
  3  2  2  0  0  0  0
  4  5  3  0  0  0  0
  6  3  1  0  0  0  0
  6  7  1  0  0  0  0
  6  8  1  0  0  0  0
  7  8  1  0  0  0  0
  7 13  1  0  0  0  0
  8 14  1  0  0  0  0
  9  1  1  0  0  0  0
 12  7  1  0  0  0  0
 15  8  1  0  0  0  0
M  END
