title
 OpenBabel02282110003D

 18 18  0  0  1  0  0  0  0  0999 V2000
   -0.4165    1.9822    1.6400 C   0  0  0  0  0  0  0  0  0  0  0  0
   -0.4427    0.4534    1.5934 C   0  0  0  0  0  0  0  0  0  0  0  0
    0.2607   -0.1384    0.3547 C   0  0  1  0  0  0  0  0  0  0  0  0
    0.2925   -1.6077    0.4534 C   0  0  0  0  0  0  0  0  0  0  0  0
    0.3316   -2.7586    0.5441 N   0  0  0  0  0  0  0  0  0  0  0  0
   -0.4314    0.2387   -0.8808 N   0  0  0  0  0  0  0  0  0  0  0  0
    0.1269    1.3748   -1.6166 C   0  0  0  0  0  0  0  0  0  0  0  0
    0.2931   -0.0103   -2.1272 C   0  0  0  0  0  0  0  0  0  0  0  0
    0.6093    2.3671    1.6187 H   0  0  0  0  0  0  0  0  0  0  0  0
   -0.9622    2.4186    0.7998 H   0  0  0  0  0  0  0  0  0  0  0  0
   -0.8836    2.3391    2.5624 H   0  0  0  0  0  0  0  0  0  0  0  0
    0.0451    0.0427    2.4841 H   0  0  0  0  0  0  0  0  0  0  0  0
   -1.4753    0.0908    1.5965 H   0  0  0  0  0  0  0  0  0  0  0  0
    1.3147    0.1987    0.3488 H   0  0  0  0  0  0  0  0  0  0  0  0
   -0.6026    2.0466   -2.0587 H   0  0  0  0  0  0  0  0  0  0  0  0
    1.0092    1.8647   -1.2087 H   0  0  0  0  0  0  0  0  0  0  0  0
    1.2856   -0.4517   -2.0614 H   0  0  0  0  0  0  0  0  0  0  0  0
   -0.3132   -0.3762   -2.9496 H   0  0  0  0  0  0  0  0  0  0  0  0
  1 11  1  0  0  0  0
  2 13  1  0  0  0  0
  2  1  1  0  0  0  0
  2 12  1  0  0  0  0
  3 14  1  6  0  0  0
  3  4  1  0  0  0  0
  3  2  1  0  0  0  0
  4  5  3  0  0  0  0
  6  3  1  0  0  0  0
  7 16  1  0  0  0  0
  7  6  1  0  0  0  0
  8 17  1  0  0  0  0
  8  7  1  0  0  0  0
  8  6  1  0  0  0  0
  9  1  1  0  0  0  0
 10  1  1  0  0  0  0
 15  7  1  0  0  0  0
 18  8  1  0  0  0  0
M  END
