title
 OpenBabel02282110003D

 18 18  0  0  1  0  0  0  0  0999 V2000
    1.6572    2.2922    0.3524 C   0  0  0  0  0  0  0  0  0  0  0  0
    1.4422    0.7820    0.4508 C   0  0  0  0  0  0  0  0  0  0  0  0
   -0.0486    0.3662    0.5420 C   0  0  1  0  0  0  0  0  0  0  0  0
   -0.8007    0.7902   -0.6367 C   0  0  0  0  0  0  0  0  0  0  0  0
   -1.4092    1.1531   -1.6081 C   0  0  0  0  0  0  0  0  0  0  0  0
   -0.1487   -1.1350    0.7990 C   0  0  1  0  0  0  0  0  0  0  0  0
   -1.1829   -2.0069    0.2344 C   0  0  0  0  0  0  0  0  0  0  0  0
    0.1515   -2.0054   -0.2868 O   0  0  0  0  0  0  0  0  0  0  0  0
    2.7236    2.5289    0.2903 H   0  0  0  0  0  0  0  0  0  0  0  0
    1.1662    2.7021   -0.5348 H   0  0  0  0  0  0  0  0  0  0  0  0
    1.2512    2.8098    1.2291 H   0  0  0  0  0  0  0  0  0  0  0  0
    1.8822    0.2750   -0.4142 H   0  0  0  0  0  0  0  0  0  0  0  0
    1.9518    0.3904    1.3398 H   0  0  0  0  0  0  0  0  0  0  0  0
   -0.4841    0.8635    1.4225 H   0  0  0  0  0  0  0  0  0  0  0  0
   -1.9476    1.4719   -2.4661 H   0  0  0  0  0  0  0  0  0  0  0  0
    0.3079   -1.4322    1.7458 H   0  0  0  0  0  0  0  0  0  0  0  0
   -1.4727   -2.9100    0.7698 H   0  0  0  0  0  0  0  0  0  0  0  0
   -1.9347   -1.5819   -0.4261 H   0  0  0  0  0  0  0  0  0  0  0  0
  1  2  1  0  0  0  0
  1 11  1  0  0  0  0
  2  3  1  0  0  0  0
  2 13  1  0  0  0  0
  3  6  1  0  0  0  0
  3 14  1  1  0  0  0
  4  3  1  0  0  0  0
  5  4  3  0  0  0  0
  6 16  1  1  0  0  0
  7 17  1  0  0  0  0
  7  6  1  0  0  0  0
  8  7  1  0  0  0  0
  8  6  1  0  0  0  0
  9  1  1  0  0  0  0
 10  1  1  0  0  0  0
 12  2  1  0  0  0  0
 15  5  1  0  0  0  0
 18  7  1  0  0  0  0
M  END
