19
title
C -0.44415438 1.9719 1.629039
C -0.43593854 0.4422689 1.5937946
C 0.27087882 -0.1569049 0.35952756
C 0.32496175 -1.6170691 0.46107742
C 0.37103096 -2.8137624 0.5598455
N -0.43421093 0.22686288 -0.87415284
C 0.10980364 1.3687285 -1.6092046
C 0.28348097 -0.01541737 -2.1219368
H 0.572654 2.3796182 1.5910721
H -1.0083085 2.3895988 0.79129213
H -0.9078365 2.3289707 2.5536335
H 0.06600239 0.05077928 2.4853308
H -1.4607478 0.057561483 1.6099037
H 1.3133019 0.21723041 0.34267983
H 0.4126785 -3.8715985 0.64259493
H -0.62470967 2.0374277 -2.0488276
H 0.9917058 1.8644942 -1.2069968
H 1.2795379 -0.44952825 -2.059965
H -0.32083282 -0.38309303 -2.9458048
