title
 OpenBabel02282110003D

 19 19  0  0  1  0  0  0  0  0999 V2000
   -1.0493    2.2874    1.1826 C   0  0  0  0  0  0  0  0  0  0  0  0
   -0.9836    0.7620    1.0920 C   0  0  0  0  0  0  0  0  0  0  0  0
   -0.0938    0.2404   -0.0608 C   0  0  1  0  0  0  0  0  0  0  0  0
    1.2936    0.6984    0.1025 C   0  0  0  0  0  0  0  0  0  0  0  0
    2.3842    1.0533    0.2478 N   0  0  0  0  0  0  0  0  0  0  0  0
   -0.1374   -1.2777   -0.1825 C   0  0  0  0  0  0  0  0  0  0  0  0
   -1.2499   -1.9284   -0.9640 C   0  0  0  0  0  0  0  0  0  0  0  0
    0.1625   -1.9494   -1.4954 C   0  0  0  0  0  0  0  0  0  0  0  0
   -0.0580    2.7183    1.3525 H   0  0  0  0  0  0  0  0  0  0  0  0
   -1.4507    2.7230    0.2608 H   0  0  0  0  0  0  0  0  0  0  0  0
   -1.6972    2.5982    2.0071 H   0  0  0  0  0  0  0  0  0  0  0  0
   -0.6134    0.3443    2.0354 H   0  0  0  0  0  0  0  0  0  0  0  0
   -1.9850    0.3463    0.9357 H   0  0  0  0  0  0  0  0  0  0  0  0
   -0.4606    0.6728   -1.0022 H   0  0  0  0  0  0  0  0  0  0  0  0
    0.1961   -1.7945    0.7129 H   0  0  0  0  0  0  0  0  0  0  0  0
   -1.6749   -2.8493   -0.5812 H   0  0  0  0  0  0  0  0  0  0  0  0
   -1.9678   -1.2831   -1.4604 H   0  0  0  0  0  0  0  0  0  0  0  0
    0.3932   -1.3175   -2.3466 H   0  0  0  0  0  0  0  0  0  0  0  0
    0.7097   -2.8848   -1.4777 H   0  0  0  0  0  0  0  0  0  0  0  0
  1  9  1  0  0  0  0
  1 11  1  0  0  0  0
  2  1  1  0  0  0  0
  2 12  1  0  0  0  0
  3 14  1  6  0  0  0
  3  4  1  0  0  0  0
  3  2  1  0  0  0  0
  4  5  3  0  0  0  0
  6  3  1  0  0  0  0
  6 15  1  0  0  0  0
  7 16  1  0  0  0  0
  7  6  1  0  0  0  0
  8 19  1  0  0  0  0
  8  7  1  0  0  0  0
  8  6  1  0  0  0  0
 10  1  1  0  0  0  0
 13  2  1  0  0  0  0
 17  7  1  0  0  0  0
 18  8  1  0  0  0  0
M  END
