16
title
C -0.46412548 2.011432 -1.3225284
N -0.58439595 0.59287095 -1.0307406
C -0.18228 0.08907388 0.06413214
C 0.50267464 0.7906192 1.2120734
O 0.88332015 1.9342508 1.1874219
N -0.42008424 -1.2633388 0.3741192
C -0.52062696 -2.2339458 -0.69388336
C 0.6578893 -2.2493315 0.22428064
H 0.5762828 2.281209 -1.5406113
H -1.0667837 2.231906 -2.207687
H -0.7873492 2.6526504 -0.49613157
H 0.63594955 0.14780901 2.1085434
H -1.302126 -2.9780922 -0.57405365
H -0.37951928 -1.8583481 -1.7028835
H 1.606196 -1.90166 -0.17888577
H 0.73243564 -2.9876707 1.0168241
