title
 OpenBabel02282110003D

 17 17  0  0  1  0  0  0  0  0999 V2000
   -1.1383    2.2420    1.3266 C   0  0  0  0  0  0  0  0  0  0  0  0
   -1.1151    0.7363    1.0624 C   0  0  0  0  0  0  0  0  0  0  0  0
   -0.4850    0.3497   -0.2988 C   0  0  1  0  0  0  0  0  0  0  0  0
    0.9058    0.8054   -0.3857 C   0  0  0  0  0  0  0  0  0  0  0  0
    1.9984    1.1753   -0.4569 N   0  0  0  0  0  0  0  0  0  0  0  0
   -0.6052   -1.1519   -0.5391 C   0  0  1  0  0  0  0  0  0  0  0  0
    0.4343   -1.9788   -1.1607 C   0  0  0  0  0  0  0  0  0  0  0  0
    0.2149   -1.9964    0.2560 O   0  0  0  0  0  0  0  0  0  0  0  0
   -0.1268    2.6589    1.3389 H   0  0  0  0  0  0  0  0  0  0  0  0
   -1.7113    2.7729    0.5583 H   0  0  0  0  0  0  0  0  0  0  0  0
   -1.6013    2.4545    2.2943 H   0  0  0  0  0  0  0  0  0  0  0  0
   -0.5642    0.2141    1.8511 H   0  0  0  0  0  0  0  0  0  0  0  0
   -2.1360    0.3368    1.0714 H   0  0  0  0  0  0  0  0  0  0  0  0
   -1.0406    0.8582   -1.0994 H   0  0  0  0  0  0  0  0  0  0  0  0
   -1.6435   -1.4788   -0.6222 H   0  0  0  0  0  0  0  0  0  0  0  0
    0.1470   -2.8875   -1.6867 H   0  0  0  0  0  0  0  0  0  0  0  0
    1.3693   -1.5221   -1.4764 H   0  0  0  0  0  0  0  0  0  0  0  0
  1  9  1  0  0  0  0
  1 11  1  0  0  0  0
  2 13  1  0  0  0  0
  2  1  1  0  0  0  0
  2 12  1  0  0  0  0
  3 14  1  6  0  0  0
  3  2  1  0  0  0  0
  4  3  1  0  0  0  0
  5  4  3  0  0  0  0
  6 15  1  6  0  0  0
  6  3  1  0  0  0  0
  6  8  1  0  0  0  0
  7  6  1  0  0  0  0
  7  8  1  0  0  0  0
 10  1  1  0  0  0  0
 16  7  1  0  0  0  0
 17  7  1  0  0  0  0
M  END
