18
title
C 1.6460832 2.3228583 0.37602165
C 1.4957765 0.80244833 0.43967384
C 0.027288087 0.3222939 0.5572736
C -0.7552037 0.75813746 -0.6038215
N -1.3575108 1.0772407 -1.5379219
C -0.0539689 -1.194082 0.74016833
C -1.2486382 -1.9846745 0.36332816
N 0.0103352135 -2.1186678 -0.39616406
H 2.7013643 2.602704 0.3131687
H 1.1359938 2.7377787 -0.49861318
H 1.2263983 2.801535 1.2676862
H 1.9466271 0.33646756 -0.44324356
H 2.031965 0.4072761 1.3098059
H -0.41845584 0.7959671 1.4434805
H 0.53038895 -1.5235202 1.5975053
H -1.5260713 -2.8550556 0.95050925
H -2.078322 -1.4638622 -0.10623305
H -0.07209479 -1.6049688 -1.2721492
