17
title
N -1.354974 1.8398824 -0.9093897
C -1.1933441 0.40404302 -1.1273669
C -0.41080454 -0.2191353 0.04522002
C -0.33520046 -1.6786541 -0.12334918
N -0.29822084 -2.8258908 -0.25301683
N 0.9456807 0.33188134 0.10354067
C 1.1331398 1.4605343 1.022128
C 1.667759 0.11683671 1.3586272
H -0.490164 2.319372 -1.1381576
H -2.0600767 2.2042537 -1.5411642
H -2.1846101 -0.058972254 -1.1563252
H -0.6748066 0.13690613 -2.0600343
H -0.97471464 -0.021130636 0.97373474
H 1.7968428 2.241806 0.66346097
H 0.2642881 1.8149947 1.5703317
H 1.1637952 -0.44026288 2.1458714
H 2.724999 -0.10377355 1.2521006
