title
 OpenBabel02282110003D

 16 16  0  0  1  0  0  0  0  0999 V2000
    0.7577    2.3083   -0.1820 C   0  0  0  0  0  0  0  0  0  0  0  0
    0.5805    1.0111    0.3661 O   0  0  0  0  0  0  0  0  0  0  0  0
   -0.4920    0.2864   -0.1840 C   0  0  1  0  0  0  0  0  0  0  0  0
   -0.2405   -0.0666   -1.6015 C   0  0  0  0  0  0  0  0  0  0  0  0
   -0.0426   -0.3323   -2.7085 N   0  0  0  0  0  0  0  0  0  0  0  0
   -0.7124   -0.9774    0.6414 C   0  0  1  0  0  0  0  0  0  0  0  0
    0.4406   -1.6925    1.2319 C   0  0  0  0  0  0  0  0  0  0  0  0
   -0.4962   -0.9327    2.0864 N   0  0  0  0  0  0  0  0  0  0  0  0
    1.5885    2.7641    0.3589 H   0  0  0  0  0  0  0  0  0  0  0  0
    1.0023    2.2623   -1.2506 H   0  0  0  0  0  0  0  0  0  0  0  0
   -0.1438    2.9226   -0.0471 H   0  0  0  0  0  0  0  0  0  0  0  0
   -1.4120    0.8953   -0.1603 H   0  0  0  0  0  0  0  0  0  0  0  0
   -1.5882   -1.5373    0.3235 H   0  0  0  0  0  0  0  0  0  0  0  0
    0.4002   -2.7709    1.3493 H   0  0  0  0  0  0  0  0  0  0  0  0
    1.4283   -1.2766    1.0626 H   0  0  0  0  0  0  0  0  0  0  0  0
   -0.0628   -0.0413    2.3197 H   0  0  0  0  0  0  0  0  0  0  0  0
  1 11  1  0  0  0  0
  1  9  1  0  0  0  0
  1  2  1  0  0  0  0
  3 12  1  1  0  0  0
  3  2  1  0  0  0  0
  3  6  1  0  0  0  0
  4  3  1  0  0  0  0
  5  4  3  0  0  0  0
  6 13  1  6  0  0  0
  6  7  1  0  0  0  0
  6  8  1  0  0  0  0
  7 14  1  0  0  0  0
  7  8  1  0  0  0  0
  8 16  1  0  0  0  0
 10  1  1  0  0  0  0
 15  7  1  0  0  0  0
M  END
