title
 OpenBabel02282110003D

 17 17  0  0  1  0  0  0  0  0999 V2000
   -2.3657    0.0382   -1.0847 C   0  0  0  0  0  0  0  0  0  0  0  0
   -0.9675   -0.1512   -1.1726 O   0  0  0  0  0  0  0  0  0  0  0  0
   -0.2670    0.1326    0.0253 C   0  0  1  0  0  0  0  0  0  0  0  0
   -0.6360   -0.7790    1.1204 C   0  0  0  0  0  0  0  0  0  0  0  0
   -0.9329   -1.5292    2.0114 C   0  0  0  0  0  0  0  0  0  0  0  0
    1.2141    0.0413   -0.2941 C   0  0  1  0  0  0  0  0  0  0  0  0
    1.9320    1.2519   -0.7527 C   0  0  0  0  0  0  0  0  0  0  0  0
    2.1929    0.6893    0.5850 N   0  0  0  0  0  0  0  0  0  0  0  0
   -2.6153    1.0784   -0.8232 H   0  0  0  0  0  0  0  0  0  0  0  0
   -2.7762   -0.1874   -2.0712 H   0  0  0  0  0  0  0  0  0  0  0  0
   -2.8226   -0.6285   -0.3417 H   0  0  0  0  0  0  0  0  0  0  0  0
   -0.4894    1.1666    0.3498 H   0  0  0  0  0  0  0  0  0  0  0  0
   -1.1886   -2.1913    2.8018 H   0  0  0  0  0  0  0  0  0  0  0  0
    1.5175   -0.9350   -0.6622 H   0  0  0  0  0  0  0  0  0  0  0  0
    2.7547    1.1617   -1.4557 H   0  0  0  0  0  0  0  0  0  0  0  0
    1.3656    2.1764   -0.8339 H   0  0  0  0  0  0  0  0  0  0  0  0
    1.7155    1.2378    1.2974 H   0  0  0  0  0  0  0  0  0  0  0  0
  1  9  1  0  0  0  0
  1 11  1  0  0  0  0
  2  1  1  0  0  0  0
  2  3  1  0  0  0  0
  3 12  1  1  0  0  0
  3  4  1  0  0  0  0
  4  5  3  0  0  0  0
  5 13  1  0  0  0  0
  6 14  1  6  0  0  0
  6  3  1  0  0  0  0
  6  8  1  0  0  0  0
  7  6  1  0  0  0  0
  7  8  1  0  0  0  0
  8 17  1  0  0  0  0
 10  1  1  0  0  0  0
 15  7  1  0  0  0  0
 16  7  1  0  0  0  0
M  END
