title
 OpenBabel02282110003D

 17 17  0  0  1  0  0  0  0  0999 V2000
   -1.3550    1.8399   -0.9094 N   0  0  0  0  0  0  0  0  0  0  0  0
   -1.1933    0.4040   -1.1274 C   0  0  0  0  0  0  0  0  0  0  0  0
   -0.4108   -0.2191    0.0452 C   0  0  1  0  0  0  0  0  0  0  0  0
   -0.3352   -1.6787   -0.1233 C   0  0  0  0  0  0  0  0  0  0  0  0
   -0.2982   -2.8259   -0.2530 N   0  0  0  0  0  0  0  0  0  0  0  0
    0.9457    0.3319    0.1035 N   0  0  0  0  0  0  0  0  0  0  0  0
    1.1331    1.4605    1.0221 C   0  0  0  0  0  0  0  0  0  0  0  0
    1.6678    0.1168    1.3586 C   0  0  0  0  0  0  0  0  0  0  0  0
   -0.4902    2.3194   -1.1382 H   0  0  0  0  0  0  0  0  0  0  0  0
   -2.0601    2.2043   -1.5412 H   0  0  0  0  0  0  0  0  0  0  0  0
   -2.1846   -0.0590   -1.1563 H   0  0  0  0  0  0  0  0  0  0  0  0
   -0.6748    0.1369   -2.0600 H   0  0  0  0  0  0  0  0  0  0  0  0
   -0.9747   -0.0211    0.9737 H   0  0  0  0  0  0  0  0  0  0  0  0
    1.7968    2.2418    0.6635 H   0  0  0  0  0  0  0  0  0  0  0  0
    0.2643    1.8150    1.5703 H   0  0  0  0  0  0  0  0  0  0  0  0
    1.1638   -0.4403    2.1459 H   0  0  0  0  0  0  0  0  0  0  0  0
    2.7250   -0.1038    1.2521 H   0  0  0  0  0  0  0  0  0  0  0  0
  2  1  1  0  0  0  0
  2  3  1  0  0  0  0
  3  6  1  0  0  0  0
  3 13  1  1  0  0  0
  4  3  1  0  0  0  0
  5  4  3  0  0  0  0
  6  7  1  0  0  0  0
  6  8  1  0  0  0  0
  7  8  1  0  0  0  0
  7 15  1  0  0  0  0
  8 16  1  0  0  0  0
  9  1  1  0  0  0  0
 10  1  1  0  0  0  0
 11  2  1  0  0  0  0
 12  2  1  0  0  0  0
 14  7  1  0  0  0  0
 17  8  1  0  0  0  0
M  END
