17
title
O 1.6339741 2.129286 0.3631691
C 1.4784142 0.73144424 0.44984534
C -0.008026335 0.30006787 0.5550065
C -0.7367532 0.7829505 -0.61588204
C -1.279526 1.1907941 -1.6100506
C -0.117344595 -1.2121812 0.7447085
C -1.340359 -1.9683076 0.39146498
N -0.10400138 -2.136273 -0.3969892
H 1.1640698 2.421813 -0.42661104
H 1.9421827 0.20908765 -0.4004
H 1.9992357 0.41787532 1.3598099
H -0.4194133 0.79161197 1.4475666
H -1.7862751 1.553726 -2.4706101
H 0.47333494 -1.5644516 1.5887837
H -1.6309185 -2.832966 0.9809817
H -2.1631162 -1.4176129 -0.05558995
H -0.19420716 -1.6018585 -1.2599349
