title
 OpenBabel02282110003D

 17 17  0  0  1  0  0  0  0  0999 V2000
    1.4714    2.1406    0.3132 O   0  0  0  0  0  0  0  0  0  0  0  0
    1.3947    0.7350    0.3260 C   0  0  0  0  0  0  0  0  0  0  0  0
   -0.0495    0.2094    0.1247 C   0  0  1  0  0  0  0  0  0  0  0  0
   -0.5618    0.7131   -1.1561 C   0  0  0  0  0  0  0  0  0  0  0  0
   -0.9125    1.1334   -2.1747 N   0  0  0  0  0  0  0  0  0  0  0  0
   -0.1243   -1.3074    0.1985 C   0  0  0  0  0  0  0  0  0  0  0  0
   -0.2305   -1.9793    1.5450 C   0  0  0  0  0  0  0  0  0  0  0  0
   -1.4042   -1.9926    0.5985 C   0  0  0  0  0  0  0  0  0  0  0  0
    1.2463    2.4465   -0.5731 H   0  0  0  0  0  0  0  0  0  0  0  0
    2.0516    0.2763   -0.4283 H   0  0  0  0  0  0  0  0  0  0  0  0
    1.7386    0.4098    1.3117 H   0  0  0  0  0  0  0  0  0  0  0  0
   -0.6707    0.6451    0.9173 H   0  0  0  0  0  0  0  0  0  0  0  0
    0.4786   -1.8125   -0.5506 H   0  0  0  0  0  0  0  0  0  0  0  0
    0.3217   -2.8986    1.7022 H   0  0  0  0  0  0  0  0  0  0  0  0
   -0.2978   -1.3470    2.4245 H   0  0  0  0  0  0  0  0  0  0  0  0
   -2.2583   -1.3693    0.8410 H   0  0  0  0  0  0  0  0  0  0  0  0
   -1.6601   -2.9213    0.1020 H   0  0  0  0  0  0  0  0  0  0  0  0
  1  2  1  0  0  0  0
  2 11  1  0  0  0  0
  3  6  1  0  0  0  0
  3  2  1  0  0  0  0
  3 12  1  1  0  0  0
  4  3  1  0  0  0  0
  5  4  3  0  0  0  0
  6  8  1  0  0  0  0
  6  7  1  0  0  0  0
  7 14  1  0  0  0  0
  7 15  1  0  0  0  0
  8 16  1  0  0  0  0
  8  7  1  0  0  0  0
  9  1  1  0  0  0  0
 10  2  1  0  0  0  0
 13  6  1  0  0  0  0
 17  8  1  0  0  0  0
M  END
