title
 OpenBabel02282110003D

 17 17  0  0  1  0  0  0  0  0999 V2000
    1.3371    1.7577   -0.0517 O   0  0  0  0  0  0  0  0  0  0  0  0
    1.7430    0.4473    0.2777 C   0  0  0  0  0  0  0  0  0  0  0  0
    0.5751   -0.5621    0.2757 C   0  0  1  0  0  0  0  0  0  0  0  0
   -0.3755   -0.3071    1.3639 C   0  0  0  0  0  0  0  0  0  0  0  0
   -1.1684   -0.1092    2.2466 C   0  0  0  0  0  0  0  0  0  0  0  0
    0.0002   -0.5810   -1.0823 N   0  0  0  0  0  0  0  0  0  0  0  0
   -1.2764   -1.2573   -1.2905 C   0  0  0  0  0  0  0  0  0  0  0  0
   -1.1910    0.2252   -1.3639 C   0  0  0  0  0  0  0  0  0  0  0  0
    1.0494    1.7385   -0.9702 H   0  0  0  0  0  0  0  0  0  0  0  0
    2.5044    0.0717   -0.4207 H   0  0  0  0  0  0  0  0  0  0  0  0
    2.1818    0.4945    1.2785 H   0  0  0  0  0  0  0  0  0  0  0  0
    1.0149   -1.5566    0.4333 H   0  0  0  0  0  0  0  0  0  0  0  0
   -1.8552    0.0710    3.0366 H   0  0  0  0  0  0  0  0  0  0  0  0
   -1.3416   -1.8577   -2.1933 H   0  0  0  0  0  0  0  0  0  0  0  0
   -1.7791   -1.6705   -0.4191 H   0  0  0  0  0  0  0  0  0  0  0  0
   -1.6357    0.7844   -0.5457 H   0  0  0  0  0  0  0  0  0  0  0  0
   -1.1892    0.7283   -2.3271 H   0  0  0  0  0  0  0  0  0  0  0  0
  1  2  1  0  0  0  0
  2 11  1  0  0  0  0
  3  2  1  0  0  0  0
  3 12  1  1  0  0  0
  3  4  1  0  0  0  0
  4  5  3  0  0  0  0
  5 13  1  0  0  0  0
  6  3  1  0  0  0  0
  7  6  1  0  0  0  0
  7 15  1  0  0  0  0
  8  7  1  0  0  0  0
  8  6  1  0  0  0  0
  8 16  1  0  0  0  0
  9  1  1  0  0  0  0
 10  2  1  0  0  0  0
 14  7  1  0  0  0  0
 17  8  1  0  0  0  0
M  END
