title
 OpenBabel02282110003D

 19 19  0  0  1  0  0  0  0  0999 V2000
   -1.2874    2.2520    1.3913 C   0  0  0  0  0  0  0  0  0  0  0  0
   -1.1345    0.7330    1.2652 C   0  0  0  0  0  0  0  0  0  0  0  0
   -0.4850    0.2933   -0.0588 C   0  0  1  0  0  0  0  0  0  0  0  0
    0.9539    0.7837   -0.1408 C   0  0  0  0  0  0  0  0  0  0  0  0
    1.5453    1.0151   -1.1645 O   0  0  0  0  0  0  0  0  0  0  0  0
   -0.5422   -1.2266   -0.2361 C   0  0  1  0  0  0  0  0  0  0  0  0
    0.2624   -1.9379   -1.2558 C   0  0  0  0  0  0  0  0  0  0  0  0
    0.5485   -2.1299    0.1795 N   0  0  0  0  0  0  0  0  0  0  0  0
   -0.3200    2.7644    1.3431 H   0  0  0  0  0  0  0  0  0  0  0  0
   -1.9103    2.6528    0.5843 H   0  0  0  0  0  0  0  0  0  0  0  0
   -1.7554    2.5231    2.3420 H   0  0  0  0  0  0  0  0  0  0  0  0
   -0.5400    0.3430    2.1021 H   0  0  0  0  0  0  0  0  0  0  0  0
   -2.1177    0.2565    1.3474 H   0  0  0  0  0  0  0  0  0  0  0  0
   -1.0226    0.7447   -0.9031 H   0  0  0  0  0  0  0  0  0  0  0  0
    1.4632    0.8989    0.8459 H   0  0  0  0  0  0  0  0  0  0  0  0
   -1.5256   -1.6312   -0.0009 H   0  0  0  0  0  0  0  0  0  0  0  0
   -0.1513   -2.8077   -1.7579 H   0  0  0  0  0  0  0  0  0  0  0  0
    0.9558   -1.3496   -1.8499 H   0  0  0  0  0  0  0  0  0  0  0  0
    1.3809   -1.6039    0.4356 H   0  0  0  0  0  0  0  0  0  0  0  0
  1 11  1  0  0  0  0
  2 13  1  0  0  0  0
  2  1  1  0  0  0  0
  2 12  1  0  0  0  0
  3 14  1  6  0  0  0
  3  2  1  0  0  0  0
  4  3  1  0  0  0  0
  4 15  1  0  0  0  0
  5  4  2  0  0  0  0
  6  3  1  0  0  0  0
  6 16  1  1  0  0  0
  6  8  1  0  0  0  0
  7  6  1  0  0  0  0
  7  8  1  0  0  0  0
  8 19  1  0  0  0  0
  9  1  1  0  0  0  0
 10  1  1  0  0  0  0
 17  7  1  0  0  0  0
 18  7  1  0  0  0  0
M  END
