title
 OpenBabel02282110003D

 16 16  0  0  1  0  0  0  0  0999 V2000
    1.6421    2.1231    0.3818 O   0  0  0  0  0  0  0  0  0  0  0  0
    1.4921    0.7253    0.4364 C   0  0  0  0  0  0  0  0  0  0  0  0
    0.0080    0.2872    0.5711 C   0  0  1  0  0  0  0  0  0  0  0  0
   -0.7396    0.7818   -0.5871 C   0  0  0  0  0  0  0  0  0  0  0  0
   -1.2829    1.1719   -1.5308 N   0  0  0  0  0  0  0  0  0  0  0  0
   -0.1162   -1.2253    0.7337 C   0  0  1  0  0  0  0  0  0  0  0  0
   -1.3400   -1.9698    0.3549 C   0  0  0  0  0  0  0  0  0  0  0  0
   -0.0943   -2.1351   -0.4176 N   0  0  0  0  0  0  0  0  0  0  0  0
    1.2959    2.4342   -0.4622 H   0  0  0  0  0  0  0  0  0  0  0  0
    1.9401    0.2202   -0.4310 H   0  0  0  0  0  0  0  0  0  0  0  0
    2.0244    0.3886    1.3309 H   0  0  0  0  0  0  0  0  0  0  0  0
   -0.3966    0.7811    1.4638 H   0  0  0  0  0  0  0  0  0  0  0  0
    0.4630   -1.5880    1.5810 H   0  0  0  0  0  0  0  0  0  0  0  0
   -1.6413   -2.8382    0.9328 H   0  0  0  0  0  0  0  0  0  0  0  0
   -2.1565   -1.4135   -0.0969 H   0  0  0  0  0  0  0  0  0  0  0  0
   -0.1659   -1.6071   -1.2858 H   0  0  0  0  0  0  0  0  0  0  0  0
  1  2  1  0  0  0  0
  2  3  1  0  0  0  0
  2 11  1  0  0  0  0
  3  6  1  0  0  0  0
  3 12  1  1  0  0  0
  4  3  1  0  0  0  0
  5  4  3  0  0  0  0
  6 13  1  1  0  0  0
  7  6  1  0  0  0  0
  7 14  1  0  0  0  0
  8  7  1  0  0  0  0
  8  6  1  0  0  0  0
  9  1  1  0  0  0  0
 10  2  1  0  0  0  0
 15  7  1  0  0  0  0
 16  8  1  0  0  0  0
M  END
