title
 OpenBabel02282110003D

 16 16  0  0  1  0  0  0  0  0999 V2000
    1.4973    2.0139   -0.5217 O   0  0  0  0  0  0  0  0  0  0  0  0
    1.5131    0.5956   -0.4868 C   0  0  0  0  0  0  0  0  0  0  0  0
    0.0585    0.1211   -0.6759 C   0  0  1  0  0  0  0  0  0  0  0  0
    0.0167   -1.3261   -0.8568 C   0  0  0  0  0  0  0  0  0  0  0  0
    0.0080   -2.5169   -1.0179 C   0  0  0  0  0  0  0  0  0  0  0  0
   -0.8047    0.6161    0.4812 C   0  0  1  0  0  0  0  0  0  0  0  0
   -1.9248   -0.1429    1.0429 C   0  0  0  0  0  0  0  0  0  0  0  0
   -0.6672   -0.0684    1.7247 O   0  0  0  0  0  0  0  0  0  0  0  0
    2.3491    2.3348   -0.2132 H   0  0  0  0  0  0  0  0  0  0  0  0
    2.1370    0.1788   -1.2898 H   0  0  0  0  0  0  0  0  0  0  0  0
    1.8858    0.2120    0.4727 H   0  0  0  0  0  0  0  0  0  0  0  0
   -0.3150    0.6070   -1.5888 H   0  0  0  0  0  0  0  0  0  0  0  0
   -0.0046   -3.5695   -1.1580 H   0  0  0  0  0  0  0  0  0  0  0  0
   -0.8112    1.7014    0.5649 H   0  0  0  0  0  0  0  0  0  0  0  0
   -2.7464    0.3894    1.5201 H   0  0  0  0  0  0  0  0  0  0  0  0
   -2.1669   -1.1200    0.6312 H   0  0  0  0  0  0  0  0  0  0  0  0
  1  2  1  0  0  0  0
  1  9  1  0  0  0  0
  2 11  1  0  0  0  0
  3 12  1  6  0  0  0
  3  2  1  0  0  0  0
  3  6  1  0  0  0  0
  4  3  1  0  0  0  0
  5  4  3  0  0  0  0
  6 14  1  1  0  0  0
  6  7  1  0  0  0  0
  6  8  1  0  0  0  0
  7 15  1  0  0  0  0
  7  8  1  0  0  0  0
 10  2  1  0  0  0  0
 13  5  1  0  0  0  0
 16  7  1  0  0  0  0
M  END
