18
title
C -1.2126584 2.2902548 1.3754454
C -1.146434 0.76751405 1.2246898
C -0.48872587 0.31521526 -0.09058119
C 0.98440295 0.71408886 -0.13173415
O 1.5807083 1.0041112 -1.136484
C -0.5961035 -1.1936581 -0.27539125
C 0.24817601 -1.95175 -1.2040147
O 0.49797395 -1.9832077 0.20766126
H -0.21523425 2.7431104 1.3567307
H -1.7924925 2.7413483 0.56293565
H -1.6846919 2.5718186 2.3211186
H -0.5938716 0.32858956 2.0657148
H -2.15815 0.34837744 1.2746263
H -0.9813492 0.7979225 -0.9443852
H 1.4931302 0.70424616 0.85734147
H -1.578028 -1.6049516 -0.03311707
H -0.12775108 -2.8818567 -1.6267077
H 0.9951833 -1.4289327 -1.7971674
