title
 OpenBabel02282110003D

 18 18  0  0  1  0  0  0  0  0999 V2000
   -1.2127    2.2903    1.3754 C   0  0  0  0  0  0  0  0  0  0  0  0
   -1.1464    0.7675    1.2247 C   0  0  0  0  0  0  0  0  0  0  0  0
   -0.4887    0.3152   -0.0906 C   0  0  1  0  0  0  0  0  0  0  0  0
    0.9844    0.7141   -0.1317 C   0  0  0  0  0  0  0  0  0  0  0  0
    1.5807    1.0041   -1.1365 O   0  0  0  0  0  0  0  0  0  0  0  0
   -0.5961   -1.1937   -0.2754 C   0  0  1  0  0  0  0  0  0  0  0  0
    0.2482   -1.9518   -1.2040 C   0  0  0  0  0  0  0  0  0  0  0  0
    0.4980   -1.9832    0.2077 O   0  0  0  0  0  0  0  0  0  0  0  0
   -0.2152    2.7431    1.3567 H   0  0  0  0  0  0  0  0  0  0  0  0
   -1.7925    2.7413    0.5629 H   0  0  0  0  0  0  0  0  0  0  0  0
   -1.6847    2.5718    2.3211 H   0  0  0  0  0  0  0  0  0  0  0  0
   -0.5939    0.3286    2.0657 H   0  0  0  0  0  0  0  0  0  0  0  0
   -2.1582    0.3484    1.2746 H   0  0  0  0  0  0  0  0  0  0  0  0
   -0.9813    0.7979   -0.9444 H   0  0  0  0  0  0  0  0  0  0  0  0
    1.4931    0.7042    0.8573 H   0  0  0  0  0  0  0  0  0  0  0  0
   -1.5780   -1.6050   -0.0331 H   0  0  0  0  0  0  0  0  0  0  0  0
   -0.1278   -2.8819   -1.6267 H   0  0  0  0  0  0  0  0  0  0  0  0
    0.9952   -1.4289   -1.7972 H   0  0  0  0  0  0  0  0  0  0  0  0
  1 11  1  0  0  0  0
  2 13  1  0  0  0  0
  2  1  1  0  0  0  0
  2 12  1  0  0  0  0
  3 14  1  6  0  0  0
  3  2  1  0  0  0  0
  4  3  1  0  0  0  0
  4 15  1  0  0  0  0
  5  4  2  0  0  0  0
  6  3  1  0  0  0  0
  6 16  1  1  0  0  0
  6  8  1  0  0  0  0
  7  6  1  0  0  0  0
  7  8  1  0  0  0  0
  9  1  1  0  0  0  0
 10  1  1  0  0  0  0
 17  7  1  0  0  0  0
 18  7  1  0  0  0  0
M  END
