17
title
O 1.3371118 1.7576642 -0.051651094
C 1.7430435 0.44725803 0.27771002
C 0.57507396 -0.56213987 0.27572784
C -0.3755064 -0.3070918 1.3638927
C -1.1683524 -0.10923672 2.2465951
N 0.00015366725 -0.5809815 -1.0822831
C -1.2763836 -1.2572876 -1.2905189
C -1.1909862 0.22517127 -1.3639129
H 1.0493695 1.7385381 -0.9701547
H 2.504429 0.07165443 -0.42072663
H 2.1818182 0.49447381 1.2784641
H 1.0149032 -1.5566268 0.43334144
H -1.8551767 0.07100659 3.0366352
H -1.3415542 -1.8576506 -2.1932817
H -1.7791448 -1.6704637 -0.41908225
H -1.635659 0.7844353 -0.54566604
H -1.1892297 0.7282604 -2.3271332
