19
title
C -1.2874175 2.2520046 1.3912662
C -1.134481 0.7329678 1.2651838
C -0.48499852 0.29332745 -0.05878992
C 0.95390475 0.78367364 -0.1407649
O 1.545307 1.0151207 -1.1644529
C -0.54222363 -1.2266058 -0.23607834
C 0.26238525 -1.9378672 -1.2557682
N 0.54845655 -2.129947 0.17951255
H -0.31995094 2.764392 1.3430672
H -1.9103084 2.6528165 0.58428144
H -1.7553573 2.5230992 2.3420358
H -0.5399538 0.3430157 2.1021435
H -2.1176724 0.25649667 1.3473909
H -1.0225799 0.74468756 -0.9031418
H 1.4631895 0.8989352 0.84588104
H -1.5255884 -1.6311917 -0.0009431371
H -0.1512804 -2.8077238 -1.7579027
H 0.95583546 -1.3495955 -1.8498565
H 1.3809386 -1.6038954 0.43558776
