title
 OpenBabel02282110003D

 16 16  0  0  1  0  0  0  0  0999 V2000
    1.6458    2.1237    0.3341 O   0  0  0  0  0  0  0  0  0  0  0  0
    1.6208    0.7072    0.3979 C   0  0  0  0  0  0  0  0  0  0  0  0
    0.1536    0.2966    0.4902 C   0  0  1  0  0  0  0  0  0  0  0  0
   -0.6048    0.7761   -0.7480 C   0  0  0  0  0  0  0  0  0  0  0  0
   -1.7934    0.9610   -0.7740 O   0  0  0  0  0  0  0  0  0  0  0  0
    0.0143   -1.2093    0.6473 C   0  0  1  0  0  0  0  0  0  0  0  0
   -1.2078   -1.9449    0.3096 C   0  0  0  0  0  0  0  0  0  0  0  0
   -0.0673   -1.9761   -0.5597 O   0  0  0  0  0  0  0  0  0  0  0  0
    2.5466    2.4090    0.1550 H   0  0  0  0  0  0  0  0  0  0  0  0
    2.0707    0.2528   -0.4994 H   0  0  0  0  0  0  0  0  0  0  0  0
    2.1728    0.3290    1.2718 H   0  0  0  0  0  0  0  0  0  0  0  0
   -0.2987    0.7848    1.3620 H   0  0  0  0  0  0  0  0  0  0  0  0
    0.0240    0.9311   -1.6503 H   0  0  0  0  0  0  0  0  0  0  0  0
    0.6712   -1.6440    1.4035 H   0  0  0  0  0  0  0  0  0  0  0  0
   -1.4209   -2.8807    0.8233 H   0  0  0  0  0  0  0  0  0  0  0  0
   -2.0692   -1.4022   -0.0715 H   0  0  0  0  0  0  0  0  0  0  0  0
  1  2  1  0  0  0  0
  2  3  1  0  0  0  0
  2 11  1  0  0  0  0
  3  6  1  0  0  0  0
  3 12  1  1  0  0  0
  4  3  1  0  0  0  0
  5  4  2  0  0  0  0
  6 14  1  1  0  0  0
  7  6  1  0  0  0  0
  7 15  1  0  0  0  0
  8  7  1  0  0  0  0
  8  6  1  0  0  0  0
  9  1  1  0  0  0  0
 10  2  1  0  0  0  0
 13  4  1  0  0  0  0
 16  7  1  0  0  0  0
M  END
