title
 OpenBabel02282110003D

 17 17  0  0  1  0  0  0  0  0999 V2000
    1.0536    2.2721    0.0428 C   0  0  0  0  0  0  0  0  0  0  0  0
    0.7788    0.9500    0.4683 O   0  0  0  0  0  0  0  0  0  0  0  0
   -0.3042    0.3462   -0.2043 C   0  0  1  0  0  0  0  0  0  0  0  0
    0.1057   -0.1173   -1.6011 C   0  0  0  0  0  0  0  0  0  0  0  0
   -0.6624   -0.2793   -2.5120 O   0  0  0  0  0  0  0  0  0  0  0  0
   -0.7449   -0.8832    0.5834 C   0  0  1  0  0  0  0  0  0  0  0  0
    0.2571   -1.7343    1.2727 C   0  0  0  0  0  0  0  0  0  0  0  0
   -0.6666   -0.8790    2.0437 N   0  0  0  0  0  0  0  0  0  0  0  0
    1.8942    2.6317    0.6396 H   0  0  0  0  0  0  0  0  0  0  0  0
    1.3296    2.3143   -1.0204 H   0  0  0  0  0  0  0  0  0  0  0  0
    0.1883    2.9310    0.2032 H   0  0  0  0  0  0  0  0  0  0  0  0
   -1.1522    1.0423   -0.2991 H   0  0  0  0  0  0  0  0  0  0  0  0
    1.1945   -0.3389   -1.6876 H   0  0  0  0  0  0  0  0  0  0  0  0
   -1.6402   -1.3415    0.1715 H   0  0  0  0  0  0  0  0  0  0  0  0
    0.0832   -2.8019    1.3673 H   0  0  0  0  0  0  0  0  0  0  0  0
    1.2990   -1.4351    1.2175 H   0  0  0  0  0  0  0  0  0  0  0  0
   -0.1601   -0.0431    2.3304 H   0  0  0  0  0  0  0  0  0  0  0  0
  1 11  1  0  0  0  0
  1  2  1  0  0  0  0
  1  9  1  0  0  0  0
  3 12  1  6  0  0  0
  3  2  1  0  0  0  0
  3  6  1  0  0  0  0
  4  3  1  0  0  0  0
  5  4  2  0  0  0  0
  6 14  1  6  0  0  0
  6  7  1  0  0  0  0
  6  8  1  0  0  0  0
  7 15  1  0  0  0  0
  7  8  1  0  0  0  0
  8 17  1  0  0  0  0
 10  1  1  0  0  0  0
 13  4  1  0  0  0  0
 16  7  1  0  0  0  0
M  END
