17
title
O 1.9357725 1.1427186 0.036103312
C 1.5777363 -0.18746406 0.34385878
C 0.052463487 -0.37840953 0.27503285
C -0.61933583 0.5126676 1.3173258
O -0.6693706 0.23189461 2.485551
N -0.39432663 0.015781714 -1.0588455
C -0.46695775 -1.0379803 -2.0690098
C -1.7087053 -0.46011898 -1.4886295
H 1.4424912 1.3685596 -0.7634337
H 2.0558722 -0.9097915 -0.33801985
H 1.9241486 -0.39762765 1.3597455
H -0.19103603 -1.425328 0.52512026
H -1.0539464 1.453656 0.91640896
H -0.14619975 -0.7578982 -3.067706
H -0.19582872 -2.048232 -1.7686844
H -2.2724297 -1.0837884 -0.7973137
H -2.3045714 0.24810946 -2.0560017
