22
title
C -1.4424165 1.243021 -1.7458639
C -1.2681395 -0.12389168 -1.0746825
C -0.29562697 -0.13042983 0.12007164
C -0.26632866 -1.4852649 0.85823727
C -1.5627538 -1.8458723 1.5904901
C 1.1095788 0.22384778 -0.32562685
C 1.6883426 1.5664461 -0.1877134
O 2.0545712 0.5164255 0.7081444
H -0.5033554 1.611746 -2.1693616
H -2.1734872 1.1890856 -2.558543
H -1.7987201 1.9916232 -1.0291928
H -2.2473624 -0.47959772 -0.73706883
H -0.92219687 -0.85688287 -1.8170922
H -0.61485195 0.6390738 0.8380265
H -0.014066725 -2.2789454 0.14110814
H 0.555464 -1.4521621 1.5820227
H -2.4058871 -1.9753953 0.90505505
H -1.4464573 -2.7829533 2.1438735
H -1.8371098 -1.0678954 2.31194
H 1.5135636 -0.4167619 -1.1145598
H 2.4722269 1.8973943 -0.86822003
H 1.088371 2.3641207 0.24886249
