19
title
C -0.8462334 1.2060703 2.161594
C -0.09304212 -0.078258276 1.8048915
N 0.2869804 -0.19684538 0.39799824
C 1.6162987 -0.19284314 0.058793213
O 2.0889812 -0.418378 -1.0329077
C -0.73040164 -0.6113289 -0.5302844
C -1.7634361 0.3748302 -1.0422459
C -0.70047915 -0.16211163 -1.961021
H -0.25740552 2.0887098 1.893966
H -1.808513 1.2653543 1.6486908
H -1.0375416 1.2357233 3.2391436
H 0.8244684 -0.1379276 2.399327
H -0.69885933 -0.9526459 2.0780482
H 2.2451305 0.0704091 0.9342244
H -1.0909619 -1.6225603 -0.34484455
H -2.784957 0.026156409 -1.1477432
H -1.6677328 1.4073471 -0.7288027
H 0.10208435 0.49865842 -2.2559671
H -0.97465 -0.8944626 -2.7114873
