title
 OpenBabel02282110003D

 18 18  0  0  1  0  0  0  0  0999 V2000
    1.6640    2.0586    0.0588 O   0  0  0  0  0  0  0  0  0  0  0  0
    1.5327    0.6596    0.2415 C   0  0  0  0  0  0  0  0  0  0  0  0
    0.0820    0.1764    0.0976 C   0  0  1  0  0  0  0  0  0  0  0  0
   -0.4938    0.6568   -1.2244 C   0  0  0  0  0  0  0  0  0  0  0  0
   -1.5214    1.2705   -1.3441 O   0  0  0  0  0  0  0  0  0  0  0  0
   -0.0084   -1.3407    0.1710 C   0  0  0  0  0  0  0  0  0  0  0  0
   -0.1482   -2.0304    1.5073 C   0  0  0  0  0  0  0  0  0  0  0  0
   -1.3075   -2.0093    0.5441 C   0  0  0  0  0  0  0  0  0  0  0  0
    1.1214    2.5008    0.7200 H   0  0  0  0  0  0  0  0  0  0  0  0
    2.1540    0.2025   -0.5379 H   0  0  0  0  0  0  0  0  0  0  0  0
    1.9334    0.3273    1.2106 H   0  0  0  0  0  0  0  0  0  0  0  0
   -0.5364    0.6142    0.8921 H   0  0  0  0  0  0  0  0  0  0  0  0
    0.1134    0.3679   -2.1150 H   0  0  0  0  0  0  0  0  0  0  0  0
    0.5984   -1.8567   -0.5695 H   0  0  0  0  0  0  0  0  0  0  0  0
    0.3811   -2.9643    1.6603 H   0  0  0  0  0  0  0  0  0  0  0  0
   -0.2136   -1.4076    2.3935 H   0  0  0  0  0  0  0  0  0  0  0  0
   -2.1515   -1.3688    0.7766 H   0  0  0  0  0  0  0  0  0  0  0  0
   -1.5747   -2.9295    0.0372 H   0  0  0  0  0  0  0  0  0  0  0  0
  1  2  1  0  0  0  0
  1  9  1  0  0  0  0
  2 11  1  0  0  0  0
  3  6  1  0  0  0  0
  3  2  1  0  0  0  0
  3 12  1  1  0  0  0
  4  3  1  0  0  0  0
  5  4  2  0  0  0  0
  6  8  1  0  0  0  0
  6  7  1  0  0  0  0
  7 15  1  0  0  0  0
  7 16  1  0  0  0  0
  8 17  1  0  0  0  0
  8  7  1  0  0  0  0
 10  2  1  0  0  0  0
 13  4  1  0  0  0  0
 14  6  1  0  0  0  0
 18  8  1  0  0  0  0
M  END
