16
title
C 1.7319472 1.9868383 -0.8952151
O 1.5279815 0.7244513 -0.29042414
C 0.20460147 0.51976585 0.1545404
C -0.72788227 0.21193507 -1.0242265
O -1.9191672 0.37489372 -0.9991631
C 0.221264 -0.65756685 1.1121528
C -1.0065266 -1.3410442 1.5276717
O -0.12336875 -1.9352844 0.5698827
H 2.782224 2.034508 -1.1898022
H 1.1079316 2.12753 -1.790215
H 1.5168632 2.8068008 -0.1935271
H -0.1785649 1.4093868 0.6807905
H -0.19458663 -0.19057372 -1.912204
H 1.0875763 -0.6595867 1.7729354
H -1.0365945 -1.8312929 2.4988756
H -1.9629713 -1.0071548 1.1310114
