title
 OpenBabel02282110003D

 17 17  0  0  1  0  0  0  0  0999 V2000
    1.9358    1.1427    0.0361 O   0  0  0  0  0  0  0  0  0  0  0  0
    1.5777   -0.1875    0.3439 C   0  0  0  0  0  0  0  0  0  0  0  0
    0.0525   -0.3784    0.2750 C   0  0  1  0  0  0  0  0  0  0  0  0
   -0.6193    0.5127    1.3173 C   0  0  0  0  0  0  0  0  0  0  0  0
   -0.6694    0.2319    2.4856 O   0  0  0  0  0  0  0  0  0  0  0  0
   -0.3943    0.0158   -1.0588 N   0  0  0  0  0  0  0  0  0  0  0  0
   -0.4670   -1.0380   -2.0690 C   0  0  0  0  0  0  0  0  0  0  0  0
   -1.7087   -0.4601   -1.4886 C   0  0  0  0  0  0  0  0  0  0  0  0
    1.4425    1.3686   -0.7634 H   0  0  0  0  0  0  0  0  0  0  0  0
    2.0559   -0.9098   -0.3380 H   0  0  0  0  0  0  0  0  0  0  0  0
    1.9241   -0.3976    1.3597 H   0  0  0  0  0  0  0  0  0  0  0  0
   -0.1910   -1.4253    0.5251 H   0  0  0  0  0  0  0  0  0  0  0  0
   -1.0539    1.4537    0.9164 H   0  0  0  0  0  0  0  0  0  0  0  0
   -0.1462   -0.7579   -3.0677 H   0  0  0  0  0  0  0  0  0  0  0  0
   -0.1958   -2.0482   -1.7687 H   0  0  0  0  0  0  0  0  0  0  0  0
   -2.2724   -1.0838   -0.7973 H   0  0  0  0  0  0  0  0  0  0  0  0
   -2.3046    0.2481   -2.0560 H   0  0  0  0  0  0  0  0  0  0  0  0
  1  2  1  0  0  0  0
  2 11  1  0  0  0  0
  3  2  1  0  0  0  0
  3 12  1  1  0  0  0
  3  4  1  0  0  0  0
  4  5  2  0  0  0  0
  6  3  1  0  0  0  0
  7 15  1  0  0  0  0
  7  8  1  0  0  0  0
  7  6  1  0  0  0  0
  8  6  1  0  0  0  0
  8 16  1  0  0  0  0
  9  1  1  0  0  0  0
 10  2  1  0  0  0  0
 13  4  1  0  0  0  0
 14  7  1  0  0  0  0
 17  8  1  0  0  0  0
M  END
