title
 OpenBabel02282110003D

 16 16  0  0  1  0  0  0  0  0999 V2000
    1.7319    1.9868   -0.8952 C   0  0  0  0  0  0  0  0  0  0  0  0
    1.5280    0.7245   -0.2904 O   0  0  0  0  0  0  0  0  0  0  0  0
    0.2046    0.5198    0.1545 C   0  0  1  0  0  0  0  0  0  0  0  0
   -0.7279    0.2119   -1.0242 C   0  0  0  0  0  0  0  0  0  0  0  0
   -1.9192    0.3749   -0.9992 O   0  0  0  0  0  0  0  0  0  0  0  0
    0.2213   -0.6576    1.1122 C   0  0  1  0  0  0  0  0  0  0  0  0
   -1.0065   -1.3410    1.5277 C   0  0  0  0  0  0  0  0  0  0  0  0
   -0.1234   -1.9353    0.5699 O   0  0  0  0  0  0  0  0  0  0  0  0
    2.7822    2.0345   -1.1898 H   0  0  0  0  0  0  0  0  0  0  0  0
    1.1079    2.1275   -1.7902 H   0  0  0  0  0  0  0  0  0  0  0  0
    1.5169    2.8068   -0.1935 H   0  0  0  0  0  0  0  0  0  0  0  0
   -0.1786    1.4094    0.6808 H   0  0  0  0  0  0  0  0  0  0  0  0
   -0.1946   -0.1906   -1.9122 H   0  0  0  0  0  0  0  0  0  0  0  0
    1.0876   -0.6596    1.7729 H   0  0  0  0  0  0  0  0  0  0  0  0
   -1.0366   -1.8313    2.4989 H   0  0  0  0  0  0  0  0  0  0  0  0
   -1.9630   -1.0072    1.1310 H   0  0  0  0  0  0  0  0  0  0  0  0
  1  2  1  0  0  0  0
  1 11  1  0  0  0  0
  2  3  1  0  0  0  0
  3 12  1  1  0  0  0
  3  6  1  0  0  0  0
  4  5  2  0  0  0  0
  4  3  1  0  0  0  0
  6  7  1  0  0  0  0
  6 14  1  1  0  0  0
  7 15  1  0  0  0  0
  8  6  1  0  0  0  0
  8  7  1  0  0  0  0
  9  1  1  0  0  0  0
 10  1  1  0  0  0  0
 13  4  1  0  0  0  0
 16  7  1  0  0  0  0
M  END
