19
title
C -0.4638997 -0.028857067 2.7101402
O -0.82498205 -0.50267476 1.4321345
C -0.0006851292 -0.037672773 0.37450847
C 1.2217263 -0.95124304 0.2027224
O 2.1751268 -0.24021287 -0.5800577
C -0.86160547 0.0065327734 -0.870601
C -1.351894 1.2984499 -1.4074211
N -0.31596443 0.5383355 -2.126264
H 0.5511283 -0.33341986 3.0052698
H -0.5221556 1.0689864 2.7649734
H -1.1738168 -0.45562994 3.4229891
H 0.3790227 0.97408426 0.59268177
H 1.6348794 -1.2058865 1.1898499
H 0.9125461 -1.8869042 -0.28303137
H 2.78538 -0.8717909 -0.9699667
H -1.4792137 -0.882267 -0.9898198
H -2.3131351 1.3509197 -1.9109361
H -1.0681926 2.2063985 -0.88005525
H 0.6081093 0.9237221 -1.947001
