title
 OpenBabel02282110003D

 21 21  0  0  1  0  0  0  0  0999 V2000
   -0.8362    1.6059    2.1704 C   0  0  0  0  0  0  0  0  0  0  0  0
   -0.9391    0.2488    1.4725 C   0  0  0  0  0  0  0  0  0  0  0  0
   -0.4636    0.2762    0.0143 C   0  0  1  0  0  0  0  0  0  0  0  0
    0.9184    0.6320   -0.0070 O   0  0  0  0  0  0  0  0  0  0  0  0
    1.2539    1.6804   -0.8919 C   0  0  0  0  0  0  0  0  0  0  0  0
   -0.6669   -1.0761   -0.6547 C   0  0  1  0  0  0  0  0  0  0  0  0
    0.2096   -1.5521   -1.7492 C   0  0  0  0  0  0  0  0  0  0  0  0
    0.2941   -2.1614   -0.4071 N   0  0  0  0  0  0  0  0  0  0  0  0
    0.1969    1.9642    2.1649 H   0  0  0  0  0  0  0  0  0  0  0  0
   -1.4589    2.3585    1.6730 H   0  0  0  0  0  0  0  0  0  0  0  0
   -1.1656    1.5394    3.2115 H   0  0  0  0  0  0  0  0  0  0  0  0
   -0.3445   -0.4982    2.0117 H   0  0  0  0  0  0  0  0  0  0  0  0
   -1.9758   -0.1091    1.4883 H   0  0  0  0  0  0  0  0  0  0  0  0
   -1.0466    1.0336   -0.5331 H   0  0  0  0  0  0  0  0  0  0  0  0
    0.9834    1.4498   -1.9322 H   0  0  0  0  0  0  0  0  0  0  0  0
    0.7648    2.6233   -0.6075 H   0  0  0  0  0  0  0  0  0  0  0  0
    2.3372    1.8159   -0.8332 H   0  0  0  0  0  0  0  0  0  0  0  0
   -1.7050   -1.4057   -0.6521 H   0  0  0  0  0  0  0  0  0  0  0  0
   -0.1942   -2.1982   -2.5238 H   0  0  0  0  0  0  0  0  0  0  0  0
    1.0280   -0.9137   -2.0660 H   0  0  0  0  0  0  0  0  0  0  0  0
    1.1021   -1.7547    0.0627 H   0  0  0  0  0  0  0  0  0  0  0  0
  1 11  1  0  0  0  0
  2 13  1  0  0  0  0
  2 12  1  0  0  0  0
  2  1  1  0  0  0  0
  3 14  1  6  0  0  0
  3  2  1  0  0  0  0
  4  3  1  0  0  0  0
  5 17  1  0  0  0  0
  5 16  1  0  0  0  0
  5  4  1  0  0  0  0
  6 18  1  6  0  0  0
  6  8  1  0  0  0  0
  6  3  1  0  0  0  0
  7  6  1  0  0  0  0
  7  8  1  0  0  0  0
  8 21  1  0  0  0  0
  9  1  1  0  0  0  0
 10  1  1  0  0  0  0
 15  5  1  0  0  0  0
 19  7  1  0  0  0  0
 20  7  1  0  0  0  0
M  END
