20
title
C -0.31336722 2.3835926 0.60031337
O -0.41088185 0.9760885 0.5312029
C 0.3122124 0.37716746 -0.5469508
C 1.761305 0.13412327 -0.099037424
O 1.8212265 -0.6211365 1.092318
C -0.39996862 -0.899512 -0.9502851
C -1.1769911 -1.7247454 0.040035594
C -1.9028989 -0.96049625 -1.0397297
H 0.7188787 2.7275486 0.75564367
H -0.7020487 2.856682 -0.3132065
H -0.9192397 2.705521 1.4509556
H 0.32316858 1.0678091 -1.4066753
H 2.300226 -0.42536098 -0.87186265
H 2.2753372 1.1036115 0.015894461
H 1.1370167 -0.25389475 1.6654319
H 0.14827038 -1.4542357 -1.7069733
H -1.1116644 -2.8041763 -0.035710525
H -1.2635759 -1.3472322 1.0510463
H -2.4542322 -0.079981506 -0.7303009
H -2.3456736 -1.5098284 -1.8632402
