title
 OpenBabel02282110003D

 20 20  0  0  0  0  0  0  0  0999 V2000
    1.4747    2.2399    0.2931 O   0  0  0  0  0  0  0  0  0  0  0  0
    1.5412    0.8191    0.2945 C   0  0  0  0  0  0  0  0  0  0  0  0
    0.1347    0.2665    0.0503 C   0  0  0  0  0  0  0  0  0  0  0  0
   -0.3769    0.6873   -1.3384 C   0  0  0  0  0  0  0  0  0  0  0  0
   -1.7488    0.3877   -1.5527 O   0  0  0  0  0  0  0  0  0  0  0  0
    0.1110   -1.2378    0.2384 C   0  0  0  0  0  0  0  0  0  0  0  0
   -0.0162   -1.8452    1.6162 C   0  0  0  0  0  0  0  0  0  0  0  0
   -1.1545   -1.9492    0.6325 C   0  0  0  0  0  0  0  0  0  0  0  0
    2.3669    2.5841    0.3904 H   0  0  0  0  0  0  0  0  0  0  0  0
    2.2234    0.4530   -0.4915 H   0  0  0  0  0  0  0  0  0  0  0  0
    1.9164    0.4391    1.2564 H   0  0  0  0  0  0  0  0  0  0  0  0
   -0.5214    0.7275    0.8043 H   0  0  0  0  0  0  0  0  0  0  0  0
   -0.1704    1.7544   -1.4896 H   0  0  0  0  0  0  0  0  0  0  0  0
    0.1701    0.1326   -2.1109 H   0  0  0  0  0  0  0  0  0  0  0  0
   -2.2647    0.9781   -0.9949 H   0  0  0  0  0  0  0  0  0  0  0  0
    0.7555   -1.7754   -0.4550 H   0  0  0  0  0  0  0  0  0  0  0  0
    0.5561   -2.7379    1.8435 H   0  0  0  0  0  0  0  0  0  0  0  0
   -0.1329   -1.1695    2.4580 H   0  0  0  0  0  0  0  0  0  0  0  0
   -2.0358   -1.3427    0.8049 H   0  0  0  0  0  0  0  0  0  0  0  0
   -1.3644   -2.9130    0.1825 H   0  0  0  0  0  0  0  0  0  0  0  0
  1  2  1  0  0  0  0
  1  9  1  0  0  0  0
  2 11  1  0  0  0  0
  3  6  1  0  0  0  0
  3  2  1  0  0  0  0
  3 12  1  0  0  0  0
  4  3  1  0  0  0  0
  5  4  1  0  0  0  0
  5 15  1  0  0  0  0
  6  8  1  0  0  0  0
  6  7  1  0  0  0  0
  7 17  1  0  0  0  0
  7 18  1  0  0  0  0
  8 19  1  0  0  0  0
  8  7  1  0  0  0  0
 10  2  1  0  0  0  0
 13  4  1  0  0  0  0
 14  4  1  0  0  0  0
 16  6  1  0  0  0  0
 20  8  1  0  0  0  0
M  END
