title
 OpenBabel02282110003D

 19 19  0  0  1  0  0  0  0  0999 V2000
   -0.4639   -0.0289    2.7101 C   0  0  0  0  0  0  0  0  0  0  0  0
   -0.8250   -0.5027    1.4321 O   0  0  0  0  0  0  0  0  0  0  0  0
   -0.0007   -0.0377    0.3745 C   0  0  1  0  0  0  0  0  0  0  0  0
    1.2217   -0.9512    0.2027 C   0  0  0  0  0  0  0  0  0  0  0  0
    2.1751   -0.2402   -0.5801 O   0  0  0  0  0  0  0  0  0  0  0  0
   -0.8616    0.0065   -0.8706 C   0  0  1  0  0  0  0  0  0  0  0  0
   -1.3519    1.2984   -1.4074 C   0  0  0  0  0  0  0  0  0  0  0  0
   -0.3160    0.5383   -2.1263 N   0  0  0  0  0  0  0  0  0  0  0  0
    0.5511   -0.3334    3.0053 H   0  0  0  0  0  0  0  0  0  0  0  0
   -0.5222    1.0690    2.7650 H   0  0  0  0  0  0  0  0  0  0  0  0
   -1.1738   -0.4556    3.4230 H   0  0  0  0  0  0  0  0  0  0  0  0
    0.3790    0.9741    0.5927 H   0  0  0  0  0  0  0  0  0  0  0  0
    1.6349   -1.2059    1.1898 H   0  0  0  0  0  0  0  0  0  0  0  0
    0.9125   -1.8869   -0.2830 H   0  0  0  0  0  0  0  0  0  0  0  0
    2.7854   -0.8718   -0.9700 H   0  0  0  0  0  0  0  0  0  0  0  0
   -1.4792   -0.8823   -0.9898 H   0  0  0  0  0  0  0  0  0  0  0  0
   -2.3131    1.3509   -1.9109 H   0  0  0  0  0  0  0  0  0  0  0  0
   -1.0682    2.2064   -0.8801 H   0  0  0  0  0  0  0  0  0  0  0  0
    0.6081    0.9237   -1.9470 H   0  0  0  0  0  0  0  0  0  0  0  0
  1 10  1  0  0  0  0
  1  9  1  0  0  0  0
  1 11  1  0  0  0  0
  2  1  1  0  0  0  0
  3 12  1  1  0  0  0
  3  2  1  0  0  0  0
  4  3  1  0  0  0  0
  4 13  1  0  0  0  0
  5  4  1  0  0  0  0
  6 16  1  6  0  0  0
  6  3  1  0  0  0  0
  7 18  1  0  0  0  0
  7  6  1  0  0  0  0
  8 19  1  0  0  0  0
  8  7  1  0  0  0  0
  8  6  1  0  0  0  0
 14  4  1  0  0  0  0
 15  5  1  0  0  0  0
 17  7  1  0  0  0  0
M  END
