title
 OpenBabel02282110003D

 22 22  0  0  1  0  0  0  0  0999 V2000
   -1.2270    2.2966    1.3634 C   0  0  0  0  0  0  0  0  0  0  0  0
   -1.0188    0.7806    1.2705 C   0  0  0  0  0  0  0  0  0  0  0  0
   -0.1278    0.3148    0.1019 C   0  0  1  0  0  0  0  0  0  0  0  0
    1.3217    0.8050    0.2589 C   0  0  0  0  0  0  0  0  0  0  0  0
    2.1514    0.4808   -0.8432 O   0  0  0  0  0  0  0  0  0  0  0  0
   -0.1711   -1.1996   -0.0291 C   0  0  0  0  0  0  0  0  0  0  0  0
   -1.3168   -1.8780   -0.7326 C   0  0  0  0  0  0  0  0  0  0  0  0
    0.0534   -1.8847   -1.3625 C   0  0  0  0  0  0  0  0  0  0  0  0
   -0.2968    2.8314    1.5772 H   0  0  0  0  0  0  0  0  0  0  0  0
   -1.6320    2.6976    0.4275 H   0  0  0  0  0  0  0  0  0  0  0  0
   -1.9339    2.5425    2.1621 H   0  0  0  0  0  0  0  0  0  0  0  0
   -0.5950    0.4092    2.2141 H   0  0  0  0  0  0  0  0  0  0  0  0
   -1.9946    0.2913    1.1682 H   0  0  0  0  0  0  0  0  0  0  0  0
   -0.5197    0.7476   -0.8303 H   0  0  0  0  0  0  0  0  0  0  0  0
    1.3494    1.8957    0.3343 H   0  0  0  0  0  0  0  0  0  0  0  0
    1.7357    0.4049    1.2016 H   0  0  0  0  0  0  0  0  0  0  0  0
    2.1117   -0.4741   -0.9569 H   0  0  0  0  0  0  0  0  0  0  0  0
    0.2191   -1.7262    0.8408 H   0  0  0  0  0  0  0  0  0  0  0  0
   -1.6995   -2.8070   -0.3250 H   0  0  0  0  0  0  0  0  0  0  0  0
   -2.0748   -1.2468   -1.1854 H   0  0  0  0  0  0  0  0  0  0  0  0
    0.2080   -1.2570   -2.2337 H   0  0  0  0  0  0  0  0  0  0  0  0
    0.6031   -2.8200   -1.3830 H   0  0  0  0  0  0  0  0  0  0  0  0
  1  9  1  0  0  0  0
  1 11  1  0  0  0  0
  2  1  1  0  0  0  0
  2 12  1  0  0  0  0
  3 14  1  6  0  0  0
  3  4  1  0  0  0  0
  3  2  1  0  0  0  0
  4 15  1  0  0  0  0
  4 16  1  0  0  0  0
  5  4  1  0  0  0  0
  6  3  1  0  0  0  0
  6 18  1  0  0  0  0
  7 19  1  0  0  0  0
  7  6  1  0  0  0  0
  8  7  1  0  0  0  0
  8  6  1  0  0  0  0
 10  1  1  0  0  0  0
 13  2  1  0  0  0  0
 17  5  1  0  0  0  0
 20  7  1  0  0  0  0
 21  8  1  0  0  0  0
 22  8  1  0  0  0  0
M  END
