title
 OpenBabel02282110003D

 20 20  0  0  1  0  0  0  0  0999 V2000
   -0.8781    1.4577    2.2509 C   0  0  0  0  0  0  0  0  0  0  0  0
   -0.8909    0.1658    1.4328 C   0  0  0  0  0  0  0  0  0  0  0  0
   -0.4402    0.3634   -0.0179 C   0  0  1  0  0  0  0  0  0  0  0  0
    0.9038    0.8215   -0.0011 O   0  0  0  0  0  0  0  0  0  0  0  0
    1.2399    1.6663   -1.0794 C   0  0  0  0  0  0  0  0  0  0  0  0
   -0.6065   -0.9284   -0.8110 C   0  0  1  0  0  0  0  0  0  0  0  0
    0.4977   -1.5989   -1.5099 C   0  0  0  0  0  0  0  0  0  0  0  0
    0.0085   -2.0984   -0.2660 O   0  0  0  0  0  0  0  0  0  0  0  0
    0.1224    1.8975    2.2572 H   0  0  0  0  0  0  0  0  0  0  0  0
   -1.5712    2.1997    1.8375 H   0  0  0  0  0  0  0  0  0  0  0  0
   -1.1747    1.2681    3.2868 H   0  0  0  0  0  0  0  0  0  0  0  0
   -0.2297   -0.5830    1.8806 H   0  0  0  0  0  0  0  0  0  0  0  0
   -1.8971   -0.2711    1.4235 H   0  0  0  0  0  0  0  0  0  0  0  0
   -1.0796    1.1270   -0.4933 H   0  0  0  0  0  0  0  0  0  0  0  0
    1.1208    1.1705   -2.0541 H   0  0  0  0  0  0  0  0  0  0  0  0
    0.6265    2.5803   -1.0822 H   0  0  0  0  0  0  0  0  0  0  0  0
    2.2892    1.9459   -0.9554 H   0  0  0  0  0  0  0  0  0  0  0  0
   -1.6214   -1.0997   -1.1767 H   0  0  0  0  0  0  0  0  0  0  0  0
    0.2872   -2.2182   -2.3814 H   0  0  0  0  0  0  0  0  0  0  0  0
    1.4936   -1.1660   -1.4653 H   0  0  0  0  0  0  0  0  0  0  0  0
  1  9  1  0  0  0  0
  1 11  1  0  0  0  0
  2 12  1  0  0  0  0
  2  1  1  0  0  0  0
  3 14  1  6  0  0  0
  3  4  1  0  0  0  0
  3  2  1  0  0  0  0
  5 17  1  0  0  0  0
  5  4  1  0  0  0  0
  6 18  1  6  0  0  0
  6  8  1  0  0  0  0
  6  3  1  0  0  0  0
  7 20  1  0  0  0  0
  7  6  1  0  0  0  0
  7  8  1  0  0  0  0
 10  1  1  0  0  0  0
 13  2  1  0  0  0  0
 15  5  1  0  0  0  0
 16  5  1  0  0  0  0
 19  7  1  0  0  0  0
M  END
