18
title
C -0.8518831 2.3171117 -0.87741804
O -0.74024785 0.90754557 -0.87624454
C 0.10841462 0.38174272 0.14551193
C -0.69892377 0.2006584 1.4371014
O -1.8653154 -0.56148165 1.1946561
C 0.63771945 -0.9405237 -0.3653313
C 1.9246427 -1.0338758 -1.0572456
O 1.7971932 -1.4265918 0.31332618
H 0.12665823 2.7944717 -1.0330937
H -1.5118036 2.585022 -1.705959
H -1.2828478 2.7082107 0.054948267
H 0.9603855 1.0537025 0.32766443
H -0.0944525 -0.3401503 2.1720154
H -0.9439385 1.1857188 1.8662639
H -2.2551842 -0.19106416 0.39252287
H -0.12505841 -1.6923884 -0.5605996
H 2.1025984 -1.8455321 -1.7606392
H 2.508916 -0.13117473 -1.2319947
