16
title
C -0.592561 -4.105998 -0.12689604
C -0.6109337 -2.9059634 0.008065877
C -0.6323565 -1.5538236 0.16006072
C -0.65202636 -0.35107687 0.294165
C -0.6555835 1.0963638 0.46146366
C 0.7306064 1.7174654 0.34427372
C 1.2887973 2.0705543 -1.0076973
C 0.86719304 3.1635528 -0.0545895
H -0.5759586 -5.1607203 -0.24541853
H -1.3192749 1.5465133 -0.28949478
H -1.0932658 1.3455236 1.4380679
H 1.439987 1.3450817 1.0768946
H 2.3473728 1.9172666 -1.183812
H 0.66469747 1.8868101 -1.8761657
H -0.039002124 3.7148156 -0.28475186
H 1.6361573 3.758543 0.42517585
