19
title
O 1.719148 1.8595771 0.42812037
C 1.4154481 0.49344584 0.25582004
C -0.07900095 0.15605035 0.46567854
C -0.94607353 0.64818245 -0.6962048
O -0.68264985 2.0358665 -0.9065976
C -0.22955656 -1.3318329 0.7557174
C -1.3357522 -2.1908107 0.26119003
N 0.032874342 -2.3750453 -0.25596446
H 1.0996963 2.3425806 -0.13354671
H 1.7298131 0.12607703 -0.73757267
H 2.011293 -0.053405553 0.99490416
H -0.39749455 0.699929 1.3648163
H -0.7154982 0.07821122 -1.610866
H -2.009388 0.4970927 -0.46559662
H -1.1374445 2.320729 -1.7040511
H 0.19477415 -1.6001663 1.7219639
H -1.7040536 -3.004455 0.87998176
H -2.0859523 -1.760972 -0.3959502
H 0.10626137 -1.9590003 -1.1813711
