title
 OpenBabel02282110003D

 13 13  0  0  1  0  0  0  0  0999 V2000
   -0.6135   -4.0442    0.1575 N   0  0  0  0  0  0  0  0  0  0  0  0
   -0.6354   -2.8891    0.0368 C   0  0  0  0  0  0  0  0  0  0  0  0
   -0.6632   -1.5319   -0.1085 C   0  0  0  0  0  0  0  0  0  0  0  0
   -0.6941   -0.3315   -0.2375 C   0  0  0  0  0  0  0  0  0  0  0  0
   -0.7091    1.1134   -0.4052 C   0  0  0  0  0  0  0  0  0  0  0  0
    0.6888    1.7164   -0.4363 C   0  0  1  0  0  0  0  0  0  0  0  0
    0.9309    3.0812    0.0430 C   0  0  0  0  0  0  0  0  0  0  0  0
    1.3055    1.9424    0.8232 O   0  0  0  0  0  0  0  0  0  0  0  0
   -1.2313    1.3620   -1.3389 H   0  0  0  0  0  0  0  0  0  0  0  0
   -1.2760    1.5724    0.4135 H   0  0  0  0  0  0  0  0  0  0  0  0
    1.3491    1.3025   -1.1983 H   0  0  0  0  0  0  0  0  0  0  0  0
    1.7548    3.6600   -0.3701 H   0  0  0  0  0  0  0  0  0  0  0  0
    0.1024    3.6664    0.4398 H   0  0  0  0  0  0  0  0  0  0  0  0
  2  1  3  0  0  0  0
  3  2  1  0  0  0  0
  4  3  3  0  0  0  0
  5  4  1  0  0  0  0
  5 10  1  0  0  0  0
  6 11  1  6  0  0  0
  6  5  1  0  0  0  0
  6  7  1  0  0  0  0
  6  8  1  0  0  0  0
  7 13  1  0  0  0  0
  7  8  1  0  0  0  0
  9  5  1  0  0  0  0
 12  7  1  0  0  0  0
M  END
