title
 OpenBabel02282110003D

 14 14  0  0  1  0  0  0  0  0999 V2000
   -0.6358   -4.1186    0.0646 C   0  0  0  0  0  0  0  0  0  0  0  0
   -0.6544   -2.9150   -0.0312 C   0  0  0  0  0  0  0  0  0  0  0  0
   -0.6776   -1.5589   -0.1403 C   0  0  0  0  0  0  0  0  0  0  0  0
   -0.7006   -0.3531   -0.2356 C   0  0  0  0  0  0  0  0  0  0  0  0
   -0.7106    1.0969   -0.3635 C   0  0  0  0  0  0  0  0  0  0  0  0
    0.6863    1.6997   -0.3948 C   0  0  1  0  0  0  0  0  0  0  0  0
    0.9356    3.0613    0.0899 C   0  0  0  0  0  0  0  0  0  0  0  0
    1.3133    1.9194    0.8630 O   0  0  0  0  0  0  0  0  0  0  0  0
   -0.6170   -5.1765    0.1509 H   0  0  0  0  0  0  0  0  0  0  0  0
   -1.2387    1.3796   -1.2848 H   0  0  0  0  0  0  0  0  0  0  0  0
   -1.2649    1.5439    0.4710 H   0  0  0  0  0  0  0  0  0  0  0  0
    1.3445    1.2898   -1.1610 H   0  0  0  0  0  0  0  0  0  0  0  0
    1.7576    3.6424   -0.3246 H   0  0  0  0  0  0  0  0  0  0  0  0
    0.1108    3.6467    0.4951 H   0  0  0  0  0  0  0  0  0  0  0  0
  1  9  1  0  0  0  0
  2  1  3  0  0  0  0
  3  2  1  0  0  0  0
  4  3  3  0  0  0  0
  5  4  1  0  0  0  0
  5 11  1  0  0  0  0
  6 12  1  6  0  0  0
  6  5  1  0  0  0  0
  6  7  1  0  0  0  0
  6  8  1  0  0  0  0
  7 14  1  0  0  0  0
  7  8  1  0  0  0  0
 10  5  1  0  0  0  0
 13  7  1  0  0  0  0
M  END
