14
title
C -0.63577044 -4.118582 0.06458113
C -0.654369 -2.9150348 -0.031162787
C -0.6776337 -1.5588609 -0.14034136
C -0.70063424 -0.3530632 -0.23555562
C -0.71056217 1.0969338 -0.36346412
C 0.6862717 1.699665 -0.39477304
C 0.93555504 3.061337 0.08991637
O 1.3133365 1.9194204 0.8630164
H -0.61704946 -5.176503 0.1508692
H -1.2387084 1.3796057 -1.2848076
H -1.2648984 1.5438809 0.47096542
H 1.3444916 1.2897688 -1.1609838
H 1.7576164 3.6423912 -0.3245968
H 0.11078296 3.646667 0.49509296
