title
 OpenBabel02282110003D

 16 16  0  0  0  0  0  0  0  0999 V2000
   -2.1364   -2.9604   -0.6711 C   0  0  0  0  0  0  0  0  0  0  0  0
   -2.0409   -1.9405   -0.0449 C   0  0  0  0  0  0  0  0  0  0  0  0
   -1.9398   -0.6969    0.7231 C   0  0  0  0  0  0  0  0  0  0  0  0
   -0.6429   -0.0289    0.6001 C   0  0  0  0  0  0  0  0  0  0  0  0
    0.4236    0.5219    0.5015 C   0  0  0  0  0  0  0  0  0  0  0  0
    1.6952    1.1753    0.3893 C   0  0  0  0  0  0  0  0  0  0  0  0
    2.4521    1.1544   -0.9298 C   0  0  0  0  0  0  0  0  0  0  0  0
    1.8396    2.4360   -0.4496 C   0  0  0  0  0  0  0  0  0  0  0  0
   -2.2146   -3.8622   -1.2259 H   0  0  0  0  0  0  0  0  0  0  0  0
   -2.7404   -0.0134    0.4069 H   0  0  0  0  0  0  0  0  0  0  0  0
   -2.1410   -0.9111    1.7821 H   0  0  0  0  0  0  0  0  0  0  0  0
    2.3105    1.1337    1.2836 H   0  0  0  0  0  0  0  0  0  0  0  0
    3.5292    1.0422   -0.8805 H   0  0  0  0  0  0  0  0  0  0  0  0
    1.9794    0.6418   -1.7589 H   0  0  0  0  0  0  0  0  0  0  0  0
    0.9502    2.7961   -0.9526 H   0  0  0  0  0  0  0  0  0  0  0  0
    2.4918    3.2131   -0.0675 H   0  0  0  0  0  0  0  0  0  0  0  0
  1  2  3  0  0  0  0
  2  3  1  0  0  0  0
  3 11  1  0  0  0  0
  4  3  1  0  0  0  0
  5  4  3  0  0  0  0
  6  5  1  0  0  0  0
  6 12  1  0  0  0  0
  7 13  1  0  0  0  0
  7  8  1  0  0  0  0
  7  6  1  0  0  0  0
  8 16  1  0  0  0  0
  8  6  1  0  0  0  0
  9  1  1  0  0  0  0
 10  3  1  0  0  0  0
 14  7  1  0  0  0  0
 15  8  1  0  0  0  0
M  END
