15
title
C -2.071813 -2.916637 -0.7464586
C -1.9787996 -1.9650213 -0.020620419
C -1.8794941 -0.8051974 0.86801636
C -0.6477386 -0.03389904 0.69135773
C 0.36882535 0.59634966 0.54934454
C 1.5668081 1.3694791 0.38072294
C 2.5003068 1.0586721 -0.74395066
N 1.7041205 2.2888124 -0.7770659
H -2.1503475 -3.7586815 -1.3885294
H -2.750428 -0.15345046 0.711154
H -1.949363 -1.1415414 1.9118522
H 1.9912788 1.7745866 1.2957993
H 3.5668638 1.2054545 -0.5994631
H 2.2310517 0.23680797 -1.4004439
H 0.90301526 2.1595557 -1.3908285
