13
title
N -2.1020105 -2.9785905 -0.53927577
C -2.0312126 -1.9685824 0.015287179
C -1.9548712 -0.6855269 0.7273101
C -0.65898395 -0.027507033 0.5874844
C 0.40393797 0.5216451 0.46543103
C 1.6788331 1.177391 0.34979907
C 2.441549 1.161634 -0.9149151
O 1.7511998 2.3324282 -0.4997965
H -2.7536318 -0.033950534 0.3500398
H -2.1813996 -0.86531895 1.786058
H 2.2383544 1.2765262 1.2790635
H 3.5285804 1.2119098 -0.87346625
H 2.020984 0.6469274 -1.7762328
