title
 OpenBabel02282110003D

 18 18  0  0  1  0  0  0  0  0999 V2000
   -1.5191   -3.7803    0.1429 C   0  0  0  0  0  0  0  0  0  0  0  0
   -1.5574   -2.5891   -0.0129 C   0  0  0  0  0  0  0  0  0  0  0  0
   -1.5702   -1.1437   -0.2012 C   0  0  0  0  0  0  0  0  0  0  0  0
   -0.1584   -0.5248   -0.2086 C   0  0  0  0  0  0  0  0  0  0  0  0
   -0.1874    0.9946   -0.4146 C   0  0  0  0  0  0  0  0  0  0  0  0
    1.1959    1.5977   -0.4142 C   0  0  1  0  0  0  0  0  0  0  0  0
    1.4829    2.9175    0.1596 C   0  0  0  0  0  0  0  0  0  0  0  0
    1.8361    1.7232    0.8597 O   0  0  0  0  0  0  0  0  0  0  0  0
   -1.4962   -4.8326    0.2818 H   0  0  0  0  0  0  0  0  0  0  0  0
   -2.0801   -0.9030   -1.1439 H   0  0  0  0  0  0  0  0  0  0  0  0
   -2.1685   -0.6772    0.5927 H   0  0  0  0  0  0  0  0  0  0  0  0
    0.3430   -0.7531    0.7375 H   0  0  0  0  0  0  0  0  0  0  0  0
    0.4344   -0.9990   -0.9997 H   0  0  0  0  0  0  0  0  0  0  0  0
   -0.6785    1.2343   -1.3680 H   0  0  0  0  0  0  0  0  0  0  0  0
   -0.7794    1.4677    0.3784 H   0  0  0  0  0  0  0  0  0  0  0  0
    1.8611    1.2363   -1.2017 H   0  0  0  0  0  0  0  0  0  0  0  0
    2.3190    3.5054   -0.2169 H   0  0  0  0  0  0  0  0  0  0  0  0
    0.6729    3.4961    0.6027 H   0  0  0  0  0  0  0  0  0  0  0  0
  1  9  1  0  0  0  0
  2  1  3  0  0  0  0
  3  2  1  0  0  0  0
  3 11  1  0  0  0  0
  4  3  1  0  0  0  0
  4 12  1  0  0  0  0
  5  6  1  0  0  0  0
  5  4  1  0  0  0  0
  5 15  1  0  0  0  0
  6 16  1  6  0  0  0
  6  7  1  0  0  0  0
  6  8  1  0  0  0  0
  7 18  1  0  0  0  0
  7  8  1  0  0  0  0
 10  3  1  0  0  0  0
 13  4  1  0  0  0  0
 14  5  1  0  0  0  0
 17  7  1  0  0  0  0
M  END
