title
 OpenBabel02282110003D

 19 19  0  0  0  0  0  0  0  0999 V2000
   -1.3900   -3.8104   -0.1615 C   0  0  0  0  0  0  0  0  0  0  0  0
   -1.4356   -2.6242    0.0272 C   0  0  0  0  0  0  0  0  0  0  0  0
   -1.4597   -1.1838    0.2502 C   0  0  0  0  0  0  0  0  0  0  0  0
   -0.0638   -0.5371    0.1554 C   0  0  0  0  0  0  0  0  0  0  0  0
   -0.1136    0.9738    0.3798 C   0  0  0  0  0  0  0  0  0  0  0  0
    1.2247    1.5496    0.3276 N   0  0  0  0  0  0  0  0  0  0  0  0
    1.6930    1.9759   -0.9875 C   0  0  0  0  0  0  0  0  0  0  0  0
    1.3035    2.9774    0.0431 C   0  0  0  0  0  0  0  0  0  0  0  0
   -1.3603   -4.8588   -0.3256 H   0  0  0  0  0  0  0  0  0  0  0  0
   -2.1330   -0.7148   -0.4799 H   0  0  0  0  0  0  0  0  0  0  0  0
   -1.8938   -0.9756    1.2373 H   0  0  0  0  0  0  0  0  0  0  0  0
    0.6041   -0.9897    0.8948 H   0  0  0  0  0  0  0  0  0  0  0  0
    0.3666   -0.7502   -0.8294 H   0  0  0  0  0  0  0  0  0  0  0  0
   -0.7925    1.4396   -0.3608 H   0  0  0  0  0  0  0  0  0  0  0  0
   -0.5312    1.1899    1.3717 H   0  0  0  0  0  0  0  0  0  0  0  0
    2.7393    1.7824   -1.2056 H   0  0  0  0  0  0  0  0  0  0  0  0
    1.0195    1.8498   -1.8345 H   0  0  0  0  0  0  0  0  0  0  0  0
    0.3718    3.5179   -0.1191 H   0  0  0  0  0  0  0  0  0  0  0  0
    2.0599    3.5292    0.5939 H   0  0  0  0  0  0  0  0  0  0  0  0
  1  2  3  0  0  0  0
  2  3  1  0  0  0  0
  3 11  1  0  0  0  0
  4  3  1  0  0  0  0
  4  5  1  0  0  0  0
  4 12  1  0  0  0  0
  5 15  1  0  0  0  0
  6  5  1  0  0  0  0
  7  8  1  0  0  0  0
  7  6  1  0  0  0  0
  8  6  1  0  0  0  0
  8 19  1  0  0  0  0
  9  1  1  0  0  0  0
 10  3  1  0  0  0  0
 13  4  1  0  0  0  0
 14  5  1  0  0  0  0
 16  7  1  0  0  0  0
 17  7  1  0  0  0  0
 18  8  1  0  0  0  0
M  END
