title
 OpenBabel02282110003D

 19 19  0  0  0  0  0  0  0  0999 V2000
   -1.5163   -3.7186   -0.1584 N   0  0  0  0  0  0  0  0  0  0  0  0
   -1.5213   -2.5791    0.0339 C   0  0  0  0  0  0  0  0  0  0  0  0
   -1.5032   -1.1378    0.2738 C   0  0  0  0  0  0  0  0  0  0  0  0
   -0.0900   -0.5321    0.1603 C   0  0  0  0  0  0  0  0  0  0  0  0
   -0.0899    0.9797    0.4173 C   0  0  0  0  0  0  0  0  0  0  0  0
    1.2912    1.5911    0.3173 C   0  0  0  0  0  0  0  0  0  0  0  0
    1.8474    2.0042   -1.0234 C   0  0  0  0  0  0  0  0  0  0  0  0
    1.4603    3.0526   -0.0086 C   0  0  0  0  0  0  0  0  0  0  0  0
   -2.1801   -0.6588   -0.4437 H   0  0  0  0  0  0  0  0  0  0  0  0
   -1.9192   -0.9469    1.2702 H   0  0  0  0  0  0  0  0  0  0  0  0
    0.5715   -1.0336    0.8758 H   0  0  0  0  0  0  0  0  0  0  0  0
    0.3139   -0.7412   -0.8359 H   0  0  0  0  0  0  0  0  0  0  0  0
   -0.7565    1.4729   -0.3034 H   0  0  0  0  0  0  0  0  0  0  0  0
   -0.5130    1.1807    1.4116 H   0  0  0  0  0  0  0  0  0  0  0  0
    2.0118    1.1777    1.0192 H   0  0  0  0  0  0  0  0  0  0  0  0
    2.9008    1.8414   -1.2218 H   0  0  0  0  0  0  0  0  0  0  0  0
    1.2099    1.8852   -1.8939 H   0  0  0  0  0  0  0  0  0  0  0  0
    0.5648    3.6351   -0.1997 H   0  0  0  0  0  0  0  0  0  0  0  0
    2.2496    3.6047    0.4891 H   0  0  0  0  0  0  0  0  0  0  0  0
  1  2  3  0  0  0  0
  2  3  1  0  0  0  0
  3 10  1  0  0  0  0
  4  3  1  0  0  0  0
  4  5  1  0  0  0  0
  4 11  1  0  0  0  0
  5 14  1  0  0  0  0
  6  5  1  0  0  0  0
  6 15  1  0  0  0  0
  7  8  1  0  0  0  0
  7  6  1  0  0  0  0
  8  6  1  0  0  0  0
  8 19  1  0  0  0  0
  9  3  1  0  0  0  0
 12  4  1  0  0  0  0
 13  5  1  0  0  0  0
 16  7  1  0  0  0  0
 17  7  1  0  0  0  0
 18  8  1  0  0  0  0
M  END
