title
 OpenBabel02282110003D

 17 17  0  0  1  0  0  0  0  0999 V2000
   -1.4722   -3.6234    0.0971 N   0  0  0  0  0  0  0  0  0  0  0  0
   -1.4910   -2.4789   -0.0563 C   0  0  0  0  0  0  0  0  0  0  0  0
   -1.5213   -1.0231   -0.2208 C   0  0  0  0  0  0  0  0  0  0  0  0
   -0.1757   -0.4678   -0.2513 N   0  0  0  0  0  0  0  0  0  0  0  0
   -0.1644    0.9864   -0.3848 C   0  0  0  0  0  0  0  0  0  0  0  0
    1.2493    1.5087   -0.3487 C   0  0  1  0  0  0  0  0  0  0  0  0
    1.5258    2.8894    0.1109 C   0  0  0  0  0  0  0  0  0  0  0  0
    1.9240    1.7399    0.9436 N   0  0  0  0  0  0  0  0  0  0  0  0
   -2.0187   -0.7940   -1.1720 H   0  0  0  0  0  0  0  0  0  0  0  0
   -2.1676   -0.6058    0.5744 H   0  0  0  0  0  0  0  0  0  0  0  0
    0.3337   -0.7464    0.5814 H   0  0  0  0  0  0  0  0  0  0  0  0
   -0.6291    1.2381   -1.3483 H   0  0  0  0  0  0  0  0  0  0  0  0
   -0.7617    1.4990    0.3959 H   0  0  0  0  0  0  0  0  0  0  0  0
    1.9029    1.0691   -1.0984 H   0  0  0  0  0  0  0  0  0  0  0  0
    2.3491    3.4503   -0.3211 H   0  0  0  0  0  0  0  0  0  0  0  0
    0.6842    3.4982    0.4326 H   0  0  0  0  0  0  0  0  0  0  0  0
    1.2572    1.6332    1.7062 H   0  0  0  0  0  0  0  0  0  0  0  0
  2  1  3  0  0  0  0
  3  2  1  0  0  0  0
  3 10  1  0  0  0  0
  4  3  1  0  0  0  0
  4 11  1  0  0  0  0
  5  6  1  0  0  0  0
  5  4  1  0  0  0  0
  5 13  1  0  0  0  0
  6 14  1  6  0  0  0
  6  7  1  0  0  0  0
  6  8  1  0  0  0  0
  7 16  1  0  0  0  0
  7  8  1  0  0  0  0
  8 17  1  0  0  0  0
  9  3  1  0  0  0  0
 12  5  1  0  0  0  0
 15  7  1  0  0  0  0
M  END
