17
title
N -1.5452706 -3.5630481 -0.59399974
C -1.4386474 -2.4985647 -0.15772523
C -1.2823589 -1.1524037 0.38311425
C 0.066925 -0.5306306 0.0027670248
O 0.09236903 0.75614667 0.58139986
C 1.280568 1.4473715 0.33533555
C 1.4398097 2.1979795 -0.9622883
C 1.192782 2.9368515 0.33906028
H -2.0921462 -0.51523566 0.012612122
H -1.3717661 -1.1851442 1.4738791
H 0.89028746 -1.1532584 0.38434795
H 0.16959232 -0.47718766 -1.0904224
H 2.1644418 0.97578216 0.7661879
H 2.4219053 2.248942 -1.418873
H 0.6130033 2.1501107 -1.6622262
H 0.20590454 3.3604503 0.4852923
H 2.0027492 3.5006762 0.78713024
