18
title
C -1.5319482 -3.6469297 -0.5330738
C -1.4433819 -2.5279226 -0.10378303
C -1.302693 -1.1693991 0.40153912
C 0.045677774 -0.54677916 0.024108112
O 0.07050132 0.7607713 0.5638521
C 1.2592173 1.4407108 0.30717665
C 1.4290786 2.1591318 -1.0080312
C 1.1779933 2.930753 0.27375978
H -1.6239442 -4.636622 -0.90622747
H -2.1041868 -0.5319412 0.009607038
H -1.4010662 -1.1560353 1.4934442
H 0.8682544 -1.1540228 0.43211251
H 0.16281879 -0.5225978 -1.0688683
H 2.1419973 0.97891283 0.7519565
H 2.4137356 2.1973426 -1.4607091
H 0.6055355 2.095689 -1.7105263
H 0.19186926 3.3612506 0.40456414
H 1.9877939 3.503545 0.71099997
