title
 OpenBabel02282110003D

 16 16  0  0  0  0  0  0  0  0999 V2000
   -2.3008   -3.1286    0.1057 O   0  0  0  0  0  0  0  0  0  0  0  0
   -2.2179   -1.9231    0.0400 C   0  0  0  0  0  0  0  0  0  0  0  0
   -0.9918   -1.1946   -0.1494 C   0  0  0  0  0  0  0  0  0  0  0  0
    0.0210   -0.5540   -0.3043 C   0  0  0  0  0  0  0  0  0  0  0  0
    1.2399    0.2213   -0.4976 C   0  0  0  0  0  0  0  0  0  0  0  0
    1.0395    1.7219   -0.3432 C   0  0  0  0  0  0  0  0  0  0  0  0
    1.0930    2.3545    1.0217 C   0  0  0  0  0  0  0  0  0  0  0  0
    2.2086    2.5937    0.0330 C   0  0  0  0  0  0  0  0  0  0  0  0
   -3.1173   -1.2790    0.1256 H   0  0  0  0  0  0  0  0  0  0  0  0
    1.9988   -0.1262    0.2163 H   0  0  0  0  0  0  0  0  0  0  0  0
    1.6434   -0.0061   -1.4941 H   0  0  0  0  0  0  0  0  0  0  0  0
    0.3236    2.1424   -1.0429 H   0  0  0  0  0  0  0  0  0  0  0  0
    0.4109    3.1684    1.2391 H   0  0  0  0  0  0  0  0  0  0  0  0
    1.2982    1.7104    1.8706 H   0  0  0  0  0  0  0  0  0  0  0  0
    3.1631    2.1116    0.2194 H   0  0  0  0  0  0  0  0  0  0  0  0
    2.2907    3.5704   -0.4302 H   0  0  0  0  0  0  0  0  0  0  0  0
  2  1  2  0  0  0  0
  2  9  1  0  0  0  0
  3  2  1  0  0  0  0
  4  3  3  0  0  0  0
  5  6  1  0  0  0  0
  5  4  1  0  0  0  0
  5 10  1  0  0  0  0
  6  8  1  0  0  0  0
  6  7  1  0  0  0  0
  7 13  1  0  0  0  0
  7 14  1  0  0  0  0
  8 15  1  0  0  0  0
  8  7  1  0  0  0  0
 11  5  1  0  0  0  0
 12  6  1  0  0  0  0
 16  8  1  0  0  0  0
M  END
