17
title
N -1.5193723 -3.4969137 -0.3340942
C -1.4910858 -2.3718991 -0.07682271
C -1.4972727 -0.9439749 0.25664565
O -0.19418712 -0.43591538 0.14802454
C -0.12596734 0.9491454 0.4691813
C 1.3040682 1.3961316 0.3827082
C 1.8972136 1.7596782 -0.95341563
C 1.6089383 2.838205 0.058399886
H -2.1953516 -0.42975917 -0.42548862
H -1.8996749 -0.8251352 1.2768838
H -0.7515349 1.5293063 -0.23042177
H -0.52902615 1.1143385 1.482612
H 1.9633361 0.9041813 1.0912529
H 2.9296832 1.4899663 -1.1428233
H 1.254084 1.6934923 -1.8245155
H 0.77454466 3.5052521 -0.13264503
H 2.4413016 3.3081849 0.5693813
