title
 OpenBabel02282110003D

 15 15  0  0  0  0  0  0  0  0999 V2000
   -2.3867   -3.0419    0.0450 O   0  0  0  0  0  0  0  0  0  0  0  0
   -2.2666   -1.8385    0.0780 C   0  0  0  0  0  0  0  0  0  0  0  0
   -1.0255   -1.1353   -0.1139 C   0  0  0  0  0  0  0  0  0  0  0  0
   -0.0043   -0.5108   -0.2738 C   0  0  0  0  0  0  0  0  0  0  0  0
    1.2438    0.2184   -0.4582 C   0  0  0  0  0  0  0  0  0  0  0  0
    1.0533    1.6652   -0.3692 N   0  0  0  0  0  0  0  0  0  0  0  0
    1.1167    2.2341    0.9743 C   0  0  0  0  0  0  0  0  0  0  0  0
    2.2382    2.4285    0.0147 C   0  0  0  0  0  0  0  0  0  0  0  0
   -3.1354   -1.1748    0.2649 H   0  0  0  0  0  0  0  0  0  0  0  0
    1.9813   -0.1606    0.2748 H   0  0  0  0  0  0  0  0  0  0  0  0
    1.6489   -0.0134   -1.4518 H   0  0  0  0  0  0  0  0  0  0  0  0
    0.4146    3.0370    1.1761 H   0  0  0  0  0  0  0  0  0  0  0  0
    1.2874    1.5564    1.8091 H   0  0  0  0  0  0  0  0  0  0  0  0
    3.1598    1.8818    0.2093 H   0  0  0  0  0  0  0  0  0  0  0  0
    2.3714    3.3750   -0.5001 H   0  0  0  0  0  0  0  0  0  0  0  0
  1  2  2  0  0  0  0
  2  9  1  0  0  0  0
  3  2  1  0  0  0  0
  4  3  3  0  0  0  0
  5  6  1  0  0  0  0
  5  4  1  0  0  0  0
  5 10  1  0  0  0  0
  6  8  1  0  0  0  0
  6  7  1  0  0  0  0
  7 12  1  0  0  0  0
  7 13  1  0  0  0  0
  8 14  1  0  0  0  0
  8  7  1  0  0  0  0
 11  5  1  0  0  0  0
 15  8  1  0  0  0  0
M  END
