16
title
N -1.4402173 -3.6051824 0.21898937
C -1.4794853 -2.4665995 0.030075872
C -1.5373632 -1.0177612 -0.18368469
N -0.20107159 -0.4420337 -0.2538054
C -0.21919319 1.0057019 -0.43926084
C 1.1943628 1.5262953 -0.45306483
C 1.5485977 2.8192263 0.14074552
O 1.8318175 1.599456 0.8281817
H -2.052514 -0.83173376 -1.1347942
H -2.1774285 -0.58317596 0.6066193
H 0.3113698 -0.6596069 0.59581256
H -0.69928634 1.2264868 -1.4023098
H -0.79205847 1.5373942 0.34197864
H 1.8284417 1.1198052 -1.2409189
H 2.41735 3.360633 -0.22977193
H 0.7719456 3.4381065 0.5881995
