15
title
O -1.268944 -2.1139722 2.7198367
C -1.119366 -1.8509084 1.5584025
C 0.2422802 -1.842429 0.8578664
C 0.37246138 -0.73978746 -0.08244286
C 0.42358834 0.19330677 -0.8447701
C 0.53142506 1.2927502 -1.7612032
C -0.21828263 2.5589964 -1.4957968
N 1.2390357 2.5332644 -1.3556143
H -1.9742702 -1.6007664 0.8933111
H 1.0227972 -1.8333714 1.6258701
H 0.33010834 -2.8016574 0.32454136
H 0.7158477 1.0193208 -2.7969537
H -0.58926 3.1363838 -2.33774
H -0.83531785 2.5945742 -0.60297656
H 1.4876674 2.4608452 -0.37172732
