15
title
O -2.3867428 -3.0418937 0.045044784
C -2.2666214 -1.838481 0.07796777
C -1.0254803 -1.1352831 -0.11394939
C -0.0043123234 -0.5107828 -0.27377006
C 1.2438247 0.21843335 -0.45824343
N 1.0532668 1.665236 -0.36919817
C 1.1167219 2.2341194 0.9742977
C 2.2382321 2.4284563 0.014672366
H -3.135423 -1.174825 0.26491696
H 1.9812694 -0.16058925 0.274775
H 1.648879 -0.013420852 -1.4518323
H 0.41462368 3.0370498 1.1761061
H 1.2873571 1.5563622 1.8090839
H 3.1597538 1.8817759 0.2093343
H 2.3714042 3.3750272 -0.50008565
