title
 OpenBabel02282110003D

 16 16  0  0  1  0  0  0  0  0999 V2000
   -1.5307   -3.4813    0.4050 N   0  0  0  0  0  0  0  0  0  0  0  0
   -1.5058   -2.3608    0.1285 C   0  0  0  0  0  0  0  0  0  0  0  0
   -1.5194   -0.9392   -0.2283 C   0  0  0  0  0  0  0  0  0  0  0  0
   -0.2140   -0.4273   -0.1492 O   0  0  0  0  0  0  0  0  0  0  0  0
   -0.1525    0.9519   -0.4876 C   0  0  0  0  0  0  0  0  0  0  0  0
    1.2834    1.3905   -0.4539 C   0  0  1  0  0  0  0  0  0  0  0  0
    1.6050    2.7797   -0.0384 C   0  0  0  0  0  0  0  0  0  0  0  0
    1.9538    1.6446    0.8269 N   0  0  0  0  0  0  0  0  0  0  0  0
   -1.9362   -0.8363   -1.2441 H   0  0  0  0  0  0  0  0  0  0  0  0
   -2.2062   -0.4138    0.4564 H   0  0  0  0  0  0  0  0  0  0  0  0
   -0.5797    1.1124   -1.4918 H   0  0  0  0  0  0  0  0  0  0  0  0
   -0.7512    1.5449    0.2255 H   0  0  0  0  0  0  0  0  0  0  0  0
    1.9178    0.8999   -1.1884 H   0  0  0  0  0  0  0  0  0  0  0  0
    2.4496    3.2949   -0.4857 H   0  0  0  0  0  0  0  0  0  0  0  0
    0.7819    3.4296    0.2499 H   0  0  0  0  0  0  0  0  0  0  0  0
    1.2888    1.5612    1.5925 H   0  0  0  0  0  0  0  0  0  0  0  0
  2  1  3  0  0  0  0
  3  4  1  0  0  0  0
  3  2  1  0  0  0  0
  3 10  1  0  0  0  0
  5  6  1  0  0  0  0
  5  4  1  0  0  0  0
  5 12  1  0  0  0  0
  6 13  1  6  0  0  0
  6  7  1  0  0  0  0
  6  8  1  0  0  0  0
  7 15  1  0  0  0  0
  7  8  1  0  0  0  0
  8 16  1  0  0  0  0
  9  3  1  0  0  0  0
 11  5  1  0  0  0  0
 14  7  1  0  0  0  0
M  END
