17
title
O -1.8210605 -2.951353 1.6560822
C -1.5457555 -2.0319772 0.9327938
C -0.4097026 -1.060061 1.2044849
O -0.3542816 -0.14264578 0.14436652
C 0.6570217 0.8370407 0.293875
C 0.5813202 1.7941772 -0.8623898
C 1.8281568 2.416523 -1.373699
N 1.1137642 1.4134842 -2.1773412
H -2.1046839 -1.811913 -0.0030323055
H -0.5934699 -0.5645396 2.1736765
H 0.5281858 -1.6317204 1.3114942
H 0.5233275 1.3766075 1.2470288
H 1.6517318 0.3582154 0.32654306
H -0.34735268 2.3578424 -0.91627645
H 1.8055369 3.4266238 -1.7716014
H 2.7673652 2.1400914 -0.90008044
H 1.5809611 0.5117622 -2.1128752
