19
title
O -2.3769774 -2.3028367 1.9271032
C -1.7581055 -2.1505494 0.9059958
C -0.38167918 -1.5343033 0.80607176
C -0.36424708 -0.33539158 -0.15690424
C 1.042123 0.22921129 -0.3621668
N 1.0200497 1.3337586 -1.3127311
C 0.80892575 2.665066 -0.7507061
C 2.1476629 2.2565434 -1.2576689
H -2.1878986 -2.4640334 -0.075288795
H -0.051052567 -1.25541 1.8110297
H 0.2994939 -2.310603 0.42640516
H -0.7691515 -0.6278203 -1.1329035
H -1.0193651 0.45487088 0.22931544
H 1.4697238 0.5294511 0.61323726
H 1.6970447 -0.5515993 -0.76958776
H 0.17591953 3.3307698 -1.3300148
H 0.69380987 2.7507298 0.32921407
H 2.9231522 2.0722 -0.51546836
H 2.5112107 2.616854 -2.2156894
