16
title
O -2.8870344 0.83081156 -0.5508904
C -2.260107 1.5605679 0.18002275
N -0.9259231 1.4164177 0.4796658
C -0.11724994 0.40586644 -0.02740913
N 1.1021525 0.3441132 0.3064087
C 1.9232527 -0.7045046 -0.22352877
C 2.173014 -1.9474633 0.5876332
C 1.4166046 -2.0383081 -0.72171354
H -2.6996775 2.4358633 0.6942973
H -0.48122272 2.0736506 1.1053288
H -0.646973 -0.26673326 -0.7036461
H 2.7968915 -0.30272838 -0.73035926
H 3.1833475 -2.3370707 0.64360106
H 1.5942925 -2.0598536 1.4981452
H 0.35608593 -2.2550032 -0.66468984
H 1.9097091 -2.482418 -1.5794319
