14
title
O -1.2308884 -3.120728 1.9655893
C -0.6000602 -2.4533687 1.1931896
C 0.14734225 -1.1772211 1.5939
C 0.079988174 -0.147753 0.5689834
C 0.00019978508 0.67436886 -0.30786628
C -0.11530764 1.6547663 -1.3530401
C 0.6963857 2.8887675 -1.3534199
O 1.0070997 1.8196199 -2.2358737
H -0.49830747 -2.7246583 0.12044137
H -0.24814554 -0.835927 2.5561976
H 1.1960356 -1.465978 1.7638657
H -1.0790265 1.6859071 -1.8601719
H 0.29182607 3.7865646 -1.8189751
H 1.4046049 3.0519826 -0.5435417
