title
 OpenBabel02282110003D

 18 18  0  0  0  0  0  0  0  0999 V2000
   -1.9417   -2.7670    1.8285 O   0  0  0  0  0  0  0  0  0  0  0  0
   -1.6414   -1.8880    1.0655 C   0  0  0  0  0  0  0  0  0  0  0  0
   -0.2302   -1.3465    0.9158 C   0  0  0  0  0  0  0  0  0  0  0  0
   -0.2522   -0.3227   -0.0412 O   0  0  0  0  0  0  0  0  0  0  0  0
    1.0204    0.2548   -0.2807 C   0  0  0  0  0  0  0  0  0  0  0  0
    0.8945    1.2973   -1.3549 C   0  0  0  0  0  0  0  0  0  0  0  0
    0.4387    2.6893   -1.0021 C   0  0  0  0  0  0  0  0  0  0  0  0
    1.8740    2.4440   -1.3920 C   0  0  0  0  0  0  0  0  0  0  0  0
   -2.3795   -1.3925    0.3970 H   0  0  0  0  0  0  0  0  0  0  0  0
    0.1182   -0.9908    1.9011 H   0  0  0  0  0  0  0  0  0  0  0  0
    0.4369   -2.1768    0.6243 H   0  0  0  0  0  0  0  0  0  0  0  0
    1.4109    0.7094    0.6462 H   0  0  0  0  0  0  0  0  0  0  0  0
    1.7349   -0.5306   -0.5809 H   0  0  0  0  0  0  0  0  0  0  0  0
    0.5650    0.9060   -2.3128 H   0  0  0  0  0  0  0  0  0  0  0  0
   -0.2051    3.2096   -1.7019 H   0  0  0  0  0  0  0  0  0  0  0  0
    0.2235    2.8996    0.0403 H   0  0  0  0  0  0  0  0  0  0  0  0
    2.6282    2.4948   -0.6133 H   0  0  0  0  0  0  0  0  0  0  0  0
    2.2159    2.7910   -2.3603 H   0  0  0  0  0  0  0  0  0  0  0  0
  2  1  2  0  0  0  0
  3  2  1  0  0  0  0
  3 10  1  0  0  0  0
  4  3  1  0  0  0  0
  5  4  1  0  0  0  0
  5 12  1  0  0  0  0
  6  7  1  0  0  0  0
  6  5  1  0  0  0  0
  7 16  1  0  0  0  0
  8  6  1  0  0  0  0
  8  7  1  0  0  0  0
  8 17  1  0  0  0  0
  9  2  1  0  0  0  0
 11  3  1  0  0  0  0
 13  5  1  0  0  0  0
 14  6  1  0  0  0  0
 15  7  1  0  0  0  0
 18  8  1  0  0  0  0
M  END
