title
 OpenBabel02282110003D

 14 14  0  0  1  0  0  0  0  0999 V2000
   -1.2309   -3.1207    1.9656 O   0  0  0  0  0  0  0  0  0  0  0  0
   -0.6001   -2.4534    1.1932 C   0  0  0  0  0  0  0  0  0  0  0  0
    0.1473   -1.1772    1.5939 C   0  0  0  0  0  0  0  0  0  0  0  0
    0.0800   -0.1478    0.5690 C   0  0  0  0  0  0  0  0  0  0  0  0
    0.0002    0.6744   -0.3079 C   0  0  0  0  0  0  0  0  0  0  0  0
   -0.1153    1.6548   -1.3530 C   0  0  1  0  0  0  0  0  0  0  0  0
    0.6964    2.8888   -1.3534 C   0  0  0  0  0  0  0  0  0  0  0  0
    1.0071    1.8196   -2.2359 O   0  0  0  0  0  0  0  0  0  0  0  0
   -0.4983   -2.7247    0.1204 H   0  0  0  0  0  0  0  0  0  0  0  0
   -0.2481   -0.8359    2.5562 H   0  0  0  0  0  0  0  0  0  0  0  0
    1.1960   -1.4660    1.7639 H   0  0  0  0  0  0  0  0  0  0  0  0
   -1.0790    1.6859   -1.8602 H   0  0  0  0  0  0  0  0  0  0  0  0
    0.2918    3.7866   -1.8190 H   0  0  0  0  0  0  0  0  0  0  0  0
    1.4046    3.0520   -0.5435 H   0  0  0  0  0  0  0  0  0  0  0  0
  2  3  1  0  0  0  0
  2  1  2  0  0  0  0
  3 11  1  0  0  0  0
  3 10  1  0  0  0  0
  4  3  1  0  0  0  0
  5  4  3  0  0  0  0
  6 12  1  6  0  0  0
  6  5  1  0  0  0  0
  7  6  1  0  0  0  0
  7 14  1  0  0  0  0
  8  7  1  0  0  0  0
  8  6  1  0  0  0  0
  9  2  1  0  0  0  0
 13  7  1  0  0  0  0
M  END
