14
title
C 0.20309705 4.424679 -0.18364999
C 0.21681297 2.9736364 -0.1668033
C 0.22760765 1.7631732 -0.15317671
C 0.23891775 0.4049959 -0.1394401
C 0.24337022 -0.8063388 -0.11830715
C 0.2850447 -2.2395058 -0.12495627
C -0.22973135 -3.0394034 1.0070142
O -0.96754926 -2.9441085 -0.20250851
H 1.2206281 4.8277445 -0.23894762
H -0.3535315 4.8052835 -1.0474546
H -0.26659173 4.8272877 0.7208264
H 1.0728908 -2.6809072 -0.7349406
H 0.22082111 -4.00946 1.2137927
H -0.6587451 -2.5222616 1.8629525
