title
 OpenBabel02282110003D

 18 18  0  0  0  0  0  0  0  0999 V2000
   -2.5564   -1.2261    1.0905 O   0  0  0  0  0  0  0  0  0  0  0  0
   -2.7555   -0.3209    0.3090 C   0  0  0  0  0  0  0  0  0  0  0  0
   -1.8419    0.1686   -0.5721 N   0  0  0  0  0  0  0  0  0  0  0  0
   -0.4790   -0.3314   -0.6520 C   0  0  0  0  0  0  0  0  0  0  0  0
    0.4988    0.4762    0.2104 C   0  0  0  0  0  0  0  0  0  0  0  0
    1.8411   -0.0707    0.0834 N   0  0  0  0  0  0  0  0  0  0  0  0
    2.6823    0.4992   -0.9656 C   0  0  0  0  0  0  0  0  0  0  0  0
    2.9397    0.8052    0.4684 C   0  0  0  0  0  0  0  0  0  0  0  0
   -3.7285    0.2041    0.2245 H   0  0  0  0  0  0  0  0  0  0  0  0
   -2.1097    0.9548   -1.1419 H   0  0  0  0  0  0  0  0  0  0  0  0
   -0.4872   -1.3685   -0.3117 H   0  0  0  0  0  0  0  0  0  0  0  0
   -0.1560   -0.3189   -1.6985 H   0  0  0  0  0  0  0  0  0  0  0  0
    0.4509    1.5455   -0.0727 H   0  0  0  0  0  0  0  0  0  0  0  0
    0.1898    0.4008    1.2585 H   0  0  0  0  0  0  0  0  0  0  0  0
    3.3116   -0.2028   -1.5046 H   0  0  0  0  0  0  0  0  0  0  0  0
    2.2670    1.3014   -1.5753 H   0  0  0  0  0  0  0  0  0  0  0  0
    2.6954    1.8094    0.8121 H   0  0  0  0  0  0  0  0  0  0  0  0
    3.7604    0.3299    0.9979 H   0  0  0  0  0  0  0  0  0  0  0  0
  2  1  2  0  0  0  0
  3  2  1  0  0  0  0
  4  3  1  0  0  0  0
  4 11  1  0  0  0  0
  4  5  1  0  0  0  0
  5 14  1  0  0  0  0
  6  5  1  0  0  0  0
  6  8  1  0  0  0  0
  7  6  1  0  0  0  0
  7  8  1  0  0  0  0
  8 17  1  0  0  0  0
  8 18  1  0  0  0  0
  9  2  1  0  0  0  0
 10  3  1  0  0  0  0
 12  4  1  0  0  0  0
 13  5  1  0  0  0  0
 15  7  1  0  0  0  0
 16  7  1  0  0  0  0
M  END
