18
title
O -1.3290812 -3.3789532 0.17550282
C -1.2230176 -2.1991467 0.32635292
O -0.94953245 -1.3543204 -0.68295217
C -0.80158764 0.039683666 -0.37836275
C 0.6594114 0.46476945 -0.49811855
C 0.8353717 1.9517752 -0.27744508
C 0.95282024 2.510354 1.1216979
C 2.1513069 2.5035906 0.20575841
H -1.3439244 -1.6797988 1.2984351
H -1.426808 0.579969 -1.0960486
H -1.1871718 0.24886832 0.62769884
H 1.2549131 -0.09438864 0.23454167
H 1.0287018 0.17526206 -1.4890698
H 0.29821965 2.5752606 -0.9885708
H 0.47717664 3.4589214 1.3441621
H 0.9489412 1.8085939 1.9499168
H 2.947828 1.798297 0.41908765
H 2.4937522 3.447814 -0.20234573
