title
 OpenBabel02282110003D

 17 17  0  0  0  0  0  0  0  0999 V2000
   -1.5560   -2.5203   -0.1227 O   0  0  0  0  0  0  0  0  0  0  0  0
   -1.3988   -1.3369   -0.1174 C   0  0  0  0  0  0  0  0  0  0  0  0
   -1.2357   -0.6342    1.0232 O   0  0  0  0  0  0  0  0  0  0  0  0
   -0.9418    0.7589    0.9052 C   0  0  0  0  0  0  0  0  0  0  0  0
    0.5622    1.0015    0.8506 C   0  0  0  0  0  0  0  0  0  0  0  0
    1.1112    0.4965   -0.3985 N   0  0  0  0  0  0  0  0  0  0  0  0
    1.2709    1.4572   -1.4879 C   0  0  0  0  0  0  0  0  0  0  0  0
    2.4546    0.9331   -0.7513 C   0  0  0  0  0  0  0  0  0  0  0  0
   -1.3948   -0.6984   -1.0192 H   0  0  0  0  0  0  0  0  0  0  0  0
   -1.4306    1.1774    0.0155 H   0  0  0  0  0  0  0  0  0  0  0  0
   -1.3739    1.2342    1.7892 H   0  0  0  0  0  0  0  0  0  0  0  0
    0.7549    2.0800    0.9982 H   0  0  0  0  0  0  0  0  0  0  0  0
    1.0342    0.4630    1.6797 H   0  0  0  0  0  0  0  0  0  0  0  0
    1.0333    1.0915   -2.4825 H   0  0  0  0  0  0  0  0  0  0  0  0
    0.9887    2.4928   -1.3017 H   0  0  0  0  0  0  0  0  0  0  0  0
    2.9610    1.6202   -0.0750 H   0  0  0  0  0  0  0  0  0  0  0  0
    3.0950    0.1785   -1.1982 H   0  0  0  0  0  0  0  0  0  0  0  0
  1  2  2  0  0  0  0
  2  3  1  0  0  0  0
  4  3  1  0  0  0  0
  4 11  1  0  0  0  0
  5  4  1  0  0  0  0
  5 12  1  0  0  0  0
  5 13  1  0  0  0  0
  6  5  1  0  0  0  0
  7 15  1  0  0  0  0
  7  8  1  0  0  0  0
  7  6  1  0  0  0  0
  8  6  1  0  0  0  0
  8 16  1  0  0  0  0
  9  2  1  0  0  0  0
 10  4  1  0  0  0  0
 14  7  1  0  0  0  0
 17  8  1  0  0  0  0
M  END
