title
 OpenBabel02282110003D

 16 16  0  0  1  0  0  0  0  0999 V2000
   -1.3686   -3.3633   -0.2702 O   0  0  0  0  0  0  0  0  0  0  0  0
   -1.2502   -2.1785   -0.3523 C   0  0  0  0  0  0  0  0  0  0  0  0
   -0.8799   -1.4090    0.6891 O   0  0  0  0  0  0  0  0  0  0  0  0
   -0.7278   -0.0024    0.4688 C   0  0  0  0  0  0  0  0  0  0  0  0
    0.7488    0.3861    0.5149 C   0  0  0  0  0  0  0  0  0  0  0  0
    0.9273    1.8783    0.3778 C   0  0  1  0  0  0  0  0  0  0  0  0
    2.0211    2.4691   -0.4013 C   0  0  0  0  0  0  0  0  0  0  0  0
    0.6930    2.4231   -0.9259 O   0  0  0  0  0  0  0  0  0  0  0  0
   -1.4345   -1.5916   -1.2740 H   0  0  0  0  0  0  0  0  0  0  0  0
   -1.1663    0.2836   -0.4949 H   0  0  0  0  0  0  0  0  0  0  0  0
   -1.2915    0.5006    1.2609 H   0  0  0  0  0  0  0  0  0  0  0  0
    1.1809    0.0453    1.4629 H   0  0  0  0  0  0  0  0  0  0  0  0
    1.2832   -0.1237   -0.2940 H   0  0  0  0  0  0  0  0  0  0  0  0
    0.5019    2.4786    1.1847 H   0  0  0  0  0  0  0  0  0  0  0  0
    2.3907    3.4618   -0.1494 H   0  0  0  0  0  0  0  0  0  0  0  0
    2.7410    1.8161   -0.8928 H   0  0  0  0  0  0  0  0  0  0  0  0
  2  1  2  0  0  0  0
  2  3  1  0  0  0  0
  4  5  1  0  0  0  0
  4  3  1  0  0  0  0
  4 11  1  0  0  0  0
  5 12  1  0  0  0  0
  6  5  1  0  0  0  0
  6 14  1  1  0  0  0
  7 15  1  0  0  0  0
  7  6  1  0  0  0  0
  8  7  1  0  0  0  0
  8  6  1  0  0  0  0
  9  2  1  0  0  0  0
 10  4  1  0  0  0  0
 13  5  1  0  0  0  0
 16  7  1  0  0  0  0
M  END
