16
title
C 0.20905147 4.3787913 -0.16417387
C 0.21896954 2.9269032 -0.16484277
C 0.22711326 1.7160176 -0.16513318
C 0.23655866 0.35704404 -0.1653282
C 0.23774716 -0.8555979 -0.16057545
C 0.2531178 -2.2843573 -0.16635337
C -0.19893421 -3.0628603 1.0628946
C -1.0540818 -3.0671551 -0.16700235
H 1.2280078 4.782579 -0.17483509
H -0.3146042 4.775329 -1.041661
H -0.29298064 4.771471 0.7275869
H 1.0673214 -2.7305915 -0.7308419
H 0.36095494 -3.9573262 1.311307
H -0.5324397 -2.482938 1.914878
H -1.9707587 -2.4901507 -0.15377977
H -1.0890797 -3.9646242 -0.77411026
