title
 OpenBabel02282110003D

 14 14  0  0  1  0  0  0  0  0999 V2000
    0.2031    4.4247   -0.1836 C   0  0  0  0  0  0  0  0  0  0  0  0
    0.2168    2.9736   -0.1668 C   0  0  0  0  0  0  0  0  0  0  0  0
    0.2276    1.7632   -0.1532 C   0  0  0  0  0  0  0  0  0  0  0  0
    0.2389    0.4050   -0.1394 C   0  0  0  0  0  0  0  0  0  0  0  0
    0.2434   -0.8063   -0.1183 C   0  0  0  0  0  0  0  0  0  0  0  0
    0.2850   -2.2395   -0.1250 C   0  0  1  0  0  0  0  0  0  0  0  0
   -0.2297   -3.0394    1.0070 C   0  0  0  0  0  0  0  0  0  0  0  0
   -0.9675   -2.9441   -0.2025 O   0  0  0  0  0  0  0  0  0  0  0  0
    1.2206    4.8277   -0.2389 H   0  0  0  0  0  0  0  0  0  0  0  0
   -0.3535    4.8053   -1.0475 H   0  0  0  0  0  0  0  0  0  0  0  0
   -0.2666    4.8273    0.7208 H   0  0  0  0  0  0  0  0  0  0  0  0
    1.0729   -2.6809   -0.7349 H   0  0  0  0  0  0  0  0  0  0  0  0
    0.2208   -4.0095    1.2138 H   0  0  0  0  0  0  0  0  0  0  0  0
   -0.6587   -2.5223    1.8630 H   0  0  0  0  0  0  0  0  0  0  0  0
  1  2  1  0  0  0  0
  1 11  1  0  0  0  0
  2  3  3  0  0  0  0
  3  4  1  0  0  0  0
  4  5  3  0  0  0  0
  6 12  1  6  0  0  0
  6  5  1  0  0  0  0
  6  7  1  0  0  0  0
  7 13  1  0  0  0  0
  7 14  1  0  0  0  0
  8  6  1  0  0  0  0
  8  7  1  0  0  0  0
  9  1  1  0  0  0  0
 10  1  1  0  0  0  0
M  END
