title
 OpenBabel02282110003D

 18 18  0  0  1  0  0  0  0  0999 V2000
    0.9914    4.1618    0.1483 C   0  0  0  0  0  0  0  0  0  0  0  0
    0.9402    2.7089    0.0642 C   0  0  0  0  0  0  0  0  0  0  0  0
    0.9097    1.5076   -0.0120 C   0  0  0  0  0  0  0  0  0  0  0  0
    0.8420    0.0531   -0.0905 C   0  0  0  0  0  0  0  0  0  0  0  0
   -0.4796   -0.5216    0.4645 C   0  0  0  0  0  0  0  0  0  0  0  0
   -0.5097   -2.0271    0.3860 C   0  0  1  0  0  0  0  0  0  0  0  0
   -1.7270   -2.7753    0.0515 C   0  0  0  0  0  0  0  0  0  0  0  0
   -0.6927   -2.5933   -0.9169 O   0  0  0  0  0  0  0  0  0  0  0  0
    1.8681    4.4987    0.7128 H   0  0  0  0  0  0  0  0  0  0  0  0
    1.0444    4.6179   -0.8467 H   0  0  0  0  0  0  0  0  0  0  0  0
    0.1032    4.5642    0.6482 H   0  0  0  0  0  0  0  0  0  0  0  0
    0.9531   -0.2742   -1.1317 H   0  0  0  0  0  0  0  0  0  0  0  0
    1.6864   -0.3868    0.4578 H   0  0  0  0  0  0  0  0  0  0  0  0
   -0.6052   -0.2085    1.5078 H   0  0  0  0  0  0  0  0  0  0  0  0
   -1.3207   -0.1096   -0.1021 H   0  0  0  0  0  0  0  0  0  0  0  0
    0.2496   -2.5417    0.9796 H   0  0  0  0  0  0  0  0  0  0  0  0
   -1.8565   -3.7944    0.4134 H   0  0  0  0  0  0  0  0  0  0  0  0
   -2.6511   -2.2324   -0.1442 H   0  0  0  0  0  0  0  0  0  0  0  0
  1 11  1  0  0  0  0
  1  9  1  0  0  0  0
  2  1  1  0  0  0  0
  3  2  3  0  0  0  0
  4  3  1  0  0  0  0
  4 13  1  0  0  0  0
  4  5  1  0  0  0  0
  5 14  1  0  0  0  0
  6  5  1  0  0  0  0
  6 16  1  1  0  0  0
  7  6  1  0  0  0  0
  7 17  1  0  0  0  0
  8  7  1  0  0  0  0
  8  6  1  0  0  0  0
 10  1  1  0  0  0  0
 12  4  1  0  0  0  0
 15  5  1  0  0  0  0
 18  7  1  0  0  0  0
M  END
