20
title
C 0.9793484 4.13774 -0.16716915
C 0.9518113 2.6847885 -0.0721565
C 0.940255 1.4833214 0.010302798
C 0.88842714 0.02806546 0.09692705
C -0.45049918 -0.56322503 -0.39642093
C -0.4861542 -2.0726082 -0.301737
C -0.85886264 -2.7475169 0.9961765
C -1.7988104 -2.8026612 -0.18379205
H 1.7920355 4.480892 -0.8173263
H 0.041847114 4.528829 -0.57836604
H 1.1258433 4.6003957 0.8153847
H 1.7100754 -0.40649888 -0.48872018
H 1.0590874 -0.2910485 1.1334246
H -1.2679025 -0.13576196 0.19645707
H -0.6199584 -0.24364136 -1.4316868
H 0.28032696 -2.57494 -0.8881803
H -0.33562195 -3.65321 1.2822452
H -1.1371697 -2.1142194 1.8328065
H -2.7051897 -2.2076452 -0.13649632
H -1.9155997 -3.74553 -0.7066173
