18
title
C 0.9913754 4.1618485 0.14825518
C 0.94023085 2.7089334 0.064153016
C 0.9097489 1.507562 -0.012024111
C 0.8419667 0.05312711 -0.090541296
C -0.47956797 -0.5215642 0.46454164
C -0.5097159 -2.027101 0.38601947
C -1.7269692 -2.7752895 0.051507115
O -0.6926955 -2.5933313 -0.91686964
H 1.8680549 4.4987054 0.71280575
H 1.0443894 4.6178555 -0.8466966
H 0.10315952 4.5642214 0.6481927
H 0.95308626 -0.27416152 -1.1317462
H 1.6863807 -0.38675898 0.45777282
H -0.6051816 -0.20852417 1.5078194
H -1.3206897 -0.10955185 -0.10206591
H 0.24962011 -2.5416718 0.97964096
H -1.8565361 -3.7944388 0.41342553
H -2.6510825 -2.232419 -0.14417358
