title
 OpenBabel02282110003D

 18 18  0  0  0  0  0  0  0  0999 V2000
    1.0082    4.0274   -0.0825 C   0  0  0  0  0  0  0  0  0  0  0  0
    0.9306    2.5825    0.0716 C   0  0  0  0  0  0  0  0  0  0  0  0
    0.8603    1.3876    0.1933 C   0  0  0  0  0  0  0  0  0  0  0  0
    0.7962   -0.0569    0.3608 C   0  0  0  0  0  0  0  0  0  0  0  0
   -0.2422   -0.5968   -0.4493 O   0  0  0  0  0  0  0  0  0  0  0  0
   -0.3550   -1.9788   -0.3134 C   0  0  0  0  0  0  0  0  0  0  0  0
   -1.1558   -2.5432    0.8345 C   0  0  0  0  0  0  0  0  0  0  0  0
   -1.7029   -2.5603   -0.5806 C   0  0  0  0  0  0  0  0  0  0  0  0
    2.0007    4.3405   -0.4248 H   0  0  0  0  0  0  0  0  0  0  0  0
    0.2778    4.3812   -0.8184 H   0  0  0  0  0  0  0  0  0  0  0  0
    0.8027    4.5429    0.8621 H   0  0  0  0  0  0  0  0  0  0  0  0
    1.7632   -0.5111    0.0854 H   0  0  0  0  0  0  0  0  0  0  0  0
    0.6197   -0.3103    1.4185 H   0  0  0  0  0  0  0  0  0  0  0  0
    0.5248   -2.5358   -0.6406 H   0  0  0  0  0  0  0  0  0  0  0  0
   -0.8391   -3.4764    1.2872 H   0  0  0  0  0  0  0  0  0  0  0  0
   -1.5977   -1.8286    1.5200 H   0  0  0  0  0  0  0  0  0  0  0  0
   -2.4920   -1.8543   -0.8120 H   0  0  0  0  0  0  0  0  0  0  0  0
   -1.7635   -3.5042   -1.1101 H   0  0  0  0  0  0  0  0  0  0  0  0
  1  2  1  0  0  0  0
  1 11  1  0  0  0  0
  2  3  3  0  0  0  0
  3  4  1  0  0  0  0
  4 13  1  0  0  0  0
  5  6  1  0  0  0  0
  5  4  1  0  0  0  0
  6  7  1  0  0  0  0
  7 15  1  0  0  0  0
  7 16  1  0  0  0  0
  8  6  1  0  0  0  0
  8  7  1  0  0  0  0
  9  1  1  0  0  0  0
 10  1  1  0  0  0  0
 12  4  1  0  0  0  0
 14  6  1  0  0  0  0
 17  8  1  0  0  0  0
 18  8  1  0  0  0  0
M  END
