18
title
C -0.95446205 3.5406659 1.36256
N -0.44862437 2.1861472 1.4286646
C -0.46805316 1.5090201 0.37041226
O -0.050807465 0.22613601 0.3635352
C 0.07062502 -0.40187857 -0.9135887
C -0.02429943 -1.8898644 -0.7312414
C 0.753804 -2.7768335 -1.6332533
N 1.1194797 -2.6515913 -0.21568437
H -0.17615645 4.239824 1.6889498
H -1.2945669 3.8454182 0.35876986
H -1.7942792 3.6545444 2.0576332
H -0.82751215 1.8759414 -0.60540634
H -0.7249391 -0.047794063 -1.5845859
H 1.0379517 -0.13503332 -1.3645506
H -0.9837076 -2.2341099 -0.35175392
H 0.3498029 -3.7425995 -1.9216208
H 1.3876212 -2.3114944 -2.3848367
H 1.9262519 -2.0411096 -0.10696431
