18
title
C -1.0441701 2.8172557 2.4526644
C -1.549923 1.397138 2.139315
C -1.0120945 0.86185306 0.892637
C -0.5494562 0.44885325 -0.13971414
C 0.0044621187 -0.09136754 -1.3777357
C 0.47916102 -1.5276985 -1.2351426
C 1.5703905 -2.060204 -2.0579927
O 1.7785408 -1.7233171 -0.68438756
H 0.045566913 2.830192 2.5397637
H -1.3270149 3.5141792 1.6590211
H -1.4705508 3.175275 3.3945746
H -1.286027 0.7250212 2.9659932
H -2.6467216 1.4010074 2.0938187
H -0.7517986 -0.0516606 -2.1742356
H 0.8501737 0.5199317 -1.715948
H -0.2731881 -2.2226028 -0.8606311
H 1.6059306 -3.1229336 -2.2932289
H 2.066926 -1.4101906 -2.7780454
