18
title
C -0.9430622 2.6929355 1.5974095
O -1.5882654 1.6838773 0.830324
C -0.7933534 0.6735803 0.41837534
N -1.2787293 -0.2589361 -0.2741709
C -0.42932525 -1.3528135 -0.7188202
C 0.99304515 -1.4042904 -0.20239188
C 2.0813978 -1.9440033 -1.0510849
N 2.0261977 -0.5016534 -0.7496408
H -0.5154959 2.2853546 2.5217345
H -0.1514242 3.190991 1.0243819
H -1.711765 3.4233575 1.8526255
H 0.25354847 0.7666054 0.7346125
H -0.93864197 -2.2890053 -0.4514934
H -0.41117278 -1.3352911 -1.818802
H 1.0828551 -1.5401945 0.87453645
H 2.914008 -2.4747436 -0.5986837
H 1.8271452 -2.2752352 -2.055123
H 1.6454328 -0.0067991703 -1.5541819
