17
title
C -0.929746 2.7542553 -1.4568702
O -0.06974145 1.6729467 -1.7949916
C 0.023895303 0.69673663 -0.868511
N 0.7837144 -0.28621095 -1.0758615
C 0.8920244 -1.3338557 -0.07236987
C -0.239653 -1.4606713 0.922144
C -0.01691552 -1.8897959 2.3078415
O -0.27068982 -0.51759154 2.0043793
H -0.57556194 3.286924 -0.5660518
H -0.9164116 3.4352036 -2.3087351
H -1.9585972 2.4135404 -1.2870497
H -0.59661585 0.8595555 0.02140385
H 0.9849473 -2.2904348 -0.6041483
H 1.8346947 -1.197215 0.47443205
H -1.2216263 -1.6544174 0.48576385
H -0.8100334 -2.4041512 2.8484628
H 0.99411047 -2.1137218 2.6458685
