title
 OpenBabel02282110003D

 19 19  0  0  0  0  0  0  0  0999 V2000
   -0.9032    2.4758    1.9950 C   0  0  0  0  0  0  0  0  0  0  0  0
   -1.4584    1.8147    0.8670 O   0  0  0  0  0  0  0  0  0  0  0  0
   -0.6612    0.8873    0.2891 C   0  0  0  0  0  0  0  0  0  0  0  0
   -1.0650    0.2566   -0.7199 N   0  0  0  0  0  0  0  0  0  0  0  0
   -0.2162   -0.7443   -1.3476 C   0  0  0  0  0  0  0  0  0  0  0  0
    1.1877   -0.9527   -0.8133 C   0  0  0  0  0  0  0  0  0  0  0  0
    1.4301   -1.8526    0.3762 C   0  0  0  0  0  0  0  0  0  0  0  0
    1.8547   -2.2912   -1.0023 C   0  0  0  0  0  0  0  0  0  0  0  0
   -0.6665    1.7707    2.8018 H   0  0  0  0  0  0  0  0  0  0  0  0
    0.0030    3.0355    1.7307 H   0  0  0  0  0  0  0  0  0  0  0  0
   -1.6622    3.1757    2.3470 H   0  0  0  0  0  0  0  0  0  0  0  0
    0.3110    0.7626    0.7823 H   0  0  0  0  0  0  0  0  0  0  0  0
   -0.7567   -1.7009   -1.3058 H   0  0  0  0  0  0  0  0  0  0  0  0
   -0.1622   -0.4923   -2.4157 H   0  0  0  0  0  0  0  0  0  0  0  0
    1.8400   -0.0866   -0.8976 H   0  0  0  0  0  0  0  0  0  0  0  0
    2.2003   -1.5785    1.0892 H   0  0  0  0  0  0  0  0  0  0  0  0
    0.5688   -2.3421    0.8195 H   0  0  0  0  0  0  0  0  0  0  0  0
    1.2822   -3.0778   -1.4835 H   0  0  0  0  0  0  0  0  0  0  0  0
    2.9138   -2.3101   -1.2333 H   0  0  0  0  0  0  0  0  0  0  0  0
  1 11  1  0  0  0  0
  1  9  1  0  0  0  0
  2  1  1  0  0  0  0
  3 12  1  0  0  0  0
  3  2  1  0  0  0  0
  4  3  2  0  0  0  0
  5 13  1  0  0  0  0
  5  6  1  0  0  0  0
  5  4  1  0  0  0  0
  6  7  1  0  0  0  0
  7 17  1  0  0  0  0
  7 16  1  0  0  0  0
  8  6  1  0  0  0  0
  8  7  1  0  0  0  0
 10  1  1  0  0  0  0
 14  5  1  0  0  0  0
 15  6  1  0  0  0  0
 18  8  1  0  0  0  0
 19  8  1  0  0  0  0
M  END
