17
title
O 2.0384495 2.3857124 1.0775152
C 2.3191419 1.3239945 0.17607601
C 1.121709 0.67784333 -0.3607303
C 0.11412504 0.20183893 -0.8231367
C -1.1139803 -0.40854722 -1.3429487
N -1.8416121 -1.3264629 -0.45783833
C -1.0765545 -2.1992958 0.42530844
C -1.8541572 -1.0534908 0.9752276
H 1.4275823 2.9845035 0.63541317
H 2.9503446 1.6633705 -0.6610636
H 2.91522 0.6020265 0.7450956
H -1.814709 0.38492346 -1.6314102
H -0.87933105 -0.96127933 -2.2611341
H -1.4496095 -3.2160628 0.50823915
H 0.0064881183 -2.0990934 0.43569723
H -1.2761266 -0.20836286 1.3423055
H -2.8081453 -1.2148343 1.4688731
