title
 OpenBabel02282110003D

 19 19  0  0  0  0  0  0  0  0999 V2000
   -1.8495    2.5905    1.5157 C   0  0  0  0  0  0  0  0  0  0  0  0
   -1.3880    1.1980    1.9826 C   0  0  0  0  0  0  0  0  0  0  0  0
   -0.3101    0.6451    1.1678 C   0  0  0  0  0  0  0  0  0  0  0  0
    0.5950    0.2204    0.4931 C   0  0  0  0  0  0  0  0  0  0  0  0
    1.6703   -0.3206   -0.3455 C   0  0  0  0  0  0  0  0  0  0  0  0
    1.2873   -1.2424   -1.4246 N   0  0  0  0  0  0  0  0  0  0  0  0
    0.1869   -2.1699   -1.1908 C   0  0  0  0  0  0  0  0  0  0  0  0
    0.0257   -1.0159   -2.1196 C   0  0  0  0  0  0  0  0  0  0  0  0
   -1.0228    3.3051    1.5503 H   0  0  0  0  0  0  0  0  0  0  0  0
   -2.2189    2.5528    0.4872 H   0  0  0  0  0  0  0  0  0  0  0  0
   -2.6539    2.9616    2.1578 H   0  0  0  0  0  0  0  0  0  0  0  0
   -1.0588    1.2517    3.0284 H   0  0  0  0  0  0  0  0  0  0  0  0
   -2.2406    0.5069    1.9735 H   0  0  0  0  0  0  0  0  0  0  0  0
    2.2177    0.5078   -0.8123 H   0  0  0  0  0  0  0  0  0  0  0  0
    2.3931   -0.8511    0.2868 H   0  0  0  0  0  0  0  0  0  0  0  0
    0.3383   -3.1753   -1.5735 H   0  0  0  0  0  0  0  0  0  0  0  0
   -0.3444   -2.1075   -0.2437 H   0  0  0  0  0  0  0  0  0  0  0  0
   -0.6095   -0.2029   -1.7751 H   0  0  0  0  0  0  0  0  0  0  0  0
    0.0565   -1.1590   -3.1961 H   0  0  0  0  0  0  0  0  0  0  0  0
  1  9  1  0  0  0  0
  1  2  1  0  0  0  0
  1 11  1  0  0  0  0
  2 12  1  0  0  0  0
  3  2  1  0  0  0  0
  4  3  3  0  0  0  0
  5 15  1  0  0  0  0
  5  4  1  0  0  0  0
  6  7  1  0  0  0  0
  6  5  1  0  0  0  0
  7 17  1  0  0  0  0
  8 18  1  0  0  0  0
  8  6  1  0  0  0  0
  8  7  1  0  0  0  0
 10  1  1  0  0  0  0
 13  2  1  0  0  0  0
 14  5  1  0  0  0  0
 16  7  1  0  0  0  0
 19  8  1  0  0  0  0
M  END
