title
 OpenBabel02282110003D

 19 19  0  0  0  0  0  0  0  0999 V2000
   -1.6997    1.4531    2.3171 C   0  0  0  0  0  0  0  0  0  0  0  0
   -2.3073    1.4055    0.9110 C   0  0  0  0  0  0  0  0  0  0  0  0
   -1.5219    0.8496   -0.1779 N   0  0  0  0  0  0  0  0  0  0  0  0
   -0.3674    0.4012    0.0273 C   0  0  0  0  0  0  0  0  0  0  0  0
    0.3455   -0.1156   -1.0067 O   0  0  0  0  0  0  0  0  0  0  0  0
    1.6458   -0.5442   -0.6878 C   0  0  0  0  0  0  0  0  0  0  0  0
    1.8368   -1.9046   -0.0712 C   0  0  0  0  0  0  0  0  0  0  0  0
    2.1822   -1.6565   -1.5254 C   0  0  0  0  0  0  0  0  0  0  0  0
   -1.4594    0.4528    2.6935 H   0  0  0  0  0  0  0  0  0  0  0  0
   -0.7859    2.0563    2.3466 H   0  0  0  0  0  0  0  0  0  0  0  0
   -2.4165    1.9038    3.0101 H   0  0  0  0  0  0  0  0  0  0  0  0
   -3.2495    0.8419    0.9443 H   0  0  0  0  0  0  0  0  0  0  0  0
   -2.5947    2.4215    0.6087 H   0  0  0  0  0  0  0  0  0  0  0  0
    0.1653    0.3698    0.9850 H   0  0  0  0  0  0  0  0  0  0  0  0
    2.3159    0.2618   -0.3967 H   0  0  0  0  0  0  0  0  0  0  0  0
    2.6399   -2.0389    0.6449 H   0  0  0  0  0  0  0  0  0  0  0  0
    0.9413   -2.4809    0.1318 H   0  0  0  0  0  0  0  0  0  0  0  0
    1.5077   -2.0624   -2.2701 H   0  0  0  0  0  0  0  0  0  0  0  0
    3.2243   -1.6220   -1.8208 H   0  0  0  0  0  0  0  0  0  0  0  0
  1 10  1  0  0  0  0
  1  9  1  0  0  0  0
  1 11  1  0  0  0  0
  2 12  1  0  0  0  0
  2  1  1  0  0  0  0
  3  4  2  0  0  0  0
  3  2  1  0  0  0  0
  4 14  1  0  0  0  0
  5  6  1  0  0  0  0
  5  4  1  0  0  0  0
  6 15  1  0  0  0  0
  6  7  1  0  0  0  0
  7 17  1  0  0  0  0
  7 16  1  0  0  0  0
  8  6  1  0  0  0  0
  8  7  1  0  0  0  0
 13  2  1  0  0  0  0
 18  8  1  0  0  0  0
 19  8  1  0  0  0  0
M  END
