19
title
C -1.8494848 2.590525 1.5156546
C -1.3879995 1.1979923 1.9826295
C -0.31006452 0.645093 1.1678389
C 0.5950095 0.22042908 0.49310976
C 1.6703092 -0.32062253 -0.34551924
N 1.2872893 -1.2424464 -1.4245508
C 0.18690865 -2.169923 -1.1908317
C 0.025738753 -1.0158651 -2.1196456
H -1.0227517 3.3050787 1.5503354
H -2.218867 2.5528047 0.48720092
H -2.653862 2.961629 2.157755
H -1.0588235 1.2516688 3.0284052
H -2.2405622 0.5068928 1.9735155
H 2.2176943 0.5077736 -0.81230515
H 2.3931196 -0.85106707 0.2868293
H 0.3383129 -3.1753192 -1.5735402
H -0.34443143 -2.10749 -0.24374504
H -0.6094756 -0.20291756 -1.7751031
H 0.056488313 -1.1589952 -3.196104
