title
 OpenBabel02282110003D

 17 17  0  0  1  0  0  0  0  0999 V2000
    1.2132    3.7276   -0.0505 O   0  0  0  0  0  0  0  0  0  0  0  0
    1.2273    2.3181    0.0940 C   0  0  0  0  0  0  0  0  0  0  0  0
   -0.0720    1.7940   -0.5289 C   0  0  0  0  0  0  0  0  0  0  0  0
   -0.1932    0.3449   -0.4453 C   0  0  0  0  0  0  0  0  0  0  0  0
   -0.2667   -0.8560   -0.3624 C   0  0  0  0  0  0  0  0  0  0  0  0
   -0.3830   -2.2854   -0.2909 C   0  0  1  0  0  0  0  0  0  0  0  0
   -0.2799   -2.9785    1.0291 C   0  0  0  0  0  0  0  0  0  0  0  0
   -1.5736   -2.9061    0.3445 N   0  0  0  0  0  0  0  0  0  0  0  0
    2.0253    4.0787    0.3256 H   0  0  0  0  0  0  0  0  0  0  0  0
    2.0874    1.8628   -0.4191 H   0  0  0  0  0  0  0  0  0  0  0  0
    1.2733    2.0159    1.1510 H   0  0  0  0  0  0  0  0  0  0  0  0
   -0.9169    2.2779   -0.0235 H   0  0  0  0  0  0  0  0  0  0  0  0
   -0.1111    2.1214   -1.5751 H   0  0  0  0  0  0  0  0  0  0  0  0
   -0.0475   -2.8256   -1.1726 H   0  0  0  0  0  0  0  0  0  0  0  0
    0.1617   -3.9702    1.0728 H   0  0  0  0  0  0  0  0  0  0  0  0
   -0.1095   -2.3586    1.9043 H   0  0  0  0  0  0  0  0  0  0  0  0
   -2.1387   -2.1695    0.7606 H   0  0  0  0  0  0  0  0  0  0  0  0
  1  2  1  0  0  0  0
  1  9  1  0  0  0  0
  2 11  1  0  0  0  0
  3  4  1  0  0  0  0
  3 12  1  0  0  0  0
  3  2  1  0  0  0  0
  4  5  3  0  0  0  0
  5  6  1  0  0  0  0
  6 14  1  6  0  0  0
  6  8  1  0  0  0  0
  6  7  1  0  0  0  0
  7 15  1  0  0  0  0
  7 16  1  0  0  0  0
  8 17  1  0  0  0  0
  8  7  1  0  0  0  0
 10  2  1  0  0  0  0
 13  3  1  0  0  0  0
M  END
