title
 OpenBabel02282110003D

 19 19  0  0  1  0  0  0  0  0999 V2000
   -0.5648    3.9413    1.2644 C   0  0  0  0  0  0  0  0  0  0  0  0
   -0.5557    2.4121    1.2274 C   0  0  0  0  0  0  0  0  0  0  0  0
    0.2120    1.8599    0.0081 C   0  0  0  0  0  0  0  0  0  0  0  0
    0.2308    0.4025   -0.0457 C   0  0  0  0  0  0  0  0  0  0  0  0
    0.2241   -0.8036   -0.0644 C   0  0  0  0  0  0  0  0  0  0  0  0
    0.2512   -2.2393   -0.0906 C   0  0  1  0  0  0  0  0  0  0  0  0
   -0.5767   -2.9866   -1.0848 C   0  0  0  0  0  0  0  0  0  0  0  0
    0.8820   -2.9528   -1.2308 N   0  0  0  0  0  0  0  0  0  0  0  0
    0.4531    4.3441    1.3122 H   0  0  0  0  0  0  0  0  0  0  0  0
   -1.0439    4.3582    0.3715 H   0  0  0  0  0  0  0  0  0  0  0  0
   -1.1102    4.3115    2.1376 H   0  0  0  0  0  0  0  0  0  0  0  0
   -0.0998    2.0149    2.1410 H   0  0  0  0  0  0  0  0  0  0  0  0
   -1.5815    2.0279    1.2027 H   0  0  0  0  0  0  0  0  0  0  0  0
   -0.2395    2.2550   -0.9121 H   0  0  0  0  0  0  0  0  0  0  0  0
    1.2415    2.2434    0.0260 H   0  0  0  0  0  0  0  0  0  0  0  0
    0.4474   -2.7191    0.8651 H   0  0  0  0  0  0  0  0  0  0  0  0
   -0.9882   -3.9543   -0.8115 H   0  0  0  0  0  0  0  0  0  0  0  0
   -1.1892   -2.3996   -1.7625 H   0  0  0  0  0  0  0  0  0  0  0  0
    1.1366   -2.2671   -1.9381 H   0  0  0  0  0  0  0  0  0  0  0  0
  1  9  1  0  0  0  0
  1 11  1  0  0  0  0
  2  1  1  0  0  0  0
  2 12  1  0  0  0  0
  3 15  1  0  0  0  0
  3  2  1  0  0  0  0
  4  3  1  0  0  0  0
  5  4  3  0  0  0  0
  6  5  1  0  0  0  0
  6 16  1  1  0  0  0
  7 17  1  0  0  0  0
  7  6  1  0  0  0  0
  8  7  1  0  0  0  0
  8  6  1  0  0  0  0
 10  1  1  0  0  0  0
 13  2  1  0  0  0  0
 14  3  1  0  0  0  0
 18  7  1  0  0  0  0
 19  8  1  0  0  0  0
M  END
