title
 OpenBabel02282110003D

 17 17  0  0  1  0  0  0  0  0999 V2000
   -0.3732    3.7376   -0.9324 C   0  0  0  0  0  0  0  0  0  0  0  0
   -0.2660    2.3332   -0.9052 O   0  0  0  0  0  0  0  0  0  0  0  0
   -0.4938    1.8093    0.3894 C   0  0  0  0  0  0  0  0  0  0  0  0
   -0.3760    0.3587    0.3774 C   0  0  0  0  0  0  0  0  0  0  0  0
   -0.2840   -0.8430    0.3852 C   0  0  0  0  0  0  0  0  0  0  0  0
   -0.1728   -2.2729    0.4109 C   0  0  1  0  0  0  0  0  0  0  0  0
    0.8263   -2.9517   -0.4702 C   0  0  0  0  0  0  0  0  0  0  0  0
    1.0397   -2.9171    0.9782 N   0  0  0  0  0  0  0  0  0  0  0  0
    0.3634    4.2185   -0.2687 H   0  0  0  0  0  0  0  0  0  0  0  0
   -0.1841    4.0559   -1.9598 H   0  0  0  0  0  0  0  0  0  0  0  0
   -1.3772    4.0784   -0.6326 H   0  0  0  0  0  0  0  0  0  0  0  0
    0.2278    2.2371    1.1081 H   0  0  0  0  0  0  0  0  0  0  0  0
   -1.4978    2.0960    0.7495 H   0  0  0  0  0  0  0  0  0  0  0  0
   -1.0874   -2.8101    0.6478 H   0  0  0  0  0  0  0  0  0  0  0  0
    0.5880   -3.9303   -0.8770 H   0  0  0  0  0  0  0  0  0  0  0  0
    1.4342   -2.3197   -1.1103 H   0  0  0  0  0  0  0  0  0  0  0  0
    1.7156   -2.1913    1.2054 H   0  0  0  0  0  0  0  0  0  0  0  0
  1  2  1  0  0  0  0
  1 11  1  0  0  0  0
  1  9  1  0  0  0  0
  2  3  1  0  0  0  0
  3 13  1  0  0  0  0
  3 12  1  0  0  0  0
  4  5  3  0  0  0  0
  4  3  1  0  0  0  0
  5  6  1  0  0  0  0
  6 14  1  1  0  0  0
  6  8  1  0  0  0  0
  7  6  1  0  0  0  0
  7  8  1  0  0  0  0
  8 17  1  0  0  0  0
 10  1  1  0  0  0  0
 15  7  1  0  0  0  0
 16  7  1  0  0  0  0
M  END
