19
title
C -0.56480235 3.9413066 1.2644398
C -0.5557423 2.4120722 1.2273682
C 0.21202925 1.8598628 0.008143259
C 0.23084942 0.40250158 -0.045706674
C 0.22413453 -0.80357003 -0.06438665
C 0.2512205 -2.239296 -0.09060411
C -0.5766589 -2.986642 -1.0847578
N 0.881975 -2.9528065 -1.2308385
H 0.45309916 4.34412 1.312221
H -1.043902 4.3582196 0.371477
H -1.1101935 4.3114653 2.1376312
H -0.09976596 2.014925 2.1410472
H -1.5815299 2.0279405 1.2026861
H -0.23952433 2.2550197 -0.9121302
H 1.241455 2.243448 0.026010586
H 0.44737342 -2.7191377 0.8651187
H -0.988217 -3.9543037 -0.81153923
H -1.1892244 -2.3995967 -1.7624826
H 1.1366019 -2.267138 -1.9380512
