title
 OpenBabel02282110003D

 18 18  0  0  0  0  0  0  0  0999 V2000
   -0.6408    3.7466    0.7501 C   0  0  0  0  0  0  0  0  0  0  0  0
   -0.6717    2.3405    0.6922 O   0  0  0  0  0  0  0  0  0  0  0  0
    0.5258    1.8056    0.1563 C   0  0  0  0  0  0  0  0  0  0  0  0
    0.4631    0.3529    0.1137 C   0  0  0  0  0  0  0  0  0  0  0  0
    0.4374   -0.8512    0.0667 C   0  0  0  0  0  0  0  0  0  0  0  0
    0.4032   -2.2826    0.0185 C   0  0  0  0  0  0  0  0  0  0  0  0
   -0.7993   -2.9957   -0.5828 C   0  0  0  0  0  0  0  0  0  0  0  0
    0.5067   -3.0057   -1.3169 C   0  0  0  0  0  0  0  0  0  0  0  0
    0.1786    4.1140    1.3892 H   0  0  0  0  0  0  0  0  0  0  0  0
   -0.5218    4.1971   -0.2488 H   0  0  0  0  0  0  0  0  0  0  0  0
   -1.5927    4.0744    1.1737 H   0  0  0  0  0  0  0  0  0  0  0  0
    0.6986    2.2043   -0.8594 H   0  0  0  0  0  0  0  0  0  0  0  0
    1.3906    2.1240    0.7654 H   0  0  0  0  0  0  0  0  0  0  0  0
    0.8717   -2.7833    0.8610 H   0  0  0  0  0  0  0  0  0  0  0  0
   -1.1281   -3.9055   -0.0935 H   0  0  0  0  0  0  0  0  0  0  0  0
   -1.5974   -2.3719   -0.9666 H   0  0  0  0  0  0  0  0  0  0  0  0
    0.5992   -2.3892   -2.2029 H   0  0  0  0  0  0  0  0  0  0  0  0
    1.0845   -3.9228   -1.3383 H   0  0  0  0  0  0  0  0  0  0  0  0
  1 11  1  0  0  0  0
  1  9  1  0  0  0  0
  2  1  1  0  0  0  0
  3  2  1  0  0  0  0
  3 13  1  0  0  0  0
  4  3  1  0  0  0  0
  5  4  3  0  0  0  0
  6  5  1  0  0  0  0
  6 14  1  0  0  0  0
  7 15  1  0  0  0  0
  7  6  1  0  0  0  0
  8  7  1  0  0  0  0
  8  6  1  0  0  0  0
 10  1  1  0  0  0  0
 12  3  1  0  0  0  0
 16  7  1  0  0  0  0
 17  8  1  0  0  0  0
 18  8  1  0  0  0  0
M  END
