title
 OpenBabel02282110003D

 24 24  0  0  0  0  0  0  0  0999 V2000
   -1.0241    3.6315    1.8613 C   0  0  0  0  0  0  0  0  0  0  0  0
   -1.0304    2.1049    1.7460 C   0  0  0  0  0  0  0  0  0  0  0  0
   -0.1186    1.5786    0.6324 C   0  0  0  0  0  0  0  0  0  0  0  0
   -0.1263    0.0520    0.5052 C   0  0  0  0  0  0  0  0  0  0  0  0
    0.7921   -0.4740   -0.6057 C   0  0  0  0  0  0  0  0  0  0  0  0
    0.7736   -1.9827   -0.7337 C   0  0  0  0  0  0  0  0  0  0  0  0
   -0.2866   -2.6661   -1.5619 C   0  0  0  0  0  0  0  0  0  0  0  0
    1.1489   -2.6520   -2.0305 C   0  0  0  0  0  0  0  0  0  0  0  0
   -0.0176    4.0087    2.0752 H   0  0  0  0  0  0  0  0  0  0  0  0
   -1.3589    4.1001    0.9290 H   0  0  0  0  0  0  0  0  0  0  0  0
   -1.6852    3.9763    2.6627 H   0  0  0  0  0  0  0  0  0  0  0  0
   -0.7234    1.6632    2.7034 H   0  0  0  0  0  0  0  0  0  0  0  0
   -2.0561    1.7551    1.5681 H   0  0  0  0  0  0  0  0  0  0  0  0
   -0.4225    2.0249   -0.3253 H   0  0  0  0  0  0  0  0  0  0  0  0
    0.9093    1.9250    0.8117 H   0  0  0  0  0  0  0  0  0  0  0  0
    0.1744   -0.3942    1.4636 H   0  0  0  0  0  0  0  0  0  0  0  0
   -1.1513   -0.2960    0.3195 H   0  0  0  0  0  0  0  0  0  0  0  0
    0.4957   -0.0284   -1.5655 H   0  0  0  0  0  0  0  0  0  0  0  0
    1.8201   -0.1329   -0.4187 H   0  0  0  0  0  0  0  0  0  0  0  0
    1.0726   -2.5093    0.1702 H   0  0  0  0  0  0  0  0  0  0  0  0
   -0.7047   -3.6020   -1.2078 H   0  0  0  0  0  0  0  0  0  0  0  0
   -0.9961   -2.0374   -2.0911 H   0  0  0  0  0  0  0  0  0  0  0  0
    1.3996   -2.0162   -2.8737 H   0  0  0  0  0  0  0  0  0  0  0  0
    1.7123   -3.5780   -1.9930 H   0  0  0  0  0  0  0  0  0  0  0  0
  1  9  1  0  0  0  0
  1 11  1  0  0  0  0
  2  1  1  0  0  0  0
  2 12  1  0  0  0  0
  3 15  1  0  0  0  0
  3  2  1  0  0  0  0
  4  3  1  0  0  0  0
  4 16  1  0  0  0  0
  5 19  1  0  0  0  0
  5  4  1  0  0  0  0
  6  5  1  0  0  0  0
  6 20  1  0  0  0  0
  7 21  1  0  0  0  0
  7  6  1  0  0  0  0
  8 24  1  0  0  0  0
  8  7  1  0  0  0  0
  8  6  1  0  0  0  0
 10  1  1  0  0  0  0
 13  2  1  0  0  0  0
 14  3  1  0  0  0  0
 17  4  1  0  0  0  0
 18  5  1  0  0  0  0
 22  7  1  0  0  0  0
 23  8  1  0  0  0  0
M  END
