title
 OpenBabel02282110003D

 18 18  0  0  0  0  0  0  0  0999 V2000
    1.1636    3.7256    0.0303 O   0  0  0  0  0  0  0  0  0  0  0  0
    1.1786    2.3141    0.1643 C   0  0  0  0  0  0  0  0  0  0  0  0
   -0.0824    1.7838   -0.5268 C   0  0  0  0  0  0  0  0  0  0  0  0
   -0.1944    0.3326   -0.4597 C   0  0  0  0  0  0  0  0  0  0  0  0
   -0.2652   -0.8692   -0.3902 C   0  0  0  0  0  0  0  0  0  0  0  0
   -0.3555   -2.2992   -0.3199 C   0  0  0  0  0  0  0  0  0  0  0  0
   -0.2631   -3.0100    1.0217 C   0  0  0  0  0  0  0  0  0  0  0  0
   -1.5764   -2.9623    0.2992 C   0  0  0  0  0  0  0  0  0  0  0  0
    1.9515    4.0774    0.4541 H   0  0  0  0  0  0  0  0  0  0  0  0
    2.0674    1.8689   -0.3072 H   0  0  0  0  0  0  0  0  0  0  0  0
    1.1735    2.0047    1.2202 H   0  0  0  0  0  0  0  0  0  0  0  0
   -0.9555    2.2590   -0.0623 H   0  0  0  0  0  0  0  0  0  0  0  0
   -0.0704    2.1199   -1.5711 H   0  0  0  0  0  0  0  0  0  0  0  0
    0.0871   -2.8281   -1.1594 H   0  0  0  0  0  0  0  0  0  0  0  0
    0.2804   -3.9477    1.0507 H   0  0  0  0  0  0  0  0  0  0  0  0
   -0.1413   -2.3875    1.9000 H   0  0  0  0  0  0  0  0  0  0  0  0
   -2.3479   -2.3073    0.6857 H   0  0  0  0  0  0  0  0  0  0  0  0
   -1.9432   -3.8669   -0.1727 H   0  0  0  0  0  0  0  0  0  0  0  0
  1  2  1  0  0  0  0
  1  9  1  0  0  0  0
  2 11  1  0  0  0  0
  3  4  1  0  0  0  0
  3 12  1  0  0  0  0
  3  2  1  0  0  0  0
  4  5  3  0  0  0  0
  5  6  1  0  0  0  0
  6  8  1  0  0  0  0
  6  7  1  0  0  0  0
  7 15  1  0  0  0  0
  7 16  1  0  0  0  0
  8 17  1  0  0  0  0
  8  7  1  0  0  0  0
 10  2  1  0  0  0  0
 13  3  1  0  0  0  0
 14  6  1  0  0  0  0
 18  8  1  0  0  0  0
M  END
