title
 OpenBabel02282110003D

 19 19  0  0  0  0  0  0  0  0999 V2000
   -1.1553    3.3354    1.6783 C   0  0  0  0  0  0  0  0  0  0  0  0
   -1.2573    1.8246    1.5819 C   0  0  0  0  0  0  0  0  0  0  0  0
   -0.3533    1.3881    0.5640 O   0  0  0  0  0  0  0  0  0  0  0  0
   -0.3149    0.0595    0.3420 C   0  0  0  0  0  0  0  0  0  0  0  0
    0.4506   -0.4224   -0.5349 N   0  0  0  0  0  0  0  0  0  0  0  0
    0.4471   -1.8307   -0.7235 C   0  0  0  0  0  0  0  0  0  0  0  0
    0.6675   -2.3425   -2.1286 C   0  0  0  0  0  0  0  0  0  0  0  0
    1.7577   -2.4830   -1.1000 C   0  0  0  0  0  0  0  0  0  0  0  0
   -0.1361    3.6359    1.9354 H   0  0  0  0  0  0  0  0  0  0  0  0
   -1.4202    3.7998    0.7247 H   0  0  0  0  0  0  0  0  0  0  0  0
   -1.8349    3.7093    2.4497 H   0  0  0  0  0  0  0  0  0  0  0  0
   -0.9944    1.3538    2.5394 H   0  0  0  0  0  0  0  0  0  0  0  0
   -2.2811    1.5181    1.3262 H   0  0  0  0  0  0  0  0  0  0  0  0
   -0.9913   -0.5322    0.9781 H   0  0  0  0  0  0  0  0  0  0  0  0
   -0.2256   -2.4145   -0.0901 H   0  0  0  0  0  0  0  0  0  0  0  0
    0.1241   -3.2288   -2.4372 H   0  0  0  0  0  0  0  0  0  0  0  0
    0.7959   -1.5909   -2.8982 H   0  0  0  0  0  0  0  0  0  0  0  0
    2.6146   -1.8252   -1.1823 H   0  0  0  0  0  0  0  0  0  0  0  0
    1.9699   -3.4666   -0.6958 H   0  0  0  0  0  0  0  0  0  0  0  0
  1  9  1  0  0  0  0
  1 11  1  0  0  0  0
  2  1  1  0  0  0  0
  2 12  1  0  0  0  0
  3  2  1  0  0  0  0
  4  3  1  0  0  0  0
  4 14  1  0  0  0  0
  5  4  2  0  0  0  0
  6  5  1  0  0  0  0
  6 15  1  0  0  0  0
  7  8  1  0  0  0  0
  7  6  1  0  0  0  0
  8  6  1  0  0  0  0
  8 19  1  0  0  0  0
 10  1  1  0  0  0  0
 13  2  1  0  0  0  0
 16  7  1  0  0  0  0
 17  7  1  0  0  0  0
 18  8  1  0  0  0  0
M  END
