17
title
C -0.37317804 3.7376351 -0.93237925
O -0.26596025 2.3331716 -0.9052067
C -0.4937994 1.8093038 0.38943473
C -0.3760305 0.3586562 0.37744012
C -0.2840225 -0.84304357 0.3852159
C -0.17277946 -2.2728984 0.41085544
C 0.8262782 -2.9517233 -0.47016293
N 1.0397048 -2.9171002 0.9782499
H 0.3634398 4.218453 -0.2687047
H -0.18408717 4.055942 -1.9598305
H -1.3771808 4.078448 -0.63255405
H 0.22775386 2.2371144 1.1081253
H -1.497753 2.0959802 0.74948525
H -1.0874351 -2.8101375 0.64780927
H 0.5880163 -3.930329 -0.87696916
H 1.4341615 -2.3196576 -1.1102644
H 1.7155687 -2.191254 1.2054442
