title
 OpenBabel02282110003D

 16 16  0  0  1  0  0  0  0  0999 V2000
    0.9868    3.7858   -0.4977 O   0  0  0  0  0  0  0  0  0  0  0  0
    0.9469    2.3790   -0.6606 C   0  0  0  0  0  0  0  0  0  0  0  0
    0.1661    1.8173    0.5337 C   0  0  0  0  0  0  0  0  0  0  0  0
    0.0495    0.3666    0.4947 C   0  0  0  0  0  0  0  0  0  0  0  0
   -0.0408   -0.8335    0.4357 C   0  0  0  0  0  0  0  0  0  0  0  0
   -0.1200   -2.2677    0.3844 C   0  0  1  0  0  0  0  0  0  0  0  0
   -1.4113   -2.9804    0.4581 C   0  0  0  0  0  0  0  0  0  0  0  0
   -0.7233   -2.8618   -0.7794 O   0  0  0  0  0  0  0  0  0  0  0  0
    1.4609    4.1634   -1.2440 H   0  0  0  0  0  0  0  0  0  0  0  0
    0.4435    2.0889   -1.5945 H   0  0  0  0  0  0  0  0  0  0  0  0
    1.9555    1.9400   -0.6764 H   0  0  0  0  0  0  0  0  0  0  0  0
    0.6693    2.1328    1.4559 H   0  0  0  0  0  0  0  0  0  0  0  0
   -0.8274    2.2816    0.5483 H   0  0  0  0  0  0  0  0  0  0  0  0
    0.7652   -2.7995    0.7323 H   0  0  0  0  0  0  0  0  0  0  0  0
   -1.4414   -3.9799    0.8906 H   0  0  0  0  0  0  0  0  0  0  0  0
   -2.3270   -2.3988    0.5453 H   0  0  0  0  0  0  0  0  0  0  0  0
  2  1  1  0  0  0  0
  2  3  1  0  0  0  0
  3 13  1  0  0  0  0
  3 12  1  0  0  0  0
  4  3  1  0  0  0  0
  5  4  3  0  0  0  0
  6  5  1  0  0  0  0
  6  7  1  0  0  0  0
  6 14  1  1  0  0  0
  7 16  1  0  0  0  0
  7 15  1  0  0  0  0
  8  6  1  0  0  0  0
  8  7  1  0  0  0  0
  9  1  1  0  0  0  0
 10  2  1  0  0  0  0
 11  2  1  0  0  0  0
M  END
