16
title
C 0.97714746 3.7700353 0.0017552377
O 0.91070825 2.3666065 0.11132851
C -0.1413914 1.8245237 -0.6622758
C -0.1827029 0.37681127 -0.5148523
C -0.24063993 -0.8202157 -0.39928922
C -0.297863 -2.2513301 -0.28925624
C 0.12096565 -2.9479678 0.94401807
O -1.2563306 -2.8141901 0.6238537
H 1.8098187 4.102776 0.62504286
H 1.1574149 4.0921555 -1.036351
H 0.051815145 4.2528014 0.35454193
H -1.1104454 2.2535756 -0.3517389
H -0.011576182 2.0852327 -1.727548
H -0.21724248 -2.7984407 -1.2278792
H 0.53100663 -3.9543698 0.86807674
H 0.46860278 -2.3560054 1.7882584
