17
title
O 1.2132107 3.7276232 -0.050462693
C 1.2272528 2.3181078 0.0940107
C -0.07197079 1.7940125 -0.5289229
C -0.193225 0.3449214 -0.4453346
C -0.266713 -0.85603327 -0.36241925
C -0.3830286 -2.2853658 -0.29085574
C -0.2798768 -2.9785364 1.0291412
N -1.5736134 -2.9061415 0.3444854
H 2.0253468 4.078685 0.325629
H 2.0873578 1.8628414 -0.41907692
H 1.2732763 2.0159187 1.1510197
H -0.91685694 2.2779028 -0.023532076
H -0.11111769 2.1214206 -1.575064
H -0.047483172 -2.8255966 -1.1726179
H 0.16170707 -3.9701989 1.0728346
H -0.109460324 -2.3586376 1.904316
H -2.1387365 -2.1695082 0.76056063
