19
title
C -1.155318 3.3353758 1.6782904
C -1.257286 1.8246335 1.5818822
O -0.3533173 1.3881224 0.5639986
C -0.3148578 0.059469484 0.34203422
N 0.4505637 -0.42244884 -0.53485286
C 0.44712916 -1.8307495 -0.7234837
C 0.66745067 -2.3425481 -2.1286278
C 1.7577344 -2.4830177 -1.1000096
H -0.13611291 3.6358874 1.9354346
H -1.4201827 3.7998064 0.7246869
H -1.8349048 3.7092643 2.4496593
H -0.9943543 1.3538481 2.5393944
H -2.28114 1.5181323 1.3261789
H -0.9912845 -0.53219247 0.97810185
H -0.22564493 -2.41448 -0.09008549
H 0.124100946 -3.2287543 -2.4372258
H 0.7958741 -1.5908763 -2.8981633
H 2.6146019 -1.8252249 -1.1823295
H 1.9699343 -3.466572 -0.69576347
