22
title
C 1.8946216 3.5651152 -0.02158788
C 1.788353 2.0399985 0.048838172
C 0.37622488 1.540521 -0.22518149
O 0.36458147 0.13279231 -0.13678056
C -0.9074031 -0.43143085 -0.38061336
C -0.8048109 -1.9302983 -0.3199225
C -0.8659643 -2.636413 1.0089962
C -2.0201757 -2.7453341 0.04460423
H 2.9166749 3.8981977 0.1805862
H 1.613741 3.9404187 -1.0120026
H 1.2380372 4.0458736 0.71216124
H 2.4674344 1.5768571 -0.6762066
H 2.0970783 1.6818192 1.0376308
H -0.3314973 1.9776213 0.50217986
H 0.042121183 1.8664502 -1.2267427
H -1.6373693 -0.073686406 0.36773592
H -1.2806166 -0.10991268 -1.369068
H -0.13802753 -2.3564262 -1.0638412
H -0.23412167 -3.5045643 1.1586725
H -1.0005518 -2.026987 1.8964813
H -2.9353507 -2.214045 0.28585416
H -2.179807 -3.685607 -0.4709757
