title
 OpenBabel02282110003D

 20 20  0  0  1  0  0  0  0  0999 V2000
   -1.0076    3.5963   -1.6108 C   0  0  0  0  0  0  0  0  0  0  0  0
   -0.8941    2.0708   -1.5632 C   0  0  0  0  0  0  0  0  0  0  0  0
   -0.0525    1.5865   -0.3909 C   0  0  0  0  0  0  0  0  0  0  0  0
   -0.0105    0.1747   -0.4132 O   0  0  0  0  0  0  0  0  0  0  0  0
    0.7515   -0.3781    0.6337 C   0  0  0  0  0  0  0  0  0  0  0  0
    0.7176   -1.8766    0.5141 C   0  0  1  0  0  0  0  0  0  0  0  0
    0.9385   -2.7381    1.6805 C   0  0  0  0  0  0  0  0  0  0  0  0
   -0.3703   -2.5551    1.1435 O   0  0  0  0  0  0  0  0  0  0  0  0
   -0.0238    4.0684   -1.7114 H   0  0  0  0  0  0  0  0  0  0  0  0
   -1.6171    3.9182   -2.4600 H   0  0  0  0  0  0  0  0  0  0  0  0
   -1.4724    3.9910   -0.7006 H   0  0  0  0  0  0  0  0  0  0  0  0
   -1.8884    1.6166   -1.4858 H   0  0  0  0  0  0  0  0  0  0  0  0
   -0.4494    1.6925   -2.4908 H   0  0  0  0  0  0  0  0  0  0  0  0
    0.9697    2.0009   -0.4533 H   0  0  0  0  0  0  0  0  0  0  0  0
   -0.4828    1.9405    0.5623 H   0  0  0  0  0  0  0  0  0  0  0  0
    1.7980   -0.0269    0.5790 H   0  0  0  0  0  0  0  0  0  0  0  0
    0.3517   -0.0836    1.6180 H   0  0  0  0  0  0  0  0  0  0  0  0
    0.9724   -2.2592   -0.4746 H   0  0  0  0  0  0  0  0  0  0  0  0
    1.3728   -3.7275    1.5453 H   0  0  0  0  0  0  0  0  0  0  0  0
    1.1094   -2.2888    2.6586 H   0  0  0  0  0  0  0  0  0  0  0  0
  1  2  1  0  0  0  0
  1 11  1  0  0  0  0
  2 12  1  0  0  0  0
  2  3  1  0  0  0  0
  3 15  1  0  0  0  0
  4  3  1  0  0  0  0
  4  5  1  0  0  0  0
  5 17  1  0  0  0  0
  6 18  1  6  0  0  0
  6  5  1  0  0  0  0
  6  8  1  0  0  0  0
  6  7  1  0  0  0  0
  7 20  1  0  0  0  0
  8  7  1  0  0  0  0
  9  1  1  0  0  0  0
 10  1  1  0  0  0  0
 13  2  1  0  0  0  0
 14  3  1  0  0  0  0
 16  5  1  0  0  0  0
 19  7  1  0  0  0  0
M  END
