title
 OpenBabel02282110003D

 23 23  0  0  0  0  0  0  0  0999 V2000
   -1.1656    3.5722   -1.8227 C   0  0  0  0  0  0  0  0  0  0  0  0
   -1.0239    2.0488   -1.7708 C   0  0  0  0  0  0  0  0  0  0  0  0
   -0.5086    1.5356   -0.4217 C   0  0  0  0  0  0  0  0  0  0  0  0
   -0.3580    0.0123   -0.3696 C   0  0  0  0  0  0  0  0  0  0  0  0
    0.1511   -0.4937    0.9798 C   0  0  0  0  0  0  0  0  0  0  0  0
    0.2547   -1.9496    0.9905 N   0  0  0  0  0  0  0  0  0  0  0  0
    1.5272   -2.5077    0.5449 C   0  0  0  0  0  0  0  0  0  0  0  0
    1.1495   -2.5278    1.9851 C   0  0  0  0  0  0  0  0  0  0  0  0
   -0.2039    4.0656   -1.6427 H   0  0  0  0  0  0  0  0  0  0  0  0
   -1.5337    3.9074   -2.7975 H   0  0  0  0  0  0  0  0  0  0  0  0
   -1.8669    3.9312   -1.0610 H   0  0  0  0  0  0  0  0  0  0  0  0
   -1.9936    1.5817   -1.9879 H   0  0  0  0  0  0  0  0  0  0  0  0
   -0.3442    1.7162   -2.5666 H   0  0  0  0  0  0  0  0  0  0  0  0
    0.4591    2.0084   -0.2013 H   0  0  0  0  0  0  0  0  0  0  0  0
   -1.1917    1.8638    0.3746 H   0  0  0  0  0  0  0  0  0  0  0  0
   -1.3198   -0.4696   -0.5831 H   0  0  0  0  0  0  0  0  0  0  0  0
    0.3320   -0.3165   -1.1583 H   0  0  0  0  0  0  0  0  0  0  0  0
    1.1193   -0.0123    1.2182 H   0  0  0  0  0  0  0  0  0  0  0  0
   -0.5494   -0.2045    1.7737 H   0  0  0  0  0  0  0  0  0  0  0  0
    1.4683   -3.4101   -0.0570 H   0  0  0  0  0  0  0  0  0  0  0  0
    2.3131   -1.8132    0.2495 H   0  0  0  0  0  0  0  0  0  0  0  0
    1.6858   -1.8489    2.6471 H   0  0  0  0  0  0  0  0  0  0  0  0
    0.8071   -3.4451    2.4558 H   0  0  0  0  0  0  0  0  0  0  0  0
  1  2  1  0  0  0  0
  1  9  1  0  0  0  0
  1 11  1  0  0  0  0
  2  3  1  0  0  0  0
  3  4  1  0  0  0  0
  3 14  1  0  0  0  0
  3 15  1  0  0  0  0
  4  5  1  0  0  0  0
  5  6  1  0  0  0  0
  5 18  1  0  0  0  0
  5 19  1  0  0  0  0
  6  8  1  0  0  0  0
  7  6  1  0  0  0  0
  7  8  1  0  0  0  0
  8 23  1  0  0  0  0
  8 22  1  0  0  0  0
 10  1  1  0  0  0  0
 12  2  1  0  0  0  0
 13  2  1  0  0  0  0
 16  4  1  0  0  0  0
 17  4  1  0  0  0  0
 20  7  1  0  0  0  0
 21  7  1  0  0  0  0
M  END
