22
title
C 1.9841694 3.5765913 0.07034515
C 1.9062032 2.067807 0.31889123
C 0.61571413 1.441232 -0.21860133
C 0.53822535 -0.058205932 0.030861724
O -0.6816378 -0.5430571 -0.5066817
C -0.8516169 -1.9135836 -0.34026423
C -1.4175525 -2.4357507 0.9573068
C -2.2591999 -2.4100716 -0.30500954
H 2.914404 3.9986062 0.4632609
H 1.9408731 3.8035872 -1.000579
H 1.1508025 4.0999956 0.5518722
H 2.7715907 1.5758765 -0.1448028
H 1.9871362 1.8703508 1.3960764
H -0.25607327 1.9188597 0.24572517
H 0.5303864 1.6214495 -1.2973391
H 1.3916117 -0.57136714 -0.44455343
H 0.5916144 -0.27704248 1.1096216
H -0.10087183 -2.523739 -0.84584373
H -1.0686014 -3.389847 1.337007
H -1.6540217 -1.6999959 1.7179073
H -3.0351398 -1.655574 -0.3643403
H -2.4925478 -3.345359 -0.8010023
