22
title
C -1.1066116 3.6706493 -1.7501384
C -1.0478474 2.1423254 -1.682338
C -0.120881885 1.6218112 -0.5784534
C -0.068526894 0.093235575 -0.4987613
C 0.8610986 -0.4273168 0.60587347
C 0.880253 -1.9341785 0.68047726
C 0.9869177 -2.6649592 1.9486669
O -0.2658271 -2.5589817 1.2701143
H -0.115602285 4.0977397 -1.9410971
H -1.7742202 4.0109005 -2.5479748
H -1.4713119 4.094806 -0.80788666
H -2.058036 1.7429559 -1.5224997
H -0.7156523 1.7444065 -2.650479
H 0.8929103 2.0150807 -0.7404684
H -0.44887388 2.0250335 0.39002955
H -1.0765253 -0.30323282 -0.3238839
H 0.25658765 -0.31180826 -1.4673059
H 1.8848293 -0.06775061 0.43258774
H 0.54344124 -0.029957216 1.5776235
H 1.2337515 -2.4404666 -0.22094502
H 1.4263704 -3.6615813 1.9694911
H 1.0611415 -2.1077645 2.8821208
