title
 OpenBabel02282110003D

 21 21  0  0  1  0  0  0  0  0999 V2000
   -1.0481    3.5394   -1.6391 C   0  0  0  0  0  0  0  0  0  0  0  0
   -0.9944    2.0149   -1.5155 C   0  0  0  0  0  0  0  0  0  0  0  0
   -0.0272    1.5522   -0.4348 C   0  0  0  0  0  0  0  0  0  0  0  0
   -0.0463    0.1411   -0.3797 O   0  0  0  0  0  0  0  0  0  0  0  0
    0.8283   -0.3932    0.5897 C   0  0  0  0  0  0  0  0  0  0  0  0
    0.7701   -1.8947    0.5276 C   0  0  1  0  0  0  0  0  0  0  0  0
    0.9601   -2.6837    1.7700 C   0  0  0  0  0  0  0  0  0  0  0  0
   -0.3607   -2.6187    1.1247 N   0  0  0  0  0  0  0  0  0  0  0  0
   -0.0667    3.9554   -1.8930 H   0  0  0  0  0  0  0  0  0  0  0  0
   -1.7492    3.8455   -2.4208 H   0  0  0  0  0  0  0  0  0  0  0  0
   -1.3724    4.0055   -0.7020 H   0  0  0  0  0  0  0  0  0  0  0  0
   -1.9887    1.6159   -1.2848 H   0  0  0  0  0  0  0  0  0  0  0  0
   -0.6917    1.5654   -2.4681 H   0  0  0  0  0  0  0  0  0  0  0  0
    0.9938    1.9135   -0.6521 H   0  0  0  0  0  0  0  0  0  0  0  0
   -0.3133    1.9779    0.5436 H   0  0  0  0  0  0  0  0  0  0  0  0
    1.8610   -0.0459    0.4092 H   0  0  0  0  0  0  0  0  0  0  0  0
    0.5443   -0.0480    1.6011 H   0  0  0  0  0  0  0  0  0  0  0  0
    1.1039   -2.3170   -0.4176 H   0  0  0  0  0  0  0  0  0  0  0  0
    1.4448   -3.6547    1.7285 H   0  0  0  0  0  0  0  0  0  0  0  0
    1.1193   -2.1408    2.6989 H   0  0  0  0  0  0  0  0  0  0  0  0
   -0.9609   -1.9633    1.6204 H   0  0  0  0  0  0  0  0  0  0  0  0
  1  2  1  0  0  0  0
  1 11  1  0  0  0  0
  2 12  1  0  0  0  0
  2  3  1  0  0  0  0
  3  4  1  0  0  0  0
  3 15  1  0  0  0  0
  4  5  1  0  0  0  0
  5 17  1  0  0  0  0
  6 18  1  6  0  0  0
  6  5  1  0  0  0  0
  6  8  1  0  0  0  0
  6  7  1  0  0  0  0
  7 20  1  0  0  0  0
  8 21  1  0  0  0  0
  8  7  1  0  0  0  0
  9  1  1  0  0  0  0
 10  1  1  0  0  0  0
 13  2  1  0  0  0  0
 14  3  1  0  0  0  0
 16  5  1  0  0  0  0
 19  7  1  0  0  0  0
M  END
