21
title
C -1.0481242 3.5394425 -1.6391098
C -0.9944268 2.0149243 -1.5155338
C -0.027155913 1.5522017 -0.43479413
O -0.046335675 0.14112167 -0.3797074
C 0.8282512 -0.3931511 0.58974093
C 0.7700644 -1.8946937 0.5276379
C 0.9601045 -2.6836941 1.7700351
N -0.36069587 -2.6187437 1.1246752
H -0.06673328 3.955372 -1.892983
H -1.7491736 3.8455145 -2.4207888
H -1.3724043 4.0054817 -0.7019852
H -1.988732 1.6158537 -1.284823
H -0.69171536 1.5654436 -2.4680996
H 0.9938083 1.9134609 -0.65207714
H -0.31334367 1.9779445 0.5436372
H 1.861023 -0.04589279 0.40922636
H 0.54434973 -0.048008278 1.6011235
H 1.1039363 -2.3169563 -0.41759497
H 1.444824 -3.6547172 1.728489
H 1.1193261 -2.1408002 2.6989393
H -0.96090215 -1.9632715 1.6204475
