20
title
C -1.0132921 3.4067771 -1.7630595
C -1.0850163 1.8906574 -1.6943262
O -0.18137035 1.4408288 -0.70567155
C -0.1746237 0.039792728 -0.55242014
C 0.81115586 -0.31879276 0.5552815
C 0.9121254 -1.8090132 0.76099
C 1.0903407 -2.4106154 2.0873733
O -0.18184075 -2.4387317 1.4392501
H -5.200942e-05 3.7315707 -2.0163567
H -1.7010875 3.787627 -2.5239308
H -1.2826263 3.8473465 -0.7989366
H -2.109545 1.5617024 -1.450637
H -0.83100176 1.4464084 -2.6722257
H -1.179563 -0.33106583 -0.2927624
H 0.11692413 -0.45073885 -1.4984614
H 1.7983893 0.08349366 0.29709995
H 0.49384233 0.1614712 1.4865726
H 1.2736436 -2.3778358 -0.09864127
H 1.588399 -3.3743992 2.1850414
H 1.1548873 -1.7651528 2.962677
