title
 OpenBabel02282110003D

 22 22  0  0  0  0  0  0  0  0999 V2000
    1.9773    3.4226   -0.1229 C   0  0  0  0  0  0  0  0  0  0  0  0
    1.9901    1.9116    0.0396 C   0  0  0  0  0  0  0  0  0  0  0  0
    0.6902    1.4204   -0.2066 O   0  0  0  0  0  0  0  0  0  0  0  0
    0.5889    0.0182   -0.0901 C   0  0  0  0  0  0  0  0  0  0  0  0
   -0.8520   -0.3929   -0.3738 C   0  0  0  0  0  0  0  0  0  0  0  0
   -1.0549   -1.8902   -0.2949 C   0  0  0  0  0  0  0  0  0  0  0  0
   -1.3083   -2.5596    1.0348 C   0  0  0  0  0  0  0  0  0  0  0  0
   -2.4138   -2.4645    0.0117 C   0  0  0  0  0  0  0  0  0  0  0  0
    2.9732    3.8361    0.0623 H   0  0  0  0  0  0  0  0  0  0  0  0
    1.6698    3.6961   -1.1362 H   0  0  0  0  0  0  0  0  0  0  0  0
    1.2752    3.8778    0.5816 H   0  0  0  0  0  0  0  0  0  0  0  0
    2.7100    1.4540   -0.6611 H   0  0  0  0  0  0  0  0  0  0  0  0
    2.3168    1.6350    1.0571 H   0  0  0  0  0  0  0  0  0  0  0  0
    1.2743   -0.4768   -0.8011 H   0  0  0  0  0  0  0  0  0  0  0  0
    0.8872   -0.3097    0.9204 H   0  0  0  0  0  0  0  0  0  0  0  0
   -1.5084    0.1123    0.3451 H   0  0  0  0  0  0  0  0  0  0  0  0
   -1.1314   -0.0202   -1.3670 H   0  0  0  0  0  0  0  0  0  0  0  0
   -0.4539   -2.4614   -0.9992 H   0  0  0  0  0  0  0  0  0  0  0  0
   -0.8618   -3.5296    1.2239 H   0  0  0  0  0  0  0  0  0  0  0  0
   -1.3785   -1.9258    1.9132 H   0  0  0  0  0  0  0  0  0  0  0  0
   -3.2243   -1.7693    0.2051 H   0  0  0  0  0  0  0  0  0  0  0  0
   -2.7202   -3.3693   -0.5015 H   0  0  0  0  0  0  0  0  0  0  0  0
  1  2  1  0  0  0  0
  1  9  1  0  0  0  0
  1 11  1  0  0  0  0
  2 13  1  0  0  0  0
  3  4  1  0  0  0  0
  3  2  1  0  0  0  0
  4 15  1  0  0  0  0
  5  6  1  0  0  0  0
  5  4  1  0  0  0  0
  5 16  1  0  0  0  0
  6  8  1  0  0  0  0
  6  7  1  0  0  0  0
  7 19  1  0  0  0  0
  7 20  1  0  0  0  0
  8 21  1  0  0  0  0
  8  7  1  0  0  0  0
 10  1  1  0  0  0  0
 12  2  1  0  0  0  0
 14  4  1  0  0  0  0
 17  5  1  0  0  0  0
 18  6  1  0  0  0  0
 22  8  1  0  0  0  0
M  END
