22
title
C 1.9772537 3.4225755 -0.1228792
C 1.9901145 1.911605 0.039589427
O 0.69016266 1.4203675 -0.20655845
C 0.58891344 0.018218882 -0.09013424
C -0.85195065 -0.39286602 -0.37383434
C -1.0549016 -1.8902477 -0.29486528
C -1.3083174 -2.5595834 1.0348146
C -2.4138415 -2.4645417 0.011749796
H 2.9732015 3.8361135 0.06228783
H 1.6697873 3.6960726 -1.1362399
H 1.2751982 3.8777785 0.581565
H 2.7100425 1.4540076 -0.661084
H 2.3167686 1.6349645 1.0570737
H 1.2743394 -0.47684968 -0.80110925
H 0.8871901 -0.30971944 0.92044604
H -1.5084262 0.11227656 0.345134
H -1.131371 -0.02019786 -1.3670485
H -0.45394588 -2.4613564 -0.99917734
H -0.8617997 -3.5295565 1.2239144
H -1.3784747 -1.9257704 1.9131657
H -3.2243283 -1.7692889 0.20506954
H -2.7201645 -3.3693426 -0.5015463
