title
 OpenBabel02282110003D

 20 20  0  0  1  0  0  0  0  0999 V2000
   -1.0133    3.4068   -1.7631 C   0  0  0  0  0  0  0  0  0  0  0  0
   -1.0850    1.8907   -1.6943 C   0  0  0  0  0  0  0  0  0  0  0  0
   -0.1814    1.4408   -0.7057 O   0  0  0  0  0  0  0  0  0  0  0  0
   -0.1746    0.0398   -0.5524 C   0  0  0  0  0  0  0  0  0  0  0  0
    0.8112   -0.3188    0.5553 C   0  0  0  0  0  0  0  0  0  0  0  0
    0.9121   -1.8090    0.7610 C   0  0  1  0  0  0  0  0  0  0  0  0
    1.0903   -2.4106    2.0874 C   0  0  0  0  0  0  0  0  0  0  0  0
   -0.1818   -2.4387    1.4393 O   0  0  0  0  0  0  0  0  0  0  0  0
   -0.0001    3.7316   -2.0164 H   0  0  0  0  0  0  0  0  0  0  0  0
   -1.7011    3.7876   -2.5239 H   0  0  0  0  0  0  0  0  0  0  0  0
   -1.2826    3.8473   -0.7989 H   0  0  0  0  0  0  0  0  0  0  0  0
   -2.1095    1.5617   -1.4506 H   0  0  0  0  0  0  0  0  0  0  0  0
   -0.8310    1.4464   -2.6722 H   0  0  0  0  0  0  0  0  0  0  0  0
   -1.1796   -0.3311   -0.2928 H   0  0  0  0  0  0  0  0  0  0  0  0
    0.1169   -0.4507   -1.4985 H   0  0  0  0  0  0  0  0  0  0  0  0
    1.7984    0.0835    0.2971 H   0  0  0  0  0  0  0  0  0  0  0  0
    0.4938    0.1615    1.4866 H   0  0  0  0  0  0  0  0  0  0  0  0
    1.2736   -2.3778   -0.0986 H   0  0  0  0  0  0  0  0  0  0  0  0
    1.5884   -3.3744    2.1850 H   0  0  0  0  0  0  0  0  0  0  0  0
    1.1549   -1.7652    2.9627 H   0  0  0  0  0  0  0  0  0  0  0  0
  1  2  1  0  0  0  0
  1 11  1  0  0  0  0
  2 12  1  0  0  0  0
  2  3  1  0  0  0  0
  3  4  1  0  0  0  0
  4 14  1  0  0  0  0
  4  5  1  0  0  0  0
  5  6  1  0  0  0  0
  5 17  1  0  0  0  0
  6 18  1  6  0  0  0
  6  8  1  0  0  0  0
  6  7  1  0  0  0  0
  7 19  1  0  0  0  0
  7 20  1  0  0  0  0
  8  7  1  0  0  0  0
  9  1  1  0  0  0  0
 10  1  1  0  0  0  0
 13  2  1  0  0  0  0
 15  4  1  0  0  0  0
 16  5  1  0  0  0  0
M  END
