title
 OpenBabel02282110003D

 22 22  0  0  1  0  0  0  0  0999 V2000
   -1.1066    3.6706   -1.7501 C   0  0  0  0  0  0  0  0  0  0  0  0
   -1.0478    2.1423   -1.6823 C   0  0  0  0  0  0  0  0  0  0  0  0
   -0.1209    1.6218   -0.5785 C   0  0  0  0  0  0  0  0  0  0  0  0
   -0.0685    0.0932   -0.4988 C   0  0  0  0  0  0  0  0  0  0  0  0
    0.8611   -0.4273    0.6059 C   0  0  0  0  0  0  0  0  0  0  0  0
    0.8803   -1.9342    0.6805 C   0  0  1  0  0  0  0  0  0  0  0  0
    0.9869   -2.6650    1.9487 C   0  0  0  0  0  0  0  0  0  0  0  0
   -0.2658   -2.5590    1.2701 O   0  0  0  0  0  0  0  0  0  0  0  0
   -0.1156    4.0977   -1.9411 H   0  0  0  0  0  0  0  0  0  0  0  0
   -1.7742    4.0109   -2.5480 H   0  0  0  0  0  0  0  0  0  0  0  0
   -1.4713    4.0948   -0.8079 H   0  0  0  0  0  0  0  0  0  0  0  0
   -2.0580    1.7430   -1.5225 H   0  0  0  0  0  0  0  0  0  0  0  0
   -0.7157    1.7444   -2.6505 H   0  0  0  0  0  0  0  0  0  0  0  0
    0.8929    2.0151   -0.7405 H   0  0  0  0  0  0  0  0  0  0  0  0
   -0.4489    2.0250    0.3900 H   0  0  0  0  0  0  0  0  0  0  0  0
   -1.0765   -0.3032   -0.3239 H   0  0  0  0  0  0  0  0  0  0  0  0
    0.2566   -0.3118   -1.4673 H   0  0  0  0  0  0  0  0  0  0  0  0
    1.8848   -0.0678    0.4326 H   0  0  0  0  0  0  0  0  0  0  0  0
    0.5434   -0.0300    1.5776 H   0  0  0  0  0  0  0  0  0  0  0  0
    1.2338   -2.4405   -0.2209 H   0  0  0  0  0  0  0  0  0  0  0  0
    1.4264   -3.6616    1.9695 H   0  0  0  0  0  0  0  0  0  0  0  0
    1.0611   -2.1078    2.8821 H   0  0  0  0  0  0  0  0  0  0  0  0
  1  2  1  0  0  0  0
  1 11  1  0  0  0  0
  2 12  1  0  0  0  0
  2  3  1  0  0  0  0
  3  4  1  0  0  0  0
  3 15  1  0  0  0  0
  4 16  1  0  0  0  0
  4  5  1  0  0  0  0
  5  6  1  0  0  0  0
  5 19  1  0  0  0  0
  6 20  1  6  0  0  0
  6  8  1  0  0  0  0
  6  7  1  0  0  0  0
  7 21  1  0  0  0  0
  7 22  1  0  0  0  0
  8  7  1  0  0  0  0
  9  1  1  0  0  0  0
 10  1  1  0  0  0  0
 13  2  1  0  0  0  0
 14  3  1  0  0  0  0
 17  4  1  0  0  0  0
 18  5  1  0  0  0  0
M  END
