title
 OpenBabel02282110003D

 22 22  0  0  0  0  0  0  0  0999 V2000
    1.7217    3.5739   -0.0258 C   0  0  0  0  0  0  0  0  0  0  0  0
    1.6890    2.1703    0.0408 O   0  0  0  0  0  0  0  0  0  0  0  0
    0.4071    1.6376   -0.2140 C   0  0  0  0  0  0  0  0  0  0  0  0
    0.4789    0.1198   -0.1236 C   0  0  0  0  0  0  0  0  0  0  0  0
   -0.8721   -0.5556   -0.3897 C   0  0  0  0  0  0  0  0  0  0  0  0
   -0.8034   -2.0660   -0.3086 C   0  0  0  0  0  0  0  0  0  0  0  0
   -0.9358   -2.7669    1.0209 C   0  0  0  0  0  0  0  0  0  0  0  0
   -2.0363   -2.8779   -0.0073 C   0  0  0  0  0  0  0  0  0  0  0  0
    2.7468    3.8900    0.1841 H   0  0  0  0  0  0  0  0  0  0  0  0
    1.4335    3.9446   -1.0230 H   0  0  0  0  0  0  0  0  0  0  0  0
    1.0495    4.0362    0.7153 H   0  0  0  0  0  0  0  0  0  0  0  0
   -0.3232    2.0327    0.5151 H   0  0  0  0  0  0  0  0  0  0  0  0
    0.0559    1.9479   -1.2146 H   0  0  0  0  0  0  0  0  0  0  0  0
    1.2254   -0.2374   -0.8435 H   0  0  0  0  0  0  0  0  0  0  0  0
    0.8468   -0.1580    0.8709 H   0  0  0  0  0  0  0  0  0  0  0  0
   -1.6150   -0.1914    0.3334 H   0  0  0  0  0  0  0  0  0  0  0  0
   -1.2421   -0.2583   -1.3811 H   0  0  0  0  0  0  0  0  0  0  0  0
   -0.1023   -2.5161   -1.0080 H   0  0  0  0  0  0  0  0  0  0  0  0
   -0.3205   -3.6385    1.2147 H   0  0  0  0  0  0  0  0  0  0  0  0
   -1.1243   -2.1553    1.8978 H   0  0  0  0  0  0  0  0  0  0  0  0
   -2.9611   -2.3423    0.1818 H   0  0  0  0  0  0  0  0  0  0  0  0
   -2.1712   -3.8252   -0.5179 H   0  0  0  0  0  0  0  0  0  0  0  0
  1  2  1  0  0  0  0
  1  9  1  0  0  0  0
  1 11  1  0  0  0  0
  3  4  1  0  0  0  0
  3  2  1  0  0  0  0
  3 12  1  0  0  0  0
  4 15  1  0  0  0  0
  5  6  1  0  0  0  0
  5  4  1  0  0  0  0
  5 16  1  0  0  0  0
  6  8  1  0  0  0  0
  6  7  1  0  0  0  0
  7 19  1  0  0  0  0
  7 20  1  0  0  0  0
  8 21  1  0  0  0  0
  8  7  1  0  0  0  0
 10  1  1  0  0  0  0
 13  3  1  0  0  0  0
 14  4  1  0  0  0  0
 17  5  1  0  0  0  0
 18  6  1  0  0  0  0
 22  8  1  0  0  0  0
M  END
