22
title
O 1.8972366 3.5113606 -0.08204586
C 1.9524752 2.095895 0.022649901
C 0.552512 1.5488576 -0.22092287
C 0.48146227 0.022003248 -0.13342194
C -0.9275902 -0.5313739 -0.38455525
C -1.0017976 -2.0407057 -0.29171044
C -1.188814 -2.7157016 1.0449971
C -2.303198 -2.7303872 0.026007848
H 2.7799027 3.8589506 0.07448541
H 2.65181 1.6690851 -0.7155285
H 2.3050978 1.7839936 1.019874
H -0.12811384 2.0014856 0.5110377
H 0.21531168 1.8881105 -1.208422
H 1.1764234 -0.42089075 -0.86063606
H 0.8258845 -0.31026906 0.8551045
H -1.6259273 -0.090998575 0.34036595
H -1.2736317 -0.20488088 -1.3751463
H -0.35302433 -2.5618334 -0.99258006
H -0.6580761 -3.640565 1.2425646
H -1.311742 -2.0815473 1.9175211
H -3.1716664 -2.1081429 0.21730301
H -2.5311577 -3.6648855 -0.47492477
