title
 OpenBabel02282110003D

 20 20  0  0  1  0  0  0  0  0999 V2000
    1.8901    3.5250    0.0098 O   0  0  0  0  0  0  0  0  0  0  0  0
    1.9330    2.1069   -0.0517 C   0  0  0  0  0  0  0  0  0  0  0  0
    0.5288    1.5815    0.2153 C   0  0  0  0  0  0  0  0  0  0  0  0
    0.4471    0.0536    0.1808 C   0  0  0  0  0  0  0  0  0  0  0  0
   -0.9688   -0.4778    0.4425 C   0  0  0  0  0  0  0  0  0  0  0  0
   -1.0355   -1.9842    0.3905 C   0  0  1  0  0  0  0  0  0  0  0  0
   -2.1867   -2.7085   -0.1607 C   0  0  0  0  0  0  0  0  0  0  0  0
   -0.9773   -2.5805   -0.9105 O   0  0  0  0  0  0  0  0  0  0  0  0
    2.7729    3.8604   -0.1705 H   0  0  0  0  0  0  0  0  0  0  0  0
    2.2769    1.7605   -1.0401 H   0  0  0  0  0  0  0  0  0  0  0  0
    2.6319    1.6968    0.6964 H   0  0  0  0  0  0  0  0  0  0  0  0
    0.1978    1.9581    1.1914 H   0  0  0  0  0  0  0  0  0  0  0  0
   -0.1499    2.0131   -0.5307 H   0  0  0  0  0  0  0  0  0  0  0  0
    0.7837   -0.3182   -0.7951 H   0  0  0  0  0  0  0  0  0  0  0  0
    1.1354   -0.3698    0.9257 H   0  0  0  0  0  0  0  0  0  0  0  0
   -1.3178   -0.1402    1.4279 H   0  0  0  0  0  0  0  0  0  0  0  0
   -1.6627   -0.0669   -0.3006 H   0  0  0  0  0  0  0  0  0  0  0  0
   -0.4248   -2.5035    1.1329 H   0  0  0  0  0  0  0  0  0  0  0  0
   -2.4174   -3.7139    0.1893 H   0  0  0  0  0  0  0  0  0  0  0  0
   -3.0370   -2.1467   -0.5461 H   0  0  0  0  0  0  0  0  0  0  0  0
  2  1  1  0  0  0  0
  2  3  1  0  0  0  0
  2 11  1  0  0  0  0
  3 12  1  0  0  0  0
  4  3  1  0  0  0  0
  4  5  1  0  0  0  0
  4 15  1  0  0  0  0
  5 16  1  0  0  0  0
  6  5  1  0  0  0  0
  6 18  1  1  0  0  0
  7 19  1  0  0  0  0
  7  6  1  0  0  0  0
  8  7  1  0  0  0  0
  8  6  1  0  0  0  0
  9  1  1  0  0  0  0
 10  2  1  0  0  0  0
 13  3  1  0  0  0  0
 14  4  1  0  0  0  0
 17  5  1  0  0  0  0
 20  7  1  0  0  0  0
M  END
