title
 OpenBabel02282110003D

 20 20  0  0  0  0  0  0  0  0999 V2000
    1.8642    3.3980    0.0018 O   0  0  0  0  0  0  0  0  0  0  0  0
    1.8863    2.0152    0.3205 C   0  0  0  0  0  0  0  0  0  0  0  0
    0.6127    1.3914   -0.2343 C   0  0  0  0  0  0  0  0  0  0  0  0
    0.5185   -0.1004    0.0514 C   0  0  0  0  0  0  0  0  0  0  0  0
   -0.6879   -0.5847   -0.5134 O   0  0  0  0  0  0  0  0  0  0  0  0
   -0.8793   -1.9488   -0.3160 C   0  0  0  0  0  0  0  0  0  0  0  0
   -1.4950   -2.4285    0.9752 C   0  0  0  0  0  0  0  0  0  0  0  0
   -2.2931   -2.4278   -0.3152 C   0  0  0  0  0  0  0  0  0  0  0  0
    2.6664    3.7988    0.3487 H   0  0  0  0  0  0  0  0  0  0  0  0
    2.7684    1.5197   -0.1182 H   0  0  0  0  0  0  0  0  0  0  0  0
    1.9366    1.8591    1.4110 H   0  0  0  0  0  0  0  0  0  0  0  0
   -0.2547    1.8999    0.1998 H   0  0  0  0  0  0  0  0  0  0  0  0
    0.5728    1.5570   -1.3161 H   0  0  0  0  0  0  0  0  0  0  0  0
    1.3807   -0.6341   -0.3842 H   0  0  0  0  0  0  0  0  0  0  0  0
    0.5345   -0.2948    1.1361 H   0  0  0  0  0  0  0  0  0  0  0  0
   -0.1192   -2.5801   -0.7797 H   0  0  0  0  0  0  0  0  0  0  0  0
   -1.1707   -3.3757    1.3922 H   0  0  0  0  0  0  0  0  0  0  0  0
   -1.7483   -1.6696    1.7071 H   0  0  0  0  0  0  0  0  0  0  0  0
   -3.0571   -1.6664   -0.4213 H   0  0  0  0  0  0  0  0  0  0  0  0
   -2.5208   -3.3735   -0.7937 H   0  0  0  0  0  0  0  0  0  0  0  0
  1  2  1  0  0  0  0
  1  9  1  0  0  0  0
  2 11  1  0  0  0  0
  3  4  1  0  0  0  0
  3 12  1  0  0  0  0
  3  2  1  0  0  0  0
  4 15  1  0  0  0  0
  5  6  1  0  0  0  0
  5  4  1  0  0  0  0
  6  8  1  0  0  0  0
  6  7  1  0  0  0  0
  7 17  1  0  0  0  0
  7 18  1  0  0  0  0
  8  7  1  0  0  0  0
 10  2  1  0  0  0  0
 13  3  1  0  0  0  0
 14  4  1  0  0  0  0
 16  6  1  0  0  0  0
 19  8  1  0  0  0  0
 20  8  1  0  0  0  0
M  END
