21
title
O 1.9707332 3.4361005 -0.04042145
C 1.9960201 2.0187423 0.043475017
C 0.5814269 1.5074168 -0.1939634
C 0.4802685 -0.018001068 -0.117658764
C -0.9385683 -0.52888036 -0.36787778
N -0.98736256 -1.9862812 -0.31211054
C -1.2459793 -2.5723403 0.99927163
C -2.293867 -2.580352 -0.058546517
H 2.8647046 3.7614095 0.098891735
H 2.6777923 1.5867118 -0.7075241
H 2.350648 1.6845342 1.0327613
H -0.0819411 1.9713502 0.54664016
H 0.24619594 1.8624033 -1.1765194
H 1.1508893 -0.482332 -0.8508401
H 0.81491536 -0.364681 0.86925584
H -1.6349971 -0.06610297 0.3573705
H -1.2723598 -0.22215532 -1.3671889
H -0.69023937 -3.4750035 1.2365267
H -1.3969214 -1.8953888 1.8395962
H -3.1420426 -1.9110131 0.079662815
H -2.5173545 -3.4888723 -0.61073506
