title
 OpenBabel02282110003D

 20 20  0  0  0  0  0  0  0  0999 V2000
    0.3230    3.3726    0.6160 C   0  0  0  0  0  0  0  0  0  0  0  0
    0.3005    1.9699    0.7089 O   0  0  0  0  0  0  0  0  0  0  0  0
    1.2733    1.3525   -0.1013 C   0  0  0  0  0  0  0  0  0  0  0  0
    1.1248   -0.1510    0.0032 C   0  0  0  0  0  0  0  0  0  0  0  0
   -0.0422   -0.5457   -0.6926 O   0  0  0  0  0  0  0  0  0  0  0  0
   -0.3278   -1.9016   -0.5645 C   0  0  0  0  0  0  0  0  0  0  0  0
   -1.0798   -2.3825    0.6514 C   0  0  0  0  0  0  0  0  0  0  0  0
   -1.7625   -2.2916   -0.7004 C   0  0  0  0  0  0  0  0  0  0  0  0
    1.2925    3.7904    0.9336 H   0  0  0  0  0  0  0  0  0  0  0  0
    0.1231    3.7186   -0.4107 H   0  0  0  0  0  0  0  0  0  0  0  0
   -0.4585    3.7575    1.2758 H   0  0  0  0  0  0  0  0  0  0  0  0
    1.1587    1.6574   -1.1546 H   0  0  0  0  0  0  0  0  0  0  0  0
    2.2895    1.6396    0.2211 H   0  0  0  0  0  0  0  0  0  0  0  0
    2.0162   -0.6344   -0.4306 H   0  0  0  0  0  0  0  0  0  0  0  0
    1.0643   -0.4416    1.0622 H   0  0  0  0  0  0  0  0  0  0  0  0
    0.4311   -2.5633   -0.9865 H   0  0  0  0  0  0  0  0  0  0  0  0
   -0.8489   -3.3609    1.0584 H   0  0  0  0  0  0  0  0  0  0  0  0
   -1.3481   -1.6313    1.3859 H   0  0  0  0  0  0  0  0  0  0  0  0
   -2.4670   -1.4802   -0.8420 H   0  0  0  0  0  0  0  0  0  0  0  0
   -2.0038   -3.2057   -1.2310 H   0  0  0  0  0  0  0  0  0  0  0  0
  1  2  1  0  0  0  0
  1  9  1  0  0  0  0
  1 11  1  0  0  0  0
  3  4  1  0  0  0  0
  3 13  1  0  0  0  0
  3  2  1  0  0  0  0
  4 15  1  0  0  0  0
  5  6  1  0  0  0  0
  5  4  1  0  0  0  0
  6  7  1  0  0  0  0
  7 17  1  0  0  0  0
  7 18  1  0  0  0  0
  8  6  1  0  0  0  0
  8  7  1  0  0  0  0
 10  1  1  0  0  0  0
 12  3  1  0  0  0  0
 14  4  1  0  0  0  0
 16  6  1  0  0  0  0
 19  8  1  0  0  0  0
 20  8  1  0  0  0  0
M  END
