14
title
C -1.4636649 1.2748299 -0.6504772
C -1.3302583 -0.22874078 -0.6044857
C 0.0005282008 -0.913986 -0.8519835
C 1.1828704 -0.1410909 -1.11114
N 2.1328607 0.47561002 -1.343775
C -0.6332694 -0.927394 0.5478589
C -0.05348386 -0.1672501 1.6195353
N 0.39407012 0.43881518 2.496633
H -0.5794488 1.7719196 -0.2454728
H -1.6004344 1.6113663 -1.6822292
H -2.3315022 1.5959064 -0.06717316
H -2.1809816 -0.7791073 -0.99493694
H -0.019629017 -1.8674636 -1.368987
H -1.0281951 -1.8888013 0.8585809
