14
title
N 1.2588422 1.177245 0.9541216
C 1.1875465 -0.23784432 0.82206434
C -0.15606935 -0.92295325 0.83846164
C -1.3589948 -0.1479272 0.88884324
C -2.3601644 0.5161101 0.9380977
C 0.69430256 -0.9562691 -0.45001832
C 0.31320906 -0.16882582 -1.5815235
N 0.03736095 0.4869118 -2.494361
H 1.9643271 1.5757885 0.34368652
H 0.3690759 1.6150786 0.73854536
H 1.985084 -0.7686513 1.3350232
H -0.20194133 -1.8752649 1.3577766
H -3.2517207 1.0926405 0.97134405
H 1.1437178 -1.9136341 -0.6917995
