15
title
C -1.5685241 0.98933834 -0.5646352
N -1.3052553 -0.4440076 -0.4806323
C 0.04123709 -0.93273634 -0.8015545
C 1.1062741 -0.05191103 -1.1884212
C 1.9976704 0.6650569 -1.5593797
C -0.48009536 -0.9447181 0.6253841
C 0.07990358 -0.07544849 1.6206709
C 0.51824987 0.6311783 2.4894462
H -0.72911835 1.6226051 -0.2539237
H -1.8249753 1.2282165 -1.6004579
H -2.4319768 1.2144887 0.06742935
H 0.03695688 -1.8876468 -1.3238646
H 2.790028 1.2984108 -1.8736492
H -0.81487244 -1.9072272 1.007723
H 0.91789055 1.2555691 3.249812
