13
title
O 1.2492304 1.1210748 0.8857022
C 1.165457 -0.24921568 0.8153903
C -0.17474638 -0.9535164 0.83015096
C -1.3479186 -0.1370823 0.8806935
C -2.288966 0.6108171 0.93446195
C 0.6969359 -0.9584006 -0.45255
C 0.29553813 -0.18154876 -1.586359
N -0.018625846 0.45178896 -2.501769
H 0.36088383 1.4963665 0.8070658
H 1.983683 -0.7273033 1.3438417
H -0.2333288 -1.9076049 1.3440101
H -3.1431227 1.2422242 0.9628381
H 1.167844 -1.9056306 -0.6930384
