title
 OpenBabel02282110003D

 14 14  0  0  1  0  0  0  0  0999 V2000
   -1.4637    1.2748   -0.6505 C   0  0  0  0  0  0  0  0  0  0  0  0
   -1.3303   -0.2287   -0.6045 C   0  0  1  0  0  0  0  0  0  0  0  0
    0.0005   -0.9140   -0.8520 C   0  0  1  0  0  0  0  0  0  0  0  0
    1.1829   -0.1411   -1.1111 C   0  0  0  0  0  0  0  0  0  0  0  0
    2.1329    0.4756   -1.3438 N   0  0  0  0  0  0  0  0  0  0  0  0
   -0.6333   -0.9274    0.5479 C   0  0  1  0  0  0  0  0  0  0  0  0
   -0.0535   -0.1673    1.6195 C   0  0  0  0  0  0  0  0  0  0  0  0
    0.3941    0.4388    2.4966 N   0  0  0  0  0  0  0  0  0  0  0  0
   -0.5794    1.7719   -0.2455 H   0  0  0  0  0  0  0  0  0  0  0  0
   -1.6004    1.6114   -1.6822 H   0  0  0  0  0  0  0  0  0  0  0  0
   -2.3315    1.5959   -0.0672 H   0  0  0  0  0  0  0  0  0  0  0  0
   -2.1810   -0.7791   -0.9949 H   0  0  0  0  0  0  0  0  0  0  0  0
   -0.0196   -1.8675   -1.3690 H   0  0  0  0  0  0  0  0  0  0  0  0
   -1.0282   -1.8888    0.8586 H   0  0  0  0  0  0  0  0  0  0  0  0
  1  2  1  0  0  0  0
  1  9  1  0  0  0  0
  1 11  1  0  0  0  0
  2  6  1  1  0  0  0
  3  2  1  6  0  0  0
  4  3  1  0  0  0  0
  5  4  3  0  0  0  0
  6  3  1  6  0  0  0
  6 14  1  0  0  0  0
  6  7  1  0  0  0  0
  7  8  3  0  0  0  0
 10  1  1  0  0  0  0
 12  2  1  0  0  0  0
 13  3  1  0  0  0  0
M  END
