title
 OpenBabel02282110003D

 16 16  0  0  1  0  0  0  0  0999 V2000
   -1.4866    1.2502   -0.6643 C   0  0  0  0  0  0  0  0  0  0  0  0
   -1.3254   -0.2491   -0.6067 C   0  0  1  0  0  0  0  0  0  0  0  0
    0.0200   -0.9107   -0.8490 C   0  0  1  0  0  0  0  0  0  0  0  0
    1.1961   -0.1397   -1.1141 C   0  0  0  0  0  0  0  0  0  0  0  0
    2.1897    0.4930   -1.3572 C   0  0  0  0  0  0  0  0  0  0  0  0
   -0.6203   -0.9257    0.5559 C   0  0  1  0  0  0  0  0  0  0  0  0
   -0.0549   -0.1690    1.6310 C   0  0  0  0  0  0  0  0  0  0  0  0
    0.4085    0.4512    2.5514 C   0  0  0  0  0  0  0  0  0  0  0  0
   -0.6108    1.7600   -0.2585 H   0  0  0  0  0  0  0  0  0  0  0  0
   -1.6245    1.5820   -1.6984 H   0  0  0  0  0  0  0  0  0  0  0  0
   -2.3614    1.5646   -0.0861 H   0  0  0  0  0  0  0  0  0  0  0  0
   -2.1689   -0.8119   -0.9971 H   0  0  0  0  0  0  0  0  0  0  0  0
   -0.0100   -1.8708   -1.3564 H   0  0  0  0  0  0  0  0  0  0  0  0
    3.0687    1.0517   -1.5625 H   0  0  0  0  0  0  0  0  0  0  0  0
   -1.0152   -1.8943    0.8491 H   0  0  0  0  0  0  0  0  0  0  0  0
    0.8257    0.9988    3.3594 H   0  0  0  0  0  0  0  0  0  0  0  0
  1  2  1  0  0  0  0
  1  9  1  0  0  0  0
  1 11  1  0  0  0  0
  2  6  1  1  0  0  0
  3  2  1  6  0  0  0
  4  3  1  0  0  0  0
  5  4  3  0  0  0  0
  6  3  1  6  0  0  0
  6 15  1  0  0  0  0
  6  7  1  0  0  0  0
  7  8  3  0  0  0  0
  8 16  1  0  0  0  0
 10  1  1  0  0  0  0
 12  2  1  0  0  0  0
 13  3  1  0  0  0  0
 14  5  1  0  0  0  0
M  END
