14
title
O 1.2753533 1.1151662 -0.8756475
C 1.1548935 -0.25685483 -0.8202326
C 0.70237803 -0.96134716 0.44567084
C 0.34852374 -0.16162023 1.5756439
C 0.07130558 0.5543139 2.5025244
C -0.20013028 -0.94598955 -0.82353884
C -1.3941678 -0.16212185 -0.8471344
C -2.388585 0.51384455 -0.8788799
H 0.6896744 1.5039393 -0.21295458
H 1.9434783 -0.7322484 -1.3935295
H 1.1616232 -1.9194523 0.6686512
H -0.18601006 1.1627448 3.3339462
H -0.2528214 -1.8982108 -1.3433919
H -3.272837 1.1008605 -0.90575135
