16
title
C -1.4866327 1.2502196 -0.6642762
C -1.3253553 -0.24908602 -0.6066809
C 0.020000882 -0.91072947 -0.84904623
C 1.1960989 -0.13965291 -1.1141341
C 2.1896772 0.49302018 -1.3572077
C -0.6203118 -0.9257182 0.5559018
C -0.054934077 -0.16899173 1.6309572
C 0.40845877 0.45118874 2.551393
H -0.6108195 1.7600229 -0.25848728
H -1.6245204 1.5819873 -1.6983664
H -2.361425 1.5646348 -0.08608284
H -2.1688888 -0.81191313 -0.9971196
H -0.010005527 -1.8707861 -1.356439
H 3.068692 1.0516869 -1.5624716
H -1.015204 -1.8943102 0.8490667
H 0.82572156 0.9988323 3.359408
