14
title
O 1.2321397 1.2836816 0.7875157
C 1.2286633 -0.100515686 0.71539754
C -0.09344476 -0.85254896 0.6988388
C -1.3777984 -0.109647766 0.75589466
O -2.3621616 -0.54048777 1.3053718
C 0.8023207 -0.7790343 -0.5623414
C 0.45603824 0.05582772 -1.6738831
C 0.22962719 0.8072154 -2.5870218
H 1.2638646 1.637154 -0.11164709
H 2.0350535 -0.5636429 1.2788061
H -0.12237995 -1.8181825 1.191374
H -1.3755845 0.88225377 0.26348174
H 1.297542 -1.7105795 -0.8176362
H -0.0026187235 1.4389195 -3.4090786
