title
 OpenBabel02282110003D

 15 15  0  0  1  0  0  0  0  0999 V2000
   -1.4397    0.8831    0.9479 C   0  0  0  0  0  0  0  0  0  0  0  0
   -1.0933   -0.5329    0.8118 N   0  0  0  0  0  0  0  0  0  0  0  0
   -0.6191   -1.0709   -0.4639 C   0  0  1  0  0  0  0  0  0  0  0  0
   -0.3619   -0.2588   -1.6868 C   0  0  0  0  0  0  0  0  0  0  0  0
   -0.0700    0.9126   -1.7198 O   0  0  0  0  0  0  0  0  0  0  0  0
    0.2992   -0.9377    0.7530 C   0  0  1  0  0  0  0  0  0  0  0  0
    1.3850    0.0007    0.7766 C   0  0  0  0  0  0  0  0  0  0  0  0
    2.3135    0.7598    0.8589 C   0  0  0  0  0  0  0  0  0  0  0  0
   -0.7814    1.5654    0.4053 H   0  0  0  0  0  0  0  0  0  0  0  0
   -2.4636    1.0140    0.5870 H   0  0  0  0  0  0  0  0  0  0  0  0
   -1.4197    1.1230    2.0147 H   0  0  0  0  0  0  0  0  0  0  0  0
   -0.9900   -2.0714   -0.6814 H   0  0  0  0  0  0  0  0  0  0  0  0
   -0.4678   -0.8480   -2.6254 H   0  0  0  0  0  0  0  0  0  0  0  0
    0.5052   -1.8704    1.2761 H   0  0  0  0  0  0  0  0  0  0  0  0
    3.1281    1.4395    0.9109 H   0  0  0  0  0  0  0  0  0  0  0  0
  1 11  1  0  0  0  0
  2  1  1  0  0  0  0
  3  6  1  1  0  0  0
  3  2  1  0  0  0  0
  4  3  1  0  0  0  0
  5  4  2  0  0  0  0
  6  7  1  0  0  0  0
  6  2  1  0  0  0  0
  6 14  1  1  0  0  0
  7  8  3  0  0  0  0
  8 15  1  0  0  0  0
  9  1  1  0  0  0  0
 10  1  1  0  0  0  0
 12  3  1  0  0  0  0
 13  4  1  0  0  0  0
M  END
