14
title
C -1.454787 0.88462305 0.93772304
N -1.1049013 -0.5324623 0.80177027
C -0.62440264 -1.0791216 -0.4687878
C -0.38060495 -0.25522104 -1.6939666
O -0.033951364 0.8999523 -1.7031484
C 0.28278497 -0.93819475 0.74459493
C 1.3647989 0.019047527 0.754891
N 2.2536654 0.7532816 0.84022844
H -0.8028008 1.56751 0.387616
H -2.4820185 1.008993 0.58574766
H -1.4254259 1.1254886 2.0035877
H -0.992011 -2.0816503 -0.67994285
H -0.56143826 -0.81074196 -2.6396325
H 0.5175745 -1.8511623 1.2877825
