title
 OpenBabel02282110003D

 16 16  0  0  1  0  0  0  0  0999 V2000
   -1.4982    1.5665   -0.6691 C   0  0  0  0  0  0  0  0  0  0  0  0
   -1.3185    0.0621   -0.6009 C   0  0  1  0  0  0  0  0  0  0  0  0
   -0.0005   -0.6345   -0.8588 C   0  0  1  0  0  0  0  0  0  0  0  0
    1.2535    0.1072   -1.1438 C   0  0  0  0  0  0  0  0  0  0  0  0
    2.1112   -0.3169   -1.8791 O   0  0  0  0  0  0  0  0  0  0  0  0
   -0.6444   -0.6474    0.5529 C   0  0  1  0  0  0  0  0  0  0  0  0
   -0.0427    0.0812    1.6979 C   0  0  0  0  0  0  0  0  0  0  0  0
   -0.0326   -0.3599    2.8210 O   0  0  0  0  0  0  0  0  0  0  0  0
   -0.6477    2.1263   -0.2761 H   0  0  0  0  0  0  0  0  0  0  0  0
   -1.6480    1.8808   -1.7067 H   0  0  0  0  0  0  0  0  0  0  0  0
   -2.3821    1.8661   -0.0974 H   0  0  0  0  0  0  0  0  0  0  0  0
   -2.1712   -0.4845   -0.9948 H   0  0  0  0  0  0  0  0  0  0  0  0
   -0.0363   -1.5873   -1.3766 H   0  0  0  0  0  0  0  0  0  0  0  0
    1.3689    1.0958   -0.6518 H   0  0  0  0  0  0  0  0  0  0  0  0
   -1.0524   -1.6076    0.8509 H   0  0  0  0  0  0  0  0  0  0  0  0
    0.3976    1.0764    1.4775 H   0  0  0  0  0  0  0  0  0  0  0  0
  1  2  1  0  0  0  0
  1  9  1  0  0  0  0
  1 11  1  0  0  0  0
  2  6  1  1  0  0  0
  3  2  1  6  0  0  0
  4  3  1  0  0  0  0
  4 14  1  0  0  0  0
  5  4  2  0  0  0  0
  6  3  1  6  0  0  0
  6 15  1  0  0  0  0
  6  7  1  0  0  0  0
  7  8  2  0  0  0  0
 10  1  1  0  0  0  0
 12  2  1  0  0  0  0
 13  3  1  0  0  0  0
 16  7  1  0  0  0  0
M  END
