16
title
C -1.3884518 1.3911921 0.8850095
C -1.2305678 -0.109504804 0.77808845
C -0.59318423 -0.79696864 -0.42228347
C -0.02713409 -0.026801657 -1.5563924
O -0.13897958 -0.37000695 -2.7087297
C 0.10615513 -0.79018223 0.953715
C 1.3052155 -0.03249189 1.1706213
C 2.3130314 0.5891454 1.38287
H -0.48157343 1.9237479 0.59237045
H -2.2137048 1.7431735 0.258031
H -1.6102237 1.6692057 1.9202967
H -2.0660195 -0.67078435 1.18732
H -1.0247821 -1.7435528 -0.7291631
H 0.52193546 0.8976369 -1.2836492
H 0.09336373 -1.7538322 1.4547323
H 3.2070277 1.1334252 1.5626786
