13
title
O 1.2773633 1.2318085 0.71476394
C 1.2719533 -0.1513955 0.6515227
C -0.078202434 -0.8123664 0.72928244
C -1.3182449 0.015765708 0.8409349
O -2.2611823 -0.330947 1.5054244
C 0.7246403 -0.8345858 -0.58825976
C 0.33164096 -0.021230642 -1.7036402
N 0.056849528 0.63800925 -2.6136544
H 1.9341356 1.5747609 0.097729
H 2.0965464 -0.6563198 1.1533293
H -0.1418813 -1.7600166 1.2515538
H -1.3134527 0.9664744 0.27587602
H 1.1470058 -1.7954205 -0.8624622
