title
 OpenBabel02282110003D

 13 13  0  0  1  0  0  0  0  0999 V2000
    1.2774    1.2318    0.7148 O   0  0  0  0  0  0  0  0  0  0  0  0
    1.2720   -0.1514    0.6515 C   0  0  1  0  0  0  0  0  0  0  0  0
   -0.0782   -0.8124    0.7293 C   0  0  1  0  0  0  0  0  0  0  0  0
   -1.3182    0.0158    0.8409 C   0  0  0  0  0  0  0  0  0  0  0  0
   -2.2612   -0.3309    1.5054 O   0  0  0  0  0  0  0  0  0  0  0  0
    0.7246   -0.8346   -0.5883 C   0  0  1  0  0  0  0  0  0  0  0  0
    0.3316   -0.0212   -1.7036 C   0  0  0  0  0  0  0  0  0  0  0  0
    0.0568    0.6380   -2.6137 N   0  0  0  0  0  0  0  0  0  0  0  0
    1.9341    1.5748    0.0977 H   0  0  0  0  0  0  0  0  0  0  0  0
    2.0965   -0.6563    1.1533 H   0  0  0  0  0  0  0  0  0  0  0  0
   -0.1419   -1.7600    1.2516 H   0  0  0  0  0  0  0  0  0  0  0  0
   -1.3135    0.9665    0.2759 H   0  0  0  0  0  0  0  0  0  0  0  0
    1.1470   -1.7954   -0.8625 H   0  0  0  0  0  0  0  0  0  0  0  0
  2  6  1  6  0  0  0
  2  1  1  0  0  0  0
  2  3  1  0  0  0  0
  2 10  1  0  0  0  0
  3  6  1  6  0  0  0
  3  4  1  0  0  0  0
  3 11  1  0  0  0  0
  4  5  2  0  0  0  0
  6 13  1  6  0  0  0
  7  6  1  0  0  0  0
  8  7  3  0  0  0  0
  9  1  1  0  0  0  0
 12  4  1  0  0  0  0
M  END
