16
title
C -1.4982296 1.5664835 -0.66910875
C -1.3185208 0.06205677 -0.6008558
C -0.00048402336 -0.6345153 -0.85876966
C 1.2535415 0.10717389 -1.143818
O 2.1111665 -0.3169058 -1.8790765
C -0.6444265 -0.6473877 0.5529291
C -0.042670045 0.081241935 1.6978865
O -0.032614145 -0.35985327 2.8209639
H -0.6477393 2.1262805 -0.27605015
H -1.6480474 1.8808204 -1.7067138
H -2.3821242 1.8661437 -0.097433664
H -2.1711788 -0.4845392 -0.994777
H -0.03628138 -1.5872941 -1.3766339
H 1.3689458 1.0958077 -0.6517981
H -1.0523713 -1.6076107 0.85093194
H 0.39763996 1.0764076 1.4774983
