14
title
C -1.2040533 1.6733398 0.72959346
C -1.4416556 0.20168333 0.49231058
C -0.76083326 -0.54175234 -0.6510282
C 0.13676383 0.17507298 -1.5273142
N 0.8111979 0.75723505 -2.2636645
N -0.41096976 -0.78211904 0.7318674
C 0.83908594 -0.6155541 1.3143868
O 1.8808793 -0.92684036 0.800451
H -0.20661007 1.9792417 0.40375423
H -1.9412105 2.2633822 0.17698333
H -1.313727 1.9112793 1.7920302
H -2.443593 -0.14984444 0.7347912
H -1.2963732 -1.3508579 -1.141099
H 0.74998677 -0.23477525 2.3491619
