title
 OpenBabel02282110003D

 18 18  0  0  1  0  0  0  0  0999 V2000
   -0.2907    2.7282   -0.6632 C   0  0  0  0  0  0  0  0  0  0  0  0
    0.2137    1.3055   -0.9306 C   0  0  0  0  0  0  0  0  0  0  0  0
    0.8157    0.6784    0.3075 C   0  0  1  0  0  0  0  0  0  0  0  0
   -0.0498   -0.0275    1.3127 C   0  0  1  0  0  0  0  0  0  0  0  0
   -1.4147   -0.1501    1.0723 O   0  0  0  0  0  0  0  0  0  0  0  0
    0.9315   -0.8444    0.4713 C   0  0  1  0  0  0  0  0  0  0  0  0
    0.3739   -1.7406   -0.4938 C   0  0  0  0  0  0  0  0  0  0  0  0
   -0.1599   -2.5036   -1.2588 C   0  0  0  0  0  0  0  0  0  0  0  0
    0.5163    3.3790   -0.3082 H   0  0  0  0  0  0  0  0  0  0  0  0
   -0.7028    3.1757   -1.5729 H   0  0  0  0  0  0  0  0  0  0  0  0
   -1.0767    2.7202    0.0979 H   0  0  0  0  0  0  0  0  0  0  0  0
   -0.6137    0.6855   -1.2853 H   0  0  0  0  0  0  0  0  0  0  0  0
    0.9632    1.3145   -1.7313 H   0  0  0  0  0  0  0  0  0  0  0  0
    1.6618    1.2198    0.7251 H   0  0  0  0  0  0  0  0  0  0  0  0
    0.1880    0.0781    2.3690 H   0  0  0  0  0  0  0  0  0  0  0  0
   -1.5690   -0.9908    0.6216 H   0  0  0  0  0  0  0  0  0  0  0  0
    1.8192   -1.2104    0.9783 H   0  0  0  0  0  0  0  0  0  0  0  0
   -0.5897   -3.1738   -1.9616 H   0  0  0  0  0  0  0  0  0  0  0  0
  1  9  1  0  0  0  0
  1 11  1  0  0  0  0
  2  1  1  0  0  0  0
  2  3  1  0  0  0  0
  3  6  1  6  0  0  0
  3 14  1  0  0  0  0
  4  3  1  6  0  0  0
  4 15  1  0  0  0  0
  5  4  1  0  0  0  0
  6 17  1  0  0  0  0
  6  4  1  1  0  0  0
  7  6  1  0  0  0  0
  8  7  3  0  0  0  0
 10  1  1  0  0  0  0
 12  2  1  0  0  0  0
 13  2  1  0  0  0  0
 16  5  1  0  0  0  0
 18  8  1  0  0  0  0
M  END
