14
title
O 1.1737844 1.3963386 -0.89611036
C 1.1921318 0.005977274 -0.81213117
C 0.7205225 -0.67483944 0.45858243
C 0.340968 0.12333614 1.6513022
O 0.4828176 -0.2797936 2.7803154
C -0.14378683 -0.6665402 -0.83745116
C -1.4045079 0.124135144 -0.92871046
O -2.4055073 -0.3174402 -1.4363663
H 1.9680996 1.7395551 -0.47249883
H 1.9996042 -0.4850067 -1.3539916
H 1.158812 -1.6356292 0.70683676
H -0.062612705 1.1359607 1.449859
H -0.21325092 -1.626805 -1.3362703
H -1.3684621 1.1519487 -0.52064186
