title
 OpenBabel02282110003D

 20 20  0  0  1  0  0  0  0  0999 V2000
   -0.7893    2.5159   -0.4399 C   0  0  0  0  0  0  0  0  0  0  0  0
   -1.2315    1.0711   -0.1787 C   0  0  0  0  0  0  0  0  0  0  0  0
   -0.4483    0.4269    0.9463 C   0  0  1  0  0  0  0  0  0  0  0  0
   -0.3190   -1.0609    1.1289 C   0  0  1  0  0  0  0  0  0  0  0  0
   -0.9638   -2.0699    0.2053 C   0  0  0  0  0  0  0  0  0  0  0  0
    0.9043   -0.2475    0.6969 C   0  0  1  0  0  0  0  0  0  0  0  0
    1.4315   -0.3621   -0.6303 C   0  0  0  0  0  0  0  0  0  0  0  0
    1.8880   -0.4550   -1.7408 C   0  0  0  0  0  0  0  0  0  0  0  0
    0.2603    2.5502   -0.7475 H   0  0  0  0  0  0  0  0  0  0  0  0
   -1.3891    2.9753   -1.2316 H   0  0  0  0  0  0  0  0  0  0  0  0
   -0.8962    3.1323    0.4598 H   0  0  0  0  0  0  0  0  0  0  0  0
   -2.2994    1.0508    0.0752 H   0  0  0  0  0  0  0  0  0  0  0  0
   -1.1193    0.4892   -1.0981 H   0  0  0  0  0  0  0  0  0  0  0  0
   -0.4772    1.0005    1.8707 H   0  0  0  0  0  0  0  0  0  0  0  0
   -0.2720   -1.3882    2.1647 H   0  0  0  0  0  0  0  0  0  0  0  0
   -0.8770   -1.7798   -0.8436 H   0  0  0  0  0  0  0  0  0  0  0  0
   -0.4841   -3.0484    0.3130 H   0  0  0  0  0  0  0  0  0  0  0  0
   -2.0268   -2.1915    0.4403 H   0  0  0  0  0  0  0  0  0  0  0  0
    1.6612   -0.0899    1.4600 H   0  0  0  0  0  0  0  0  0  0  0  0
    2.2949   -0.5380   -2.7177 H   0  0  0  0  0  0  0  0  0  0  0  0
  1  2  1  0  0  0  0
  1 11  1  0  0  0  0
  2 12  1  0  0  0  0
  2  3  1  0  0  0  0
  3  6  1  6  0  0  0
  3  4  1  0  0  0  0
  3 14  1  0  0  0  0
  4  6  1  6  0  0  0
  4 15  1  0  0  0  0
  5 17  1  0  0  0  0
  5 18  1  0  0  0  0
  5  4  1  0  0  0  0
  6 19  1  1  0  0  0
  7  6  1  0  0  0  0
  8  7  3  0  0  0  0
  9  1  1  0  0  0  0
 10  1  1  0  0  0  0
 13  2  1  0  0  0  0
 16  5  1  0  0  0  0
 20  8  1  0  0  0  0
M  END
