17
title
C -1.4601325 1.4864769 1.030054
C -1.3958114 -0.011405282 0.8221369
C -0.8544392 -0.6662408 -0.41782066
C -0.27248934 0.10405138 -1.5873107
O 0.73529965 -0.6313012 -2.2582457
C -0.07490483 -0.7782186 0.89559644
C 1.1688026 -0.073417805 1.0145667
N 2.1788208 0.49043173 1.0750979
H -0.5618829 1.9969707 0.6765967
H -2.3227468 1.9112508 0.50665766
H -1.5679116 1.7154977 2.0948324
H -2.2142813 -0.54989105 1.2925524
H -1.3294845 -1.5964522 -0.7162163
H -1.0617183 0.28136536 -2.3257096
H 0.09785804 1.0854992 -1.2661365
H 1.518 -0.62995815 -1.6961144
H -0.080976754 -1.738997 1.3985946
