title
 OpenBabel02282110003D

 15 15  0  0  1  0  0  0  0  0999 V2000
   -0.8585    1.8819    0.9995 C   0  0  0  0  0  0  0  0  0  0  0  0
   -1.3206    0.4991    0.5969 C   0  0  1  0  0  0  0  0  0  0  0  0
   -0.7409   -0.2711   -0.5917 C   0  0  1  0  0  0  0  0  0  0  0  0
    0.3620    0.3125   -1.4177 C   0  0  0  0  0  0  0  0  0  0  0  0
    0.3702    0.2343   -2.6195 O   0  0  0  0  0  0  0  0  0  0  0  0
   -0.5010   -0.6683    0.7792 N   0  0  0  0  0  0  0  0  0  0  0  0
    0.7198   -0.8111    1.4114 C   0  0  0  0  0  0  0  0  0  0  0  0
    1.7148   -1.2637    0.9007 O   0  0  0  0  0  0  0  0  0  0  0  0
    0.2120    2.0289    0.8398 H   0  0  0  0  0  0  0  0  0  0  0  0
   -1.3996    2.6399    0.4250 H   0  0  0  0  0  0  0  0  0  0  0  0
   -1.0697    2.0561    2.0592 H   0  0  0  0  0  0  0  0  0  0  0  0
   -2.3804    0.3170    0.7730 H   0  0  0  0  0  0  0  0  0  0  0  0
   -1.4128   -0.9081   -1.1621 H   0  0  0  0  0  0  0  0  0  0  0  0
    1.1688    0.8274   -0.8600 H   0  0  0  0  0  0  0  0  0  0  0  0
    0.6531   -0.5351    2.4807 H   0  0  0  0  0  0  0  0  0  0  0  0
  1 11  1  0  0  0  0
  2  3  1  6  0  0  0
  2 12  1  0  0  0  0
  2  6  1  0  0  0  0
  2  1  1  0  0  0  0
  3 13  1  6  0  0  0
  3  6  1  0  0  0  0
  4 14  1  0  0  0  0
  4  3  1  0  0  0  0
  5  4  2  0  0  0  0
  6  7  1  0  0  0  0
  7 15  1  0  0  0  0
  8  7  2  0  0  0  0
  9  1  1  0  0  0  0
 10  1  1  0  0  0  0
M  END
