19
title
C 1.0761492 1.5548598 -1.9336704
C 0.85302377 1.3060147 -0.43691826
C -0.5828034 0.9164137 -0.14931537
C -1.0295792 -0.5258622 -0.1156274
C -0.07605196 -1.586436 -0.28921896
C 0.69454706 -2.5001016 -0.4332723
N -1.039994 0.31865263 1.0960158
C -0.09690792 0.03880895 2.1716812
H 2.1015973 1.8821895 -2.1287532
H 0.89697546 0.64221597 -2.5104594
H 0.40065008 2.3297064 -2.3124998
H 1.5388764 0.52795553 -0.092803694
H 1.0919951 2.2157683 0.12910429
H -1.3079439 1.6193547 -0.56313026
H -2.0261328 -0.7649622 -0.48219657
H 1.3729422 -3.3063908 -0.5648937
H 0.8608899 -0.39124084 1.8526719
H 0.097812824 0.9701809 2.7122798
H -0.56591517 -0.664242 2.8666856
