title
 OpenBabel02282110003D

 17 17  0  0  1  0  0  0  0  0999 V2000
   -1.4601    1.4865    1.0301 C   0  0  0  0  0  0  0  0  0  0  0  0
   -1.3958   -0.0114    0.8221 C   0  0  1  0  0  0  0  0  0  0  0  0
   -0.8544   -0.6662   -0.4178 C   0  0  1  0  0  0  0  0  0  0  0  0
   -0.2725    0.1041   -1.5873 C   0  0  0  0  0  0  0  0  0  0  0  0
    0.7353   -0.6313   -2.2582 O   0  0  0  0  0  0  0  0  0  0  0  0
   -0.0749   -0.7782    0.8956 C   0  0  1  0  0  0  0  0  0  0  0  0
    1.1688   -0.0734    1.0146 C   0  0  0  0  0  0  0  0  0  0  0  0
    2.1788    0.4904    1.0751 N   0  0  0  0  0  0  0  0  0  0  0  0
   -0.5619    1.9970    0.6766 H   0  0  0  0  0  0  0  0  0  0  0  0
   -2.3227    1.9113    0.5067 H   0  0  0  0  0  0  0  0  0  0  0  0
   -1.5679    1.7155    2.0948 H   0  0  0  0  0  0  0  0  0  0  0  0
   -2.2143   -0.5499    1.2926 H   0  0  0  0  0  0  0  0  0  0  0  0
   -1.3295   -1.5965   -0.7162 H   0  0  0  0  0  0  0  0  0  0  0  0
   -1.0617    0.2814   -2.3257 H   0  0  0  0  0  0  0  0  0  0  0  0
    0.0979    1.0855   -1.2661 H   0  0  0  0  0  0  0  0  0  0  0  0
    1.5180   -0.6300   -1.6961 H   0  0  0  0  0  0  0  0  0  0  0  0
   -0.0810   -1.7390    1.3986 H   0  0  0  0  0  0  0  0  0  0  0  0
  1 11  1  0  0  0  0
  2  3  1  6  0  0  0
  2  1  1  0  0  0  0
  2 12  1  0  0  0  0
  3  6  1  1  0  0  0
  4 15  1  0  0  0  0
  4  3  1  0  0  0  0
  5 16  1  0  0  0  0
  5  4  1  0  0  0  0
  6  2  1  1  0  0  0
  6  7  1  0  0  0  0
  6 17  1  0  0  0  0
  7  8  3  0  0  0  0
  9  1  1  0  0  0  0
 10  1  1  0  0  0  0
 13  3  1  0  0  0  0
 14  4  1  0  0  0  0
M  END
