18
title
C 1.1171952 1.5384276 1.9303643
C -0.06802768 1.2814058 0.9917105
C 0.39502162 0.9433566 -0.41122714
C 0.62496835 -0.47999004 -0.8641038
C 0.31784326 -1.5585442 0.042536173
N 0.066472195 -2.4352221 0.75530785
N -0.44611278 0.34857818 -1.4356871
C -1.8406254 0.016719544 -1.1595533
H 1.7293924 0.63870126 2.0458875
H 1.7613677 2.3373237 1.5473353
H 0.7690025 1.8370659 2.9229124
H -0.6893289 0.48016235 1.4003167
H -0.70005304 2.17699 0.93893945
H 1.0978565 1.6699555 -0.82095706
H 1.4409492 -0.7074769 -1.5453792
H -2.027663 -0.4285119 -0.17431065
H -2.4336655 0.93107796 -1.2510374
H -2.1828673 -0.6892906 -1.9213202
