title
 OpenBabel02282110003D

 18 18  0  0  1  0  0  0  0  0999 V2000
   -1.5135    1.4537    1.0079 C   0  0  0  0  0  0  0  0  0  0  0  0
   -1.4100   -0.0420    0.8041 C   0  0  1  0  0  0  0  0  0  0  0  0
   -0.8428   -0.6864   -0.4329 C   0  0  1  0  0  0  0  0  0  0  0  0
   -0.2590    0.0957   -1.5911 C   0  0  0  0  0  0  0  0  0  0  0  0
    0.8242   -0.5888   -2.1997 O   0  0  0  0  0  0  0  0  0  0  0  0
   -0.0702   -0.7744    0.8864 C   0  0  1  0  0  0  0  0  0  0  0  0
    1.1645   -0.0601    1.0304 C   0  0  0  0  0  0  0  0  0  0  0  0
    2.2156    0.5208    1.1270 C   0  0  0  0  0  0  0  0  0  0  0  0
   -0.6144    1.9792    0.6803 H   0  0  0  0  0  0  0  0  0  0  0  0
   -2.3698    1.8652    0.4629 H   0  0  0  0  0  0  0  0  0  0  0  0
   -1.6538    1.6809    2.0698 H   0  0  0  0  0  0  0  0  0  0  0  0
   -2.2251   -0.5972    1.2614 H   0  0  0  0  0  0  0  0  0  0  0  0
   -1.3004   -1.6238   -0.7370 H   0  0  0  0  0  0  0  0  0  0  0  0
   -1.0175    0.2166   -2.3721 H   0  0  0  0  0  0  0  0  0  0  0  0
    0.0404    1.1015   -1.2704 H   0  0  0  0  0  0  0  0  0  0  0  0
    1.5313   -0.6194   -1.5445 H   0  0  0  0  0  0  0  0  0  0  0  0
   -0.0843   -1.7404    1.3825 H   0  0  0  0  0  0  0  0  0  0  0  0
    3.1363    1.0384    1.2367 H   0  0  0  0  0  0  0  0  0  0  0  0
  1 11  1  0  0  0  0
  2  3  1  6  0  0  0
  2  1  1  0  0  0  0
  2 12  1  0  0  0  0
  3  6  1  1  0  0  0
  4 15  1  0  0  0  0
  4  3  1  0  0  0  0
  5  4  1  0  0  0  0
  5 16  1  0  0  0  0
  6  2  1  1  0  0  0
  6  7  1  0  0  0  0
  6 17  1  0  0  0  0
  7  8  3  0  0  0  0
  8 18  1  0  0  0  0
  9  1  1  0  0  0  0
 10  1  1  0  0  0  0
 13  3  1  0  0  0  0
 14  4  1  0  0  0  0
M  END
