title
 OpenBabel02282110003D

 19 19  0  0  1  0  0  0  0  0999 V2000
   -0.0528    2.5146    0.8913 C   0  0  0  0  0  0  0  0  0  0  0  0
    0.4317    1.0854    1.1616 C   0  0  0  0  0  0  0  0  0  0  0  0
    1.0486    0.4446   -0.0651 C   0  0  1  0  0  0  0  0  0  0  0  0
    1.1649   -1.0396   -0.2674 C   0  0  1  0  0  0  0  0  0  0  0  0
    0.6807   -2.0600    0.7386 C   0  0  0  0  0  0  0  0  0  0  0  0
    0.1856   -0.2395   -1.1306 C   0  0  1  0  0  0  0  0  0  0  0  0
   -1.2265   -0.3765   -0.9190 C   0  0  0  0  0  0  0  0  0  0  0  0
   -2.3661   -0.4848   -0.7442 N   0  0  0  0  0  0  0  0  0  0  0  0
    0.7660    3.1512    0.5379 H   0  0  0  0  0  0  0  0  0  0  0  0
   -0.8387    2.5234    0.1299 H   0  0  0  0  0  0  0  0  0  0  0  0
   -0.4604    2.9679    1.7995 H   0  0  0  0  0  0  0  0  0  0  0  0
    1.1805    1.0924    1.9639 H   0  0  0  0  0  0  0  0  0  0  0  0
   -0.4055    0.4826    1.5260 H   0  0  0  0  0  0  0  0  0  0  0  0
    1.8576    1.0307   -0.4956 H   0  0  0  0  0  0  0  0  0  0  0  0
    2.0466   -1.3557   -0.8187 H   0  0  0  0  0  0  0  0  0  0  0  0
   -0.2674   -1.7734    1.1983 H   0  0  0  0  0  0  0  0  0  0  0  0
    0.5292   -3.0305    0.2556 H   0  0  0  0  0  0  0  0  0  0  0  0
    1.4189   -2.1940    1.5362 H   0  0  0  0  0  0  0  0  0  0  0  0
    0.4538   -0.0791   -2.1693 H   0  0  0  0  0  0  0  0  0  0  0  0
  1  2  1  0  0  0  0
  1 11  1  0  0  0  0
  2 13  1  0  0  0  0
  2 12  1  0  0  0  0
  3  6  1  6  0  0  0
  3  2  1  0  0  0  0
  4  6  1  6  0  0  0
  4  3  1  0  0  0  0
  4  5  1  0  0  0  0
  5 16  1  0  0  0  0
  5 18  1  0  0  0  0
  6 19  1  6  0  0  0
  6  7  1  0  0  0  0
  7  8  3  0  0  0  0
  9  1  1  0  0  0  0
 10  1  1  0  0  0  0
 14  3  1  0  0  0  0
 15  4  1  0  0  0  0
 17  5  1  0  0  0  0
M  END
