title
 OpenBabel02282110003D

 17 17  0  0  1  0  0  0  0  0999 V2000
    0.7648    2.3940   -0.8326 C   0  0  0  0  0  0  0  0  0  0  0  0
    0.3937    1.4680    0.2327 N   0  0  0  0  0  0  0  0  0  0  0  0
   -0.8146    0.7423    0.0129 C   0  0  1  0  0  0  0  0  0  0  0  0
   -0.9372   -0.4458   -0.9056 C   0  0  1  0  0  0  0  0  0  0  0  0
    0.1729   -0.8726   -1.6935 N   0  0  0  0  0  0  0  0  0  0  0  0
   -0.9998   -0.6334    0.6449 C   0  0  1  0  0  0  0  0  0  0  0  0
    0.1250   -1.2521    1.2720 C   0  0  0  0  0  0  0  0  0  0  0  0
    1.0678   -1.7449    1.7316 N   0  0  0  0  0  0  0  0  0  0  0  0
    1.6954    2.8975   -0.5581 H   0  0  0  0  0  0  0  0  0  0  0  0
    0.8940    1.9249   -1.8199 H   0  0  0  0  0  0  0  0  0  0  0  0
   -0.0105    3.1627   -0.9294 H   0  0  0  0  0  0  0  0  0  0  0  0
    1.1613    0.8798    0.5305 H   0  0  0  0  0  0  0  0  0  0  0  0
   -1.6969    1.3773    0.0695 H   0  0  0  0  0  0  0  0  0  0  0  0
   -1.8970   -0.5869   -1.3947 H   0  0  0  0  0  0  0  0  0  0  0  0
    1.0486   -0.5350   -1.3091 H   0  0  0  0  0  0  0  0  0  0  0  0
    0.2365   -1.8852   -1.7332 H   0  0  0  0  0  0  0  0  0  0  0  0
   -1.9590   -0.8525    1.1006 H   0  0  0  0  0  0  0  0  0  0  0  0
  1  9  1  0  0  0  0
  1  2  1  0  0  0  0
  2 12  1  0  0  0  0
  3  4  1  6  0  0  0
  3 13  1  0  0  0  0
  3  2  1  0  0  0  0
  4  6  1  1  0  0  0
  5 15  1  0  0  0  0
  5  4  1  0  0  0  0
  6  3  1  1  0  0  0
  6 17  1  0  0  0  0
  6  7  1  0  0  0  0
  7  8  3  0  0  0  0
 10  1  1  0  0  0  0
 11  1  1  0  0  0  0
 14  4  1  0  0  0  0
 16  5  1  0  0  0  0
M  END
