17
title
C -0.5372599 2.7028239 0.57600665
C -0.95745516 1.2543297 0.3007297
C -0.1885127 0.6530509 -0.8573294
C 1.15781 0.036516655 -0.65621156
O 1.6467695 0.023590079 0.64147455
C -0.031614255 -0.86458933 -1.0170203
C -0.53081745 -1.760384 -0.01692093
N -0.9077813 -2.5016932 0.78838724
H 0.51888114 2.7526035 0.8567836
H -0.68379956 3.3377147 -0.30498686
H -1.1258364 3.1284463 1.3939962
H -0.8004814 0.6488923 1.1966966
H -2.0289025 1.2091905 0.07248839
H -0.32173806 1.1674801 -1.8057858
H 1.907577 0.15738784 -1.4376907
H 2.035671 -0.8389386 0.8248803
H -0.062099468 -1.2645804 -2.0251145
