title
 OpenBabel02282110003D

 18 18  0  0  1  0  0  0  0  0999 V2000
   -1.7180    2.1578    0.2444 C   0  0  0  0  0  0  0  0  0  0  0  0
   -0.5037    1.4008   -0.2870 C   0  0  0  0  0  0  0  0  0  0  0  0
    0.1445    0.6690    0.8046 N   0  0  0  0  0  0  0  0  0  0  0  0
   -0.2213   -0.7049    1.1166 C   0  0  1  0  0  0  0  0  0  0  0  0
   -1.2748   -1.4987    0.3766 C   0  0  0  0  0  0  0  0  0  0  0  0
    1.1186   -0.3857    0.4970 C   0  0  1  0  0  0  0  0  0  0  0  0
    1.3712   -0.7807   -0.8673 C   0  0  0  0  0  0  0  0  0  0  0  0
    1.5894   -1.0815   -1.9634 N   0  0  0  0  0  0  0  0  0  0  0  0
   -1.4298    2.8200    1.0654 H   0  0  0  0  0  0  0  0  0  0  0  0
   -2.1663    2.7609   -0.5507 H   0  0  0  0  0  0  0  0  0  0  0  0
   -2.4838    1.4701    0.6172 H   0  0  0  0  0  0  0  0  0  0  0  0
   -0.7940    0.7587   -1.1300 H   0  0  0  0  0  0  0  0  0  0  0  0
    0.2386    2.1072   -0.6741 H   0  0  0  0  0  0  0  0  0  0  0  0
   -0.1921   -0.9070    2.1868 H   0  0  0  0  0  0  0  0  0  0  0  0
   -1.1997   -1.3998   -0.7075 H   0  0  0  0  0  0  0  0  0  0  0  0
   -1.1673   -2.5604    0.6196 H   0  0  0  0  0  0  0  0  0  0  0  0
   -2.2775   -1.1870    0.6867 H   0  0  0  0  0  0  0  0  0  0  0  0
    2.0128   -0.3781    1.1154 H   0  0  0  0  0  0  0  0  0  0  0  0
  1 11  1  0  0  0  0
  1  9  1  0  0  0  0
  2  1  1  0  0  0  0
  2  3  1  0  0  0  0
  3  4  1  0  0  0  0
  4  6  1  6  0  0  0
  4 14  1  0  0  0  0
  5 16  1  0  0  0  0
  5 17  1  0  0  0  0
  5  4  1  0  0  0  0
  6  3  1  0  0  0  0
  6 18  1  1  0  0  0
  7  6  1  0  0  0  0
  8  7  3  0  0  0  0
 10  1  1  0  0  0  0
 12  2  1  0  0  0  0
 13  2  1  0  0  0  0
 15  5  1  0  0  0  0
M  END
