16
title
C -0.0237779 2.592494 0.7430332
N -0.649009 1.3799787 0.2133537
C 0.13409847 0.7420157 -0.79320854
C 1.2478399 -0.22167028 -0.4722113
O 1.4624517 -0.44556832 0.87914985
C -0.06471777 -0.7401507 -1.0968214
C -0.92273784 -1.5316619 -0.26797265
N -1.5887483 -2.180658 0.42177653
H 0.9689983 2.4256294 1.187656
H 0.08197823 3.3276536 -0.06260854
H -0.6790775 3.025896 1.5031354
H -0.83392024 0.7306801 0.9702172
H 0.27764 1.3613462 -1.6753279
H 2.1292603 -0.26254535 -1.111654
H 1.563038 -1.3916546 1.0349115
H -0.041679975 -1.0402323 -2.1388497
