title
 OpenBabel02282110003D

 17 17  0  0  1  0  0  0  0  0999 V2000
   -1.1593    1.6834    0.8686 C   0  0  0  0  0  0  0  0  0  0  0  0
   -1.3846    0.2528    0.4336 C   0  0  1  0  0  0  0  0  0  0  0  0
   -0.7786   -0.3745   -0.8061 C   0  0  1  0  0  0  0  0  0  0  0  0
    0.1436    0.3686   -1.7377 C   0  0  0  0  0  0  0  0  0  0  0  0
    1.0699   -0.5803   -2.2511 O   0  0  0  0  0  0  0  0  0  0  0  0
   -0.3402   -0.7413    0.5244 N   0  0  0  0  0  0  0  0  0  0  0  0
    0.9150   -0.6204    1.0805 C   0  0  0  0  0  0  0  0  0  0  0  0
    1.1487   -0.1085    2.1514 O   0  0  0  0  0  0  0  0  0  0  0  0
   -0.1837    2.0677    0.5675 H   0  0  0  0  0  0  0  0  0  0  0  0
   -1.9365    2.3287    0.4465 H   0  0  0  0  0  0  0  0  0  0  0  0
   -1.2096    1.7497    1.9586 H   0  0  0  0  0  0  0  0  0  0  0  0
   -2.3657   -0.1341    0.7093 H   0  0  0  0  0  0  0  0  0  0  0  0
   -1.3609   -1.1454   -1.3100 H   0  0  0  0  0  0  0  0  0  0  0  0
   -0.4545    0.8212   -2.5445 H   0  0  0  0  0  0  0  0  0  0  0  0
    0.6601    1.1800   -1.2074 H   0  0  0  0  0  0  0  0  0  0  0  0
    1.6599   -0.1272   -2.8611 H   0  0  0  0  0  0  0  0  0  0  0  0
    1.6817   -1.1145    0.4559 H   0  0  0  0  0  0  0  0  0  0  0  0
  1 11  1  0  0  0  0
  2  3  1  6  0  0  0
  2  6  1  0  0  0  0
  2 12  1  0  0  0  0
  2  1  1  0  0  0  0
  3 13  1  6  0  0  0
  3  6  1  0  0  0  0
  4 15  1  0  0  0  0
  4  3  1  0  0  0  0
  5  4  1  0  0  0  0
  6  7  1  0  0  0  0
  7  8  2  0  0  0  0
  9  1  1  0  0  0  0
 10  1  1  0  0  0  0
 14  4  1  0  0  0  0
 16  5  1  0  0  0  0
 17  7  1  0  0  0  0
M  END
