18
title
C -1.4469166 1.5937947 1.0873612
C -1.3374954 0.09804725 0.861418
C -0.9201102 -0.5284537 -0.43000048
C -0.51877517 0.24944383 -1.6659018
O 0.3408005 -0.49491674 -2.5127301
C 0.0018170843 -0.64587533 0.8002108
C 1.2957047 0.06468969 0.86776394
O 2.2949297 -0.40885442 1.3574415
H -0.7089955 2.1726768 0.5290026
H -2.4378586 1.9465578 0.7827921
H -1.3205359 1.8328063 2.148148
H -2.0919878 -0.46228674 1.4078454
H -1.4054415 -1.4679307 -0.6812903
H -1.4125901 0.4543374 -2.265382
H -0.080676936 1.2232245 -1.4083723
H 1.1247965 -0.7316555 -2.0055149
H 0.044165827 -1.6198777 1.276433
H 1.3173391 1.0871972 0.43113384
