15
title
C 0.095532246 2.4697297 0.77890044
O -0.48387325 1.2815773 0.2475366
C 0.27371505 0.73347473 -0.7775077
C 1.2657626 -0.31715292 -0.37403336
O 1.4336562 -0.609785 0.9648362
C -0.03142812 -0.7252585 -1.1067641
C -1.048244 -1.4136498 -0.37002435
N -1.8532876 -1.9819694 0.2360571
H 1.0956607 2.2807484 1.1881903
H 0.1655744 3.25019 0.008854838
H -0.568119 2.8111606 1.5750736
H 0.48184425 1.3999962 -1.6149745
H 2.1907856 -0.43746418 -0.92668456
H 0.6404906 -0.31375414 1.4322278
H 0.054539688 -1.0151792 -2.1485121
