title
 OpenBabel02282110003D

 16 16  0  0  1  0  0  0  0  0999 V2000
   -0.7770    2.3915   -0.2288 C   0  0  0  0  0  0  0  0  0  0  0  0
    0.1656    1.3595   -0.4881 O   0  0  0  0  0  0  0  0  0  0  0  0
    0.5803    0.7180    0.6641 C   0  0  1  0  0  0  0  0  0  0  0  0
   -0.3060   -0.3517    1.2491 C   0  0  1  0  0  0  0  0  0  0  0  0
   -1.5399   -0.6217    0.6762 O   0  0  0  0  0  0  0  0  0  0  0  0
    0.9809   -0.7485    0.5108 C   0  0  1  0  0  0  0  0  0  0  0  0
    0.8287   -1.3946   -0.7556 C   0  0  0  0  0  0  0  0  0  0  0  0
    0.6304   -1.9622   -1.7989 C   0  0  0  0  0  0  0  0  0  0  0  0
   -0.3466    3.1716    0.4165 H   0  0  0  0  0  0  0  0  0  0  0  0
   -1.0314    2.8334   -1.1946 H   0  0  0  0  0  0  0  0  0  0  0  0
   -1.6815    1.9918    0.2433 H   0  0  0  0  0  0  0  0  0  0  0  0
    1.1872    1.3203    1.3440 H   0  0  0  0  0  0  0  0  0  0  0  0
   -0.3229   -0.4910    2.3259 H   0  0  0  0  0  0  0  0  0  0  0  0
   -1.3887   -0.9461   -0.2222 H   0  0  0  0  0  0  0  0  0  0  0  0
    1.8151   -1.0863    1.1177 H   0  0  0  0  0  0  0  0  0  0  0  0
    0.4973   -2.4467   -2.7344 H   0  0  0  0  0  0  0  0  0  0  0  0
  1 11  1  0  0  0  0
  1  9  1  0  0  0  0
  2  1  1  0  0  0  0
  2  3  1  0  0  0  0
  3  6  1  6  0  0  0
  3  4  1  0  0  0  0
  3 12  1  0  0  0  0
  4  6  1  6  0  0  0
  4 13  1  0  0  0  0
  5  4  1  0  0  0  0
  6 15  1  1  0  0  0
  7  6  1  0  0  0  0
  8  7  3  0  0  0  0
 10  1  1  0  0  0  0
 14  5  1  0  0  0  0
 16  8  1  0  0  0  0
M  END
