title
 OpenBabel02282110003D

 16 16  0  0  1  0  0  0  0  0999 V2000
    0.7595    2.3894   -0.1000 O   0  0  0  0  0  0  0  0  0  0  0  0
    0.6401    1.2773    0.7694 C   0  0  0  0  0  0  0  0  0  0  0  0
   -0.7328    0.6355    0.6697 C   0  0  1  0  0  0  0  0  0  0  0  0
   -1.1301    0.0209   -0.6387 C   0  0  1  0  0  0  0  0  0  0  0  0
   -0.1940    0.0317   -1.6769 O   0  0  0  0  0  0  0  0  0  0  0  0
   -0.8992   -0.8891    0.5631 C   0  0  1  0  0  0  0  0  0  0  0  0
    0.2284   -1.7691    0.5118 C   0  0  0  0  0  0  0  0  0  0  0  0
    1.1646   -2.5168    0.3836 C   0  0  0  0  0  0  0  0  0  0  0  0
    0.6704    2.0305   -0.9916 H   0  0  0  0  0  0  0  0  0  0  0  0
    1.4192    0.5290    0.5752 H   0  0  0  0  0  0  0  0  0  0  0  0
    0.8011    1.6557    1.7836 H   0  0  0  0  0  0  0  0  0  0  0  0
   -1.5245    1.1366    1.2183 H   0  0  0  0  0  0  0  0  0  0  0  0
   -2.1535    0.1303   -0.9883 H   0  0  0  0  0  0  0  0  0  0  0  0
    0.2916   -0.8042   -1.6605 H   0  0  0  0  0  0  0  0  0  0  0  0
   -1.7868   -1.3076    1.0277 H   0  0  0  0  0  0  0  0  0  0  0  0
    1.9940   -3.1773    0.3209 H   0  0  0  0  0  0  0  0  0  0  0  0
  1  2  1  0  0  0  0
  2 11  1  0  0  0  0
  3  4  1  6  0  0  0
  3  2  1  0  0  0  0
  3 12  1  0  0  0  0
  4  6  1  1  0  0  0
  5 14  1  0  0  0  0
  5  4  1  0  0  0  0
  6  3  1  1  0  0  0
  6 15  1  0  0  0  0
  7  6  1  0  0  0  0
  8  7  3  0  0  0  0
  9  1  1  0  0  0  0
 10  2  1  0  0  0  0
 13  4  1  0  0  0  0
 16  8  1  0  0  0  0
M  END
