19
title
C 1.1664244 1.516517 -1.9303603
C 0.9014244 1.2319262 -0.4473079
C -0.55976933 0.9305465 -0.18613549
C -1.1364831 -0.4840794 -0.18306893
C -0.2642412 -1.6572073 -0.4287013
O 0.8602015 -1.830605 -0.008443831
N -1.0745808 0.35586998 1.026813
C -0.19396529 0.007945157 2.1404316
H 2.2115335 1.7945502 -2.0932302
H 0.955745 0.6350199 -2.5447009
H 0.5412107 2.3371348 -2.299542
H 1.5289961 0.40477356 -0.1110056
H 1.176236 2.111371 0.15006095
H -1.2353927 1.6707177 -0.6200625
H -2.1456602 -0.6193335 -0.5684953
H -0.74683696 -2.428502 -1.0706111
H 0.7401629 -0.48470572 1.857301
H 0.02960751 0.9288844 2.6878188
H -0.74452764 -0.6570549 2.8124845
