title
 OpenBabel02282110003D

 15 15  0  0  1  0  0  0  0  0999 V2000
    0.7628    2.4346   -0.0413 O   0  0  0  0  0  0  0  0  0  0  0  0
    0.6875    1.2474    0.7249 C   0  0  0  0  0  0  0  0  0  0  0  0
   -0.7007    0.6313    0.6511 C   0  0  1  0  0  0  0  0  0  0  0  0
   -1.1522    0.0384   -0.6414 C   0  0  1  0  0  0  0  0  0  0  0  0
   -0.2282    0.0968   -1.6795 O   0  0  0  0  0  0  0  0  0  0  0  0
   -0.8886   -0.8878    0.5499 C   0  0  1  0  0  0  0  0  0  0  0  0
    0.2392   -1.7705    0.4907 C   0  0  0  0  0  0  0  0  0  0  0  0
    1.1317   -2.5037    0.4151 N   0  0  0  0  0  0  0  0  0  0  0  0
    0.6920    2.1653   -0.9645 H   0  0  0  0  0  0  0  0  0  0  0  0
    1.4435    0.5163    0.4148 H   0  0  0  0  0  0  0  0  0  0  0  0
    0.9078    1.5285    1.7591 H   0  0  0  0  0  0  0  0  0  0  0  0
   -1.4629    1.1395    1.2329 H   0  0  0  0  0  0  0  0  0  0  0  0
   -2.1942    0.1486   -0.9376 H   0  0  0  0  0  0  0  0  0  0  0  0
   -0.2175   -0.7415   -2.1548 H   0  0  0  0  0  0  0  0  0  0  0  0
   -1.7569   -1.3119    1.0430 H   0  0  0  0  0  0  0  0  0  0  0  0
  1  2  1  0  0  0  0
  2 11  1  0  0  0  0
  3  4  1  6  0  0  0
  3  2  1  0  0  0  0
  3 12  1  0  0  0  0
  4  6  1  1  0  0  0
  5  4  1  0  0  0  0
  6  3  1  1  0  0  0
  6 15  1  0  0  0  0
  7  6  1  0  0  0  0
  8  7  3  0  0  0  0
  9  1  1  0  0  0  0
 10  2  1  0  0  0  0
 13  4  1  0  0  0  0
 14  5  1  0  0  0  0
M  END
