15
title
O 0.7627771 2.434647 -0.041321903
C 0.6874705 1.2473887 0.7249076
C -0.700671 0.6313181 0.651099
C -1.1522009 0.03839133 -0.6414207
O -0.22816692 0.096758224 -1.6795325
C -0.8885787 -0.8877597 0.54987234
C 0.23924665 -1.7705398 0.4906988
N 1.1317438 -2.5037289 0.415112
H 0.69201285 2.1653304 -0.9645182
H 1.4434892 0.516333 0.41483957
H 0.9078274 1.528494 1.7590958
H -1.4628652 1.1394731 1.2328818
H -2.1941788 0.14860138 -0.93760026
H -0.21746765 -0.74154997 -2.1547632
H -1.7569124 -1.3118925 1.0429876
