17
title
C -1.8813337 -0.041550532 0.17799732
N -0.8080244 -1.0063319 0.4086813
C 0.4471345 -0.93073016 -0.29974243
C 0.7806071 0.11819355 -1.3425075
O 0.29141206 -0.2674473 -2.6213195
C 0.38504195 -0.6358308 1.1906922
C 0.6339428 0.73194736 1.7199626
O 0.27818707 1.7781304 1.223389
H -1.5613935 0.99644274 0.047834784
H -2.4403129 -0.37093374 -0.70473075
H -2.5635595 -0.080960825 1.0322547
H 0.85008013 -1.911479 -0.55392885
H 0.42880267 1.109612 -1.0439588
H 1.8694353 0.17363869 -1.4463564
H -0.6675763 -0.18971537 -2.606128
H 0.7198707 -1.4178878 1.8700553
H 1.1982348 0.7292358 2.6791222
