16
title
O 0.79078656 2.634232 -0.18763462
C 0.7980717 1.4083744 0.52372575
C -0.5748132 0.75880116 0.48923936
C -1.043424 0.09996124 -0.75370973
O -0.12929723 0.105619274 -1.8116807
C -0.78075844 -0.769738 0.48256704
C 0.35119924 -1.723628 0.50470716
O 0.33037302 -2.7641988 1.1197453
H 0.6513823 2.4110186 -1.1150432
H 1.5679637 0.73219806 0.13631292
H 1.0649227 1.6523327 1.5564786
H -1.3290788 1.3044204 1.0480317
H -2.0861192 0.21240754 -1.0465721
H -0.3028545 -0.6506874 -2.381927
H -1.651416 -1.137476 1.0156821
H 1.2336497 -1.4421015 -0.10565073
