title
 OpenBabel02282110003D

 17 17  0  0  1  0  0  0  0  0999 V2000
   -1.8813   -0.0416    0.1780 C   0  0  0  0  0  0  0  0  0  0  0  0
   -0.8080   -1.0063    0.4087 N   0  0  0  0  0  0  0  0  0  0  0  0
    0.4471   -0.9307   -0.2997 C   0  0  1  0  0  0  0  0  0  0  0  0
    0.7806    0.1182   -1.3425 C   0  0  0  0  0  0  0  0  0  0  0  0
    0.2914   -0.2674   -2.6213 O   0  0  0  0  0  0  0  0  0  0  0  0
    0.3850   -0.6358    1.1907 C   0  0  1  0  0  0  0  0  0  0  0  0
    0.6339    0.7319    1.7200 C   0  0  0  0  0  0  0  0  0  0  0  0
    0.2782    1.7781    1.2234 O   0  0  0  0  0  0  0  0  0  0  0  0
   -1.5614    0.9964    0.0478 H   0  0  0  0  0  0  0  0  0  0  0  0
   -2.4403   -0.3709   -0.7047 H   0  0  0  0  0  0  0  0  0  0  0  0
   -2.5636   -0.0810    1.0323 H   0  0  0  0  0  0  0  0  0  0  0  0
    0.8501   -1.9115   -0.5539 H   0  0  0  0  0  0  0  0  0  0  0  0
    0.4288    1.1096   -1.0440 H   0  0  0  0  0  0  0  0  0  0  0  0
    1.8694    0.1736   -1.4464 H   0  0  0  0  0  0  0  0  0  0  0  0
   -0.6676   -0.1897   -2.6061 H   0  0  0  0  0  0  0  0  0  0  0  0
    0.7199   -1.4179    1.8701 H   0  0  0  0  0  0  0  0  0  0  0  0
    1.1982    0.7292    2.6791 H   0  0  0  0  0  0  0  0  0  0  0  0
  1  2  1  0  0  0  0
  1 11  1  0  0  0  0
  2  6  1  0  0  0  0
  3  2  1  0  0  0  0
  3  6  1  1  0  0  0
  4 13  1  0  0  0  0
  4  3  1  0  0  0  0
  5 15  1  0  0  0  0
  5  4  1  0  0  0  0
  6  7  1  0  0  0  0
  6 16  1  1  0  0  0
  7 17  1  0  0  0  0
  8  7  2  0  0  0  0
  9  1  1  0  0  0  0
 10  1  1  0  0  0  0
 12  3  1  0  0  0  0
 14  4  1  0  0  0  0
M  END
