title
 OpenBabel02282110003D

 22 22  0  0  1  0  0  0  0  0999 V2000
    0.9621    2.5582   -0.7024 C   0  0  0  0  0  0  0  0  0  0  0  0
    0.9661    1.0775   -1.1023 C   0  0  0  0  0  0  0  0  0  0  0  0
   -0.4169    0.4610   -1.0151 C   0  0  1  0  0  0  0  0  0  0  0  0
   -0.6535   -1.0362   -0.8557 C   0  0  1  0  0  0  0  0  0  0  0  0
    0.4892   -2.0269   -0.7768 C   0  0  0  0  0  0  0  0  0  0  0  0
   -0.9461   -0.0763    0.2836 C   0  0  1  0  0  0  0  0  0  0  0  0
   -0.0824   -0.0211    1.3779 O   0  0  0  0  0  0  0  0  0  0  0  0
   -0.4529   -0.9053    2.4165 C   0  0  0  0  0  0  0  0  0  0  0  0
    1.9600    2.9978   -0.7994 H   0  0  0  0  0  0  0  0  0  0  0  0
    0.2797    3.1392   -1.3332 H   0  0  0  0  0  0  0  0  0  0  0  0
    0.6391    2.6732    0.3366 H   0  0  0  0  0  0  0  0  0  0  0  0
    1.3424    0.9714   -2.1280 H   0  0  0  0  0  0  0  0  0  0  0  0
    1.6605    0.5358   -0.4556 H   0  0  0  0  0  0  0  0  0  0  0  0
   -1.1551    0.9789   -1.6247 H   0  0  0  0  0  0  0  0  0  0  0  0
   -1.5312   -1.4158   -1.3738 H   0  0  0  0  0  0  0  0  0  0  0  0
    1.2605   -1.6968   -0.0778 H   0  0  0  0  0  0  0  0  0  0  0  0
    0.1304   -3.0045   -0.4363 H   0  0  0  0  0  0  0  0  0  0  0  0
    0.9603   -2.1729   -1.7552 H   0  0  0  0  0  0  0  0  0  0  0  0
   -1.9895    0.1121    0.5441 H   0  0  0  0  0  0  0  0  0  0  0  0
   -0.4429   -1.9531    2.0858 H   0  0  0  0  0  0  0  0  0  0  0  0
    0.2719   -0.7770    3.2241 H   0  0  0  0  0  0  0  0  0  0  0  0
   -1.4580   -0.6739    2.8012 H   0  0  0  0  0  0  0  0  0  0  0  0
  1 11  1  0  0  0  0
  2  3  1  0  0  0  0
  2  1  1  0  0  0  0
  2 13  1  0  0  0  0
  3  4  1  6  0  0  0
  4  5  1  0  0  0  0
  4  6  1  1  0  0  0
  5 17  1  0  0  0  0
  5 16  1  0  0  0  0
  6  3  1  6  0  0  0
  6 19  1  0  0  0  0
  6  7  1  0  0  0  0
  7  8  1  0  0  0  0
  8 22  1  0  0  0  0
  8 21  1  0  0  0  0
  9  1  1  0  0  0  0
 10  1  1  0  0  0  0
 12  2  1  0  0  0  0
 14  3  1  0  0  0  0
 15  4  1  0  0  0  0
 18  5  1  0  0  0  0
 20  8  1  0  0  0  0
M  END
