22
title
C 0.96210766 2.558184 -0.70242035
C 0.966088 1.077497 -1.1022819
C -0.41689318 0.46101183 -1.0150805
C -0.65347594 -1.0362351 -0.85565495
C 0.4891866 -2.0268807 -0.77681017
C -0.94610983 -0.07626766 0.28360674
O -0.08244221 -0.021068037 1.3778925
C -0.45289856 -0.9053008 2.4165132
H 1.9600018 2.9977932 -0.7994079
H 0.27967262 3.1392095 -1.3331617
H 0.63908386 2.673218 0.33660588
H 1.3423507 0.9714056 -2.1280253
H 1.6604625 0.5358112 -0.4555769
H -1.1551267 0.9789083 -1.6246502
H -1.531205 -1.4157603 -1.373785
H 1.2605221 -1.6967564 -0.07780757
H 0.1304424 -3.0044644 -0.43633446
H 0.9603362 -2.1728654 -1.7551806
H -1.989487 0.11212689 0.5441011
H -0.44290787 -1.9531128 2.085773
H 0.27194577 -0.77696234 3.2241073
H -1.4580103 -0.673878 2.8011878
