18
title
C 0.672522 2.394209 0.20358539
O 0.4962706 1.3534303 -0.74157923
C -0.7111398 0.68766177 -0.60693604
C -0.7859583 -0.6958615 -1.1344284
C 0.38988107 -1.347214 -1.8329302
C -0.8311571 -0.4782291 0.3931175
C 0.31202456 -0.84591526 1.2529157
O 0.19246829 -1.299602 2.3684082
H 1.6268681 2.8731697 -0.024079418
H -0.13122034 3.140898 0.1305762
H 0.69681543 2.0064929 1.2315329
H -1.5895311 1.3309697 -0.683279
H -1.7535685 -0.9777245 -1.5402905
H 1.34084 -0.9140405 -1.5208204
H 0.41520104 -2.4244406 -1.6422429
H 0.30355167 -1.199811 -2.9143534
H -1.7921833 -0.6170859 0.8773311
H 1.3170456 -0.67266446 0.8152346
