title
 OpenBabel02282110003D

 24 24  0  0  1  0  0  0  0  0999 V2000
    0.6080    2.9757    0.4972 C   0  0  0  0  0  0  0  0  0  0  0  0
   -0.1250    1.6605    0.7907 C   0  0  0  0  0  0  0  0  0  0  0  0
   -0.4715    0.8953   -0.4730 C   0  0  1  0  0  0  0  0  0  0  0  0
    0.4664   -0.1019   -1.1299 C   0  0  1  0  0  0  0  0  0  0  0  0
    1.8390   -0.4338   -0.5803 C   0  0  0  0  0  0  0  0  0  0  0  0
   -0.8231   -0.5786   -0.4853 C   0  0  1  0  0  0  0  0  0  0  0  0
   -0.8639   -1.4376    0.7649 C   0  0  0  0  0  0  0  0  0  0  0  0
   -0.8016   -2.9373    0.4481 C   0  0  0  0  0  0  0  0  0  0  0  0
    1.5585    2.7929   -0.0148 H   0  0  0  0  0  0  0  0  0  0  0  0
    0.0068    3.6257   -0.1483 H   0  0  0  0  0  0  0  0  0  0  0  0
    0.8217    3.5270    1.4185 H   0  0  0  0  0  0  0  0  0  0  0  0
    0.4854    1.0502    1.4634 H   0  0  0  0  0  0  0  0  0  0  0  0
   -1.0497    1.8775    1.3422 H   0  0  0  0  0  0  0  0  0  0  0  0
   -1.0454    1.5018   -1.1722 H   0  0  0  0  0  0  0  0  0  0  0  0
    0.4488   -0.0886   -2.2174 H   0  0  0  0  0  0  0  0  0  0  0  0
    1.8692   -0.4506    0.5118 H   0  0  0  0  0  0  0  0  0  0  0  0
    2.1721   -1.4177   -0.9297 H   0  0  0  0  0  0  0  0  0  0  0  0
    2.5814    0.2999   -0.9146 H   0  0  0  0  0  0  0  0  0  0  0  0
   -1.6063   -0.8497   -1.1917 H   0  0  0  0  0  0  0  0  0  0  0  0
   -0.0467   -1.1788    1.4451 H   0  0  0  0  0  0  0  0  0  0  0  0
   -1.7894   -1.2229    1.3161 H   0  0  0  0  0  0  0  0  0  0  0  0
   -1.6287   -3.2361   -0.2056 H   0  0  0  0  0  0  0  0  0  0  0  0
    0.1312   -3.1947   -0.0642 H   0  0  0  0  0  0  0  0  0  0  0  0
   -0.8634   -3.5401    1.3598 H   0  0  0  0  0  0  0  0  0  0  0  0
  1  2  1  0  0  0  0
  1 11  1  0  0  0  0
  2 13  1  0  0  0  0
  2 12  1  0  0  0  0
  3  4  1  6  0  0  0
  3  2  1  0  0  0  0
  4 15  1  6  0  0  0
  4  5  1  0  0  0  0
  5 16  1  0  0  0  0
  6  4  1  6  0  0  0
  6  3  1  0  0  0  0
  6  7  1  0  0  0  0
  7 21  1  0  0  0  0
  7 20  1  0  0  0  0
  8  7  1  0  0  0  0
  8 24  1  0  0  0  0
  9  1  1  0  0  0  0
 10  1  1  0  0  0  0
 14  3  1  0  0  0  0
 17  5  1  0  0  0  0
 18  5  1  0  0  0  0
 19  6  1  0  0  0  0
 22  8  1  0  0  0  0
 23  8  1  0  0  0  0
M  END
