title
 OpenBabel02282110003D

 18 18  0  0  1  0  0  0  0  0999 V2000
    0.7460    2.8991    0.0300 C   0  0  0  0  0  0  0  0  0  0  0  0
    0.8205    1.4290    0.4612 C   0  0  0  0  0  0  0  0  0  0  0  0
   -0.5460    0.7698    0.4253 C   0  0  1  0  0  0  0  0  0  0  0  0
   -1.0501    0.0781   -0.7875 C   0  0  1  0  0  0  0  0  0  0  0  0
   -0.1860    0.0283   -1.8803 O   0  0  0  0  0  0  0  0  0  0  0  0
   -0.7465   -0.7590    0.4666 C   0  0  1  0  0  0  0  0  0  0  0  0
    0.4025   -1.6876    0.4817 C   0  0  0  0  0  0  0  0  0  0  0  0
    0.4152   -2.7258    1.1029 O   0  0  0  0  0  0  0  0  0  0  0  0
    1.7304    3.3732    0.0858 H   0  0  0  0  0  0  0  0  0  0  0  0
    0.3874    2.9843   -1.0004 H   0  0  0  0  0  0  0  0  0  0  0  0
    0.0647    3.4685    0.6719 H   0  0  0  0  0  0  0  0  0  0  0  0
    1.5134    0.8986   -0.1961 H   0  0  0  0  0  0  0  0  0  0  0  0
    1.2271    1.3588    1.4772 H   0  0  0  0  0  0  0  0  0  0  0  0
   -1.3017    1.3053    0.9952 H   0  0  0  0  0  0  0  0  0  0  0  0
   -2.1053    0.1777   -1.0402 H   0  0  0  0  0  0  0  0  0  0  0  0
   -0.3791   -0.7668   -2.3882 H   0  0  0  0  0  0  0  0  0  0  0  0
   -1.5973   -1.1233    1.0329 H   0  0  0  0  0  0  0  0  0  0  0  0
    1.2737   -1.3845   -0.1348 H   0  0  0  0  0  0  0  0  0  0  0  0
  1  9  1  0  0  0  0
  1  2  1  0  0  0  0
  1 11  1  0  0  0  0
  2 13  1  0  0  0  0
  3  4  1  6  0  0  0
  3  2  1  0  0  0  0
  3 14  1  0  0  0  0
  4  6  1  1  0  0  0
  5  4  1  0  0  0  0
  6  3  1  1  0  0  0
  6  7  1  0  0  0  0
  6 17  1  0  0  0  0
  7  8  2  0  0  0  0
 10  1  1  0  0  0  0
 12  2  1  0  0  0  0
 15  4  1  0  0  0  0
 16  5  1  0  0  0  0
 18  7  1  0  0  0  0
M  END
