23
title
C -1.6582505 2.5767872 -0.10747603
C -0.4873978 1.6710638 -0.50972056
C 0.003785248 0.8389204 0.6605819
C -0.49056166 -0.54342693 0.9621937
C -1.5338929 -1.2571601 0.12730704
N 0.89312524 -0.31621972 0.52690905
C 1.3565179 -0.7602436 -0.78365624
C 2.0089407 -2.137497 -0.66856337
H -1.3813707 3.2302148 0.72705805
H -1.9705284 3.2141583 -0.9402987
H -2.5244188 1.9865854 0.20918457
H -0.78507525 1.0415945 -1.3524874
H 0.34269828 2.291527 -0.8729583
H 0.2625522 1.4617208 1.5198911
H -0.5471758 -0.8218793 2.0152617
H -1.5509422 -0.9436907 -0.91791594
H -1.3723611 -2.3408656 0.14663957
H -2.529649 -1.0692118 0.54351115
H 0.57195836 -0.7936868 -1.554678
H 2.098762 -0.029960794 -1.1285399
H 2.4191074 -2.4547489 -1.6327541
H 2.8168983 -2.1162887 0.06799687
H 1.2815977 -2.889902 -0.3466763
