20
title
C 0.75559914 2.4190254 -0.043122105
O 0.5342783 1.3136488 -0.90255386
C -0.698837 0.71013516 -0.70233804
C -0.77937216 -0.773415 -0.9750831
C 0.45585254 -1.5162978 -1.4366678
C -0.88235813 -0.2459616 0.4517928
O 0.19480446 -0.3855304 1.3207852
C 0.16361722 -1.596772 2.0509877
H 1.7344788 2.830369 -0.3012167
H -0.006246384 3.2000062 -0.19046642
H 0.75324386 2.1119075 1.0090315
H -1.5535551 1.3362876 -0.9688146
H -1.7132035 -1.1138315 -1.4155447
H 1.33801 -1.1739819 -0.8946715
H 0.34458083 -2.5944762 -1.2801822
H 0.63302773 -1.3495929 -2.5040903
H -1.8581356 -0.28061646 0.94117206
H 1.0379735 -1.5994709 2.7061431
H -0.7446225 -1.6699212 2.6684492
H 0.20530707 -2.4729695 1.3899947
