20
title
C -0.25293905 2.818678 0.91222
C -0.90136415 1.5128534 0.43851525
C -0.14914398 0.89294547 -0.7226949
C 1.112861 0.07589108 -0.49567547
O 1.5297351 -0.21034855 0.8072312
C -0.1510366 -0.59433645 -0.9865055
O -0.8048766 -1.4010355 -0.045496065
C -0.46496332 -2.773039 -0.18334605
H 0.76505804 2.6320693 1.2663922
H -0.19854157 3.5531309 0.10086016
H -0.8234418 3.26867 1.7309288
H -0.95144266 0.80467194 1.2695947
H -1.9399126 1.6946902 0.13569058
H -0.14307348 1.5011264 -1.6252921
H 1.9589825 0.20542759 -1.1631485
H 0.83029926 -0.7469979 1.203271
H -0.22944845 -0.9562054 -2.0117993
H -0.7700818 -3.1583831 -1.166727
H 0.61393595 -2.9387572 -0.062143166
H -1.0062879 -3.3164241 0.5944486
