title
 OpenBabel02282110003D

 20 20  0  0  1  0  0  0  0  0999 V2000
   -0.2529    2.8187    0.9122 C   0  0  0  0  0  0  0  0  0  0  0  0
   -0.9014    1.5129    0.4385 C   0  0  0  0  0  0  0  0  0  0  0  0
   -0.1491    0.8929   -0.7227 C   0  0  1  0  0  0  0  0  0  0  0  0
    1.1129    0.0759   -0.4957 C   0  0  1  0  0  0  0  0  0  0  0  0
    1.5297   -0.2103    0.8072 O   0  0  0  0  0  0  0  0  0  0  0  0
   -0.1510   -0.5943   -0.9865 C   0  0  1  0  0  0  0  0  0  0  0  0
   -0.8049   -1.4010   -0.0455 O   0  0  0  0  0  0  0  0  0  0  0  0
   -0.4650   -2.7730   -0.1833 C   0  0  0  0  0  0  0  0  0  0  0  0
    0.7651    2.6321    1.2664 H   0  0  0  0  0  0  0  0  0  0  0  0
   -0.1985    3.5531    0.1009 H   0  0  0  0  0  0  0  0  0  0  0  0
   -0.8234    3.2687    1.7309 H   0  0  0  0  0  0  0  0  0  0  0  0
   -0.9514    0.8047    1.2696 H   0  0  0  0  0  0  0  0  0  0  0  0
   -1.9399    1.6947    0.1357 H   0  0  0  0  0  0  0  0  0  0  0  0
   -0.1431    1.5011   -1.6253 H   0  0  0  0  0  0  0  0  0  0  0  0
    1.9590    0.2054   -1.1631 H   0  0  0  0  0  0  0  0  0  0  0  0
    0.8303   -0.7470    1.2033 H   0  0  0  0  0  0  0  0  0  0  0  0
   -0.2294   -0.9562   -2.0118 H   0  0  0  0  0  0  0  0  0  0  0  0
   -0.7701   -3.1584   -1.1667 H   0  0  0  0  0  0  0  0  0  0  0  0
    0.6139   -2.9388   -0.0621 H   0  0  0  0  0  0  0  0  0  0  0  0
   -1.0063   -3.3164    0.5944 H   0  0  0  0  0  0  0  0  0  0  0  0
  1  9  1  0  0  0  0
  1 11  1  0  0  0  0
  2  1  1  0  0  0  0
  2 12  1  0  0  0  0
  3  6  1  6  0  0  0
  3  4  1  0  0  0  0
  3  2  1  0  0  0  0
  4  6  1  6  0  0  0
  4  5  1  0  0  0  0
  5 16  1  0  0  0  0
  6 17  1  6  0  0  0
  6  7  1  0  0  0  0
  8 19  1  0  0  0  0
  8  7  1  0  0  0  0
  8 20  1  0  0  0  0
 10  1  1  0  0  0  0
 13  2  1  0  0  0  0
 14  3  1  0  0  0  0
 15  4  1  0  0  0  0
 18  8  1  0  0  0  0
M  END
