19
title
C -1.1401987 0.26917535 -1.3762931
N -0.6185931 -0.834586 -0.5790696
C 0.7757762 -0.8250124 -0.14565292
C 1.7456071 0.28140175 -0.50364476
O 2.1233792 0.23406883 -1.87447
C -0.33210534 -0.6761529 0.8529976
C -0.60026145 0.5947191 1.6305972
O -1.9410636 0.6495084 2.0972333
H -0.8723846 1.279988 -1.0383805
H -0.7708995 0.16049458 -2.3992019
H -2.2335243 0.19827034 -1.3970942
H 1.2420659 -1.8118726 -0.21168828
H 1.3160223 1.2738441 -0.35675162
H 2.6253796 0.20999022 0.15575372
H 2.4869006 -0.6405086 -2.0496433
H -0.59995085 -1.5591187 1.4337283
H 0.02403778 0.60107595 2.530833
H -0.3435384 1.4946694 1.0568259
H -2.5199237 0.60669523 1.3291432
