title
 OpenBabel02282110003D

 20 20  0  0  1  0  0  0  0  0999 V2000
   -0.4573    2.9410   -0.7222 C   0  0  0  0  0  0  0  0  0  0  0  0
    0.0652    1.5290   -1.0153 C   0  0  0  0  0  0  0  0  0  0  0  0
    0.7372    0.9177    0.1970 C   0  0  1  0  0  0  0  0  0  0  0  0
   -0.0438    0.0747    1.1714 C   0  0  1  0  0  0  0  0  0  0  0  0
   -1.3740   -0.2205    0.8658 O   0  0  0  0  0  0  0  0  0  0  0  0
    1.0375   -0.5737    0.3310 C   0  0  1  0  0  0  0  0  0  0  0  0
    0.6075   -1.5949   -0.7012 C   0  0  0  0  0  0  0  0  0  0  0  0
   -0.2239   -2.6240   -0.1346 O   0  0  0  0  0  0  0  0  0  0  0  0
    0.3530    3.6102   -0.4115 H   0  0  0  0  0  0  0  0  0  0  0  0
   -0.9292    3.3782   -1.6077 H   0  0  0  0  0  0  0  0  0  0  0  0
   -1.2004    2.9182    0.0808 H   0  0  0  0  0  0  0  0  0  0  0  0
   -0.7757    0.9019   -1.3230 H   0  0  0  0  0  0  0  0  0  0  0  0
    0.7707    1.5620   -1.8556 H   0  0  0  0  0  0  0  0  0  0  0  0
    1.4919    1.5587    0.6481 H   0  0  0  0  0  0  0  0  0  0  0  0
    0.1503    0.2085    2.2355 H   0  0  0  0  0  0  0  0  0  0  0  0
   -1.4111   -1.1734    0.6963 H   0  0  0  0  0  0  0  0  0  0  0  0
    1.9609   -0.8222    0.8492 H   0  0  0  0  0  0  0  0  0  0  0  0
   -0.0045   -1.1469   -1.4851 H   0  0  0  0  0  0  0  0  0  0  0  0
    1.4841   -2.0427   -1.1885 H   0  0  0  0  0  0  0  0  0  0  0  0
    0.2800   -3.0513    0.5663 H   0  0  0  0  0  0  0  0  0  0  0  0
  1  9  1  0  0  0  0
  1 11  1  0  0  0  0
  2  1  1  0  0  0  0
  2  3  1  0  0  0  0
  3  6  1  6  0  0  0
  3 14  1  0  0  0  0
  4  3  1  6  0  0  0
  4 15  1  0  0  0  0
  5  4  1  0  0  0  0
  6 17  1  0  0  0  0
  6  4  1  1  0  0  0
  7  8  1  0  0  0  0
  7  6  1  0  0  0  0
  8 20  1  0  0  0  0
 10  1  1  0  0  0  0
 12  2  1  0  0  0  0
 13  2  1  0  0  0  0
 16  5  1  0  0  0  0
 18  7  1  0  0  0  0
 19  7  1  0  0  0  0
M  END
