title
 OpenBabel02282110003D

 23 23  0  0  1  0  0  0  0  0999 V2000
   -1.6583    2.5768   -0.1075 C   0  0  0  0  0  0  0  0  0  0  0  0
   -0.4874    1.6711   -0.5097 C   0  0  0  0  0  0  0  0  0  0  0  0
    0.0038    0.8389    0.6606 C   0  0  1  0  0  0  0  0  0  0  0  0
   -0.4906   -0.5434    0.9622 C   0  0  1  0  0  0  0  0  0  0  0  0
   -1.5339   -1.2572    0.1273 C   0  0  0  0  0  0  0  0  0  0  0  0
    0.8931   -0.3162    0.5269 N   0  0  0  0  0  0  0  0  0  0  0  0
    1.3565   -0.7602   -0.7837 C   0  0  0  0  0  0  0  0  0  0  0  0
    2.0089   -2.1375   -0.6686 C   0  0  0  0  0  0  0  0  0  0  0  0
   -1.3814    3.2302    0.7271 H   0  0  0  0  0  0  0  0  0  0  0  0
   -1.9705    3.2142   -0.9403 H   0  0  0  0  0  0  0  0  0  0  0  0
   -2.5244    1.9866    0.2092 H   0  0  0  0  0  0  0  0  0  0  0  0
   -0.7851    1.0416   -1.3525 H   0  0  0  0  0  0  0  0  0  0  0  0
    0.3427    2.2915   -0.8730 H   0  0  0  0  0  0  0  0  0  0  0  0
    0.2626    1.4617    1.5199 H   0  0  0  0  0  0  0  0  0  0  0  0
   -0.5472   -0.8219    2.0153 H   0  0  0  0  0  0  0  0  0  0  0  0
   -1.5509   -0.9437   -0.9179 H   0  0  0  0  0  0  0  0  0  0  0  0
   -1.3724   -2.3409    0.1466 H   0  0  0  0  0  0  0  0  0  0  0  0
   -2.5296   -1.0692    0.5435 H   0  0  0  0  0  0  0  0  0  0  0  0
    0.5720   -0.7937   -1.5547 H   0  0  0  0  0  0  0  0  0  0  0  0
    2.0988   -0.0300   -1.1285 H   0  0  0  0  0  0  0  0  0  0  0  0
    2.4191   -2.4547   -1.6328 H   0  0  0  0  0  0  0  0  0  0  0  0
    2.8169   -2.1163    0.0680 H   0  0  0  0  0  0  0  0  0  0  0  0
    1.2816   -2.8899   -0.3467 H   0  0  0  0  0  0  0  0  0  0  0  0
  1 11  1  0  0  0  0
  1  9  1  0  0  0  0
  2  1  1  0  0  0  0
  2  3  1  0  0  0  0
  3  4  1  1  0  0  0
  3 14  1  0  0  0  0
  4 15  1  1  0  0  0
  5 17  1  0  0  0  0
  5 18  1  0  0  0  0
  5  4  1  0  0  0  0
  6  3  1  0  0  0  0
  6  4  1  0  0  0  0
  7  8  1  0  0  0  0
  7  6  1  0  0  0  0
  8 23  1  0  0  0  0
  8 22  1  0  0  0  0
 10  1  1  0  0  0  0
 12  2  1  0  0  0  0
 13  2  1  0  0  0  0
 16  5  1  0  0  0  0
 19  7  1  0  0  0  0
 20  7  1  0  0  0  0
 21  8  1  0  0  0  0
M  END
