20
title
C 0.5958246 2.440195 -0.46642092
O 0.41117015 1.211078 0.21155481
C -0.8055036 0.58805066 -0.09182551
C -0.86844647 -0.43523023 -1.2060946
C 0.31033987 -0.6798365 -2.1252203
C -0.88024163 -0.869303 0.2577261
C 0.3154131 -1.51338 0.93817824
O 0.5558389 -0.956758 2.2215812
H 1.5612363 2.8418422 -0.15049848
H 0.59889376 2.3041344 -1.555971
H -0.19357541 3.1606948 -0.20646338
H -1.6743553 1.2225488 0.08814261
H -1.8338742 -0.5070585 -1.7012782
H 1.2544762 -0.38880083 -1.6600443
H 0.3842965 -1.7347703 -2.410493
H 0.20277005 -0.09672294 -3.0463765
H -1.8377988 -1.2003434 0.64957184
H 0.12000349 -2.5787382 1.0991901
H 1.2093163 -1.4426031 0.3058038
H 0.7392167 -0.022301413 2.0663667
