title
 OpenBabel02282110003D

 21 21  0  0  1  0  0  0  0  0999 V2000
    1.8234    2.1712   -0.8140 C   0  0  0  0  0  0  0  0  0  0  0  0
    1.1769    1.4372    0.3680 C   0  0  0  0  0  0  0  0  0  0  0  0
   -0.2891    1.1389    0.1090 C   0  0  1  0  0  0  0  0  0  0  0  0
   -0.7930   -0.1178   -0.5367 C   0  0  1  0  0  0  0  0  0  0  0  0
    0.1141   -1.2421   -0.9692 C   0  0  0  0  0  0  0  0  0  0  0  0
   -0.6242   -2.4533   -0.8435 O   0  0  0  0  0  0  0  0  0  0  0  0
   -1.0862    0.1754    0.8667 N   0  0  0  0  0  0  0  0  0  0  0  0
   -0.4971   -0.6281    1.9281 C   0  0  0  0  0  0  0  0  0  0  0  0
    2.8624    2.4356   -0.5952 H   0  0  0  0  0  0  0  0  0  0  0  0
    1.8156    1.5519   -1.7170 H   0  0  0  0  0  0  0  0  0  0  0  0
    1.2853    3.0970   -1.0449 H   0  0  0  0  0  0  0  0  0  0  0  0
    1.7425    0.5279    0.5860 H   0  0  0  0  0  0  0  0  0  0  0  0
    1.2492    2.0631    1.2672 H   0  0  0  0  0  0  0  0  0  0  0  0
   -0.8504    2.0476   -0.1185 H   0  0  0  0  0  0  0  0  0  0  0  0
   -1.6726   -0.0443   -1.1766 H   0  0  0  0  0  0  0  0  0  0  0  0
    0.4136   -1.0678   -2.0155 H   0  0  0  0  0  0  0  0  0  0  0  0
    1.0335   -1.2801   -0.3707 H   0  0  0  0  0  0  0  0  0  0  0  0
   -0.0756   -3.1729   -1.1702 H   0  0  0  0  0  0  0  0  0  0  0  0
    0.5632   -0.8907    1.8044 H   0  0  0  0  0  0  0  0  0  0  0  0
   -0.5957   -0.0840    2.8732 H   0  0  0  0  0  0  0  0  0  0  0  0
   -1.0626   -1.5606    2.0065 H   0  0  0  0  0  0  0  0  0  0  0  0
  1  9  1  0  0  0  0
  1  2  1  0  0  0  0
  2 12  1  0  0  0  0
  2 13  1  0  0  0  0
  3  4  1  6  0  0  0
  3  2  1  0  0  0  0
  3  7  1  0  0  0  0
  4 15  1  6  0  0  0
  4  7  1  0  0  0  0
  5  6  1  0  0  0  0
  5  4  1  0  0  0  0
  5 17  1  0  0  0  0
  7  8  1  0  0  0  0
  8 21  1  0  0  0  0
  8 20  1  0  0  0  0
 10  1  1  0  0  0  0
 11  1  1  0  0  0  0
 14  3  1  0  0  0  0
 16  5  1  0  0  0  0
 18  6  1  0  0  0  0
 19  8  1  0  0  0  0
M  END
