title
 OpenBabel02282110003D

 18 18  0  0  1  0  0  0  0  0999 V2000
    0.8126    2.5409   -0.3453 O   0  0  0  0  0  0  0  0  0  0  0  0
    0.7743    1.5511    0.6683 C   0  0  0  0  0  0  0  0  0  0  0  0
   -0.5825    0.8703    0.7300 C   0  0  1  0  0  0  0  0  0  0  0  0
   -1.0452    0.0964   -0.4716 C   0  0  1  0  0  0  0  0  0  0  0  0
   -0.1267   -0.0406   -1.5217 O   0  0  0  0  0  0  0  0  0  0  0  0
   -0.7720   -0.6465    0.8164 C   0  0  1  0  0  0  0  0  0  0  0  0
    0.3660   -1.6486    0.8295 C   0  0  0  0  0  0  0  0  0  0  0  0
    0.2950   -2.5580   -0.2830 O   0  0  0  0  0  0  0  0  0  0  0  0
    0.6892    2.0633   -1.1750 H   0  0  0  0  0  0  0  0  0  0  0  0
    1.5788    0.8195    0.5235 H   0  0  0  0  0  0  0  0  0  0  0  0
    0.9760    2.0672    1.6125 H   0  0  0  0  0  0  0  0  0  0  0  0
   -1.3487    1.4539    1.2320 H   0  0  0  0  0  0  0  0  0  0  0  0
   -2.0787    0.2050   -0.7971 H   0  0  0  0  0  0  0  0  0  0  0  0
    0.1056   -0.9803   -1.5698 H   0  0  0  0  0  0  0  0  0  0  0  0
   -1.6524   -0.9675    1.3679 H   0  0  0  0  0  0  0  0  0  0  0  0
    1.3405   -1.1705    0.7273 H   0  0  0  0  0  0  0  0  0  0  0  0
    0.3754   -2.2055    1.7757 H   0  0  0  0  0  0  0  0  0  0  0  0
   -0.5459   -3.0246   -0.2270 H   0  0  0  0  0  0  0  0  0  0  0  0
  1  2  1  0  0  0  0
  2  3  1  0  0  0  0
  2 11  1  0  0  0  0
  3  4  1  6  0  0  0
  3  6  1  0  0  0  0
  3 12  1  0  0  0  0
  4 13  1  6  0  0  0
  5  4  1  0  0  0  0
  6  4  1  6  0  0  0
  6  7  1  0  0  0  0
  6 15  1  0  0  0  0
  7 17  1  0  0  0  0
  8 18  1  0  0  0  0
  8  7  1  0  0  0  0
  9  1  1  0  0  0  0
 10  2  1  0  0  0  0
 14  5  1  0  0  0  0
 16  7  1  0  0  0  0
M  END
