15
title
C -1.6564595 -2.6174822 0.029370636
C -1.6488729 -1.4151559 -0.01959519
C -1.6375808 0.016771197 -0.08892443
C -0.97908455 0.8338164 1.0149627
C -0.33886126 0.7761992 -0.33860874
C 0.954708 0.0079278955 -0.5519173
C 2.131904 0.7952019 -0.18318409
N 3.05408 1.4278811 0.10731545
H -1.6736284 -3.6781342 0.078755945
H -2.522061 0.45469892 -0.54184365
H -1.4678012 1.7510248 1.3215669
H -0.5125233 0.27732742 1.8199449
H -0.43656567 1.6607245 -0.9597726
H 0.9457935 -0.9164618 0.034843802
H 1.0510923 -0.29326928 -1.6016029
