title
 OpenBabel02282110003D

 15 15  0  0  1  0  0  0  0  0999 V2000
   -0.5885   -3.4028   -0.2726 C   0  0  0  0  0  0  0  0  0  0  0  0
   -0.5913   -2.2502    0.0666 C   0  0  0  0  0  0  0  0  0  0  0  0
   -0.5666   -0.8508    0.4792 C   0  0  0  0  0  0  0  0  0  0  0  0
    0.8087   -0.2256    0.2960 C   0  0  1  0  0  0  0  0  0  0  0  0
    1.2164    0.3567   -1.0194 C   0  0  0  0  0  0  0  0  0  0  0  0
    0.9619    1.2856    0.1621 C   0  0  1  0  0  0  0  0  0  0  0  0
   -0.1978    2.1319    0.1612 C   0  0  0  0  0  0  0  0  0  0  0  0
   -1.1366    2.8088    0.1653 N   0  0  0  0  0  0  0  0  0  0  0  0
   -0.6003   -4.4211   -0.5733 H   0  0  0  0  0  0  0  0  0  0  0  0
   -1.3110   -0.2804   -0.0894 H   0  0  0  0  0  0  0  0  0  0  0  0
   -0.8673   -0.7704    1.5315 H   0  0  0  0  0  0  0  0  0  0  0  0
    1.5926   -0.7013    0.8768 H   0  0  0  0  0  0  0  0  0  0  0  0
    2.2432    0.2543   -1.3499 H   0  0  0  0  0  0  0  0  0  0  0  0
    0.4812    0.3684   -1.8161 H   0  0  0  0  0  0  0  0  0  0  0  0
    1.8293    1.7313    0.6368 H   0  0  0  0  0  0  0  0  0  0  0  0
  1  2  3  0  0  0  0
  2  3  1  0  0  0  0
  3 11  1  0  0  0  0
  4  6  1  1  0  0  0
  4  3  1  0  0  0  0
  4 12  1  0  0  0  0
  5  6  1  0  0  0  0
  5  4  1  0  0  0  0
  6 15  1  1  0  0  0
  7  6  1  0  0  0  0
  7  8  3  0  0  0  0
  9  1  1  0  0  0  0
 10  3  1  0  0  0  0
 13  5  1  0  0  0  0
 14  5  1  0  0  0  0
M  END
