13
title
C -1.705687 -2.615829 0.027945578
C -1.6358932 -1.418714 -0.054978907
C -1.5808743 0.012838039 -0.1782987
O -0.9257025 0.74990255 0.87138057
C -0.31223324 0.7391301 -0.4060527
C 1.007682 -0.0020060218 -0.5303514
C 2.1383882 0.8094371 -0.08165246
N 3.0278158 1.461199 0.262267
H -1.7705711 -3.6732142 0.1110535
H -2.4955397 0.4813222 -0.5393995
H -0.36271778 1.6859436 -0.9443382
H 0.96400225 -0.9259193 0.053164124
H 1.1708623 -0.28217337 -1.5779713
