title
 OpenBabel02282110003D

 13 13  0  0  1  0  0  0  0  0999 V2000
   -0.3735   -3.2655   -0.5340 N   0  0  0  0  0  0  0  0  0  0  0  0
   -0.3942   -2.1947   -0.1029 C   0  0  0  0  0  0  0  0  0  0  0  0
   -0.4394   -0.8304    0.4287 C   0  0  0  0  0  0  0  0  0  0  0  0
    0.8572   -0.1781    0.2348 N   0  0  0  0  0  0  0  0  0  0  0  0
    1.0838    0.4839   -1.0376 C   0  0  0  0  0  0  0  0  0  0  0  0
    0.8797    1.2927    0.2109 C   0  0  1  0  0  0  0  0  0  0  0  0
   -0.3389    2.0517    0.3560 C   0  0  0  0  0  0  0  0  0  0  0  0
   -1.3182    2.6505    0.4988 N   0  0  0  0  0  0  0  0  0  0  0  0
   -1.2782   -0.2974   -0.0455 H   0  0  0  0  0  0  0  0  0  0  0  0
   -0.6485   -0.8725    1.5029 H   0  0  0  0  0  0  0  0  0  0  0  0
    2.0836    0.3907   -1.4488 H   0  0  0  0  0  0  0  0  0  0  0  0
    0.2759    0.4982   -1.7662 H   0  0  0  0  0  0  0  0  0  0  0  0
    1.7370    1.7315    0.7123 H   0  0  0  0  0  0  0  0  0  0  0  0
  1  2  3  0  0  0  0
  2  3  1  0  0  0  0
  3 10  1  0  0  0  0
  4  3  1  0  0  0  0
  5  6  1  0  0  0  0
  5  4  1  0  0  0  0
  6  4  1  0  0  0  0
  6  7  1  0  0  0  0
  6 13  1  1  0  0  0
  7  8  3  0  0  0  0
  9  3  1  0  0  0  0
 11  5  1  0  0  0  0
 12  5  1  0  0  0  0
M  END
