13
title
C -0.5893927 -3.3961997 -0.23668565
C -0.619339 -2.2430823 0.09738125
C -0.62584805 -0.84426504 0.5091189
C 0.75190955 -0.21674877 0.40050817
O 1.14668 0.285932 -0.86991847
C 0.9473224 1.233195 0.18111001
C -0.18159945 2.1293826 0.046881884
N -1.0755467 2.8573904 -0.035913996
H -0.5764121 -4.4139895 -0.53985775
H -1.3320901 -0.26759082 -0.09798852
H -0.96354365 -0.76291734 1.5508118
H 1.5431614 -0.73709685 0.9402498
H 1.8510106 1.7086245 0.557615
