title
 OpenBabel02282110003D

 12 12  0  0  1  0  0  0  0  0999 V2000
   -0.6106   -3.3044   -0.4176 N   0  0  0  0  0  0  0  0  0  0  0  0
   -0.6204   -2.2160   -0.0317 C   0  0  0  0  0  0  0  0  0  0  0  0
   -0.6134   -0.8422    0.4693 C   0  0  0  0  0  0  0  0  0  0  0  0
    0.7712   -0.2233    0.3877 C   0  0  1  0  0  0  0  0  0  0  0  0
    1.1556    0.3427   -0.8558 O   0  0  0  0  0  0  0  0  0  0  0  0
    0.9629    1.2358    0.2434 C   0  0  1  0  0  0  0  0  0  0  0  0
   -0.1710    2.1320    0.1647 C   0  0  0  0  0  0  0  0  0  0  0  0
   -1.0747    2.8513    0.1255 N   0  0  0  0  0  0  0  0  0  0  0  0
   -1.3256   -0.2398   -0.1025 H   0  0  0  0  0  0  0  0  0  0  0  0
   -0.9494   -0.8453    1.5130 H   0  0  0  0  0  0  0  0  0  0  0  0
    1.5600   -0.7759    0.8974 H   0  0  0  0  0  0  0  0  0  0  0  0
    1.8692    1.6896    0.6389 H   0  0  0  0  0  0  0  0  0  0  0  0
  1  2  3  0  0  0  0
  2  3  1  0  0  0  0
  3 10  1  0  0  0  0
  4  6  1  1  0  0  0
  4  3  1  0  0  0  0
  4 11  1  0  0  0  0
  5  6  1  0  0  0  0
  5  4  1  0  0  0  0
  6 12  1  1  0  0  0
  7  6  1  0  0  0  0
  8  7  3  0  0  0  0
  9  3  1  0  0  0  0
M  END
