13
title
N -0.5618956 -3.3407629 -0.37960115
C -0.6004244 -2.2394612 -0.03347297
C -0.617196 -0.8481128 0.4167257
C 0.7671885 -0.22540605 0.33893466
N 1.1364877 0.37481797 -0.9348606
C 0.9525805 1.2570277 0.23366639
C -0.17557234 2.1574438 0.19657087
N -1.0841804 2.8719933 0.20176628
H -1.3139173 -0.27471495 -0.20196788
H -0.9871841 -0.81345725 1.4477473
H 1.5340619 -0.7506088 0.9041271
H 2.1256425 0.26001394 -1.13747
H 1.831172 1.6749588 0.71747667
