14
title
C -1.1873403 -2.0828567 -0.8771187
C -0.5389483 -1.6162599 0.0211055
C 0.29136422 -1.0748646 1.0963697
N 1.236806 0.0035514338 0.7523589
C 1.5765913 0.26430863 -0.6320894
C 0.76041895 1.2532437 0.14774999
C -0.6276602 1.476747 -0.17842579
N -1.7375664 1.7192683 -0.3958173
H -1.7895008 -2.478064 -1.6581149
H -0.3417428 -0.70547706 1.9104991
H 0.9005006 -1.8841413 1.5156056
H 2.620702 0.48756355 -0.8313933
H 1.0525764 -0.29476863 -1.402952
H 1.2459797 2.1409807 0.5451954
