title
 OpenBabel02282110003D

 14 14  0  0  1  0  0  0  0  0999 V2000
   -0.5825   -3.3823   -0.3118 C   0  0  0  0  0  0  0  0  0  0  0  0
   -0.5978   -2.2404    0.0608 C   0  0  0  0  0  0  0  0  0  0  0  0
   -0.5876   -0.8558    0.5190 C   0  0  0  0  0  0  0  0  0  0  0  0
    0.7758   -0.2070    0.3596 C   0  0  1  0  0  0  0  0  0  0  0  0
    1.0997    0.3264   -0.9161 O   0  0  0  0  0  0  0  0  0  0  0  0
    0.9327    1.2527    0.1732 C   0  0  1  0  0  0  0  0  0  0  0  0
   -0.1906    2.1496    0.1221 C   0  0  0  0  0  0  0  0  0  0  0  0
   -1.1105    2.9233    0.1016 C   0  0  0  0  0  0  0  0  0  0  0  0
   -0.5801   -4.3892   -0.6486 H   0  0  0  0  0  0  0  0  0  0  0  0
   -1.3265   -0.2626   -0.0295 H   0  0  0  0  0  0  0  0  0  0  0  0
   -0.8713   -0.8139    1.5792 H   0  0  0  0  0  0  0  0  0  0  0  0
    1.5959   -0.7362    0.8465 H   0  0  0  0  0  0  0  0  0  0  0  0
    1.8642    1.7046    0.5131 H   0  0  0  0  0  0  0  0  0  0  0  0
   -1.9244    3.6055    0.0742 H   0  0  0  0  0  0  0  0  0  0  0  0
  1  2  3  0  0  0  0
  2  3  1  0  0  0  0
  3 11  1  0  0  0  0
  4  6  1  1  0  0  0
  4  3  1  0  0  0  0
  4 12  1  0  0  0  0
  5  6  1  0  0  0  0
  5  4  1  0  0  0  0
  6 13  1  1  0  0  0
  7  6  1  0  0  0  0
  8  7  3  0  0  0  0
  9  1  1  0  0  0  0
 10  3  1  0  0  0  0
 14  8  1  0  0  0  0
M  END
