title
 OpenBabel02282110003D

 15 15  0  0  1  0  0  0  0  0999 V2000
    1.3673    2.4816    0.2052 N   0  0  0  0  0  0  0  0  0  0  0  0
    1.1872    1.2659   -0.0716 C   0  0  0  0  0  0  0  0  0  0  0  0
    0.6837    0.4345    0.8755 O   0  0  0  0  0  0  0  0  0  0  0  0
    0.6588   -0.9238    0.5520 C   0  0  1  0  0  0  0  0  0  0  0  0
   -0.4684   -1.7070    1.1235 C   0  0  0  0  0  0  0  0  0  0  0  0
   -0.4235   -1.4625   -0.3837 C   0  0  1  0  0  0  0  0  0  0  0  0
   -1.3578   -0.5724   -1.0022 C   0  0  0  0  0  0  0  0  0  0  0  0
   -2.1299    0.1763   -1.5407 C   0  0  0  0  0  0  0  0  0  0  0  0
    1.7333    2.9711   -0.6089 H   0  0  0  0  0  0  0  0  0  0  0  0
    1.3896    0.7649   -1.0258 H   0  0  0  0  0  0  0  0  0  0  0  0
    1.6413   -1.3856    0.4850 H   0  0  0  0  0  0  0  0  0  0  0  0
   -0.2806   -2.7117    1.4830 H   0  0  0  0  0  0  0  0  0  0  0  0
   -1.2065   -1.1399    1.6775 H   0  0  0  0  0  0  0  0  0  0  0  0
   -0.1205   -2.3093   -0.9932 H   0  0  0  0  0  0  0  0  0  0  0  0
   -2.8180    0.8387   -2.0045 H   0  0  0  0  0  0  0  0  0  0  0  0
  2  1  2  0  0  0  0
  2  3  1  0  0  0  0
  4  6  1  6  0  0  0
  4  3  1  0  0  0  0
  4  5  1  0  0  0  0
  5 12  1  0  0  0  0
  5 13  1  0  0  0  0
  6 14  1  6  0  0  0
  6  5  1  0  0  0  0
  7  6  1  0  0  0  0
  8  7  3  0  0  0  0
  9  1  1  0  0  0  0
 10  2  1  0  0  0  0
 11  4  1  0  0  0  0
 15  8  1  0  0  0  0
M  END
