15
title
O -1.261716 -2.3008368 -0.089402735
C -1.0253763 -1.1985952 0.34159127
N 0.17951351 -0.8169288 0.9081868
C 1.4791564 -1.2099236 0.41816187
C 1.0663046 0.23535256 0.45214945
C 0.78551954 0.9754997 -0.84885156
C -0.18083388 2.0573657 -0.68836486
C -0.97657055 2.9439585 -0.5320925
H -1.7747407 -0.38763544 0.39305267
H 2.1769598 -1.5909162 1.158321
H 1.5087162 -1.7107862 -0.54694605
H 1.4596249 0.8652268 1.2476193
H 1.7325503 1.3808372 -1.2281516
H 0.42843324 0.2629557 -1.6032792
H -1.6816235 3.728011 -0.4050527
