14
title
O -0.843078 -2.429622 -1.9428675
C -0.7854193 -1.3814636 -1.3515254
C 0.4866733 -0.63931906 -1.134669
C 0.44322532 0.8664634 -1.1820241
N 0.73662394 0.18964723 0.056631103
C -0.25267148 0.24341801 1.1331671
C 0.0849573 1.3327811 2.056633
N 0.32733423 2.1970823 2.7827437
H -1.7031133 -0.8978777 -0.9483141
H 1.3646532 -1.1613151 -1.5045254
H 1.2641491 1.4023645 -1.6483243
H -0.537164 1.3289773 -1.2988292
H -1.2890211 0.4019988 0.79940355
H -0.22587508 -0.70371115 1.6830276
