14
title
O -1.2962568 -2.091824 2.0247507
C -0.5594497 -1.6311427 1.1910908
C 0.1528007 -0.328711 1.3637508
O 1.3181328 -0.13408372 0.5505699
C 0.20027317 0.69073635 0.2855613
C -0.49950415 0.5426789 -1.0581023
C 0.11260057 1.382385 -2.0816653
C 0.62724257 2.0905614 -2.9040012
H -0.34377337 -2.1530633 0.23390147
H 0.22671093 0.011298448 2.395797
H 0.319036 1.7244906 0.61280626
H -0.479785 -0.505665 -1.3724185
H -1.555116 0.818868 -0.9354183
H 1.0810164 2.70724 -3.639954
