15
title
O -1.1910806 -2.0967042 2.1040628
C -0.61170256 -1.6848352 1.1306969
C 0.4534613 -0.64427364 1.1857338
N 1.3655407 -0.5975299 0.022491802
C 0.48124385 0.5305102 0.24598812
C -0.59545094 0.8035426 -0.7969457
C -0.13150878 1.7367795 -1.8177835
C 0.2736137 2.5156486 -2.6381016
H -0.8284701 -2.0665977 0.10939013
H 0.84491444 -0.46989346 2.1851766
H 2.3159401 -0.40045905 0.3219316
H 0.9099027 1.4354594 0.6734
H -0.89575565 -0.1392472 -1.265525
H -1.4850812 1.2117927 -0.3002423
H 0.6212114 3.1972702 -3.3743362
