15
title
O -0.96334535 -2.4831161 -1.8484446
C -0.84628433 -1.3935138 -1.3466054
C 0.44253972 -0.6752172 -1.2079443
C 0.44020787 0.8496912 -1.2572179
C 0.7677595 0.16703062 0.024871577
C -0.16567215 0.23542862 1.2277776
C 0.13312581 1.394903 2.0703807
N 0.38346294 2.3118713 2.7269332
H -1.7383444 -0.8424384 -0.96643925
H 1.2768015 -1.1980891 -1.6623969
H 1.2285818 1.3337216 -1.8207511
H -0.53008837 1.3308983 -1.3388252
H 1.8169507 0.14149265 0.30181217
H -1.2130436 0.30029967 0.9171623
H -0.074200116 -0.67028683 1.8386222
