title
 OpenBabel02282110003D

 15 15  0  0  1  0  0  0  0  0999 V2000
   -1.6274   -1.3690   -1.7732 O   0  0  0  0  0  0  0  0  0  0  0  0
   -0.9719   -0.6377   -1.0700 C   0  0  0  0  0  0  0  0  0  0  0  0
    0.5157   -0.6807   -1.0356 C   0  0  1  0  0  0  0  0  0  0  0  0
    1.2704    0.6121   -0.8540 C   0  0  0  0  0  0  0  0  0  0  0  0
    1.3041   -0.3953    0.1732 N   0  0  0  0  0  0  0  0  0  0  0  0
    0.6890   -0.1725    1.4937 C   0  0  0  0  0  0  0  0  0  0  0  0
   -0.1902    0.9861    1.6643 C   0  0  0  0  0  0  0  0  0  0  0  0
   -0.8789    1.9609    1.8141 C   0  0  0  0  0  0  0  0  0  0  0  0
   -1.4483    0.1168   -0.4119 H   0  0  0  0  0  0  0  0  0  0  0  0
    0.9372   -1.4597   -1.6661 H   0  0  0  0  0  0  0  0  0  0  0  0
    2.1904    0.7633   -1.4122 H   0  0  0  0  0  0  0  0  0  0  0  0
    0.6773    1.5081   -0.6781 H   0  0  0  0  0  0  0  0  0  0  0  0
    0.1590   -1.0901    1.7725 H   0  0  0  0  0  0  0  0  0  0  0  0
    1.5222   -0.0720    2.2002 H   0  0  0  0  0  0  0  0  0  0  0  0
   -1.5007    2.8112    1.9522 H   0  0  0  0  0  0  0  0  0  0  0  0
  1  2  2  0  0  0  0
  2  3  1  0  0  0  0
  2  9  1  0  0  0  0
  3 10  1  6  0  0  0
  3  4  1  0  0  0  0
  3  5  1  0  0  0  0
  4 12  1  0  0  0  0
  4  5  1  0  0  0  0
  5  6  1  0  0  0  0
  6  7  1  0  0  0  0
  6 13  1  0  0  0  0
  6 14  1  0  0  0  0
  7  8  3  0  0  0  0
  8 15  1  0  0  0  0
 11  4  1  0  0  0  0
M  END
