title
 OpenBabel02282110003D

 14 14  0  0  1  0  0  0  0  0999 V2000
   -1.2291   -2.0378    2.1546 O   0  0  0  0  0  0  0  0  0  0  0  0
   -0.6345   -1.6612    1.1775 C   0  0  0  0  0  0  0  0  0  0  0  0
    0.4418   -0.6278    1.2188 C   0  0  1  0  0  0  0  0  0  0  0  0
    1.3588   -0.6092    0.0616 N   0  0  0  0  0  0  0  0  0  0  0  0
    0.4855    0.5301    0.2610 C   0  0  1  0  0  0  0  0  0  0  0  0
   -0.5848    0.7810   -0.7939 C   0  0  0  0  0  0  0  0  0  0  0  0
   -0.0921    1.6664   -1.8494 C   0  0  0  0  0  0  0  0  0  0  0  0
    0.3135    2.3756   -2.6661 N   0  0  0  0  0  0  0  0  0  0  0  0
   -0.8408   -2.0710    0.1647 H   0  0  0  0  0  0  0  0  0  0  0  0
    0.8273   -0.4352    2.2171 H   0  0  0  0  0  0  0  0  0  0  0  0
    2.3122   -0.4166    0.3540 H   0  0  0  0  0  0  0  0  0  0  0  0
    0.9147    1.4418    0.6722 H   0  0  0  0  0  0  0  0  0  0  0  0
   -0.8988   -0.1640   -1.2455 H   0  0  0  0  0  0  0  0  0  0  0  0
   -1.4683    1.2397   -0.3352 H   0  0  0  0  0  0  0  0  0  0  0  0
  2  3  1  0  0  0  0
  2  1  2  0  0  0  0
  3  5  1  6  0  0  0
  3 10  1  0  0  0  0
  4  5  1  0  0  0  0
  4 11  1  0  0  0  0
  4  3  1  0  0  0  0
  5 12  1  1  0  0  0
  6 14  1  0  0  0  0
  6  5  1  0  0  0  0
  7  6  1  0  0  0  0
  8  7  3  0  0  0  0
  9  2  1  0  0  0  0
 13  6  1  0  0  0  0
M  END
