title
 OpenBabel02282110003D

 15 15  0  0  1  0  0  0  0  0999 V2000
   -0.9633   -2.4831   -1.8484 O   0  0  0  0  0  0  0  0  0  0  0  0
   -0.8463   -1.3935   -1.3466 C   0  0  0  0  0  0  0  0  0  0  0  0
    0.4425   -0.6752   -1.2079 C   0  0  1  0  0  0  0  0  0  0  0  0
    0.4402    0.8497   -1.2572 C   0  0  0  0  0  0  0  0  0  0  0  0
    0.7678    0.1670    0.0249 C   0  0  1  0  0  0  0  0  0  0  0  0
   -0.1657    0.2354    1.2278 C   0  0  0  0  0  0  0  0  0  0  0  0
    0.1331    1.3949    2.0704 C   0  0  0  0  0  0  0  0  0  0  0  0
    0.3835    2.3119    2.7269 N   0  0  0  0  0  0  0  0  0  0  0  0
   -1.7383   -0.8424   -0.9664 H   0  0  0  0  0  0  0  0  0  0  0  0
    1.2768   -1.1981   -1.6624 H   0  0  0  0  0  0  0  0  0  0  0  0
    1.2286    1.3337   -1.8208 H   0  0  0  0  0  0  0  0  0  0  0  0
   -0.5301    1.3309   -1.3388 H   0  0  0  0  0  0  0  0  0  0  0  0
    1.8170    0.1415    0.3018 H   0  0  0  0  0  0  0  0  0  0  0  0
   -1.2130    0.3003    0.9172 H   0  0  0  0  0  0  0  0  0  0  0  0
   -0.0742   -0.6703    1.8386 H   0  0  0  0  0  0  0  0  0  0  0  0
  1  2  2  0  0  0  0
  2  3  1  0  0  0  0
  2  9  1  0  0  0  0
  3  5  1  1  0  0  0
  4  3  1  0  0  0  0
  4  5  1  0  0  0  0
  5 13  1  1  0  0  0
  5  6  1  0  0  0  0
  6 15  1  0  0  0  0
  6  7  1  0  0  0  0
  7  8  3  0  0  0  0
 10  3  1  0  0  0  0
 11  4  1  0  0  0  0
 12  4  1  0  0  0  0
 14  6  1  0  0  0  0
M  END
