title
 OpenBabel02282110003D

 15 15  0  0  1  0  0  0  0  0999 V2000
   -1.2617   -2.3008   -0.0894 O   0  0  0  0  0  0  0  0  0  0  0  0
   -1.0254   -1.1986    0.3416 C   0  0  0  0  0  0  0  0  0  0  0  0
    0.1795   -0.8169    0.9082 N   0  0  0  0  0  0  0  0  0  0  0  0
    1.4792   -1.2099    0.4182 C   0  0  0  0  0  0  0  0  0  0  0  0
    1.0663    0.2354    0.4521 C   0  0  1  0  0  0  0  0  0  0  0  0
    0.7855    0.9755   -0.8489 C   0  0  0  0  0  0  0  0  0  0  0  0
   -0.1808    2.0574   -0.6884 C   0  0  0  0  0  0  0  0  0  0  0  0
   -0.9766    2.9440   -0.5321 C   0  0  0  0  0  0  0  0  0  0  0  0
   -1.7747   -0.3876    0.3931 H   0  0  0  0  0  0  0  0  0  0  0  0
    2.1770   -1.5909    1.1583 H   0  0  0  0  0  0  0  0  0  0  0  0
    1.5087   -1.7108   -0.5469 H   0  0  0  0  0  0  0  0  0  0  0  0
    1.4596    0.8652    1.2476 H   0  0  0  0  0  0  0  0  0  0  0  0
    1.7326    1.3808   -1.2282 H   0  0  0  0  0  0  0  0  0  0  0  0
    0.4284    0.2630   -1.6033 H   0  0  0  0  0  0  0  0  0  0  0  0
   -1.6816    3.7280   -0.4051 H   0  0  0  0  0  0  0  0  0  0  0  0
  1  2  2  0  0  0  0
  2  9  1  0  0  0  0
  2  3  1  0  0  0  0
  4  5  1  0  0  0  0
  4  3  1  0  0  0  0
  4 10  1  0  0  0  0
  5  3  1  0  0  0  0
  5 12  1  1  0  0  0
  6  7  1  0  0  0  0
  6  5  1  0  0  0  0
  7  8  3  0  0  0  0
  8 15  1  0  0  0  0
 11  4  1  0  0  0  0
 13  6  1  0  0  0  0
 14  6  1  0  0  0  0
M  END
