title
 OpenBabel02282110003D

 16 16  0  0  1  0  0  0  0  0999 V2000
   -2.1847   -2.4311    0.4288 O   0  0  0  0  0  0  0  0  0  0  0  0
   -1.7331   -1.3179    0.5039 C   0  0  0  0  0  0  0  0  0  0  0  0
   -0.3226   -0.9267    0.1140 C   0  0  0  0  0  0  0  0  0  0  0  0
   -0.3082    0.2596   -0.8288 C   0  0  1  0  0  0  0  0  0  0  0  0
   -0.4973    1.6620   -0.3196 C   0  0  0  0  0  0  0  0  0  0  0  0
    0.8654    1.2366   -0.8453 C   0  0  1  0  0  0  0  0  0  0  0  0
    1.9672    1.0754    0.0565 C   0  0  0  0  0  0  0  0  0  0  0  0
    2.8950    0.9360    0.8101 C   0  0  0  0  0  0  0  0  0  0  0  0
   -2.3530   -0.4711    0.8803 H   0  0  0  0  0  0  0  0  0  0  0  0
    0.2187   -0.6614    1.0326 H   0  0  0  0  0  0  0  0  0  0  0  0
    0.1739   -1.7979   -0.3230 H   0  0  0  0  0  0  0  0  0  0  0  0
   -0.7252    0.0545   -1.8108 H   0  0  0  0  0  0  0  0  0  0  0  0
   -1.0688    2.3644   -0.9152 H   0  0  0  0  0  0  0  0  0  0  0  0
   -0.5767    1.8079    0.7519 H   0  0  0  0  0  0  0  0  0  0  0  0
    1.1352    1.6173   -1.8259 H   0  0  0  0  0  0  0  0  0  0  0  0
    3.7167    0.8187    1.4722 H   0  0  0  0  0  0  0  0  0  0  0  0
  1  2  2  0  0  0  0
  2  9  1  0  0  0  0
  3  2  1  0  0  0  0
  3 10  1  0  0  0  0
  4  6  1  6  0  0  0
  4  5  1  0  0  0  0
  4  3  1  0  0  0  0
  5 14  1  0  0  0  0
  6 15  1  6  0  0  0
  6  5  1  0  0  0  0
  6  7  1  0  0  0  0
  7  8  3  0  0  0  0
  8 16  1  0  0  0  0
 11  3  1  0  0  0  0
 12  4  1  0  0  0  0
 13  5  1  0  0  0  0
M  END
