title
 OpenBabel02282110003D

 14 14  0  0  1  0  0  0  0  0999 V2000
   -2.2438   -2.3259    0.5650 O   0  0  0  0  0  0  0  0  0  0  0  0
   -1.6790   -1.2635    0.5819 C   0  0  0  0  0  0  0  0  0  0  0  0
   -0.2876   -1.0232    0.0233 C   0  0  0  0  0  0  0  0  0  0  0  0
   -0.2560    0.1789   -0.8933 C   0  0  1  0  0  0  0  0  0  0  0  0
   -0.4715    1.4537   -0.2899 O   0  0  0  0  0  0  0  0  0  0  0  0
    0.8258    1.1912   -0.8530 C   0  0  1  0  0  0  0  0  0  0  0  0
    1.9373    1.0920    0.0530 C   0  0  0  0  0  0  0  0  0  0  0  0
    2.8863    1.0175    0.7871 C   0  0  0  0  0  0  0  0  0  0  0  0
   -2.1500   -0.3617    1.0305 H   0  0  0  0  0  0  0  0  0  0  0  0
    0.3875   -0.8401    0.8689 H   0  0  0  0  0  0  0  0  0  0  0  0
    0.0443   -1.9241   -0.5008 H   0  0  0  0  0  0  0  0  0  0  0  0
   -0.7657    0.0522   -1.8500 H   0  0  0  0  0  0  0  0  0  0  0  0
    1.0258    1.7457   -1.7692 H   0  0  0  0  0  0  0  0  0  0  0  0
    3.7225    0.9572    1.4398 H   0  0  0  0  0  0  0  0  0  0  0  0
  1  2  2  0  0  0  0
  2  9  1  0  0  0  0
  3  2  1  0  0  0  0
  3 10  1  0  0  0  0
  4  6  1  6  0  0  0
  4  5  1  0  0  0  0
  4  3  1  0  0  0  0
  6 13  1  6  0  0  0
  6  5  1  0  0  0  0
  6  7  1  0  0  0  0
  7  8  3  0  0  0  0
  8 14  1  0  0  0  0
 11  3  1  0  0  0  0
 12  4  1  0  0  0  0
M  END
