15
title
O -2.155087 -1.8141507 -0.7983726
C -2.0907085 -0.69833046 -0.3285566
N -0.9376024 -0.06622477 0.018852603
C 0.33560395 -0.7059991 -0.07448028
C 1.3523674 -0.25045344 -1.0811301
C 1.5548615 0.0707808 0.39794186
C 1.384047 1.4124502 0.86983114
C 1.1934409 2.5302165 1.2749982
H -2.9796972 -0.068628505 -0.12647714
H -0.9798614 0.8396544 0.46426633
H 0.29488897 -1.7636515 0.15918861
H 2.0085037 -0.9899583 -1.5255318
H 1.0775588 0.57675666 -1.7243419
H 2.3082044 -0.50874084 0.92217356
H 1.0639114 3.5239818 1.6265558
