15
title
O -2.2875164 -1.9041805 1.0833389
C -1.8476832 -1.3022201 0.13966674
C -0.4125627 -0.8089371 0.04188495
N -0.34886464 0.34949756 -0.8372645
C -0.34677824 1.6641681 -0.21503836
C 0.8974245 1.1371939 -0.868411
C 2.0358293 0.77380514 -0.07012934
C 3.0074322 0.45553827 0.5634788
H -2.4642055 -1.0738534 -0.7577619
H -0.015570005 -0.6488589 1.053923
H 0.17578702 -1.6189613 -0.41225016
H -0.9305031 2.431526 -0.71547705
H -0.3386738 1.7180789 0.8718213
H 1.1423998 1.5023828 -1.863204
H 3.8632095 0.18361425 1.1307844
