title
 OpenBabel02282110003D

 15 15  0  0  1  0  0  0  0  0999 V2000
   -2.2451   -2.3539    0.5268 O   0  0  0  0  0  0  0  0  0  0  0  0
   -1.7144   -1.2738    0.5701 C   0  0  0  0  0  0  0  0  0  0  0  0
   -0.3045   -0.9852    0.0958 C   0  0  0  0  0  0  0  0  0  0  0  0
   -0.2723    0.1902   -0.8584 C   0  0  1  0  0  0  0  0  0  0  0  0
   -0.4784    1.5162   -0.2668 N   0  0  0  0  0  0  0  0  0  0  0  0
    0.8428    1.1940   -0.8564 C   0  0  1  0  0  0  0  0  0  0  0  0
    1.9654    1.0971    0.0347 C   0  0  0  0  0  0  0  0  0  0  0  0
    2.9231    1.0034    0.7555 C   0  0  0  0  0  0  0  0  0  0  0  0
   -2.2433   -0.3837    0.9775 H   0  0  0  0  0  0  0  0  0  0  0  0
    0.3020   -0.7349    0.9754 H   0  0  0  0  0  0  0  0  0  0  0  0
    0.1090   -1.8854   -0.3674 H   0  0  0  0  0  0  0  0  0  0  0  0
   -0.7200    0.0015   -1.8330 H   0  0  0  0  0  0  0  0  0  0  0  0
   -0.9952    2.1210   -0.8996 H   0  0  0  0  0  0  0  0  0  0  0  0
    1.0731    1.6380   -1.8225 H   0  0  0  0  0  0  0  0  0  0  0  0
    3.7651    0.9293    1.3986 H   0  0  0  0  0  0  0  0  0  0  0  0
  1  2  2  0  0  0  0
  2  9  1  0  0  0  0
  3  2  1  0  0  0  0
  3 10  1  0  0  0  0
  4  6  1  6  0  0  0
  4  5  1  0  0  0  0
  4  3  1  0  0  0  0
  6 14  1  6  0  0  0
  6  5  1  0  0  0  0
  6  7  1  0  0  0  0
  7  8  3  0  0  0  0
  8 15  1  0  0  0  0
 11  3  1  0  0  0  0
 12  4  1  0  0  0  0
 13  5  1  0  0  0  0
M  END
