14
title
N 1.4409448 2.4749036 0.25109276
C 1.2341205 1.2724541 -0.05150194
O 0.6637711 0.44619998 0.86989135
C 0.64623755 -0.90987796 0.55804455
C -0.48441562 -1.687418 1.1255969
C -0.42909727 -1.4592152 -0.38314664
C -1.3588413 -0.56391865 -1.006618
N -2.0968933 0.15565567 -1.5316914
H 1.8454134 2.9719799 -0.5395702
H 1.4520243 0.7753006 -1.0043874
H 1.6265987 -1.3754601 0.48869482
H -0.3067939 -2.693758 1.4841654
H -1.2257975 -1.1170118 1.6717268
H -0.14099033 -2.30357 -1.0006407
