13
title
O -2.2189448 -2.3679106 0.5617976
C -1.6854568 -1.2912033 0.59101087
C -0.27288494 -1.0250669 0.091086335
C -0.24493298 0.12412708 -0.889947
O -0.49511883 1.4304472 -0.3682028
C 0.80763143 1.1663622 -0.8895051
C 1.8939174 1.1272472 0.06551526
N 2.7743754 1.0914401 0.8133632
H -2.1993754 -0.39602906 1.0035673
H 0.35037223 -0.7762819 0.95921206
H 0.11590377 -1.9369322 -0.37077034
H -0.7247687 -0.06304366 -1.851271
H 1.0460194 1.6762115 -1.8207737
