15
title
O -2.1282077 -2.7242863 0.3281283
C -1.7903794 -1.5786718 0.47275767
C -0.3716624 -1.0692313 0.2945211
C -0.33347324 0.076999895 -0.7005643
N -0.7002855 1.4011755 -0.21612926
C 0.68437296 1.185091 -0.68196684
C 1.7469522 1.2824965 0.359837
O 2.9026394 1.5099511 0.10727887
H -2.5234768 -0.78929985 0.7531544
H -0.02472846 -0.71734 1.2727062
H 0.26441702 -1.8976927 -0.029315665
H -0.66039497 -0.19886161 -1.7026438
H -1.2277915 1.9252639 -0.90820473
H 0.988694 1.571188 -1.6517411
H 1.3873943 1.1412783 1.4019948
