title
 OpenBabel02282110003D

 14 14  0  0  1  0  0  0  0  0999 V2000
   -2.1703   -1.9145   -0.5223 O   0  0  0  0  0  0  0  0  0  0  0  0
   -2.1100   -0.7288   -0.2817 C   0  0  0  0  0  0  0  0  0  0  0  0
   -0.9505   -0.0243   -0.1366 N   0  0  0  0  0  0  0  0  0  0  0  0
    0.3206   -0.6718   -0.1737 C   0  0  1  0  0  0  0  0  0  0  0  0
    1.3977   -0.2286   -1.1157 C   0  0  0  0  0  0  0  0  0  0  0  0
    1.5387    0.0562    0.3799 C   0  0  1  0  0  0  0  0  0  0  0  0
    1.3611    1.4020    0.8420 C   0  0  0  0  0  0  0  0  0  0  0  0
    1.1532    2.4835    1.1990 N   0  0  0  0  0  0  0  0  0  0  0  0
   -2.9994   -0.0834   -0.1534 H   0  0  0  0  0  0  0  0  0  0  0  0
   -0.9973    0.9458    0.1406 H   0  0  0  0  0  0  0  0  0  0  0  0
    0.2383   -1.7294    0.0451 H   0  0  0  0  0  0  0  0  0  0  0  0
    2.0621   -0.9737   -1.5371 H   0  0  0  0  0  0  0  0  0  0  0  0
    1.1888    0.6217   -1.7541 H   0  0  0  0  0  0  0  0  0  0  0  0
    2.2539   -0.5292    0.9464 H   0  0  0  0  0  0  0  0  0  0  0  0
  1  2  2  0  0  0  0
  2  9  1  0  0  0  0
  2  3  1  0  0  0  0
  3 10  1  0  0  0  0
  4  3  1  0  0  0  0
  4 11  1  0  0  0  0
  4  6  1  1  0  0  0
  5  4  1  0  0  0  0
  5  6  1  0  0  0  0
  6  7  1  0  0  0  0
  6 14  1  1  0  0  0
  7  8  3  0  0  0  0
 12  5  1  0  0  0  0
 13  5  1  0  0  0  0
M  END
