15
title
N 1.4317195 2.610769 0.35887685
C 1.3753908 1.371724 0.14335333
O 0.64429325 0.5843001 0.9730066
C 0.6410875 -0.78551906 0.67658234
C -0.48510835 -1.5646701 1.2285516
C -0.4021785 -1.3520048 -0.28622684
C -1.3994966 -0.45344862 -0.91798544
O -1.8282716 -0.6087255 -2.0349996
H 2.0153782 3.0622482 -0.34223446
H 1.8637711 0.8161338 -0.66742694
H 1.62949 -1.2374556 0.6398142
H -0.30498967 -2.5616515 1.6111346
H -1.2494454 -0.9986536 1.7506933
H -0.09637484 -2.1876256 -0.90605414
H -1.7397633 0.3881419 -0.27694544
