title
 OpenBabel02282110003D

 15 15  0  0  1  0  0  0  0  0999 V2000
   -2.5213   -1.9033    1.2598 O   0  0  0  0  0  0  0  0  0  0  0  0
   -2.0394   -1.3234    0.3242 C   0  0  0  0  0  0  0  0  0  0  0  0
   -0.5867   -0.8639    0.2706 C   0  0  0  0  0  0  0  0  0  0  0  0
   -0.4753    0.2757   -0.6316 N   0  0  0  0  0  0  0  0  0  0  0  0
   -0.3566    1.6003   -0.0751 C   0  0  0  0  0  0  0  0  0  0  0  0
    0.8001    0.9808   -0.8168 C   0  0  1  0  0  0  0  0  0  0  0  0
    2.0180    0.6349   -0.0352 C   0  0  0  0  0  0  0  0  0  0  0  0
    3.1368    0.7536   -0.4680 O   0  0  0  0  0  0  0  0  0  0  0  0
   -2.6171   -1.0871   -0.5962 H   0  0  0  0  0  0  0  0  0  0  0  0
   -0.2422   -0.6943    1.3000 H   0  0  0  0  0  0  0  0  0  0  0  0
   -0.0033   -1.6986   -0.1427 H   0  0  0  0  0  0  0  0  0  0  0  0
   -0.9254    2.3891   -0.5586 H   0  0  0  0  0  0  0  0  0  0  0  0
   -0.2561    1.6975    1.0062 H   0  0  0  0  0  0  0  0  0  0  0  0
    1.0059    1.2888   -1.8384 H   0  0  0  0  0  0  0  0  0  0  0  0
    1.8345    0.2665    0.9984 H   0  0  0  0  0  0  0  0  0  0  0  0
  2  1  2  0  0  0  0
  3  2  1  0  0  0  0
  3 10  1  0  0  0  0
  4  5  1  0  0  0  0
  4  3  1  0  0  0  0
  5 13  1  0  0  0  0
  6 14  1  6  0  0  0
  6  4  1  0  0  0  0
  6  5  1  0  0  0  0
  6  7  1  0  0  0  0
  7 15  1  0  0  0  0
  8  7  2  0  0  0  0
  9  2  1  0  0  0  0
 11  3  1  0  0  0  0
 12  5  1  0  0  0  0
M  END
