15
title
O -1.3798766 -2.205572 0.9798823
C -1.5166922 -1.0330735 1.2079751
C -0.3736133 -0.058875438 1.4304068
C -0.426647 1.1027106 0.45428792
C 0.82627517 1.8442298 0.07957412
N 0.15905409 0.9863039 -0.8707708
C 0.7363954 -0.14321935 -1.4339916
O 1.8846638 -0.21283042 -1.7956203
H -2.5300753 -0.57165 1.2670088
H -0.4735269 0.34343255 2.4486988
H 0.57420427 -0.59985375 1.3606952
H -1.3574493 1.6689976 0.47565618
H 0.78224164 2.9109294 -0.120983705
H 1.7699997 1.4855045 0.4831951
H 0.00020091765 -0.95485866 -1.5792238
