title
 OpenBabel02282110003D

 15 15  0  0  1  0  0  0  0  0999 V2000
    1.4317    2.6108    0.3589 N   0  0  0  0  0  0  0  0  0  0  0  0
    1.3754    1.3717    0.1434 C   0  0  0  0  0  0  0  0  0  0  0  0
    0.6443    0.5843    0.9730 O   0  0  0  0  0  0  0  0  0  0  0  0
    0.6411   -0.7855    0.6766 C   0  0  1  0  0  0  0  0  0  0  0  0
   -0.4851   -1.5647    1.2286 C   0  0  0  0  0  0  0  0  0  0  0  0
   -0.4022   -1.3520   -0.2862 C   0  0  1  0  0  0  0  0  0  0  0  0
   -1.3995   -0.4534   -0.9180 C   0  0  0  0  0  0  0  0  0  0  0  0
   -1.8283   -0.6087   -2.0350 O   0  0  0  0  0  0  0  0  0  0  0  0
    2.0154    3.0622   -0.3422 H   0  0  0  0  0  0  0  0  0  0  0  0
    1.8638    0.8161   -0.6674 H   0  0  0  0  0  0  0  0  0  0  0  0
    1.6295   -1.2375    0.6398 H   0  0  0  0  0  0  0  0  0  0  0  0
   -0.3050   -2.5617    1.6111 H   0  0  0  0  0  0  0  0  0  0  0  0
   -1.2494   -0.9987    1.7507 H   0  0  0  0  0  0  0  0  0  0  0  0
   -0.0964   -2.1876   -0.9061 H   0  0  0  0  0  0  0  0  0  0  0  0
   -1.7398    0.3881   -0.2769 H   0  0  0  0  0  0  0  0  0  0  0  0
  2  1  2  0  0  0  0
  2  3  1  0  0  0  0
  4  6  1  6  0  0  0
  4  3  1  0  0  0  0
  4  5  1  0  0  0  0
  5 12  1  0  0  0  0
  5 13  1  0  0  0  0
  6 14  1  6  0  0  0
  6  5  1  0  0  0  0
  7  6  1  0  0  0  0
  7 15  1  0  0  0  0
  8  7  2  0  0  0  0
  9  1  1  0  0  0  0
 10  2  1  0  0  0  0
 11  4  1  0  0  0  0
M  END
