title
 OpenBabel02282110003D

 13 13  0  0  1  0  0  0  0  0999 V2000
   -1.3764   -2.4309    0.0882 O   0  0  0  0  0  0  0  0  0  0  0  0
   -1.2360   -1.2625   -0.0828 C   0  0  0  0  0  0  0  0  0  0  0  0
   -0.6575   -0.4618    0.8572 O   0  0  0  0  0  0  0  0  0  0  0  0
   -0.6401    0.9125    0.5919 C   0  0  1  0  0  0  0  0  0  0  0  0
    0.4959    1.6676    1.1804 C   0  0  0  0  0  0  0  0  0  0  0  0
    0.4313    1.4877   -0.3335 C   0  0  1  0  0  0  0  0  0  0  0  0
    1.3527    0.6056   -0.9883 C   0  0  0  0  0  0  0  0  0  0  0  0
    2.0826   -0.1072   -1.5332 N   0  0  0  0  0  0  0  0  0  0  0  0
   -1.5474   -0.7056   -0.9849 H   0  0  0  0  0  0  0  0  0  0  0  0
   -1.6217    1.3759    0.5489 H   0  0  0  0  0  0  0  0  0  0  0  0
    0.3200    2.6617    1.5723 H   0  0  0  0  0  0  0  0  0  0  0  0
    1.2384    1.0792    1.7055 H   0  0  0  0  0  0  0  0  0  0  0  0
    0.1416    2.3505   -0.9239 H   0  0  0  0  0  0  0  0  0  0  0  0
  2  1  2  0  0  0  0
  2  3  1  0  0  0  0
  4  6  1  6  0  0  0
  4  3  1  0  0  0  0
  4  5  1  0  0  0  0
  5 11  1  0  0  0  0
  5 12  1  0  0  0  0
  6 13  1  6  0  0  0
  6  5  1  0  0  0  0
  7  6  1  0  0  0  0
  8  7  3  0  0  0  0
  9  2  1  0  0  0  0
 10  4  1  0  0  0  0
M  END
