13
title
O -1.3763663 -2.430937 0.08823774
C -1.2360055 -1.2624787 -0.08277222
O -0.6574943 -0.46183202 0.85715306
C -0.64014286 0.91246325 0.5919149
C 0.49585953 1.6675863 1.1803899
C 0.43128935 1.4876733 -0.33348316
C 1.3527194 0.60555965 -0.9882681
N 2.082641 -0.107203454 -1.5332196
H -1.5474149 -0.70564705 -0.98494786
H -1.6217065 1.375907 0.5488932
H 0.31995836 2.6617146 1.572254
H 1.2383794 1.0792346 1.705479
H 0.14164342 2.350545 -0.9239393
