15
title
C 1.006231 3.183971 -0.11035057
C 1.0123796 1.7296124 -0.07558295
C 1.0065136 0.5257095 -0.0471967
C 0.9950321 -0.9062655 -0.024014466
C 0.40779722 -1.6572299 1.1468682
C -0.32580233 -1.6823947 -0.17745008
C -1.5635594 -0.9726074 -0.32727358
N -2.567593 -0.41309214 -0.45685968
H 1.6037506 3.561918 -0.9470333
H -0.012983254 3.5667489 -0.22994065
H 1.4172183 3.6086795 0.8120718
H 1.8327404 -1.3883493 -0.52011764
H 0.8883173 -2.576159 1.4613197
H -0.030031255 -1.0655091 1.9407446
H -0.26919687 -2.5979924 -0.7561307
