title
 OpenBabel02282110003D

 15 15  0  0  1  0  0  0  0  0999 V2000
    0.5765    3.4459   -0.1205 C   0  0  0  0  0  0  0  0  0  0  0  0
    0.7731    2.0074   -0.0298 C   0  0  0  0  0  0  0  0  0  0  0  0
    0.9298    0.8158    0.0543 C   0  0  0  0  0  0  0  0  0  0  0  0
    1.1356   -0.6049    0.1254 C   0  0  1  0  0  0  0  0  0  0  0  0
    0.4104   -1.4350    1.1643 C   0  0  0  0  0  0  0  0  0  0  0  0
    0.0556   -1.5308   -0.2272 N   0  0  0  0  0  0  0  0  0  0  0  0
   -1.1795   -1.1429   -0.7308 C   0  0  0  0  0  0  0  0  0  0  0  0
   -2.2388   -1.3997   -0.2168 O   0  0  0  0  0  0  0  0  0  0  0  0
    1.3436    3.9103   -0.7494 H   0  0  0  0  0  0  0  0  0  0  0  0
   -0.3999    3.6818   -0.5570 H   0  0  0  0  0  0  0  0  0  0  0  0
    0.6227    3.9173    0.8672 H   0  0  0  0  0  0  0  0  0  0  0  0
    2.1201   -0.9485   -0.1852 H   0  0  0  0  0  0  0  0  0  0  0  0
    0.9136   -2.2971    1.5928 H   0  0  0  0  0  0  0  0  0  0  0  0
   -0.2879   -0.9198    1.8174 H   0  0  0  0  0  0  0  0  0  0  0  0
   -1.0789   -0.6307   -1.7052 H   0  0  0  0  0  0  0  0  0  0  0  0
  1  2  1  0  0  0  0
  1 11  1  0  0  0  0
  2  3  3  0  0  0  0
  3  4  1  0  0  0  0
  4 12  1  6  0  0  0
  4  5  1  0  0  0  0
  5 13  1  0  0  0  0
  5 14  1  0  0  0  0
  6  4  1  0  0  0  0
  6  5  1  0  0  0  0
  7  6  1  0  0  0  0
  7  8  2  0  0  0  0
  9  1  1  0  0  0  0
 10  1  1  0  0  0  0
 15  7  1  0  0  0  0
M  END
