title
 OpenBabel02282110003D

 13 13  0  0  1  0  0  0  0  0999 V2000
    1.0653    3.2111   -0.1081 C   0  0  0  0  0  0  0  0  0  0  0  0
    1.0311    1.7583   -0.0862 C   0  0  0  0  0  0  0  0  0  0  0  0
    0.9889    0.5553   -0.0623 C   0  0  0  0  0  0  0  0  0  0  0  0
    0.9600   -0.8765   -0.0500 C   0  0  1  0  0  0  0  0  0  0  0  0
    0.3583   -1.5357    1.0764 O   0  0  0  0  0  0  0  0  0  0  0  0
   -0.3064   -1.6507   -0.1748 C   0  0  1  0  0  0  0  0  0  0  0  0
   -1.5795   -0.9771   -0.3112 C   0  0  0  0  0  0  0  0  0  0  0  0
   -2.6070   -0.4672   -0.4499 N   0  0  0  0  0  0  0  0  0  0  0  0
    1.8678    3.5759   -0.7577 H   0  0  0  0  0  0  0  0  0  0  0  0
    0.1188    3.6202   -0.4765 H   0  0  0  0  0  0  0  0  0  0  0  0
    1.2376    3.6129    0.8960 H   0  0  0  0  0  0  0  0  0  0  0  0
    1.8550   -1.3785   -0.4167 H   0  0  0  0  0  0  0  0  0  0  0  0
   -0.2701   -2.6371   -0.6346 H   0  0  0  0  0  0  0  0  0  0  0  0
  1  2  1  0  0  0  0
  1 11  1  0  0  0  0
  2  3  3  0  0  0  0
  3  4  1  0  0  0  0
  4  6  1  6  0  0  0
  4  5  1  0  0  0  0
  6 13  1  6  0  0  0
  6  5  1  0  0  0  0
  7  6  1  0  0  0  0
  8  7  3  0  0  0  0
  9  1  1  0  0  0  0
 10  1  1  0  0  0  0
 12  4  1  0  0  0  0
M  END
