15
title
C 1.1234235 3.3416944 -0.33775702
C 1.0684792 1.889169 -0.27660143
C 1.0180948 0.6875535 -0.21551861
C 0.98434794 -0.7493992 -0.18663684
N 0.6865727 -1.4168353 1.0861062
C -0.29098013 -1.5451324 -0.007371992
C -1.589397 -0.8464031 0.2138342
O -2.619277 -1.1746039 -0.31893513
H 1.940849 3.6790142 -0.98418665
H 0.1911767 3.7587867 -0.7339071
H 1.285948 3.7721686 0.6562961
H 1.7070621 -1.2320406 -0.8427218
H 1.2270421 -2.2737625 1.1704059
H -0.365665 -2.4770224 -0.56215507
H -1.5261781 0.008733484 0.9183766
