13
title
C 1.0652621 3.2111123 -0.10810119
C 1.0310645 1.758323 -0.086218596
C 0.98891157 0.55531967 -0.06225682
C 0.96003723 -0.8764504 -0.049975313
O 0.3582661 -1.5357484 1.0763718
C -0.30643335 -1.650746 -0.1747804
C -1.579457 -0.9771365 -0.31117845
N -2.6069715 -0.4672457 -0.44987366
H 1.8678222 3.575927 -0.7577146
H 0.11882111 3.6202385 -0.4765047
H 1.2376021 3.6129224 0.89603
H 1.8549626 -1.3784782 -0.41669226
H -0.27010432 -2.6370955 -0.6346473
