title
 OpenBabel02282110003D

 18 18  0  0  1  0  0  0  0  0999 V2000
   -0.0455    3.0966    0.3932 C   0  0  0  0  0  0  0  0  0  0  0  0
   -0.6030    1.7305   -0.0246 C   0  0  0  0  0  0  0  0  0  0  0  0
    0.2841    1.0448   -1.0329 C   0  0  1  0  0  0  0  0  0  0  0  0
    1.5211    0.5143   -0.5574 O   0  0  0  0  0  0  0  0  0  0  0  0
    0.5322   -0.4152   -1.0433 C   0  0  1  0  0  0  0  0  0  0  0  0
   -0.0655   -1.3179   -0.0971 C   0  0  0  0  0  0  0  0  0  0  0  0
   -0.5643   -2.1065    0.6650 C   0  0  0  0  0  0  0  0  0  0  0  0
   -1.1604   -3.0542    1.5942 C   0  0  0  0  0  0  0  0  0  0  0  0
    0.9481    2.9850    0.8372 H   0  0  0  0  0  0  0  0  0  0  0  0
    0.0443    3.7710   -0.4656 H   0  0  0  0  0  0  0  0  0  0  0  0
   -0.6965    3.5776    1.1289 H   0  0  0  0  0  0  0  0  0  0  0  0
   -0.7136    1.0808    0.8487 H   0  0  0  0  0  0  0  0  0  0  0  0
   -1.6012    1.8487   -0.4658 H   0  0  0  0  0  0  0  0  0  0  0  0
    0.3715    1.5538   -1.9967 H   0  0  0  0  0  0  0  0  0  0  0  0
    0.7984   -0.8669   -1.9995 H   0  0  0  0  0  0  0  0  0  0  0  0
   -2.2412   -2.8996    1.6845 H   0  0  0  0  0  0  0  0  0  0  0  0
   -0.9971   -4.0869    1.2671 H   0  0  0  0  0  0  0  0  0  0  0  0
   -0.7250   -2.9498    2.5940 H   0  0  0  0  0  0  0  0  0  0  0  0
  1  9  1  0  0  0  0
  1 11  1  0  0  0  0
  2  1  1  0  0  0  0
  2 12  1  0  0  0  0
  3  5  1  6  0  0  0
  3  4  1  0  0  0  0
  3  2  1  0  0  0  0
  5 15  1  6  0  0  0
  5  4  1  0  0  0  0
  5  6  1  0  0  0  0
  6  7  3  0  0  0  0
  7  8  1  0  0  0  0
  8 16  1  0  0  0  0
  8 18  1  0  0  0  0
 10  1  1  0  0  0  0
 13  2  1  0  0  0  0
 14  3  1  0  0  0  0
 17  8  1  0  0  0  0
M  END
