18
title
C 0.7645946 2.7230818 0.6972769
O 0.08782755 1.6235744 0.121693514
C 0.8540192 0.9479476 -0.81352127
C 1.8475932 -0.08374892 -0.3563046
C 0.5428506 -0.5149871 -1.0321169
C -0.48142293 -1.1749456 -0.27630246
C -1.3468906 -1.7485902 0.3341231
C -2.395698 -2.4304411 1.0781271
H 1.6780976 2.4085429 1.2220153
H 1.0413032 3.471217 -0.06135214
H 0.07874103 3.1820486 1.4128113
H 1.1047426 1.5334287 -1.7006123
H 2.7753298 -0.21268795 -0.9027041
H 1.9046457 -0.26257417 0.7109776
H 0.63825405 -0.8497093 -2.0617454
H -3.012987 -3.0493438 0.41710997
H -1.9799775 -3.0875027 1.8506403
H -3.0608304 -1.7150316 1.5748627
