20
title
C 0.26943204 3.1526284 -0.32969403
C 0.29911277 1.7342699 0.25098523
C -1.0532336 1.0572212 0.20342861
C -1.5213993 0.35151765 -1.0373482
C -1.1846879 -0.46256223 0.20610517
C -0.030284554 -1.3148583 0.23157877
C 0.93051964 -2.0424018 0.26672724
C 2.0879977 -2.924977 0.3055403
H 1.2575443 3.6208017 -0.28049782
H -0.04756397 3.1429691 -1.3778834
H -0.42940104 3.7928772 0.22026838
H 1.0268148 1.1216573 -0.29235172
H 0.64989 1.7686062 1.2905153
H -1.8278937 1.5671176 0.77217656
H -2.5640628 0.4187059 -1.3276665
H -0.8252403 0.27755567 -1.8659238
H -2.0401855 -0.84985983 0.7530769
H 1.8106241 -3.9256718 0.6558489
H 2.5391176 -3.0385892 -0.6868332
H 2.8637984 -2.5440967 0.9796002
