18
title
C -0.045465525 3.096557 0.39318025
C -0.60301656 1.7305112 -0.02458408
C 0.2841068 1.0448053 -1.0328751
O 1.5211462 0.5143357 -0.5574149
C 0.5322104 -0.41518322 -1.0433111
C -0.06548481 -1.3178799 -0.09713512
C -0.5643286 -2.1065307 0.66495913
C -1.1603656 -3.0542433 1.5941595
H 0.94811434 2.9850488 0.83718866
H 0.04426973 3.771042 -0.46555525
H -0.6964667 3.5776355 1.1289113
H -0.71357596 1.0807682 0.8486644
H -1.6012359 1.8487139 -0.4658332
H 0.3714909 1.5538217 -1.9966776
H 0.7984244 -0.8668683 -1.9994588
H -2.2412126 -2.8995974 1.6845258
H -0.9971151 -4.0868883 1.2671133
H -0.72504103 -2.9498394 2.5940213
