14
title
C 1.1119742 3.3524284 -0.34510237
C 1.051907 1.9007604 -0.28346133
C 0.9946507 0.6991423 -0.22482903
C 0.9772507 -0.7373863 -0.18671003
O 0.6777677 -1.3826667 1.051777
C -0.26908657 -1.5386647 -0.0048609935
C -1.5794847 -0.84596616 0.19315748
O -2.6032171 -1.2160558 -0.32155287
H 1.901227 3.6847882 -1.0276973
H 0.16429713 3.774929 -0.6956577
H 1.3236232 3.7772248 0.6420103
H 1.766533 -1.2286745 -0.75602585
H -0.32383677 -2.5245397 -0.46433726
H -1.5247314 0.038156077 0.86142
