19
title
C 0.2920039 3.0870085 0.16239859
C -0.22518495 1.6608312 -0.0036809454
N 0.5709523 0.95176876 -1.0041517
C 1.7495147 0.2471561 -0.53029925
C 0.5493979 -0.52393025 -0.9983058
C -0.2445773 -1.2757038 -0.06367715
C -0.93766856 -1.9250683 0.6788438
C -1.7634475 -2.7127364 1.5822892
H 1.3224325 3.0902195 0.5332625
H 0.27643174 3.617716 -0.79372835
H -0.3254773 3.6386979 0.87795025
H -0.22889256 1.1413411 0.96770966
H -1.2618634 1.6742477 -0.3592332
H 2.6341567 0.30509767 -1.1592184
H 1.9433166 0.23211415 0.54130965
H 0.5827723 -0.94659466 -2.0004947
H -2.8099983 -2.3891444 1.5539643
H -1.7390652 -3.7744725 1.3126959
H -1.4170328 -2.6271622 2.6182709
