17
title
C 1.3011017 3.419001 -0.026722658
C 1.2031937 1.967561 -0.067914136
C 1.1153866 0.7663383 -0.09186489
C 1.0508695 -0.6686941 -0.15348421
N 0.36199296 -1.3886293 0.94988996
C -0.21524839 -1.4284638 -0.40199128
C -1.562707 -0.7553447 -0.5149318
O -2.5559855 -1.4952179 0.17550468
H 2.3423595 3.7491772 -0.11061978
H 0.73881215 3.8815434 -0.8454769
H 0.9030825 3.814417 0.91426665
H 1.9522341 -1.1383628 -0.5434375
H 0.8630085 -2.250167 1.1506451
H -0.11468475 -2.3578696 -0.95994955
H -1.4871252 0.27376023 -0.13855985
H -1.8793819 -0.71020633 -1.562093
H -2.2470698 -1.5604674 1.087016
