title
 OpenBabel02282110003D

 16 16  0  0  1  0  0  0  0  0999 V2000
    1.3220    3.4179   -0.0164 C   0  0  0  0  0  0  0  0  0  0  0  0
    1.2060    1.9688   -0.0695 C   0  0  0  0  0  0  0  0  0  0  0  0
    1.1015    0.7692   -0.1076 C   0  0  0  0  0  0  0  0  0  0  0  0
    1.0381   -0.6661   -0.1683 C   0  0  1  0  0  0  0  0  0  0  0  0
    0.3777   -1.3628    0.9071 O   0  0  0  0  0  0  0  0  0  0  0  0
   -0.2169   -1.4165   -0.3943 C   0  0  1  0  0  0  0  0  0  0  0  0
   -1.5644   -0.7493   -0.5070 C   0  0  0  0  0  0  0  0  0  0  0  0
   -2.5593   -1.5043    0.1646 O   0  0  0  0  0  0  0  0  0  0  0  0
    2.3654    3.7358   -0.1164 H   0  0  0  0  0  0  0  0  0  0  0  0
    0.7486    3.8937   -0.8195 H   0  0  0  0  0  0  0  0  0  0  0  0
    0.9458    3.8062    0.9363 H   0  0  0  0  0  0  0  0  0  0  0  0
    1.9607   -1.1503   -0.4892 H   0  0  0  0  0  0  0  0  0  0  0  0
   -0.1387   -2.3934   -0.8745 H   0  0  0  0  0  0  0  0  0  0  0  0
   -1.4971    0.2769   -0.1217 H   0  0  0  0  0  0  0  0  0  0  0  0
   -1.8703   -0.6999   -1.5576 H   0  0  0  0  0  0  0  0  0  0  0  0
   -2.2803   -1.5713    1.0849 H   0  0  0  0  0  0  0  0  0  0  0  0
  1 11  1  0  0  0  0
  2  1  1  0  0  0  0
  3  2  3  0  0  0  0
  4  6  1  6  0  0  0
  4  3  1  0  0  0  0
  4  5  1  0  0  0  0
  6 13  1  6  0  0  0
  6  5  1  0  0  0  0
  7  6  1  0  0  0  0
  7 14  1  0  0  0  0
  7  8  1  0  0  0  0
  8 16  1  0  0  0  0
  9  1  1  0  0  0  0
 10  1  1  0  0  0  0
 12  4  1  0  0  0  0
 15  7  1  0  0  0  0
M  END
