15
title
C 0.9411228 2.8723266 0.19913453
N 1.0806895 1.4790001 -0.17419776
C 0.06746534 0.8898051 -0.64164746
N 0.13083711 -0.42634776 -1.1303988
C 0.9832015 -1.3928444 -0.485228
C -0.5162061 -1.5291553 -0.40842873
C -1.1806911 -1.2818794 0.84866667
N -1.7433654 -1.084058 1.8394929
H 1.640236 3.4784296 -0.38807896
H -0.07441469 3.2729464 0.05726644
H 1.2208151 2.9932334 1.2512827
H -0.92202836 1.3453573 -0.77310663
H 1.5271064 -2.0650146 -1.1414587
H 1.5046312 -1.070075 0.4108374
H -1.0198449 -2.2547464 -1.0406477
