title
 OpenBabel02282110003D

 18 18  0  0  1  0  0  0  0  0999 V2000
    1.2197    3.4240   -0.1227 C   0  0  0  0  0  0  0  0  0  0  0  0
    1.1595    1.9693   -0.1425 C   0  0  0  0  0  0  0  0  0  0  0  0
    1.1131    0.7646   -0.1535 C   0  0  0  0  0  0  0  0  0  0  0  0
    1.0864   -0.6710   -0.1818 C   0  0  1  0  0  0  0  0  0  0  0  0
    0.5607   -1.4659    1.0054 C   0  0  0  0  0  0  0  0  0  0  0  0
   -0.2214   -1.4492   -0.2740 C   0  0  1  0  0  0  0  0  0  0  0  0
   -1.5385   -0.7264   -0.3495 C   0  0  0  0  0  0  0  0  0  0  0  0
   -2.5434   -1.5956    0.1597 O   0  0  0  0  0  0  0  0  0  0  0  0
    2.2106    3.7824   -0.4236 H   0  0  0  0  0  0  0  0  0  0  0  0
    0.4878    3.8679   -0.8072 H   0  0  0  0  0  0  0  0  0  0  0  0
    1.0181    3.8197    0.8792 H   0  0  0  0  0  0  0  0  0  0  0  0
    1.9208   -1.1226   -0.7114 H   0  0  0  0  0  0  0  0  0  0  0  0
    1.0937   -2.3679    1.2834 H   0  0  0  0  0  0  0  0  0  0  0  0
    0.1669   -0.8953    1.8389 H   0  0  0  0  0  0  0  0  0  0  0  0
   -0.1785   -2.3499   -0.8795 H   0  0  0  0  0  0  0  0  0  0  0  0
   -1.4792    0.2066    0.2296 H   0  0  0  0  0  0  0  0  0  0  0  0
   -1.7485   -0.4480   -1.3946 H   0  0  0  0  0  0  0  0  0  0  0  0
   -3.3933   -1.1579    0.0544 H   0  0  0  0  0  0  0  0  0  0  0  0
  1 11  1  0  0  0  0
  2  1  1  0  0  0  0
  3  2  3  0  0  0  0
  4  6  1  6  0  0  0
  4  3  1  0  0  0  0
  4  5  1  0  0  0  0
  5 13  1  0  0  0  0
  5 14  1  0  0  0  0
  6 15  1  6  0  0  0
  6  5  1  0  0  0  0
  7  6  1  0  0  0  0
  7  8  1  0  0  0  0
  7 16  1  0  0  0  0
  9  1  1  0  0  0  0
 10  1  1  0  0  0  0
 12  4  1  0  0  0  0
 17  7  1  0  0  0  0
 18  8  1  0  0  0  0
M  END
