title
 OpenBabel02282110003D

 20 20  0  0  1  0  0  0  0  0999 V2000
    0.2694    3.1526   -0.3297 C   0  0  0  0  0  0  0  0  0  0  0  0
    0.2991    1.7343    0.2510 C   0  0  0  0  0  0  0  0  0  0  0  0
   -1.0532    1.0572    0.2034 C   0  0  1  0  0  0  0  0  0  0  0  0
   -1.5214    0.3515   -1.0373 C   0  0  0  0  0  0  0  0  0  0  0  0
   -1.1847   -0.4626    0.2061 C   0  0  1  0  0  0  0  0  0  0  0  0
   -0.0303   -1.3149    0.2316 C   0  0  0  0  0  0  0  0  0  0  0  0
    0.9305   -2.0424    0.2667 C   0  0  0  0  0  0  0  0  0  0  0  0
    2.0880   -2.9250    0.3055 C   0  0  0  0  0  0  0  0  0  0  0  0
    1.2575    3.6208   -0.2805 H   0  0  0  0  0  0  0  0  0  0  0  0
   -0.0476    3.1430   -1.3779 H   0  0  0  0  0  0  0  0  0  0  0  0
   -0.4294    3.7929    0.2203 H   0  0  0  0  0  0  0  0  0  0  0  0
    1.0268    1.1217   -0.2924 H   0  0  0  0  0  0  0  0  0  0  0  0
    0.6499    1.7686    1.2905 H   0  0  0  0  0  0  0  0  0  0  0  0
   -1.8279    1.5671    0.7722 H   0  0  0  0  0  0  0  0  0  0  0  0
   -2.5641    0.4187   -1.3277 H   0  0  0  0  0  0  0  0  0  0  0  0
   -0.8252    0.2776   -1.8659 H   0  0  0  0  0  0  0  0  0  0  0  0
   -2.0402   -0.8499    0.7531 H   0  0  0  0  0  0  0  0  0  0  0  0
    1.8106   -3.9257    0.6558 H   0  0  0  0  0  0  0  0  0  0  0  0
    2.5391   -3.0386   -0.6868 H   0  0  0  0  0  0  0  0  0  0  0  0
    2.8638   -2.5441    0.9796 H   0  0  0  0  0  0  0  0  0  0  0  0
  1  9  1  0  0  0  0
  1 11  1  0  0  0  0
  1  2  1  0  0  0  0
  2 13  1  0  0  0  0
  3  5  1  1  0  0  0
  3  2  1  0  0  0  0
  3 14  1  0  0  0  0
  4  3  1  0  0  0  0
  4  5  1  0  0  0  0
  5  6  1  0  0  0  0
  5 17  1  1  0  0  0
  6  7  3  0  0  0  0
  7  8  1  0  0  0  0
  8 18  1  0  0  0  0
  8 20  1  0  0  0  0
 10  1  1  0  0  0  0
 12  2  1  0  0  0  0
 15  4  1  0  0  0  0
 16  4  1  0  0  0  0
 19  8  1  0  0  0  0
M  END
