title
 OpenBabel02282110003D

 18 18  0  0  1  0  0  0  0  0999 V2000
    0.1395    3.1442    1.0421 C   0  0  0  0  0  0  0  0  0  0  0  0
   -0.7014    1.9075    0.7003 C   0  0  0  0  0  0  0  0  0  0  0  0
   -0.2156    1.2343   -0.5617 C   0  0  1  0  0  0  0  0  0  0  0  0
    1.0140    0.4964   -0.4880 O   0  0  0  0  0  0  0  0  0  0  0  0
   -0.1806   -0.2169   -0.8045 C   0  0  1  0  0  0  0  0  0  0  0  0
   -0.6593   -1.2612    0.1933 C   0  0  0  0  0  0  0  0  0  0  0  0
   -0.0068   -2.5521   -0.0009 C   0  0  0  0  0  0  0  0  0  0  0  0
    0.5325   -3.6101   -0.1830 C   0  0  0  0  0  0  0  0  0  0  0  0
    1.1858    2.8648    1.1964 H   0  0  0  0  0  0  0  0  0  0  0  0
    0.1050    3.8822    0.2334 H   0  0  0  0  0  0  0  0  0  0  0  0
   -0.2241    3.6282    1.9531 H   0  0  0  0  0  0  0  0  0  0  0  0
   -0.6768    1.2038    1.5375 H   0  0  0  0  0  0  0  0  0  0  0  0
   -1.7509    2.1961    0.5562 H   0  0  0  0  0  0  0  0  0  0  0  0
   -0.2807    1.8682   -1.4504 H   0  0  0  0  0  0  0  0  0  0  0  0
   -0.2329   -0.5541   -1.8412 H   0  0  0  0  0  0  0  0  0  0  0  0
   -0.4786   -0.9063    1.2124 H   0  0  0  0  0  0  0  0  0  0  0  0
   -1.7460   -1.3804    0.0845 H   0  0  0  0  0  0  0  0  0  0  0  0
    1.0133   -4.5447   -0.3326 H   0  0  0  0  0  0  0  0  0  0  0  0
  1  9  1  0  0  0  0
  1 11  1  0  0  0  0
  2  1  1  0  0  0  0
  2 12  1  0  0  0  0
  3  5  1  6  0  0  0
  3  4  1  0  0  0  0
  3  2  1  0  0  0  0
  5 15  1  6  0  0  0
  5  4  1  0  0  0  0
  5  6  1  0  0  0  0
  6 16  1  0  0  0  0
  7  6  1  0  0  0  0
  8  7  3  0  0  0  0
 10  1  1  0  0  0  0
 13  2  1  0  0  0  0
 14  3  1  0  0  0  0
 17  6  1  0  0  0  0
 18  8  1  0  0  0  0
M  END
