18
title
C -1.0171416 2.8068676 0.3243989
C -0.569979 1.4235185 -0.1407072
N 0.08753034 0.71511614 0.95545614
C -0.71847934 -0.15141578 1.8058728
C 0.31090608 -0.7218713 0.89018583
C -0.12211672 -1.5839741 -0.29241145
C 0.8047365 -1.496131 -1.4225787
N 1.542003 -1.4197099 -2.3089972
H -0.16370752 3.380399 0.6955278
H -1.4787402 3.3582897 -0.5002045
H -1.7508883 2.7293675 1.1334509
H -1.4412551 0.8773562 -0.54111767
H 0.1548337 1.5161566 -0.95718
H -0.54019463 -0.08816942 2.8759525
H -1.7618208 -0.3089914 1.5284891
H 1.269625 -1.0281947 1.3047942
H -0.17382696 -2.6306071 0.030070936
H -1.1235021 -1.3152609 -0.64010495
