title
 OpenBabel02282110003D

 18 18  0  0  1  0  0  0  0  0999 V2000
   -2.9287    1.7588    0.2500 C   0  0  0  0  0  0  0  0  0  0  0  0
   -1.5586    1.3512   -0.3066 C   0  0  0  0  0  0  0  0  0  0  0  0
   -0.6419    0.8512    0.7929 C   0  0  1  0  0  0  0  0  0  0  0  0
   -0.5491   -0.5974    1.1366 C   0  0  0  0  0  0  0  0  0  0  0  0
    0.5975    0.1010    0.5563 N   0  0  0  0  0  0  0  0  0  0  0  0
    0.9721   -0.2376   -0.8101 C   0  0  0  0  0  0  0  0  0  0  0  0
    1.9506   -1.3323   -0.8120 C   0  0  0  0  0  0  0  0  0  0  0  0
    2.7090   -2.2029   -0.8316 N   0  0  0  0  0  0  0  0  0  0  0  0
   -2.8292    2.5429    1.0080 H   0  0  0  0  0  0  0  0  0  0  0  0
   -3.5762    2.1423   -0.5437 H   0  0  0  0  0  0  0  0  0  0  0  0
   -3.4329    0.9068    0.7169 H   0  0  0  0  0  0  0  0  0  0  0  0
   -1.6970    0.5846   -1.0763 H   0  0  0  0  0  0  0  0  0  0  0  0
   -1.0949    2.2143   -0.8022 H   0  0  0  0  0  0  0  0  0  0  0  0
   -0.5257    1.5638    1.6095 H   0  0  0  0  0  0  0  0  0  0  0  0
   -0.4271   -0.9321    2.1625 H   0  0  0  0  0  0  0  0  0  0  0  0
   -1.0972   -1.2890    0.4968 H   0  0  0  0  0  0  0  0  0  0  0  0
    0.1344   -0.5437   -1.4569 H   0  0  0  0  0  0  0  0  0  0  0  0
    1.4359    0.6388   -1.2778 H   0  0  0  0  0  0  0  0  0  0  0  0
  1 11  1  0  0  0  0
  1  9  1  0  0  0  0
  2  1  1  0  0  0  0
  2  3  1  0  0  0  0
  3  4  1  0  0  0  0
  3 14  1  1  0  0  0
  4 15  1  0  0  0  0
  5  3  1  0  0  0  0
  5  4  1  0  0  0  0
  6  5  1  0  0  0  0
  7  6  1  0  0  0  0
  8  7  3  0  0  0  0
 10  1  1  0  0  0  0
 12  2  1  0  0  0  0
 13  2  1  0  0  0  0
 16  4  1  0  0  0  0
 17  6  1  0  0  0  0
 18  6  1  0  0  0  0
M  END
