18
title
C 0.7935646 3.290882 -0.37135026
C 0.90114486 1.9364231 0.33878547
C -0.43787274 1.2365248 0.41971746
N -0.8941132 0.50899535 -0.7770241
C -0.6402736 -0.23770277 0.45892063
C 0.50247085 -1.2432677 0.42461345
C 0.05521688 -2.5559535 -0.042733233
N -0.317674 -3.5894012 -0.40048888
H 1.7664583 3.7880685 -0.4238514
H 0.42220458 3.1595926 -1.3922228
H 0.10437313 3.9609997 0.1545488
H 1.6175481 1.3045828 -0.19534902
H 1.2921933 2.0757983 1.3549773
H -1.193992 1.8082641 0.9596845
H -1.8901838 0.6275254 -0.9352276
H -1.5024904 -0.58877414 1.0228245
H 1.2945439 -0.88869566 -0.23962371
H 0.9361459 -1.3607799 1.4248695
