title
 OpenBabel02282110003D

 17 17  0  0  1  0  0  0  0  0999 V2000
    0.7943    3.2098   -0.4231 C   0  0  0  0  0  0  0  0  0  0  0  0
    0.9177    1.9152    0.3908 C   0  0  0  0  0  0  0  0  0  0  0  0
   -0.4137    1.2155    0.5274 C   0  0  1  0  0  0  0  0  0  0  0  0
   -0.9267    0.5295   -0.6257 O   0  0  0  0  0  0  0  0  0  0  0  0
   -0.6276   -0.2405    0.5336 C   0  0  1  0  0  0  0  0  0  0  0  0
    0.5007   -1.2551    0.4197 C   0  0  0  0  0  0  0  0  0  0  0  0
    0.0434   -2.5219   -0.1526 C   0  0  0  0  0  0  0  0  0  0  0  0
   -0.3269   -3.5235   -0.5932 N   0  0  0  0  0  0  0  0  0  0  0  0
    1.7616    3.7124   -0.5087 H   0  0  0  0  0  0  0  0  0  0  0  0
    0.4284    2.9963   -1.4316 H   0  0  0  0  0  0  0  0  0  0  0  0
    0.0938    3.9075    0.0480 H   0  0  0  0  0  0  0  0  0  0  0  0
    1.6484    1.2528   -0.0830 H   0  0  0  0  0  0  0  0  0  0  0  0
    1.2945    2.1393    1.3972 H   0  0  0  0  0  0  0  0  0  0  0  0
   -1.1731    1.8089    1.0432 H   0  0  0  0  0  0  0  0  0  0  0  0
   -1.5050   -0.6230    1.0572 H   0  0  0  0  0  0  0  0  0  0  0  0
    1.3072   -0.8601   -0.2029 H   0  0  0  0  0  0  0  0  0  0  0  0
    0.9178   -1.4559    1.4141 H   0  0  0  0  0  0  0  0  0  0  0  0
  1 11  1  0  0  0  0
  1  2  1  0  0  0  0
  2  3  1  0  0  0  0
  2 13  1  0  0  0  0
  3  5  1  1  0  0  0
  3 14  1  0  0  0  0
  4  3  1  0  0  0  0
  4  5  1  0  0  0  0
  5 15  1  1  0  0  0
  6  5  1  0  0  0  0
  6 17  1  0  0  0  0
  7  6  1  0  0  0  0
  8  7  3  0  0  0  0
  9  1  1  0  0  0  0
 10  1  1  0  0  0  0
 12  2  1  0  0  0  0
 16  6  1  0  0  0  0
M  END
