title
 OpenBabel02282110003D

 20 20  0  0  1  0  0  0  0  0999 V2000
   -0.0116    3.2739    1.0430 C   0  0  0  0  0  0  0  0  0  0  0  0
   -0.6111    1.9006    0.7165 C   0  0  0  0  0  0  0  0  0  0  0  0
    0.0240    1.2716   -0.5082 C   0  0  1  0  0  0  0  0  0  0  0  0
    1.2883    0.4484   -0.4019 C   0  0  0  0  0  0  0  0  0  0  0  0
   -0.0071   -0.2102   -0.8054 C   0  0  1  0  0  0  0  0  0  0  0  0
   -0.6940   -1.2164    0.1104 C   0  0  0  0  0  0  0  0  0  0  0  0
   -0.2025   -2.5775   -0.0866 C   0  0  0  0  0  0  0  0  0  0  0  0
    0.2078   -3.6924   -0.2688 C   0  0  0  0  0  0  0  0  0  0  0  0
    1.0633    3.1966    1.2365 H   0  0  0  0  0  0  0  0  0  0  0  0
   -0.1478    3.9715    0.2092 H   0  0  0  0  0  0  0  0  0  0  0  0
   -0.4843    3.7140    1.9265 H   0  0  0  0  0  0  0  0  0  0  0  0
   -0.4917    1.2427    1.5851 H   0  0  0  0  0  0  0  0  0  0  0  0
   -1.6930    2.0041    0.5585 H   0  0  0  0  0  0  0  0  0  0  0  0
   -0.0430    1.9034   -1.3920 H   0  0  0  0  0  0  0  0  0  0  0  0
    2.0696    0.5704   -1.1439 H   0  0  0  0  0  0  0  0  0  0  0  0
    1.6584    0.2375    0.5976 H   0  0  0  0  0  0  0  0  0  0  0  0
   -0.0962   -0.4728   -1.8558 H   0  0  0  0  0  0  0  0  0  0  0  0
   -0.5524   -0.9334    1.1597 H   0  0  0  0  0  0  0  0  0  0  0  0
   -1.7785   -1.1968   -0.0635 H   0  0  0  0  0  0  0  0  0  0  0  0
    0.5689   -4.6791   -0.4208 H   0  0  0  0  0  0  0  0  0  0  0  0
  1  9  1  0  0  0  0
  1 11  1  0  0  0  0
  2  1  1  0  0  0  0
  2 12  1  0  0  0  0
  3  5  1  6  0  0  0
  3  4  1  0  0  0  0
  3  2  1  0  0  0  0
  4 16  1  0  0  0  0
  5 17  1  6  0  0  0
  5  4  1  0  0  0  0
  5  6  1  0  0  0  0
  6 18  1  0  0  0  0
  7  6  1  0  0  0  0
  8  7  3  0  0  0  0
 10  1  1  0  0  0  0
 13  2  1  0  0  0  0
 14  3  1  0  0  0  0
 15  4  1  0  0  0  0
 19  6  1  0  0  0  0
 20  8  1  0  0  0  0
M  END
