title
 OpenBabel02282110003D

 17 17  0  0  1  0  0  0  0  0999 V2000
    0.7302    3.1099   -0.5969 O   0  0  0  0  0  0  0  0  0  0  0  0
    0.8798    1.8973    0.1268 C   0  0  0  0  0  0  0  0  0  0  0  0
   -0.4814    1.2575    0.2227 C   0  0  1  0  0  0  0  0  0  0  0  0
   -1.0150    0.4031   -0.9001 C   0  0  0  0  0  0  0  0  0  0  0  0
   -0.6914   -0.2254    0.4308 C   0  0  1  0  0  0  0  0  0  0  0  0
    0.4661   -1.2054    0.5753 C   0  0  0  0  0  0  0  0  0  0  0  0
    0.0615   -2.5785    0.2655 C   0  0  0  0  0  0  0  0  0  0  0  0
   -0.2700   -3.6589    0.0250 N   0  0  0  0  0  0  0  0  0  0  0  0
    1.5748    3.5704   -0.5886 H   0  0  0  0  0  0  0  0  0  0  0  0
    1.5901    1.2243   -0.3795 H   0  0  0  0  0  0  0  0  0  0  0  0
    1.2758    2.0873    1.1378 H   0  0  0  0  0  0  0  0  0  0  0  0
   -1.2047    1.8964    0.7217 H   0  0  0  0  0  0  0  0  0  0  0  0
   -2.0539    0.5028   -1.1919 H   0  0  0  0  0  0  0  0  0  0  0  0
   -0.3402    0.1979   -1.7257 H   0  0  0  0  0  0  0  0  0  0  0  0
   -1.5406   -0.4875    1.0544 H   0  0  0  0  0  0  0  0  0  0  0  0
    1.2942   -0.9391   -0.0889 H   0  0  0  0  0  0  0  0  0  0  0  0
    0.8648   -1.1897    1.5971 H   0  0  0  0  0  0  0  0  0  0  0  0
  1  9  1  0  0  0  0
  1  2  1  0  0  0  0
  2  3  1  0  0  0  0
  2 11  1  0  0  0  0
  3  5  1  1  0  0  0
  3 12  1  0  0  0  0
  4  3  1  0  0  0  0
  4  5  1  0  0  0  0
  5  6  1  0  0  0  0
  5 15  1  1  0  0  0
  6 17  1  0  0  0  0
  7  6  1  0  0  0  0
  8  7  3  0  0  0  0
 10  2  1  0  0  0  0
 13  4  1  0  0  0  0
 14  4  1  0  0  0  0
 16  6  1  0  0  0  0
M  END
