15
title
O 0.8112267 3.027632 -0.5551634
C 0.9317452 1.891751 0.28015405
C -0.40838614 1.2229129 0.4685534
O -0.9009595 0.47890663 -0.66235507
C -0.6430831 -0.2275996 0.54539883
C 0.46516216 -1.2708989 0.521172
C -0.008576299 -2.5550816 0.0033998545
N -0.39273503 -3.5682414 -0.396604
H 0.45254067 2.7240105 -1.3969555
H 1.6710657 1.1807156 -0.11414573
H 1.2999372 2.2576027 1.24499
H -1.1609963 1.8706151 0.92095375
H -1.5409569 -0.5607101 1.0673653
H 1.3005149 -0.93066347 -0.095407866
H 0.84558105 -1.4259268 1.5380491
