title
 OpenBabel02282110003D

 15 15  0  0  1  0  0  0  0  0999 V2000
    0.8112    3.0276   -0.5552 O   0  0  0  0  0  0  0  0  0  0  0  0
    0.9317    1.8918    0.2802 C   0  0  0  0  0  0  0  0  0  0  0  0
   -0.4084    1.2229    0.4686 C   0  0  1  0  0  0  0  0  0  0  0  0
   -0.9010    0.4789   -0.6624 O   0  0  0  0  0  0  0  0  0  0  0  0
   -0.6431   -0.2276    0.5454 C   0  0  1  0  0  0  0  0  0  0  0  0
    0.4652   -1.2709    0.5212 C   0  0  0  0  0  0  0  0  0  0  0  0
   -0.0086   -2.5551    0.0034 C   0  0  0  0  0  0  0  0  0  0  0  0
   -0.3927   -3.5682   -0.3966 N   0  0  0  0  0  0  0  0  0  0  0  0
    0.4525    2.7240   -1.3970 H   0  0  0  0  0  0  0  0  0  0  0  0
    1.6711    1.1807   -0.1141 H   0  0  0  0  0  0  0  0  0  0  0  0
    1.2999    2.2576    1.2450 H   0  0  0  0  0  0  0  0  0  0  0  0
   -1.1610    1.8706    0.9210 H   0  0  0  0  0  0  0  0  0  0  0  0
   -1.5410   -0.5607    1.0674 H   0  0  0  0  0  0  0  0  0  0  0  0
    1.3005   -0.9307   -0.0954 H   0  0  0  0  0  0  0  0  0  0  0  0
    0.8456   -1.4259    1.5380 H   0  0  0  0  0  0  0  0  0  0  0  0
  1  2  1  0  0  0  0
  2  3  1  0  0  0  0
  2 11  1  0  0  0  0
  3  5  1  1  0  0  0
  3 12  1  0  0  0  0
  4  3  1  0  0  0  0
  4  5  1  0  0  0  0
  5 13  1  1  0  0  0
  6  5  1  0  0  0  0
  6 15  1  0  0  0  0
  7  6  1  0  0  0  0
  8  7  3  0  0  0  0
  9  1  1  0  0  0  0
 10  2  1  0  0  0  0
 14  6  1  0  0  0  0
M  END
