16
title
O 0.7648999 2.9623544 -0.79500157
C 0.9237475 1.9015691 0.13110699
C -0.4000679 1.2329165 0.40959007
O -0.9225161 0.42343977 -0.66096145
C -0.6104963 -0.21395038 0.57634866
C 0.50064564 -1.2542458 0.57508934
C 0.016479336 -2.5740888 0.18418455
C -0.40329847 -3.6547983 -0.13028207
H 0.367212 2.5828614 -1.5870749
H 1.6627258 1.1696528 -0.22241792
H 1.3118569 2.352617 1.0510479
H -1.1433725 1.90029 0.8496112
H -1.488967 -0.5218518 1.1454433
H 1.3021103 -0.93953323 -0.09984197
H 0.93389326 -1.305929 1.5831641
H -0.7656112 -4.611083 -0.4160673
