title
 OpenBabel02282110003D

 16 16  0  0  1  0  0  0  0  0999 V2000
    0.8196    3.0245   -0.5807 O   0  0  0  0  0  0  0  0  0  0  0  0
    0.9090    1.9242    0.3050 C   0  0  0  0  0  0  0  0  0  0  0  0
   -0.4322    1.2395    0.4456 C   0  0  1  0  0  0  0  0  0  0  0  0
   -0.8795    0.4990   -0.7509 N   0  0  0  0  0  0  0  0  0  0  0  0
   -0.6485   -0.2319    0.4986 C   0  0  1  0  0  0  0  0  0  0  0  0
    0.4761   -1.2590    0.4952 C   0  0  0  0  0  0  0  0  0  0  0  0
    0.0026   -2.5710    0.0523 C   0  0  0  0  0  0  0  0  0  0  0  0
   -0.3916   -3.6022   -0.2884 N   0  0  0  0  0  0  0  0  0  0  0  0
    0.4897    2.6710   -1.4155 H   0  0  0  0  0  0  0  0  0  0  0  0
    1.6755    1.2091   -0.0264 H   0  0  0  0  0  0  0  0  0  0  0  0
    1.2290    2.3291    1.2709 H   0  0  0  0  0  0  0  0  0  0  0  0
   -1.1798    1.8436    0.9572 H   0  0  0  0  0  0  0  0  0  0  0  0
   -1.8727    0.6272   -0.9198 H   0  0  0  0  0  0  0  0  0  0  0  0
   -1.5244   -0.5602    1.0545 H   0  0  0  0  0  0  0  0  0  0  0  0
    1.2804   -0.9368   -0.1707 H   0  0  0  0  0  0  0  0  0  0  0  0
    0.8992   -1.3630    1.5012 H   0  0  0  0  0  0  0  0  0  0  0  0
  1  2  1  0  0  0  0
  2  3  1  0  0  0  0
  2 11  1  0  0  0  0
  3  5  1  1  0  0  0
  3 12  1  0  0  0  0
  4  3  1  0  0  0  0
  4  5  1  0  0  0  0
  5 14  1  1  0  0  0
  6  5  1  0  0  0  0
  6 16  1  0  0  0  0
  7  6  1  0  0  0  0
  8  7  3  0  0  0  0
  9  1  1  0  0  0  0
 10  2  1  0  0  0  0
 13  4  1  0  0  0  0
 15  6  1  0  0  0  0
M  END
