title
 OpenBabel02282110003D

 16 16  0  0  1  0  0  0  0  0999 V2000
    0.7649    2.9624   -0.7950 O   0  0  0  0  0  0  0  0  0  0  0  0
    0.9237    1.9016    0.1311 C   0  0  0  0  0  0  0  0  0  0  0  0
   -0.4001    1.2329    0.4096 C   0  0  1  0  0  0  0  0  0  0  0  0
   -0.9225    0.4234   -0.6610 O   0  0  0  0  0  0  0  0  0  0  0  0
   -0.6105   -0.2140    0.5763 C   0  0  1  0  0  0  0  0  0  0  0  0
    0.5006   -1.2542    0.5751 C   0  0  0  0  0  0  0  0  0  0  0  0
    0.0165   -2.5741    0.1842 C   0  0  0  0  0  0  0  0  0  0  0  0
   -0.4033   -3.6548   -0.1303 C   0  0  0  0  0  0  0  0  0  0  0  0
    0.3672    2.5829   -1.5871 H   0  0  0  0  0  0  0  0  0  0  0  0
    1.6627    1.1697   -0.2224 H   0  0  0  0  0  0  0  0  0  0  0  0
    1.3119    2.3526    1.0510 H   0  0  0  0  0  0  0  0  0  0  0  0
   -1.1434    1.9003    0.8496 H   0  0  0  0  0  0  0  0  0  0  0  0
   -1.4890   -0.5219    1.1454 H   0  0  0  0  0  0  0  0  0  0  0  0
    1.3021   -0.9395   -0.0998 H   0  0  0  0  0  0  0  0  0  0  0  0
    0.9339   -1.3059    1.5832 H   0  0  0  0  0  0  0  0  0  0  0  0
   -0.7656   -4.6111   -0.4161 H   0  0  0  0  0  0  0  0  0  0  0  0
  1  2  1  0  0  0  0
  2  3  1  0  0  0  0
  2 11  1  0  0  0  0
  3  5  1  1  0  0  0
  3 12  1  0  0  0  0
  4  3  1  0  0  0  0
  4  5  1  0  0  0  0
  5 13  1  1  0  0  0
  6  5  1  0  0  0  0
  6 15  1  0  0  0  0
  7  6  1  0  0  0  0
  8  7  3  0  0  0  0
  9  1  1  0  0  0  0
 10  2  1  0  0  0  0
 14  6  1  0  0  0  0
 16  8  1  0  0  0  0
M  END
