18
title
O 0.72994125 3.0824766 -0.6882481
C 0.87884235 1.8865502 0.066820525
C -0.479733 1.246234 0.18117589
C -1.0113002 0.35773733 -0.91769385
C -0.68313956 -0.2317073 0.42898548
C 0.47193083 -1.2126794 0.6007211
C 0.065117255 -2.59501 0.36292908
C -0.28950572 -3.7274668 0.17241405
H 1.5775354 3.5372574 -0.69544107
H 1.5895256 1.2017436 -0.42145944
H 1.2758065 2.1047473 1.0719024
H -1.2051629 1.899025 0.6592365
H -2.0499144 0.45107606 -1.2135441
H -0.33578348 0.13149372 -1.7373623
H -1.5334545 -0.47691247 1.058615
H 1.2911917 -0.9594433 -0.08199538
H 0.88494915 -1.1292531 1.6151563
H -0.59523845 -4.729382 5.6729685e-05
