18
title
C 0.6909503 3.3051572 -0.48910156
C 0.91537756 1.998856 0.28368956
C -0.3873983 1.2979164 0.5822959
O -1.0437992 0.62695396 -0.5029705
C -0.59635013 -0.16038463 0.6081348
C 0.47187272 -1.1977646 0.33014503
C -0.084315434 -2.3556085 -0.47974434
O 0.03647803 -3.5155687 -0.18226391
H 1.6405457 3.8060536 -0.6974051
H 0.19210355 3.106689 -1.4422225
H 0.0633686 3.9992337 0.08011944
H 1.5742532 1.3418648 -0.2914989
H 1.4217353 2.2072623 1.2351011
H -1.0745595 1.8872541 1.1953505
H -1.4112713 -0.52665377 1.236468
H 1.2828628 -0.75043917 -0.25611684
H 0.8891546 -1.5912795 1.262074
H -0.626429 -2.0463355 -1.4003983
