19
title
C 0.7022867 3.3852103 -0.41414034
C 0.88550234 2.0175169 0.25422984
C -0.43649012 1.3162276 0.4708361
N -1.0278859 0.6165339 -0.6826904
C -0.63285583 -0.16019787 0.5078477
C 0.47307426 -1.1825083 0.32174346
C -0.044184078 -2.4162986 -0.38961476
O 0.06936867 -3.544236 0.01722362
H 1.6644799 3.881527 -0.5709211
H 0.2138824 3.2732904 -1.3870023
H 0.081699975 4.047693 0.19969307
H 1.5356736 1.3952713 -0.36817408
H 1.3882291 2.1363943 1.2226893
H -1.1276721 1.8786736 1.100143
H -2.0351324 0.74421394 -0.7129068
H -1.4368076 -0.5063685 1.1568266
H 1.2640744 -0.75378454 -0.30435714
H 0.9075295 -1.4826566 1.2799816
H -0.56175977 -2.1971138 -1.3502984
