17
title
C 0.86890423 2.5445633 -0.22577854
O 0.64399385 1.5031844 -1.1639668
C -0.6158548 0.91936976 -1.0213501
C -0.80050033 -0.41162482 -1.6877569
C -0.7132146 -0.3285598 -0.17547907
N 0.4785466 -0.77098054 0.48030025
C 0.46744248 -1.5869485 1.5665619
O -0.5263507 -2.0568726 2.0800905
H 1.8721112 2.9329793 -0.41452459
H 0.14130516 3.358609 -0.35488716
H 0.80663055 2.1815221 0.80893487
H -1.4438062 1.6285859 -1.0106673
H -1.7561727 -0.63726014 -2.1470857
H 0.06502725 -0.8108062 -2.205816
H -1.5965793 -0.5219578 0.4191566
H 1.3534364 -0.39801946 0.14440869
H 1.4927963 -1.7778207 1.9410188
