title
 OpenBabel02282110003D

 17 17  0  0  1  0  0  0  0  0999 V2000
    0.8689    2.5446   -0.2258 C   0  0  0  0  0  0  0  0  0  0  0  0
    0.6440    1.5032   -1.1640 O   0  0  0  0  0  0  0  0  0  0  0  0
   -0.6159    0.9194   -1.0214 C   0  0  1  0  0  0  0  0  0  0  0  0
   -0.8005   -0.4116   -1.6878 C   0  0  0  0  0  0  0  0  0  0  0  0
   -0.7132   -0.3286   -0.1755 C   0  0  1  0  0  0  0  0  0  0  0  0
    0.4785   -0.7710    0.4803 N   0  0  0  0  0  0  0  0  0  0  0  0
    0.4674   -1.5869    1.5666 C   0  0  0  0  0  0  0  0  0  0  0  0
   -0.5264   -2.0569    2.0801 O   0  0  0  0  0  0  0  0  0  0  0  0
    1.8721    2.9330   -0.4145 H   0  0  0  0  0  0  0  0  0  0  0  0
    0.1413    3.3586   -0.3549 H   0  0  0  0  0  0  0  0  0  0  0  0
    0.8066    2.1815    0.8089 H   0  0  0  0  0  0  0  0  0  0  0  0
   -1.4438    1.6286   -1.0107 H   0  0  0  0  0  0  0  0  0  0  0  0
   -1.7562   -0.6373   -2.1471 H   0  0  0  0  0  0  0  0  0  0  0  0
    0.0650   -0.8108   -2.2058 H   0  0  0  0  0  0  0  0  0  0  0  0
   -1.5966   -0.5220    0.4192 H   0  0  0  0  0  0  0  0  0  0  0  0
    1.3534   -0.3980    0.1444 H   0  0  0  0  0  0  0  0  0  0  0  0
    1.4928   -1.7778    1.9410 H   0  0  0  0  0  0  0  0  0  0  0  0
  1 11  1  0  0  0  0
  2  3  1  0  0  0  0
  2  1  1  0  0  0  0
  3 12  1  0  0  0  0
  3  5  1  1  0  0  0
  4  3  1  0  0  0  0
  4  5  1  0  0  0  0
  5 15  1  1  0  0  0
  5  6  1  0  0  0  0
  6  7  1  0  0  0  0
  7 17  1  0  0  0  0
  7  8  2  0  0  0  0
  9  1  1  0  0  0  0
 10  1  1  0  0  0  0
 13  4  1  0  0  0  0
 14  4  1  0  0  0  0
 16  6  1  0  0  0  0
M  END
