title
 OpenBabel02282110003D

 19 19  0  0  1  0  0  0  0  0999 V2000
   -0.2227    2.9953   -0.2753 C   0  0  0  0  0  0  0  0  0  0  0  0
   -0.0998    1.4787   -0.3993 C   0  0  0  0  0  0  0  0  0  0  0  0
    0.2065    0.8945    0.9057 N   0  0  0  0  0  0  0  0  0  0  0  0
   -0.9113    0.4495    1.7304 C   0  0  0  0  0  0  0  0  0  0  0  0
    0.0344   -0.5383    1.1369 C   0  0  1  0  0  0  0  0  0  0  0  0
   -0.4185   -1.5121    0.0598 C   0  0  0  0  0  0  0  0  0  0  0  0
    0.7285   -1.9340   -0.8371 C   0  0  0  0  0  0  0  0  0  0  0  0
    0.7024   -1.9204   -2.0402 O   0  0  0  0  0  0  0  0  0  0  0  0
    0.6968    3.4232    0.1331 H   0  0  0  0  0  0  0  0  0  0  0  0
   -0.4160    3.4468   -1.2532 H   0  0  0  0  0  0  0  0  0  0  0  0
   -1.0473    3.2665    0.3922 H   0  0  0  0  0  0  0  0  0  0  0  0
   -1.0242    1.0738   -0.8428 H   0  0  0  0  0  0  0  0  0  0  0  0
    0.7189    1.2229   -1.0818 H   0  0  0  0  0  0  0  0  0  0  0  0
   -0.8672    0.7008    2.7872 H   0  0  0  0  0  0  0  0  0  0  0  0
   -1.9105    0.4919    1.2956 H   0  0  0  0  0  0  0  0  0  0  0  0
    0.8062   -0.9518    1.7869 H   0  0  0  0  0  0  0  0  0  0  0  0
   -0.7881   -2.4197    0.5603 H   0  0  0  0  0  0  0  0  0  0  0  0
   -1.2273   -1.1227   -0.5610 H   0  0  0  0  0  0  0  0  0  0  0  0
    1.6375   -2.2740   -0.2866 H   0  0  0  0  0  0  0  0  0  0  0  0
  1  9  1  0  0  0  0
  1 11  1  0  0  0  0
  2  1  1  0  0  0  0
  2  3  1  0  0  0  0
  3  5  1  0  0  0  0
  3  4  1  0  0  0  0
  4 14  1  0  0  0  0
  5  4  1  0  0  0  0
  5 16  1  1  0  0  0
  6 17  1  0  0  0  0
  6  5  1  0  0  0  0
  7 19  1  0  0  0  0
  7  6  1  0  0  0  0
  8  7  2  0  0  0  0
 10  1  1  0  0  0  0
 12  2  1  0  0  0  0
 13  2  1  0  0  0  0
 15  4  1  0  0  0  0
 18  6  1  0  0  0  0
M  END
