19
title
C 0.83780473 2.9177828 -0.16070887
C 0.67936456 1.4221967 0.13385281
C -0.71972513 0.91805005 -0.14793825
C -1.1182395 0.4630132 -1.5328909
C -1.0093925 -0.5398633 -0.41310826
N 0.060184285 -1.4955649 -0.46037164
C 0.6435041 -2.0031185 0.6619877
O 0.41857767 -1.6340892 1.7935208
H 1.8554015 3.256818 0.05685669
H 0.6256989 3.1397278 -1.2121933
H 0.15136652 3.5167558 0.44792542
H 1.3976102 0.85036373 -0.4644592
H 0.9229969 1.215871 1.1821622
H -1.4964093 1.422169 0.4221919
H -2.103838 0.6975067 -1.9186187
H -0.3352418 0.44402483 -2.2855778
H -1.9354502 -0.92925996 0.0028913324
H 0.24739705 -1.9616866 -1.334883
H 1.3727834 -2.8026085 0.4168019
