title
 OpenBabel02282110003D

 18 18  0  0  1  0  0  0  0  0999 V2000
    0.6736    3.1835   -0.3838 O   0  0  0  0  0  0  0  0  0  0  0  0
    0.8156    1.9265    0.2646 C   0  0  0  0  0  0  0  0  0  0  0  0
   -0.5550    1.3088    0.3609 C   0  0  1  0  0  0  0  0  0  0  0  0
   -1.1258    0.5149   -0.7877 C   0  0  0  0  0  0  0  0  0  0  0  0
   -0.7785   -0.1796    0.5077 C   0  0  1  0  0  0  0  0  0  0  0  0
    0.3523   -1.1931    0.5774 C   0  0  0  0  0  0  0  0  0  0  0  0
   -0.1284   -2.5791    0.1959 C   0  0  0  0  0  0  0  0  0  0  0  0
    0.4168   -3.3045   -0.5942 O   0  0  0  0  0  0  0  0  0  0  0  0
    1.5327    3.6162   -0.3868 H   0  0  0  0  0  0  0  0  0  0  0  0
    1.4951    1.2681   -0.2977 H   0  0  0  0  0  0  0  0  0  0  0  0
    1.2420    2.0505    1.2736 H   0  0  0  0  0  0  0  0  0  0  0  0
   -1.2572    1.9383    0.9007 H   0  0  0  0  0  0  0  0  0  0  0  0
   -2.1687    0.6479   -1.0515 H   0  0  0  0  0  0  0  0  0  0  0  0
   -0.4718    0.3388   -1.6365 H   0  0  0  0  0  0  0  0  0  0  0  0
   -1.6241   -0.4454    1.1383 H   0  0  0  0  0  0  0  0  0  0  0  0
    1.1913   -0.9371   -0.0734 H   0  0  0  0  0  0  0  0  0  0  0  0
    0.7334   -1.2550    1.6085 H   0  0  0  0  0  0  0  0  0  0  0  0
   -1.0610   -2.8993    0.7187 H   0  0  0  0  0  0  0  0  0  0  0  0
  1  2  1  0  0  0  0
  2  3  1  0  0  0  0
  2 11  1  0  0  0  0
  3  5  1  1  0  0  0
  3 12  1  0  0  0  0
  4  3  1  0  0  0  0
  4  5  1  0  0  0  0
  5  6  1  0  0  0  0
  5 15  1  1  0  0  0
  6 17  1  0  0  0  0
  7  6  1  0  0  0  0
  7 18  1  0  0  0  0
  8  7  2  0  0  0  0
  9  1  1  0  0  0  0
 10  2  1  0  0  0  0
 13  4  1  0  0  0  0
 14  4  1  0  0  0  0
 16  6  1  0  0  0  0
M  END
