title
 OpenBabel02282110003D

 19 19  0  0  1  0  0  0  0  0999 V2000
    2.0772    2.7084    0.0113 C   0  0  0  0  0  0  0  0  0  0  0  0
    1.9524    1.1851    0.0938 C   0  0  0  0  0  0  0  0  0  0  0  0
    0.6148    0.6653   -0.4484 C   0  0  0  0  0  0  0  0  0  0  0  0
    0.5000   -0.8366   -0.3484 C   0  0  1  0  0  0  0  0  0  0  0  0
    0.1382   -1.3855    0.9626 N   0  0  0  0  0  0  0  0  0  0  0  0
   -0.8091   -1.5453   -0.1699 C   0  0  1  0  0  0  0  0  0  0  0  0
   -2.0667   -0.8536   -0.0944 C   0  0  0  0  0  0  0  0  0  0  0  0
   -3.1302   -0.2932   -0.0661 C   0  0  0  0  0  0  0  0  0  0  0  0
    3.0376    3.0524    0.4076 H   0  0  0  0  0  0  0  0  0  0  0  0
    1.9997    3.0581   -1.0245 H   0  0  0  0  0  0  0  0  0  0  0  0
    1.2840    3.2002    0.5851 H   0  0  0  0  0  0  0  0  0  0  0  0
    2.7780    0.7186   -0.4608 H   0  0  0  0  0  0  0  0  0  0  0  0
    2.0572    0.8583    1.1353 H   0  0  0  0  0  0  0  0  0  0  0  0
   -0.2137    1.1195    0.1049 H   0  0  0  0  0  0  0  0  0  0  0  0
    0.4955    0.9626   -1.4990 H   0  0  0  0  0  0  0  0  0  0  0  0
    1.2391   -1.3907   -0.9282 H   0  0  0  0  0  0  0  0  0  0  0  0
    0.6101   -2.2704    1.1299 H   0  0  0  0  0  0  0  0  0  0  0  0
   -0.8744   -2.5342   -0.6198 H   0  0  0  0  0  0  0  0  0  0  0  0
   -4.0670    0.2051   -0.0286 H   0  0  0  0  0  0  0  0  0  0  0  0
  1  2  1  0  0  0  0
  1  9  1  0  0  0  0
  1 11  1  0  0  0  0
  2 13  1  0  0  0  0
  3  4  1  0  0  0  0
  3  2  1  0  0  0  0
  3 14  1  0  0  0  0
  4  6  1  6  0  0  0
  4  5  1  0  0  0  0
  5 17  1  0  0  0  0
  6 18  1  6  0  0  0
  6  7  1  0  0  0  0
  6  5  1  0  0  0  0
  7  8  3  0  0  0  0
  8 19  1  0  0  0  0
 10  1  1  0  0  0  0
 12  2  1  0  0  0  0
 15  3  1  0  0  0  0
 16  4  1  0  0  0  0
M  END
