title
 OpenBabel02282110003D

 16 16  0  0  1  0  0  0  0  0999 V2000
    1.0260    2.3019    0.4358 O   0  0  0  0  0  0  0  0  0  0  0  0
    0.5169    1.7952   -0.7830 C   0  0  0  0  0  0  0  0  0  0  0  0
   -0.8902    1.2450   -0.6348 C   0  0  1  0  0  0  0  0  0  0  0  0
   -1.3028    0.0171   -1.4208 C   0  0  0  0  0  0  0  0  0  0  0  0
   -1.0789   -0.0650    0.0651 C   0  0  1  0  0  0  0  0  0  0  0  0
    0.1070   -0.6651    0.5632 O   0  0  0  0  0  0  0  0  0  0  0  0
    0.1581   -2.0177    0.5570 C   0  0  0  0  0  0  0  0  0  0  0  0
    1.0917   -2.6223    0.9870 O   0  0  0  0  0  0  0  0  0  0  0  0
    1.1424    1.5452    1.0217 H   0  0  0  0  0  0  0  0  0  0  0  0
    0.5097    2.6341   -1.4863 H   0  0  0  0  0  0  0  0  0  0  0  0
    1.1749    1.0215   -1.2030 H   0  0  0  0  0  0  0  0  0  0  0  0
   -1.6515    1.9931   -0.4369 H   0  0  0  0  0  0  0  0  0  0  0  0
   -2.3180   -0.0670   -1.7919 H   0  0  0  0  0  0  0  0  0  0  0  0
   -0.5482   -0.4304   -2.0597 H   0  0  0  0  0  0  0  0  0  0  0  0
   -1.9294   -0.1946    0.7274 H   0  0  0  0  0  0  0  0  0  0  0  0
   -0.7470   -2.4742    0.1159 H   0  0  0  0  0  0  0  0  0  0  0  0
  1  9  1  0  0  0  0
  2  3  1  0  0  0  0
  2  1  1  0  0  0  0
  3 12  1  0  0  0  0
  3  5  1  1  0  0  0
  4  3  1  0  0  0  0
  4  5  1  0  0  0  0
  5  6  1  0  0  0  0
  5 15  1  1  0  0  0
  7  6  1  0  0  0  0
  7  8  2  0  0  0  0
 10  2  1  0  0  0  0
 11  2  1  0  0  0  0
 13  4  1  0  0  0  0
 14  4  1  0  0  0  0
 16  7  1  0  0  0  0
M  END
