title
 OpenBabel02282110003D

 17 17  0  0  1  0  0  0  0  0999 V2000
    0.7692    2.7144   -0.1957 O   0  0  0  0  0  0  0  0  0  0  0  0
    0.6614    1.3479    0.1885 C   0  0  0  0  0  0  0  0  0  0  0  0
   -0.7327    0.8875   -0.1423 C   0  0  1  0  0  0  0  0  0  0  0  0
   -1.0873    0.4600   -1.5442 C   0  0  0  0  0  0  0  0  0  0  0  0
   -1.0447   -0.5597   -0.4359 C   0  0  1  0  0  0  0  0  0  0  0  0
   -0.0028   -1.5475   -0.4588 N   0  0  0  0  0  0  0  0  0  0  0  0
    0.6129   -2.0103    0.6656 C   0  0  0  0  0  0  0  0  0  0  0  0
    0.4624   -1.5626    1.7812 O   0  0  0  0  0  0  0  0  0  0  0  0
    1.6021    3.0508    0.1478 H   0  0  0  0  0  0  0  0  0  0  0  0
    1.3957    0.7263   -0.3452 H   0  0  0  0  0  0  0  0  0  0  0  0
    0.8389    1.2149    1.2643 H   0  0  0  0  0  0  0  0  0  0  0  0
   -1.5052    1.4131    0.4105 H   0  0  0  0  0  0  0  0  0  0  0  0
   -2.0513    0.7324   -1.9578 H   0  0  0  0  0  0  0  0  0  0  0  0
   -0.2771    0.4364   -2.2663 H   0  0  0  0  0  0  0  0  0  0  0  0
   -1.9952   -0.9244   -0.0537 H   0  0  0  0  0  0  0  0  0  0  0  0
    0.1358   -2.0679   -1.3118 H   0  0  0  0  0  0  0  0  0  0  0  0
    1.2982   -2.8523    0.4369 H   0  0  0  0  0  0  0  0  0  0  0  0
  1  9  1  0  0  0  0
  1  2  1  0  0  0  0
  2 11  1  0  0  0  0
  3  5  1  1  0  0  0
  3  2  1  0  0  0  0
  3 12  1  0  0  0  0
  4  5  1  0  0  0  0
  4  3  1  0  0  0  0
  5 15  1  1  0  0  0
  6  5  1  0  0  0  0
  6  7  1  0  0  0  0
  7  8  2  0  0  0  0
 10  2  1  0  0  0  0
 13  4  1  0  0  0  0
 14  4  1  0  0  0  0
 16  6  1  0  0  0  0
 17  7  1  0  0  0  0
M  END
