19
title
C -1.1241677 2.69743 -1.770335
C -0.9424758 1.1776334 -1.7510892
C -0.6500979 0.6324714 -0.34639683
C -0.4819201 -0.8714338 -0.32801822
C 0.8428032 -1.5064008 -0.626271
C 0.2845299 -1.5731139 0.7896459
C 0.90511304 -0.807568 1.833601
N 1.401338 -0.1903502 2.677684
H -0.22373977 3.2077682 -1.411516
H -1.3330613 3.0603101 -2.7812579
H -1.9557569 3.0050824 -1.1268715
H -1.8451818 0.69383186 -2.1469464
H -0.1250017 0.8927042 -2.4254665
H 0.2542915 1.1069964 0.053310487
H -1.4649863 0.91455674 0.33315083
H -1.3552475 -1.4270184 -0.66081905
H 0.8799899 -2.4366817 -1.1810625
H 1.6922556 -0.8505021 -0.78215003
H -0.10007754 -2.5313513 1.1219158
