17
title
O 0.6552071 2.900171 -0.88860834
C 0.6164053 1.8218408 0.037856445
C -0.76727414 1.2268186 -0.013024344
C -1.1231403 0.24619725 -1.1114601
C -0.99268377 -0.21698877 0.31555143
O 0.1381928 -0.9648768 0.69983083
C 0.12432262 -2.273 0.35898027
N 1.0755441 -3.021992 0.71259445
H 1.5214635 3.3131142 -0.8234775
H 1.3613259 1.0519174 -0.20371255
H 0.8270208 2.169707 1.0612824
H -1.5521208 1.9079863 0.30194646
H -2.1091418 0.28429285 -1.5604284
H -0.32251582 -0.029306147 -1.7896049
H -1.8905598 -0.48374233 0.8680305
H -0.76021147 -2.5598438 -0.22430095
H 0.9140803 -3.9686077 0.37485862
