title
 OpenBabel02282110003D

 18 18  0  0  1  0  0  0  0  0999 V2000
    2.1583    2.5573    0.1051 C   0  0  0  0  0  0  0  0  0  0  0  0
    1.9826    1.0414    0.2263 C   0  0  0  0  0  0  0  0  0  0  0  0
    0.6198    0.5733   -0.2828 C   0  0  0  0  0  0  0  0  0  0  0  0
    0.5174   -0.8853   -0.1895 N   0  0  0  0  0  0  0  0  0  0  0  0
   -0.0101   -1.4399    1.0409 C   0  0  0  0  0  0  0  0  0  0  0  0
   -0.8157   -1.4980   -0.2248 C   0  0  1  0  0  0  0  0  0  0  0  0
   -2.0067   -0.6893   -0.3318 C   0  0  0  0  0  0  0  0  0  0  0  0
   -2.9636   -0.0496   -0.4493 N   0  0  0  0  0  0  0  0  0  0  0  0
    3.1389    2.8699    0.4753 H   0  0  0  0  0  0  0  0  0  0  0  0
    2.0761    2.8846   -0.9371 H   0  0  0  0  0  0  0  0  0  0  0  0
    1.3975    3.0947    0.6815 H   0  0  0  0  0  0  0  0  0  0  0  0
    2.7653    0.5201   -0.3360 H   0  0  0  0  0  0  0  0  0  0  0  0
    2.0981    0.7360    1.2741 H   0  0  0  0  0  0  0  0  0  0  0  0
   -0.1859    1.0812    0.2727 H   0  0  0  0  0  0  0  0  0  0  0  0
    0.4992    0.8433   -1.3382 H   0  0  0  0  0  0  0  0  0  0  0  0
    0.4603   -2.3477    1.4072 H   0  0  0  0  0  0  0  0  0  0  0  0
   -0.3623   -0.7526    1.8087 H   0  0  0  0  0  0  0  0  0  0  0  0
   -0.8716   -2.4299   -0.7807 H   0  0  0  0  0  0  0  0  0  0  0  0
  1  2  1  0  0  0  0
  1  9  1  0  0  0  0
  1 11  1  0  0  0  0
  2 13  1  0  0  0  0
  3  4  1  0  0  0  0
  3  2  1  0  0  0  0
  3 14  1  0  0  0  0
  4  5  1  0  0  0  0
  5 16  1  0  0  0  0
  5 17  1  0  0  0  0
  6 18  1  6  0  0  0
  6  4  1  0  0  0  0
  6  5  1  0  0  0  0
  7  6  1  0  0  0  0
  8  7  3  0  0  0  0
 10  1  1  0  0  0  0
 12  2  1  0  0  0  0
 15  3  1  0  0  0  0
M  END
