18
title
C 2.1583369 2.5572722 0.10505976
C 1.9826226 1.0414151 0.22633767
C 0.6198021 0.5733161 -0.28279805
N 0.51742625 -0.88527167 -0.18947405
C -0.010082722 -1.4398602 1.0408927
C -0.8157189 -1.4980363 -0.22482318
C -2.006734 -0.6893126 -0.33184353
N -2.9636126 -0.04962263 -0.4493198
H 3.1388943 2.8699067 0.47532243
H 2.0760925 2.884582 -0.9370639
H 1.3975273 3.0946984 0.68149734
H 2.7652855 0.5200845 -0.33596408
H 2.0981452 0.73603153 1.2740815
H -0.1858716 1.0812446 0.27274475
H 0.49919164 0.84326386 -1.3382438
H 0.46029127 -2.3477314 1.4071586
H -0.3622551 -0.7526232 1.8087202
H -0.8716161 -2.429915 -0.7806535
