18
title
C -1.0941484 2.6570616 1.8084583
C -1.0866623 1.1398262 1.6082631
C 0.12919673 0.65118134 0.8082909
C 0.120996326 -0.84383065 0.618172
O -0.8210614 -1.3787353 -0.31239122
C 0.57675964 -1.5154176 -0.62103266
C 1.0850962 -0.7908756 -1.7551363
C 1.5381917 -0.21749935 -2.7097769
H -0.20341036 2.9905016 2.3528645
H -1.1090785 3.1822872 0.84712934
H -1.9719146 2.9786026 2.3772917
H -1.105519 0.6392439 2.585421
H -1.9976014 0.8267558 1.0850115
H 0.15480861 1.1365525 -0.17283207
H 1.0557008 0.9309552 1.3280748
H 0.20494089 -1.4319255 1.5357085
H 0.9473215 -2.536826 -0.53310174
H 1.9305454 0.29293093 -3.5546231
