title
 OpenBabel02282110003D

 19 19  0  0  1  0  0  0  0  0999 V2000
    2.1757    2.5353    0.1105 C   0  0  0  0  0  0  0  0  0  0  0  0
    1.9833    1.0214    0.2296 C   0  0  0  0  0  0  0  0  0  0  0  0
    0.6152    0.5647   -0.2770 C   0  0  0  0  0  0  0  0  0  0  0  0
    0.5004   -0.8900   -0.1850 N   0  0  0  0  0  0  0  0  0  0  0  0
   -0.0360   -1.4352    1.0486 C   0  0  0  0  0  0  0  0  0  0  0  0
   -0.8459   -1.4910   -0.2142 C   0  0  1  0  0  0  0  0  0  0  0  0
   -2.0342   -0.6926   -0.3472 C   0  0  0  0  0  0  0  0  0  0  0  0
   -3.0373   -0.0460   -0.5007 C   0  0  0  0  0  0  0  0  0  0  0  0
    3.1598    2.8391    0.4796 H   0  0  0  0  0  0  0  0  0  0  0  0
    2.0951    2.8656   -0.9311 H   0  0  0  0  0  0  0  0  0  0  0  0
    1.4210    3.0804    0.6884 H   0  0  0  0  0  0  0  0  0  0  0  0
    2.7607    0.4930   -0.3336 H   0  0  0  0  0  0  0  0  0  0  0  0
    2.0979    0.7136    1.2768 H   0  0  0  0  0  0  0  0  0  0  0  0
   -0.1844    1.0822    0.2781 H   0  0  0  0  0  0  0  0  0  0  0  0
    0.4962    0.8392   -1.3320 H   0  0  0  0  0  0  0  0  0  0  0  0
    0.4349   -2.3397    1.4244 H   0  0  0  0  0  0  0  0  0  0  0  0
   -0.3801   -0.7391    1.8122 H   0  0  0  0  0  0  0  0  0  0  0  0
   -0.8791   -2.4334   -0.7565 H   0  0  0  0  0  0  0  0  0  0  0  0
   -3.9237    0.5252   -0.6254 H   0  0  0  0  0  0  0  0  0  0  0  0
  1  2  1  0  0  0  0
  1  9  1  0  0  0  0
  1 11  1  0  0  0  0
  2 13  1  0  0  0  0
  3  4  1  0  0  0  0
  3  2  1  0  0  0  0
  3 14  1  0  0  0  0
  4  5  1  0  0  0  0
  5 16  1  0  0  0  0
  5 17  1  0  0  0  0
  6 18  1  6  0  0  0
  6  4  1  0  0  0  0
  6  5  1  0  0  0  0
  7  6  1  0  0  0  0
  8  7  3  0  0  0  0
 10  1  1  0  0  0  0
 12  2  1  0  0  0  0
 15  3  1  0  0  0  0
 19  8  1  0  0  0  0
M  END
