title
 OpenBabel02282110003D

 18 18  0  0  1  0  0  0  0  0999 V2000
   -1.0895    2.4415    1.2670 C   0  0  0  0  0  0  0  0  0  0  0  0
   -0.6852    0.9812    1.3561 C   0  0  0  0  0  0  0  0  0  0  0  0
   -1.0718    0.3397    0.1436 O   0  0  0  0  0  0  0  0  0  0  0  0
   -0.7491   -1.0019    0.1041 C   0  0  1  0  0  0  0  0  0  0  0  0
   -0.5840   -1.6105   -1.2420 C   0  0  0  0  0  0  0  0  0  0  0  0
    0.6490   -1.4363   -0.3516 C   0  0  1  0  0  0  0  0  0  0  0  0
    1.6400   -0.4596   -0.6861 C   0  0  0  0  0  0  0  0  0  0  0  0
    2.4888    0.3505   -0.9538 C   0  0  0  0  0  0  0  0  0  0  0  0
   -0.5820    2.9264    0.4285 H   0  0  0  0  0  0  0  0  0  0  0  0
   -2.1688    2.5348    1.1168 H   0  0  0  0  0  0  0  0  0  0  0  0
   -0.8197    2.9668    2.1881 H   0  0  0  0  0  0  0  0  0  0  0  0
    0.3992    0.8810    1.4987 H   0  0  0  0  0  0  0  0  0  0  0  0
   -1.1824    0.4898    2.2084 H   0  0  0  0  0  0  0  0  0  0  0  0
   -1.1947   -1.6056    0.8973 H   0  0  0  0  0  0  0  0  0  0  0  0
   -0.9458   -2.6171   -1.4163 H   0  0  0  0  0  0  0  0  0  0  0  0
   -0.6617   -0.9332   -2.0838 H   0  0  0  0  0  0  0  0  0  0  0  0
    1.0332   -2.3414    0.1108 H   0  0  0  0  0  0  0  0  0  0  0  0
    3.2336    1.0665   -1.1979 H   0  0  0  0  0  0  0  0  0  0  0  0
  1  2  1  0  0  0  0
  1 11  1  0  0  0  0
  2 12  1  0  0  0  0
  2 13  1  0  0  0  0
  3  2  1  0  0  0  0
  4  6  1  1  0  0  0
  4  3  1  0  0  0  0
  4 14  1  0  0  0  0
  5  6  1  0  0  0  0
  5  4  1  0  0  0  0
  6 17  1  1  0  0  0
  7  6  1  0  0  0  0
  8  7  3  0  0  0  0
  9  1  1  0  0  0  0
 10  1  1  0  0  0  0
 15  5  1  0  0  0  0
 16  5  1  0  0  0  0
 18  8  1  0  0  0  0
M  END
