title
 OpenBabel02282110003D

 17 17  0  0  1  0  0  0  0  0999 V2000
   -0.9725    2.6124   -1.6348 C   0  0  0  0  0  0  0  0  0  0  0  0
   -0.9049    1.2083   -1.5715 O   0  0  0  0  0  0  0  0  0  0  0  0
   -0.5546    0.7378   -0.2875 C   0  0  0  0  0  0  0  0  0  0  0  0
   -0.4998   -0.7641   -0.3436 C   0  0  1  0  0  0  0  0  0  0  0  0
    0.7956   -1.3701   -0.6540 N   0  0  0  0  0  0  0  0  0  0  0  0
    0.2151   -1.5682    0.6968 C   0  0  1  0  0  0  0  0  0  0  0  0
    0.8949   -0.9701    1.8142 C   0  0  0  0  0  0  0  0  0  0  0  0
    1.4357   -0.4893    2.7744 C   0  0  0  0  0  0  0  0  0  0  0  0
   -0.0038    3.0795   -1.3972 H   0  0  0  0  0  0  0  0  0  0  0  0
   -1.2530    2.8808   -2.6562 H   0  0  0  0  0  0  0  0  0  0  0  0
   -1.7266    3.0177   -0.9406 H   0  0  0  0  0  0  0  0  0  0  0  0
    0.4229    1.1301    0.0290 H   0  0  0  0  0  0  0  0  0  0  0  0
   -1.3026    1.0587    0.4588 H   0  0  0  0  0  0  0  0  0  0  0  0
   -1.3923   -1.2215   -0.7671 H   0  0  0  0  0  0  0  0  0  0  0  0
    0.6752   -2.2181   -1.2020 H   0  0  0  0  0  0  0  0  0  0  0  0
   -0.2194   -2.5423    0.9125 H   0  0  0  0  0  0  0  0  0  0  0  0
    1.9246   -0.0615    3.6142 H   0  0  0  0  0  0  0  0  0  0  0  0
  1  2  1  0  0  0  0
  1  9  1  0  0  0  0
  1 11  1  0  0  0  0
  2  3  1  0  0  0  0
  3 12  1  0  0  0  0
  3 13  1  0  0  0  0
  4  3  1  0  0  0  0
  4  6  1  1  0  0  0
  5  4  1  0  0  0  0
  5  6  1  0  0  0  0
  6 16  1  1  0  0  0
  6  7  1  0  0  0  0
  7  8  3  0  0  0  0
  8 17  1  0  0  0  0
 10  1  1  0  0  0  0
 14  4  1  0  0  0  0
 15  5  1  0  0  0  0
M  END
