title
 OpenBabel02282110003D

 17 17  0  0  1  0  0  0  0  0999 V2000
    1.5850    2.4851    0.2872 C   0  0  0  0  0  0  0  0  0  0  0  0
    1.5158    1.0119   -0.0682 C   0  0  0  0  0  0  0  0  0  0  0  0
    0.6301    0.3750    0.8552 O   0  0  0  0  0  0  0  0  0  0  0  0
    0.4764   -0.9749    0.6390 C   0  0  1  0  0  0  0  0  0  0  0  0
   -0.7712   -1.5929    1.1542 C   0  0  0  0  0  0  0  0  0  0  0  0
   -0.5863   -1.4635   -0.3587 C   0  0  1  0  0  0  0  0  0  0  0  0
   -1.3627   -0.5001   -1.0811 C   0  0  0  0  0  0  0  0  0  0  0  0
   -1.9778    0.2759   -1.6804 N   0  0  0  0  0  0  0  0  0  0  0  0
    2.2665    3.0050   -0.3923 H   0  0  0  0  0  0  0  0  0  0  0  0
    0.5959    2.9433    0.2047 H   0  0  0  0  0  0  0  0  0  0  0  0
    1.9451    2.6186    1.3112 H   0  0  0  0  0  0  0  0  0  0  0  0
    1.1449    0.8719   -1.0925 H   0  0  0  0  0  0  0  0  0  0  0  0
    2.5103    0.5429   -0.0025 H   0  0  0  0  0  0  0  0  0  0  0  0
    1.3969   -1.5609    0.6559 H   0  0  0  0  0  0  0  0  0  0  0  0
   -0.7363   -2.5912    1.5736 H   0  0  0  0  0  0  0  0  0  0  0  0
   -1.4864   -0.9184    1.6092 H   0  0  0  0  0  0  0  0  0  0  0  0
   -0.3671   -2.3702   -0.9124 H   0  0  0  0  0  0  0  0  0  0  0  0
  1 11  1  0  0  0  0
  2 13  1  0  0  0  0
  2  1  1  0  0  0  0
  2  3  1  0  0  0  0
  4  6  1  6  0  0  0
  4 14  1  0  0  0  0
  4  3  1  0  0  0  0
  4  5  1  0  0  0  0
  5 15  1  0  0  0  0
  5 16  1  0  0  0  0
  6 17  1  6  0  0  0
  6  5  1  0  0  0  0
  7  6  1  0  0  0  0
  8  7  3  0  0  0  0
  9  1  1  0  0  0  0
 10  1  1  0  0  0  0
 12  2  1  0  0  0  0
M  END
