18
title
C -1.0894504 2.4415014 1.2670498
C -0.6851591 0.9811515 1.3561319
O -1.0718246 0.3397201 0.14362168
C -0.7491064 -1.0018731 0.1041497
C -0.5839645 -1.6105386 -1.2419834
C 0.64901567 -1.4363319 -0.3516202
C 1.6400107 -0.45961156 -0.6860552
C 2.4888225 0.35053423 -0.95375156
H -0.5820212 2.9263945 0.42854118
H -2.1688333 2.5348308 1.11684
H -0.8196522 2.9667544 2.1880744
H 0.3992145 0.88104254 1.4987214
H -1.1823795 0.48983833 2.208444
H -1.1946998 -1.605636 0.89729065
H -0.9457804 -2.617148 -1.4162819
H -0.66171294 -0.9332049 -2.0838437
H 1.0331551 -2.3413565 0.11083937
H 3.2335527 1.0664632 -1.1979187
