title
 OpenBabel02282110003D

 17 17  0  0  1  0  0  0  0  0999 V2000
   -1.0539    2.6831    1.8122 C   0  0  0  0  0  0  0  0  0  0  0  0
   -1.0347    1.1618    1.6479 C   0  0  0  0  0  0  0  0  0  0  0  0
    0.1396    0.6754    0.7855 C   0  0  0  0  0  0  0  0  0  0  0  0
    0.1478   -0.8235    0.6364 C   0  0  1  0  0  0  0  0  0  0  0  0
   -0.8144   -1.4020   -0.2497 O   0  0  0  0  0  0  0  0  0  0  0  0
    0.5642   -1.5254   -0.5993 C   0  0  1  0  0  0  0  0  0  0  0  0
    1.0098   -0.7924   -1.7656 C   0  0  0  0  0  0  0  0  0  0  0  0
    1.3907   -0.2242   -2.6973 N   0  0  0  0  0  0  0  0  0  0  0  0
   -0.1390    3.0422    2.2963 H   0  0  0  0  0  0  0  0  0  0  0  0
   -1.1331    3.1841    0.8414 H   0  0  0  0  0  0  0  0  0  0  0  0
   -1.9026    3.0040    2.4234 H   0  0  0  0  0  0  0  0  0  0  0  0
   -0.9836    0.6837    2.6350 H   0  0  0  0  0  0  0  0  0  0  0  0
   -1.9707    0.8228    1.1890 H   0  0  0  0  0  0  0  0  0  0  0  0
    0.0945    1.1383   -0.2061 H   0  0  0  0  0  0  0  0  0  0  0  0
    1.0910    0.9836    1.2392 H   0  0  0  0  0  0  0  0  0  0  0  0
    0.2781   -1.3909    1.5603 H   0  0  0  0  0  0  0  0  0  0  0  0
    0.9731   -2.5318   -0.5275 H   0  0  0  0  0  0  0  0  0  0  0  0
  1  9  1  0  0  0  0
  1 11  1  0  0  0  0
  2  1  1  0  0  0  0
  2 12  1  0  0  0  0
  3 15  1  0  0  0  0
  3  2  1  0  0  0  0
  4  6  1  6  0  0  0
  4  3  1  0  0  0  0
  4 16  1  0  0  0  0
  5  4  1  0  0  0  0
  6 17  1  1  0  0  0
  6  5  1  0  0  0  0
  7  6  1  0  0  0  0
  8  7  3  0  0  0  0
 10  1  1  0  0  0  0
 13  2  1  0  0  0  0
 14  3  1  0  0  0  0
M  END
