title
 OpenBabel02282110003D

 15 15  0  0  1  0  0  0  0  0999 V2000
    2.0930    2.5160   -0.0553 O   0  0  0  0  0  0  0  0  0  0  0  0
    1.9044    1.1241    0.1138 C   0  0  0  0  0  0  0  0  0  0  0  0
    0.5967    0.6321   -0.5233 C   0  0  0  0  0  0  0  0  0  0  0  0
    0.4513   -0.8631   -0.4189 C   0  0  1  0  0  0  0  0  0  0  0  0
    0.1306   -1.4033    0.8671 O   0  0  0  0  0  0  0  0  0  0  0  0
   -0.8390   -1.5461   -0.1706 C   0  0  1  0  0  0  0  0  0  0  0  0
   -2.0673   -0.7947   -0.0210 C   0  0  0  0  0  0  0  0  0  0  0  0
   -3.0579   -0.2079    0.0808 N   0  0  0  0  0  0  0  0  0  0  0  0
    1.4234    2.9732    0.4636 H   0  0  0  0  0  0  0  0  0  0  0  0
    2.7612    0.6462   -0.3745 H   0  0  0  0  0  0  0  0  0  0  0  0
    1.9286    0.8323    1.1739 H   0  0  0  0  0  0  0  0  0  0  0  0
   -0.2577    1.1175   -0.0385 H   0  0  0  0  0  0  0  0  0  0  0  0
    0.5839    0.9234   -1.5801 H   0  0  0  0  0  0  0  0  0  0  0  0
    1.1934   -1.4525   -0.9608 H   0  0  0  0  0  0  0  0  0  0  0  0
   -0.9812   -2.5614   -0.5366 H   0  0  0  0  0  0  0  0  0  0  0  0
  1  2  1  0  0  0  0
  1  9  1  0  0  0  0
  2 11  1  0  0  0  0
  3  4  1  0  0  0  0
  3 12  1  0  0  0  0
  3  2  1  0  0  0  0
  4  6  1  6  0  0  0
  4  5  1  0  0  0  0
  6 15  1  6  0  0  0
  6  7  1  0  0  0  0
  6  5  1  0  0  0  0
  7  8  3  0  0  0  0
 10  2  1  0  0  0  0
 13  3  1  0  0  0  0
 14  4  1  0  0  0  0
M  END
