title
 OpenBabel02282110003D

 15 15  0  0  1  0  0  0  0  0999 V2000
   -0.9358    2.6308    1.6393 C   0  0  0  0  0  0  0  0  0  0  0  0
   -0.8567    1.2238    1.5757 O   0  0  0  0  0  0  0  0  0  0  0  0
    0.0653    0.7728    0.6139 C   0  0  0  0  0  0  0  0  0  0  0  0
    0.0593   -0.7317    0.6523 C   0  0  1  0  0  0  0  0  0  0  0  0
   -0.8631   -1.4163   -0.1928 O   0  0  0  0  0  0  0  0  0  0  0  0
    0.5268   -1.5537   -0.4831 C   0  0  1  0  0  0  0  0  0  0  0  0
    1.0041   -0.9444   -1.7079 C   0  0  0  0  0  0  0  0  0  0  0  0
    1.4121   -0.4749   -2.6821 N   0  0  0  0  0  0  0  0  0  0  0  0
    0.0343    3.0805    1.9026 H   0  0  0  0  0  0  0  0  0  0  0  0
   -1.2686    3.0626    0.6833 H   0  0  0  0  0  0  0  0  0  0  0  0
   -1.6644    2.8786    2.4139 H   0  0  0  0  0  0  0  0  0  0  0  0
   -0.1986    1.1198   -0.3968 H   0  0  0  0  0  0  0  0  0  0  0  0
    1.0824    1.1398    0.8393 H   0  0  0  0  0  0  0  0  0  0  0  0
    0.1600   -1.1631    1.6481 H   0  0  0  0  0  0  0  0  0  0  0  0
    0.9518   -2.5355   -0.2831 H   0  0  0  0  0  0  0  0  0  0  0  0
  1  9  1  0  0  0  0
  1 11  1  0  0  0  0
  2  1  1  0  0  0  0
  3  4  1  0  0  0  0
  3 13  1  0  0  0  0
  3  2  1  0  0  0  0
  4  6  1  6  0  0  0
  4 14  1  0  0  0  0
  5  4  1  0  0  0  0
  6 15  1  1  0  0  0
  6  5  1  0  0  0  0
  7  6  1  0  0  0  0
  8  7  3  0  0  0  0
 10  1  1  0  0  0  0
 12  3  1  0  0  0  0
M  END
