20
title
C -1.2498764 2.8208575 1.9034078
C -1.2446164 1.3005731 1.7251195
C -0.17185459 0.81880504 0.7378572
C -0.1649662 -0.6904882 0.59116006
C -1.0045445 -1.3922867 -0.42181087
C 0.5148751 -1.4236122 -0.5695679
C 1.1346599 -0.6884905 -1.6925406
O 2.149305 -1.0281817 -2.2519324
H -0.28440902 3.1787395 2.2775946
H -1.4446033 3.3308759 0.95337
H -2.0201416 3.1361315 2.6138163
H -1.0824761 0.8163594 2.6971948
H -2.2296238 0.9630776 1.3788509
H -0.34062508 1.2974454 -0.2339587
H 0.8150129 1.1592246 1.0787004
H -0.04193572 -1.2147268 1.5364264
H -1.496122 -2.3248565 -0.17001282
H -1.5470257 -0.7790102 -1.135997
H 1.026445 -2.3486137 -0.32643247
H 0.58319813 0.22323656 -2.0186021
