17
title
C -0.8074595 2.8420236 0.8867985
O -0.9500523 1.4418648 0.79638267
C -0.7687996 0.95596236 -0.5156525
C -0.99355114 -0.5328345 -0.50500435
C -0.21167251 -1.4106758 -1.444907
N 0.05321351 -1.417573 -0.027902897
C 1.250135 -1.0295408 0.5531662
O 2.3436348 -1.305093 0.12260849
H 0.19722036 3.1705074 0.5788078
H -1.5478399 3.3666704 0.26303303
H -0.9653042 3.1177695 1.9316841
H -1.4832463 1.4320587 -1.209004
H 0.24724391 1.1833038 -0.88096803
H -2.0010498 -0.8363251 -0.22739792
H -0.67405474 -2.3048072 -1.8526664
H 0.53475755 -0.9427318 -2.0826628
H 1.0808942 -0.48859236 1.5013653
