title
 OpenBabel02282110003D

 19 19  0  0  1  0  0  0  0  0999 V2000
    1.3848    3.0583    0.4535 C   0  0  0  0  0  0  0  0  0  0  0  0
    1.3825    1.5332    0.5844 C   0  0  0  0  0  0  0  0  0  0  0  0
   -0.0126    0.9653    0.8808 C   0  0  0  0  0  0  0  0  0  0  0  0
   -0.0328   -0.5357    1.0735 C   0  0  1  0  0  0  0  0  0  0  0  0
   -1.2873   -1.3278    0.8268 C   0  0  0  0  0  0  0  0  0  0  0  0
   -0.1545   -1.4447   -0.0594 N   0  0  0  0  0  0  0  0  0  0  0  0
   -0.1777   -1.1245   -1.4026 C   0  0  0  0  0  0  0  0  0  0  0  0
   -1.1013   -1.3397   -2.1504 O   0  0  0  0  0  0  0  0  0  0  0  0
    2.3896    3.4376    0.2453 H   0  0  0  0  0  0  0  0  0  0  0  0
    0.7292    3.3868   -0.3605 H   0  0  0  0  0  0  0  0  0  0  0  0
    1.0322    3.5352    1.3748 H   0  0  0  0  0  0  0  0  0  0  0  0
    1.7719    1.0837   -0.3376 H   0  0  0  0  0  0  0  0  0  0  0  0
    2.0712    1.2300    1.3837 H   0  0  0  0  0  0  0  0  0  0  0  0
   -0.4022    1.4298    1.7969 H   0  0  0  0  0  0  0  0  0  0  0  0
   -0.7079    1.2372    0.0759 H   0  0  0  0  0  0  0  0  0  0  0  0
    0.6395   -0.9021    1.8494 H   0  0  0  0  0  0  0  0  0  0  0  0
   -1.5097   -2.1986    1.4374 H   0  0  0  0  0  0  0  0  0  0  0  0
   -2.1554   -0.7977    0.4421 H   0  0  0  0  0  0  0  0  0  0  0  0
    0.7915   -0.7119   -1.7427 H   0  0  0  0  0  0  0  0  0  0  0  0
  1  2  1  0  0  0  0
  1 11  1  0  0  0  0
  2  3  1  0  0  0  0
  2 13  1  0  0  0  0
  3  4  1  0  0  0  0
  3 14  1  0  0  0  0
  4 16  1  1  0  0  0
  5  4  1  0  0  0  0
  5 17  1  0  0  0  0
  6  5  1  0  0  0  0
  6  4  1  0  0  0  0
  7  6  1  0  0  0  0
  8  7  2  0  0  0  0
  9  1  1  0  0  0  0
 10  1  1  0  0  0  0
 12  2  1  0  0  0  0
 15  3  1  0  0  0  0
 18  5  1  0  0  0  0
 19  7  1  0  0  0  0
M  END
