17
title
C 2.0594964 2.1553264 0.34018782
O 1.5357385 1.7047069 -0.89388657
C 0.3443024 0.9566326 -0.77784145
C 0.60009515 -0.46042433 -0.30571035
N 0.4924235 -0.75102526 1.1188246
C -0.48011783 -1.3794084 0.20041417
C -1.8954451 -0.938242 0.35454893
O -2.8385396 -1.5788105 -0.036785007
H 2.9279532 2.776011 0.10694264
H 1.3243386 2.7612045 0.89107716
H 2.374966 1.3288903 0.99031866
H -0.36959198 1.4546584 -0.10509278
H -0.09067681 0.928498 -1.7830878
H 1.3900096 -0.95891696 -0.86709064
H 1.1844455 -1.4346302 1.4132875
H -0.37490442 -2.431287 -0.053862736
H -2.0180717 0.03500542 0.87707496
