title
 OpenBabel02282110003D

 20 20  0  0  1  0  0  0  0  0999 V2000
   -1.2499    2.8209    1.9034 C   0  0  0  0  0  0  0  0  0  0  0  0
   -1.2446    1.3006    1.7251 C   0  0  0  0  0  0  0  0  0  0  0  0
   -0.1719    0.8188    0.7379 C   0  0  0  0  0  0  0  0  0  0  0  0
   -0.1650   -0.6905    0.5912 C   0  0  1  0  0  0  0  0  0  0  0  0
   -1.0045   -1.3923   -0.4218 C   0  0  0  0  0  0  0  0  0  0  0  0
    0.5149   -1.4236   -0.5696 C   0  0  1  0  0  0  0  0  0  0  0  0
    1.1347   -0.6885   -1.6925 C   0  0  0  0  0  0  0  0  0  0  0  0
    2.1493   -1.0282   -2.2519 O   0  0  0  0  0  0  0  0  0  0  0  0
   -0.2844    3.1787    2.2776 H   0  0  0  0  0  0  0  0  0  0  0  0
   -1.4446    3.3309    0.9534 H   0  0  0  0  0  0  0  0  0  0  0  0
   -2.0201    3.1361    2.6138 H   0  0  0  0  0  0  0  0  0  0  0  0
   -1.0825    0.8164    2.6972 H   0  0  0  0  0  0  0  0  0  0  0  0
   -2.2296    0.9631    1.3789 H   0  0  0  0  0  0  0  0  0  0  0  0
   -0.3406    1.2974   -0.2340 H   0  0  0  0  0  0  0  0  0  0  0  0
    0.8150    1.1592    1.0787 H   0  0  0  0  0  0  0  0  0  0  0  0
   -0.0419   -1.2147    1.5364 H   0  0  0  0  0  0  0  0  0  0  0  0
   -1.4961   -2.3249   -0.1700 H   0  0  0  0  0  0  0  0  0  0  0  0
   -1.5470   -0.7790   -1.1360 H   0  0  0  0  0  0  0  0  0  0  0  0
    1.0264   -2.3486   -0.3264 H   0  0  0  0  0  0  0  0  0  0  0  0
    0.5832    0.2232   -2.0186 H   0  0  0  0  0  0  0  0  0  0  0  0
  1  9  1  0  0  0  0
  1 11  1  0  0  0  0
  2  1  1  0  0  0  0
  2 12  1  0  0  0  0
  3 15  1  0  0  0  0
  3  2  1  0  0  0  0
  4  6  1  6  0  0  0
  4  3  1  0  0  0  0
  4 16  1  0  0  0  0
  5 17  1  0  0  0  0
  5  4  1  0  0  0  0
  6  5  1  0  0  0  0
  6 19  1  1  0  0  0
  7  6  1  0  0  0  0
  8  7  2  0  0  0  0
 10  1  1  0  0  0  0
 13  2  1  0  0  0  0
 14  3  1  0  0  0  0
 18  5  1  0  0  0  0
 20  7  1  0  0  0  0
M  END
