title
 OpenBabel02282110003D

 19 19  0  0  1  0  0  0  0  0999 V2000
    2.3153    2.6991    0.3168 C   0  0  0  0  0  0  0  0  0  0  0  0
    2.1032    1.1846    0.3800 C   0  0  0  0  0  0  0  0  0  0  0  0
    0.7022    0.7709   -0.0742 C   0  0  0  0  0  0  0  0  0  0  0  0
    0.5790   -0.6885   -0.0310 N   0  0  0  0  0  0  0  0  0  0  0  0
   -0.0420   -1.2963    1.1154 C   0  0  0  0  0  0  0  0  0  0  0  0
   -0.7200   -1.3493   -0.2303 C   0  0  1  0  0  0  0  0  0  0  0  0
   -1.9871   -0.5931   -0.4013 C   0  0  0  0  0  0  0  0  0  0  0  0
   -2.9115   -0.9902   -1.0681 O   0  0  0  0  0  0  0  0  0  0  0  0
    3.3224    2.9697    0.6470 H   0  0  0  0  0  0  0  0  0  0  0  0
    2.1878    3.0764   -0.7039 H   0  0  0  0  0  0  0  0  0  0  0  0
    1.6023    3.2307    0.9569 H   0  0  0  0  0  0  0  0  0  0  0  0
    2.8384    0.6681   -0.2467 H   0  0  0  0  0  0  0  0  0  0  0  0
    2.2652    0.8273    1.4047 H   0  0  0  0  0  0  0  0  0  0  0  0
   -0.0460    1.2859    0.5499 H   0  0  0  0  0  0  0  0  0  0  0  0
    0.5362    1.0909   -1.1099 H   0  0  0  0  0  0  0  0  0  0  0  0
    0.4132   -2.2024    1.5061 H   0  0  0  0  0  0  0  0  0  0  0  0
   -0.4884   -0.6434    1.8671 H   0  0  0  0  0  0  0  0  0  0  0  0
   -0.6790   -2.2669   -0.8116 H   0  0  0  0  0  0  0  0  0  0  0  0
   -2.0449    0.3755    0.1416 H   0  0  0  0  0  0  0  0  0  0  0  0
  1  2  1  0  0  0  0
  1  9  1  0  0  0  0
  1 11  1  0  0  0  0
  2 13  1  0  0  0  0
  3  4  1  0  0  0  0
  3  2  1  0  0  0  0
  3 14  1  0  0  0  0
  4  5  1  0  0  0  0
  5 16  1  0  0  0  0
  5 17  1  0  0  0  0
  6 18  1  6  0  0  0
  6  4  1  0  0  0  0
  6  5  1  0  0  0  0
  7  6  1  0  0  0  0
  7 19  1  0  0  0  0
  8  7  2  0  0  0  0
 10  1  1  0  0  0  0
 12  2  1  0  0  0  0
 15  3  1  0  0  0  0
M  END
