title
 OpenBabel02282110003D

 16 16  0  0  1  0  0  0  0  0999 V2000
    2.4752    1.6431    0.0586 O   0  0  0  0  0  0  0  0  0  0  0  0
    2.2313    0.2981    0.4097 C   0  0  0  0  0  0  0  0  0  0  0  0
    0.7473    0.0404    0.6606 C   0  0  0  0  0  0  0  0  0  0  0  0
    0.0142    0.3756   -0.5658 N   0  0  0  0  0  0  0  0  0  0  0  0
   -0.3245   -0.7039   -1.4743 C   0  0  0  0  0  0  0  0  0  0  0  0
   -1.3947   -0.0114   -0.6807 C   0  0  1  0  0  0  0  0  0  0  0  0
   -2.0488   -0.7321    0.3856 C   0  0  0  0  0  0  0  0  0  0  0  0
   -2.5837   -1.2857    1.2489 N   0  0  0  0  0  0  0  0  0  0  0  0
    1.8107    1.8689   -0.6042 H   0  0  0  0  0  0  0  0  0  0  0  0
    2.5955   -0.3965   -0.3668 H   0  0  0  0  0  0  0  0  0  0  0  0
    2.7976    0.0924    1.3237 H   0  0  0  0  0  0  0  0  0  0  0  0
    0.5807   -0.9984    0.9843 H   0  0  0  0  0  0  0  0  0  0  0  0
    0.3910    0.7065    1.4529 H   0  0  0  0  0  0  0  0  0  0  0  0
   -0.2385   -0.4916   -2.5357 H   0  0  0  0  0  0  0  0  0  0  0  0
   -0.0779   -1.7218   -1.1781 H   0  0  0  0  0  0  0  0  0  0  0  0
   -2.0315    0.7217   -1.1682 H   0  0  0  0  0  0  0  0  0  0  0  0
  1  2  1  0  0  0  0
  2  3  1  0  0  0  0
  2 11  1  0  0  0  0
  3 12  1  0  0  0  0
  3 13  1  0  0  0  0
  4  3  1  0  0  0  0
  5 15  1  0  0  0  0
  5  6  1  0  0  0  0
  5  4  1  0  0  0  0
  6 16  1  6  0  0  0
  6  4  1  0  0  0  0
  6  7  1  0  0  0  0
  7  8  3  0  0  0  0
  9  1  1  0  0  0  0
 10  2  1  0  0  0  0
 14  5  1  0  0  0  0
M  END
