18
title
C -0.55153704 2.5748549 -1.671737
C -0.7611949 1.1026198 -1.3678231
O 0.5019176 0.52915627 -1.0421495
C 0.44654453 -0.83116907 -0.79446137
C 1.5221887 -1.4061811 0.03724836
C 0.10085709 -1.3482597 0.61201036
C -0.16449393 -0.38437432 1.7004572
O -0.9479108 -0.57143277 2.601137
H 0.13825841 2.7007222 -2.5108845
H -1.5040373 3.0467548 -1.929621
H -0.13369761 3.0910773 -0.80288947
H -1.4594404 0.96941596 -0.52766335
H -1.191012 0.57998526 -2.236785
H 0.044065487 -1.4288104 -1.6139522
H 1.9247849 -2.3818042 -0.2068546
H 2.23592 -0.70354265 0.4548744
H -0.46117413 -2.2731051 0.68058383
H 0.42672324 0.5557714 1.6354088
