title
 OpenBabel02282110003D

 17 17  0  0  1  0  0  0  0  0999 V2000
    2.0595    2.1553    0.3402 C   0  0  0  0  0  0  0  0  0  0  0  0
    1.5357    1.7047   -0.8939 O   0  0  0  0  0  0  0  0  0  0  0  0
    0.3443    0.9566   -0.7778 C   0  0  0  0  0  0  0  0  0  0  0  0
    0.6001   -0.4604   -0.3057 C   0  0  1  0  0  0  0  0  0  0  0  0
    0.4924   -0.7510    1.1188 N   0  0  0  0  0  0  0  0  0  0  0  0
   -0.4801   -1.3794    0.2004 C   0  0  1  0  0  0  0  0  0  0  0  0
   -1.8954   -0.9382    0.3545 C   0  0  0  0  0  0  0  0  0  0  0  0
   -2.8385   -1.5788   -0.0368 O   0  0  0  0  0  0  0  0  0  0  0  0
    2.9280    2.7760    0.1069 H   0  0  0  0  0  0  0  0  0  0  0  0
    1.3243    2.7612    0.8911 H   0  0  0  0  0  0  0  0  0  0  0  0
    2.3750    1.3289    0.9903 H   0  0  0  0  0  0  0  0  0  0  0  0
   -0.3696    1.4547   -0.1051 H   0  0  0  0  0  0  0  0  0  0  0  0
   -0.0907    0.9285   -1.7831 H   0  0  0  0  0  0  0  0  0  0  0  0
    1.3900   -0.9589   -0.8671 H   0  0  0  0  0  0  0  0  0  0  0  0
    1.1844   -1.4346    1.4133 H   0  0  0  0  0  0  0  0  0  0  0  0
   -0.3749   -2.4313   -0.0539 H   0  0  0  0  0  0  0  0  0  0  0  0
   -2.0181    0.0350    0.8771 H   0  0  0  0  0  0  0  0  0  0  0  0
  1 10  1  0  0  0  0
  1 11  1  0  0  0  0
  2  3  1  0  0  0  0
  2  1  1  0  0  0  0
  3  4  1  0  0  0  0
  3 12  1  0  0  0  0
  4  6  1  6  0  0  0
  4  5  1  0  0  0  0
  5 15  1  0  0  0  0
  6 16  1  6  0  0  0
  6  7  1  0  0  0  0
  6  5  1  0  0  0  0
  7 17  1  0  0  0  0
  8  7  2  0  0  0  0
  9  1  1  0  0  0  0
 13  3  1  0  0  0  0
 14  4  1  0  0  0  0
M  END
