title
 OpenBabel02282110003D

 17 17  0  0  1  0  0  0  0  0999 V2000
    2.6392    1.5194    0.0418 O   0  0  0  0  0  0  0  0  0  0  0  0
    2.4553    0.1599    0.3667 C   0  0  0  0  0  0  0  0  0  0  0  0
    0.9885   -0.1483    0.6710 C   0  0  0  0  0  0  0  0  0  0  0  0
    0.2034    0.2330   -0.5094 N   0  0  0  0  0  0  0  0  0  0  0  0
   -0.2749   -0.7928   -1.4012 C   0  0  0  0  0  0  0  0  0  0  0  0
   -1.2466    0.0113   -0.5755 C   0  0  1  0  0  0  0  0  0  0  0  0
   -1.9856   -0.6939    0.5056 C   0  0  0  0  0  0  0  0  0  0  0  0
   -3.1342   -0.4570    0.7860 O   0  0  0  0  0  0  0  0  0  0  0  0
    1.9308    1.7331   -0.5797 H   0  0  0  0  0  0  0  0  0  0  0  0
    2.8032   -0.5026   -0.4446 H   0  0  0  0  0  0  0  0  0  0  0  0
    3.0675   -0.0531    1.2494 H   0  0  0  0  0  0  0  0  0  0  0  0
    0.8773   -1.2070    0.9496 H   0  0  0  0  0  0  0  0  0  0  0  0
    0.6575    0.4693    1.5126 H   0  0  0  0  0  0  0  0  0  0  0  0
   -0.2074   -0.5949   -2.4671 H   0  0  0  0  0  0  0  0  0  0  0  0
   -0.1228   -1.8336   -1.1140 H   0  0  0  0  0  0  0  0  0  0  0  0
   -1.8131    0.8106   -1.0459 H   0  0  0  0  0  0  0  0  0  0  0  0
   -1.4100   -1.4795    1.0427 H   0  0  0  0  0  0  0  0  0  0  0  0
  1  2  1  0  0  0  0
  2  3  1  0  0  0  0
  2 11  1  0  0  0  0
  3 12  1  0  0  0  0
  3 13  1  0  0  0  0
  4  3  1  0  0  0  0
  5 15  1  0  0  0  0
  5  6  1  0  0  0  0
  5  4  1  0  0  0  0
  6 16  1  6  0  0  0
  6  4  1  0  0  0  0
  6  7  1  0  0  0  0
  7  8  2  0  0  0  0
  7 17  1  0  0  0  0
  9  1  1  0  0  0  0
 10  2  1  0  0  0  0
 14  5  1  0  0  0  0
M  END
