title
 OpenBabel02282110003D

 16 16  0  0  1  0  0  0  0  0999 V2000
    2.2070    2.6517   -0.3580 O   0  0  0  0  0  0  0  0  0  0  0  0
    2.0289    1.2640   -0.1419 C   0  0  0  0  0  0  0  0  0  0  0  0
    0.6087    0.7936   -0.4869 C   0  0  0  0  0  0  0  0  0  0  0  0
    0.4758   -0.7044   -0.3551 C   0  0  1  0  0  0  0  0  0  0  0  0
    0.3216   -1.2512    0.9492 O   0  0  0  0  0  0  0  0  0  0  0  0
   -0.7625   -1.4292    0.0297 C   0  0  1  0  0  0  0  0  0  0  0  0
   -2.0295   -0.7091    0.3593 C   0  0  0  0  0  0  0  0  0  0  0  0
   -3.1055   -1.0438   -0.0659 O   0  0  0  0  0  0  0  0  0  0  0  0
    1.6822    3.1251    0.2953 H   0  0  0  0  0  0  0  0  0  0  0  0
    2.7533    0.7651   -0.7955 H   0  0  0  0  0  0  0  0  0  0  0  0
    2.2724    0.9764    0.8917 H   0  0  0  0  0  0  0  0  0  0  0  0
   -0.1109    1.2985    0.1659 H   0  0  0  0  0  0  0  0  0  0  0  0
    0.3804    1.0891   -1.5177 H   0  0  0  0  0  0  0  0  0  0  0  0
    1.1609   -1.2766   -0.9857 H   0  0  0  0  0  0  0  0  0  0  0  0
   -0.9066   -2.4403   -0.3489 H   0  0  0  0  0  0  0  0  0  0  0  0
   -1.9042    0.1562    1.0450 H   0  0  0  0  0  0  0  0  0  0  0  0
  1  2  1  0  0  0  0
  1  9  1  0  0  0  0
  2 11  1  0  0  0  0
  3  4  1  0  0  0  0
  3  2  1  0  0  0  0
  3 12  1  0  0  0  0
  4  6  1  6  0  0  0
  4  5  1  0  0  0  0
  6 15  1  6  0  0  0
  6  7  1  0  0  0  0
  6  5  1  0  0  0  0
  7 16  1  0  0  0  0
  8  7  2  0  0  0  0
 10  2  1  0  0  0  0
 13  3  1  0  0  0  0
 14  4  1  0  0  0  0
M  END
