title
 OpenBabel02282110003D

 17 17  0  0  1  0  0  0  0  0999 V2000
    1.2803    2.9006    0.4909 O   0  0  0  0  0  0  0  0  0  0  0  0
    1.3776    1.4885    0.5481 C   0  0  0  0  0  0  0  0  0  0  0  0
   -0.0178    0.9500    0.8536 C   0  0  0  0  0  0  0  0  0  0  0  0
   -0.0523   -0.5473    1.0602 C   0  0  1  0  0  0  0  0  0  0  0  0
   -1.3170   -1.3252    0.8209 C   0  0  0  0  0  0  0  0  0  0  0  0
   -0.1847   -1.4690   -0.0613 N   0  0  0  0  0  0  0  0  0  0  0  0
   -0.2002   -1.1659   -1.4093 C   0  0  0  0  0  0  0  0  0  0  0  0
   -1.1215   -1.3860   -2.1575 O   0  0  0  0  0  0  0  0  0  0  0  0
    2.1459    3.2566    0.2707 H   0  0  0  0  0  0  0  0  0  0  0  0
    1.7428    1.0715   -0.4041 H   0  0  0  0  0  0  0  0  0  0  0  0
    2.0793    1.1643    1.3345 H   0  0  0  0  0  0  0  0  0  0  0  0
   -0.3769    1.4407    1.7664 H   0  0  0  0  0  0  0  0  0  0  0  0
   -0.7013    1.2377    0.0467 H   0  0  0  0  0  0  0  0  0  0  0  0
    0.6111   -0.9152    1.8429 H   0  0  0  0  0  0  0  0  0  0  0  0
   -1.5514   -2.1835    1.4443 H   0  0  0  0  0  0  0  0  0  0  0  0
   -2.1771   -0.7879    0.4285 H   0  0  0  0  0  0  0  0  0  0  0  0
    0.7732   -0.7633   -1.7503 H   0  0  0  0  0  0  0  0  0  0  0  0
  1  2  1  0  0  0  0
  2  3  1  0  0  0  0
  2 11  1  0  0  0  0
  3  4  1  0  0  0  0
  3 12  1  0  0  0  0
  4 14  1  1  0  0  0
  5  4  1  0  0  0  0
  5 15  1  0  0  0  0
  6  5  1  0  0  0  0
  6  4  1  0  0  0  0
  7  6  1  0  0  0  0
  8  7  2  0  0  0  0
  9  1  1  0  0  0  0
 10  2  1  0  0  0  0
 13  3  1  0  0  0  0
 16  5  1  0  0  0  0
 17  7  1  0  0  0  0
M  END
