title
 OpenBabel02282110003D

 22 22  0  0  1  0  0  0  0  0999 V2000
    0.5748    3.4442   -0.4517 C   0  0  0  0  0  0  0  0  0  0  0  0
    0.6648    2.0532    0.1876 C   0  0  0  0  0  0  0  0  0  0  0  0
   -0.6769    1.3457    0.2129 C   0  0  1  0  0  0  0  0  0  0  0  0
   -1.1579    0.5284   -0.9620 C   0  0  0  0  0  0  0  0  0  0  0  0
   -0.8415   -0.1522    0.3480 C   0  0  1  0  0  0  0  0  0  0  0  0
    0.3267   -1.0941    0.4651 C   0  0  0  0  0  0  0  0  0  0  0  0
   -0.0912   -2.3793    0.0460 O   0  0  0  0  0  0  0  0  0  0  0  0
    0.9192   -3.3477    0.1744 C   0  0  0  0  0  0  0  0  0  0  0  0
    1.5485    3.9441   -0.4551 H   0  0  0  0  0  0  0  0  0  0  0  0
    0.2240    3.3784   -1.4869 H   0  0  0  0  0  0  0  0  0  0  0  0
   -0.1267    4.0844    0.0946 H   0  0  0  0  0  0  0  0  0  0  0  0
    1.3982    1.4522   -0.3617 H   0  0  0  0  0  0  0  0  0  0  0  0
    1.0516    2.1480    1.2111 H   0  0  0  0  0  0  0  0  0  0  0  0
   -1.4481    1.9223    0.7203 H   0  0  0  0  0  0  0  0  0  0  0  0
   -2.1930    0.6034   -1.2762 H   0  0  0  0  0  0  0  0  0  0  0  0
   -0.4580    0.3718   -1.7780 H   0  0  0  0  0  0  0  0  0  0  0  0
   -1.6967   -0.4778    0.9339 H   0  0  0  0  0  0  0  0  0  0  0  0
    1.1758   -0.7540   -0.1499 H   0  0  0  0  0  0  0  0  0  0  0  0
    0.6855   -1.1387    1.5090 H   0  0  0  0  0  0  0  0  0  0  0  0
    1.8021   -3.1060   -0.4399 H   0  0  0  0  0  0  0  0  0  0  0  0
    1.2537   -3.4577    1.2191 H   0  0  0  0  0  0  0  0  0  0  0  0
    0.5062   -4.3011   -0.1647 H   0  0  0  0  0  0  0  0  0  0  0  0
  1 11  1  0  0  0  0
  1  2  1  0  0  0  0
  2  3  1  0  0  0  0
  2 13  1  0  0  0  0
  3  5  1  1  0  0  0
  3 14  1  0  0  0  0
  4  3  1  0  0  0  0
  4  5  1  0  0  0  0
  5  6  1  0  0  0  0
  5 17  1  1  0  0  0
  6 19  1  0  0  0  0
  7  8  1  0  0  0  0
  7  6  1  0  0  0  0
  8 21  1  0  0  0  0
  9  1  1  0  0  0  0
 10  1  1  0  0  0  0
 12  2  1  0  0  0  0
 15  4  1  0  0  0  0
 16  4  1  0  0  0  0
 18  6  1  0  0  0  0
 20  8  1  0  0  0  0
 22  8  1  0  0  0  0
M  END
