title
 OpenBabel02282110003D

 16 16  0  0  1  0  0  0  0  0999 V2000
    1.9169    2.7996    0.2987 C   0  0  0  0  0  0  0  0  0  0  0  0
    1.8287    1.4245    0.0018 O   0  0  0  0  0  0  0  0  0  0  0  0
    0.5010    0.9782   -0.1371 C   0  0  0  0  0  0  0  0  0  0  0  0
    0.5538   -0.4912   -0.4695 C   0  0  1  0  0  0  0  0  0  0  0  0
    0.5012   -1.4305    0.5915 O   0  0  0  0  0  0  0  0  0  0  0  0
   -0.5970   -1.4167   -0.3269 C   0  0  1  0  0  0  0  0  0  0  0  0
   -1.9087   -0.9607    0.2271 C   0  0  0  0  0  0  0  0  0  0  0  0
   -2.9672   -1.2321   -0.2791 O   0  0  0  0  0  0  0  0  0  0  0  0
    2.9778    3.0471    0.3759 H   0  0  0  0  0  0  0  0  0  0  0  0
    1.4620    3.4169   -0.4920 H   0  0  0  0  0  0  0  0  0  0  0  0
    1.4235    3.0429    1.2523 H   0  0  0  0  0  0  0  0  0  0  0  0
   -0.0722    1.1432    0.7882 H   0  0  0  0  0  0  0  0  0  0  0  0
   -0.0111    1.5220   -0.9507 H   0  0  0  0  0  0  0  0  0  0  0  0
    1.2761   -0.7341   -1.2501 H   0  0  0  0  0  0  0  0  0  0  0  0
   -0.6646   -2.2623   -1.0102 H   0  0  0  0  0  0  0  0  0  0  0  0
   -1.8297   -0.3588    1.1580 H   0  0  0  0  0  0  0  0  0  0  0  0
  1  9  1  0  0  0  0
  1 11  1  0  0  0  0
  2  1  1  0  0  0  0
  3  2  1  0  0  0  0
  3 12  1  0  0  0  0
  4  6  1  6  0  0  0
  4  3  1  0  0  0  0
  4  5  1  0  0  0  0
  6 15  1  6  0  0  0
  6  7  1  0  0  0  0
  6  5  1  0  0  0  0
  7 16  1  0  0  0  0
  8  7  2  0  0  0  0
 10  1  1  0  0  0  0
 13  3  1  0  0  0  0
 14  4  1  0  0  0  0
M  END
