16
title
C 1.9169241 2.7996454 0.29868165
O 1.8286513 1.4245127 0.0017905365
C 0.5009889 0.97822535 -0.13712205
C 0.5538022 -0.4911928 -0.46947336
O 0.5012192 -1.4305313 0.5914572
C -0.5969911 -1.4167402 -0.326892
C -1.9086637 -0.96069854 0.22707784
O -2.9671752 -1.2320845 -0.2790548
H 2.9778123 3.047062 0.37586218
H 1.4619875 3.4169226 -0.4919636
H 1.4235014 3.042943 1.2523403
H -0.07217757 1.1431844 0.78817236
H -0.011056339 1.5220464 -0.9506802
H 1.2761003 -0.7340726 -1.2500863
H -0.664578 -2.2622998 -1.0101641
H -1.8296959 -0.35878143 1.1579944
