17
title
O 2.2323785 2.6502907 -0.3217491
C 2.062159 1.2546946 -0.14797695
C 0.6243567 0.79525 -0.41769
C 0.4918818 -0.7069912 -0.30226815
N 0.28694624 -1.2708852 1.0266178
C -0.7858475 -1.4337027 0.021977983
C -2.060142 -0.71784186 0.30989724
O -3.1208515 -1.0272732 -0.17200166
H 1.7179518 3.0977702 0.35764486
H 2.7450054 0.78277117 -0.86406404
H 2.369182 0.92899203 0.85762703
H -0.047498282 1.2832763 0.29677588
H 0.32876772 1.1208514 -1.4217117
H 1.1428938 -1.2615616 -0.9794009
H 0.7862323 -2.147535 1.146363
H -0.9276758 -2.3995893 -0.45696187
H -1.9612222 0.12937199 1.0223562
