23
title
C -3.076855 1.9128577 0.68265057
C -2.2226007 0.6809831 0.9926358
C -0.79947823 0.77900213 0.42474708
C 0.037358575 -0.43414825 0.7817012
C 0.12725562 -1.6151266 -0.12665185
N 1.297905 -0.78056186 0.12522808
C 1.8071272 0.033847388 -0.9736158
C 2.8923807 -0.72840685 -1.7310846
H -4.0832143 1.8164583 1.1018856
H -2.6276762 2.8211281 1.099536
H -3.1794436 2.062159 -0.3980405
H -2.1677125 0.5364453 2.0796077
H -2.7077835 -0.21792501 0.59184754
H -0.8536777 0.90597445 -0.6620087
H -0.3165056 1.6843337 0.81900465
H 0.066931896 -0.62954324 1.854671
H 0.16288048 -2.6295261 0.2629929
H -0.36164182 -1.5217268 -1.0974874
H 1.0209869 0.34533042 -1.681601
H 2.228411 0.95036834 -0.5426648
H 3.3093433 -0.113320775 -2.534777
H 3.7012563 -1.017422 -1.0543842
H 2.4859893 -1.6412408 -2.1790707
