21
title
C -1.2508616 2.4857728 -1.9209518
C -1.0127878 0.9794248 -1.7898409
C -0.706482 0.5558613 -0.35257915
N -0.55499524 -0.8965399 -0.27384213
C 0.77738774 -1.4643617 -0.4661955
C 0.12381553 -1.4979749 0.8717556
C 0.6724944 -0.71019113 2.046045
O 1.6894021 0.19190474 1.6317225
H -0.37496555 3.057886 -1.5946732
H -1.4629683 2.766226 -2.9571943
H -2.101224 2.808794 -1.3095202
H -1.8889124 0.42243108 -2.1409905
H -0.17726803 0.6783905 -2.4345396
H 0.17740154 1.0948648 0.018734075
H -1.5505217 0.83330137 0.2936543
H 0.83226967 -2.3614647 -1.0779927
H 1.6134868 -0.77749026 -0.5730994
H -0.34169132 -2.4280548 1.1978273
H -0.15173459 -0.1716262 2.5412433
H 1.0684187 -1.4342315 2.776162
H 1.895051 0.77023846 2.372204
