title
 OpenBabel02282110003D

 23 23  0  0  1  0  0  0  0  0999 V2000
   -3.0769    1.9129    0.6827 C   0  0  0  0  0  0  0  0  0  0  0  0
   -2.2226    0.6810    0.9926 C   0  0  0  0  0  0  0  0  0  0  0  0
   -0.7995    0.7790    0.4247 C   0  0  0  0  0  0  0  0  0  0  0  0
    0.0374   -0.4341    0.7817 C   0  0  1  0  0  0  0  0  0  0  0  0
    0.1273   -1.6151   -0.1267 C   0  0  0  0  0  0  0  0  0  0  0  0
    1.2979   -0.7806    0.1252 N   0  0  0  0  0  0  0  0  0  0  0  0
    1.8071    0.0338   -0.9736 C   0  0  0  0  0  0  0  0  0  0  0  0
    2.8924   -0.7284   -1.7311 C   0  0  0  0  0  0  0  0  0  0  0  0
   -4.0832    1.8165    1.1019 H   0  0  0  0  0  0  0  0  0  0  0  0
   -2.6277    2.8211    1.0995 H   0  0  0  0  0  0  0  0  0  0  0  0
   -3.1794    2.0622   -0.3980 H   0  0  0  0  0  0  0  0  0  0  0  0
   -2.1677    0.5364    2.0796 H   0  0  0  0  0  0  0  0  0  0  0  0
   -2.7078   -0.2179    0.5918 H   0  0  0  0  0  0  0  0  0  0  0  0
   -0.8537    0.9060   -0.6620 H   0  0  0  0  0  0  0  0  0  0  0  0
   -0.3165    1.6843    0.8190 H   0  0  0  0  0  0  0  0  0  0  0  0
    0.0669   -0.6295    1.8547 H   0  0  0  0  0  0  0  0  0  0  0  0
    0.1629   -2.6295    0.2630 H   0  0  0  0  0  0  0  0  0  0  0  0
   -0.3616   -1.5217   -1.0975 H   0  0  0  0  0  0  0  0  0  0  0  0
    1.0210    0.3453   -1.6816 H   0  0  0  0  0  0  0  0  0  0  0  0
    2.2284    0.9504   -0.5427 H   0  0  0  0  0  0  0  0  0  0  0  0
    3.3093   -0.1133   -2.5348 H   0  0  0  0  0  0  0  0  0  0  0  0
    3.7013   -1.0174   -1.0544 H   0  0  0  0  0  0  0  0  0  0  0  0
    2.4860   -1.6412   -2.1791 H   0  0  0  0  0  0  0  0  0  0  0  0
  1  2  1  0  0  0  0
  1 10  1  0  0  0  0
  1  9  1  0  0  0  0
  2 12  1  0  0  0  0
  3  4  1  0  0  0  0
  3 15  1  0  0  0  0
  3  2  1  0  0  0  0
  4 16  1  1  0  0  0
  5  6  1  0  0  0  0
  5 17  1  0  0  0  0
  5  4  1  0  0  0  0
  6  4  1  0  0  0  0
  7 20  1  0  0  0  0
  7  6  1  0  0  0  0
  8 22  1  0  0  0  0
  8  7  1  0  0  0  0
 11  1  1  0  0  0  0
 13  2  1  0  0  0  0
 14  3  1  0  0  0  0
 18  5  1  0  0  0  0
 19  7  1  0  0  0  0
 21  8  1  0  0  0  0
 23  8  1  0  0  0  0
M  END
