title
 OpenBabel02282110003D

 20 20  0  0  1  0  0  0  0  0999 V2000
    0.2439    3.2737    0.9312 C   0  0  0  0  0  0  0  0  0  0  0  0
   -0.6036    2.0651    0.5137 C   0  0  0  0  0  0  0  0  0  0  0  0
   -0.0478    1.3933   -0.7191 C   0  0  1  0  0  0  0  0  0  0  0  0
    1.1444    0.6113   -0.5639 O   0  0  0  0  0  0  0  0  0  0  0  0
   -0.0555   -0.0547   -0.9873 C   0  0  1  0  0  0  0  0  0  0  0  0
   -0.6232   -1.1113   -0.0725 C   0  0  0  0  0  0  0  0  0  0  0  0
    0.2299   -2.3768   -0.0771 C   0  0  0  0  0  0  0  0  0  0  0  0
   -0.4031   -3.3247    0.7685 O   0  0  0  0  0  0  0  0  0  0  0  0
    1.2692    2.9639    1.1539 H   0  0  0  0  0  0  0  0  0  0  0  0
    0.2861    4.0237    0.1338 H   0  0  0  0  0  0  0  0  0  0  0  0
   -0.1692    3.7555    1.8222 H   0  0  0  0  0  0  0  0  0  0  0  0
   -0.6556    1.3496    1.3389 H   0  0  0  0  0  0  0  0  0  0  0  0
   -1.6323    2.3842    0.3006 H   0  0  0  0  0  0  0  0  0  0  0  0
   -0.0188    2.0448   -1.5975 H   0  0  0  0  0  0  0  0  0  0  0  0
   -0.0294   -0.3493   -2.0403 H   0  0  0  0  0  0  0  0  0  0  0  0
   -0.6971   -0.7459    0.9548 H   0  0  0  0  0  0  0  0  0  0  0  0
   -1.6374   -1.3688   -0.4024 H   0  0  0  0  0  0  0  0  0  0  0  0
    0.3238   -2.7596   -1.1070 H   0  0  0  0  0  0  0  0  0  0  0  0
    1.2423   -2.1301    0.2756 H   0  0  0  0  0  0  0  0  0  0  0  0
    0.1560   -4.1054    0.8156 H   0  0  0  0  0  0  0  0  0  0  0  0
  1  9  1  0  0  0  0
  1 11  1  0  0  0  0
  2  1  1  0  0  0  0
  2 12  1  0  0  0  0
  3  5  1  6  0  0  0
  3  4  1  0  0  0  0
  3  2  1  0  0  0  0
  5 15  1  6  0  0  0
  5  4  1  0  0  0  0
  5  6  1  0  0  0  0
  6 16  1  0  0  0  0
  7  6  1  0  0  0  0
  7 19  1  0  0  0  0
  7  8  1  0  0  0  0
  8 20  1  0  0  0  0
 10  1  1  0  0  0  0
 13  2  1  0  0  0  0
 14  3  1  0  0  0  0
 17  6  1  0  0  0  0
 18  7  1  0  0  0  0
M  END
