22
title
C -1.5362735 2.8111126 1.7308775
C -1.345328 1.3008577 1.5745901
C -0.0062593725 0.9298058 0.92085767
C 0.16377695 -0.56469697 0.78986925
O -0.6132349 -1.2317882 -0.21593328
C 0.81647235 -1.2629714 -0.33065385
C 1.4297348 -0.60535794 -1.5440171
C 1.2153774 -1.4422369 -2.811715
H -0.7483311 3.2490802 2.3541534
H -1.5069005 3.3169878 0.7593314
H -2.4980605 3.0447333 2.1978483
H -1.4142852 0.81706744 2.5578575
H -2.1568475 0.88076043 0.9690353
H 0.06313843 1.4060546 -0.062252592
H 0.8225166 1.3241047 1.5255156
H 0.16028185 -1.0909104 1.748995
H 1.2410637 -2.2458594 -0.105259724
H 1.0032667 0.39156607 -1.685571
H 2.5039926 -0.4714711 -1.3605049
H 0.14702459 -1.575089 -3.0061715
H 1.6648034 -0.9591332 -3.6842659
H 1.6637973 -2.4367104 -2.711311
