22
title
C -1.2514427 2.8779523 2.0094457
C -1.197723 1.3585868 1.8311737
C -0.08186219 0.90307075 0.88011694
C -0.031187449 -0.6045348 0.7237463
C -0.87195873 -1.3179184 -0.30842352
C 0.63192856 -1.3127233 -0.43728518
C 1.3060164 -0.5798964 -1.5666962
O 1.3138807 -1.4400023 -2.7010946
H -0.3084511 3.263184 2.4134977
H -1.4303291 3.3830178 1.0535012
H -2.0519066 3.1725037 2.69536
H -1.0551268 0.8788984 2.808591
H -2.1609561 0.99377835 1.4529198
H -0.23022035 1.3811396 -0.09579324
H 0.88315284 1.2711542 1.2566785
H 0.07146027 -1.1243011 1.6744454
H -1.371548 -2.242826 -0.04261636
H -1.426517 -0.70110196 -1.0099273
H 1.132848 -2.2455897 -0.19216943
H 0.7738832 0.3572062 -1.7894282
H 2.3342223 -0.30850616 -1.2756441
H 1.8141224 -1.005555 -3.3983965
