22
title
C -1.3481873 2.8694556 1.7106271
C -1.396779 1.3515332 1.5177233
C -0.12162874 0.7898949 0.8758204
C -0.16189894 -0.71373564 0.6952011
C -0.8608016 -1.3252561 -0.5084581
C 0.64292943 -1.3898504 -0.37214795
O 1.4365492 -0.58072907 -1.1815692
C 1.6468537 -1.1257322 -2.4674704
H -0.5135256 3.1601074 2.358527
H -1.2149242 3.385179 0.7529848
H -2.2695 3.2458193 2.1663978
H -1.5610967 0.86329895 2.4876394
H -2.2599862 1.0840732 0.89507365
H 0.048548605 1.2650206 -0.09614675
H 0.74503446 1.0563734 1.4962981
H -0.2523888 -1.2734399 1.6236726
H -1.4455748 -2.2307618 -0.38758412
H -1.2464764 -0.6306861 -1.248449
H 1.0903208 -2.3594496 -0.14416473
H 2.1618712 -2.0974052 -2.4163148
H 0.70039606 -1.2662344 -3.009281
H 2.2756252 -0.4217812 -3.0179255
