title
 OpenBabel02282110003D

 20 20  0  0  1  0  0  0  0  0999 V2000
   -0.9119    2.5195   -1.5696 C   0  0  0  0  0  0  0  0  0  0  0  0
   -0.4928    1.0758   -1.7838 C   0  0  0  0  0  0  0  0  0  0  0  0
   -0.4571    0.4261   -0.5199 O   0  0  0  0  0  0  0  0  0  0  0  0
   -0.0959   -0.9216   -0.5823 C   0  0  1  0  0  0  0  0  0  0  0  0
    1.3622   -1.3095   -0.6080 C   0  0  0  0  0  0  0  0  0  0  0  0
    0.5351   -1.4822    0.6546 C   0  0  1  0  0  0  0  0  0  0  0  0
    0.7490   -0.5408    1.8259 C   0  0  0  0  0  0  0  0  0  0  0  0
   -0.4747   -0.1289    2.4101 O   0  0  0  0  0  0  0  0  0  0  0  0
   -0.2002    3.0341   -0.9176 H   0  0  0  0  0  0  0  0  0  0  0  0
   -0.9519    3.0495   -2.5257 H   0  0  0  0  0  0  0  0  0  0  0  0
   -1.9007    2.5686   -1.1047 H   0  0  0  0  0  0  0  0  0  0  0  0
   -1.2038    0.5580   -2.4472 H   0  0  0  0  0  0  0  0  0  0  0  0
    0.4978    1.0187   -2.2591 H   0  0  0  0  0  0  0  0  0  0  0  0
   -0.7989   -1.5424   -1.1391 H   0  0  0  0  0  0  0  0  0  0  0  0
    1.6601   -2.1857   -1.1732 H   0  0  0  0  0  0  0  0  0  0  0  0
    2.0875   -0.5020   -0.6056 H   0  0  0  0  0  0  0  0  0  0  0  0
    0.2374   -2.4908    0.9248 H   0  0  0  0  0  0  0  0  0  0  0  0
    1.3147   -1.0448    2.6165 H   0  0  0  0  0  0  0  0  0  0  0  0
    1.3427    0.3245    1.4980 H   0  0  0  0  0  0  0  0  0  0  0  0
   -0.9458    0.3439    1.7133 H   0  0  0  0  0  0  0  0  0  0  0  0
  1 11  1  0  0  0  0
  1  9  1  0  0  0  0
  2  1  1  0  0  0  0
  2  3  1  0  0  0  0
  4  3  1  0  0  0  0
  4  6  1  1  0  0  0
  5 16  1  0  0  0  0
  5  4  1  0  0  0  0
  5  6  1  0  0  0  0
  6 17  1  1  0  0  0
  6  7  1  0  0  0  0
  7  8  1  0  0  0  0
  7 18  1  0  0  0  0
 10  1  1  0  0  0  0
 12  2  1  0  0  0  0
 13  2  1  0  0  0  0
 14  4  1  0  0  0  0
 15  5  1  0  0  0  0
 19  7  1  0  0  0  0
 20  8  1  0  0  0  0
M  END
