title
 OpenBabel02282110003D

 20 20  0  0  1  0  0  0  0  0999 V2000
   -1.1654    2.8125    1.7504 C   0  0  0  0  0  0  0  0  0  0  0  0
   -1.1145    1.4146    1.6112 O   0  0  0  0  0  0  0  0  0  0  0  0
   -0.0500    0.9848    0.7856 C   0  0  0  0  0  0  0  0  0  0  0  0
   -0.0548   -0.5213    0.7583 C   0  0  1  0  0  0  0  0  0  0  0  0
   -0.9095   -1.2789   -0.2261 C   0  0  0  0  0  0  0  0  0  0  0  0
    0.5926   -1.3327   -0.3429 C   0  0  1  0  0  0  0  0  0  0  0  0
    1.3021   -0.7149   -1.5199 C   0  0  0  0  0  0  0  0  0  0  0  0
    1.3074   -1.6748   -2.5699 O   0  0  0  0  0  0  0  0  0  0  0  0
   -0.2432    3.2150    2.2008 H   0  0  0  0  0  0  0  0  0  0  0  0
   -1.3182    3.3173    0.7825 H   0  0  0  0  0  0  0  0  0  0  0  0
   -2.0082    3.0470    2.4055 H   0  0  0  0  0  0  0  0  0  0  0  0
   -0.1652    1.4028   -0.2282 H   0  0  0  0  0  0  0  0  0  0  0  0
    0.9089    1.3638    1.1822 H   0  0  0  0  0  0  0  0  0  0  0  0
    0.0230   -0.9507    1.7533 H   0  0  0  0  0  0  0  0  0  0  0  0
   -1.4418   -2.1608    0.1111 H   0  0  0  0  0  0  0  0  0  0  0  0
   -1.4424   -0.6950   -0.9704 H   0  0  0  0  0  0  0  0  0  0  0  0
    1.0633   -2.2568   -0.0184 H   0  0  0  0  0  0  0  0  0  0  0  0
    0.7938    0.2090   -1.8357 H   0  0  0  0  0  0  0  0  0  0  0  0
    2.3315   -0.4405   -1.2361 H   0  0  0  0  0  0  0  0  0  0  0  0
    1.8318   -1.3201   -3.2941 H   0  0  0  0  0  0  0  0  0  0  0  0
  1  9  1  0  0  0  0
  1 11  1  0  0  0  0
  2  1  1  0  0  0  0
  3 13  1  0  0  0  0
  3  2  1  0  0  0  0
  4  6  1  6  0  0  0
  4  3  1  0  0  0  0
  4 14  1  0  0  0  0
  5 15  1  0  0  0  0
  5  4  1  0  0  0  0
  6  5  1  0  0  0  0
  6 17  1  1  0  0  0
  7 19  1  0  0  0  0
  7  6  1  0  0  0  0
  8  7  1  0  0  0  0
 10  1  1  0  0  0  0
 12  3  1  0  0  0  0
 16  5  1  0  0  0  0
 18  7  1  0  0  0  0
 20  8  1  0  0  0  0
M  END
