22
title
C -0.5075448 2.6900797 -1.9278154
C -0.12604533 1.2202997 -1.9655415
O -0.557601 0.6145661 -0.7574832
C -0.27369857 -0.7464068 -0.6891565
C 1.1052835 -1.1960897 -0.2626616
C -0.083922006 -1.3425019 0.67221683
C -0.1826682 -0.4934286 1.9234965
C 0.6350664 -1.0601616 3.089116
H -0.02958522 3.1894426 -1.0800358
H -0.19137384 3.1897333 -2.848407
H -1.5904361 2.8034935 -1.8245722
H -0.5989405 0.71936446 -2.8264687
H 0.96241224 1.0993848 -2.0804534
H -0.7888417 -1.3433087 -1.4444226
H 1.5425503 -2.0778751 -0.7185053
H 1.8141754 -0.4092033 -0.023663433
H -0.46767527 -2.3540556 0.7872295
H 0.14488508 0.5243326 1.6906607
H -1.2365469 -0.41071248 2.2190266
H 0.5431657 -0.4313835 3.9804254
H 0.29953244 -2.0683346 3.357314
H 1.6970494 -1.1250494 2.829619
