title
 OpenBabel02282110003D

 19 19  0  0  1  0  0  0  0  0999 V2000
   -0.8866    2.7938   -1.9283 C   0  0  0  0  0  0  0  0  0  0  0  0
   -0.8757    1.3965   -1.7651 O   0  0  0  0  0  0  0  0  0  0  0  0
   -0.6279    1.0030   -0.4318 C   0  0  0  0  0  0  0  0  0  0  0  0
   -0.6343   -0.5032   -0.3904 C   0  0  1  0  0  0  0  0  0  0  0  0
    0.6581   -1.1967   -0.5171 N   0  0  0  0  0  0  0  0  0  0  0  0
   -0.1126   -1.3200    0.7371 C   0  0  1  0  0  0  0  0  0  0  0  0
    0.5849   -0.7654    1.9592 C   0  0  0  0  0  0  0  0  0  0  0  0
    1.6988   -1.5691    2.3080 O   0  0  0  0  0  0  0  0  0  0  0  0
    0.0816    3.2453   -1.6594 H   0  0  0  0  0  0  0  0  0  0  0  0
   -1.0906    2.9990   -2.9819 H   0  0  0  0  0  0  0  0  0  0  0  0
   -1.6679    3.2720   -1.3153 H   0  0  0  0  0  0  0  0  0  0  0  0
    0.3420    1.3906   -0.0871 H   0  0  0  0  0  0  0  0  0  0  0  0
   -1.4094    1.4057    0.2371 H   0  0  0  0  0  0  0  0  0  0  0  0
   -1.4788   -0.9262   -0.9323 H   0  0  0  0  0  0  0  0  0  0  0  0
    0.5603   -2.0328   -1.0857 H   0  0  0  0  0  0  0  0  0  0  0  0
   -0.6149   -2.2700    0.9136 H   0  0  0  0  0  0  0  0  0  0  0  0
    0.8860    0.2778    1.7881 H   0  0  0  0  0  0  0  0  0  0  0  0
   -0.0900   -0.7798    2.8216 H   0  0  0  0  0  0  0  0  0  0  0  0
    2.2489   -1.6101    1.5164 H   0  0  0  0  0  0  0  0  0  0  0  0
  1  2  1  0  0  0  0
  1  9  1  0  0  0  0
  1 11  1  0  0  0  0
  2  3  1  0  0  0  0
  3  4  1  0  0  0  0
  3 12  1  0  0  0  0
  3 13  1  0  0  0  0
  4  6  1  1  0  0  0
  5  4  1  0  0  0  0
  5  6  1  0  0  0  0
  6 16  1  1  0  0  0
  6  7  1  0  0  0  0
  7  8  1  0  0  0  0
  7 18  1  0  0  0  0
 10  1  1  0  0  0  0
 14  4  1  0  0  0  0
 15  5  1  0  0  0  0
 17  7  1  0  0  0  0
 19  8  1  0  0  0  0
M  END
