20
title
C -0.9118762 2.5195491 -1.5695559
C -0.49283364 1.0757673 -1.7837527
O -0.45709667 0.42613098 -0.51986134
C -0.09593896 -0.9216009 -0.58225536
C 1.3621657 -1.3094536 -0.60799396
C 0.5351026 -1.4821874 0.65456474
C 0.74896646 -0.54080886 1.8258978
O -0.47468403 -0.12889108 2.410146
H -0.20022066 3.0340881 -0.91755426
H -0.9519291 3.0494895 -2.5257173
H -1.9007293 2.5685515 -1.1046735
H -1.2037928 0.558009 -2.4471717
H 0.49779168 1.0187087 -2.2590973
H -0.7989262 -1.5424348 -1.1390706
H 1.6601045 -2.1856859 -1.1732037
H 2.087461 -0.50196725 -0.60561347
H 0.23742945 -2.4908214 0.92482555
H 1.3147165 -1.0448037 2.616482
H 1.3427005 0.32447425 1.4979855
H -0.94579136 0.34385464 1.7133373
