title
 OpenBabel02282110003D

 21 21  0  0  1  0  0  0  0  0999 V2000
    0.0362    3.0047    0.0050 C   0  0  0  0  0  0  0  0  0  0  0  0
   -0.4864    1.5750   -0.1129 C   0  0  0  0  0  0  0  0  0  0  0  0
    0.2265    0.8694   -1.1783 N   0  0  0  0  0  0  0  0  0  0  0  0
    1.4553    0.1598   -0.8286 C   0  0  0  0  0  0  0  0  0  0  0  0
    0.2276   -0.5909   -1.2122 C   0  0  1  0  0  0  0  0  0  0  0  0
   -0.5132   -1.4726   -0.2258 C   0  0  0  0  0  0  0  0  0  0  0  0
   -0.0598   -1.2840    1.0980 O   0  0  0  0  0  0  0  0  0  0  0  0
   -0.7384   -2.0971    2.0267 C   0  0  0  0  0  0  0  0  0  0  0  0
    1.0923    3.0106    0.2945 H   0  0  0  0  0  0  0  0  0  0  0  0
   -0.0537    3.5287   -0.9509 H   0  0  0  0  0  0  0  0  0  0  0  0
   -0.5243    3.5604    0.7634 H   0  0  0  0  0  0  0  0  0  0  0  0
   -0.4103    1.0618    0.8558 H   0  0  0  0  0  0  0  0  0  0  0  0
   -1.5487    1.5936   -0.3882 H   0  0  0  0  0  0  0  0  0  0  0  0
    2.2834    0.2616   -1.5258 H   0  0  0  0  0  0  0  0  0  0  0  0
    1.7345    0.1135    0.2213 H   0  0  0  0  0  0  0  0  0  0  0  0
    0.1593   -0.9889   -2.2247 H   0  0  0  0  0  0  0  0  0  0  0  0
   -1.5991   -1.2783   -0.2855 H   0  0  0  0  0  0  0  0  0  0  0  0
   -0.3644   -2.5237   -0.5283 H   0  0  0  0  0  0  0  0  0  0  0  0
   -0.6061   -3.1669    1.8007 H   0  0  0  0  0  0  0  0  0  0  0  0
   -0.3171   -1.8888    3.0128 H   0  0  0  0  0  0  0  0  0  0  0  0
   -1.8183   -1.8823    2.0469 H   0  0  0  0  0  0  0  0  0  0  0  0
  1  9  1  0  0  0  0
  1 11  1  0  0  0  0
  2  1  1  0  0  0  0
  2 12  1  0  0  0  0
  3  4  1  0  0  0  0
  3  2  1  0  0  0  0
  4 15  1  0  0  0  0
  5 16  1  6  0  0  0
  5  3  1  0  0  0  0
  5  4  1  0  0  0  0
  5  6  1  0  0  0  0
  6  7  1  0  0  0  0
  7  8  1  0  0  0  0
  8 21  1  0  0  0  0
  8 20  1  0  0  0  0
 10  1  1  0  0  0  0
 13  2  1  0  0  0  0
 14  4  1  0  0  0  0
 17  6  1  0  0  0  0
 18  6  1  0  0  0  0
 19  8  1  0  0  0  0
M  END
