title
 OpenBabel02282110003D

 20 20  0  0  1  0  0  0  0  0999 V2000
    0.6458    2.8371   -1.3342 C   0  0  0  0  0  0  0  0  0  0  0  0
    0.3402    1.9203   -0.3038 O   0  0  0  0  0  0  0  0  0  0  0  0
   -0.8634    1.2529   -0.5094 C   0  0  1  0  0  0  0  0  0  0  0  0
   -0.8958    0.0463   -1.4176 C   0  0  0  0  0  0  0  0  0  0  0  0
   -1.0015   -0.1123    0.0919 C   0  0  1  0  0  0  0  0  0  0  0  0
    0.1321   -0.7351    0.8783 C   0  0  0  0  0  0  0  0  0  0  0  0
    0.0964   -2.2586    0.8398 C   0  0  0  0  0  0  0  0  0  0  0  0
    1.1762   -2.7397    1.6267 O   0  0  0  0  0  0  0  0  0  0  0  0
    1.6003    3.3030   -1.0785 H   0  0  0  0  0  0  0  0  0  0  0  0
    0.7364    2.3371   -2.3093 H   0  0  0  0  0  0  0  0  0  0  0  0
   -0.1218    3.6216   -1.4189 H   0  0  0  0  0  0  0  0  0  0  0  0
   -1.7382    1.9062   -0.5036 H   0  0  0  0  0  0  0  0  0  0  0  0
   -1.7681   -0.1304   -2.0375 H   0  0  0  0  0  0  0  0  0  0  0  0
    0.0491   -0.2397   -1.8691 H   0  0  0  0  0  0  0  0  0  0  0  0
   -1.9943   -0.3456    0.4702 H   0  0  0  0  0  0  0  0  0  0  0  0
    1.0930   -0.3873    0.4894 H   0  0  0  0  0  0  0  0  0  0  0  0
    0.0853   -0.4123    1.9254 H   0  0  0  0  0  0  0  0  0  0  0  0
   -0.8708   -2.6192    1.2286 H   0  0  0  0  0  0  0  0  0  0  0  0
    0.1747   -2.6041   -0.2035 H   0  0  0  0  0  0  0  0  0  0  0  0
    1.1628   -3.7006    1.5997 H   0  0  0  0  0  0  0  0  0  0  0  0
  1  9  1  0  0  0  0
  1  2  1  0  0  0  0
  3 12  1  0  0  0  0
  3  2  1  0  0  0  0
  3  5  1  1  0  0  0
  4  3  1  0  0  0  0
  4  5  1  0  0  0  0
  5 15  1  1  0  0  0
  5  6  1  0  0  0  0
  6 17  1  0  0  0  0
  7  6  1  0  0  0  0
  7 18  1  0  0  0  0
  7  8  1  0  0  0  0
 10  1  1  0  0  0  0
 11  1  1  0  0  0  0
 13  4  1  0  0  0  0
 14  4  1  0  0  0  0
 16  6  1  0  0  0  0
 19  7  1  0  0  0  0
 20  8  1  0  0  0  0
M  END
