20
title
C -1.1653782 2.8125448 1.750425
O -1.1145121 1.4145963 1.6111562
C -0.050025124 0.9847795 0.78560483
C -0.054766197 -0.52134866 0.75833726
C -0.90946573 -1.2789054 -0.22606303
C 0.59255946 -1.3327229 -0.34290507
C 1.3021271 -0.7148543 -1.5198925
O 1.3074384 -1.6747527 -2.5698876
H -0.24322976 3.2149534 2.2008061
H -1.3182467 3.3173428 0.7824639
H -2.008151 3.046958 2.405492
H -0.16517933 1.4027643 -0.22815014
H 0.90885437 1.3637824 1.1822214
H 0.023033958 -0.95070106 1.7533361
H -1.441848 -2.160812 0.11110983
H -1.4424297 -0.6950155 -0.97037864
H 1.0633199 -2.2567637 -0.018423459
H 0.7938496 0.20903617 -1.8356633
H 2.3315024 -0.44045752 -1.2361357
H 1.8317511 -1.3200521 -3.2940974
