18
title
C 2.060279 2.8261025 0.27466196
O 1.9289439 1.4285258 0.16713896
C 0.66493607 1.032947 -0.3161074
C 0.6565831 -0.47201705 -0.39586103
O 0.17729223 -1.2052479 0.73523
C -0.5567502 -1.2965851 -0.4972944
C -1.972073 -0.7732854 -0.44981736
O -2.8087487 -1.6578112 0.27555314
H 3.0666473 3.0310767 0.6467899
H 1.9317614 3.3245857 -0.69959635
H 1.3272845 3.2532144 0.9770723
H -0.13686001 1.3868282 0.34849524
H 0.48441494 1.4600139 -1.3191975
H 1.5737739 -0.8755264 -0.82746255
H -0.46502674 -2.2676532 -0.9873714
H -1.9952923 0.23985074 -0.025268756
H -2.3845925 -0.7226796 -1.4635859
H -2.4155831 -1.7556438 1.1503942
