20
title
C -0.5913809 2.8259342 -1.7570338
O -0.4721575 1.4254965 -1.7437017
C -0.651239 0.8787382 -0.4505207
C -0.5588553 -0.6205263 -0.5456206
C 0.8043234 -1.2858462 -0.5937894
C -0.07580887 -1.4250455 0.62344307
O 0.24703439 -0.73223686 1.788412
C 1.2234869 -1.3929179 2.5676334
H 0.16018756 3.3091118 -1.111409
H -0.43738037 3.1596367 -2.7864144
H -1.5878952 3.1577098 -1.4221494
H 0.10849555 1.2635158 0.24577814
H -1.6354983 1.1749296 -0.048151195
H -1.3424294 -1.0746951 -1.1449709
H 0.9521827 -2.1410558 -1.2437146
H 1.6624775 -0.62822175 -0.5024541
H -0.54663455 -2.393487 0.80273145
H 0.877009 -2.385857 2.8925807
H 2.1655633 -1.5198717 2.015476
H 1.4034603 -0.7751715 3.450566
