title
 OpenBabel02282110003D

 20 20  0  0  1  0  0  0  0  0999 V2000
    2.1630    2.7670    0.0415 O   0  0  0  0  0  0  0  0  0  0  0  0
    2.1215    1.3516    0.1468 C   0  0  0  0  0  0  0  0  0  0  0  0
    0.7686    0.8823   -0.3791 C   0  0  0  0  0  0  0  0  0  0  0  0
    0.6318   -0.6258   -0.3265 C   0  0  1  0  0  0  0  0  0  0  0  0
    0.1541   -1.3313    0.9221 C   0  0  0  0  0  0  0  0  0  0  0  0
   -0.6973   -1.3481   -0.3231 C   0  0  1  0  0  0  0  0  0  0  0  0
   -2.0197   -0.6288   -0.3621 C   0  0  0  0  0  0  0  0  0  0  0  0
   -3.0013   -1.4955    0.1958 O   0  0  0  0  0  0  0  0  0  0  0  0
    3.0105    3.0689    0.3805 H   0  0  0  0  0  0  0  0  0  0  0  0
    2.9298    0.8840   -0.4398 H   0  0  0  0  0  0  0  0  0  0  0  0
    2.2454    1.0219    1.1906 H   0  0  0  0  0  0  0  0  0  0  0  0
   -0.0122    1.3700    0.2133 H   0  0  0  0  0  0  0  0  0  0  0  0
    0.6552    1.2450   -1.4084 H   0  0  0  0  0  0  0  0  0  0  0  0
    1.4128   -1.1444   -0.8790 H   0  0  0  0  0  0  0  0  0  0  0  0
    0.6427   -2.2472    1.2353 H   0  0  0  0  0  0  0  0  0  0  0  0
   -0.1904   -0.7094    1.7433 H   0  0  0  0  0  0  0  0  0  0  0  0
   -0.7196   -2.2863   -0.8710 H   0  0  0  0  0  0  0  0  0  0  0  0
   -1.9619    0.3135    0.2028 H   0  0  0  0  0  0  0  0  0  0  0  0
   -2.2736   -0.3691   -1.4029 H   0  0  0  0  0  0  0  0  0  0  0  0
   -3.8587   -1.0692    0.1041 H   0  0  0  0  0  0  0  0  0  0  0  0
  1  2  1  0  0  0  0
  1  9  1  0  0  0  0
  2 11  1  0  0  0  0
  3  4  1  0  0  0  0
  3  2  1  0  0  0  0
  3 12  1  0  0  0  0
  4  6  1  6  0  0  0
  4  5  1  0  0  0  0
  5 15  1  0  0  0  0
  5 16  1  0  0  0  0
  6 17  1  6  0  0  0
  6  5  1  0  0  0  0
  7  6  1  0  0  0  0
  7  8  1  0  0  0  0
  7 18  1  0  0  0  0
 10  2  1  0  0  0  0
 13  3  1  0  0  0  0
 14  4  1  0  0  0  0
 19  7  1  0  0  0  0
 20  8  1  0  0  0  0
M  END
