14
title
O -0.55434144 -1.9576023 -0.33486372
C -0.577409 -0.7610136 -0.37075055
C -1.8259865 0.12794636 -0.45348504
C -1.2685287 1.52333 -0.43787393
C 0.0623692 1.5533271 -0.38439786
C 0.68137234 0.17065261 -0.35896972
C 1.5597352 -0.08060886 0.7743597
C 2.2725644 -0.27462485 1.7219415
H -2.3888197 -0.11394383 -1.3644617
H -2.4983828 -0.091369286 0.38573307
H -1.9022615 2.4020193 -0.4679945
H 0.673827 2.4465272 -0.3540445
H 1.2355921 -0.03441598 -1.2880286
H 2.905403 -0.45531872 2.555261
