title
 OpenBabel02282110003D

 13 13  0  0  1  0  0  0  0  0999 V2000
   -0.5650   -1.9697   -0.2556 O   0  0  0  0  0  0  0  0  0  0  0  0
   -0.6176   -0.7720   -0.3361 C   0  0  0  0  0  0  0  0  0  0  0  0
   -1.8059    0.0946   -0.4581 C   0  0  0  0  0  0  0  0  0  0  0  0
   -1.4565    1.3854   -0.4700 C   0  0  0  0  0  0  0  0  0  0  0  0
    0.0278    1.6149   -0.3498 C   0  0  0  0  0  0  0  0  0  0  0  0
    0.6272    0.1857   -0.3641 C   0  0  1  0  0  0  0  0  0  0  0  0
    1.5619   -0.0851    0.7169 C   0  0  0  0  0  0  0  0  0  0  0  0
    2.2974   -0.2798    1.5868 N   0  0  0  0  0  0  0  0  0  0  0  0
   -2.8063   -0.3131   -0.5147 H   0  0  0  0  0  0  0  0  0  0  0  0
   -2.1484    2.2170   -0.5463 H   0  0  0  0  0  0  0  0  0  0  0  0
    0.4118    2.2324   -1.1685 H   0  0  0  0  0  0  0  0  0  0  0  0
    0.2661    2.1467    0.5779 H   0  0  0  0  0  0  0  0  0  0  0  0
    1.1373   -0.0093   -1.3145 H   0  0  0  0  0  0  0  0  0  0  0  0
  2  1  2  0  0  0  0
  3  2  1  0  0  0  0
  4  3  2  0  0  0  0
  4  5  1  0  0  0  0
  5 12  1  0  0  0  0
  6 13  1  6  0  0  0
  6  5  1  0  0  0  0
  6  2  1  0  0  0  0
  6  7  1  0  0  0  0
  7  8  3  0  0  0  0
  9  3  1  0  0  0  0
 10  4  1  0  0  0  0
 11  5  1  0  0  0  0
M  END
