title
 OpenBabel02282110003D

 19 19  0  0  1  0  0  0  0  0999 V2000
    2.3777    1.8443    0.0411 O   0  0  0  0  0  0  0  0  0  0  0  0
    2.2327    0.4918    0.4214 C   0  0  0  0  0  0  0  0  0  0  0  0
    0.7689    0.1482    0.6948 C   0  0  0  0  0  0  0  0  0  0  0  0
    0.0001    0.5024   -0.5011 N   0  0  0  0  0  0  0  0  0  0  0  0
   -0.3582   -0.5485   -1.4533 C   0  0  0  0  0  0  0  0  0  0  0  0
   -1.4033    0.1261   -0.6335 C   0  0  1  0  0  0  0  0  0  0  0  0
   -2.1797   -0.6174    0.4344 C   0  0  0  0  0  0  0  0  0  0  0  0
   -1.5670   -1.8621    0.7352 O   0  0  0  0  0  0  0  0  0  0  0  0
    1.6357    2.0076   -0.5579 H   0  0  0  0  0  0  0  0  0  0  0  0
    2.6243   -0.1884   -0.3551 H   0  0  0  0  0  0  0  0  0  0  0  0
    2.8308    0.3349    1.3259 H   0  0  0  0  0  0  0  0  0  0  0  0
    0.6559   -0.9030    0.9888 H   0  0  0  0  0  0  0  0  0  0  0  0
    0.4083    0.7757    1.5192 H   0  0  0  0  0  0  0  0  0  0  0  0
   -0.2382   -0.3038   -2.5053 H   0  0  0  0  0  0  0  0  0  0  0  0
   -0.1213   -1.5740   -1.1827 H   0  0  0  0  0  0  0  0  0  0  0  0
   -2.0095    0.9005   -1.1031 H   0  0  0  0  0  0  0  0  0  0  0  0
   -2.2560    0.0136    1.3345 H   0  0  0  0  0  0  0  0  0  0  0  0
   -3.2043   -0.7650    0.0566 H   0  0  0  0  0  0  0  0  0  0  0  0
   -1.9985   -2.2297    1.5120 H   0  0  0  0  0  0  0  0  0  0  0  0
  1  2  1  0  0  0  0
  2  3  1  0  0  0  0
  2 11  1  0  0  0  0
  3 12  1  0  0  0  0
  3 13  1  0  0  0  0
  4  3  1  0  0  0  0
  5 15  1  0  0  0  0
  5  6  1  0  0  0  0
  5  4  1  0  0  0  0
  6 16  1  6  0  0  0
  6  4  1  0  0  0  0
  6  7  1  0  0  0  0
  7  8  1  0  0  0  0
  7 17  1  0  0  0  0
  8 19  1  0  0  0  0
  9  1  1  0  0  0  0
 10  2  1  0  0  0  0
 14  5  1  0  0  0  0
 18  7  1  0  0  0  0
M  END
