13
title
N 0.4656379 2.0619125 -0.38629597
C 0.5456628 0.7993702 -0.3881108
N 1.6502757 -0.050400946 -0.45209703
C 1.2138343 -1.3673215 -0.44404197
N -0.046805713 -1.5482838 -0.38974887
C -0.6433966 -0.1879687 -0.344823
C -1.4944388 -0.0033687686 0.82264817
C -2.1923726 0.14938292 1.7870287
H 1.3828369 2.5081935 -0.43363866
H 2.6101654 0.2509376 -0.46428266
H 1.9420072 -2.1709979 -0.49101448
H -1.2424215 -0.046541605 -1.2540232
H -2.812811 0.2889102 2.6374116
