20
title
O 2.1629648 2.7670262 0.041487623
C 2.12149 1.35158 0.14678577
C 0.76862943 0.88225263 -0.37913224
C 0.6317854 -0.6257964 -0.32645595
C 0.15406372 -1.3312953 0.9220947
C -0.6973145 -1.3480978 -0.3231123
C -2.0196745 -0.6288393 -0.36208645
O -3.0013416 -1.4955168 0.19584808
H 3.0104814 3.0688887 0.38052422
H 2.929765 0.8839617 -0.4397864
H 2.2453547 1.02189 1.1905508
H -0.012246593 1.3700415 0.2133095
H 0.6552392 1.2449766 -1.4084399
H 1.4128251 -1.1444428 -0.87903553
H 0.6426561 -2.247183 1.2352563
H -0.19035576 -0.70939475 1.7433356
H -0.7196152 -2.2863479 -0.8709565
H -1.9619396 0.31354555 0.20281714
H -2.2736156 -0.36914375 -1.4029262
H -3.8586967 -1.0692332 0.1040852
