19
title
O 2.3777173 1.8442624 0.041094363
C 2.2327242 0.4917781 0.42135206
C 0.76890033 0.14816676 0.69483
N 5.121525e-05 0.50240093 -0.5011334
C -0.35819966 -0.5485483 -1.4533291
C -1.403259 0.12605925 -0.63346446
C -2.1796799 -0.6174436 0.43435884
O -1.5670424 -1.8621312 0.73515743
H 1.6356509 2.0076213 -0.5579216
H 2.6243293 -0.18837596 -0.35510686
H 2.8307855 0.33485177 1.3259065
H 0.6559079 -0.9030159 0.9887971
H 0.4083212 0.7757134 1.5191813
H -0.23818187 -0.30378824 -2.5053234
H -0.121333405 -1.5739983 -1.1827347
H -2.009532 0.900495 -1.1030675
H -2.2559948 0.013585913 1.3344601
H -3.204299 -0.76495296 0.056595147
H -1.9984765 -2.229675 1.5120033
