title
 OpenBabel02282110003D

 13 13  0  0  1  0  0  0  0  0999 V2000
   -0.5631   -1.9565   -0.3444 O   0  0  0  0  0  0  0  0  0  0  0  0
   -0.5968   -0.7621   -0.3733 C   0  0  0  0  0  0  0  0  0  0  0  0
   -1.8410    0.1305   -0.4351 C   0  0  0  0  0  0  0  0  0  0  0  0
   -1.2817    1.5245   -0.4169 C   0  0  0  0  0  0  0  0  0  0  0  0
    0.0496    1.5589   -0.3764 C   0  0  0  0  0  0  0  0  0  0  0  0
    0.6634    0.1750   -0.3743 C   0  0  1  0  0  0  0  0  0  0  0  0
    1.5507   -0.0876    0.7549 C   0  0  0  0  0  0  0  0  0  0  0  0
    2.2474   -0.2757    1.6574 N   0  0  0  0  0  0  0  0  0  0  0  0
   -2.4164   -0.1027   -1.3402 H   0  0  0  0  0  0  0  0  0  0  0  0
   -2.5023   -0.0927    0.4115 H   0  0  0  0  0  0  0  0  0  0  0  0
   -1.9151    2.4033   -0.4378 H   0  0  0  0  0  0  0  0  0  0  0  0
    0.6611    2.4516   -0.3497 H   0  0  0  0  0  0  0  0  0  0  0  0
    1.2254   -0.0306   -1.2966 H   0  0  0  0  0  0  0  0  0  0  0  0
  2  1  2  0  0  0  0
  3  4  1  0  0  0  0
  3  2  1  0  0  0  0
  3 10  1  0  0  0  0
  4  5  2  0  0  0  0
  5  6  1  0  0  0  0
  5 12  1  0  0  0  0
  6 13  1  6  0  0  0
  6  2  1  0  0  0  0
  6  7  1  0  0  0  0
  7  8  3  0  0  0  0
  9  3  1  0  0  0  0
 11  4  1  0  0  0  0
M  END
