title
 OpenBabel02282110003D

 12 12  0  0  0  0  0  0  0  0999 V2000
   -0.7283   -1.8827   -0.0013 O   0  0  0  0  0  0  0  0  0  0  0  0
   -0.7186   -0.6762    0.0052 C   0  0  0  0  0  0  0  0  0  0  0  0
   -1.8016    0.1716    0.0232 N   0  0  0  0  0  0  0  0  0  0  0  0
   -1.4517    1.5705    0.0267 C   0  0  0  0  0  0  0  0  0  0  0  0
    0.0497    1.5260    0.0078 C   0  0  0  0  0  0  0  0  0  0  0  0
    0.4741    0.2549   -0.0045 C   0  0  0  0  0  0  0  0  0  0  0  0
    1.8128   -0.2126   -0.0237 C   0  0  0  0  0  0  0  0  0  0  0  0
    2.9043   -0.5963   -0.0393 N   0  0  0  0  0  0  0  0  0  0  0  0
   -2.7432   -0.1814    0.0332 H   0  0  0  0  0  0  0  0  0  0  0  0
   -1.8428    2.1073   -0.8501 H   0  0  0  0  0  0  0  0  0  0  0  0
   -1.8209    2.0975    0.9188 H   0  0  0  0  0  0  0  0  0  0  0  0
    0.6632    2.4163    0.0051 H   0  0  0  0  0  0  0  0  0  0  0  0
  1  2  2  0  0  0  0
  2  3  1  0  0  0  0
  3  4  1  0  0  0  0
  3  9  1  0  0  0  0
  4 11  1  0  0  0  0
  5  4  1  0  0  0  0
  6  2  1  0  0  0  0
  6  5  2  0  0  0  0
  7  6  1  0  0  0  0
  8  7  3  0  0  0  0
 10  4  1  0  0  0  0
 12  5  1  0  0  0  0
M  END
