title
 OpenBabel02282110003D

 13 13  0  0  0  0  0  0  0  0999 V2000
    0.6552    1.9191    0.0054 N   0  0  0  0  0  0  0  0  0  0  0  0
    0.6754    0.6569   -0.0012 C   0  0  0  0  0  0  0  0  0  0  0  0
    1.8059   -0.1223   -0.0131 O   0  0  0  0  0  0  0  0  0  0  0  0
    1.4485   -1.5051   -0.0178 C   0  0  0  0  0  0  0  0  0  0  0  0
   -0.0472   -1.5154   -0.0075 C   0  0  0  0  0  0  0  0  0  0  0  0
   -0.4998   -0.2518    0.0021 C   0  0  0  0  0  0  0  0  0  0  0  0
   -1.8357    0.2068    0.0137 C   0  0  0  0  0  0  0  0  0  0  0  0
   -2.9734    0.5977    0.0236 C   0  0  0  0  0  0  0  0  0  0  0  0
    1.6046    2.2947    0.0008 H   0  0  0  0  0  0  0  0  0  0  0  0
    1.8728   -1.9859   -0.9100 H   0  0  0  0  0  0  0  0  0  0  0  0
    1.8850   -1.9950    0.8635 H   0  0  0  0  0  0  0  0  0  0  0  0
   -0.6425   -2.4176   -0.0081 H   0  0  0  0  0  0  0  0  0  0  0  0
   -3.9728    0.9565    0.0322 H   0  0  0  0  0  0  0  0  0  0  0  0
  2  6  1  0  0  0  0
  2  1  2  0  0  0  0
  3  2  1  0  0  0  0
  4  3  1  0  0  0  0
  4  5  1  0  0  0  0
  4 11  1  0  0  0  0
  5  6  2  0  0  0  0
  6  7  1  0  0  0  0
  7  8  3  0  0  0  0
  8 13  1  0  0  0  0
  9  1  1  0  0  0  0
 10  4  1  0  0  0  0
 12  5  1  0  0  0  0
M  END
