11
title
O -0.54218453 -1.9590775 -0.39714354
C -0.50972676 -0.7746107 -0.38393965
O -1.6536596 0.02006832 -0.433904
C -1.2123119 1.3205198 -0.41203228
N 0.030326668 1.5537251 -0.35963127
C 0.6700127 0.22471395 -0.3384436
C 1.531852 0.016616376 0.8145771
C 2.2329135 -0.16962895 1.770216
H -2.001373 2.0619333 -0.44614145
H 1.250914 0.09755221 -1.2622169
H 2.8574123 -0.33303627 2.6139143
