14
title
O -0.68406695 -1.8838747 -0.0010468572
C -0.7006448 -0.6800325 0.0047272225
C -1.9498254 0.21274409 0.026650269
C -1.4276028 1.6605595 0.027345538
C 0.069752954 1.5163246 0.0071182135
C 0.49033085 0.236806 -0.005172505
C 1.8212111 -0.23905519 -0.024787486
C 2.9418328 -0.67826843 -0.041510187
H -2.5694377 -0.019783521 -0.84402305
H -2.545472 -0.0292094 0.9113788
H -1.7737931 2.2361195 -0.84009594
H -1.7510101 2.2270372 0.90943277
H 0.7314385 2.3752596 0.0032665427
H 3.9301312 -1.0663528 -0.05627095
