12
title
O -0.728312 -1.882678 -0.0012756193
C -0.7185905 -0.67620945 0.0051586116
N -1.8015915 0.17160545 0.0232458
C -1.451722 1.5704945 0.026676994
C 0.049659982 1.5260156 0.007790353
C 0.4741272 0.2548672 -0.0044882153
C 1.8127563 -0.21255697 -0.023667391
N 2.9042778 -0.5963005 -0.03932273
H -2.7432287 -0.18142606 0.033177793
H -1.8428388 2.1073236 -0.8501162
H -1.8208734 2.097497 0.91882104
H 0.6632242 2.4163334 0.0050893817
