title
 OpenBabel02282110003D

 13 13  0  0  1  0  0  0  0  0999 V2000
   -0.5528   -1.9642   -0.3464 O   0  0  0  0  0  0  0  0  0  0  0  0
   -0.5521   -0.7606   -0.3750 C   0  0  0  0  0  0  0  0  0  0  0  0
   -1.6557    0.0644   -0.4740 N   0  0  0  0  0  0  0  0  0  0  0  0
   -1.3006    1.4208   -0.4446 C   0  0  0  0  0  0  0  0  0  0  0  0
    0.0216    1.5806   -0.3654 C   0  0  0  0  0  0  0  0  0  0  0  0
    0.6739    0.2104   -0.3382 C   0  0  1  0  0  0  0  0  0  0  0  0
    1.5503   -0.0322    0.7974 C   0  0  0  0  0  0  0  0  0  0  0  0
    2.2717   -0.2154    1.7400 C   0  0  0  0  0  0  0  0  0  0  0  0
   -2.5950   -0.2969   -0.4887 H   0  0  0  0  0  0  0  0  0  0  0  0
   -2.0771    2.1707   -0.4928 H   0  0  0  0  0  0  0  0  0  0  0  0
    0.5604    2.5133   -0.3203 H   0  0  0  0  0  0  0  0  0  0  0  0
    1.2315    0.0262   -1.2688 H   0  0  0  0  0  0  0  0  0  0  0  0
    2.9090   -0.3897    2.5712 H   0  0  0  0  0  0  0  0  0  0  0  0
  2  1  2  0  0  0  0
  2  6  1  0  0  0  0
  3  4  1  0  0  0  0
  3  2  1  0  0  0  0
  4  5  2  0  0  0  0
  5  6  1  0  0  0  0
  5 11  1  0  0  0  0
  6 12  1  6  0  0  0
  6  7  1  0  0  0  0
  7  8  3  0  0  0  0
  8 13  1  0  0  0  0
  9  3  1  0  0  0  0
 10  4  1  0  0  0  0
M  END
