12
title
O -0.7143934 -1.8425697 -0.0006012636
C -0.67339945 -0.6495384 0.0048953546
O -1.797084 0.13737154 0.022671994
C -1.4360081 1.5145936 0.025242738
C 0.05936008 1.5305996 0.0070383037
C 0.5146671 0.26998734 -0.004926792
C 1.8416492 -0.2098471 -0.02357781
C 2.9656415 -0.6387861 -0.03948201
H -1.8747624 2.0048141 -0.85367244
H -1.8530909 1.9958198 0.91954243
H 0.64779204 2.4379723 0.0044567455
H 3.9552693 -1.0245501 -0.053509437
