12
title
N 0.66655135 1.9228933 0.0051514944
C 0.6952846 0.66323704 -0.0014329238
O 1.8191005 -0.124813884 -0.013179357
C 1.4554042 -1.5054889 -0.017662728
C -0.041025776 -1.5115395 -0.0073777996
C -0.47639605 -0.24513748 0.0020413492
C -1.8216395 0.20905894 0.013619581
N -2.9227197 0.5629068 0.023005743
H 1.6086336 2.315191 0.00064419355
H 1.8726146 -1.9905589 -0.9102973
H 1.8848389 -1.999542 0.8641835
H -0.6429698 -2.4093943 -0.007777161
