14
title
O -0.5000072 -2.0091794 -0.62374586
C -0.54653597 -0.82428735 -0.4669896
C -1.7792575 0.06101471 -0.2859763
C -1.1959329 1.4391911 0.069213904
N 0.15168233 1.4981902 -0.53986406
C 0.6949471 0.142335 -0.4595841
C 1.462855 -0.058646142 0.77670497
N 2.0382292 -0.22898954 1.7642053
H -2.317526 0.08608657 -1.2414385
H -2.4523833 -0.37250382 0.4573575
H -1.7986214 2.2755935 -0.28738883
H -1.090796 1.5453861 1.1544572
H 0.07687302 1.7601459 -1.5167981
H 1.3400131 -0.09280163 -1.3106669
