title
 OpenBabel02282110003D

 11 11  0  0  0  0  0  0  0  0999 V2000
   -0.7364   -1.8474   -0.0002 O   0  0  0  0  0  0  0  0  0  0  0  0
   -0.6952   -0.6562    0.0054 C   0  0  0  0  0  0  0  0  0  0  0  0
   -1.8088    0.1422    0.0234 O   0  0  0  0  0  0  0  0  0  0  0  0
   -1.4392    1.5165    0.0258 C   0  0  0  0  0  0  0  0  0  0  0  0
    0.0566    1.5255    0.0071 C   0  0  0  0  0  0  0  0  0  0  0  0
    0.4928    0.2608   -0.0048 C   0  0  0  0  0  0  0  0  0  0  0  0
    1.8291   -0.2133   -0.0240 C   0  0  0  0  0  0  0  0  0  0  0  0
    2.9184   -0.6024   -0.0397 N   0  0  0  0  0  0  0  0  0  0  0  0
   -1.8705    2.0114   -0.8536 H   0  0  0  0  0  0  0  0  0  0  0  0
   -1.8483    2.0024    0.9208 H   0  0  0  0  0  0  0  0  0  0  0  0
    0.6533    2.4274    0.0042 H   0  0  0  0  0  0  0  0  0  0  0  0
  1  2  2  0  0  0  0
  2  3  1  0  0  0  0
  3  4  1  0  0  0  0
  4 10  1  0  0  0  0
  5  4  1  0  0  0  0
  6  2  1  0  0  0  0
  6  5  2  0  0  0  0
  7  6  1  0  0  0  0
  8  7  3  0  0  0  0
  9  4  1  0  0  0  0
 11  5  1  0  0  0  0
M  END
