15
title
O -0.4945488 -1.9908016 -0.7291102
C -0.51771706 -0.81739557 -0.48641166
C -1.7454288 0.052930247 -0.19887647
C -1.1508969 1.4370111 0.11657794
N 0.16225787 1.4988245 -0.5627409
C 0.7210221 0.14111938 -0.46030438
C 1.4504008 -0.057264198 0.78999656
C 2.0112376 -0.24767433 1.8357123
H -2.362887 0.07315625 -1.1049125
H -2.350011 -0.39221466 0.5955096
H -1.7778906 2.268238 -0.21046843
H -0.98463815 1.5477859 1.1933403
H 0.0149533255 1.7030696 -1.5470268
H 1.3716917 -0.08248006 -1.3111265
H 2.5249677 -0.4087428 2.7512045
