14
title
N 0.4571357 1.9765092 -0.87503433
C 0.4906554 0.7655711 -0.53722996
O 1.6026366 0.046900466 -0.22280863
C 1.2615287 -1.3101538 0.11460676
C -0.108579524 -1.5502492 -0.5293989
C -0.74182653 -0.1432365 -0.44468492
C -1.4492631 0.06520952 0.8199548
N -2.0022745 0.19634433 1.8260422
H 1.392556 2.3862183 -0.86675715
H 2.048966 -1.9588574 -0.27289388
H 1.2226325 -1.4057957 1.2056981
H 0.0065219305 -1.8266271 -1.580743
H -0.69007444 -2.321429 -0.023916785
H -1.4230431 0.07955457 -1.267617
