title
 OpenBabel02282110003D

 15 15  0  0  1  0  0  0  0  0999 V2000
   -0.4945   -1.9908   -0.7291 O   0  0  0  0  0  0  0  0  0  0  0  0
   -0.5177   -0.8174   -0.4864 C   0  0  0  0  0  0  0  0  0  0  0  0
   -1.7454    0.0529   -0.1989 C   0  0  0  0  0  0  0  0  0  0  0  0
   -1.1509    1.4370    0.1166 C   0  0  0  0  0  0  0  0  0  0  0  0
    0.1623    1.4988   -0.5627 N   0  0  0  0  0  0  0  0  0  0  0  0
    0.7210    0.1411   -0.4603 C   0  0  1  0  0  0  0  0  0  0  0  0
    1.4504   -0.0573    0.7900 C   0  0  0  0  0  0  0  0  0  0  0  0
    2.0112   -0.2477    1.8357 C   0  0  0  0  0  0  0  0  0  0  0  0
   -2.3629    0.0732   -1.1049 H   0  0  0  0  0  0  0  0  0  0  0  0
   -2.3500   -0.3922    0.5955 H   0  0  0  0  0  0  0  0  0  0  0  0
   -1.7779    2.2682   -0.2105 H   0  0  0  0  0  0  0  0  0  0  0  0
   -0.9846    1.5478    1.1933 H   0  0  0  0  0  0  0  0  0  0  0  0
    0.0150    1.7031   -1.5470 H   0  0  0  0  0  0  0  0  0  0  0  0
    1.3717   -0.0825   -1.3111 H   0  0  0  0  0  0  0  0  0  0  0  0
    2.5250   -0.4087    2.7512 H   0  0  0  0  0  0  0  0  0  0  0  0
  1  2  2  0  0  0  0
  2  6  1  0  0  0  0
  2  3  1  0  0  0  0
  3  4  1  0  0  0  0
  3 10  1  0  0  0  0
  4 12  1  0  0  0  0
  5  6  1  0  0  0  0
  5  4  1  0  0  0  0
  6 14  1  6  0  0  0
  6  7  1  0  0  0  0
  7  8  3  0  0  0  0
  8 15  1  0  0  0  0
  9  3  1  0  0  0  0
 11  4  1  0  0  0  0
 13  5  1  0  0  0  0
M  END
