title
 OpenBabel02282110003D

 14 14  0  0  1  0  0  0  0  0999 V2000
   -0.5130   -2.0240   -0.6061 O   0  0  0  0  0  0  0  0  0  0  0  0
   -0.5391   -0.8368   -0.4561 C   0  0  0  0  0  0  0  0  0  0  0  0
   -1.7575    0.0641   -0.2502 C   0  0  0  0  0  0  0  0  0  0  0  0
   -1.1270    1.4217    0.0688 C   0  0  0  0  0  0  0  0  0  0  0  0
    0.1380    1.4131   -0.6066 O   0  0  0  0  0  0  0  0  0  0  0  0
    0.6945    0.1160   -0.4611 C   0  0  1  0  0  0  0  0  0  0  0  0
    1.4616   -0.0454    0.7743 C   0  0  0  0  0  0  0  0  0  0  0  0
    2.0588   -0.1740    1.8093 C   0  0  0  0  0  0  0  0  0  0  0  0
   -2.3211    0.0917   -1.1893 H   0  0  0  0  0  0  0  0  0  0  0  0
   -2.4116   -0.3402    0.5251 H   0  0  0  0  0  0  0  0  0  0  0  0
   -1.6875    2.2764   -0.3125 H   0  0  0  0  0  0  0  0  0  0  0  0
   -0.9805    1.5475    1.1506 H   0  0  0  0  0  0  0  0  0  0  0  0
    1.3210   -0.0897   -1.3347 H   0  0  0  0  0  0  0  0  0  0  0  0
    2.6037   -0.2895    2.7139 H   0  0  0  0  0  0  0  0  0  0  0  0
  1  2  2  0  0  0  0
  2  3  1  0  0  0  0
  3  4  1  0  0  0  0
  3 10  1  0  0  0  0
  4 12  1  0  0  0  0
  5  6  1  0  0  0  0
  5  4  1  0  0  0  0
  6 13  1  6  0  0  0
  6  2  1  0  0  0  0
  6  7  1  0  0  0  0
  7  8  3  0  0  0  0
  8 14  1  0  0  0  0
  9  3  1  0  0  0  0
 11  4  1  0  0  0  0
M  END
