title
 OpenBabel02282110003D

 16 16  0  0  1  0  0  0  0  0999 V2000
   -0.4852   -1.9500   -0.8285 O   0  0  0  0  0  0  0  0  0  0  0  0
   -0.5021   -0.7865   -0.5402 C   0  0  0  0  0  0  0  0  0  0  0  0
   -1.7387    0.0581   -0.2171 C   0  0  0  0  0  0  0  0  0  0  0  0
   -1.1992    1.4317    0.2085 C   0  0  0  0  0  0  0  0  0  0  0  0
    0.1413    1.5601   -0.5461 C   0  0  0  0  0  0  0  0  0  0  0  0
    0.7535    0.1416   -0.4687 C   0  0  1  0  0  0  0  0  0  0  0  0
    1.4481   -0.0996    0.7891 C   0  0  0  0  0  0  0  0  0  0  0  0
    1.9898   -0.2908    1.8455 C   0  0  0  0  0  0  0  0  0  0  0  0
   -2.3316    0.1246   -1.1385 H   0  0  0  0  0  0  0  0  0  0  0  0
   -2.3630   -0.4469    0.5240 H   0  0  0  0  0  0  0  0  0  0  0  0
   -1.8855    2.2505   -0.0185 H   0  0  0  0  0  0  0  0  0  0  0  0
   -1.0129    1.4452    1.2871 H   0  0  0  0  0  0  0  0  0  0  0  0
   -0.0407    1.8102   -1.5977 H   0  0  0  0  0  0  0  0  0  0  0  0
    0.7988    2.3234   -0.1267 H   0  0  0  0  0  0  0  0  0  0  0  0
    1.4138   -0.0936   -1.3090 H   0  0  0  0  0  0  0  0  0  0  0  0
    2.4844   -0.4693    2.7681 H   0  0  0  0  0  0  0  0  0  0  0  0
  1  2  2  0  0  0  0
  2  6  1  0  0  0  0
  2  3  1  0  0  0  0
  3  4  1  0  0  0  0
  3 10  1  0  0  0  0
  4 12  1  0  0  0  0
  5  6  1  0  0  0  0
  5 14  1  0  0  0  0
  5  4  1  0  0  0  0
  6 15  1  6  0  0  0
  6  7  1  0  0  0  0
  7  8  3  0  0  0  0
  8 16  1  0  0  0  0
  9  3  1  0  0  0  0
 11  4  1  0  0  0  0
 13  5  1  0  0  0  0
M  END
