16
title
O -0.48521912 -1.9500197 -0.82852745
C -0.5020769 -0.78648037 -0.540176
C -1.7386583 0.058095023 -0.21712618
C -1.1992451 1.4317338 0.20846848
C 0.14130248 1.5601213 -0.54607916
C 0.7535076 0.14155178 -0.46867839
C 1.4481264 -0.09955819 0.7890579
C 1.989822 -0.2907674 1.8455241
H -2.331553 0.12461428 -1.1384604
H -2.362985 -0.44687423 0.5239819
H -1.8855168 2.2505443 -0.018537391
H -1.0128566 1.4452021 1.2871456
H -0.040695556 1.8102167 -1.597684
H 0.7988148 2.323428 -0.12673555
H 1.4137554 -0.0935839 -1.3089794
H 2.4843903 -0.46925268 2.7680998
