11
title
O -0.73638064 -1.847356 -0.00020948645
C -0.69522697 -0.65617657 0.0053553735
O -1.8087695 0.14218354 0.023415944
C -1.439176 1.5164946 0.025811214
C 0.056629874 1.5254623 0.0070912163
C 0.49282452 0.26082408 -0.004849215
C 1.8291053 -0.21332288 -0.024033535
N 2.9183533 -0.6024029 -0.039684817
H -1.8705428 2.0114362 -0.8536281
H -1.848279 2.0023565 0.92081463
H 0.6532577 2.4274454 0.0042235604
