13
title
N 0.5098031 2.0334928 -0.71114475
C 0.52443254 0.80205536 -0.46346295
O 1.6100993 0.030089501 -0.17725602
C 1.1564738 -1.3053745 0.060426865
O -0.09734738 -1.4179193 -0.5575684
C -0.6947315 -0.12363571 -0.45004395
C -1.490139 0.030580048 0.76819795
C -2.1365125 0.13766098 1.7746432
H 1.4471034 2.4338524 -0.6539167
H 1.8500427 -2.0093298 -0.40447283
H 1.0965376 -1.4683133 1.146426
H -1.3105778 0.037874226 -1.3374816
H -2.7146175 0.24239367 2.6599
