15
title
O -0.5650564 -1.965691 -0.15569696
C -0.5868641 -0.7726486 -0.26098287
C -1.8320247 0.119142786 -0.40042314
N -1.3660334 1.4823265 -0.6599543
C -0.028923417 1.5672681 -0.054374065
C 0.6415796 0.18460609 -0.28159854
C 1.7007438 -0.17708085 0.635496
C 2.5687923 -0.4531523 1.4193612
H -2.5046136 -0.25323212 -1.1766573
H -2.3794572 0.0730138 0.5521523
H -1.2842711 1.6216531 -1.6619817
H 0.5402951 2.393131 -0.48352095
H -0.12728518 1.7485073 1.0220585
H 1.0164255 0.14860322 -1.3164192
H 3.3377433 -0.70849085 2.105639
