14
title
O -0.54836696 -1.8727444 -0.93438935
C -0.51478755 -0.71319616 -0.607164
N -1.5709356 0.11252511 -0.35873467
C -1.2320915 1.4517244 0.09193655
C 0.22807348 1.600119 -0.3852239
C 0.76764417 0.1502217 -0.38349894
C 1.3924706 -0.21530795 0.88522524
N 1.8759288 -0.47609496 1.9022905
H -2.5049236 -0.26509368 -0.32945073
H -1.8880008 2.2009604 -0.36001238
H -1.3102543 1.5438925 1.1833447
H 0.24514753 1.9775974 -1.4106774
H 0.80832875 2.2765806 0.24230751
H 1.4736317 -0.04860305 -1.1927782
