12
title
O -0.5811923 -1.9593853 -0.65517646
C -0.5307516 -0.78714144 -0.45508847
O -1.6060455 -0.0014906144 -0.19615927
C -1.1571835 1.3336151 0.040097557
O 0.123517774 1.4417169 -0.53057253
C 0.70408803 0.1450126 -0.4427581
C 1.5027907 -0.054664277 0.7641722
C 2.1420517 -0.21067788 1.7687702
H -1.83046 2.0314808 -0.46147364
H -1.1413409 1.509965 1.1247426
H 1.3028901 -0.024692794 -1.3415933
H 2.7167718 -0.35444477 2.6509464
