13
title
O -0.50774634 -2.0371091 -0.55150634
C -0.5549346 -0.84794456 -0.44585612
C -1.7768425 0.0543887 -0.29273432
C -1.160338 1.4152492 0.035816845
O 0.12807846 1.4076022 -0.6064153
C 0.67488176 0.118275344 -0.46765774
C 1.4578625 -0.0313378 0.77261436
N 2.0455594 -0.13664967 1.7619963
H -2.3075597 0.07330507 -1.251058
H -2.4561656 -0.34314758 0.4636412
H -1.7088448 2.2663047 -0.36851323
H -1.0410521 1.5510393 1.119086
H 1.3127863 -0.100909054 -1.3287458
