14
title
O -0.47325262 -1.9510175 -0.8551174
C -0.47280398 -0.7965856 -0.54110223
C -1.6866618 0.065864295 -0.18515396
O -1.1844956 1.3288147 0.19261786
C 0.05624995 1.5259788 -0.4805572
C 0.7610621 0.15358827 -0.4547724
C 1.4893688 -0.097462565 0.7783212
C 2.0705543 -0.30743077 1.8090837
H -2.342791 0.12310192 -1.0700067
H -2.2595608 -0.36668637 0.6399124
H -0.10913541 1.839942 -1.52339
H 0.6022882 2.3077288 0.047744486
H 1.4015561 -0.01589373 -1.3253138
H 2.5932431 -0.49413553 2.7145019
