title
 OpenBabel02282110003D

 14 14  0  0  1  0  0  0  0  0999 V2000
   -0.5265   -1.8739   -0.8939 O   0  0  0  0  0  0  0  0  0  0  0  0
   -0.4843   -0.7319   -0.5525 C   0  0  0  0  0  0  0  0  0  0  0  0
   -1.5848   -0.0193   -0.2032 O   0  0  0  0  0  0  0  0  0  0  0  0
   -1.2392    1.3249    0.1753 C   0  0  0  0  0  0  0  0  0  0  0  0
    0.1310    1.5878   -0.4614 C   0  0  0  0  0  0  0  0  0  0  0  0
    0.7639    0.1815   -0.4357 C   0  0  1  0  0  0  0  0  0  0  0  0
    1.4755   -0.1070    0.8031 C   0  0  0  0  0  0  0  0  0  0  0  0
    2.0430   -0.3266    1.8392 C   0  0  0  0  0  0  0  0  0  0  0  0
   -2.0284    1.9848   -0.1889 H   0  0  0  0  0  0  0  0  0  0  0  0
   -1.2002    1.3815    1.2685 H   0  0  0  0  0  0  0  0  0  0  0  0
    0.0105    1.9163   -1.4977 H   0  0  0  0  0  0  0  0  0  0  0  0
    0.7134    2.3342    0.0791 H   0  0  0  0  0  0  0  0  0  0  0  0
    1.4117   -0.0133   -1.2941 H   0  0  0  0  0  0  0  0  0  0  0  0
    2.5537   -0.5360    2.7466 H   0  0  0  0  0  0  0  0  0  0  0  0
  1  2  2  0  0  0  0
  2  6  1  0  0  0  0
  2  3  1  0  0  0  0
  3  4  1  0  0  0  0
  4 10  1  0  0  0  0
  5  6  1  0  0  0  0
  5 12  1  0  0  0  0
  5  4  1  0  0  0  0
  6 13  1  6  0  0  0
  6  7  1  0  0  0  0
  7  8  3  0  0  0  0
  8 14  1  0  0  0  0
  9  4  1  0  0  0  0
 11  5  1  0  0  0  0
M  END
