title
 OpenBabel02282110003D

 13 13  0  0  1  0  0  0  0  0999 V2000
   -0.5077   -2.0371   -0.5515 O   0  0  0  0  0  0  0  0  0  0  0  0
   -0.5549   -0.8479   -0.4459 C   0  0  0  0  0  0  0  0  0  0  0  0
   -1.7768    0.0544   -0.2927 C   0  0  0  0  0  0  0  0  0  0  0  0
   -1.1603    1.4152    0.0358 C   0  0  0  0  0  0  0  0  0  0  0  0
    0.1281    1.4076   -0.6064 O   0  0  0  0  0  0  0  0  0  0  0  0
    0.6749    0.1183   -0.4677 C   0  0  1  0  0  0  0  0  0  0  0  0
    1.4579   -0.0313    0.7726 C   0  0  0  0  0  0  0  0  0  0  0  0
    2.0456   -0.1366    1.7620 N   0  0  0  0  0  0  0  0  0  0  0  0
   -2.3076    0.0733   -1.2511 H   0  0  0  0  0  0  0  0  0  0  0  0
   -2.4562   -0.3431    0.4636 H   0  0  0  0  0  0  0  0  0  0  0  0
   -1.7088    2.2663   -0.3685 H   0  0  0  0  0  0  0  0  0  0  0  0
   -1.0411    1.5510    1.1191 H   0  0  0  0  0  0  0  0  0  0  0  0
    1.3128   -0.1009   -1.3287 H   0  0  0  0  0  0  0  0  0  0  0  0
  1  2  2  0  0  0  0
  2  3  1  0  0  0  0
  3  4  1  0  0  0  0
  3 10  1  0  0  0  0
  4 12  1  0  0  0  0
  5  6  1  0  0  0  0
  5  4  1  0  0  0  0
  6 13  1  6  0  0  0
  6  2  1  0  0  0  0
  6  7  1  0  0  0  0
  7  8  3  0  0  0  0
  9  3  1  0  0  0  0
 11  4  1  0  0  0  0
M  END
