title
 OpenBabel02282110003D

 13 13  0  0  0  0  0  0  0  0999 V2000
   -1.9781   -1.6899    0.0077 O   0  0  0  0  0  0  0  0  0  0  0  0
   -1.8374   -0.4935    0.0144 C   0  0  0  0  0  0  0  0  0  0  0  0
   -0.5488    0.2227    0.0069 C   0  0  0  0  0  0  0  0  0  0  0  0
   -0.4262    1.5578    0.0163 C   0  0  0  0  0  0  0  0  0  0  0  0
    1.0197    1.9614    0.0050 C   0  0  0  0  0  0  0  0  0  0  0  0
    1.6867    0.6842   -0.0126 N   0  0  0  0  0  0  0  0  0  0  0  0
    0.8278   -0.3992   -0.0115 C   0  0  0  0  0  0  0  0  0  0  0  0
    1.1465   -1.5632   -0.0231 O   0  0  0  0  0  0  0  0  0  0  0  0
   -2.7162    0.1930    0.0277 H   0  0  0  0  0  0  0  0  0  0  0  0
   -1.2339    2.2799    0.0300 H   0  0  0  0  0  0  0  0  0  0  0  0
    1.2527    2.5781   -0.8763 H   0  0  0  0  0  0  0  0  0  0  0  0
    1.2706    2.5632    0.8916 H   0  0  0  0  0  0  0  0  0  0  0  0
    2.6848    0.5609   -0.0214 H   0  0  0  0  0  0  0  0  0  0  0  0
  1  2  2  0  0  0  0
  2  9  1  0  0  0  0
  3  2  1  0  0  0  0
  3  4  2  0  0  0  0
  4 10  1  0  0  0  0
  5  4  1  0  0  0  0
  5 12  1  0  0  0  0
  6  7  1  0  0  0  0
  6  5  1  0  0  0  0
  7  3  1  0  0  0  0
  8  7  2  0  0  0  0
 11  5  1  0  0  0  0
 13  6  1  0  0  0  0
M  END
