13
title
N 0.5220859 2.039273 -0.16172908
C 0.5455046 0.7820655 -0.3042059
N 1.6164111 -0.121171266 -0.33063075
C 1.128811 -1.386018 -0.60577244
N -0.1380313 -1.4851902 -0.750334
C -0.6619077 -0.12449673 -0.51192605
C -1.5984031 -0.22129837 0.70206314
O -1.4473838 0.3587555 1.7396442
H 1.4545201 2.4333453 -0.027786087
H 2.5849702 0.12285134 -0.20920163
H 1.8168325 -2.2206812 -0.6933867
H -1.2646563 0.20335308 -1.3678231
H -2.4343686 -0.9318291 0.5321836
