13
title
N 0.967994 1.8886994 -0.49891546
C 0.8414818 0.6611376 -0.22438225
O 1.8655841 -0.25069702 -0.13120525
C 1.3349912 -1.5390011 0.19627295
C -0.14275832 -1.3338102 0.29881066
C -0.42196426 -0.047824606 0.05198458
C -1.7536098 0.59717685 0.046153262
O -2.779373 -0.0010477763 0.27538174
H 1.9464952 2.136104 -0.64860576
H 1.6100463 -2.2562838 -0.5888061
H 1.7809763 -1.8878633 1.137491
H -0.855604 -2.1122804 0.5355262
H -1.738969 1.6786506 -0.18610053
