title
 OpenBabel02282110003D

 13 13  0  0  0  0  0  0  0  0999 V2000
   -0.8703    2.1000    0.0160 N   0  0  0  0  0  0  0  0  0  0  0  0
   -0.7758    0.8406    0.0089 C   0  0  0  0  0  0  0  0  0  0  0  0
   -1.9385   -0.1444    0.0105 C   0  0  0  0  0  0  0  0  0  0  0  0
   -1.3527   -1.4886    0.0002 N   0  0  0  0  0  0  0  0  0  0  0  0
   -0.0917   -1.3419   -0.0062 C   0  0  0  0  0  0  0  0  0  0  0  0
    0.3700   -0.0078   -0.0021 N   0  0  0  0  0  0  0  0  0  0  0  0
    1.7040    0.3575   -0.0081 C   0  0  0  0  0  0  0  0  0  0  0  0
    2.6158   -0.4314   -0.0177 O   0  0  0  0  0  0  0  0  0  0  0  0
    0.0285    2.5819    0.0133 H   0  0  0  0  0  0  0  0  0  0  0  0
   -2.5699   -0.0080    0.8946 H   0  0  0  0  0  0  0  0  0  0  0  0
   -2.5800    0.0010   -0.8649 H   0  0  0  0  0  0  0  0  0  0  0  0
    0.6442   -2.1358   -0.0146 H   0  0  0  0  0  0  0  0  0  0  0  0
    1.8429    1.4527   -0.0036 H   0  0  0  0  0  0  0  0  0  0  0  0
  2  3  1  0  0  0  0
  2  1  2  0  0  0  0
  3 10  1  0  0  0  0
  4  3  1  0  0  0  0
  5  6  1  0  0  0  0
  5  4  2  0  0  0  0
  6  2  1  0  0  0  0
  7 13  1  0  0  0  0
  7  6  1  0  0  0  0
  8  7  2  0  0  0  0
  9  1  1  0  0  0  0
 11  3  1  0  0  0  0
 12  5  1  0  0  0  0
M  END
