14
title
N 1.3803614 2.2955596 -0.0031390754
C 1.4002157 1.0261033 -0.007401565
N 0.21928996 0.2944012 -0.0008649562
C -1.083288 0.80986524 0.010727228
N -2.0233908 -0.049819373 0.015236632
C -1.3754239 -1.366432 0.0062071993
C 0.13181871 -1.1094201 -0.0045234947
N 1.1523448 -1.861067 -0.014637403
H 2.330004 2.662556 -0.009163024
H 2.2729886 0.36881867 -0.01616203
H -1.2074819 1.8849643 0.015014757
H -1.6736574 -1.9450579 0.8878546
H -1.687144 -1.939614 -0.8743273
H 0.8827008 -2.843329 -0.015594425
