13
title
O -1.9781474 -1.6898843 0.007652712
C -1.837376 -0.4934733 0.01437635
C -0.54878336 0.22270751 0.006941225
C -0.42616373 1.5578239 0.01626469
C 1.019744 1.96141 0.0049708076
N 1.686699 0.6842017 -0.012627674
C 0.827784 -0.3992114 -0.011528198
O 1.1465067 -1.5632303 -0.023138333
H -2.716225 0.19297028 0.027735732
H -1.2339218 2.2799385 0.029952096
H 1.2526551 2.5780997 -0.87627304
H 1.2705709 2.5631871 0.8916052
H 2.6848352 0.5609479 -0.021442093
