title
 OpenBabel02282110003D

 12 12  0  0  0  0  0  0  0  0999 V2000
   -1.9631   -1.7099    0.0078 O   0  0  0  0  0  0  0  0  0  0  0  0
   -1.8514   -0.5112    0.0147 C   0  0  0  0  0  0  0  0  0  0  0  0
   -0.5723    0.2261    0.0073 C   0  0  0  0  0  0  0  0  0  0  0  0
   -0.4391    1.5576    0.0159 C   0  0  0  0  0  0  0  0  0  0  0  0
    1.0139    1.9085    0.0040 C   0  0  0  0  0  0  0  0  0  0  0  0
    1.6984    0.6639   -0.0122 O   0  0  0  0  0  0  0  0  0  0  0  0
    0.7962   -0.3826   -0.0110 C   0  0  0  0  0  0  0  0  0  0  0  0
    1.1413   -1.5230   -0.0230 O   0  0  0  0  0  0  0  0  0  0  0  0
   -2.7422    0.1571    0.0278 H   0  0  0  0  0  0  0  0  0  0  0  0
   -1.2330    2.2948    0.0293 H   0  0  0  0  0  0  0  0  0  0  0  0
    1.2940    2.4951   -0.8810 H   0  0  0  0  0  0  0  0  0  0  0  0
    1.3117    2.4818    0.8920 H   0  0  0  0  0  0  0  0  0  0  0  0
  1  2  2  0  0  0  0
  2  9  1  0  0  0  0
  3  2  1  0  0  0  0
  3  4  2  0  0  0  0
  4 10  1  0  0  0  0
  5  4  1  0  0  0  0
  5 12  1  0  0  0  0
  6  7  1  0  0  0  0
  6  5  1  0  0  0  0
  7  3  1  0  0  0  0
  8  7  2  0  0  0  0
 11  5  1  0  0  0  0
M  END
