14
title
N -0.8826943 2.0732803 0.015089041
C -0.79292065 0.81097305 0.008510031
C -1.9894978 -0.13419506 0.01049587
C -1.3592144 -1.5020201 0.00053296745
C -0.033193827 -1.3855612 -0.0061354707
N 0.36268687 -0.025538243 -0.0017724787
C 1.6794015 0.37529343 -0.0072051217
O 2.6174877 -0.3876504 -0.017762586
H 0.019615471 2.547229 0.012460199
H -2.6131408 0.0514799 0.892421
H -2.6226442 0.059834503 -0.8628217
H -1.9060135 -2.4326613 -0.0009145323
H 0.7477101 -2.1297202 -0.013929512
H 1.7902538 1.4728909 -0.0041886284
