title
 OpenBabel02282110003D

 14 14  0  0  0  0  0  0  0  0999 V2000
    1.3873    2.2981   -0.0034 N   0  0  0  0  0  0  0  0  0  0  0  0
    1.3793    1.0273   -0.0074 C   0  0  0  0  0  0  0  0  0  0  0  0
    0.1893    0.3181   -0.0005 N   0  0  0  0  0  0  0  0  0  0  0  0
   -1.1089    0.8743    0.0114 C   0  0  0  0  0  0  0  0  0  0  0  0
   -2.0403   -0.0805    0.0155 C   0  0  0  0  0  0  0  0  0  0  0  0
   -1.3721   -1.4294    0.0061 C   0  0  0  0  0  0  0  0  0  0  0  0
    0.1207   -1.0871   -0.0044 C   0  0  0  0  0  0  0  0  0  0  0  0
    1.0725   -1.8280   -0.0141 O   0  0  0  0  0  0  0  0  0  0  0  0
    2.3448    2.6438   -0.0098 H   0  0  0  0  0  0  0  0  0  0  0  0
    2.2396    0.3540   -0.0162 H   0  0  0  0  0  0  0  0  0  0  0  0
   -1.1940    1.9496    0.0154 H   0  0  0  0  0  0  0  0  0  0  0  0
   -3.1072    0.0820    0.0243 H   0  0  0  0  0  0  0  0  0  0  0  0
   -1.5997   -2.0450    0.8842 H   0  0  0  0  0  0  0  0  0  0  0  0
   -1.6133   -2.0395   -0.8723 H   0  0  0  0  0  0  0  0  0  0  0  0
  2  1  2  0  0  0  0
  2  3  1  0  0  0  0
  3  4  1  0  0  0  0
  4 11  1  0  0  0  0
  4  5  2  0  0  0  0
  5 12  1  0  0  0  0
  6  5  1  0  0  0  0
  6 13  1  0  0  0  0
  7  3  1  0  0  0  0
  7  6  1  0  0  0  0
  8  7  2  0  0  0  0
  9  1  1  0  0  0  0
 10  2  1  0  0  0  0
 14  6  1  0  0  0  0
M  END
