12
title
O -1.9631126 -1.70986 0.0077597387
C -1.8514135 -0.51121765 0.014722755
C -0.5723188 0.22613376 0.007262336
C -0.43908143 1.5575955 0.01588608
C 1.0139022 1.9085329 0.0040168124
O 1.6983998 0.66389626 -0.012190472
C 0.79622746 -0.38256603 -0.011011332
O 1.1412776 -1.5229958 -0.023044016
H -2.7421753 0.15713316 0.027839001
H -1.2330083 2.2948022 0.029335191
H 1.2940323 2.4951172 -0.88100624
H 1.3117352 2.4817777 0.8919958
