title
 OpenBabel02282110003D

 14 14  0  0  0  0  0  0  0  0999 V2000
    1.3804    2.2956   -0.0031 N   0  0  0  0  0  0  0  0  0  0  0  0
    1.4002    1.0261   -0.0074 C   0  0  0  0  0  0  0  0  0  0  0  0
    0.2193    0.2944   -0.0009 N   0  0  0  0  0  0  0  0  0  0  0  0
   -1.0833    0.8099    0.0107 C   0  0  0  0  0  0  0  0  0  0  0  0
   -2.0234   -0.0498    0.0152 N   0  0  0  0  0  0  0  0  0  0  0  0
   -1.3754   -1.3664    0.0062 C   0  0  0  0  0  0  0  0  0  0  0  0
    0.1318   -1.1094   -0.0045 C   0  0  0  0  0  0  0  0  0  0  0  0
    1.1523   -1.8611   -0.0146 N   0  0  0  0  0  0  0  0  0  0  0  0
    2.3300    2.6626   -0.0092 H   0  0  0  0  0  0  0  0  0  0  0  0
    2.2730    0.3688   -0.0162 H   0  0  0  0  0  0  0  0  0  0  0  0
   -1.2075    1.8850    0.0150 H   0  0  0  0  0  0  0  0  0  0  0  0
   -1.6737   -1.9451    0.8879 H   0  0  0  0  0  0  0  0  0  0  0  0
   -1.6871   -1.9396   -0.8743 H   0  0  0  0  0  0  0  0  0  0  0  0
    0.8827   -2.8433   -0.0156 H   0  0  0  0  0  0  0  0  0  0  0  0
  2  1  2  0  0  0  0
  2  3  1  0  0  0  0
  3  4  1  0  0  0  0
  4 11  1  0  0  0  0
  4  5  2  0  0  0  0
  6  5  1  0  0  0  0
  6 12  1  0  0  0  0
  7  3  1  0  0  0  0
  7  6  1  0  0  0  0
  8  7  2  0  0  0  0
  9  1  1  0  0  0  0
 10  2  1  0  0  0  0
 13  6  1  0  0  0  0
 14  8  1  0  0  0  0
M  END
