14
title
N 0.6594761 1.8486695 0.005390815
C 0.7231424 0.57904464 -0.001708952
C 1.8874667 -0.33145168 -0.013677976
C 1.4892571 -1.6036029 -0.018218158
C -0.008202693 -1.6835916 -0.009622558
N -0.40824822 -0.27558675 0.0005692591
C -1.7449521 0.07834003 0.011954816
O -2.19983 1.1905464 0.021551814
H 1.6038865 2.2347634 0.0018041481
H 2.903529 0.03989396 -0.01783453
H 2.1148925 -2.4860978 -0.026885612
H -0.39570108 -2.2075634 -0.8944772
H -0.3851327 -2.2173615 0.8739255
H -2.3793871 -0.8338846 0.011213316
