title
 OpenBabel02282110003D

 13 13  0  0  0  0  0  0  0  0999 V2000
   -1.8398   -1.6821    0.0064 O   0  0  0  0  0  0  0  0  0  0  0  0
   -1.6873   -0.4913    0.0141 C   0  0  0  0  0  0  0  0  0  0  0  0
   -0.4757    0.1840    0.0066 N   0  0  0  0  0  0  0  0  0  0  0  0
   -0.4113    1.6410    0.0173 C   0  0  0  0  0  0  0  0  0  0  0  0
    1.0649    1.9122    0.0036 C   0  0  0  0  0  0  0  0  0  0  0  0
    1.7555    0.7724   -0.0128 C   0  0  0  0  0  0  0  0  0  0  0  0
    0.8299   -0.3910   -0.0117 C   0  0  0  0  0  0  0  0  0  0  0  0
    1.0946   -1.5629   -0.0240 O   0  0  0  0  0  0  0  0  0  0  0  0
   -2.5328    0.2288    0.0286 H   0  0  0  0  0  0  0  0  0  0  0  0
   -0.9119    2.0754   -0.8586 H   0  0  0  0  0  0  0  0  0  0  0  0
   -0.8929    2.0615    0.9105 H   0  0  0  0  0  0  0  0  0  0  0  0
    1.4606    2.9193    0.0072 H   0  0  0  0  0  0  0  0  0  0  0  0
    2.8271    0.6354   -0.0254 H   0  0  0  0  0  0  0  0  0  0  0  0
  1  2  2  0  0  0  0
  2  9  1  0  0  0  0
  3  2  1  0  0  0  0
  3  4  1  0  0  0  0
  4 11  1  0  0  0  0
  5 12  1  0  0  0  0
  5  4  1  0  0  0  0
  6  7  1  0  0  0  0
  6  5  2  0  0  0  0
  7  3  1  0  0  0  0
  8  7  2  0  0  0  0
 10  4  1  0  0  0  0
 13  6  1  0  0  0  0
M  END
