16
title
N -0.781351 1.8111966 -0.22221388
C -0.70773655 0.55807215 -0.07880472
C -1.8924724 -0.3718348 0.10467688
C -1.2863281 -1.6354675 0.7351671
C 0.12409109 -1.6841812 0.12679036
N 0.4569366 -0.26542222 -0.054928623
C 1.7443806 0.17776448 -0.20094
O 2.0800924 1.329794 -0.37523773
H 0.14851367 2.2135348 -0.34645626
H -2.6699748 0.10534084 0.70151764
H -2.3215013 -0.5933115 -0.88033324
H -1.215387 -1.518729 1.8211019
H -1.8546591 -2.5440993 0.52904385
H 0.8575032 -2.1744146 0.7722047
H 0.11949432 -2.2043147 -0.84001756
H 2.4753547 -0.65182227 -0.13490532
