title
 OpenBabel02282110003D

 14 14  0  0  1  0  0  0  0  0999 V2000
   -1.5768   -1.7069   -0.9026 O   0  0  0  0  0  0  0  0  0  0  0  0
   -0.7467   -1.5404   -0.0471 C   0  0  0  0  0  0  0  0  0  0  0  0
    0.4492   -0.6106   -0.1711 C   0  0  1  0  0  0  0  0  0  0  0  0
    0.5012    0.2131   -1.4623 C   0  0  0  0  0  0  0  0  0  0  0  0
    0.4338    1.6429   -0.9880 C   0  0  0  0  0  0  0  0  0  0  0  0
    0.3762    1.7633    0.3440 C   0  0  0  0  0  0  0  0  0  0  0  0
    0.3976    0.4325    0.9842 C   0  0  0  0  0  0  0  0  0  0  0  0
    0.3685    0.1621    2.1604 O   0  0  0  0  0  0  0  0  0  0  0  0
   -0.8054   -2.0549    0.9338 H   0  0  0  0  0  0  0  0  0  0  0  0
    1.3425   -1.2239   -0.0014 H   0  0  0  0  0  0  0  0  0  0  0  0
    1.4143    0.0335   -2.0412 H   0  0  0  0  0  0  0  0  0  0  0  0
   -0.3419   -0.0332   -2.1173 H   0  0  0  0  0  0  0  0  0  0  0  0
    0.4317    2.4724   -1.6871 H   0  0  0  0  0  0  0  0  0  0  0  0
    0.3207    2.6778    0.9195 H   0  0  0  0  0  0  0  0  0  0  0  0
  1  2  2  0  0  0  0
  2  9  1  0  0  0  0
  3  2  1  0  0  0  0
  3 10  1  1  0  0  0
  3  7  1  0  0  0  0
  4  5  1  0  0  0  0
  4  3  1  0  0  0  0
  5  6  2  0  0  0  0
  6 14  1  0  0  0  0
  6  7  1  0  0  0  0
  7  8  2  0  0  0  0
 11  4  1  0  0  0  0
 12  4  1  0  0  0  0
 13  5  1  0  0  0  0
M  END
