12
title
O -2.2790852 -0.79633844 1.0278747
C -1.1492302 -1.0297499 0.704622
C -0.034461074 0.022714404 0.69922316
N 1.2809204 -0.59147084 0.8903803
C 1.956935 -0.31057855 -0.15708534
N 1.3089572 0.45833018 -1.1119696
C 0.019477194 0.7524729 -0.66971004
O -0.8100641 1.4080462 -1.2386365
H -0.8138026 -2.0341558 0.37015468
H -0.26088256 0.7476518 1.4867215
H 2.9795938 -0.6310519 -0.32666445
H 1.6918317 0.792655 -1.981765
