title
 OpenBabel02282110003D

 14 14  0  0  0  0  0  0  0  0999 V2000
    0.6595    1.8487    0.0054 N   0  0  0  0  0  0  0  0  0  0  0  0
    0.7231    0.5790   -0.0017 C   0  0  0  0  0  0  0  0  0  0  0  0
    1.8875   -0.3315   -0.0137 C   0  0  0  0  0  0  0  0  0  0  0  0
    1.4893   -1.6036   -0.0182 C   0  0  0  0  0  0  0  0  0  0  0  0
   -0.0082   -1.6836   -0.0096 C   0  0  0  0  0  0  0  0  0  0  0  0
   -0.4082   -0.2756    0.0006 N   0  0  0  0  0  0  0  0  0  0  0  0
   -1.7450    0.0783    0.0120 C   0  0  0  0  0  0  0  0  0  0  0  0
   -2.1998    1.1905    0.0216 O   0  0  0  0  0  0  0  0  0  0  0  0
    1.6039    2.2348    0.0018 H   0  0  0  0  0  0  0  0  0  0  0  0
    2.9035    0.0399   -0.0178 H   0  0  0  0  0  0  0  0  0  0  0  0
    2.1149   -2.4861   -0.0269 H   0  0  0  0  0  0  0  0  0  0  0  0
   -0.3957   -2.2076   -0.8945 H   0  0  0  0  0  0  0  0  0  0  0  0
   -0.3851   -2.2174    0.8739 H   0  0  0  0  0  0  0  0  0  0  0  0
   -2.3794   -0.8339    0.0112 H   0  0  0  0  0  0  0  0  0  0  0  0
  2  6  1  0  0  0  0
  2  1  1  0  0  0  0
  3  2  2  0  0  0  0
  4  3  1  0  0  0  0
  4  5  1  0  0  0  0
  5  6  1  0  0  0  0
  5 13  1  0  0  0  0
  6  7  1  0  0  0  0
  7  8  2  0  0  0  0
  9  1  1  0  0  0  0
 10  3  1  0  0  0  0
 11  4  1  0  0  0  0
 12  5  1  0  0  0  0
 14  7  1  0  0  0  0
M  RAD  2   1   2   4   2
M  END
