13
title
N 0.46015206 2.2359505 -0.20586371
C 0.46566197 0.9855816 -0.3510379
O 1.5449858 0.16895622 -0.48133495
C 1.0856191 -1.1883256 -0.51661783
O -0.27971795 -1.1452577 -0.8467462
C -0.7670489 0.09245139 -0.38345814
C -1.370106 0.016917173 1.0248052
O -1.2850747 -0.9541043 1.7249655
H 1.408208 2.6136305 -0.18394
H 1.6300342 -1.727231 -1.295691
H 1.2503102 -1.6411209 0.46934608
H -1.516101 0.4826318 -1.0793283
H -1.8711919 0.9537746 1.347526
