title
 OpenBabel02282110003D

 15 15  0  0  0  0  0  0  0  0999 V2000
    1.8301    1.8020    0.1979 N   0  0  0  0  0  0  0  0  0  0  0  0
    1.7169    0.5390    0.1737 C   0  0  0  0  0  0  0  0  0  0  0  0
    0.5163   -0.1456    0.0648 N   0  0  0  0  0  0  0  0  0  0  0  0
    0.4875   -1.5984   -0.0814 C   0  0  0  0  0  0  0  0  0  0  0  0
   -1.0009   -1.9271    0.1328 C   0  0  0  0  0  0  0  0  0  0  0  0
   -1.6231   -0.6842   -0.2895 N   0  0  0  0  0  0  0  0  0  0  0  0
   -0.7753    0.4042   -0.1067 C   0  0  0  0  0  0  0  0  0  0  0  0
   -1.0922    1.5633   -0.1107 O   0  0  0  0  0  0  0  0  0  0  0  0
    2.8123    2.0520    0.3003 H   0  0  0  0  0  0  0  0  0  0  0  0
    2.5524   -0.1707    0.2481 H   0  0  0  0  0  0  0  0  0  0  0  0
    0.8131   -1.8995   -1.0858 H   0  0  0  0  0  0  0  0  0  0  0  0
    1.1315   -2.0889    0.6529 H   0  0  0  0  0  0  0  0  0  0  0  0
   -1.3223   -2.7759   -0.4762 H   0  0  0  0  0  0  0  0  0  0  0  0
   -1.2043   -2.1603    1.1880 H   0  0  0  0  0  0  0  0  0  0  0  0
   -2.5990   -0.5068   -0.1098 H   0  0  0  0  0  0  0  0  0  0  0  0
  1  9  1  0  0  0  0
  2  1  1  0  0  0  0
  2 10  1  0  0  0  0
  3  2  1  0  0  0  0
  4  3  1  0  0  0  0
  4  5  1  0  0  0  0
  4 12  1  0  0  0  0
  5 14  1  0  0  0  0
  6 15  1  0  0  0  0
  6  7  1  0  0  0  0
  6  5  1  0  0  0  0
  7  3  1  0  0  0  0
  8  7  2  0  0  0  0
 11  4  1  0  0  0  0
 13  5  1  0  0  0  0
M  RAD  2   1   2   2   2
M  END
