16
title
N 1.8102802 1.7947342 -0.34748903
C 1.706825 0.5447895 -0.15979016
N 0.5023417 -0.13229652 0.00447456
C 0.5020769 -1.5655491 0.30970973
C -0.94757205 -1.998241 0.03218717
C -1.7540876 -0.7295008 0.32778105
C -0.7924109 0.41953656 0.015084283
O -1.0823992 1.5703588 -0.17158838
H 2.7940118 2.0410163 -0.44896838
H 2.5513673 -0.15567137 -0.109481916
H 1.2277287 -2.0940418 -0.3153138
H 0.7754751 -1.7377675 1.3600111
H -1.053816 -2.2739983 -1.0214791
H -1.2400478 -2.8596296 0.6354225
H -2.6706026 -0.6214347 -0.2535956
H -2.0264082 -0.65733874 1.3879356
