15
title
N 1.8300892 1.8019865 0.19790828
C 1.7168748 0.53899777 0.17369696
N 0.51628757 -0.14564773 0.06476649
C 0.4874996 -1.5984302 -0.081387036
C -1.0008641 -1.927135 0.1328241
N -1.6231369 -0.6842411 -0.28947863
C -0.7753402 0.40420297 -0.10669453
O -1.0922118 1.5632954 -0.11065068
H 2.812266 2.0520265 0.3002973
H 2.5524113 -0.17074534 0.24806935
H 0.8130531 -1.8994906 -1.0858431
H 1.1314934 -2.0889482 0.65292096
H -1.3223058 -2.7758517 -0.47622377
H -1.2042958 -2.1603162 1.1880322
H -2.5989685 -0.50682735 -0.1098273
