title
 OpenBabel02282110003D

 15 15  0  0  0  0  0  0  0  0999 V2000
   -0.0656    2.1368    0.7190 C   0  0  0  0  0  0  0  0  0  0  0  0
   -0.0021    0.6502    0.6455 C   0  0  0  0  0  0  0  0  0  0  0  0
   -0.0120   -0.1407   -0.4370 C   0  0  0  0  0  0  0  0  0  0  0  0
    0.0703   -1.5943   -0.0250 C   0  0  0  0  0  0  0  0  0  0  0  0
    0.1282   -1.5636    1.3950 O   0  0  0  0  0  0  0  0  0  0  0  0
    0.0882   -0.2251    1.8664 C   0  0  0  0  0  0  0  0  0  0  0  0
   -0.0873    0.2791   -1.7882 C   0  0  0  0  0  0  0  0  0  0  0  0
   -0.1482    0.6041   -2.8991 N   0  0  0  0  0  0  0  0  0  0  0  0
    0.8180    2.5376    1.2302 H   0  0  0  0  0  0  0  0  0  0  0  0
   -0.1256    2.5857   -0.2745 H   0  0  0  0  0  0  0  0  0  0  0  0
   -0.9379    2.4590    1.3006 H   0  0  0  0  0  0  0  0  0  0  0  0
   -0.8069   -2.1683   -0.3575 H   0  0  0  0  0  0  0  0  0  0  0  0
    0.9643   -2.0890   -0.4316 H   0  0  0  0  0  0  0  0  0  0  0  0
    0.9903   -0.0013    2.4588 H   0  0  0  0  0  0  0  0  0  0  0  0
   -0.7775   -0.0804    2.5330 H   0  0  0  0  0  0  0  0  0  0  0  0
  1  9  1  0  0  0  0
  1 11  1  0  0  0  0
  2  1  1  0  0  0  0
  2  6  1  0  0  0  0
  3  4  1  0  0  0  0
  3  2  2  0  0  0  0
  4  5  1  0  0  0  0
  5  6  1  0  0  0  0
  6 14  1  0  0  0  0
  6 15  1  0  0  0  0
  7  3  1  0  0  0  0
  8  7  3  0  0  0  0
 10  1  1  0  0  0  0
 12  4  1  0  0  0  0
 13  4  1  0  0  0  0
M  END
