title
 OpenBabel02282110003D

 17 17  0  0  0  0  0  0  0  0999 V2000
   -0.0770    2.0935    0.7500 C   0  0  0  0  0  0  0  0  0  0  0  0
   -0.0233    0.6041    0.6839 C   0  0  0  0  0  0  0  0  0  0  0  0
   -0.0247   -0.1652   -0.4206 C   0  0  0  0  0  0  0  0  0  0  0  0
   -0.0152   -1.6499   -0.1015 C   0  0  0  0  0  0  0  0  0  0  0  0
    0.3450   -1.6685    1.4043 C   0  0  0  0  0  0  0  0  0  0  0  0
   -0.0097   -0.2564    1.9268 C   0  0  0  0  0  0  0  0  0  0  0  0
   -0.0813    0.3254   -1.7524 C   0  0  0  0  0  0  0  0  0  0  0  0
   -0.1242    0.7050   -2.8471 N   0  0  0  0  0  0  0  0  0  0  0  0
    0.7939    2.4886    1.2874 H   0  0  0  0  0  0  0  0  0  0  0  0
   -0.1071    2.5457   -0.2438 H   0  0  0  0  0  0  0  0  0  0  0  0
   -0.9619    2.4232    1.3089 H   0  0  0  0  0  0  0  0  0  0  0  0
   -1.0037   -2.0859   -0.2961 H   0  0  0  0  0  0  0  0  0  0  0  0
    0.6983   -2.2073   -0.7156 H   0  0  0  0  0  0  0  0  0  0  0  0
   -0.1683   -2.4639    1.9489 H   0  0  0  0  0  0  0  0  0  0  0  0
    1.4199   -1.8380    1.5178 H   0  0  0  0  0  0  0  0  0  0  0  0
    0.6979    0.1118    2.6784 H   0  0  0  0  0  0  0  0  0  0  0  0
   -1.0007   -0.2276    2.4031 H   0  0  0  0  0  0  0  0  0  0  0  0
  1  9  1  0  0  0  0
  1 11  1  0  0  0  0
  2  1  1  0  0  0  0
  2  6  1  0  0  0  0
  3  4  1  0  0  0  0
  3  2  2  0  0  0  0
  4  5  1  0  0  0  0
  5 15  1  0  0  0  0
  5  6  1  0  0  0  0
  5 14  1  0  0  0  0
  6 17  1  0  0  0  0
  6 16  1  0  0  0  0
  7  3  1  0  0  0  0
  8  7  3  0  0  0  0
 10  1  1  0  0  0  0
 12  4  1  0  0  0  0
 13  4  1  0  0  0  0
M  END
