title
 OpenBabel02282110003D

 14 14  0  0  0  0  0  0  0  0999 V2000
   -1.8781   -1.6761   -0.2560 O   0  0  0  0  0  0  0  0  0  0  0  0
   -1.7179   -0.4903   -0.1509 C   0  0  0  0  0  0  0  0  0  0  0  0
   -0.5117    0.1724   -0.0030 N   0  0  0  0  0  0  0  0  0  0  0  0
   -0.4283    1.6217    0.1766 C   0  0  0  0  0  0  0  0  0  0  0  0
    1.0589    1.9079   -0.1057 C   0  0  0  0  0  0  0  0  0  0  0  0
    1.6608    0.6303    0.2366 N   0  0  0  0  0  0  0  0  0  0  0  0
    0.7773   -0.4254    0.0856 C   0  0  0  0  0  0  0  0  0  0  0  0
    1.0449   -1.5951    0.0525 O   0  0  0  0  0  0  0  0  0  0  0  0
   -2.5545    0.2397   -0.1728 H   0  0  0  0  0  0  0  0  0  0  0  0
   -1.0935    2.1503   -0.5096 H   0  0  0  0  0  0  0  0  0  0  0  0
   -0.6897    1.9025    1.2039 H   0  0  0  0  0  0  0  0  0  0  0  0
    1.2182    2.1740   -1.1602 H   0  0  0  0  0  0  0  0  0  0  0  0
    1.4411    2.7203    0.5172 H   0  0  0  0  0  0  0  0  0  0  0  0
    2.6294    0.4331    0.0407 H   0  0  0  0  0  0  0  0  0  0  0  0
  1  2  2  0  0  0  0
  2  3  1  0  0  0  0
  3  7  1  0  0  0  0
  3  4  1  0  0  0  0
  4 11  1  0  0  0  0
  5  4  1  0  0  0  0
  5  6  1  0  0  0  0
  5 13  1  0  0  0  0
  7  6  1  0  0  0  0
  8  7  2  0  0  0  0
  9  2  1  0  0  0  0
 10  4  1  0  0  0  0
 12  5  1  0  0  0  0
 14  6  1  0  0  0  0
M  END
