title
 OpenBabel02282110003D

 15 15  0  0  1  0  0  0  0  0999 V2000
   -2.0616   -1.7169    0.0611 O   0  0  0  0  0  0  0  0  0  0  0  0
   -1.7733   -0.5357    0.0091 C   0  0  0  0  0  0  0  0  0  0  0  0
   -0.4822    0.0519   -0.0643 C   0  0  1  0  0  0  0  0  0  0  0  0
   -0.4335    1.5383   -0.1433 N   0  0  0  0  0  0  0  0  0  0  0  0
   -0.5677    1.8920   -1.0974 H   0  0  0  0  0  0  0  0  0  0  0  0
   -1.1655    1.9704    0.4239 H   0  0  0  0  0  0  0  0  0  0  0  0
    0.9527    1.9352    0.3418 C   0  0  0  0  0  0  0  0  0  0  0  0
    1.8215    0.7639   -0.0880 C   0  0  0  0  0  0  0  0  0  0  0  0
    0.8503   -0.4608   -0.0631 C   0  0  0  0  0  0  0  0  0  0  0  0
    1.2467   -1.6100   -0.0498 O   0  0  0  0  0  0  0  0  0  0  0  0
   -2.5945    0.2434    0.0333 H   0  0  0  0  0  0  0  0  0  0  0  0
    1.2067    2.9122   -0.0755 H   0  0  0  0  0  0  0  0  0  0  0  0
    0.8825    2.0073    1.4284 H   0  0  0  0  0  0  0  0  0  0  0  0
    2.2193    0.8979   -1.1005 H   0  0  0  0  0  0  0  0  0  0  0  0
    2.6636    0.5971    0.5845 H   0  0  0  0  0  0  0  0  0  0  0  0
  2 11  1  0  0  0  0
  2  1  2  0  0  0  0
  3  9  1  0  0  0  0
  3  2  1  1  0  0  0
  4  3  1  0  0  0  0
  4  7  1  0  0  0  0
  4  6  1  0  0  0  0
  5  4  1  0  0  0  0
  7 13  1  0  0  0  0
  8  9  1  0  0  0  0
  8  7  1  0  0  0  0
  8 15  1  0  0  0  0
  9 10  2  0  0  0  0
 12  7  1  0  0  0  0
 14  8  1  0  0  0  0
M  RAD  1   3   2
M  END
