13
title
O -1.8588827 -1.6908239 -0.27319622
C -1.7262846 -0.50387967 -0.16632119
N -0.5245742 0.17989014 -0.018462256
C -0.4476079 1.6268978 0.14525239
C 1.0513737 1.8618925 -0.09552344
O 1.6681223 0.5977485 0.17121257
C 0.752685 -0.4113362 0.097886376
O 1.0320334 -1.5662723 0.14279369
H -2.5738118 0.21106647 -0.18466799
H -1.0740252 2.1521695 -0.5794464
H -0.7501421 1.9279997 1.1550356
H 1.2586558 2.145305 -1.1330639
H 1.4828367 2.6070921 0.5738461
