16
title
C -0.06764582 2.139226 0.7280216
C -0.005353908 0.6525233 0.6423743
C -0.01103682 -0.12261456 -0.45326117
C 0.06799363 -1.5781302 -0.04324921
O 0.11844612 -1.5654876 1.3775859
C 0.077705204 -0.22919065 1.8583225
C -0.07792533 0.28436494 -1.8037341
C -0.13378273 0.5917207 -2.9681327
H 0.8140625 2.5416818 1.2426647
H -0.12308224 2.5888271 -0.26563832
H -0.9421549 2.4644675 1.3056843
H -0.80731434 -2.1496575 -0.38665095
H 0.96341556 -2.0713341 -0.45036724
H 0.97693056 -0.014370026 2.459794
H -0.7904382 -0.09172797 2.524587
H -0.1835022 0.8713236 -3.9912395
