14
title
O -1.8780764 -1.6760844 -0.2560174
C -1.7178677 -0.49029323 -0.1508634
N -0.5117 0.17240074 -0.003014418
C -0.4282951 1.6217426 0.17657053
C 1.0589234 1.9079045 -0.105738714
N 1.6607517 0.6302869 0.23661911
C 0.77725476 -0.4253938 0.08555179
O 1.0448881 -1.5951422 0.052450806
H -2.554459 0.23971465 -0.17278679
H -1.0934601 2.1502616 -0.50964403
H -0.6897391 1.9024888 1.2039107
H 1.2182404 2.1740005 -1.1602263
H 1.4410759 2.7202964 0.5171618
H 2.6293705 0.43311134 0.040689357
