17
title
C 0.8245884 2.231137 -0.016094144
C 0.70761 0.74118954 0.007897987
C -0.40413204 -0.047829755 0.0072531044
C 0.023266628 -1.5021127 0.09071369
C 1.5449111 -1.4238137 -0.1823626
N 1.8580883 -0.009052821 0.08616509
C -1.7780944 0.37148958 0.004750389
O -2.7320344 -0.38977408 0.033168994
H 1.3575964 2.5849843 0.8734351
H 1.3980422 2.5605183 -0.8911379
H -0.15242915 2.7123487 -0.04823517
H -0.1831036 -1.9106401 1.0875427
H -0.50165516 -2.138877 -0.6249791
H 2.135559 -2.081188 0.46077096
H 1.7732271 -1.6749357 -1.2275473
H 2.7186592 0.37800515 -0.27190155
H -1.9430414 1.4725682 -0.03505112
