17
title
N 0.80527383 2.0932782 0.28137138
C 0.7126954 0.757497 0.031121856
C -0.39213952 -0.044137992 0.002278975
C -0.010868045 -1.4791867 -0.2975627
C 1.5196631 -1.4978658 -0.069211245
C 1.9710855 -0.031404354 -0.25077072
C -1.755828 0.38190955 0.17985432
O -2.731768 -0.34572062 0.11693601
H 1.6557703 2.5686405 0.031240258
H -0.02569458 2.6614184 0.266105
H -0.5416906 -2.190178 0.34203306
H -0.2691619 -1.7468139 -1.3310972
H 1.7336253 -1.8134724 0.95666707
H 2.046428 -2.183234 -0.73746806
H 2.3028538 0.17183073 -1.279476
H 2.7973852 0.2568212 0.40914258
H -1.8936719 1.4713582 0.39433432
