18
title
C -0.39503348 2.1094415 -0.65087223
C -0.35021323 0.616361 -0.6888845
C -0.3935819 -0.1808711 -1.7565559
C -0.38983026 -1.6475109 -1.4050494
C 0.024748238 -1.6439143 0.08493479
C -0.32234457 -0.21426806 0.5991032
C 0.59310055 0.27885422 1.6224575
C 1.3554437 0.6834318 2.460164
H 0.47142076 2.5147913 -0.11620096
H -0.41503152 2.5342662 -1.6578623
H -1.284178 2.4645793 -0.11324284
H -0.47207537 0.17508104 -2.778877
H -1.3880261 -2.085678 -1.5497774
H 0.29523468 -2.2378893 -2.0238655
H -0.45902944 -2.4243393 0.6765739
H 1.1052763 -1.7877604 0.16817454
H -1.33648 -0.20922199 1.0306106
H 2.0257335 1.0380088 3.2032697
