16
title
C -0.4912536 2.110401 -0.663686
C -0.37874562 0.62220275 -0.7024189
C -0.2909278 -0.19124499 -1.7512091
C -0.20853746 -1.634395 -1.3474448
N -0.06490717 -1.5668329 0.11591375
C -0.3817774 -0.21296993 0.57465416
C 0.60451615 0.27171308 1.5659643
N 1.3558992 0.67431515 2.3462386
H 0.32661316 2.5527396 -0.08332068
H -0.469283 2.5336723 -1.6705748
H -1.4252263 2.4255393 -0.18111229
H -0.28648776 0.12583375 -2.7872424
H -1.1086699 -2.187243 -1.6649792
H 0.65041244 -2.147329 -1.8034437
H -0.5942163 -2.2739055 0.60485286
H -1.3685412 -0.13407889 1.0658599
