16
title
C 0.74421555 2.3011475 0.03089636
C 0.6695964 0.81210494 -0.032787826
C -0.39023694 -0.0111329155 0.041835982
C 0.06372223 -1.4432462 -0.076057784
O 1.4823679 -1.3748852 -0.2258176
C 1.9098798 -0.024607202 -0.20684047
C -1.7961404 0.34151214 0.20978355
O -2.6876428 -0.4802715 0.26539892
H 1.387095 2.6175506 0.86154234
H 1.1988308 2.7016468 -0.88360006
H -0.23291281 2.769324 0.15886813
H -0.19486305 -2.0338054 0.813885
H -0.3843852 -1.949263 -0.94251275
H 2.4374256 0.2272595 -1.142508
H 2.6269019 0.14254527 0.61483955
H -2.0191052 1.427104 0.28649572
