title
 OpenBabel02282110003D

 17 17  0  0  1  0  0  0  0  0999 V2000
   -0.4221    2.1068   -0.6518 C   0  0  0  0  0  0  0  0  0  0  0  0
   -0.3456    0.6154   -0.7036 C   0  0  0  0  0  0  0  0  0  0  0  0
   -0.3316   -0.1779   -1.7748 C   0  0  0  0  0  0  0  0  0  0  0  0
   -0.3069   -1.6463   -1.4353 C   0  0  0  0  0  0  0  0  0  0  0  0
    0.0388   -1.6515    0.0729 C   0  0  0  0  0  0  0  0  0  0  0  0
   -0.3506   -0.2293    0.5742 C   0  0  1  0  0  0  0  0  0  0  0  0
    0.5399    0.2767    1.6197 C   0  0  0  0  0  0  0  0  0  0  0  0
    1.2475    0.6838    2.4385 N   0  0  0  0  0  0  0  0  0  0  0  0
    0.4205    2.5277   -0.0909 H   0  0  0  0  0  0  0  0  0  0  0  0
   -0.4205    2.5386   -1.6556 H   0  0  0  0  0  0  0  0  0  0  0  0
   -1.3340    2.4393   -0.1390 H   0  0  0  0  0  0  0  0  0  0  0  0
   -0.3794    0.1840   -2.7965 H   0  0  0  0  0  0  0  0  0  0  0  0
   -1.2852   -2.1077   -1.6305 H   0  0  0  0  0  0  0  0  0  0  0  0
    0.4220   -2.2120   -2.0255 H   0  0  0  0  0  0  0  0  0  0  0  0
   -0.4671   -2.4381    0.6362 H   0  0  0  0  0  0  0  0  0  0  0  0
    1.1147   -1.7897    0.2059 H   0  0  0  0  0  0  0  0  0  0  0  0
   -1.3656   -0.2310    0.9992 H   0  0  0  0  0  0  0  0  0  0  0  0
  1 11  1  0  0  0  0
  1  9  1  0  0  0  0
  2  1  1  0  0  0  0
  2  6  1  0  0  0  0
  3  4  1  0  0  0  0
  3  2  2  0  0  0  0
  4  5  1  0  0  0  0
  5 16  1  0  0  0  0
  5  6  1  0  0  0  0
  5 15  1  0  0  0  0
  6 17  1  1  0  0  0
  6  7  1  0  0  0  0
  7  8  3  0  0  0  0
 10  1  1  0  0  0  0
 12  3  1  0  0  0  0
 13  4  1  0  0  0  0
 14  4  1  0  0  0  0
M  END
