title
 OpenBabel02282110003D

 18 18  0  0  0  0  0  0  0  0999 V2000
   -0.0808    2.2419    0.8375 C   0  0  0  0  0  0  0  0  0  0  0  0
   -0.0229    0.7517    0.7333 C   0  0  0  0  0  0  0  0  0  0  0  0
   -0.0282   -0.0270   -0.3696 C   0  0  0  0  0  0  0  0  0  0  0  0
   -0.0074   -1.5019   -0.0260 C   0  0  0  0  0  0  0  0  0  0  0  0
    0.3710   -1.5098    1.4739 C   0  0  0  0  0  0  0  0  0  0  0  0
    0.0036   -0.0972    1.9859 C   0  0  0  0  0  0  0  0  0  0  0  0
   -0.0901    0.4288   -1.7559 C   0  0  0  0  0  0  0  0  0  0  0  0
   -0.1312   -0.3210   -2.7107 O   0  0  0  0  0  0  0  0  0  0  0  0
    0.7967    2.6207    1.3765 H   0  0  0  0  0  0  0  0  0  0  0  0
   -0.1294    2.7439   -0.1299 H   0  0  0  0  0  0  0  0  0  0  0  0
   -0.9563    2.5478    1.4246 H   0  0  0  0  0  0  0  0  0  0  0  0
   -0.9962   -1.9445   -0.2041 H   0  0  0  0  0  0  0  0  0  0  0  0
    0.6921   -2.0620   -0.6526 H   0  0  0  0  0  0  0  0  0  0  0  0
   -0.1240   -2.3055    2.0354 H   0  0  0  0  0  0  0  0  0  0  0  0
    1.4498   -1.6630    1.5789 H   0  0  0  0  0  0  0  0  0  0  0  0
    0.7042    0.2885    2.7360 H   0  0  0  0  0  0  0  0  0  0  0  0
   -0.9889   -0.0746    2.4611 H   0  0  0  0  0  0  0  0  0  0  0  0
   -0.0941    1.5298   -1.9071 H   0  0  0  0  0  0  0  0  0  0  0  0
  1  9  1  0  0  0  0
  1 11  1  0  0  0  0
  2  1  1  0  0  0  0
  2  6  1  0  0  0  0
  3  4  1  0  0  0  0
  3  2  2  0  0  0  0
  4  5  1  0  0  0  0
  5 15  1  0  0  0  0
  5  6  1  0  0  0  0
  5 14  1  0  0  0  0
  6 17  1  0  0  0  0
  6 16  1  0  0  0  0
  7  3  1  0  0  0  0
  8  7  2  0  0  0  0
 10  1  1  0  0  0  0
 12  4  1  0  0  0  0
 13  4  1  0  0  0  0
 18  7  1  0  0  0  0
M  END
