title
 OpenBabel02282110003D

 14 14  0  0  1  0  0  0  0  0999 V2000
   -1.0175    1.6782   -0.6612 C   0  0  0  0  0  0  0  0  0  0  0  0
   -1.0555    0.1618   -0.4998 C   0  0  1  0  0  0  0  0  0  0  0  0
   -0.4916   -0.5211   -1.6765 N   0  0  0  0  0  0  0  0  0  0  0  0
    0.4019   -1.3070   -1.2563 C   0  0  0  0  0  0  0  0  0  0  0  0
    0.6614   -1.3917    0.0790 O   0  0  0  0  0  0  0  0  0  0  0  0
   -0.2160   -0.4269    0.7019 C   0  0  1  0  0  0  0  0  0  0  0  0
    0.5916    0.5487    1.4404 C   0  0  0  0  0  0  0  0  0  0  0  0
    1.2042    1.3269    2.0350 N   0  0  0  0  0  0  0  0  0  0  0  0
    0.0086    2.0349   -0.7828 H   0  0  0  0  0  0  0  0  0  0  0  0
   -1.5881    1.9581   -1.5496 H   0  0  0  0  0  0  0  0  0  0  0  0
   -1.4552    2.1773    0.2079 H   0  0  0  0  0  0  0  0  0  0  0  0
   -2.0965   -0.1596   -0.3864 H   0  0  0  0  0  0  0  0  0  0  0  0
    1.0166   -1.9611   -1.8635 H   0  0  0  0  0  0  0  0  0  0  0  0
   -0.8483   -0.9608    1.4162 H   0  0  0  0  0  0  0  0  0  0  0  0
  1  2  1  0  0  0  0
  1 11  1  0  0  0  0
  2 12  1  0  0  0  0
  2  6  1  1  0  0  0
  3  4  2  0  0  0  0
  3  2  1  0  0  0  0
  4  5  1  0  0  0  0
  5  6  1  0  0  0  0
  6 14  1  1  0  0  0
  6  7  1  0  0  0  0
  7  8  3  0  0  0  0
  9  1  1  0  0  0  0
 10  1  1  0  0  0  0
 13  4  1  0  0  0  0
M  END
