title
 OpenBabel02282110003D

 15 15  0  0  0  0  0  0  0  0999 V2000
   -0.6974    1.7667    0.1767 N   0  0  0  0  0  0  0  0  0  0  0  0
   -0.7476    0.4168    0.0627 C   0  0  0  0  0  0  0  0  0  0  0  0
   -1.8003   -0.3085    0.0211 N   0  0  0  0  0  0  0  0  0  0  0  0
   -1.3852   -1.7068   -0.0761 C   0  0  0  0  0  0  0  0  0  0  0  0
    0.1625   -1.7295    0.0883 C   0  0  0  0  0  0  0  0  0  0  0  0
    0.4839   -0.2976    0.0293 N   0  0  0  0  0  0  0  0  0  0  0  0
    1.7370    0.2176   -0.0948 C   0  0  0  0  0  0  0  0  0  0  0  0
    2.0188    1.4007   -0.1732 O   0  0  0  0  0  0  0  0  0  0  0  0
    0.1894    2.2075   -0.0271 H   0  0  0  0  0  0  0  0  0  0  0  0
   -1.5558    2.2552   -0.0143 H   0  0  0  0  0  0  0  0  0  0  0  0
   -1.8739   -2.3098    0.6961 H   0  0  0  0  0  0  0  0  0  0  0  0
   -1.6893   -2.1244   -1.0446 H   0  0  0  0  0  0  0  0  0  0  0  0
    0.4684   -2.1505    1.0518 H   0  0  0  0  0  0  0  0  0  0  0  0
    0.6734   -2.2777   -0.7072 H   0  0  0  0  0  0  0  0  0  0  0  0
    2.5079   -0.5740   -0.1231 H   0  0  0  0  0  0  0  0  0  0  0  0
  2  1  1  0  0  0  0
  3  2  2  0  0  0  0
  4  3  1  0  0  0  0
  4  5  1  0  0  0  0
  4 11  1  0  0  0  0
  5 13  1  0  0  0  0
  6  2  1  0  0  0  0
  6  5  1  0  0  0  0
  7  6  1  0  0  0  0
  8  7  2  0  0  0  0
  9  1  1  0  0  0  0
 10  1  1  0  0  0  0
 12  4  1  0  0  0  0
 14  5  1  0  0  0  0
 15  7  1  0  0  0  0
M  END
