15
title
N -0.69736415 1.766714 0.17668006
C -0.7476362 0.41681975 0.06274186
N -1.8002652 -0.30849466 0.021119084
C -1.385187 -1.706753 -0.07613604
C 0.16246413 -1.7295141 0.088259265
N 0.48392588 -0.29761413 0.02926518
C 1.7370083 0.21763958 -0.09480216
O 2.0187986 1.4006674 -0.17320892
H 0.18942045 2.2075136 -0.027073063
H -1.5558224 2.255238 -0.01432509
H -1.8738862 -2.309839 0.69607055
H -1.6892964 -2.1243808 -1.0445741
H 0.46844465 -2.1504738 1.0517889
H 0.6734291 -2.2776558 -0.70724726
H 2.5079098 -0.5739765 -0.12314847
