18
title
C -0.57479453 1.7001926 -0.8582191
C -0.99982834 0.27860656 -0.45717862
C -0.8292853 -0.70147896 -1.5980287
C 0.20587042 -1.5202318 -1.4240165
C 0.9107939 -1.2744703 -0.11323089
C -0.11531005 -0.38869655 0.6586676
C 0.48109737 0.51966107 1.6248628
C 0.9808661 1.2627282 2.4279692
H 0.46805933 1.7230719 -1.1902139
H -1.1961007 2.0645382 -1.6829683
H -0.6778166 2.392583 -0.018410241
H -2.0406861 0.32199445 -0.114680864
H -1.4611125 -0.6680903 -2.4794586
H 0.5461415 -2.2621942 -2.1379979
H 1.145075 -2.1904185 0.43907085
H 1.8628558 -0.74901676 -0.2629529
H -0.7758226 -1.0760274 1.2013963
H 1.4215008 1.9174021 3.1382976
