16
title
C -0.5776973 2.2992878 -0.6593049
C -0.4515698 0.8097891 -0.65663743
C -0.2885152 -0.024254074 -1.6804932
C -0.22852889 -1.4453118 -1.202562
O -0.49243656 -1.3697562 0.19922842
C -0.48824596 -0.025375893 0.61752474
C 0.71877474 0.29084215 1.5057613
O 1.67079 -0.42659646 1.6426767
H 0.23829558 2.7788918 -0.105413355
H -0.5660089 2.692797 -1.6786499
H -1.5120909 2.6185267 -0.18113871
H -0.20870711 0.25593042 -2.723711
H -0.98508716 -2.0889971 -1.6736201
H 0.7547204 -1.9074843 -1.3801615
H -1.3924147 0.18608047 1.2164965
H 0.6468734 1.2769216 2.0249362
