title
 OpenBabel02282110003D

 17 17  0  0  1  0  0  0  0  0999 V2000
   -1.6557    1.2196   -0.6974 C   0  0  0  0  0  0  0  0  0  0  0  0
   -0.8991   -0.1051   -0.7277 C   0  0  1  0  0  0  0  0  0  0  0  0
    0.2720   -0.1720   -1.7409 C   0  0  0  0  0  0  0  0  0  0  0  0
    1.2335   -1.1419   -1.1023 C   0  0  0  0  0  0  0  0  0  0  0  0
    0.9520   -1.3663    0.1783 C   0  0  0  0  0  0  0  0  0  0  0  0
   -0.2628   -0.5675    0.6318 C   0  0  1  0  0  0  0  0  0  0  0  0
    0.1411    0.5406    1.5071 C   0  0  0  0  0  0  0  0  0  0  0  0
    0.4656    1.4118    2.1949 N   0  0  0  0  0  0  0  0  0  0  0  0
   -0.9985    2.0481   -0.4166 H   0  0  0  0  0  0  0  0  0  0  0  0
   -2.0764    1.4391   -1.6838 H   0  0  0  0  0  0  0  0  0  0  0  0
   -2.4829    1.1932    0.0191 H   0  0  0  0  0  0  0  0  0  0  0  0
   -1.5994   -0.9051   -0.9933 H   0  0  0  0  0  0  0  0  0  0  0  0
   -0.0664   -0.4894   -2.7332 H   0  0  0  0  0  0  0  0  0  0  0  0
    0.7473    0.8105   -1.8745 H   0  0  0  0  0  0  0  0  0  0  0  0
    2.0730   -1.5745   -1.6350 H   0  0  0  0  0  0  0  0  0  0  0  0
    1.5162   -1.9863    0.8638 H   0  0  0  0  0  0  0  0  0  0  0  0
   -0.9739   -1.1763    1.2025 H   0  0  0  0  0  0  0  0  0  0  0  0
  1  9  1  0  0  0  0
  1 11  1  0  0  0  0
  2  1  1  0  0  0  0
  2  6  1  1  0  0  0
  3  4  1  0  0  0  0
  3  2  1  0  0  0  0
  4  5  2  0  0  0  0
  5  6  1  0  0  0  0
  5 16  1  0  0  0  0
  6 17  1  1  0  0  0
  6  7  1  0  0  0  0
  7  8  3  0  0  0  0
 10  1  1  0  0  0  0
 12  2  1  0  0  0  0
 13  3  1  0  0  0  0
 14  3  1  0  0  0  0
 15  4  1  0  0  0  0
M  END
