title
 OpenBabel02282110003D

 15 15  0  0  1  0  0  0  0  0999 V2000
   -0.9024    1.5480   -0.8017 C   0  0  0  0  0  0  0  0  0  0  0  0
   -0.9800    0.0368   -0.5875 C   0  0  1  0  0  0  0  0  0  0  0  0
   -0.3585   -0.7215   -1.6900 N   0  0  0  0  0  0  0  0  0  0  0  0
    0.8893   -1.1155   -1.2508 C   0  0  0  0  0  0  0  0  0  0  0  0
    1.1324   -1.0482    0.0026 N   0  0  0  0  0  0  0  0  0  0  0  0
   -0.1130   -0.5191    0.6041 C   0  0  1  0  0  0  0  0  0  0  0  0
    0.1583    0.4652    1.6547 C   0  0  0  0  0  0  0  0  0  0  0  0
    0.3385    1.2472    2.4857 N   0  0  0  0  0  0  0  0  0  0  0  0
    0.1363    1.8794   -0.8959 H   0  0  0  0  0  0  0  0  0  0  0  0
   -1.4424    1.8301   -1.7117 H   0  0  0  0  0  0  0  0  0  0  0  0
   -1.3542    2.0825    0.0379 H   0  0  0  0  0  0  0  0  0  0  0  0
   -2.0221   -0.2690   -0.4641 H   0  0  0  0  0  0  0  0  0  0  0  0
   -0.4426   -0.3482   -2.6254 H   0  0  0  0  0  0  0  0  0  0  0  0
    1.6058   -1.5059   -1.9677 H   0  0  0  0  0  0  0  0  0  0  0  0
   -0.6445   -1.3562    1.0762 H   0  0  0  0  0  0  0  0  0  0  0  0
  1  2  1  0  0  0  0
  1 11  1  0  0  0  0
  2 12  1  0  0  0  0
  2  6  1  1  0  0  0
  3  4  1  0  0  0  0
  3  2  1  0  0  0  0
  4  5  1  0  0  0  0
  5  6  1  0  0  0  0
  6 15  1  1  0  0  0
  6  7  1  0  0  0  0
  7  8  3  0  0  0  0
  9  1  1  0  0  0  0
 10  1  1  0  0  0  0
 13  3  1  0  0  0  0
 14  4  1  0  0  0  0
M  RAD  2   4   2   5   2
M  END
