18
title
C -1.0984647 1.7273134 -0.61221284
C -0.98771644 0.19592336 -0.6104005
C -0.24855106 -0.39370012 -1.7924635
C 0.5574432 -1.3945693 -1.4479845
C 0.51997036 -1.6678518 0.036338735
C -0.2277367 -0.43094146 0.6150517
C 0.7847406 0.53519267 1.195004
O 0.67766076 1.0876065 2.2599113
H -0.117789134 2.208322 -0.6849543
H -1.6953373 2.0642333 -1.4657588
H -1.5818198 2.08926 0.3002255
H -2.0137947 -0.20130782 -0.6050109
H -0.41704896 -0.04195189 -2.8050177
H 1.1531957 -1.9871827 -2.1333466
H -0.02087824 -2.5968783 0.25893515
H 1.5206398 -1.7896843 0.47192532
H -0.91997766 -0.6857327 1.4203082
H 1.6816849 0.70153207 0.55267996
