title
 OpenBabel02282110003D

 15 15  0  0  1  0  0  0  0  0999 V2000
   -1.0563    1.7713   -0.6003 C   0  0  0  0  0  0  0  0  0  0  0  0
   -1.1466    0.2502   -0.4724 C   0  0  1  0  0  0  0  0  0  0  0  0
   -0.5745   -0.4109   -1.6581 N   0  0  0  0  0  0  0  0  0  0  0  0
    0.2830   -1.2389   -1.2363 C   0  0  0  0  0  0  0  0  0  0  0  0
    0.4989   -1.3726    0.0951 O   0  0  0  0  0  0  0  0  0  0  0  0
   -0.3454   -0.3987    0.7272 C   0  0  1  0  0  0  0  0  0  0  0  0
    0.4934    0.5816    1.5271 C   0  0  0  0  0  0  0  0  0  0  0  0
    1.6841    0.7036    1.4312 O   0  0  0  0  0  0  0  0  0  0  0  0
   -0.0153    2.1015   -0.6646 H   0  0  0  0  0  0  0  0  0  0  0  0
   -1.5669    2.0845   -1.5139 H   0  0  0  0  0  0  0  0  0  0  0  0
   -1.5320    2.2738    0.2480 H   0  0  0  0  0  0  0  0  0  0  0  0
   -2.2023   -0.0339   -0.3987 H   0  0  0  0  0  0  0  0  0  0  0  0
    0.8910   -1.8910   -1.8526 H   0  0  0  0  0  0  0  0  0  0  0  0
   -1.0186   -0.9172    1.4199 H   0  0  0  0  0  0  0  0  0  0  0  0
   -0.1078    1.2055    2.2275 H   0  0  0  0  0  0  0  0  0  0  0  0
  1  2  1  0  0  0  0
  1 11  1  0  0  0  0
  2 12  1  0  0  0  0
  2  6  1  1  0  0  0
  3  4  2  0  0  0  0
  3  2  1  0  0  0  0
  4  5  1  0  0  0  0
  5  6  1  0  0  0  0
  6 14  1  1  0  0  0
  6  7  1  0  0  0  0
  7 15  1  0  0  0  0
  8  7  2  0  0  0  0
  9  1  1  0  0  0  0
 10  1  1  0  0  0  0
 13  4  1  0  0  0  0
M  END
