16
title
O 0.98594785 1.540676 -0.87045205
C 0.89842606 0.14449492 -0.7097096
C 1.5606633 -0.4140297 0.5322739
C 0.85107094 -1.3926429 1.0866793
C -0.42875096 -1.6704162 0.33328435
C -0.56857777 -0.42828825 -0.60142785
C -1.4614083 0.5715189 -0.02715661
C -2.1683943 1.4141899 0.46117958
H 0.3981137 1.9432757 -0.21766107
H 1.3756533 -0.26833344 -1.6081804
H 2.5273087 -0.051506266 0.86209655
H 1.1452482 -1.9715339 1.9552104
H -0.3417742 -2.5886865 -0.2626457
H -1.2981697 -1.7977962 0.98467755
H -0.94461334 -0.70841694 -1.589871
H -2.8181567 2.141737 0.88139176
