title
 OpenBabel02282110003D

 15 15  0  0  1  0  0  0  0  0999 V2000
    0.9875    1.5438   -0.8511 O   0  0  0  0  0  0  0  0  0  0  0  0
    0.8957    0.1462   -0.7231 C   0  0  1  0  0  0  0  0  0  0  0  0
    1.5763   -0.4536    0.4874 C   0  0  0  0  0  0  0  0  0  0  0  0
    0.8605   -1.4257    1.0455 C   0  0  0  0  0  0  0  0  0  0  0  0
   -0.4454   -1.6691    0.3257 C   0  0  0  0  0  0  0  0  0  0  0  0
   -0.5738   -0.4215   -0.6010 C   0  0  1  0  0  0  0  0  0  0  0  0
   -1.4374    0.5902    0.0047 C   0  0  0  0  0  0  0  0  0  0  0  0
   -2.0921    1.4033    0.5022 N   0  0  0  0  0  0  0  0  0  0  0  0
    0.5752    1.9503   -0.0784 H   0  0  0  0  0  0  0  0  0  0  0  0
    1.3439   -0.2415   -1.6464 H   0  0  0  0  0  0  0  0  0  0  0  0
    2.5602   -0.1202    0.7954 H   0  0  0  0  0  0  0  0  0  0  0  0
    1.1656   -2.0247    1.8959 H   0  0  0  0  0  0  0  0  0  0  0  0
   -0.3991   -2.5838   -0.2786 H   0  0  0  0  0  0  0  0  0  0  0  0
   -1.2993   -1.7799    1.0000 H   0  0  0  0  0  0  0  0  0  0  0  0
   -0.9840   -0.6717   -1.5825 H   0  0  0  0  0  0  0  0  0  0  0  0
  1  2  1  0  0  0  0
  1  9  1  0  0  0  0
  2  6  1  1  0  0  0
  2  3  1  0  0  0  0
  3 11  1  0  0  0  0
  3  4  2  0  0  0  0
  4 12  1  0  0  0  0
  5 14  1  0  0  0  0
  5  4  1  0  0  0  0
  6 15  1  6  0  0  0
  6  7  1  0  0  0  0
  6  5  1  0  0  0  0
  7  8  3  0  0  0  0
 10  2  1  0  0  0  0
 13  5  1  0  0  0  0
M  END
