17
title
C -0.82005227 2.0061874 -0.77526504
C -0.8019934 0.46974674 -0.7590068
C -0.061163314 -0.12636013 -1.9314799
C 0.98778725 -0.8458259 -1.545907
C 1.1154352 -0.8803408 -0.04893982
N -0.044394083 -0.09129854 0.37321967
C -0.4501059 -0.06839519 1.6647099
O 0.14249492 -0.5978252 2.5844588
H 0.19931406 2.4014802 -0.80366373
H -1.3594517 2.369263 -1.6563674
H -1.3218426 2.4018538 0.11267186
H -1.8420165 0.11065004 -0.730472
H -0.37376016 0.0600091 -2.9514043
H 1.6862583 -1.357648 -2.195732
H 1.0660663 -1.892963 0.3719241
H 2.0563436 -0.4410775 0.31085867
H -1.3971294 0.49245417 1.799698
