title
 OpenBabel02282110003D

 16 16  0  0  1  0  0  0  0  0999 V2000
    1.1624    1.4321   -0.5515 O   0  0  0  0  0  0  0  0  0  0  0  0
    1.1682    0.0144   -0.3704 C   0  0  1  0  0  0  0  0  0  0  0  0
    1.5785   -0.3788    1.0262 C   0  0  0  0  0  0  0  0  0  0  0  0
    0.5740   -0.9155    1.7178 C   0  0  0  0  0  0  0  0  0  0  0  0
   -0.6890   -1.0568    0.9079 C   0  0  0  0  0  0  0  0  0  0  0  0
   -0.2544   -0.6440   -0.5157 C   0  0  1  0  0  0  0  0  0  0  0  0
   -1.1993    0.3025   -1.2270 C   0  0  0  0  0  0  0  0  0  0  0  0
   -2.1828    0.7921   -0.7314 O   0  0  0  0  0  0  0  0  0  0  0  0
    0.7439    1.8214    0.2255 H   0  0  0  0  0  0  0  0  0  0  0  0
    1.8532   -0.3486   -1.1423 H   0  0  0  0  0  0  0  0  0  0  0  0
    2.5705   -0.1595    1.4047 H   0  0  0  0  0  0  0  0  0  0  0  0
    0.6286   -1.2210    2.7574 H   0  0  0  0  0  0  0  0  0  0  0  0
   -1.0830   -2.0787    0.9329 H   0  0  0  0  0  0  0  0  0  0  0  0
   -1.4919   -0.4083    1.2788 H   0  0  0  0  0  0  0  0  0  0  0  0
   -0.1489   -1.5287   -1.1557 H   0  0  0  0  0  0  0  0  0  0  0  0
   -0.9144    0.5319   -2.2759 H   0  0  0  0  0  0  0  0  0  0  0  0
  1  2  1  0  0  0  0
  1  9  1  0  0  0  0
  2  6  1  6  0  0  0
  2  3  1  0  0  0  0
  3 11  1  0  0  0  0
  3  4  2  0  0  0  0
  4 12  1  0  0  0  0
  5 13  1  0  0  0  0
  5 14  1  0  0  0  0
  5  4  1  0  0  0  0
  6 15  1  6  0  0  0
  6  5  1  0  0  0  0
  7  8  2  0  0  0  0
  7  6  1  0  0  0  0
 10  2  1  0  0  0  0
 16  7  1  0  0  0  0
M  END
