title
 OpenBabel02282110003D

 17 17  0  0  1  0  0  0  0  0999 V2000
   -0.6148    1.9879   -0.8042 C   0  0  0  0  0  0  0  0  0  0  0  0
   -0.5222    0.5502   -0.6585 N   0  0  0  0  0  0  0  0  0  0  0  0
   -1.7868   -0.1868   -0.7409 C   0  0  0  0  0  0  0  0  0  0  0  0
   -1.5435   -1.3816    0.1374 C   0  0  0  0  0  0  0  0  0  0  0  0
   -0.4141   -1.2423    0.8248 C   0  0  0  0  0  0  0  0  0  0  0  0
    0.2617    0.0650    0.4750 C   0  0  1  0  0  0  0  0  0  0  0  0
    1.7168   -0.1672    0.0619 C   0  0  0  0  0  0  0  0  0  0  0  0
    2.6682    0.0140    0.7746 O   0  0  0  0  0  0  0  0  0  0  0  0
    0.3862    2.4305   -0.8096 H   0  0  0  0  0  0  0  0  0  0  0  0
   -1.0899    2.2349   -1.7591 H   0  0  0  0  0  0  0  0  0  0  0  0
   -1.1971    2.4736    0.0011 H   0  0  0  0  0  0  0  0  0  0  0  0
   -2.6470    0.4017   -0.3664 H   0  0  0  0  0  0  0  0  0  0  0  0
   -2.0237   -0.4557   -1.7805 H   0  0  0  0  0  0  0  0  0  0  0  0
   -2.2364   -2.2107    0.2084 H   0  0  0  0  0  0  0  0  0  0  0  0
   -0.0009   -1.9287    1.5524 H   0  0  0  0  0  0  0  0  0  0  0  0
    0.2729    0.7485    1.3431 H   0  0  0  0  0  0  0  0  0  0  0  0
    1.8099   -0.5402   -0.9832 H   0  0  0  0  0  0  0  0  0  0  0  0
  1  2  1  0  0  0  0
  1 11  1  0  0  0  0
  2  6  1  0  0  0  0
  3  2  1  0  0  0  0
  3 12  1  0  0  0  0
  3  4  1  0  0  0  0
  4 14  1  0  0  0  0
  4  5  2  0  0  0  0
  5 15  1  0  0  0  0
  6  5  1  0  0  0  0
  6 16  1  1  0  0  0
  7  6  1  0  0  0  0
  7  8  2  0  0  0  0
  9  1  1  0  0  0  0
 10  1  1  0  0  0  0
 13  3  1  0  0  0  0
 17  7  1  0  0  0  0
M  END
