17
title
C -0.6147702 1.9878833 -0.8042285
N -0.5222024 0.5502045 -0.658544
C -1.7867584 -0.18683183 -0.74088913
C -1.5434897 -1.3815767 0.13737899
C -0.41413233 -1.2422602 0.8248048
C 0.2617287 0.06498874 0.4749652
C 1.7167864 -0.16720748 0.06189448
O 2.6681743 0.01402295 0.77456486
H 0.3862164 2.4304802 -0.8096327
H -1.0898955 2.2349372 -1.7590857
H -1.197117 2.4736402 0.0010637662
H -2.6470382 0.4017248 -0.36638904
H -2.023663 -0.4556651 -1.780547
H -2.2364495 -2.2107491 0.2083664
H -0.00089552946 -1.9287205 1.5524039
H 0.2729324 0.74850637 1.3431056
H 1.8099005 -0.5402277 -0.9831768
