16
title
C -0.4415071 2.0203192 -0.6850842
N -0.4496736 0.5797759 -0.5463202
C -1.756163 -0.07943883 -0.60914475
C -1.5577438 -1.3175055 0.21873823
C -0.41213256 -1.2638098 0.8868887
C 0.29882783 0.04142044 0.5885306
C 1.7298937 -0.12773247 0.26342413
N 2.8549051 -0.24899985 0.029796036
H 0.58989096 2.3827412 -0.73240244
H -0.9343893 2.3017232 -1.6203834
H -0.95499283 2.5437694 0.14353886
H -2.5669904 0.5438652 -0.18427536
H -2.0384026 -0.29605386 -1.6488423
H -2.2850132 -2.1181562 0.26341066
H -0.008033469 -1.9955999 1.572817
H 0.26077843 0.70098245 1.4793767
