title
 OpenBabel02282110003D

 14 14  0  0  1  0  0  0  0  0999 V2000
   -1.2522    1.4549   -0.7079 C   0  0  0  0  0  0  0  0  0  0  0  0
   -0.8737   -0.0128   -0.7412 C   0  0  1  0  0  0  0  0  0  0  0  0
    0.1665   -0.2276   -1.7372 O   0  0  0  0  0  0  0  0  0  0  0  0
    1.1446   -0.9172   -1.1224 C   0  0  0  0  0  0  0  0  0  0  0  0
    1.0539   -1.2115    0.1090 N   0  0  0  0  0  0  0  0  0  0  0  0
   -0.2312   -0.6300    0.5555 C   0  0  1  0  0  0  0  0  0  0  0  0
   -0.0097    0.3395    1.6367 C   0  0  0  0  0  0  0  0  0  0  0  0
    0.1400    1.1096    2.4845 N   0  0  0  0  0  0  0  0  0  0  0  0
   -0.4018    2.0731   -0.4099 H   0  0  0  0  0  0  0  0  0  0  0  0
   -1.5930    1.7733   -1.6962 H   0  0  0  0  0  0  0  0  0  0  0  0
   -2.0622    1.6199    0.0081 H   0  0  0  0  0  0  0  0  0  0  0  0
   -1.7276   -0.6237   -1.0488 H   0  0  0  0  0  0  0  0  0  0  0  0
    1.9810   -1.1823   -1.7596 H   0  0  0  0  0  0  0  0  0  0  0  0
   -0.8656   -1.4256    0.9597 H   0  0  0  0  0  0  0  0  0  0  0  0
  1  9  1  0  0  0  0
  1 11  1  0  0  0  0
  2  1  1  0  0  0  0
  2  6  1  1  0  0  0
  3  4  1  0  0  0  0
  3  2  1  0  0  0  0
  4  5  2  0  0  0  0
  5  6  1  0  0  0  0
  6 14  1  1  0  0  0
  6  7  1  0  0  0  0
  7  8  3  0  0  0  0
 10  1  1  0  0  0  0
 12  2  1  0  0  0  0
 13  4  1  0  0  0  0
M  END
