15
title
C -0.8063548 1.6055074 -0.7624623
C -0.7995581 0.0878521 -0.6884426
O 0.0061599873 -0.4331902 -1.7916824
C 1.0067877 -1.1378834 -1.2297474
N 1.0556974 -1.2881643 0.028590081
C -0.123524524 -0.58436716 0.5566005
C 0.26792184 0.3276215 1.7142751
O -0.46158522 1.1521066 2.2014444
H 0.20382527 2.0107129 -0.65115917
H -1.201291 1.9232208 -1.7308904
H -1.4281522 2.0185084 0.03382176
H -1.8101974 -0.30047023 -0.83541834
H 1.7269008 -1.5384091 -1.9350575
H -0.8064806 -1.3238131 0.9999419
H 1.2925065 0.1401335 2.1004882
