15
title
C -1.2716665 1.4424291 -0.73430866
C -0.8571993 -0.0153855765 -0.75262576
O 0.21314116 -0.20267887 -1.722231
C 1.1721708 -0.90739924 -1.0884556
N 1.0482821 -1.21531 0.1346288
C -0.24366657 -0.6199068 0.56621605
C -0.042898342 0.3355149 1.6526417
C 0.10958512 1.1175358 2.552002
H -0.44480827 2.0780566 -0.4096175
H -1.5903233 1.7532647 -1.7328644
H -2.1056178 1.5879451 -0.042086937
H -1.6889902 -0.64374715 -1.087648
H 2.0225089 -1.1676066 -1.7097692
H -0.88691145 -1.4262289 0.93598694
H 0.25290543 1.8036 3.350008
