title
 OpenBabel02282110003D

 18 18  0  0  1  0  0  0  0  0999 V2000
   -1.6202    1.2649   -0.7575 C   0  0  0  0  0  0  0  0  0  0  0  0
   -0.8206   -0.0360   -0.8451 C   0  0  1  0  0  0  0  0  0  0  0  0
    0.3566   -0.0211   -1.8572 C   0  0  0  0  0  0  0  0  0  0  0  0
    1.3389   -0.9947   -1.2538 C   0  0  0  0  0  0  0  0  0  0  0  0
    1.0311   -1.3047    0.0055 C   0  0  0  0  0  0  0  0  0  0  0  0
   -0.1909   -0.5511    0.4950 C   0  0  1  0  0  0  0  0  0  0  0  0
    0.2540    0.5711    1.4211 C   0  0  0  0  0  0  0  0  0  0  0  0
   -0.1200    0.7157    2.5564 O   0  0  0  0  0  0  0  0  0  0  0  0
   -0.9896    2.1166   -0.4811 H   0  0  0  0  0  0  0  0  0  0  0  0
   -2.0802    1.4987   -1.7231 H   0  0  0  0  0  0  0  0  0  0  0  0
   -2.4221    1.1910   -0.0159 H   0  0  0  0  0  0  0  0  0  0  0  0
   -1.5022   -0.8339   -1.1619 H   0  0  0  0  0  0  0  0  0  0  0  0
    0.0356   -0.3039   -2.8664 H   0  0  0  0  0  0  0  0  0  0  0  0
    0.8018    0.9804   -1.9492 H   0  0  0  0  0  0  0  0  0  0  0  0
    2.1973   -1.3763   -1.7958 H   0  0  0  0  0  0  0  0  0  0  0  0
    1.5999   -1.9625    0.6528 H   0  0  0  0  0  0  0  0  0  0  0  0
   -0.8914   -1.1687    1.0655 H   0  0  0  0  0  0  0  0  0  0  0  0
    0.9985    1.2668    0.9683 H   0  0  0  0  0  0  0  0  0  0  0  0
  1  9  1  0  0  0  0
  1 11  1  0  0  0  0
  2  1  1  0  0  0  0
  2  6  1  1  0  0  0
  3  4  1  0  0  0  0
  3  2  1  0  0  0  0
  4  5  2  0  0  0  0
  5  6  1  0  0  0  0
  5 16  1  0  0  0  0
  6 17  1  1  0  0  0
  6  7  1  0  0  0  0
  7  8  2  0  0  0  0
 10  1  1  0  0  0  0
 12  2  1  0  0  0  0
 13  3  1  0  0  0  0
 14  3  1  0  0  0  0
 15  4  1  0  0  0  0
 18  7  1  0  0  0  0
M  END
