title
 OpenBabel02282110003D

 17 17  0  0  1  0  0  0  0  0999 V2000
   -0.8409    1.7690   -0.7398 C   0  0  0  0  0  0  0  0  0  0  0  0
   -0.6011    0.2566   -0.7230 C   0  0  1  0  0  0  0  0  0  0  0  0
    0.2750   -0.2471   -1.9088 C   0  0  0  0  0  0  0  0  0  0  0  0
    1.1222   -1.2920   -1.3052 N   0  0  0  0  0  0  0  0  0  0  0  0
    1.1229   -1.1291    0.0502 C   0  0  0  0  0  0  0  0  0  0  0  0
    0.1686   -0.2686    0.4844 C   0  0  0  0  0  0  0  0  0  0  0  0
   -0.1268   -0.0105    1.8683 C   0  0  0  0  0  0  0  0  0  0  0  0
   -1.0208    0.7089    2.2832 O   0  0  0  0  0  0  0  0  0  0  0  0
    0.1092    2.3140   -0.7152 H   0  0  0  0  0  0  0  0  0  0  0  0
   -1.3819    2.0695   -1.6440 H   0  0  0  0  0  0  0  0  0  0  0  0
   -1.4237    2.0621    0.1349 H   0  0  0  0  0  0  0  0  0  0  0  0
   -1.5786   -0.2439   -0.7584 H   0  0  0  0  0  0  0  0  0  0  0  0
   -0.3113   -0.6519   -2.7378 H   0  0  0  0  0  0  0  0  0  0  0  0
    0.8977    0.5714   -2.2981 H   0  0  0  0  0  0  0  0  0  0  0  0
    1.9579   -1.5958   -1.7799 H   0  0  0  0  0  0  0  0  0  0  0  0
    1.8152   -1.6995    0.6591 H   0  0  0  0  0  0  0  0  0  0  0  0
    0.5510   -0.5365    2.5818 H   0  0  0  0  0  0  0  0  0  0  0  0
  1  2  1  0  0  0  0
  1  9  1  0  0  0  0
  1 11  1  0  0  0  0
  2 12  1  6  0  0  0
  2  6  1  0  0  0  0
  3  4  1  0  0  0  0
  3  2  1  0  0  0  0
  4  5  1  0  0  0  0
  5  6  2  0  0  0  0
  5 16  1  0  0  0  0
  6  7  1  0  0  0  0
  7  8  2  0  0  0  0
  7 17  1  0  0  0  0
 10  1  1  0  0  0  0
 13  3  1  0  0  0  0
 14  3  1  0  0  0  0
 15  4  1  0  0  0  0
M  END
