16
title
O 1.0898508 1.4298159 -0.33561978
C 1.1731436 0.011357649 -0.31988993
C 1.637472 -0.52462226 1.0560906
C 0.33424413 -0.8262944 1.7599453
C -0.68939954 -0.8814393 0.90789735
C -0.23845284 -0.63393337 -0.5121734
C -1.1438155 0.24308176 -1.35251
O -2.179545 0.72079134 -0.96485025
H 0.50142187 1.6965321 0.3816043
H 1.8616831 -0.24124064 -1.1288203
H 2.2485092 -1.4315281 0.9491502
H 2.2604 0.22066663 1.5623612
H 0.2691239 -1.0006975 2.8280299
H -1.7217991 -1.0878565 1.1586039
H -0.12869684 -1.5840197 -1.0619549
H -0.7827969 0.4156102 -2.3903952
