16
title
O -0.58915657 1.7741027 0.6428296
C -0.2528108 0.41801292 0.9136644
C -1.4721404 -0.5049661 1.1685402
C -1.6709918 -1.3312935 -0.12624566
C -0.3656243 -1.1552632 -0.85419196
C 0.43381646 -0.24064416 -0.2814557
C 1.7145281 0.16891347 -0.7228494
C 2.8124676 0.5352505 -1.0580842
H -1.01355 1.8038974 -0.221952
H 0.40384766 0.47381234 1.7863207
H -1.2512411 -1.1768104 2.0031114
H -2.344087 0.09056885 1.4481747
H -1.8846942 -2.3856597 0.08345694
H -2.5112753 -0.9741229 -0.73806554
H -0.11468173 -1.7055335 -1.7542009
H 3.7769816 0.8572037 -1.3633885
