title
 OpenBabel02282110003D

 18 18  0  0  1  0  0  0  0  0999 V2000
   -0.2013    1.8226   -0.8607 C   0  0  0  0  0  0  0  0  0  0  0  0
   -0.6020    0.3476   -0.6854 C   0  0  1  0  0  0  0  0  0  0  0  0
   -0.1703   -0.5656   -1.8709 C   0  0  0  0  0  0  0  0  0  0  0  0
    1.0958   -1.3255   -1.3908 C   0  0  0  0  0  0  0  0  0  0  0  0
    1.0296   -1.1884    0.1049 C   0  0  0  0  0  0  0  0  0  0  0  0
    0.1070   -0.2956    0.4926 C   0  0  0  0  0  0  0  0  0  0  0  0
   -0.1602    0.0421    1.8919 C   0  0  0  0  0  0  0  0  0  0  0  0
   -0.9706    0.8669    2.2576 O   0  0  0  0  0  0  0  0  0  0  0  0
    0.8771    1.9219   -1.0287 H   0  0  0  0  0  0  0  0  0  0  0  0
   -0.7186    2.2620   -1.7198 H   0  0  0  0  0  0  0  0  0  0  0  0
   -0.4634    2.3991    0.0298 H   0  0  0  0  0  0  0  0  0  0  0  0
   -1.6868    0.3121   -0.5382 H   0  0  0  0  0  0  0  0  0  0  0  0
   -0.9630   -1.2873   -2.0893 H   0  0  0  0  0  0  0  0  0  0  0  0
    0.0062    0.0053   -2.7863 H   0  0  0  0  0  0  0  0  0  0  0  0
    1.1138   -2.3720   -1.7156 H   0  0  0  0  0  0  0  0  0  0  0  0
    2.0254   -0.8782   -1.7708 H   0  0  0  0  0  0  0  0  0  0  0  0
    1.6779   -1.7363    0.7826 H   0  0  0  0  0  0  0  0  0  0  0  0
    0.4455   -0.5316    2.6298 H   0  0  0  0  0  0  0  0  0  0  0  0
  1  2  1  0  0  0  0
  1 11  1  0  0  0  0
  2 12  1  1  0  0  0
  2  6  1  0  0  0  0
  3  4  1  0  0  0  0
  3  2  1  0  0  0  0
  4  5  1  0  0  0  0
  5  6  2  0  0  0  0
  5 17  1  0  0  0  0
  6  7  1  0  0  0  0
  7  8  2  0  0  0  0
  7 18  1  0  0  0  0
  9  1  1  0  0  0  0
 10  1  1  0  0  0  0
 13  3  1  0  0  0  0
 14  3  1  0  0  0  0
 15  4  1  0  0  0  0
 16  4  1  0  0  0  0
M  END
