title
 OpenBabel02282110003D

 15 15  0  0  1  0  0  0  0  0999 V2000
   -0.2248    1.5776    1.0090 O   0  0  0  0  0  0  0  0  0  0  0  0
   -0.2810    0.1707    0.8751 C   0  0  1  0  0  0  0  0  0  0  0  0
   -1.7564   -0.2840    0.7155 C   0  0  0  0  0  0  0  0  0  0  0  0
   -1.7159   -1.2288   -0.4165 N   0  0  0  0  0  0  0  0  0  0  0  0
   -0.5264   -1.1181   -1.0663 C   0  0  0  0  0  0  0  0  0  0  0  0
    0.3699   -0.3510   -0.3957 C   0  0  0  0  0  0  0  0  0  0  0  0
    1.6995    0.0099   -0.7804 C   0  0  0  0  0  0  0  0  0  0  0  0
    2.3809    0.8211   -0.1620 O   0  0  0  0  0  0  0  0  0  0  0  0
    0.7098    1.8023    0.8883 H   0  0  0  0  0  0  0  0  0  0  0  0
    0.1750   -0.3068    1.7569 H   0  0  0  0  0  0  0  0  0  0  0  0
   -2.1593   -0.7690    1.6073 H   0  0  0  0  0  0  0  0  0  0  0  0
   -2.3678    0.5944    0.4784 H   0  0  0  0  0  0  0  0  0  0  0  0
   -2.5575   -1.4733   -0.9128 H   0  0  0  0  0  0  0  0  0  0  0  0
   -0.3813   -1.6344   -2.0087 H   0  0  0  0  0  0  0  0  0  0  0  0
    2.0948   -0.4726   -1.7010 H   0  0  0  0  0  0  0  0  0  0  0  0
  2  1  1  0  0  0  0
  2 10  1  1  0  0  0
  3  2  1  0  0  0  0
  3 11  1  0  0  0  0
  4  3  1  0  0  0  0
  5  4  1  0  0  0  0
  5  6  2  0  0  0  0
  6  2  1  0  0  0  0
  7  6  1  0  0  0  0
  7  8  2  0  0  0  0
  9  1  1  0  0  0  0
 12  3  1  0  0  0  0
 13  4  1  0  0  0  0
 14  5  1  0  0  0  0
 15  7  1  0  0  0  0
M  END
