title
 OpenBabel02282110003D

 16 16  0  0  1  0  0  0  0  0999 V2000
   -0.3582    1.6236    0.9099 O   0  0  0  0  0  0  0  0  0  0  0  0
   -0.2851    0.2125    0.8644 C   0  0  1  0  0  0  0  0  0  0  0  0
   -1.7026   -0.3962    0.8155 C   0  0  0  0  0  0  0  0  0  0  0  0
   -1.6067   -1.6111   -0.1436 C   0  0  0  0  0  0  0  0  0  0  0  0
   -0.3629   -1.3242   -0.9414 C   0  0  0  0  0  0  0  0  0  0  0  0
    0.3559   -0.3290   -0.4046 C   0  0  0  0  0  0  0  0  0  0  0  0
    1.6151    0.1984   -0.9184 C   0  0  0  0  0  0  0  0  0  0  0  0
    2.2071    1.1304   -0.4055 O   0  0  0  0  0  0  0  0  0  0  0  0
    0.5455    1.9410    0.7772 H   0  0  0  0  0  0  0  0  0  0  0  0
    0.2758   -0.1655    1.7366 H   0  0  0  0  0  0  0  0  0  0  0  0
   -2.0890   -0.6589    1.8019 H   0  0  0  0  0  0  0  0  0  0  0  0
   -2.3589    0.3680    0.3890 H   0  0  0  0  0  0  0  0  0  0  0  0
   -1.4895   -2.5582    0.4020 H   0  0  0  0  0  0  0  0  0  0  0  0
   -2.4923   -1.7362   -0.7762 H   0  0  0  0  0  0  0  0  0  0  0  0
   -0.0848   -1.8821   -1.8311 H   0  0  0  0  0  0  0  0  0  0  0  0
    2.0162   -0.2973   -1.8283 H   0  0  0  0  0  0  0  0  0  0  0  0
  2  1  1  0  0  0  0
  2 10  1  1  0  0  0
  3  2  1  0  0  0  0
  3 11  1  0  0  0  0
  4 13  1  0  0  0  0
  4  3  1  0  0  0  0
  5  6  2  0  0  0  0
  5  4  1  0  0  0  0
  6  2  1  0  0  0  0
  7  8  2  0  0  0  0
  7  6  1  0  0  0  0
  9  1  1  0  0  0  0
 12  3  1  0  0  0  0
 14  4  1  0  0  0  0
 15  5  1  0  0  0  0
 16  7  1  0  0  0  0
M  END
