16
title
O -0.35820374 1.6236043 0.90993696
C -0.28513166 0.21246144 0.864401
C -1.7025882 -0.39624235 0.8154509
C -1.6067067 -1.6110744 -0.1436467
C -0.36288667 -1.3242387 -0.9414042
C 0.35589635 -0.32903567 -0.40458274
C 1.6150835 0.19843973 -0.9184073
O 2.2070816 1.1303909 -0.40554118
H 0.5455214 1.9410397 0.77715373
H 0.27581936 -0.16547681 1.7365977
H -2.089011 -0.65894693 1.8019255
H -2.3589432 0.36796683 0.3890457
H -1.4894633 -2.5582397 0.40200046
H -2.4922805 -1.7361779 -0.7762338
H -0.084756576 -1.8820786 -1.8311177
H 2.0161867 -0.29731485 -1.8282901
