20
title
C -1.4284858 1.7111691 -0.4686205
C -1.0801786 0.22668035 -0.4212873
C -0.19187748 -0.26638645 -1.585001
C 0.53263783 -1.5406377 -1.0666682
C 0.12885523 -1.6796668 0.4217185
C -0.31418997 -0.25616258 0.8459241
C 0.83010435 0.58979374 1.1745995
C 1.7834702 1.2749528 1.437864
H -0.5240882 2.3247776 -0.41365752
H -1.9507103 1.957256 -1.3992293
H -2.080227 1.9979539 0.3637307
H -2.0135956 -0.352385 -0.4334267
H -0.7826487 -0.45302257 -2.4863813
H 0.5384104 0.5088471 -1.839722
H 0.2591133 -2.4339113 -1.6346976
H 1.615931 -1.4274311 -1.159583
H -0.73166746 -2.3498516 0.52415985
H 0.9300847 -2.0745714 1.049925
H -0.9831548 -0.290725 1.713819
H 2.6204765 1.8811904 1.6812603
