18
title
C -1.3441811 1.7451575 -0.5697007
C -1.0425674 0.25181922 -0.50676864
C -0.0881075 -0.280347 -1.5901535
C 0.44150254 -1.5915711 -0.9789262
O 0.13255212 -1.5571436 0.42277378
C -0.33063337 -0.25623667 0.77163786
C 0.7721231 0.60960716 1.2122511
C 1.6826266 1.3081535 1.5717127
H -0.4261947 2.3348105 -0.49430025
H -1.8379667 1.9989928 -1.5130233
H -2.0085802 2.051846 0.2450468
H -1.982156 -0.3114484 -0.56194377
H -0.58548653 -0.43571216 -2.5506291
H 0.7275474 0.4329943 -1.746662
H -0.048787978 -2.4765055 -1.4005289
H 1.5234398 -1.7038974 -1.1183308
H -1.0350347 -0.38225943 1.6015685
H 2.487849 1.9178602 1.9003091
