16
title
C -0.5652963 1.9225131 -0.42040563
N -0.65571994 0.55915713 0.065483876
C -1.8925376 -0.19885473 -0.15150367
C -1.4322429 -1.6420795 0.17361249
N 0.038676273 -1.6116325 0.12980214
C 0.36551017 -0.36616385 0.072495915
C 1.8208561 -0.04162078 0.09084881
O 2.3042433 1.0646714 0.10449887
H 0.4289692 2.315785 -0.21881205
H -0.7638904 1.9842887 -1.5025023
H -1.3069664 2.543343 0.093057044
H -2.698876 0.1614833 0.49470988
H -2.2244608 -0.09236686 -1.1969521
H -1.7428434 -1.9475199 1.1813301
H -1.8236816 -2.388562 -0.5227782
H 2.433941 -0.96295595 0.09928938
