title
 OpenBabel02282110003D

 19 19  0  0  1  0  0  0  0  0999 V2000
   -1.4073    1.7300   -0.4440 C   0  0  0  0  0  0  0  0  0  0  0  0
   -1.0826    0.2397   -0.4038 C   0  0  1  0  0  0  0  0  0  0  0  0
   -0.2212   -0.2711   -1.5770 C   0  0  0  0  0  0  0  0  0  0  0  0
    0.4286   -1.5949   -1.0898 C   0  0  0  0  0  0  0  0  0  0  0  0
    0.1316   -1.6844    0.4311 C   0  0  0  0  0  0  0  0  0  0  0  0
   -0.2987   -0.2541    0.8459 C   0  0  1  0  0  0  0  0  0  0  0  0
    0.8631    0.5915    1.1322 C   0  0  0  0  0  0  0  0  0  0  0  0
    1.7847    1.2559    1.3488 N   0  0  0  0  0  0  0  0  0  0  0  0
   -0.4936    2.3323   -0.4188 H   0  0  0  0  0  0  0  0  0  0  0  0
   -1.9507    1.9794   -1.3608 H   0  0  0  0  0  0  0  0  0  0  0  0
   -2.0318    2.0292    0.4043 H   0  0  0  0  0  0  0  0  0  0  0  0
   -2.0231   -0.3272   -0.3913 H   0  0  0  0  0  0  0  0  0  0  0  0
   -0.8152   -0.3997   -2.4857 H   0  0  0  0  0  0  0  0  0  0  0  0
    0.5524    0.4704   -1.8050 H   0  0  0  0  0  0  0  0  0  0  0  0
    0.0237   -2.4653   -1.6124 H   0  0  0  0  0  0  0  0  0  0  0  0
    1.5052   -1.5886   -1.2770 H   0  0  0  0  0  0  0  0  0  0  0  0
   -0.7125   -2.3547    0.6203 H   0  0  0  0  0  0  0  0  0  0  0  0
    0.9776   -2.0530    1.0145 H   0  0  0  0  0  0  0  0  0  0  0  0
   -0.9294   -0.2607    1.7408 H   0  0  0  0  0  0  0  0  0  0  0  0
  1  9  1  0  0  0  0
  1  2  1  0  0  0  0
  1 11  1  0  0  0  0
  2 12  1  0  0  0  0
  2  6  1  1  0  0  0
  3  4  1  0  0  0  0
  3  2  1  0  0  0  0
  4  5  1  0  0  0  0
  5 17  1  0  0  0  0
  5  6  1  0  0  0  0
  5 18  1  0  0  0  0
  6  7  1  0  0  0  0
  6 19  1  1  0  0  0
  7  8  3  0  0  0  0
 10  1  1  0  0  0  0
 13  3  1  0  0  0  0
 14  3  1  0  0  0  0
 15  4  1  0  0  0  0
 16  4  1  0  0  0  0
M  END
