16
title
C -0.42725283 1.7799922 -0.87023747
C -0.5984014 0.27896366 -0.6537816
O -0.08819968 -0.4472849 -1.7861516
C 0.86733234 -1.4154376 -1.3805326
C 1.0038118 -1.2412655 0.09974392
C 0.17008291 -0.28516203 0.52099836
C -0.005159505 0.12807435 1.9148035
O -0.7858532 0.9777677 2.2845771
H 0.63260937 2.037986 -0.95753896
H -0.93426543 2.0809245 -1.7909083
H -0.8593965 2.326763 -0.028651994
H -1.6712449 0.0562536 -0.5459787
H 0.5258322 -2.4322457 -1.6378093
H 1.8203074 -1.2574971 -1.9100481
H 1.676591 -1.8254951 0.7169814
H 0.64279974 -0.41215774 2.6398864
