title
 OpenBabel02282110003D

 17 17  0  0  1  0  0  0  0  0999 V2000
   -1.2192    1.7080   -0.5370 C   0  0  0  0  0  0  0  0  0  0  0  0
   -1.0015    0.2111   -0.4341 C   0  0  1  0  0  0  0  0  0  0  0  0
   -0.1958   -0.2310   -1.5096 O   0  0  0  0  0  0  0  0  0  0  0  0
    0.1819   -1.5674   -1.2224 C   0  0  0  0  0  0  0  0  0  0  0  0
    0.3606   -1.6544    0.3168 C   0  0  0  0  0  0  0  0  0  0  0  0
   -0.2566   -0.3183    0.8316 C   0  0  1  0  0  0  0  0  0  0  0  0
    0.7711    0.6076    1.3035 C   0  0  0  0  0  0  0  0  0  0  0  0
    1.5834    1.3378    1.6824 N   0  0  0  0  0  0  0  0  0  0  0  0
   -0.2659    2.2410   -0.5060 H   0  0  0  0  0  0  0  0  0  0  0  0
   -1.7223    1.9436   -1.4781 H   0  0  0  0  0  0  0  0  0  0  0  0
   -1.8450    2.0625    0.2874 H   0  0  0  0  0  0  0  0  0  0  0  0
   -1.9753   -0.3100   -0.4591 H   0  0  0  0  0  0  0  0  0  0  0  0
   -0.5994   -2.2665   -1.5575 H   0  0  0  0  0  0  0  0  0  0  0  0
    1.0975   -1.7833   -1.7771 H   0  0  0  0  0  0  0  0  0  0  0  0
   -0.1694   -2.5119    0.7360 H   0  0  0  0  0  0  0  0  0  0  0  0
    1.4094   -1.7377    0.6035 H   0  0  0  0  0  0  0  0  0  0  0  0
   -0.9593   -0.4858    1.6526 H   0  0  0  0  0  0  0  0  0  0  0  0
  1  9  1  0  0  0  0
  1  2  1  0  0  0  0
  1 11  1  0  0  0  0
  2  6  1  1  0  0  0
  3  4  1  0  0  0  0
  3  2  1  0  0  0  0
  4  5  1  0  0  0  0
  5 16  1  0  0  0  0
  5 15  1  0  0  0  0
  5  6  1  0  0  0  0
  6  7  1  0  0  0  0
  6 17  1  1  0  0  0
  7  8  3  0  0  0  0
 10  1  1  0  0  0  0
 12  2  1  0  0  0  0
 13  4  1  0  0  0  0
 14  4  1  0  0  0  0
M  END
