title
 OpenBabel02282110003D

 17 17  0  0  1  0  0  0  0  0999 V2000
    0.0451    1.6102    1.3814 N   0  0  0  0  0  0  0  0  0  0  0  0
    0.0682    0.1901    1.1080 C   0  0  1  0  0  0  0  0  0  0  0  0
   -1.3290   -0.4314    0.9814 C   0  0  0  0  0  0  0  0  0  0  0  0
   -1.0427   -1.7909    0.3488 C   0  0  0  0  0  0  0  0  0  0  0  0
   -0.0010   -1.4861   -0.6434 N   0  0  0  0  0  0  0  0  0  0  0  0
    0.7780   -0.3247   -0.2115 C   0  0  1  0  0  0  0  0  0  0  0  0
    0.7870    0.7239   -1.2499 C   0  0  0  0  0  0  0  0  0  0  0  0
    0.7884    1.5712   -2.0367 N   0  0  0  0  0  0  0  0  0  0  0  0
    0.9828    1.9693    1.5311 H   0  0  0  0  0  0  0  0  0  0  0  0
   -0.3361    2.1214    0.5895 H   0  0  0  0  0  0  0  0  0  0  0  0
    0.5908   -0.2970    1.9392 H   0  0  0  0  0  0  0  0  0  0  0  0
   -1.8361   -0.4987    1.9453 H   0  0  0  0  0  0  0  0  0  0  0  0
   -1.9451    0.1802    0.3120 H   0  0  0  0  0  0  0  0  0  0  0  0
   -0.7067   -2.5023    1.1214 H   0  0  0  0  0  0  0  0  0  0  0  0
   -1.9188   -2.2265   -0.1423 H   0  0  0  0  0  0  0  0  0  0  0  0
    0.5723   -2.2785   -0.8942 H   0  0  0  0  0  0  0  0  0  0  0  0
    1.8270   -0.5670    0.0044 H   0  0  0  0  0  0  0  0  0  0  0  0
  1  9  1  0  0  0  0
  2  6  1  6  0  0  0
  2  1  1  0  0  0  0
  2 11  1  0  0  0  0
  3  2  1  0  0  0  0
  3 12  1  0  0  0  0
  4  3  1  0  0  0  0
  4 14  1  0  0  0  0
  5  6  1  0  0  0  0
  5  4  1  0  0  0  0
  6 17  1  1  0  0  0
  7  6  1  0  0  0  0
  8  7  3  0  0  0  0
 10  1  1  0  0  0  0
 13  3  1  0  0  0  0
 15  4  1  0  0  0  0
 16  5  1  0  0  0  0
M  END
