16
title
N 0.1280765 1.6434424 1.4419103
C 0.13352332 0.22890876 1.1412922
C -1.2708992 -0.35829824 0.9314076
C -1.0028758 -1.6656662 0.17673944
O 0.31140426 -1.5524206 -0.41458088
C 0.83878696 -0.27065188 -0.16256602
C 0.5798282 0.6612398 -1.2839962
N 0.35080293 1.4104948 -2.1342528
H 1.066779 1.9828705 1.625498
H -0.23342615 2.1771693 0.65559477
H 0.6278482 -0.29390743 1.9676971
H -1.7998124 -0.5101628 1.8735509
H -1.8623343 0.33415306 0.32260913
H -0.98557585 -2.5342999 0.8441164
H -1.7349733 -1.855585 -0.61478716
H 1.9232361 -0.3619982 -0.040187072
