title
 OpenBabel02282110003D

 15 15  0  0  1  0  0  0  0  0999 V2000
   -1.1902    1.7295   -0.6093 C   0  0  0  0  0  0  0  0  0  0  0  0
   -1.0060    0.2313   -0.4938 C   0  0  1  0  0  0  0  0  0  0  0  0
   -0.1255   -0.2371   -1.5072 O   0  0  0  0  0  0  0  0  0  0  0  0
    0.2820   -1.5127   -1.1020 C   0  0  0  0  0  0  0  0  0  0  0  0
    0.2680   -1.5353    0.3298 O   0  0  0  0  0  0  0  0  0  0  0  0
   -0.3065   -0.3196    0.7757 C   0  0  1  0  0  0  0  0  0  0  0  0
    0.7322    0.5869    1.3046 C   0  0  0  0  0  0  0  0  0  0  0  0
    1.5334    1.3029    1.7289 N   0  0  0  0  0  0  0  0  0  0  0  0
   -0.2302    2.2452   -0.5349 H   0  0  0  0  0  0  0  0  0  0  0  0
   -1.6470    1.9713   -1.5719 H   0  0  0  0  0  0  0  0  0  0  0  0
   -1.8486    2.0945    0.1844 H   0  0  0  0  0  0  0  0  0  0  0  0
   -1.9764   -0.2855   -0.5712 H   0  0  0  0  0  0  0  0  0  0  0  0
   -0.4064   -2.2951   -1.4596 H   0  0  0  0  0  0  0  0  0  0  0  0
    1.2949   -1.6945   -1.4745 H   0  0  0  0  0  0  0  0  0  0  0  0
   -1.0209   -0.5337    1.5771 H   0  0  0  0  0  0  0  0  0  0  0  0
  1  9  1  0  0  0  0
  1  2  1  0  0  0  0
  1 11  1  0  0  0  0
  2  6  1  1  0  0  0
  3  4  1  0  0  0  0
  3  2  1  0  0  0  0
  4  5  1  0  0  0  0
  5  6  1  0  0  0  0
  6  7  1  0  0  0  0
  6 15  1  1  0  0  0
  7  8  3  0  0  0  0
 10  1  1  0  0  0  0
 12  2  1  0  0  0  0
 13  4  1  0  0  0  0
 14  4  1  0  0  0  0
M  END
