title
 OpenBabel02282110003D

 18 18  0  0  1  0  0  0  0  0999 V2000
    1.3154    0.9384   -1.3796 O   0  0  0  0  0  0  0  0  0  0  0  0
    0.9578   -0.1746   -0.5993 C   0  0  1  0  0  0  0  0  0  0  0  0
    1.3254   -0.0773    0.8972 C   0  0  0  0  0  0  0  0  0  0  0  0
    0.3644   -1.0458    1.6359 C   0  0  0  0  0  0  0  0  0  0  0  0
   -0.6465   -1.5447    0.5669 C   0  0  0  0  0  0  0  0  0  0  0  0
   -0.5653   -0.5139   -0.5821 C   0  0  1  0  0  0  0  0  0  0  0  0
   -1.3453    0.6923   -0.3270 C   0  0  0  0  0  0  0  0  0  0  0  0
   -1.9378    1.7190   -0.1164 C   0  0  0  0  0  0  0  0  0  0  0  0
    0.7462    1.6702   -1.1076 H   0  0  0  0  0  0  0  0  0  0  0  0
    1.4734   -1.0276   -1.0553 H   0  0  0  0  0  0  0  0  0  0  0  0
    2.3814   -0.3018    1.0646 H   0  0  0  0  0  0  0  0  0  0  0  0
    1.1624    0.9549    1.2245 H   0  0  0  0  0  0  0  0  0  0  0  0
    0.8931   -1.8864    2.0926 H   0  0  0  0  0  0  0  0  0  0  0  0
   -0.1559   -0.5263    2.4444 H   0  0  0  0  0  0  0  0  0  0  0  0
   -0.3359   -2.5183    0.1733 H   0  0  0  0  0  0  0  0  0  0  0  0
   -1.6599   -1.6596    0.9564 H   0  0  0  0  0  0  0  0  0  0  0  0
   -0.8775   -0.9433   -1.5398 H   0  0  0  0  0  0  0  0  0  0  0  0
   -2.4937    2.6053    0.0669 H   0  0  0  0  0  0  0  0  0  0  0  0
  1  9  1  0  0  0  0
  1  2  1  0  0  0  0
  2  6  1  6  0  0  0
  2  3  1  0  0  0  0
  3 11  1  0  0  0  0
  3 12  1  0  0  0  0
  3  4  1  0  0  0  0
  4 13  1  0  0  0  0
  4 14  1  0  0  0  0
  5 16  1  0  0  0  0
  5  4  1  0  0  0  0
  6 17  1  6  0  0  0
  6  7  1  0  0  0  0
  6  5  1  0  0  0  0
  7  8  3  0  0  0  0
  8 18  1  0  0  0  0
 10  2  1  0  0  0  0
 15  5  1  0  0  0  0
M  END
