17
title
C -1.2191732 1.7080206 -0.5369868
C -1.0015023 0.21110909 -0.43405926
O -0.19575407 -0.2309567 -1.5095865
C 0.18185054 -1.5674235 -1.2223502
C 0.36063015 -1.6543899 0.3167883
C -0.25662392 -0.3183339 0.8316111
C 0.77108586 0.6075714 1.3034872
N 1.5834496 1.3377836 1.6823956
H -0.26588476 2.240999 -0.5059502
H -1.7223357 1.9436095 -1.4780566
H -1.8449656 2.0624847 0.28736094
H -1.9753269 -0.30998302 -0.4590569
H -0.5994311 -2.2664607 -1.5575378
H 1.0975225 -1.7832524 -1.7770941
H -0.16935916 -2.5118809 0.73598033
H 1.409378 -1.7377079 0.60354346
H -0.95927113 -0.4857816 1.6526276
