title
 OpenBabel02282110003D

 16 16  0  0  1  0  0  0  0  0999 V2000
   -1.2023    1.7165   -0.6480 C   0  0  0  0  0  0  0  0  0  0  0  0
   -0.9984    0.2233   -0.5047 C   0  0  1  0  0  0  0  0  0  0  0  0
   -0.0994   -0.2437   -1.5043 O   0  0  0  0  0  0  0  0  0  0  0  0
    0.3407   -1.5024   -1.0719 C   0  0  0  0  0  0  0  0  0  0  0  0
    0.2554   -1.5327    0.3498 O   0  0  0  0  0  0  0  0  0  0  0  0
   -0.3114   -0.2957    0.7847 C   0  0  1  0  0  0  0  0  0  0  0  0
    0.7095    0.6010    1.3297 C   0  0  0  0  0  0  0  0  0  0  0  0
    1.5413    1.3331    1.7951 C   0  0  0  0  0  0  0  0  0  0  0  0
   -0.2498    2.2428   -0.5601 H   0  0  0  0  0  0  0  0  0  0  0  0
   -1.6437    1.9395   -1.6228 H   0  0  0  0  0  0  0  0  0  0  0  0
   -1.8799    2.0837    0.1285 H   0  0  0  0  0  0  0  0  0  0  0  0
   -1.9616   -0.3062   -0.5936 H   0  0  0  0  0  0  0  0  0  0  0  0
   -0.2935   -2.3126   -1.4686 H   0  0  0  0  0  0  0  0  0  0  0  0
    1.3769   -1.6399   -1.4021 H   0  0  0  0  0  0  0  0  0  0  0  0
   -1.0511   -0.5221    1.5607 H   0  0  0  0  0  0  0  0  0  0  0  0
    2.2812    1.9744    2.2068 H   0  0  0  0  0  0  0  0  0  0  0  0
  1  9  1  0  0  0  0
  1  2  1  0  0  0  0
  1 11  1  0  0  0  0
  2  6  1  1  0  0  0
  3  4  1  0  0  0  0
  3  2  1  0  0  0  0
  4  5  1  0  0  0  0
  5  6  1  0  0  0  0
  6  7  1  0  0  0  0
  6 15  1  1  0  0  0
  7  8  3  0  0  0  0
  8 16  1  0  0  0  0
 10  1  1  0  0  0  0
 12  2  1  0  0  0  0
 13  4  1  0  0  0  0
 14  4  1  0  0  0  0
M  END
