18
title
C -0.67263865 2.1636198 -0.24364732
N -0.16843373 0.83920187 -0.5967456
C -1.2232897 -0.12353406 -0.94277364
C -1.7252002 -0.720818 0.39300177
C -0.48006198 -0.6682562 1.3126565
C 0.5580147 0.19618048 0.50681937
C 1.6417099 -0.6457867 -0.02909233
N 2.4884734 -1.3212671 -0.43206647
H 0.16853157 2.824083 -0.013423045
H -1.1977265 2.5847952 -1.1052108
H -1.3645905 2.179079 0.617239
H -2.0048978 0.3637742 -1.5296087
H -0.7823135 -0.9115433 -1.5645044
H -2.534586 -0.11288283 0.806942
H -2.1114597 -1.7353151 0.27146968
H -0.70032704 -0.19208847 2.2701375
H -0.07760541 -1.6598637 1.5263952
H 1.0233372 0.95878136 1.13726
