title
 OpenBabel02282110003D

 19 19  0  0  1  0  0  0  0  0999 V2000
   -0.7523    1.9823   -0.7722 C   0  0  0  0  0  0  0  0  0  0  0  0
   -0.8507    0.4524   -0.7165 C   0  0  1  0  0  0  0  0  0  0  0  0
   -0.1965   -0.2460   -1.9268 C   0  0  0  0  0  0  0  0  0  0  0  0
    1.2627   -0.4557   -1.4837 C   0  0  0  0  0  0  0  0  0  0  0  0
    1.1399   -0.7901    0.0102 C   0  0  0  0  0  0  0  0  0  0  0  0
   -0.0994   -0.1181    0.4125 N   0  0  0  0  0  0  0  0  0  0  0  0
   -0.5493   -0.1746    1.6879 C   0  0  0  0  0  0  0  0  0  0  0  0
    0.0439   -0.7032    2.6084 O   0  0  0  0  0  0  0  0  0  0  0  0
    0.2837    2.3087   -0.9078 H   0  0  0  0  0  0  0  0  0  0  0  0
   -1.3485    2.3730   -1.6035 H   0  0  0  0  0  0  0  0  0  0  0  0
   -1.1257    2.4305    0.1533 H   0  0  0  0  0  0  0  0  0  0  0  0
   -1.9061    0.1714   -0.6278 H   0  0  0  0  0  0  0  0  0  0  0  0
   -0.6786   -1.2139   -2.0997 H   0  0  0  0  0  0  0  0  0  0  0  0
   -0.2896    0.3425   -2.8426 H   0  0  0  0  0  0  0  0  0  0  0  0
    1.7687   -1.2444   -2.0446 H   0  0  0  0  0  0  0  0  0  0  0  0
    1.8392    0.4648   -1.6211 H   0  0  0  0  0  0  0  0  0  0  0  0
    1.0515   -1.8694    0.1861 H   0  0  0  0  0  0  0  0  0  0  0  0
    1.9838   -0.4363    0.6085 H   0  0  0  0  0  0  0  0  0  0  0  0
   -1.5351    0.3198    1.8097 H   0  0  0  0  0  0  0  0  0  0  0  0
  1  2  1  0  0  0  0
  1 11  1  0  0  0  0
  2 12  1  1  0  0  0
  2  6  1  0  0  0  0
  3  4  1  0  0  0  0
  3  2  1  0  0  0  0
  4  5  1  0  0  0  0
  5 17  1  0  0  0  0
  5  6  1  0  0  0  0
  5 18  1  0  0  0  0
  6  7  1  0  0  0  0
  7 19  1  0  0  0  0
  7  8  2  0  0  0  0
  9  1  1  0  0  0  0
 10  1  1  0  0  0  0
 13  3  1  0  0  0  0
 14  3  1  0  0  0  0
 15  4  1  0  0  0  0
 16  4  1  0  0  0  0
M  END
