19
title
C -0.7522797 1.9822607 -0.772181
C -0.85065055 0.4524329 -0.71650314
C -0.19650349 -0.24600385 -1.9267846
C 1.2627183 -0.45569494 -1.4837127
C 1.1398677 -0.79012585 0.010233093
N -0.099387676 -0.11805732 0.41246587
C -0.54933965 -0.17457597 1.6879331
O 0.043884188 -0.7031771 2.608375
H 0.28372952 2.3086882 -0.9077884
H -1.3484668 2.3730247 -1.603513
H -1.1256831 2.4304597 0.15334497
H -1.9061085 0.17137237 -0.62780774
H -0.6785652 -1.2138782 -2.0996878
H -0.28956965 0.34253472 -2.8426285
H 1.7687007 -1.2443644 -2.0445876
H 1.8391553 0.46477282 -1.6211256
H 1.0514661 -1.8694271 0.1861283
H 1.9837888 -0.4363484 0.6085059
H -1.5351166 0.3197841 1.8096677
