15
title
O -0.34106663 1.4274238 0.98051625
C -0.04515224 0.058767274 1.149002
C -1.3780277 -0.69192016 1.1682149
C -1.6814167 -0.8133597 -0.32485002
O -0.41150296 -1.0727895 -0.9428547
C 0.6259847 -0.57968473 -0.109977424
C 1.4602981 0.40209278 -0.81944185
N 2.1301708 1.2013538 -1.3177196
H 0.4690234 1.9038273 0.76228994
H 0.5699384 -0.11653927 2.0410883
H -1.2504289 -1.6800404 1.6202748
H -2.1323428 -0.13554226 1.7267532
H -2.343569 -1.644766 -0.5777417
H -2.107592 0.11832437 -0.71589655
H 1.2731732 -1.4155359 0.19053847
