title
 OpenBabel02282110003D

 16 16  0  0  1  0  0  0  0  0999 V2000
    1.0363    1.4610   -0.1900 O   0  0  0  0  0  0  0  0  0  0  0  0
    0.9716    0.1086   -0.5768 C   0  0  1  0  0  0  0  0  0  0  0  0
    1.6530   -0.8007    0.4479 C   0  0  0  0  0  0  0  0  0  0  0  0
    0.6977   -0.8754    1.5000 O   0  0  0  0  0  0  0  0  0  0  0  0
   -0.5665   -1.1024    0.8838 C   0  0  0  0  0  0  0  0  0  0  0  0
   -0.4809   -0.4818   -0.5537 C   0  0  1  0  0  0  0  0  0  0  0  0
   -1.5307    0.4758   -0.8496 C   0  0  0  0  0  0  0  0  0  0  0  0
   -2.4198    1.2521   -1.0768 C   0  0  0  0  0  0  0  0  0  0  0  0
    0.7317    1.5130    0.7241 H   0  0  0  0  0  0  0  0  0  0  0  0
    1.4109    0.0522   -1.5751 H   0  0  0  0  0  0  0  0  0  0  0  0
    1.8670   -1.7976    0.0277 H   0  0  0  0  0  0  0  0  0  0  0  0
    2.5735   -0.3694    0.8462 H   0  0  0  0  0  0  0  0  0  0  0  0
   -0.7742   -2.1796    0.8202 H   0  0  0  0  0  0  0  0  0  0  0  0
   -1.3355   -0.6325    1.4998 H   0  0  0  0  0  0  0  0  0  0  0  0
   -0.5214   -1.2922   -1.2905 H   0  0  0  0  0  0  0  0  0  0  0  0
   -3.1945    1.9472   -1.2865 H   0  0  0  0  0  0  0  0  0  0  0  0
  1  9  1  0  0  0  0
  2  6  1  6  0  0  0
  2  1  1  0  0  0  0
  2  3  1  0  0  0  0
  3 12  1  0  0  0  0
  3  4  1  0  0  0  0
  5 14  1  0  0  0  0
  5  4  1  0  0  0  0
  6 15  1  6  0  0  0
  6  5  1  0  0  0  0
  7  6  1  0  0  0  0
  8  7  3  0  0  0  0
 10  2  1  0  0  0  0
 11  3  1  0  0  0  0
 13  5  1  0  0  0  0
 16  8  1  0  0  0  0
M  END
