title
 OpenBabel02282110003D

 18 18  0  0  1  0  0  0  0  0999 V2000
   -1.7059    1.4583   -0.7297 C   0  0  0  0  0  0  0  0  0  0  0  0
   -1.0360    0.0849   -0.7093 C   0  0  1  0  0  0  0  0  0  0  0  0
    0.2413   -0.0348   -1.5606 C   0  0  0  0  0  0  0  0  0  0  0  0
    0.9511   -1.2589   -0.9596 C   0  0  0  0  0  0  0  0  0  0  0  0
    0.3952   -1.4610    0.3479 O   0  0  0  0  0  0  0  0  0  0  0  0
   -0.5014   -0.4214    0.6587 C   0  0  1  0  0  0  0  0  0  0  0  0
    0.1758    0.6947    1.4485 C   0  0  0  0  0  0  0  0  0  0  0  0
    1.3621    0.8977    1.4485 O   0  0  0  0  0  0  0  0  0  0  0  0
   -1.0104    2.2533   -0.4404 H   0  0  0  0  0  0  0  0  0  0  0  0
   -2.0678    1.6902   -1.7360 H   0  0  0  0  0  0  0  0  0  0  0  0
   -2.5666    1.4986   -0.0537 H   0  0  0  0  0  0  0  0  0  0  0  0
   -1.7576   -0.6681   -1.0485 H   0  0  0  0  0  0  0  0  0  0  0  0
    0.0254   -0.1533   -2.6252 H   0  0  0  0  0  0  0  0  0  0  0  0
    0.8550    0.8635   -1.4391 H   0  0  0  0  0  0  0  0  0  0  0  0
    0.7712   -2.1688   -1.5453 H   0  0  0  0  0  0  0  0  0  0  0  0
    2.0324   -1.1107   -0.8744 H   0  0  0  0  0  0  0  0  0  0  0  0
   -1.3088   -0.8307    1.2811 H   0  0  0  0  0  0  0  0  0  0  0  0
   -0.5224    1.3381    2.0341 H   0  0  0  0  0  0  0  0  0  0  0  0
  1  2  1  0  0  0  0
  1  9  1  0  0  0  0
  1 11  1  0  0  0  0
  2  6  1  1  0  0  0
  3 14  1  0  0  0  0
  3  4  1  0  0  0  0
  3  2  1  0  0  0  0
  4 16  1  0  0  0  0
  4  5  1  0  0  0  0
  5  6  1  0  0  0  0
  6 17  1  1  0  0  0
  6  7  1  0  0  0  0
  7 18  1  0  0  0  0
  8  7  2  0  0  0  0
 10  1  1  0  0  0  0
 12  2  1  0  0  0  0
 13  3  1  0  0  0  0
 15  4  1  0  0  0  0
M  END
