18
title
C -1.4861827 1.4865373 -0.63206977
C -0.9838155 0.04262604 -0.6538973
C 0.059238695 -0.25706732 -1.7583395
O 1.0639277 -1.0931009 -1.1853327
C 0.59464514 -1.5885453 0.057806633
C -0.26929525 -0.45892018 0.63895863
C 0.60554934 0.60055053 1.2740089
O 0.33249143 1.191442 2.288261
H -0.66378754 2.199818 -0.515204
H -2.0054913 1.7276963 -1.565186
H -2.1855695 1.6495695 0.1931764
H -1.8446031 -0.61967474 -0.8000677
H -0.40545365 -0.7563633 -2.6193223
H 0.5482818 0.65483403 -2.121587
H -0.008426226 -2.5020642 -0.06803522
H 1.4694815 -1.8393341 0.66658884
H -0.99043345 -0.7957723 1.3875204
H 1.5555351 0.8035049 0.7282745
