title
 OpenBabel02282110003D

 16 16  0  0  0  0  0  0  0  0999 V2000
   -0.7059    2.3864   -1.2348 C   0  0  0  0  0  0  0  0  0  0  0  0
   -0.7601    0.9363   -1.2178 N   0  0  0  0  0  0  0  0  0  0  0  0
   -0.1410    0.3472   -0.2743 C   0  0  0  0  0  0  0  0  0  0  0  0
    0.6187    0.8639    0.7550 N   0  0  0  0  0  0  0  0  0  0  0  0
    0.9745   -0.1091    1.7880 C   0  0  0  0  0  0  0  0  0  0  0  0
    0.7958   -1.4635    1.0816 C   0  0  0  0  0  0  0  0  0  0  0  0
   -0.1046   -1.1623   -0.1185 C   0  0  0  0  0  0  0  0  0  0  0  0
   -0.6741   -1.9622   -0.8081 O   0  0  0  0  0  0  0  0  0  0  0  0
    0.3259    2.7609   -1.3328 H   0  0  0  0  0  0  0  0  0  0  0  0
   -1.2822    2.7666   -2.0813 H   0  0  0  0  0  0  0  0  0  0  0  0
   -1.1280    2.8330   -0.3183 H   0  0  0  0  0  0  0  0  0  0  0  0
    0.5687    1.8432    0.9832 H   0  0  0  0  0  0  0  0  0  0  0  0
    1.9989    0.0547    2.1358 H   0  0  0  0  0  0  0  0  0  0  0  0
    0.3107   -0.0319    2.6602 H   0  0  0  0  0  0  0  0  0  0  0  0
    1.7494   -1.8420    0.6970 H   0  0  0  0  0  0  0  0  0  0  0  0
    0.3637   -2.2403    1.7142 H   0  0  0  0  0  0  0  0  0  0  0  0
  1  2  1  0  0  0  0
  1 11  1  0  0  0  0
  2  3  2  0  0  0  0
  3  7  1  0  0  0  0
  3  4  1  0  0  0  0
  4 12  1  0  0  0  0
  4  5  1  0  0  0  0
  5 13  1  0  0  0  0
  5 14  1  0  0  0  0
  6 16  1  0  0  0  0
  6  5  1  0  0  0  0
  7  6  1  0  0  0  0
  8  7  2  0  0  0  0
  9  1  1  0  0  0  0
 10  1  1  0  0  0  0
 15  6  1  0  0  0  0
M  END
