title
 OpenBabel02282110003D

 18 18  0  0  1  0  0  0  0  0999 V2000
    0.8795    1.5291    0.1721 O   0  0  0  0  0  0  0  0  0  0  0  0
    1.0490    0.1923   -0.2971 C   0  0  1  0  0  0  0  0  0  0  0  0
    1.7357   -0.6901    0.7524 C   0  0  0  0  0  0  0  0  0  0  0  0
    0.6506   -0.8807    1.8282 C   0  0  0  0  0  0  0  0  0  0  0  0
   -0.6925   -0.8961    1.0454 C   0  0  0  0  0  0  0  0  0  0  0  0
   -0.3583   -0.4370   -0.4052 C   0  0  1  0  0  0  0  0  0  0  0  0
   -1.3923    0.5079   -0.9798 C   0  0  0  0  0  0  0  0  0  0  0  0
   -1.9367    0.3553   -2.0439 O   0  0  0  0  0  0  0  0  0  0  0  0
    1.7521    1.9090    0.3135 H   0  0  0  0  0  0  0  0  0  0  0  0
    1.5655    0.1890   -1.2664 H   0  0  0  0  0  0  0  0  0  0  0  0
    2.0087   -1.6481    0.2935 H   0  0  0  0  0  0  0  0  0  0  0  0
    2.6574   -0.2382    1.1357 H   0  0  0  0  0  0  0  0  0  0  0  0
    0.8005   -1.7891    2.4166 H   0  0  0  0  0  0  0  0  0  0  0  0
    0.6686   -0.0363    2.5215 H   0  0  0  0  0  0  0  0  0  0  0  0
   -1.1474   -1.8895    1.0283 H   0  0  0  0  0  0  0  0  0  0  0  0
   -1.4217   -0.2246    1.5099 H   0  0  0  0  0  0  0  0  0  0  0  0
   -0.2950   -1.2946   -1.0805 H   0  0  0  0  0  0  0  0  0  0  0  0
   -1.6326    1.3736   -0.3268 H   0  0  0  0  0  0  0  0  0  0  0  0
  1  9  1  0  0  0  0
  2  6  1  6  0  0  0
  2  1  1  0  0  0  0
  2  3  1  0  0  0  0
  3 12  1  0  0  0  0
  3  4  1  0  0  0  0
  4 13  1  0  0  0  0
  4 14  1  0  0  0  0
  5 16  1  0  0  0  0
  5  4  1  0  0  0  0
  6 17  1  6  0  0  0
  6  5  1  0  0  0  0
  7  6  1  0  0  0  0
  7 18  1  0  0  0  0
  8  7  2  0  0  0  0
 10  2  1  0  0  0  0
 11  3  1  0  0  0  0
 15  5  1  0  0  0  0
M  END
