17
title
C -0.6136769 2.353927 -1.3254559
N -0.6258031 0.8997465 -1.315746
C -0.027768005 0.3117871 -0.3663433
N 0.6687294 0.8496711 0.7203017
C 1.1090083 -0.19869342 1.5198098
N 0.83706367 -1.372933 1.1058568
C 0.08441503 -1.1997708 -0.15386918
C -1.2757019 -1.8977302 -0.109864034
H 0.40736598 2.7624097 -1.3870742
H -1.1664851 2.718731 -2.1944385
H -1.0890161 2.7833433 -0.42879972
H 0.7420399 1.82703 0.942602
H 1.6564095 0.020412112 2.4315958
H 0.6788987 -1.6315151 -0.9690232
H -1.8741213 -1.5215319 0.72513324
H -1.8160702 -1.7031282 -1.0395092
H -1.1435615 -2.9747157 0.018836703
