17
title
C -0.6958898 2.3702512 -1.1100618
N -0.6944239 0.9158703 -1.1539971
C -0.12913969 0.29355004 -0.21050143
O 0.49104896 0.8873061 0.86541986
C 1.0145987 -0.129186 1.7245152
C 0.64817435 -1.4220636 1.0583377
C -0.019647207 -1.1702933 -0.071160674
C -0.5969518 -2.1005661 -1.0838193
H 0.322642 2.7814074 -1.1083509
H -1.2215211 2.7563791 -1.9868251
H -1.1957788 2.7531962 -0.21012229
H 2.099524 0.01163706 1.8256772
H 0.5704469 -0.017476829 2.7232077
H 0.90560585 -2.391192 1.4653127
H -0.41274455 -3.1449652 -0.8214887
H -1.6761699 -1.9413702 -1.1770481
H -0.17143455 -1.9000463 -2.0723803
