title
 OpenBabel02282110003D

 17 17  0  0  0  0  0  0  0  0999 V2000
   -0.7490    2.3538   -1.1982 C   0  0  0  0  0  0  0  0  0  0  0  0
   -0.7132    0.9000   -1.1877 N   0  0  0  0  0  0  0  0  0  0  0  0
   -0.1276    0.3481   -0.2062 C   0  0  0  0  0  0  0  0  0  0  0  0
    0.5862    0.8841    1.0336 C   0  0  0  0  0  0  0  0  0  0  0  0
    1.0480   -0.2913    1.7839 N   0  0  0  0  0  0  0  0  0  0  0  0
    0.6668   -1.2997    1.0953 C   0  0  0  0  0  0  0  0  0  0  0  0
   -0.0213   -1.0345   -0.0750 N   0  0  0  0  0  0  0  0  0  0  0  0
   -0.5584   -1.9808   -1.0248 C   0  0  0  0  0  0  0  0  0  0  0  0
    0.2580    2.7966   -1.2341 H   0  0  0  0  0  0  0  0  0  0  0  0
   -1.2929    2.6966   -2.0820 H   0  0  0  0  0  0  0  0  0  0  0  0
   -1.2551    2.7683   -0.3130 H   0  0  0  0  0  0  0  0  0  0  0  0
    1.4325    1.5278    0.7614 H   0  0  0  0  0  0  0  0  0  0  0  0
   -0.0847    1.4980    1.6481 H   0  0  0  0  0  0  0  0  0  0  0  0
    0.8505   -2.3330    1.3736 H   0  0  0  0  0  0  0  0  0  0  0  0
   -0.3293   -2.9944   -0.6891 H   0  0  0  0  0  0  0  0  0  0  0  0
   -1.6433   -1.8648   -1.1136 H   0  0  0  0  0  0  0  0  0  0  0  0
   -0.1230   -1.8198   -2.0159 H   0  0  0  0  0  0  0  0  0  0  0  0
  1  2  1  0  0  0  0
  1 11  1  0  0  0  0
  2  3  2  0  0  0  0
  3  7  1  0  0  0  0
  3  4  1  0  0  0  0
  4 13  1  0  0  0  0
  4  5  1  0  0  0  0
  6 14  1  0  0  0  0
  6  5  2  0  0  0  0
  7  6  1  0  0  0  0
  8 15  1  0  0  0  0
  8  7  1  0  0  0  0
  9  1  1  0  0  0  0
 10  1  1  0  0  0  0
 12  4  1  0  0  0  0
 16  8  1  0  0  0  0
 17  8  1  0  0  0  0
M  END
