14
title
C 1.3764668 2.4063456 0.017700361
N 1.3536782 0.95890194 0.092407376
C 0.25483263 0.34041387 0.0030988671
N -1.0494328 0.83346 -0.16567925
C -1.9459584 -0.22487289 -0.123716205
C -1.3407745 -1.429149 -0.030665344
C 0.10361446 -1.1966387 0.052199833
O 1.0194484 -1.9813207 0.13467933
H 2.3122063 2.7222936 -0.4519836
H 0.5439213 2.8513587 -0.5481429
H 1.3702404 2.8288047 1.0312264
H -1.3190544 1.7817509 0.028538661
H -3.0051563 -0.010267552 -0.18477863
H -1.8196421 -2.394682 -0.024592642
