title
 OpenBabel02282110003D

 14 14  0  0  0  0  0  0  0  0999 V2000
    1.3765    2.4063    0.0177 C   0  0  0  0  0  0  0  0  0  0  0  0
    1.3537    0.9589    0.0924 N   0  0  0  0  0  0  0  0  0  0  0  0
    0.2548    0.3404    0.0031 C   0  0  0  0  0  0  0  0  0  0  0  0
   -1.0494    0.8335   -0.1657 N   0  0  0  0  0  0  0  0  0  0  0  0
   -1.9460   -0.2249   -0.1237 C   0  0  0  0  0  0  0  0  0  0  0  0
   -1.3408   -1.4291   -0.0307 C   0  0  0  0  0  0  0  0  0  0  0  0
    0.1036   -1.1966    0.0522 C   0  0  0  0  0  0  0  0  0  0  0  0
    1.0194   -1.9813    0.1347 O   0  0  0  0  0  0  0  0  0  0  0  0
    2.3122    2.7223   -0.4520 H   0  0  0  0  0  0  0  0  0  0  0  0
    0.5439    2.8514   -0.5481 H   0  0  0  0  0  0  0  0  0  0  0  0
    1.3702    2.8288    1.0312 H   0  0  0  0  0  0  0  0  0  0  0  0
   -1.3191    1.7818    0.0285 H   0  0  0  0  0  0  0  0  0  0  0  0
   -3.0052   -0.0103   -0.1848 H   0  0  0  0  0  0  0  0  0  0  0  0
   -1.8196   -2.3947   -0.0246 H   0  0  0  0  0  0  0  0  0  0  0  0
  1  2  1  0  0  0  0
  1 11  1  0  0  0  0
  3  7  1  0  0  0  0
  3  2  2  0  0  0  0
  4  5  1  0  0  0  0
  4  3  1  0  0  0  0
  4 12  1  0  0  0  0
  5  6  2  0  0  0  0
  6 14  1  0  0  0  0
  6  7  1  0  0  0  0
  7  8  2  0  0  0  0
  9  1  1  0  0  0  0
 10  1  1  0  0  0  0
 13  5  1  0  0  0  0
M  END
