18
title
O 0.87951607 1.5290581 0.17211242
C 1.0490485 0.19233704 -0.29707542
C 1.7357101 -0.69010615 0.7523862
C 0.65056956 -0.8807246 1.8281589
C -0.6925163 -0.89611393 1.0454252
C -0.3582754 -0.4370339 -0.40519148
C -1.3922865 0.5079085 -0.97978103
O -1.9366882 0.35525298 -2.0438614
H 1.7520874 1.9089724 0.31351957
H 1.5654765 0.18898547 -1.2663956
H 2.0087411 -1.6480722 0.29351434
H 2.6573892 -0.23817354 1.1356719
H 0.80054206 -1.7891263 2.416635
H 0.6685969 -0.036312576 2.5214992
H -1.1474383 -1.8894675 1.0282588
H -1.4216523 -0.22461796 1.5099276
H -0.29504895 -1.2946347 -1.0805352
H -1.6325612 1.3735849 -0.32679525
