title
 OpenBabel02282110003D

 13 13  0  0  0  0  0  0  0  0999 V2000
   -0.7383    2.4292    1.2044 C   0  0  0  0  0  0  0  0  0  0  0  0
   -0.7911    0.9799    1.1445 N   0  0  0  0  0  0  0  0  0  0  0  0
   -0.1649    0.3606    0.2526 C   0  0  0  0  0  0  0  0  0  0  0  0
    0.6157    0.8885   -0.7423 O   0  0  0  0  0  0  0  0  0  0  0  0
    1.1326   -0.1750   -1.5282 C   0  0  0  0  0  0  0  0  0  0  0  0
    0.6486   -1.3915   -0.9913 O   0  0  0  0  0  0  0  0  0  0  0  0
   -0.1459   -1.1365    0.0927 C   0  0  0  0  0  0  0  0  0  0  0  0
   -0.6831   -1.9816    0.7341 O   0  0  0  0  0  0  0  0  0  0  0  0
   -0.1244    2.8962    0.4266 H   0  0  0  0  0  0  0  0  0  0  0  0
   -1.7604    2.8172    1.1360 H   0  0  0  0  0  0  0  0  0  0  0  0
   -0.3559    2.7226    2.1880 H   0  0  0  0  0  0  0  0  0  0  0  0
    0.7868   -0.0682   -2.5620 H   0  0  0  0  0  0  0  0  0  0  0  0
    2.2270   -0.1651   -1.4836 H   0  0  0  0  0  0  0  0  0  0  0  0
  1 11  1  0  0  0  0
  2  1  1  0  0  0  0
  3  2  2  0  0  0  0
  4  3  1  0  0  0  0
  5 13  1  0  0  0  0
  5  6  1  0  0  0  0
  5  4  1  0  0  0  0
  6  7  1  0  0  0  0
  7  3  1  0  0  0  0
  7  8  2  0  0  0  0
  9  1  1  0  0  0  0
 10  1  1  0  0  0  0
 12  5  1  0  0  0  0
M  END
