14
title
C -0.83936507 2.4168475 1.1327299
N -0.8760455 0.967067 1.0947706
C -0.19528483 0.33869985 0.25081715
O 0.6349254 0.88115185 -0.7047999
C 1.2195668 -0.16323826 -1.4569585
O 0.73118263 -1.3917435 -0.9462495
C -0.13015656 -1.1427537 0.09022353
N -0.7432069 -2.0056636 0.7694757
H -0.18236677 2.8782601 0.38697788
H -1.8578697 2.796195 0.9936672
H -0.52097404 2.7324574 2.1324732
H 0.9339053 -0.06470236 -2.5109231
H 2.310347 -0.12967655 -1.3509493
H -0.5175854 -2.9486709 0.44866732
