title
 OpenBabel02282110003D

 19 19  0  0  1  0  0  0  0  0999 V2000
   -0.8564    2.3407    1.2357 C   0  0  0  0  0  0  0  0  0  0  0  0
   -0.7362    0.8924    1.2810 N   0  0  0  0  0  0  0  0  0  0  0  0
   -0.3005    0.2669    0.2789 C   0  0  0  0  0  0  0  0  0  0  0  0
    0.0682    0.8421   -0.9123 O   0  0  0  0  0  0  0  0  0  0  0  0
    0.6104   -0.1486   -1.7959 C   0  0  0  0  0  0  0  0  0  0  0  0
    0.0623   -1.4902   -1.2922 C   0  0  0  0  0  0  0  0  0  0  0  0
   -0.0906   -1.2383    0.2197 C   0  0  1  0  0  0  0  0  0  0  0  0
    1.1357   -1.6543    1.0479 C   0  0  0  0  0  0  0  0  0  0  0  0
   -0.3899    2.7642    2.1322 H   0  0  0  0  0  0  0  0  0  0  0  0
   -0.4078    2.8049    0.3503 H   0  0  0  0  0  0  0  0  0  0  0  0
   -1.9172    2.6171    1.2731 H   0  0  0  0  0  0  0  0  0  0  0  0
    0.3001    0.1030   -2.8129 H   0  0  0  0  0  0  0  0  0  0  0  0
    1.7063   -0.1085   -1.7479 H   0  0  0  0  0  0  0  0  0  0  0  0
   -0.9117   -1.6907   -1.7484 H   0  0  0  0  0  0  0  0  0  0  0  0
    0.7256   -2.3259   -1.5273 H   0  0  0  0  0  0  0  0  0  0  0  0
   -0.9743   -1.7328    0.6286 H   0  0  0  0  0  0  0  0  0  0  0  0
    2.0543   -1.1972    0.6635 H   0  0  0  0  0  0  0  0  0  0  0  0
    1.0118   -1.3361    2.0859 H   0  0  0  0  0  0  0  0  0  0  0  0
    1.2654   -2.7410    1.0267 H   0  0  0  0  0  0  0  0  0  0  0  0
  1 11  1  0  0  0  0
  1  2  1  0  0  0  0
  1  9  1  0  0  0  0
  3  2  2  0  0  0  0
  4  3  1  0  0  0  0
  5 13  1  0  0  0  0
  5  6  1  0  0  0  0
  5  4  1  0  0  0  0
  6  7  1  0  0  0  0
  7  3  1  0  0  0  0
  7 16  1  1  0  0  0
  7  8  1  0  0  0  0
  8 18  1  0  0  0  0
 10  1  1  0  0  0  0
 12  5  1  0  0  0  0
 14  6  1  0  0  0  0
 15  6  1  0  0  0  0
 17  8  1  0  0  0  0
 19  8  1  0  0  0  0
M  END
