22
title
C -1.4031085 2.1133163 1.1764495
C -1.0694845 0.6267989 1.4021503
C -0.3748901 -0.014812073 0.23462
C 0.89473814 -0.43952855 0.15634373
C 1.9600276 -0.3964431 1.2079896
C 1.1868058 -1.0803678 -1.1865427
C -0.024478618 -0.67648214 -2.0574758
C -1.1344937 -0.31137046 -1.0460398
H -0.49113834 2.696635 1.0150682
H -2.045531 2.2523594 0.30132213
H -1.9259905 2.531768 2.042361
H -0.46184462 0.53153074 2.3080556
H -2.0043862 0.08441762 1.6035142
H 2.3243253 -1.4063675 1.439462
H 2.8328338 0.17199789 0.8607277
H 1.6170975 0.057225175 2.1410437
H 2.141953 -0.74906546 -1.6130719
H 1.269343 -2.1725585 -1.076406
H 0.23273116 0.20792775 -2.6493545
H -0.32634902 -1.457402 -2.7604156
H -1.8327484 -1.1469903 -0.88423276
H -1.7487296 0.53010535 -1.3875015
