title
 OpenBabel02282110003D

 15 15  0  0  0  0  0  0  0  0999 V2000
    1.3696    2.4119    0.1562 C   0  0  0  0  0  0  0  0  0  0  0  0
    1.3803    0.9600    0.1308 N   0  0  0  0  0  0  0  0  0  0  0  0
    0.2922    0.3319    0.0410 C   0  0  0  0  0  0  0  0  0  0  0  0
   -0.9579    0.8788   -0.0168 O   0  0  0  0  0  0  0  0  0  0  0  0
   -1.9517   -0.1260   -0.3200 C   0  0  0  0  0  0  0  0  0  0  0  0
   -1.3213   -1.4807    0.0153 C   0  0  0  0  0  0  0  0  0  0  0  0
    0.1745   -1.1785    0.0084 C   0  0  0  0  0  0  0  0  0  0  0  0
    1.0818   -1.9628   -0.0084 O   0  0  0  0  0  0  0  0  0  0  0  0
    2.2139    2.7794   -0.4350 H   0  0  0  0  0  0  0  0  0  0  0  0
    0.4406    2.8611   -0.2128 H   0  0  0  0  0  0  0  0  0  0  0  0
    1.5317    2.7522    1.1867 H   0  0  0  0  0  0  0  0  0  0  0  0
   -2.8389    0.1094    0.2704 H   0  0  0  0  0  0  0  0  0  0  0  0
   -2.2085   -0.0485   -1.3824 H   0  0  0  0  0  0  0  0  0  0  0  0
   -1.5947   -1.8168    1.0218 H   0  0  0  0  0  0  0  0  0  0  0  0
   -1.5721   -2.2791   -0.6846 H   0  0  0  0  0  0  0  0  0  0  0  0
  1 11  1  0  0  0  0
  2  1  1  0  0  0  0
  3  2  2  0  0  0  0
  4  3  1  0  0  0  0
  5  4  1  0  0  0  0
  5  6  1  0  0  0  0
  5 12  1  0  0  0  0
  6 14  1  0  0  0  0
  7  6  1  0  0  0  0
  7  3  1  0  0  0  0
  8  7  2  0  0  0  0
  9  1  1  0  0  0  0
 10  1  1  0  0  0  0
 13  5  1  0  0  0  0
 15  6  1  0  0  0  0
M  END
