17
title
C -0.8042643 2.4254737 -1.1710473
N -0.8448939 0.97200924 -1.1693922
C -0.11627695 0.32512668 -0.37773293
O 0.7786978 0.8435836 0.5228767
C 1.2725067 -0.23157395 1.3160945
O 1.0545807 -1.4136498 0.59682757
C -0.078152865 -1.1878934 -0.24737632
C -1.3708476 -1.7677572 0.32446426
H -0.22424594 2.8606446 -0.34938437
H -0.37921906 2.7727685 -2.120073
H -1.8292055 2.8087611 -1.1244371
H 2.3460686 -0.09553911 1.4759532
H 0.7411663 -0.23012985 2.2815967
H 0.14129844 -1.6435096 -1.2170259
H -1.6012424 -1.334552 1.3027881
H -2.1986294 -1.543128 -0.3532942
H -1.2814125 -2.851418 0.43563432
