title
 OpenBabel02282110003D

 14 14  0  0  0  0  0  0  0  0999 V2000
    1.6500    2.2089   -0.0053 O   0  0  0  0  0  0  0  0  0  0  0  0
    1.6454    0.7944   -0.0112 C   0  0  0  0  0  0  0  0  0  0  0  0
    0.2348    0.3180   -0.0007 C   0  0  0  0  0  0  0  0  0  0  0  0
   -0.9072    1.0042    0.0115 C   0  0  0  0  0  0  0  0  0  0  0  0
   -2.0541    0.0383    0.0173 C   0  0  0  0  0  0  0  0  0  0  0  0
   -1.4547   -1.2576    0.0074 O   0  0  0  0  0  0  0  0  0  0  0  0
   -0.0896   -1.1311   -0.0026 C   0  0  0  0  0  0  0  0  0  0  0  0
    0.6535   -2.0734   -0.0138 O   0  0  0  0  0  0  0  0  0  0  0  0
    2.5642    2.5059   -0.0122 H   0  0  0  0  0  0  0  0  0  0  0  0
    2.1529    0.3809   -0.8981 H   0  0  0  0  0  0  0  0  0  0  0  0
    2.1685    0.3736    0.8632 H   0  0  0  0  0  0  0  0  0  0  0  0
   -1.0224    2.0788    0.0164 H   0  0  0  0  0  0  0  0  0  0  0  0
   -2.6858    0.1319    0.9099 H   0  0  0  0  0  0  0  0  0  0  0  0
   -2.7004    0.1387   -0.8641 H   0  0  0  0  0  0  0  0  0  0  0  0
  2  1  1  0  0  0  0
  2  3  1  0  0  0  0
  2 11  1  0  0  0  0
  3  4  2  0  0  0  0
  4 12  1  0  0  0  0
  4  5  1  0  0  0  0
  5 13  1  0  0  0  0
  6  5  1  0  0  0  0
  7  3  1  0  0  0  0
  7  6  1  0  0  0  0
  8  7  2  0  0  0  0
  9  1  1  0  0  0  0
 10  2  1  0  0  0  0
 14  5  1  0  0  0  0
M  END
