title
 OpenBabel02282110003D

 17 17  0  0  0  0  0  0  0  0999 V2000
   -0.8017    1.9170    1.7342 C   0  0  0  0  0  0  0  0  0  0  0  0
   -0.5207    0.4051    1.8020 C   0  0  0  0  0  0  0  0  0  0  0  0
    0.1744   -0.1107    0.5810 C   0  0  0  0  0  0  0  0  0  0  0  0
    1.4266   -0.5489    0.4215 C   0  0  0  0  0  0  0  0  0  0  0  0
    1.6441   -0.9527   -1.0053 C   0  0  0  0  0  0  0  0  0  0  0  0
    0.3903   -0.7037   -1.6480 O   0  0  0  0  0  0  0  0  0  0  0  0
   -0.5018   -0.2100   -0.7299 C   0  0  0  0  0  0  0  0  0  0  0  0
   -1.7059    0.0979   -0.9782 N   0  0  0  0  0  0  0  0  0  0  0  0
    0.1297    2.4862    1.6505 H   0  0  0  0  0  0  0  0  0  0  0  0
   -1.4276    2.1468    0.8692 H   0  0  0  0  0  0  0  0  0  0  0  0
   -1.3227    2.2485    2.6373 H   0  0  0  0  0  0  0  0  0  0  0  0
    0.0812    0.1728    2.6870 H   0  0  0  0  0  0  0  0  0  0  0  0
   -1.4745   -0.1247    1.9058 H   0  0  0  0  0  0  0  0  0  0  0  0
    2.1958   -0.6211    1.1796 H   0  0  0  0  0  0  0  0  0  0  0  0
    2.4262   -0.3661   -1.5062 H   0  0  0  0  0  0  0  0  0  0  0  0
    1.8996   -2.0150   -1.1188 H   0  0  0  0  0  0  0  0  0  0  0  0
   -1.9285   -0.0734   -1.9596 H   0  0  0  0  0  0  0  0  0  0  0  0
  1  2  1  0  0  0  0
  1 11  1  0  0  0  0
  2 13  1  0  0  0  0
  2 12  1  0  0  0  0
  3  2  1  0  0  0  0
  4  3  2  0  0  0  0
  4 14  1  0  0  0  0
  5  4  1  0  0  0  0
  6  5  1  0  0  0  0
  6  7  1  0  0  0  0
  7  3  1  0  0  0  0
  8  7  2  0  0  0  0
  9  1  1  0  0  0  0
 10  1  1  0  0  0  0
 15  5  1  0  0  0  0
 16  5  1  0  0  0  0
 17  8  1  0  0  0  0
M  END
