16
title
O 1.6619668 2.1691284 -0.0066735786
C 1.6459119 0.7526481 -0.011669882
C 0.2330863 0.27433726 -0.0013068572
C -0.895148 0.99553883 0.010121142
C -2.1445377 0.1498313 0.018028812
C -1.6197687 -1.2996395 0.009601424
C -0.08986513 -1.1723604 -0.002765693
O 0.7088249 -2.0831702 -0.0119740805
H 2.5790486 2.456902 -0.013386835
H 2.1547356 0.3383412 -0.8974738
H 2.169819 0.3318865 0.86220485
H -0.924895 2.0787265 0.013523308
H -2.7604237 0.36919126 0.89879376
H -2.7748113 0.37414014 -0.8512403
H -1.9281448 -1.8739591 0.88812554
H -1.942778 -1.8690984 -0.866822
