title
 OpenBabel02282110003D

 18 18  0  0  0  0  0  0  0  0999 V2000
   -0.8115    1.9084    1.7210 C   0  0  0  0  0  0  0  0  0  0  0  0
   -0.5549    0.3918    1.7804 C   0  0  0  0  0  0  0  0  0  0  0  0
    0.1539   -0.1215    0.5641 C   0  0  0  0  0  0  0  0  0  0  0  0
    1.4078   -0.5799    0.4399 C   0  0  0  0  0  0  0  0  0  0  0  0
    1.7704   -1.0092   -0.9601 C   0  0  0  0  0  0  0  0  0  0  0  0
    0.4887   -0.7466   -1.7736 C   0  0  0  0  0  0  0  0  0  0  0  0
   -0.5215   -0.1895   -0.7611 C   0  0  0  0  0  0  0  0  0  0  0  0
   -1.6656    0.1304   -0.9971 O   0  0  0  0  0  0  0  0  0  0  0  0
    0.1297    2.4643    1.6618 H   0  0  0  0  0  0  0  0  0  0  0  0
   -1.4147    2.1581    0.8449 H   0  0  0  0  0  0  0  0  0  0  0  0
   -1.3481    2.2431    2.6139 H   0  0  0  0  0  0  0  0  0  0  0  0
    0.0210    0.1419    2.6782 H   0  0  0  0  0  0  0  0  0  0  0  0
   -1.5207   -0.1218    1.8607 H   0  0  0  0  0  0  0  0  0  0  0  0
    2.1201   -0.6515    1.2568 H   0  0  0  0  0  0  0  0  0  0  0  0
    2.6317   -0.4424   -1.3349 H   0  0  0  0  0  0  0  0  0  0  0  0
    2.0731   -2.0633   -0.9812 H   0  0  0  0  0  0  0  0  0  0  0  0
    0.6322   -0.0192   -2.5780 H   0  0  0  0  0  0  0  0  0  0  0  0
    0.0796   -1.6493   -2.2363 H   0  0  0  0  0  0  0  0  0  0  0  0
  1  2  1  0  0  0  0
  1 11  1  0  0  0  0
  2 13  1  0  0  0  0
  2 12  1  0  0  0  0
  3  2  1  0  0  0  0
  4  3  2  0  0  0  0
  4 14  1  0  0  0  0
  5  4  1  0  0  0  0
  6  5  1  0  0  0  0
  6  7  1  0  0  0  0
  7  3  1  0  0  0  0
  8  7  2  0  0  0  0
  9  1  1  0  0  0  0
 10  1  1  0  0  0  0
 15  5  1  0  0  0  0
 16  5  1  0  0  0  0
 17  6  1  0  0  0  0
 18  6  1  0  0  0  0
M  END
