18
title
C -0.8115222 1.9084182 1.7209938
C -0.55493486 0.39175537 1.7803737
C 0.15387423 -0.12150207 0.5640522
C 1.4078346 -0.5799009 0.4398581
C 1.7704455 -1.0091505 -0.96009934
C 0.48871908 -0.746642 -1.7735721
C -0.5214979 -0.18951848 -0.7611357
O -1.6655632 0.13038516 -0.99711144
H 0.12971105 2.4643486 1.6617937
H -1.4147345 2.1581314 0.84491795
H -1.3480834 2.2430847 2.6138556
H 0.021000046 0.14189531 2.678158
H -1.5206542 -0.121830255 1.8607056
H 2.120123 -0.6515379 1.256758
H 2.6316526 -0.44244012 -1.334906
H 2.0730634 -2.0633209 -0.98117054
H 0.6321934 -0.019217612 -2.578036
H 0.079561554 -1.6493284 -2.2363431
