title
 OpenBabel02282110003D

 20 20  0  0  1  0  0  0  0  0999 V2000
   -0.9282    1.9901   -0.8731 C   0  0  0  0  0  0  0  0  0  0  0  0
   -0.8177    0.4613   -0.8097 C   0  0  1  0  0  0  0  0  0  0  0  0
   -0.1012   -0.1555   -2.0400 C   0  0  0  0  0  0  0  0  0  0  0  0
    0.6787   -1.3802   -1.5046 C   0  0  0  0  0  0  0  0  0  0  0  0
    0.8007   -1.0812   -0.0305 C   0  0  0  0  0  0  0  0  0  0  0  0
   -0.0033   -0.0889    0.3517 C   0  0  0  0  0  0  0  0  0  0  0  0
   -0.1924    0.4163    1.7459 C   0  0  0  0  0  0  0  0  0  0  0  0
    0.5726   -0.3614    2.6504 O   0  0  0  0  0  0  0  0  0  0  0  0
    0.0646    2.4532   -0.9076 H   0  0  0  0  0  0  0  0  0  0  0  0
   -1.4736    2.3012   -1.7704 H   0  0  0  0  0  0  0  0  0  0  0  0
   -1.4617    2.3990   -0.0081 H   0  0  0  0  0  0  0  0  0  0  0  0
   -1.8414    0.0590   -0.7356 H   0  0  0  0  0  0  0  0  0  0  0  0
   -0.7937   -0.4033   -2.8493 H   0  0  0  0  0  0  0  0  0  0  0  0
    0.6083    0.5801   -2.4366 H   0  0  0  0  0  0  0  0  0  0  0  0
    0.1263   -2.3179   -1.6647 H   0  0  0  0  0  0  0  0  0  0  0  0
    1.6474   -1.5110   -2.0006 H   0  0  0  0  0  0  0  0  0  0  0  0
    1.4318   -1.6468    0.6435 H   0  0  0  0  0  0  0  0  0  0  0  0
    0.0960    1.4807    1.7962 H   0  0  0  0  0  0  0  0  0  0  0  0
   -1.2687    0.3819    1.9983 H   0  0  0  0  0  0  0  0  0  0  0  0
    0.4891    0.0308    3.5239 H   0  0  0  0  0  0  0  0  0  0  0  0
  1  2  1  0  0  0  0
  1 11  1  0  0  0  0
  2 12  1  1  0  0  0
  2  6  1  0  0  0  0
  3  4  1  0  0  0  0
  3  2  1  0  0  0  0
  4  5  1  0  0  0  0
  5  6  2  0  0  0  0
  5 17  1  0  0  0  0
  6  7  1  0  0  0  0
  7 18  1  0  0  0  0
  7 19  1  0  0  0  0
  7  8  1  0  0  0  0
  8 20  1  0  0  0  0
  9  1  1  0  0  0  0
 10  1  1  0  0  0  0
 13  3  1  0  0  0  0
 14  3  1  0  0  0  0
 15  4  1  0  0  0  0
 16  4  1  0  0  0  0
M  END
