title
 OpenBabel02282110003D

 18 18  0  0  1  0  0  0  0  0999 V2000
   -0.6902    1.9791   -0.9550 C   0  0  0  0  0  0  0  0  0  0  0  0
   -0.8121    0.4669   -0.7568 C   0  0  1  0  0  0  0  0  0  0  0  0
   -0.3004   -0.2090   -1.9082 O   0  0  0  0  0  0  0  0  0  0  0  0
    0.6654   -1.1854   -1.5261 C   0  0  0  0  0  0  0  0  0  0  0  0
    0.8179   -1.0281   -0.0422 C   0  0  0  0  0  0  0  0  0  0  0  0
   -0.0184   -0.0960    0.4016 C   0  0  0  0  0  0  0  0  0  0  0  0
   -0.2254    0.3572    1.8083 C   0  0  0  0  0  0  0  0  0  0  0  0
    0.5775   -0.4197    2.6782 O   0  0  0  0  0  0  0  0  0  0  0  0
    0.3614    2.2750   -1.0171 H   0  0  0  0  0  0  0  0  0  0  0  0
   -1.1887    2.2719   -1.8831 H   0  0  0  0  0  0  0  0  0  0  0  0
   -1.1622    2.5226   -0.1292 H   0  0  0  0  0  0  0  0  0  0  0  0
   -1.8831    0.2180   -0.6434 H   0  0  0  0  0  0  0  0  0  0  0  0
    0.3156   -2.1937   -1.8037 H   0  0  0  0  0  0  0  0  0  0  0  0
    1.6030   -1.0094   -2.0760 H   0  0  0  0  0  0  0  0  0  0  0  0
    1.5003   -1.6093    0.5623 H   0  0  0  0  0  0  0  0  0  0  0  0
    0.0202    1.4304    1.8893 H   0  0  0  0  0  0  0  0  0  0  0  0
   -1.2975    0.2692    2.0621 H   0  0  0  0  0  0  0  0  0  0  0  0
    0.4650   -0.0809    3.5707 H   0  0  0  0  0  0  0  0  0  0  0  0
  1  2  1  0  0  0  0
  1 11  1  0  0  0  0
  2 12  1  1  0  0  0
  2  6  1  0  0  0  0
  3  4  1  0  0  0  0
  3  2  1  0  0  0  0
  4  5  1  0  0  0  0
  5  6  2  0  0  0  0
  5 15  1  0  0  0  0
  6  7  1  0  0  0  0
  7 16  1  0  0  0  0
  7 17  1  0  0  0  0
  7  8  1  0  0  0  0
  8 18  1  0  0  0  0
  9  1  1  0  0  0  0
 10  1  1  0  0  0  0
 13  4  1  0  0  0  0
 14  4  1  0  0  0  0
M  END
