17
title
C 1.333677 2.58137 0.43854463
C 1.2861767 1.0532341 0.3853376
C -0.14438206 0.4872518 0.2991171
C -0.87794 0.69352156 -1.0049977
C -1.2411036 -0.49847904 -1.4882786
N -0.8327258 -1.5376065 -0.63801545
C -0.14033467 -1.0482576 0.45495123
O 0.370162 -1.7082751 1.3310843
H 2.3654456 2.9368672 0.5193605
H 0.8993396 3.0314262 -0.4603819
H 0.7804695 2.964846 1.3031905
H 1.8637334 0.6910239 -0.47357717
H 1.7523198 0.625812 1.2798108
H -0.7224038 0.8933435 1.1424619
H -1.0866797 1.6491096 -1.4608911
H -1.7842207 -0.7384265 -2.3913958
H -0.9467059 -2.5219584 -0.81309634
