18
title
C -0.690185 1.9791055 -0.95500743
C -0.8121356 0.4669377 -0.7568059
O -0.3004338 -0.20898278 -1.9082375
C 0.6653819 -1.1853793 -1.5261401
C 0.8179462 -1.0280559 -0.042175774
C -0.01836445 -0.09599914 0.4016406
C -0.22541155 0.35719526 1.8082733
O 0.5774635 -0.41965833 2.6781669
H 0.36142454 2.2749798 -1.0170854
H -1.1886646 2.2718954 -1.8831056
H -1.162183 2.5226357 -0.12919462
H -1.883133 0.2179765 -0.64335805
H 0.31564543 -2.1936789 -1.8037114
H 1.6029595 -1.0094209 -2.0759535
H 1.5003091 -1.6092762 0.5622552
H 0.02024714 1.4303887 1.8893089
H -1.2975299 0.26922026 2.0621269
H 0.4649671 -0.08092244 3.5707147
