16
title
C -0.9984017 2.5368822 0.9830912
C -0.97977734 1.0084667 0.9423046
C -0.21772736 0.4542161 -0.27002177
N 1.2220331 0.7587636 -0.23027058
C 1.8218075 -0.36448595 -0.3080072
N 1.0051123 -1.4859124 -0.40949795
C -0.32586867 -1.0761546 -0.37473127
O -1.3003892 -1.7855817 -0.40935776
H 0.018956956 2.9361906 0.99977016
H -1.5065966 2.9486442 0.10406897
H -1.5252181 2.8957653 1.8722825
H -0.517501 0.61274284 1.8545486
H -1.996878 0.6033964 0.9011212
H -0.6420058 0.8912171 -1.1844043
H 2.9004552 -0.48634312 -0.30036685
H 1.3011359 -2.4477909 -0.44917914
