15
title
C -0.40060648 2.5705073 -1.3127402
C -0.338129 1.0427397 -1.3152852
C 0.3454789 0.4777604 -0.059812382
N -0.40683982 0.7306223 1.1745714
C -0.61540943 -0.41024128 1.6809236
O -0.13572924 -1.5239702 1.0337824
C 0.49892825 -1.0405992 -0.11484571
O 1.0119525 -1.7579972 -0.9128967
H 0.60419476 3.0065703 -1.2966434
H -0.91011393 2.9371972 -2.2084577
H -0.939768 2.9362311 -0.43523458
H -1.3481656 0.6220055 -1.3817668
H 0.2179339 0.67376757 -2.1839924
H 1.3439451 0.9253001 0.032038018
H -1.1482146 -0.621581 2.6002305
