title
 OpenBabel02282110003D

 18 18  0  0  1  0  0  0  0  0999 V2000
    1.3398    2.5661    0.5164 C   0  0  0  0  0  0  0  0  0  0  0  0
    1.2973    1.0392    0.4218 C   0  0  0  0  0  0  0  0  0  0  0  0
   -0.1308    0.4656    0.3281 C   0  0  1  0  0  0  0  0  0  0  0  0
   -0.8705    0.7066   -0.9639 C   0  0  0  0  0  0  0  0  0  0  0  0
   -1.2975   -0.4192   -1.5396 C   0  0  0  0  0  0  0  0  0  0  0  0
   -0.9375   -1.6465   -0.7475 C   0  0  0  0  0  0  0  0  0  0  0  0
   -0.1334   -1.0741    0.4303 C   0  0  0  0  0  0  0  0  0  0  0  0
    0.4253   -1.7143    1.2825 O   0  0  0  0  0  0  0  0  0  0  0  0
    2.3705    2.9229    0.6058 H   0  0  0  0  0  0  0  0  0  0  0  0
    0.9033    3.0406   -0.3687 H   0  0  0  0  0  0  0  0  0  0  0  0
    0.7863    2.9235    1.3919 H   0  0  0  0  0  0  0  0  0  0  0  0
    1.8743    0.7036   -0.4488 H   0  0  0  0  0  0  0  0  0  0  0  0
    1.7716    0.5925    1.3024 H   0  0  0  0  0  0  0  0  0  0  0  0
   -0.7006    0.8540    1.1873 H   0  0  0  0  0  0  0  0  0  0  0  0
   -1.0317    1.7012   -1.3642 H   0  0  0  0  0  0  0  0  0  0  0  0
   -1.8509   -0.4686   -2.4704 H   0  0  0  0  0  0  0  0  0  0  0  0
   -1.8101   -2.1970   -0.3707 H   0  0  0  0  0  0  0  0  0  0  0  0
   -0.3339   -2.3781   -1.2992 H   0  0  0  0  0  0  0  0  0  0  0  0
  1  9  1  0  0  0  0
  1 11  1  0  0  0  0
  2  1  1  0  0  0  0
  2 13  1  0  0  0  0
  3  2  1  0  0  0  0
  3  7  1  0  0  0  0
  3 14  1  1  0  0  0
  4  3  1  0  0  0  0
  5  4  2  0  0  0  0
  5  6  1  0  0  0  0
  6 17  1  0  0  0  0
  6  7  1  0  0  0  0
  7  8  2  0  0  0  0
 10  1  1  0  0  0  0
 12  2  1  0  0  0  0
 15  4  1  0  0  0  0
 16  5  1  0  0  0  0
 18  6  1  0  0  0  0
M  END
