18
title
O 1.6574578 2.1681647 0.3347901
C 1.6376345 0.75312895 0.40996513
C 0.24106231 0.25300613 0.23680693
C -0.87065357 0.9736262 0.08262356
C -2.1020296 0.11984494 -0.094775
C -1.5817862 -1.3157248 0.17402816
C -0.03438148 -1.2322804 0.1164753
O 0.5420093 -1.7749658 -1.0775859
H 2.5661738 2.4594016 0.45003757
H 2.2739518 0.29345208 -0.36451533
H 2.029946 0.39773923 1.3800876
H -0.8947348 2.0566697 0.06948396
H -2.9036698 0.4018184 0.59774506
H -2.5249066 0.23738042 -1.1021436
H -1.8932846 -1.643317 1.1703367
H -1.9473035 -2.0581381 -0.53989404
H 0.43132153 -1.820565 0.9151484
H 0.24582341 -1.2223254 -1.8100904
