title
 OpenBabel02282110003D

 20 20  0  0  1  0  0  0  0  0999 V2000
    1.7799    2.0717   -0.0533 C   0  0  0  0  0  0  0  0  0  0  0  0
    1.7164    0.5995   -0.4955 C   0  0  0  0  0  0  0  0  0  0  0  0
    0.3294    0.0304   -0.4793 C   0  0  0  0  0  0  0  0  0  0  0  0
   -0.3683   -0.4661   -1.5025 C   0  0  0  0  0  0  0  0  0  0  0  0
   -1.7462   -0.9380   -1.1049 C   0  0  0  0  0  0  0  0  0  0  0  0
   -1.6632   -0.9542    0.4407 C   0  0  0  0  0  0  0  0  0  0  0  0
   -0.4940   -0.0058    0.7944 C   0  0  1  0  0  0  0  0  0  0  0  0
    0.3155   -0.4542    1.8791 O   0  0  0  0  0  0  0  0  0  0  0  0
    2.8079    2.4443   -0.0965 H   0  0  0  0  0  0  0  0  0  0  0  0
    1.1624    2.7065   -0.6972 H   0  0  0  0  0  0  0  0  0  0  0  0
    1.4280    2.1852    0.9763 H   0  0  0  0  0  0  0  0  0  0  0  0
    2.1396    0.4937   -1.5007 H   0  0  0  0  0  0  0  0  0  0  0  0
    2.3455    0.0076    0.1809 H   0  0  0  0  0  0  0  0  0  0  0  0
   -0.0109   -0.5060   -2.5267 H   0  0  0  0  0  0  0  0  0  0  0  0
   -2.5186   -0.2410   -1.4600 H   0  0  0  0  0  0  0  0  0  0  0  0
   -2.0033   -1.9167   -1.5261 H   0  0  0  0  0  0  0  0  0  0  0  0
   -2.6040   -0.6827    0.9284 H   0  0  0  0  0  0  0  0  0  0  0  0
   -1.3777   -1.9526    0.7879 H   0  0  0  0  0  0  0  0  0  0  0  0
   -0.8678    1.0080    1.0209 H   0  0  0  0  0  0  0  0  0  0  0  0
   -0.1943   -0.3578    2.6892 H   0  0  0  0  0  0  0  0  0  0  0  0
  1 11  1  0  0  0  0
  2  3  1  0  0  0  0
  2  1  1  0  0  0  0
  2 13  1  0  0  0  0
  3  7  1  0  0  0  0
  4  5  1  0  0  0  0
  4  3  2  0  0  0  0
  5  6  1  0  0  0  0
  6 18  1  0  0  0  0
  6  7  1  0  0  0  0
  6 17  1  0  0  0  0
  7 19  1  1  0  0  0
  7  8  1  0  0  0  0
  8 20  1  0  0  0  0
  9  1  1  0  0  0  0
 10  1  1  0  0  0  0
 12  2  1  0  0  0  0
 14  4  1  0  0  0  0
 15  5  1  0  0  0  0
 16  5  1  0  0  0  0
M  END
