title
 OpenBabel02282110003D

 16 16  0  0  1  0  0  0  0  0999 V2000
   -0.5035    2.5647   -0.8885 C   0  0  0  0  0  0  0  0  0  0  0  0
   -0.3764    1.1644   -0.9997 O   0  0  0  0  0  0  0  0  0  0  0  0
    0.1655    0.5451    0.1458 C   0  0  1  0  0  0  0  0  0  0  0  0
   -0.8171    0.2313    1.2473 C   0  0  0  0  0  0  0  0  0  0  0  0
   -0.8141   -1.0602    1.5829 C   0  0  0  0  0  0  0  0  0  0  0  0
    0.1553   -1.8780    0.7730 C   0  0  0  0  0  0  0  0  0  0  0  0
    0.6954   -0.8630   -0.2438 C   0  0  0  0  0  0  0  0  0  0  0  0
    1.3918   -1.0991   -1.1905 O   0  0  0  0  0  0  0  0  0  0  0  0
    0.4663    3.0425   -0.6802 H   0  0  0  0  0  0  0  0  0  0  0  0
   -0.8784    2.9285   -1.8480 H   0  0  0  0  0  0  0  0  0  0  0  0
   -1.2116    2.8613   -0.1002 H   0  0  0  0  0  0  0  0  0  0  0  0
    1.0184    1.1398    0.5213 H   0  0  0  0  0  0  0  0  0  0  0  0
   -1.4393    0.9911    1.7052 H   0  0  0  0  0  0  0  0  0  0  0  0
   -1.4345   -1.4985    2.3568 H   0  0  0  0  0  0  0  0  0  0  0  0
    0.9876   -2.2797    1.3666 H   0  0  0  0  0  0  0  0  0  0  0  0
   -0.2978   -2.7362    0.2625 H   0  0  0  0  0  0  0  0  0  0  0  0
  1  9  1  0  0  0  0
  1 11  1  0  0  0  0
  2  1  1  0  0  0  0
  2  3  1  0  0  0  0
  3 12  1  1  0  0  0
  3  4  1  0  0  0  0
  4  5  2  0  0  0  0
  4 13  1  0  0  0  0
  5 14  1  0  0  0  0
  6 15  1  0  0  0  0
  6  5  1  0  0  0  0
  7  3  1  0  0  0  0
  7  6  1  0  0  0  0
  8  7  2  0  0  0  0
 10  1  1  0  0  0  0
 16  6  1  0  0  0  0
M  END
