15
title
O 1.310231 2.352119 0.26356387
C 1.3031719 0.9508253 0.40509325
C -0.13340472 0.4066367 0.38599265
N -0.7816913 0.7692009 -0.89006263
C -1.1560957 -0.330443 -1.4177445
N -0.88379145 -1.4765829 -0.6860084
C -0.20888911 -1.1140162 0.48504895
N 0.25928387 -1.8269798 1.42446
H 0.7507355 2.5467424 -0.49883056
H 1.882835 0.4537892 -0.3896156
H 1.7686073 0.7054867 1.3633842
H -0.6832193 0.8726444 1.2115626
H -1.6594756 -0.41427168 -2.3759236
H -1.0883334 -2.4195406 -0.9719934
H 0.099286936 -2.8240414 1.2722611
