17
title
C 1.7642066 1.9985907 0.42248464
C 1.7007265 0.48649862 0.19010605
N 0.3536559 -0.04928887 0.25808653
C -0.39644232 -0.25999925 1.4268754
C -1.6104392 -0.7515684 1.1605636
C -1.7385536 -0.9026393 -0.33187997
C -0.38330117 -0.40883008 -0.8614102
O 0.0005572845 -0.3355172 -2.0085316
H 2.7996511 2.3474 0.3591741
H 1.1759385 2.528434 -0.3318882
H 1.3769441 2.2687054 1.4102621
H 2.0684426 0.24104896 -0.8095421
H 2.3295848 -0.039732575 0.91836536
H 0.051822525 -0.025786875 2.3827488
H -2.3684595 -1.0031384 1.8857255
H -1.904241 -1.9351275 -0.6608253
H -2.5432093 -0.3025181 -0.77254146
