15
title
O 1.2019311 2.4208257 0.36905867
C 1.2841688 1.0045696 0.39088878
C -0.14364247 0.46381807 0.30720466
C -0.8588533 0.696345 -0.9999152
C -1.2504703 -0.48439807 -1.4871318
N -0.8684749 -1.5368783 -0.6372633
C -0.16486828 -1.070787 0.45689988
O 0.33504784 -1.744513 1.3293353
H 2.095577 2.773577 0.41089776
H 1.873273 0.6230877 -0.45730695
H 1.7423109 0.6308444 1.3175479
H -0.70020336 0.89491314 1.1505365
H -1.0237521 1.6642293 -1.4454626
H -1.7943243 -0.710602 -2.3932457
H -1.0112778 -2.5174663 -0.8122937
