title
 OpenBabel02282110003D

 13 13  0  0  1  0  0  0  0  0999 V2000
    1.3240    2.3837    0.3180 O   0  0  0  0  0  0  0  0  0  0  0  0
    1.3174    0.9818    0.4074 C   0  0  0  0  0  0  0  0  0  0  0  0
   -0.1237    0.4392    0.3810 C   0  0  1  0  0  0  0  0  0  0  0  0
   -0.7791    0.7756   -0.8872 N   0  0  0  0  0  0  0  0  0  0  0  0
   -1.1382   -0.3338   -1.3832 C   0  0  0  0  0  0  0  0  0  0  0  0
   -0.8696   -1.4862   -0.6915 O   0  0  0  0  0  0  0  0  0  0  0  0
   -0.1993   -1.0790    0.4709 C   0  0  0  0  0  0  0  0  0  0  0  0
    0.1982   -1.8500    1.2834 O   0  0  0  0  0  0  0  0  0  0  0  0
    0.8245    2.6169   -0.4740 H   0  0  0  0  0  0  0  0  0  0  0  0
    1.8917    0.5103   -0.4055 H   0  0  0  0  0  0  0  0  0  0  0  0
    1.7863    0.7070    1.3563 H   0  0  0  0  0  0  0  0  0  0  0  0
   -0.6726    0.8911    1.2150 H   0  0  0  0  0  0  0  0  0  0  0  0
   -1.6481   -0.4833   -2.3273 H   0  0  0  0  0  0  0  0  0  0  0  0
  1  2  1  0  0  0  0
  2 11  1  0  0  0  0
  3  2  1  0  0  0  0
  3  7  1  0  0  0  0
  3 12  1  1  0  0  0
  4  3  1  0  0  0  0
  5  4  2  0  0  0  0
  5  6  1  0  0  0  0
  6  7  1  0  0  0  0
  7  8  2  0  0  0  0
  9  1  1  0  0  0  0
 10  2  1  0  0  0  0
 13  5  1  0  0  0  0
M  END
