17
title
C 1.7366844 1.9951903 0.17882521
C 1.7119641 0.46935186 0.29570916
N 0.36767703 -0.08248331 0.29342327
C -0.37827486 -0.49008727 1.3881966
N -1.549098 -0.9466238 1.1550927
C -1.7046359 -0.8690201 -0.30419683
C -0.3994395 -0.28448075 -0.85037166
N 0.021028457 -0.0020485073 -2.0184324
H 2.7703018 2.3548899 0.17630893
H 1.260485 2.3084235 -0.75303525
H 1.2123123 2.4649394 1.0168679
H 2.2469795 0.023333535 -0.5482611
H 2.2044168 0.14082877 1.2168854
H 0.059102714 -0.41119128 2.379027
H -1.9011362 -1.86316 -0.72225296
H -2.5613873 -0.23663713 -0.564903
H -0.6805529 -0.23487933 -2.719407
