15
title
C -0.48897237 2.5213323 0.9827292
O -0.7235622 1.1411089 0.8121437
C 0.04768117 0.5598968 -0.21311365
C 1.498709 0.26731402 0.105248995
C 1.7106221 -1.0408542 -0.061124075
N 0.54514915 -1.7139821 -0.45990753
C -0.53540736 -0.85167956 -0.51471186
O -1.6787645 -1.1448708 -0.75228536
H 0.53867203 2.7333245 1.3130773
H -0.67736375 3.0805125 0.05294795
H -1.1819589 2.8692465 1.7520349
H -0.039638977 1.1599773 -1.1367958
H 2.2420444 1.0004361 0.37651682
H 2.627553 -1.6032813 0.049081873
H 0.44185433 -2.7126334 -0.52926576
