14
title
O 1.3137523 2.36805 0.27821693
C 1.306984 0.9661111 0.3986935
C -0.13081798 0.42226228 0.3757828
N -0.7826415 0.7795021 -0.89416426
C -1.1584538 -0.32297942 -1.4183681
N -0.8775502 -1.4680604 -0.68610543
C -0.20255026 -1.1056219 0.48136586
O 0.21556047 -1.8496851 1.3317269
H 0.7691671 2.576724 -0.4911115
H 1.8851955 0.48100936 -0.40411475
H 1.7752612 0.70940554 1.3529909
H -0.6806858 0.8776066 1.2078975
H -1.6655575 -0.40640923 -2.3743129
H -1.0844523 -2.418405 -0.9486454
