title
 OpenBabel02282110003D

 16 16  0  0  0  0  0  0  0  0999 V2000
    1.7649    2.0050    0.3771 C   0  0  0  0  0  0  0  0  0  0  0  0
    1.7191    0.4845    0.2097 C   0  0  0  0  0  0  0  0  0  0  0  0
    0.3702   -0.0554    0.2539 N   0  0  0  0  0  0  0  0  0  0  0  0
   -0.3999   -0.3318    1.3797 C   0  0  0  0  0  0  0  0  0  0  0  0
   -1.5729   -0.7942    1.1747 N   0  0  0  0  0  0  0  0  0  0  0  0
   -1.7077   -0.8740   -0.2830 C   0  0  0  0  0  0  0  0  0  0  0  0
   -0.3868   -0.3717   -0.8742 C   0  0  0  0  0  0  0  0  0  0  0  0
   -0.0273   -0.2581   -2.0219 O   0  0  0  0  0  0  0  0  0  0  0  0
    2.7995    2.3577    0.3277 H   0  0  0  0  0  0  0  0  0  0  0  0
    1.1964    2.4961   -0.4173 H   0  0  0  0  0  0  0  0  0  0  0  0
    1.3470    2.3135    1.3406 H   0  0  0  0  0  0  0  0  0  0  0  0
    2.1253    0.1976   -0.7642 H   0  0  0  0  0  0  0  0  0  0  0  0
    2.3187   -0.0093    0.9821 H   0  0  0  0  0  0  0  0  0  0  0  0
    0.0207   -0.1539    2.3651 H   0  0  0  0  0  0  0  0  0  0  0  0
   -1.9078   -1.9024   -0.6026 H   0  0  0  0  0  0  0  0  0  0  0  0
   -2.5456   -0.2618   -0.6340 H   0  0  0  0  0  0  0  0  0  0  0  0
  1 11  1  0  0  0  0
  2  3  1  0  0  0  0
  2  1  1  0  0  0  0
  2 13  1  0  0  0  0
  3  4  1  0  0  0  0
  4 14  1  0  0  0  0
  5  4  2  0  0  0  0
  6  5  1  0  0  0  0
  7  6  1  0  0  0  0
  7  3  1  0  0  0  0
  8  7  2  0  0  0  0
  9  1  1  0  0  0  0
 10  1  1  0  0  0  0
 12  2  1  0  0  0  0
 15  6  1  0  0  0  0
 16  6  1  0  0  0  0
M  END
