17
title
C -1.2902666 1.5633185 -1.0098178
C -0.9530423 0.08383262 -0.89524764
O 0.064869285 -0.24093336 -1.8951536
C 1.1005055 -0.7673426 -1.2120869
N 1.0225435 -0.9247225 0.04269638
C -0.3137377 -0.42442203 0.43571594
C -0.13293362 0.58235776 1.5783247
O 0.5046158 -0.036831457 2.6738713
H -0.41645807 2.1903577 -0.81589097
H -1.6535968 1.7856078 -2.0166056
H -2.0763583 1.8322961 -0.29769817
H -1.832626 -0.5139804 -1.1513681
H 1.957874 -1.0245901 -1.8250403
H -0.88606644 -1.2670252 0.84050214
H 0.43896282 1.4525311 1.2198855
H -1.1040944 0.942776 1.93461
H 1.264054 -0.50491625 2.3028042
