18
title
C -1.336434 2.1115324 0.80089194
O -0.18356258 1.2962707 0.9364527
C 0.21783596 0.6653163 -0.2735882
C 1.62562 0.14763653 -0.14631037
C 1.7369756 -1.1031516 -0.58681685
C 0.42367983 -1.6578443 -1.0796711
C -0.6220264 -0.62678456 -0.5821454
O -1.2617158 -1.0846372 0.59358555
H -1.1827444 2.8894608 0.039233048
H -2.223212 1.5218977 0.534223
H -1.5047127 2.5902112 1.7684067
H 0.13145804 1.3930838 -1.0969172
H 2.4236996 0.77037007 0.23969074
H 2.661914 -1.668755 -0.622654
H 0.41814315 -1.7400165 -2.1752017
H 0.19105065 -2.6510134 -0.68205374
H -1.3917817 -0.44096768 -1.3404144
H -0.95963174 -0.50284886 1.3050749
