title
 OpenBabel02282110003D

 17 17  0  0  1  0  0  0  0  0999 V2000
   -1.2903    1.5633   -1.0098 C   0  0  0  0  0  0  0  0  0  0  0  0
   -0.9530    0.0838   -0.8952 C   0  0  1  0  0  0  0  0  0  0  0  0
    0.0649   -0.2409   -1.8952 O   0  0  0  0  0  0  0  0  0  0  0  0
    1.1005   -0.7673   -1.2121 C   0  0  0  0  0  0  0  0  0  0  0  0
    1.0225   -0.9247    0.0427 N   0  0  0  0  0  0  0  0  0  0  0  0
   -0.3137   -0.4244    0.4357 C   0  0  1  0  0  0  0  0  0  0  0  0
   -0.1329    0.5824    1.5783 C   0  0  0  0  0  0  0  0  0  0  0  0
    0.5046   -0.0368    2.6739 O   0  0  0  0  0  0  0  0  0  0  0  0
   -0.4165    2.1904   -0.8159 H   0  0  0  0  0  0  0  0  0  0  0  0
   -1.6536    1.7856   -2.0166 H   0  0  0  0  0  0  0  0  0  0  0  0
   -2.0764    1.8323   -0.2977 H   0  0  0  0  0  0  0  0  0  0  0  0
   -1.8326   -0.5140   -1.1514 H   0  0  0  0  0  0  0  0  0  0  0  0
    1.9579   -1.0246   -1.8250 H   0  0  0  0  0  0  0  0  0  0  0  0
   -0.8861   -1.2670    0.8405 H   0  0  0  0  0  0  0  0  0  0  0  0
    0.4390    1.4525    1.2199 H   0  0  0  0  0  0  0  0  0  0  0  0
   -1.1041    0.9428    1.9346 H   0  0  0  0  0  0  0  0  0  0  0  0
    1.2641   -0.5049    2.3028 H   0  0  0  0  0  0  0  0  0  0  0  0
  1  2  1  0  0  0  0
  1  9  1  0  0  0  0
  1 11  1  0  0  0  0
  2  6  1  1  0  0  0
  3  4  1  0  0  0  0
  3  2  1  0  0  0  0
  4  5  2  0  0  0  0
  5  6  1  0  0  0  0
  6 14  1  1  0  0  0
  6  7  1  0  0  0  0
  7 16  1  0  0  0  0
  7  8  1  0  0  0  0
 10  1  1  0  0  0  0
 12  2  1  0  0  0  0
 13  4  1  0  0  0  0
 15  7  1  0  0  0  0
 17  8  1  0  0  0  0
M  END
