title
 OpenBabel02282110003D

 18 18  0  0  1  0  0  0  0  0999 V2000
    1.4872    2.0906   -0.9296 C   0  0  0  0  0  0  0  0  0  0  0  0
    1.4817    0.5654   -0.7923 C   0  0  0  0  0  0  0  0  0  0  0  0
    0.0730   -0.0510   -0.7009 C   0  0  1  0  0  0  0  0  0  0  0  0
    0.0450   -1.5939   -0.8008 C   0  0  0  0  0  0  0  0  0  0  0  0
   -0.7582   -2.0424    0.3923 C   0  0  0  0  0  0  0  0  0  0  0  0
   -1.1354   -1.0292    1.1795 C   0  0  0  0  0  0  0  0  0  0  0  0
   -0.6475    0.2567    0.6307 C   0  0  0  0  0  0  0  0  0  0  0  0
   -0.7845    1.3512    1.1319 O   0  0  0  0  0  0  0  0  0  0  0  0
    2.5124    2.4715   -0.9755 H   0  0  0  0  0  0  0  0  0  0  0  0
    0.9756    2.4000   -1.8484 H   0  0  0  0  0  0  0  0  0  0  0  0
    0.9746    2.5600   -0.0883 H   0  0  0  0  0  0  0  0  0  0  0  0
    1.9943    0.1173   -1.6530 H   0  0  0  0  0  0  0  0  0  0  0  0
    2.0578    0.2667    0.0936 H   0  0  0  0  0  0  0  0  0  0  0  0
   -0.5450    0.3830   -1.4977 H   0  0  0  0  0  0  0  0  0  0  0  0
   -0.3968   -1.9527   -1.7382 H   0  0  0  0  0  0  0  0  0  0  0  0
    1.0558   -2.0216   -0.7621 H   0  0  0  0  0  0  0  0  0  0  0  0
   -0.9800   -3.0896    0.5714 H   0  0  0  0  0  0  0  0  0  0  0  0
   -1.7005   -1.0878    2.1009 H   0  0  0  0  0  0  0  0  0  0  0  0
  1  2  1  0  0  0  0
  1 11  1  0  0  0  0
  2  3  1  0  0  0  0
  2 13  1  0  0  0  0
  3 14  1  6  0  0  0
  3  7  1  0  0  0  0
  4 16  1  0  0  0  0
  4  3  1  0  0  0  0
  4  5  1  0  0  0  0
  5 17  1  0  0  0  0
  5  6  2  0  0  0  0
  6 18  1  0  0  0  0
  7  8  2  0  0  0  0
  7  6  1  0  0  0  0
  9  1  1  0  0  0  0
 10  1  1  0  0  0  0
 12  2  1  0  0  0  0
 15  4  1  0  0  0  0
M  END
