22
title
C -0.90070146 2.4584215 1.1169401
C -0.7566874 0.9339058 1.0637631
C -0.47081342 0.3932161 -0.35439253
C 0.86702883 0.8694769 -0.88673854
C 1.7817358 -0.0991408 -0.895916
C 1.214104 -1.4111499 -0.41171432
C -0.3160502 -1.1611263 -0.4586718
C -1.12781 -2.0068254 0.5212439
H 0.02584252 2.9627192 0.8250404
H -1.6928945 2.8037775 0.44252393
H -1.1552275 2.795256 2.1267686
H 0.045726035 0.6191244 1.7430567
H -1.6798052 0.47697544 1.439662
H -1.2970462 0.72746557 -0.9976791
H 1.0500079 1.8991356 -1.1740867
H 2.8195114 0.021599371 -1.1881443
H 1.5113956 -2.2667603 -1.0293998
H 1.5602714 -1.6367532 0.608485
H -0.6388356 -1.4229804 -1.474281
H -0.83034927 -1.828839 1.5598023
H -2.2007425 -1.8005561 0.4405209
H -0.9830033 -3.0734565 0.31780398
