title
 OpenBabel02282110003D

 20 20  0  0  1  0  0  0  0  0999 V2000
   -1.6839    1.3887   -0.9235 C   0  0  0  0  0  0  0  0  0  0  0  0
   -0.9228    0.0623   -0.9235 C   0  0  1  0  0  0  0  0  0  0  0  0
    0.2718    0.0070   -1.9132 C   0  0  0  0  0  0  0  0  0  0  0  0
    1.2101   -0.9779   -1.2587 C   0  0  0  0  0  0  0  0  0  0  0  0
    0.8759   -1.2195    0.0078 C   0  0  0  0  0  0  0  0  0  0  0  0
   -0.3343   -0.4187    0.4419 C   0  0  1  0  0  0  0  0  0  0  0  0
    0.0641    0.6982    1.4139 C   0  0  0  0  0  0  0  0  0  0  0  0
    0.5961    0.0739    2.5756 O   0  0  0  0  0  0  0  0  0  0  0  0
   -1.0391    2.2316   -0.6519 H   0  0  0  0  0  0  0  0  0  0  0  0
   -2.0881    1.5977   -1.9198 H   0  0  0  0  0  0  0  0  0  0  0  0
   -2.5271    1.3721   -0.2245 H   0  0  0  0  0  0  0  0  0  0  0  0
   -1.6217   -0.7229   -1.2364 H   0  0  0  0  0  0  0  0  0  0  0  0
   -0.0424   -0.2942   -2.9196 H   0  0  0  0  0  0  0  0  0  0  0  0
    0.7525    0.9908   -2.0266 H   0  0  0  0  0  0  0  0  0  0  0  0
    2.0680   -1.3998   -1.7714 H   0  0  0  0  0  0  0  0  0  0  0  0
    1.4167   -1.8581    0.6953 H   0  0  0  0  0  0  0  0  0  0  0  0
   -1.0610   -1.0426    0.9777 H   0  0  0  0  0  0  0  0  0  0  0  0
    0.8093    1.3586    0.9425 H   0  0  0  0  0  0  0  0  0  0  0  0
   -0.8147    1.3111    1.6663 H   0  0  0  0  0  0  0  0  0  0  0  0
    0.8736    0.7626    3.1862 H   0  0  0  0  0  0  0  0  0  0  0  0
  1  2  1  0  0  0  0
  1  9  1  0  0  0  0
  1 11  1  0  0  0  0
  2  6  1  1  0  0  0
  3  4  1  0  0  0  0
  3  2  1  0  0  0  0
  4  5  2  0  0  0  0
  5  6  1  0  0  0  0
  5 16  1  0  0  0  0
  6 17  1  1  0  0  0
  6  7  1  0  0  0  0
  7 19  1  0  0  0  0
  7  8  1  0  0  0  0
  8 20  1  0  0  0  0
 10  1  1  0  0  0  0
 12  2  1  0  0  0  0
 13  3  1  0  0  0  0
 14  3  1  0  0  0  0
 15  4  1  0  0  0  0
 18  7  1  0  0  0  0
M  END
