title
 OpenBabel02282110003D

 17 17  0  0  0  0  0  0  0  0999 V2000
    1.7753    2.0049    0.4732 C   0  0  0  0  0  0  0  0  0  0  0  0
    1.6732    0.5044    0.1816 C   0  0  0  0  0  0  0  0  0  0  0  0
    0.3212   -0.0096    0.2432 N   0  0  0  0  0  0  0  0  0  0  0  0
   -0.4289   -0.2014    1.4624 C   0  0  0  0  0  0  0  0  0  0  0  0
   -1.7199   -0.8015    0.9717 C   0  0  0  0  0  0  0  0  0  0  0  0
   -1.6874   -0.9305   -0.3546 C   0  0  0  0  0  0  0  0  0  0  0  0
   -0.3771   -0.4358   -0.8718 C   0  0  0  0  0  0  0  0  0  0  0  0
    0.0241   -0.4036   -2.0191 O   0  0  0  0  0  0  0  0  0  0  0  0
    2.8168    2.3336    0.3999 H   0  0  0  0  0  0  0  0  0  0  0  0
    1.1827    2.5782   -0.2455 H   0  0  0  0  0  0  0  0  0  0  0  0
    1.4210    2.2473    1.4806 H   0  0  0  0  0  0  0  0  0  0  0  0
    2.0230    0.2925   -0.8325 H   0  0  0  0  0  0  0  0  0  0  0  0
    2.3086   -0.0585    0.8791 H   0  0  0  0  0  0  0  0  0  0  0  0
    0.0926   -0.8732    2.1623 H   0  0  0  0  0  0  0  0  0  0  0  0
   -0.6030    0.7429    1.9999 H   0  0  0  0  0  0  0  0  0  0  0  0
   -2.5252   -1.0677    1.6436 H   0  0  0  0  0  0  0  0  0  0  0  0
   -2.4486   -1.3241   -1.0126 H   0  0  0  0  0  0  0  0  0  0  0  0
  1 11  1  0  0  0  0
  2  3  1  0  0  0  0
  2  1  1  0  0  0  0
  2 13  1  0  0  0  0
  3  4  1  0  0  0  0
  4 15  1  0  0  0  0
  4 14  1  0  0  0  0
  5  4  1  0  0  0  0
  5 16  1  0  0  0  0
  6  5  2  0  0  0  0
  7  6  1  0  0  0  0
  7  3  1  0  0  0  0
  8  7  2  0  0  0  0
  9  1  1  0  0  0  0
 10  1  1  0  0  0  0
 12  2  1  0  0  0  0
 17  6  1  0  0  0  0
M  END
