title
 OpenBabel02282110003D

 19 19  0  0  1  0  0  0  0  0999 V2000
   -1.0381    2.5712    0.8789 C   0  0  0  0  0  0  0  0  0  0  0  0
   -1.0191    1.0410    0.9237 C   0  0  0  0  0  0  0  0  0  0  0  0
   -0.3912    0.4315   -0.3350 C   0  0  1  0  0  0  0  0  0  0  0  0
    1.0327    0.8136   -0.4638 N   0  0  0  0  0  0  0  0  0  0  0  0
    1.6626   -0.2572   -0.7051 C   0  0  0  0  0  0  0  0  0  0  0  0
    1.0037   -1.4346   -0.7800 O   0  0  0  0  0  0  0  0  0  0  0  0
   -0.3841   -1.1326   -0.4389 C   0  0  1  0  0  0  0  0  0  0  0  0
   -0.7540   -1.9326    0.8021 C   0  0  0  0  0  0  0  0  0  0  0  0
   -0.0247    2.9637    0.7655 H   0  0  0  0  0  0  0  0  0  0  0  0
   -1.6339    2.9338    0.0336 H   0  0  0  0  0  0  0  0  0  0  0  0
   -1.4715    2.9850    1.7944 H   0  0  0  0  0  0  0  0  0  0  0  0
   -0.4619    0.7056    1.8056 H   0  0  0  0  0  0  0  0  0  0  0  0
   -2.0426    0.6609    1.0318 H   0  0  0  0  0  0  0  0  0  0  0  0
   -0.9203    0.8466   -1.2036 H   0  0  0  0  0  0  0  0  0  0  0  0
    2.7327   -0.3338   -0.8673 H   0  0  0  0  0  0  0  0  0  0  0  0
   -0.9886   -1.4686   -1.2864 H   0  0  0  0  0  0  0  0  0  0  0  0
   -0.1424   -1.6426    1.6607 H   0  0  0  0  0  0  0  0  0  0  0  0
   -1.8063   -1.7826    1.0598 H   0  0  0  0  0  0  0  0  0  0  0  0
   -0.5973   -2.9984    0.6151 H   0  0  0  0  0  0  0  0  0  0  0  0
  1  2  1  0  0  0  0
  1 11  1  0  0  0  0
  2 13  1  0  0  0  0
  2 12  1  0  0  0  0
  3  7  1  1  0  0  0
  3  2  1  0  0  0  0
  4  3  1  0  0  0  0
  5  4  2  0  0  0  0
  6  5  1  0  0  0  0
  6  7  1  0  0  0  0
  7 16  1  6  0  0  0
  7  8  1  0  0  0  0
  8 18  1  0  0  0  0
  8 17  1  0  0  0  0
  9  1  1  0  0  0  0
 10  1  1  0  0  0  0
 14  3  1  0  0  0  0
 15  5  1  0  0  0  0
 19  8  1  0  0  0  0
M  END
