19
title
C -1.0380561 2.5711865 0.87893015
C -1.0191433 1.0409727 0.92365503
C -0.39121816 0.43151364 -0.33499825
N 1.0327344 0.8135993 -0.46376824
C 1.6625702 -0.2571763 -0.7050519
O 1.0037186 -1.4345831 -0.77995443
C -0.38409427 -1.1326009 -0.4388672
C -0.75397575 -1.9326218 0.8021293
H -0.02469416 2.9637046 0.7655386
H -1.6338669 2.9338036 0.033608615
H -1.4715425 2.9849925 1.7944264
H -0.46192995 0.70562017 1.8055795
H -2.0426145 0.6608976 1.0317892
H -0.92028004 0.84663504 -1.2036114
H 2.732656 -0.33383253 -0.8672801
H -0.9886428 -1.4685932 -1.2863727
H -0.14238383 -1.642584 1.6606649
H -1.8063465 -1.7826432 1.0598481
H -0.59733385 -2.9983714 0.6150795
