title
 OpenBabel02282110003D

 20 20  0  0  1  0  0  0  0  0999 V2000
   -0.2024    2.5852   -1.4507 C   0  0  0  0  0  0  0  0  0  0  0  0
   -0.2057    1.0538   -1.4115 C   0  0  0  0  0  0  0  0  0  0  0  0
    0.4110    0.4757   -0.1299 C   0  0  1  0  0  0  0  0  0  0  0  0
   -0.3825    0.6732    1.1484 C   0  0  0  0  0  0  0  0  0  0  0  0
   -0.2990   -0.3864    1.9545 C   0  0  0  0  0  0  0  0  0  0  0  0
    0.5665   -1.4705    1.3524 C   0  0  0  0  0  0  0  0  0  0  0  0
    0.6136   -1.0705   -0.1429 C   0  0  1  0  0  0  0  0  0  0  0  0
   -0.3956   -1.7434   -0.8848 O   0  0  0  0  0  0  0  0  0  0  0  0
    0.8164    2.9817   -1.3734 H   0  0  0  0  0  0  0  0  0  0  0  0
   -0.6324    2.9553   -2.3867 H   0  0  0  0  0  0  0  0  0  0  0  0
   -0.7855    3.0162   -0.6297 H   0  0  0  0  0  0  0  0  0  0  0  0
   -1.2293    0.6813   -1.5283 H   0  0  0  0  0  0  0  0  0  0  0  0
    0.3512    0.6660   -2.2728 H   0  0  0  0  0  0  0  0  0  0  0  0
    1.4017    0.9421    0.0006 H   0  0  0  0  0  0  0  0  0  0  0  0
   -0.9185    1.5883    1.3750 H   0  0  0  0  0  0  0  0  0  0  0  0
   -0.7525   -0.4671    2.9363 H   0  0  0  0  0  0  0  0  0  0  0  0
    1.5697   -1.4646    1.8021 H   0  0  0  0  0  0  0  0  0  0  0  0
    0.1713   -2.4851    1.4703 H   0  0  0  0  0  0  0  0  0  0  0  0
    1.5516   -1.3537   -0.6276 H   0  0  0  0  0  0  0  0  0  0  0  0
   -1.2385   -1.5557   -0.4553 H   0  0  0  0  0  0  0  0  0  0  0  0
  1  2  1  0  0  0  0
  1  9  1  0  0  0  0
  1 11  1  0  0  0  0
  2  3  1  0  0  0  0
  3  7  1  6  0  0  0
  3 14  1  0  0  0  0
  3  4  1  0  0  0  0
  4 15  1  0  0  0  0
  4  5  2  0  0  0  0
  5 16  1  0  0  0  0
  6 18  1  0  0  0  0
  6 17  1  0  0  0  0
  6  5  1  0  0  0  0
  7 19  1  6  0  0  0
  7  6  1  0  0  0  0
  8 20  1  0  0  0  0
  8  7  1  0  0  0  0
 10  1  1  0  0  0  0
 12  2  1  0  0  0  0
 13  2  1  0  0  0  0
M  END
