title
 OpenBabel02282110003D

 18 18  0  0  1  0  0  0  0  0999 V2000
    1.1714    2.4341    0.4975 O   0  0  0  0  0  0  0  0  0  0  0  0
    1.2945    1.0177    0.5563 C   0  0  0  0  0  0  0  0  0  0  0  0
   -0.1127    0.4396    0.4464 C   0  0  1  0  0  0  0  0  0  0  0  0
   -0.8071    0.6789   -0.8778 C   0  0  0  0  0  0  0  0  0  0  0  0
   -1.5329   -0.3765   -1.2496 C   0  0  0  0  0  0  0  0  0  0  0  0
   -1.4455   -1.4939   -0.2328 C   0  0  0  0  0  0  0  0  0  0  0  0
   -0.1907   -1.1072    0.5885 C   0  0  1  0  0  0  0  0  0  0  0  0
    0.9740   -1.7533    0.0833 O   0  0  0  0  0  0  0  0  0  0  0  0
    2.0560    2.8109    0.5005 H   0  0  0  0  0  0  0  0  0  0  0  0
    1.9258    0.6396   -0.2596 H   0  0  0  0  0  0  0  0  0  0  0  0
    1.7559    0.6931    1.5016 H   0  0  0  0  0  0  0  0  0  0  0  0
   -0.7044    0.9041    1.2499 H   0  0  0  0  0  0  0  0  0  0  0  0
   -0.7255    1.6201   -1.4079 H   0  0  0  0  0  0  0  0  0  0  0  0
   -2.1479   -0.4357   -2.1408 H   0  0  0  0  0  0  0  0  0  0  0  0
   -2.3455   -1.5223    0.3975 H   0  0  0  0  0  0  0  0  0  0  0  0
   -1.3296   -2.4940   -0.6647 H   0  0  0  0  0  0  0  0  0  0  0  0
   -0.2535   -1.4228    1.6329 H   0  0  0  0  0  0  0  0  0  0  0  0
    1.0120   -1.5707   -0.8630 H   0  0  0  0  0  0  0  0  0  0  0  0
  1  9  1  0  0  0  0
  1  2  1  0  0  0  0
  2 11  1  0  0  0  0
  3  2  1  0  0  0  0
  3  7  1  1  0  0  0
  3 12  1  0  0  0  0
  4  3  1  0  0  0  0
  5  4  2  0  0  0  0
  5  6  1  0  0  0  0
  6 15  1  0  0  0  0
  6  7  1  0  0  0  0
  7 17  1  1  0  0  0
  8  7  1  0  0  0  0
 10  2  1  0  0  0  0
 13  4  1  0  0  0  0
 14  5  1  0  0  0  0
 16  6  1  0  0  0  0
 18  8  1  0  0  0  0
M  END
