title
 OpenBabel02282110003D

 17 17  0  0  1  0  0  0  0  0999 V2000
   -0.1681    2.4767   -0.8484 C   0  0  0  0  0  0  0  0  0  0  0  0
   -0.0281    1.0691   -0.9596 O   0  0  0  0  0  0  0  0  0  0  0  0
    0.5189    0.4630    0.1565 C   0  0  1  0  0  0  0  0  0  0  0  0
   -0.4061    0.5328    1.2753 O   0  0  0  0  0  0  0  0  0  0  0  0
   -0.8923   -0.7299    1.4136 C   0  0  0  0  0  0  0  0  0  0  0  0
   -0.3862   -1.6749    0.7430 N   0  0  0  0  0  0  0  0  0  0  0  0
    0.6937   -1.0650   -0.0621 C   0  0  1  0  0  0  0  0  0  0  0  0
    0.6515   -1.5257   -1.5157 C   0  0  0  0  0  0  0  0  0  0  0  0
    0.8000    2.9548   -0.6383 H   0  0  0  0  0  0  0  0  0  0  0  0
   -0.5432    2.8347   -1.8089 H   0  0  0  0  0  0  0  0  0  0  0  0
   -0.8757    2.7461   -0.0563 H   0  0  0  0  0  0  0  0  0  0  0  0
    1.4276    0.9870    0.4803 H   0  0  0  0  0  0  0  0  0  0  0  0
   -1.7026   -0.8231    2.1283 H   0  0  0  0  0  0  0  0  0  0  0  0
    1.6472   -1.3741    0.3848 H   0  0  0  0  0  0  0  0  0  0  0  0
   -0.2906   -1.2392   -1.9858 H   0  0  0  0  0  0  0  0  0  0  0  0
    1.4705   -1.0843   -2.0905 H   0  0  0  0  0  0  0  0  0  0  0  0
    0.7452   -2.6138   -1.5497 H   0  0  0  0  0  0  0  0  0  0  0  0
  1  9  1  0  0  0  0
  1 11  1  0  0  0  0
  2  1  1  0  0  0  0
  2  3  1  0  0  0  0
  3  7  1  6  0  0  0
  3 12  1  0  0  0  0
  3  4  1  0  0  0  0
  4  5  1  0  0  0  0
  5 13  1  0  0  0  0
  6  5  2  0  0  0  0
  7 14  1  1  0  0  0
  7  6  1  0  0  0  0
  8  7  1  0  0  0  0
 10  1  1  0  0  0  0
 15  8  1  0  0  0  0
 16  8  1  0  0  0  0
 17  8  1  0  0  0  0
M  END
