title
 OpenBabel02282110003D

 16 16  0  0  1  0  0  0  0  0999 V2000
    1.1055    2.2635   -0.5387 C   0  0  0  0  0  0  0  0  0  0  0  0
    1.1524    0.8657   -0.7795 O   0  0  0  0  0  0  0  0  0  0  0  0
   -0.0867    0.2113   -0.6440 C   0  0  1  0  0  0  0  0  0  0  0  0
   -0.0129   -1.1984   -1.2561 C   0  0  0  0  0  0  0  0  0  0  0  0
   -0.5791   -2.0988   -0.1885 C   0  0  0  0  0  0  0  0  0  0  0  0
   -0.8393   -1.4623    0.9607 C   0  0  0  0  0  0  0  0  0  0  0  0
   -0.5013   -0.0295    0.8351 C   0  0  0  0  0  0  0  0  0  0  0  0
   -0.5266    0.8146    1.7025 O   0  0  0  0  0  0  0  0  0  0  0  0
    2.1107    2.6460   -0.7311 H   0  0  0  0  0  0  0  0  0  0  0  0
    0.3993    2.7567   -1.2254 H   0  0  0  0  0  0  0  0  0  0  0  0
    0.8135    2.4906    0.4907 H   0  0  0  0  0  0  0  0  0  0  0  0
   -0.8874    0.8021   -1.1209 H   0  0  0  0  0  0  0  0  0  0  0  0
   -0.5575   -1.2888   -2.2020 H   0  0  0  0  0  0  0  0  0  0  0  0
    1.0336   -1.4463   -1.4685 H   0  0  0  0  0  0  0  0  0  0  0  0
   -0.7372   -3.1582   -0.3623 H   0  0  0  0  0  0  0  0  0  0  0  0
   -1.2190   -1.8958    1.8771 H   0  0  0  0  0  0  0  0  0  0  0  0
  1 11  1  0  0  0  0
  2  3  1  0  0  0  0
  2  1  1  0  0  0  0
  3 12  1  6  0  0  0
  3  7  1  0  0  0  0
  4  3  1  0  0  0  0
  4  5  1  0  0  0  0
  5  6  2  0  0  0  0
  6 16  1  0  0  0  0
  7  6  1  0  0  0  0
  7  8  2  0  0  0  0
  9  1  1  0  0  0  0
 10  1  1  0  0  0  0
 13  4  1  0  0  0  0
 14  4  1  0  0  0  0
 15  5  1  0  0  0  0
M  END
