16
title
O 1.4090562 1.9074049 -0.83936614
C 1.4562526 0.5020113 -0.81631345
C 0.049314298 -0.11603533 -0.72737545
C -0.014195882 -1.655898 -0.74919176
C -0.84712285 -2.0129373 0.45642635
C -1.1924775 -0.94885224 1.1928817
C -0.6295716 0.27633914 0.59321624
O -0.64805883 1.3999339 1.0606532
H 0.8277329 2.1719716 -0.11014071
H 1.9453735 0.17788614 -1.7420425
H 2.0668979 0.12202962 0.022524027
H -0.54677635 0.3119948 -1.5419904
H -0.4507707 -2.053691 -1.6721314
H 0.9835031 -2.1090806 -0.66728914
H -1.1087604 -3.040831 0.685473
H -1.7614772 -0.94350666 2.1133537
