20
title
C -1.0550951 2.7064996 0.4616909
C -1.2070012 1.1820959 0.46194765
C -0.16070606 0.46607795 -0.3946422
C 1.3126533 0.6267724 0.06986269
C 1.9353199 -0.70180404 -0.2842454
C 1.028379 -1.6088139 -0.6483322
C -0.37847435 -1.074756 -0.5232422
O -1.0664644 -1.6798717 0.5761346
H -0.08438815 3.0162776 0.8638916
H -1.1356529 3.1133695 -0.5528794
H -1.8306292 3.1803858 1.0715938
H -1.1543655 0.80377775 1.4897134
H -2.2068195 0.9128456 0.10094735
H -0.21909769 0.86552113 -1.4157676
H 1.8150225 1.4671435 -0.42193422
H 1.3901615 0.820701 1.150195
H 3.005146 -0.8762548 -0.2286757
H 1.2312615 -2.6390216 -0.9191285
H -1.0110812 -1.3065344 -1.386418
H -0.4491294 -1.7135247 1.315307
