title
 OpenBabel02282110003D

 17 17  0  0  1  0  0  0  0  0999 V2000
   -1.1897    1.7839   -0.9014 C   0  0  0  0  0  0  0  0  0  0  0  0
   -1.1225    0.2726   -0.6791 C   0  0  1  0  0  0  0  0  0  0  0  0
   -0.4659   -0.4045   -1.8205 N   0  0  0  0  0  0  0  0  0  0  0  0
    0.3946   -1.1854   -1.3225 C   0  0  0  0  0  0  0  0  0  0  0  0
    0.5553   -1.2519    0.0227 O   0  0  0  0  0  0  0  0  0  0  0  0
   -0.3279   -0.2220    0.5711 C   0  0  1  0  0  0  0  0  0  0  0  0
    0.5643    0.7785    1.2977 C   0  0  0  0  0  0  0  0  0  0  0  0
    1.2891    0.1526    2.3373 O   0  0  0  0  0  0  0  0  0  0  0  0
   -0.1939    2.2219   -1.0088 H   0  0  0  0  0  0  0  0  0  0  0  0
   -1.7428    1.9862   -1.8218 H   0  0  0  0  0  0  0  0  0  0  0  0
   -1.7051    2.2844   -0.0757 H   0  0  0  0  0  0  0  0  0  0  0  0
   -2.1508   -0.1056   -0.6248 H   0  0  0  0  0  0  0  0  0  0  0  0
    1.0466   -1.8465   -1.8832 H   0  0  0  0  0  0  0  0  0  0  0  0
   -0.9680   -0.7207    1.3038 H   0  0  0  0  0  0  0  0  0  0  0  0
    1.2364    1.2678    0.5762 H   0  0  0  0  0  0  0  0  0  0  0  0
   -0.0493    1.5559    1.7637 H   0  0  0  0  0  0  0  0  0  0  0  0
    1.7619   -0.5849    1.9345 H   0  0  0  0  0  0  0  0  0  0  0  0
  1  2  1  0  0  0  0
  1 11  1  0  0  0  0
  2 12  1  0  0  0  0
  2  6  1  1  0  0  0
  3  4  2  0  0  0  0
  3  2  1  0  0  0  0
  4  5  1  0  0  0  0
  5  6  1  0  0  0  0
  6  7  1  0  0  0  0
  6 14  1  1  0  0  0
  7 16  1  0  0  0  0
  7  8  1  0  0  0  0
  9  1  1  0  0  0  0
 10  1  1  0  0  0  0
 13  4  1  0  0  0  0
 15  7  1  0  0  0  0
 17  8  1  0  0  0  0
M  END
