17
title
C -0.1681068 2.4766529 -0.8483746
O -0.02806354 1.0691342 -0.9595959
C 0.51890653 0.46295428 0.15654832
O -0.40605608 0.53283215 1.2753263
C -0.89225817 -0.7299219 1.4135633
N -0.3861815 -1.674914 0.7430081
C 0.69374883 -1.064993 -0.062079847
C 0.65154195 -1.5257198 -1.5156592
H 0.7999607 2.9548354 -0.6383378
H -0.5431548 2.8346596 -1.8089207
H -0.875665 2.7460563 -0.05633092
H 1.4276128 0.986997 0.48030525
H -1.7026149 -0.823075 2.1282887
H 1.6471769 -1.374098 0.38480407
H -0.29058844 -1.2392365 -1.9858325
H 1.470491 -1.0842577 -2.0904543
H 0.745248 -2.6137998 -1.5496775
