20
title
C -0.26287308 2.6887426 0.40085915
O -0.76174396 1.3794676 0.26438338
C 0.13620096 0.4864368 -0.3564677
C 1.3748332 0.09146026 0.49660003
C 1.5990292 -1.3449539 0.09206423
C 0.557683 -1.8456382 -0.5711831
C -0.57512 -0.8529519 -0.70683944
C -1.7584722 -1.1934711 0.21593466
H 0.6108576 2.735864 1.0677581
H 0.025920775 3.1165683 -0.572754
H -1.062363 3.2979782 0.8300241
H 0.50121117 0.93656886 -1.2946107
H 2.2430332 0.7318449 0.30527344
H 1.1456647 0.17898986 1.5681833
H 2.5031614 -1.8890868 0.3430517
H 0.47857505 -2.8642113 -0.9365258
H -0.9531467 -0.81389594 -1.7360303
H -1.4429609 -1.2479211 1.2621186
H -2.5405142 -0.43498716 0.13792077
H -2.1840575 -2.164302 -0.05850157
