20
title
C 1.3113363 2.206209 -0.7539194
O 1.2782553 0.8079313 -0.5877996
C -0.026990434 0.23650545 -0.54317945
C -0.024890563 -1.126707 -1.2649494
C -0.96348107 -2.0365455 -0.43914947
C -1.0081927 -1.3395976 0.8985574
C -0.49970487 -0.10678189 0.86271155
C -0.39670828 0.8723243 1.9887719
H 2.3627508 2.4957063 -0.83424574
H 0.7894214 2.5211947 -1.6711618
H 0.8663943 2.7467544 0.09456206
H -0.7322588 0.9411595 -1.0162905
H -0.3043801 -1.0497501 -2.3184586
H 1.0013634 -1.5033282 -1.2199152
H -1.9662455 -2.0936384 -0.8857043
H -0.60185874 -3.0690823 -0.37128776
H -1.441821 -1.7992631 1.7815685
H -0.751865 0.44149184 2.9289935
H 0.6420299 1.1927775 2.129195
H -0.9840976 1.7784268 1.7893419
