title
 OpenBabel02282110003D

 19 19  0  0  1  0  0  0  0  0999 V2000
   -0.4446    1.8365    1.9325 C   0  0  0  0  0  0  0  0  0  0  0  0
   -0.2454    0.3421    1.6713 C   0  0  0  0  0  0  0  0  0  0  0  0
    0.6676    0.0367    0.4609 C   0  0  1  0  0  0  0  0  0  0  0  0
    0.9585   -1.4660    0.2838 C   0  0  0  0  0  0  0  0  0  0  0  0
   -0.1653   -1.9126   -0.6596 C   0  0  0  0  0  0  0  0  0  0  0  0
   -0.4719   -0.7570   -1.4566 O   0  0  0  0  0  0  0  0  0  0  0  0
   -0.0085    0.3809   -0.8556 C   0  0  0  0  0  0  0  0  0  0  0  0
   -0.1424    1.5406   -1.3409 N   0  0  0  0  0  0  0  0  0  0  0  0
    0.5082    2.3200    2.1750 H   0  0  0  0  0  0  0  0  0  0  0  0
   -0.8527    2.3384    1.0523 H   0  0  0  0  0  0  0  0  0  0  0  0
   -1.1243    1.9950    2.7755 H   0  0  0  0  0  0  0  0  0  0  0  0
    0.2023   -0.1313    2.5540 H   0  0  0  0  0  0  0  0  0  0  0  0
   -1.2192   -0.1438    1.5251 H   0  0  0  0  0  0  0  0  0  0  0  0
    1.5836    0.6246    0.5570 H   0  0  0  0  0  0  0  0  0  0  0  0
    1.9301   -1.6136   -0.1970 H   0  0  0  0  0  0  0  0  0  0  0  0
    0.9585   -2.0199    1.2256 H   0  0  0  0  0  0  0  0  0  0  0  0
    0.1197   -2.7212   -1.3370 H   0  0  0  0  0  0  0  0  0  0  0  0
   -1.0673   -2.2174   -0.1149 H   0  0  0  0  0  0  0  0  0  0  0  0
   -0.6540    1.4992   -2.2246 H   0  0  0  0  0  0  0  0  0  0  0  0
  1  9  1  0  0  0  0
  1 11  1  0  0  0  0
  2  1  1  0  0  0  0
  2 12  1  0  0  0  0
  3 14  1  1  0  0  0
  3  2  1  0  0  0  0
  4  3  1  0  0  0  0
  4 16  1  0  0  0  0
  5 18  1  0  0  0  0
  5  4  1  0  0  0  0
  6  7  1  0  0  0  0
  6  5  1  0  0  0  0
  7  3  1  0  0  0  0
  8  7  2  0  0  0  0
 10  1  1  0  0  0  0
 13  2  1  0  0  0  0
 15  4  1  0  0  0  0
 17  5  1  0  0  0  0
 19  8  1  0  0  0  0
M  END
