title
 OpenBabel02282110003D

 20 20  0  0  1  0  0  0  0  0999 V2000
   -0.6823    1.9583   -0.7549 C   0  0  0  0  0  0  0  0  0  0  0  0
   -0.3794    0.4920   -0.7293 C   0  0  0  0  0  0  0  0  0  0  0  0
   -0.0572   -0.2768   -1.7724 C   0  0  0  0  0  0  0  0  0  0  0  0
    0.1750   -1.7192   -1.4003 C   0  0  0  0  0  0  0  0  0  0  0  0
   -0.3489   -1.7861    0.0578 C   0  0  0  0  0  0  0  0  0  0  0  0
   -0.3936   -0.3174    0.5619 C   0  0  1  0  0  0  0  0  0  0  0  0
    0.7898   -0.0031    1.4861 C   0  0  0  0  0  0  0  0  0  0  0  0
    0.6620    1.3272    1.9711 O   0  0  0  0  0  0  0  0  0  0  0  0
   -0.6105    2.3634   -1.7684 H   0  0  0  0  0  0  0  0  0  0  0  0
   -1.6959    2.1537   -0.3808 H   0  0  0  0  0  0  0  0  0  0  0  0
   -0.0032    2.5085   -0.0973 H   0  0  0  0  0  0  0  0  0  0  0  0
    0.0497    0.0874   -2.7896 H   0  0  0  0  0  0  0  0  0  0  0  0
   -0.3519   -2.4185   -2.0602 H   0  0  0  0  0  0  0  0  0  0  0  0
    1.2399   -1.9841   -1.4699 H   0  0  0  0  0  0  0  0  0  0  0  0
   -1.3604   -2.2023    0.0649 H   0  0  0  0  0  0  0  0  0  0  0  0
    0.2631   -2.4297    0.6979 H   0  0  0  0  0  0  0  0  0  0  0  0
   -1.3033   -0.1194    1.1437 H   0  0  0  0  0  0  0  0  0  0  0  0
    0.7893   -0.7224    2.3210 H   0  0  0  0  0  0  0  0  0  0  0  0
    1.7331   -0.1366    0.9322 H   0  0  0  0  0  0  0  0  0  0  0  0
    1.4276    1.5230    2.5189 H   0  0  0  0  0  0  0  0  0  0  0  0
  1  2  1  0  0  0  0
  1 10  1  0  0  0  0
  1 11  1  0  0  0  0
  2  6  1  0  0  0  0
  3  4  1  0  0  0  0
  3  2  2  0  0  0  0
  4  5  1  0  0  0  0
  5 15  1  0  0  0  0
  5  6  1  0  0  0  0
  5 16  1  0  0  0  0
  6 17  1  1  0  0  0
  6  7  1  0  0  0  0
  7  8  1  0  0  0  0
  7 18  1  0  0  0  0
  8 20  1  0  0  0  0
  9  1  1  0  0  0  0
 12  3  1  0  0  0  0
 13  4  1  0  0  0  0
 14  4  1  0  0  0  0
 19  7  1  0  0  0  0
M  END
