title
 OpenBabel02282110003D

 20 20  0  0  1  0  0  0  0  0999 V2000
    0.1110    2.1388    1.8101 C   0  0  0  0  0  0  0  0  0  0  0  0
   -0.0618    0.6180    1.7436 C   0  0  0  0  0  0  0  0  0  0  0  0
    0.4748   -0.0182    0.4540 C   0  0  1  0  0  0  0  0  0  0  0  0
    0.6120   -1.5516    0.4655 C   0  0  0  0  0  0  0  0  0  0  0  0
    0.6415   -1.9486   -1.0249 C   0  0  0  0  0  0  0  0  0  0  0  0
   -0.3826   -1.0053   -1.6736 C   0  0  0  0  0  0  0  0  0  0  0  0
   -0.3723    0.2562   -0.8008 C   0  0  0  0  0  0  0  0  0  0  0  0
   -0.9539    1.2814   -1.0563 O   0  0  0  0  0  0  0  0  0  0  0  0
    1.1709    2.4144    1.7593 H   0  0  0  0  0  0  0  0  0  0  0  0
   -0.4047    2.6223    0.9785 H   0  0  0  0  0  0  0  0  0  0  0  0
   -0.2896    2.5356    2.7482 H   0  0  0  0  0  0  0  0  0  0  0  0
    0.4510    0.1514    2.5943 H   0  0  0  0  0  0  0  0  0  0  0  0
   -1.1236    0.3607    1.8491 H   0  0  0  0  0  0  0  0  0  0  0  0
    1.4655    0.4126    0.2323 H   0  0  0  0  0  0  0  0  0  0  0  0
    1.4924   -1.8933    1.0161 H   0  0  0  0  0  0  0  0  0  0  0  0
   -0.2672   -1.9936    0.9530 H   0  0  0  0  0  0  0  0  0  0  0  0
    1.6396   -1.7618   -1.4381 H   0  0  0  0  0  0  0  0  0  0  0  0
    0.4167   -3.0055   -1.1876 H   0  0  0  0  0  0  0  0  0  0  0  0
   -0.1973   -0.7579   -2.7217 H   0  0  0  0  0  0  0  0  0  0  0  0
   -1.3968   -1.4230   -1.6218 H   0  0  0  0  0  0  0  0  0  0  0  0
  1 11  1  0  0  0  0
  2  1  1  0  0  0  0
  2 13  1  0  0  0  0
  2 12  1  0  0  0  0
  3 14  1  6  0  0  0
  3  4  1  0  0  0  0
  3  2  1  0  0  0  0
  4 16  1  0  0  0  0
  4 15  1  0  0  0  0
  5  4  1  0  0  0  0
  6 20  1  0  0  0  0
  6  5  1  0  0  0  0
  6  7  1  0  0  0  0
  7  3  1  0  0  0  0
  8  7  2  0  0  0  0
  9  1  1  0  0  0  0
 10  1  1  0  0  0  0
 17  5  1  0  0  0  0
 18  5  1  0  0  0  0
 19  6  1  0  0  0  0
M  END
