18
title
O 0.72684956 2.5594602 0.59471476
C 0.93658495 1.1707865 0.82430893
C -0.2992485 0.43565387 0.332343
C -0.59426284 0.6019304 -1.1808287
C -1.1451453 -0.7472928 -1.5717429
C -1.0089747 -1.6560752 -0.6051258
C -0.2645786 -1.1015556 0.5856611
O 1.051746 -1.661191 0.6855285
H 1.5201991 3.0296826 0.8665984
H 1.8260933 0.808533 0.28790373
H 1.0977999 0.9599799 1.8925328
H -1.1591655 0.8338471 0.883019
H -1.297429 1.418032 -1.374085
H 0.3094668 0.84457034 -1.7576567
H -1.5900108 -0.9353438 -2.543793
H -1.3053621 -2.6975362 -0.6618173
H -0.728696 -1.3515675 1.5451488
H 1.404368 -1.7182419 -0.20950879
