title
 OpenBabel02282110003D

 22 22  0  0  1  0  0  0  0  0999 V2000
   -2.7944    0.1501   -0.8471 C   0  0  0  0  0  0  0  0  0  0  0  0
   -1.3253    0.5635   -0.9808 C   0  0  0  0  0  0  0  0  0  0  0  0
   -0.4600    0.1420    0.2173 C   0  0  1  0  0  0  0  0  0  0  0  0
   -0.3596   -1.3947    0.4135 C   0  0  0  0  0  0  0  0  0  0  0  0
    1.0704   -1.6606    0.9426 C   0  0  0  0  0  0  0  0  0  0  0  0
    1.8141   -0.4157    0.5294 C   0  0  0  0  0  0  0  0  0  0  0  0
    1.0015    0.5679    0.1378 C   0  0  0  0  0  0  0  0  0  0  0  0
    1.4068    1.9522   -0.2654 C   0  0  0  0  0  0  0  0  0  0  0  0
   -3.2452    0.5857    0.0520 H   0  0  0  0  0  0  0  0  0  0  0  0
   -3.3805    0.4852   -1.7087 H   0  0  0  0  0  0  0  0  0  0  0  0
   -2.9015   -0.9371   -0.7760 H   0  0  0  0  0  0  0  0  0  0  0  0
   -0.9002    0.1301   -1.8964 H   0  0  0  0  0  0  0  0  0  0  0  0
   -1.2715    1.6524   -1.1029 H   0  0  0  0  0  0  0  0  0  0  0  0
   -0.9031    0.6051    1.1158 H   0  0  0  0  0  0  0  0  0  0  0  0
   -1.1375   -1.7936    1.0696 H   0  0  0  0  0  0  0  0  0  0  0  0
   -0.4799   -1.8817   -0.5618 H   0  0  0  0  0  0  0  0  0  0  0  0
    1.0850   -1.7769    2.0363 H   0  0  0  0  0  0  0  0  0  0  0  0
    1.5045   -2.5809    0.5346 H   0  0  0  0  0  0  0  0  0  0  0  0
    2.8941   -0.3283    0.5989 H   0  0  0  0  0  0  0  0  0  0  0  0
    2.4892    2.0886   -0.1909 H   0  0  0  0  0  0  0  0  0  0  0  0
    1.1085    2.1805   -1.2958 H   0  0  0  0  0  0  0  0  0  0  0  0
    0.9258    2.7077    0.3702 H   0  0  0  0  0  0  0  0  0  0  0  0
  1 11  1  0  0  0  0
  1  9  1  0  0  0  0
  2  1  1  0  0  0  0
  2  3  1  0  0  0  0
  3  4  1  0  0  0  0
  3 14  1  1  0  0  0
  4  5  1  0  0  0  0
  4 15  1  0  0  0  0
  5 17  1  0  0  0  0
  6 19  1  0  0  0  0
  6  5  1  0  0  0  0
  7  3  1  0  0  0  0
  7  6  2  0  0  0  0
  8 20  1  0  0  0  0
  8  7  1  0  0  0  0
  8 22  1  0  0  0  0
 10  1  1  0  0  0  0
 12  2  1  0  0  0  0
 13  2  1  0  0  0  0
 16  4  1  0  0  0  0
 18  5  1  0  0  0  0
 21  8  1  0  0  0  0
M  END
