20
title
C 0.11103266 2.1388488 1.8100935
C -0.061800998 0.61802 1.7435954
C 0.47475362 -0.018175997 0.45395547
C 0.61198676 -1.5516068 0.46549374
C 0.64148724 -1.9486398 -1.0249404
C -0.38264215 -1.0052727 -1.6736189
C -0.37229452 0.25621617 -0.80079406
O -0.9539236 1.2813736 -1.0562528
H 1.1708779 2.4144118 1.7592942
H -0.40474135 2.6222787 0.97849315
H -0.28962532 2.5355656 2.7482386
H 0.45096546 0.15143582 2.5943382
H -1.1236159 0.3607127 1.8491095
H 1.4654894 0.4125883 0.23234981
H 1.4923778 -1.8933314 1.0160604
H -0.26723588 -1.9936117 0.9529577
H 1.6396381 -1.7618092 -1.4380888
H 0.41666812 -3.005475 -1.1876482
H -0.19730583 -0.7578576 -2.721745
H -1.3968409 -1.4229572 -1.6217881
