20
title
C -0.68230337 1.958261 -0.75488216
C -0.3794397 0.49204326 -0.7293436
C -0.057204854 -0.276789 -1.7723659
C 0.17498304 -1.7191728 -1.4003024
C -0.3489435 -1.786146 0.057776302
C -0.39358053 -0.31744277 0.5618609
C 0.7897891 -0.0030512928 1.486136
O 0.6620047 1.327198 1.9711478
H -0.61048436 2.3634129 -1.7684208
H -1.6959176 2.1537366 -0.38083214
H -0.0032248888 2.5084653 -0.09726438
H 0.049663324 0.08737008 -2.7896073
H -0.35185793 -2.4185166 -2.0602446
H 1.2398766 -1.9841357 -1.4699014
H -1.3603667 -2.2023418 0.06486377
H 0.2630609 -2.4296703 0.69791555
H -1.3032719 -0.11937626 1.1436636
H 0.7892777 -0.72243655 2.3209624
H 1.7330611 -0.13663204 0.9322336
H 1.4276111 1.5230472 2.518851
