title
 OpenBabel02282110003D

 18 18  0  0  1  0  0  0  0  0999 V2000
   -0.5069    2.2957   -0.9300 C   0  0  0  0  0  0  0  0  0  0  0  0
   -0.3736    0.8083   -0.8570 C   0  0  0  0  0  0  0  0  0  0  0  0
   -0.2616   -0.0679   -1.8525 C   0  0  0  0  0  0  0  0  0  0  0  0
   -0.1750   -1.4675   -1.3191 C   0  0  0  0  0  0  0  0  0  0  0  0
   -0.2585   -1.3252    0.1002 O   0  0  0  0  0  0  0  0  0  0  0  0
   -0.3507    0.0622    0.4555 C   0  0  1  0  0  0  0  0  0  0  0  0
    0.8388    0.3915    1.3660 C   0  0  0  0  0  0  0  0  0  0  0  0
    0.8859   -0.4925    2.4655 O   0  0  0  0  0  0  0  0  0  0  0  0
    0.3275    2.8003   -0.4279 H   0  0  0  0  0  0  0  0  0  0  0  0
   -0.5361    2.6426   -1.9659 H   0  0  0  0  0  0  0  0  0  0  0  0
   -1.4230    2.6349   -0.4304 H   0  0  0  0  0  0  0  0  0  0  0  0
   -0.2399    0.1631   -2.9108 H   0  0  0  0  0  0  0  0  0  0  0  0
   -0.9980   -2.1080   -1.6725 H   0  0  0  0  0  0  0  0  0  0  0  0
    0.7654   -1.9712   -1.5925 H   0  0  0  0  0  0  0  0  0  0  0  0
   -1.2769    0.2122    1.0340 H   0  0  0  0  0  0  0  0  0  0  0  0
    1.7645    0.3491    0.7679 H   0  0  0  0  0  0  0  0  0  0  0  0
    0.7422    1.4053    1.7703 H   0  0  0  0  0  0  0  0  0  0  0  0
    0.7930   -1.3758    2.0870 H   0  0  0  0  0  0  0  0  0  0  0  0
  1  2  1  0  0  0  0
  1 11  1  0  0  0  0
  1  9  1  0  0  0  0
  2  6  1  0  0  0  0
  3  4  1  0  0  0  0
  3  2  2  0  0  0  0
  4  5  1  0  0  0  0
  5  6  1  0  0  0  0
  6 15  1  1  0  0  0
  6  7  1  0  0  0  0
  7 17  1  0  0  0  0
  7  8  1  0  0  0  0
 10  1  1  0  0  0  0
 12  3  1  0  0  0  0
 13  4  1  0  0  0  0
 14  4  1  0  0  0  0
 16  7  1  0  0  0  0
 18  8  1  0  0  0  0
M  END
