19
title
C -0.4445879 1.8365432 1.9324929
C -0.24540049 0.34207594 1.6712598
C 0.667561 0.036653463 0.46094713
C 0.95847356 -1.466034 0.28380725
C -0.16527016 -1.912607 -0.6596366
O -0.47186768 -0.7569587 -1.4566029
C -0.008518064 0.380877 -0.8555521
N -0.14236072 1.5406286 -1.3408829
H 0.50824237 2.3199577 2.1750202
H -0.85269 2.3384113 1.0522696
H -1.1243118 1.9950423 2.775497
H 0.20234773 -0.1312958 2.5540078
H -1.219168 -0.14376158 1.5251124
H 1.583585 0.6246149 0.557047
H 1.9301003 -1.6136312 -0.19701615
H 0.95847845 -2.019919 1.2255532
H 0.11968223 -2.7211788 -1.3369621
H -1.0673226 -2.217368 -0.11490801
H -0.6540462 1.4991904 -2.224597
