title
 OpenBabel02282110003D

 18 18  0  0  1  0  0  0  0  0999 V2000
   -0.6254    2.3355    1.0681 C   0  0  0  0  0  0  0  0  0  0  0  0
   -0.6357    0.9231    0.9741 O   0  0  0  0  0  0  0  0  0  0  0  0
   -0.2590    0.4413   -0.2925 C   0  0  1  0  0  0  0  0  0  0  0  0
    1.1007    0.6942   -0.5917 O   0  0  0  0  0  0  0  0  0  0  0  0
    1.8432   -0.5236   -0.5440 C   0  0  0  0  0  0  0  0  0  0  0  0
    0.8070   -1.6000   -0.4088 C   0  0  0  0  0  0  0  0  0  0  0  0
   -0.4035   -1.0637   -0.2862 C   0  0  0  0  0  0  0  0  0  0  0  0
   -1.7315   -1.7161   -0.0937 C   0  0  0  0  0  0  0  0  0  0  0  0
    0.3837    2.7394    0.9241 H   0  0  0  0  0  0  0  0  0  0  0  0
   -1.2961    2.7920    0.3235 H   0  0  0  0  0  0  0  0  0  0  0  0
   -0.9795    2.5935    2.0687 H   0  0  0  0  0  0  0  0  0  0  0  0
   -0.8658    0.9554   -1.0591 H   0  0  0  0  0  0  0  0  0  0  0  0
    2.4348   -0.6085   -1.4663 H   0  0  0  0  0  0  0  0  0  0  0  0
    2.5508   -0.5163    0.2998 H   0  0  0  0  0  0  0  0  0  0  0  0
    1.0489   -2.6557   -0.3969 H   0  0  0  0  0  0  0  0  0  0  0  0
   -1.6443   -2.8047   -0.0546 H   0  0  0  0  0  0  0  0  0  0  0  0
   -2.1935   -1.3669    0.8361 H   0  0  0  0  0  0  0  0  0  0  0  0
   -2.4218   -1.4575   -0.9067 H   0  0  0  0  0  0  0  0  0  0  0  0
  1 11  1  0  0  0  0
  2  1  1  0  0  0  0
  3 12  1  6  0  0  0
  3  7  1  0  0  0  0
  3  2  1  0  0  0  0
  4  5  1  0  0  0  0
  4  3  1  0  0  0  0
  5  6  1  0  0  0  0
  5 14  1  0  0  0  0
  6 15  1  0  0  0  0
  6  7  2  0  0  0  0
  7  8  1  0  0  0  0
  8 16  1  0  0  0  0
  8 17  1  0  0  0  0
  9  1  1  0  0  0  0
 10  1  1  0  0  0  0
 13  5  1  0  0  0  0
 18  8  1  0  0  0  0
M  END
