18
title
C -0.6254068 2.3354533 1.0681323
O -0.63565284 0.9231318 0.97409725
C -0.25903076 0.44131204 -0.2924972
O 1.1007239 0.6941529 -0.59173614
C 1.8432089 -0.52362275 -0.544023
C 0.8070382 -1.5999695 -0.40878454
C -0.40347654 -1.0637091 -0.28618506
C -1.7315049 -1.7160865 -0.0936865
H 0.3837328 2.7393756 0.9240775
H -1.2960501 2.7919838 0.3235155
H -0.9794819 2.5934772 2.0687485
H -0.8657811 0.955396 -1.0590919
H 2.434753 -0.608466 -1.4662657
H 2.5507581 -0.51626706 0.29976955
H 1.048879 -2.6557412 -0.3968636
H -1.644256 -2.8047216 -0.054639734
H -2.1934798 -1.3669437 0.83613783
H -2.4217615 -1.4575306 -0.90667707
