title
 OpenBabel02282110003D

 18 18  0  0  0  0  0  0  0  0999 V2000
    1.7718    1.9368    0.4219 C   0  0  0  0  0  0  0  0  0  0  0  0
    1.7469    0.4146    0.2378 C   0  0  0  0  0  0  0  0  0  0  0  0
    0.4229   -0.1725    0.2884 N   0  0  0  0  0  0  0  0  0  0  0  0
   -0.4144   -0.1745    1.4743 C   0  0  0  0  0  0  0  0  0  0  0  0
   -1.6732   -0.9110    0.9702 C   0  0  0  0  0  0  0  0  0  0  0  0
   -1.6433   -0.5849   -0.4494 N   0  0  0  0  0  0  0  0  0  0  0  0
   -0.3341   -0.3337   -0.8586 C   0  0  0  0  0  0  0  0  0  0  0  0
    0.0620   -0.2608   -2.0032 O   0  0  0  0  0  0  0  0  0  0  0  0
    2.7999    2.3064    0.3572 H   0  0  0  0  0  0  0  0  0  0  0  0
    1.1828    2.4274   -0.3586 H   0  0  0  0  0  0  0  0  0  0  0  0
    1.3725    2.2372    1.3961 H   0  0  0  0  0  0  0  0  0  0  0  0
    2.1529    0.1524   -0.7425 H   0  0  0  0  0  0  0  0  0  0  0  0
    2.3720   -0.0687    0.9991 H   0  0  0  0  0  0  0  0  0  0  0  0
    0.0661   -0.6941    2.3097 H   0  0  0  0  0  0  0  0  0  0  0  0
   -0.6640    0.8448    1.8051 H   0  0  0  0  0  0  0  0  0  0  0  0
   -1.5868   -1.9922    1.1517 H   0  0  0  0  0  0  0  0  0  0  0  0
   -2.5844   -0.5509    1.4549 H   0  0  0  0  0  0  0  0  0  0  0  0
   -2.2087   -1.1070   -1.1006 H   0  0  0  0  0  0  0  0  0  0  0  0
  1 11  1  0  0  0  0
  2  3  1  0  0  0  0
  2  1  1  0  0  0  0
  2 13  1  0  0  0  0
  3  4  1  0  0  0  0
  4 15  1  0  0  0  0
  4 14  1  0  0  0  0
  5 16  1  0  0  0  0
  5 17  1  0  0  0  0
  5  4  1  0  0  0  0
  6  5  1  0  0  0  0
  7  6  1  0  0  0  0
  7  3  1  0  0  0  0
  8  7  2  0  0  0  0
  9  1  1  0  0  0  0
 10  1  1  0  0  0  0
 12  2  1  0  0  0  0
 18  6  1  0  0  0  0
M  END
