title
 OpenBabel02282110003D

 17 17  0  0  1  0  0  0  0  0999 V2000
   -1.1224    2.0059   -1.1289 C   0  0  0  0  0  0  0  0  0  0  0  0
   -1.2437    0.5812   -0.8219 N   0  0  0  0  0  0  0  0  0  0  0  0
   -0.6766    0.1943    0.4704 C   0  0  1  0  0  0  0  0  0  0  0  0
   -0.9444   -1.2839    0.7609 C   0  0  0  0  0  0  0  0  0  0  0  0
    0.2099   -1.9732    0.0200 C   0  0  0  0  0  0  0  0  0  0  0  0
    1.3048   -1.0436    0.0800 O   0  0  0  0  0  0  0  0  0  0  0  0
    0.8579    0.2137    0.3294 C   0  0  0  0  0  0  0  0  0  0  0  0
    1.5924    1.1573    0.3946 O   0  0  0  0  0  0  0  0  0  0  0  0
   -0.0675    2.2774   -1.2064 H   0  0  0  0  0  0  0  0  0  0  0  0
   -1.6013    2.2045   -2.0916 H   0  0  0  0  0  0  0  0  0  0  0  0
   -1.5800    2.6613   -0.3678 H   0  0  0  0  0  0  0  0  0  0  0  0
   -2.2235    0.3180   -0.8304 H   0  0  0  0  0  0  0  0  0  0  0  0
   -0.9711    0.8618    1.2955 H   0  0  0  0  0  0  0  0  0  0  0  0
   -0.8736   -1.4721    1.8362 H   0  0  0  0  0  0  0  0  0  0  0  0
   -1.9258   -1.6222    0.4185 H   0  0  0  0  0  0  0  0  0  0  0  0
    0.5389   -2.9054    0.4834 H   0  0  0  0  0  0  0  0  0  0  0  0
   -0.0337   -2.1563   -1.0311 H   0  0  0  0  0  0  0  0  0  0  0  0
  1  2  1  0  0  0  0
  1 11  1  0  0  0  0
  2  3  1  0  0  0  0
  3  4  1  0  0  0  0
  3 13  1  1  0  0  0
  4 14  1  0  0  0  0
  5  6  1  0  0  0  0
  5 16  1  0  0  0  0
  5  4  1  0  0  0  0
  6  7  1  0  0  0  0
  7  8  2  0  0  0  0
  7  3  1  0  0  0  0
  9  1  1  0  0  0  0
 10  1  1  0  0  0  0
 12  2  1  0  0  0  0
 15  4  1  0  0  0  0
 17  5  1  0  0  0  0
M  END
