18
title
C 0.12385959 2.1237564 1.8142617
C -0.008216534 0.59865487 1.7629114
C 0.5219937 -0.02819733 0.46665412
C 0.62310183 -1.559672 0.45451552
C 0.48709935 -1.883442 -1.0375963
O -0.34111312 -0.84082675 -1.5808736
C -0.35078555 0.24707 -0.76242846
O -0.9761829 1.2330511 -1.032082
H 1.1744897 2.428599 1.7457366
H -0.41900563 2.5853586 0.98757327
H -0.27388346 2.5147421 2.7556276
H 0.53751475 0.15122949 2.6029427
H -1.0590779 0.31031194 1.8897116
H 1.5086288 0.40240884 0.2384829
H 1.551491 -1.9420718 0.8838223
H -0.2133507 -1.9928645 1.0142815
H 1.4554083 -1.8655008 -1.552472
H -0.0008817584 -2.837963 -1.2450901
