16
title
C -0.8813598 2.4953012 1.1480819
C -0.87111443 0.9673184 1.0801532
C -0.37683287 0.44678423 -0.27457452
O 0.9711599 0.805944 -0.56366205
C 1.7725897 -0.3301365 -0.34695804
O 0.92917365 -1.475044 -0.42203677
C -0.36902997 -1.0775132 -0.3305614
O -1.2929406 -1.8328831 -0.28985798
H 0.11855074 2.8975296 0.9633441
H -1.5579827 2.918698 0.3977415
H -1.2131766 2.8401976 2.1313574
H -0.23560183 0.55643195 1.8747287
H -1.875812 0.55965465 1.2388823
H -1.0109129 0.8364445 -1.0790445
H 2.5322213 -0.39365193 -1.1315855
H 2.249929 -0.31385824 0.6441627
