title
 OpenBabel02282110003D

 18 18  0  0  1  0  0  0  0  0999 V2000
    1.3884    1.9909   -0.8956 O   0  0  0  0  0  0  0  0  0  0  0  0
    1.4889    0.5859   -0.8683 C   0  0  0  0  0  0  0  0  0  0  0  0
    0.1223   -0.0882   -0.6817 C   0  0  1  0  0  0  0  0  0  0  0  0
    0.0880   -1.6250   -0.7028 C   0  0  0  0  0  0  0  0  0  0  0  0
   -1.1853   -1.9888    0.0942 C   0  0  0  0  0  0  0  0  0  0  0  0
   -1.2233   -0.9543    1.2314 C   0  0  0  0  0  0  0  0  0  0  0  0
   -0.5140    0.2742    0.6637 C   0  0  0  0  0  0  0  0  0  0  0  0
   -0.4323    1.3555    1.2030 O   0  0  0  0  0  0  0  0  0  0  0  0
    0.9003    2.2381   -0.0967 H   0  0  0  0  0  0  0  0  0  0  0  0
    1.9289    0.2756   -1.8226 H   0  0  0  0  0  0  0  0  0  0  0  0
    2.1691    0.2382   -0.0708 H   0  0  0  0  0  0  0  0  0  0  0  0
   -0.5529    0.3096   -1.4544 H   0  0  0  0  0  0  0  0  0  0  0  0
    0.0872   -2.0375   -1.7144 H   0  0  0  0  0  0  0  0  0  0  0  0
    0.9747   -2.0208   -0.1902 H   0  0  0  0  0  0  0  0  0  0  0  0
   -2.0669   -1.8733   -0.5465 H   0  0  0  0  0  0  0  0  0  0  0  0
   -1.1789   -3.0201    0.4540 H   0  0  0  0  0  0  0  0  0  0  0  0
   -2.2188   -0.6995    1.6033 H   0  0  0  0  0  0  0  0  0  0  0  0
   -0.6390   -1.2908    2.0983 H   0  0  0  0  0  0  0  0  0  0  0  0
  1  2  1  0  0  0  0
  1  9  1  0  0  0  0
  2  3  1  0  0  0  0
  2 11  1  0  0  0  0
  3 12  1  6  0  0  0
  3  7  1  0  0  0  0
  4  3  1  0  0  0  0
  4 14  1  0  0  0  0
  4  5  1  0  0  0  0
  5 16  1  0  0  0  0
  5  6  1  0  0  0  0
  6 17  1  0  0  0  0
  6 18  1  0  0  0  0
  7  8  2  0  0  0  0
  7  6  1  0  0  0  0
 10  2  1  0  0  0  0
 13  4  1  0  0  0  0
 15  5  1  0  0  0  0
M  END
