title
 OpenBabel02282110003D

 17 17  0  0  1  0  0  0  0  0999 V2000
   -0.6767    1.8417    1.5573 C   0  0  0  0  0  0  0  0  0  0  0  0
   -0.1332    0.5348    1.4585 O   0  0  0  0  0  0  0  0  0  0  0  0
    0.6743    0.3296    0.3106 C   0  0  1  0  0  0  0  0  0  0  0  0
    1.3440   -1.0396    0.4269 C   0  0  0  0  0  0  0  0  0  0  0  0
    0.3424   -2.0122   -0.2343 C   0  0  0  0  0  0  0  0  0  0  0  0
   -0.3347   -1.1509   -1.1908 N   0  0  0  0  0  0  0  0  0  0  0  0
   -0.2360    0.1869   -0.9326 C   0  0  0  0  0  0  0  0  0  0  0  0
   -0.8010    1.0804   -1.5294 O   0  0  0  0  0  0  0  0  0  0  0  0
    0.1220    2.5978    1.6056 H   0  0  0  0  0  0  0  0  0  0  0  0
   -1.3296    2.0801    0.7108 H   0  0  0  0  0  0  0  0  0  0  0  0
   -1.2505    1.8711    2.4866 H   0  0  0  0  0  0  0  0  0  0  0  0
    1.3809    1.1602    0.1819 H   0  0  0  0  0  0  0  0  0  0  0  0
    2.2819   -1.0371   -0.1354 H   0  0  0  0  0  0  0  0  0  0  0  0
    1.5586   -1.2917    1.4662 H   0  0  0  0  0  0  0  0  0  0  0  0
    0.8419   -2.8470   -0.7352 H   0  0  0  0  0  0  0  0  0  0  0  0
   -0.3591   -2.4263    0.5015 H   0  0  0  0  0  0  0  0  0  0  0  0
   -1.0215   -1.4872   -1.8478 H   0  0  0  0  0  0  0  0  0  0  0  0
  1  9  1  0  0  0  0
  1 11  1  0  0  0  0
  2  1  1  0  0  0  0
  3 12  1  6  0  0  0
  3  4  1  0  0  0  0
  3  2  1  0  0  0  0
  4 14  1  0  0  0  0
  5  4  1  0  0  0  0
  5 16  1  0  0  0  0
  6  7  1  0  0  0  0
  6  5  1  0  0  0  0
  7  3  1  0  0  0  0
  8  7  2  0  0  0  0
 10  1  1  0  0  0  0
 13  4  1  0  0  0  0
 15  5  1  0  0  0  0
 17  6  1  0  0  0  0
M  END
