title
 OpenBabel02282110003D

 17 17  0  0  1  0  0  0  0  0999 V2000
    1.4460    1.9454   -0.9035 O   0  0  0  0  0  0  0  0  0  0  0  0
    1.5206    0.5439   -0.8560 C   0  0  0  0  0  0  0  0  0  0  0  0
    0.1360   -0.1051   -0.7052 C   0  0  1  0  0  0  0  0  0  0  0  0
    0.1078   -1.6401   -0.6427 C   0  0  0  0  0  0  0  0  0  0  0  0
   -1.1309   -1.9069    0.2202 C   0  0  0  0  0  0  0  0  0  0  0  0
   -1.2331   -0.7706    1.1039 O   0  0  0  0  0  0  0  0  0  0  0  0
   -0.5349    0.2786    0.6002 C   0  0  0  0  0  0  0  0  0  0  0  0
   -0.4402    1.4142    1.1545 N   0  0  0  0  0  0  0  0  0  0  0  0
    0.9347    2.2077   -0.1184 H   0  0  0  0  0  0  0  0  0  0  0  0
    1.9801    0.2091   -1.7932 H   0  0  0  0  0  0  0  0  0  0  0  0
    2.1641    0.1893   -0.0315 H   0  0  0  0  0  0  0  0  0  0  0  0
   -0.4992    0.2575   -1.5239 H   0  0  0  0  0  0  0  0  0  0  0  0
    0.0444   -2.1167   -1.6226 H   0  0  0  0  0  0  0  0  0  0  0  0
    1.0069   -2.0132   -0.1394 H   0  0  0  0  0  0  0  0  0  0  0  0
   -2.0462   -1.9649   -0.3811 H   0  0  0  0  0  0  0  0  0  0  0  0
   -1.0619   -2.8021    0.8416 H   0  0  0  0  0  0  0  0  0  0  0  0
   -0.9604    1.4534    2.0310 H   0  0  0  0  0  0  0  0  0  0  0  0
  1  2  1  0  0  0  0
  1  9  1  0  0  0  0
  2  3  1  0  0  0  0
  2 11  1  0  0  0  0
  3 12  1  6  0  0  0
  3  4  1  0  0  0  0
  3  7  1  0  0  0  0
  4 14  1  0  0  0  0
  4  5  1  0  0  0  0
  5 16  1  0  0  0  0
  5  6  1  0  0  0  0
  7  6  1  0  0  0  0
  7  8  2  0  0  0  0
  8 17  1  0  0  0  0
 10  2  1  0  0  0  0
 13  4  1  0  0  0  0
 15  5  1  0  0  0  0
M  END
