title
 OpenBabel02282110003D

 16 16  0  0  1  0  0  0  0  0999 V2000
    1.3932    1.9603   -0.9228 O   0  0  0  0  0  0  0  0  0  0  0  0
    1.4842    0.5572   -0.9128 C   0  0  0  0  0  0  0  0  0  0  0  0
    0.1100   -0.1048   -0.7267 C   0  0  1  0  0  0  0  0  0  0  0  0
    0.0723   -1.6368   -0.6943 C   0  0  0  0  0  0  0  0  0  0  0  0
   -1.1116   -1.9130    0.2449 C   0  0  0  0  0  0  0  0  0  0  0  0
   -1.1692   -0.7837    1.1408 O   0  0  0  0  0  0  0  0  0  0  0  0
   -0.4990    0.2688    0.6219 C   0  0  0  0  0  0  0  0  0  0  0  0
   -0.4118    1.3229    1.1974 O   0  0  0  0  0  0  0  0  0  0  0  0
    0.9257    2.2057   -0.1105 H   0  0  0  0  0  0  0  0  0  0  0  0
    1.9103    0.2534   -1.8751 H   0  0  0  0  0  0  0  0  0  0  0  0
    2.1644    0.1910   -0.1244 H   0  0  0  0  0  0  0  0  0  0  0  0
   -0.5631    0.2897   -1.4993 H   0  0  0  0  0  0  0  0  0  0  0  0
   -0.0611   -2.0958   -1.6754 H   0  0  0  0  0  0  0  0  0  0  0  0
    0.9990   -2.0274   -0.2593 H   0  0  0  0  0  0  0  0  0  0  0  0
   -2.0627   -1.9726   -0.2961 H   0  0  0  0  0  0  0  0  0  0  0  0
   -0.9974   -2.8103    0.8556 H   0  0  0  0  0  0  0  0  0  0  0  0
  1  2  1  0  0  0  0
  1  9  1  0  0  0  0
  2  3  1  0  0  0  0
  2 11  1  0  0  0  0
  3 12  1  6  0  0  0
  3  4  1  0  0  0  0
  3  7  1  0  0  0  0
  4 14  1  0  0  0  0
  4  5  1  0  0  0  0
  5 16  1  0  0  0  0
  5  6  1  0  0  0  0
  7  6  1  0  0  0  0
  7  8  2  0  0  0  0
 10  2  1  0  0  0  0
 13  4  1  0  0  0  0
 15  5  1  0  0  0  0
M  END
