title
 OpenBabel02282110003D

 17 17  0  0  1  0  0  0  0  0999 V2000
   -0.5826    1.8669    1.5719 C   0  0  0  0  0  0  0  0  0  0  0  0
   -0.0417    0.5615    1.4503 O   0  0  0  0  0  0  0  0  0  0  0  0
    0.6966    0.3494    0.2580 C   0  0  1  0  0  0  0  0  0  0  0  0
    1.3477   -1.0288    0.3546 C   0  0  0  0  0  0  0  0  0  0  0  0
    0.2180   -1.9430   -0.1350 C   0  0  0  0  0  0  0  0  0  0  0  0
   -0.5061   -1.1577   -1.1032 O   0  0  0  0  0  0  0  0  0  0  0  0
   -0.2462    0.1685   -0.9284 C   0  0  0  0  0  0  0  0  0  0  0  0
   -0.7353    1.1037   -1.6245 N   0  0  0  0  0  0  0  0  0  0  0  0
    0.2153    2.6248    1.5824 H   0  0  0  0  0  0  0  0  0  0  0  0
   -1.2735    2.1026    0.7548 H   0  0  0  0  0  0  0  0  0  0  0  0
   -1.1146    1.8958    2.5255 H   0  0  0  0  0  0  0  0  0  0  0  0
    1.3986    1.1730    0.0813 H   0  0  0  0  0  0  0  0  0  0  0  0
    2.2055   -1.0848   -0.3219 H   0  0  0  0  0  0  0  0  0  0  0  0
    1.6763   -1.2520    1.3705 H   0  0  0  0  0  0  0  0  0  0  0  0
    0.5624   -2.8508   -0.6346 H   0  0  0  0  0  0  0  0  0  0  0  0
   -0.4636   -2.2154    0.6776 H   0  0  0  0  0  0  0  0  0  0  0  0
   -1.3746    0.7288   -2.3292 H   0  0  0  0  0  0  0  0  0  0  0  0
  1  9  1  0  0  0  0
  1 11  1  0  0  0  0
  2  1  1  0  0  0  0
  3 12  1  6  0  0  0
  3  4  1  0  0  0  0
  3  2  1  0  0  0  0
  4 14  1  0  0  0  0
  5  4  1  0  0  0  0
  5 16  1  0  0  0  0
  6  7  1  0  0  0  0
  6  5  1  0  0  0  0
  7  3  1  0  0  0  0
  8  7  2  0  0  0  0
 10  1  1  0  0  0  0
 13  4  1  0  0  0  0
 15  5  1  0  0  0  0
 17  8  1  0  0  0  0
M  END
