17
title
C -0.67670673 1.8416865 1.5572636
O -0.13315493 0.534814 1.4584668
C 0.67430884 0.3296148 0.3106372
C 1.3439546 -1.03957 0.42687234
C 0.34237528 -2.012178 -0.23431505
N -0.3347009 -1.1508873 -1.1908009
C -0.23599897 0.18686615 -0.93258023
O -0.80099314 1.0804318 -1.5294373
H 0.122042954 2.5977921 1.6055828
H -1.329581 2.0800803 0.71079755
H -1.2504997 1.8710675 2.4865682
H 1.3809488 1.160176 0.18193744
H 2.2818787 -1.0370717 -0.13540305
H 1.5586232 -1.2917364 1.4662465
H 0.8418806 -2.84702 -0.7352264
H -0.35908654 -2.4262807 0.50146306
H -1.0215346 -1.48721 -1.8477767
