17
title
C -1.0801729 2.3083887 -0.7379717
O -1.2909565 0.90753055 -0.6526261
C -0.5179462 0.25945523 0.32077354
C -1.0315403 -1.1624037 0.59890777
N 0.13108829 -1.9431502 1.0579941
C 1.2768536 -1.4456333 0.28551072
C 0.94590074 -0.0013604377 -0.10985567
O 1.6683152 0.77480376 -0.6804935
H -0.054418173 2.546696 -1.0348405
H -1.7770324 2.68374 -1.4908987
H -1.2982163 2.7986267 0.2240402
H -0.49252388 0.8415964 1.2609676
H -1.8357892 -1.1986517 1.3352333
H -1.4132518 -1.5824474 -0.33980456
H 0.28678277 -1.7534083 2.0425377
H 2.217302 -1.5100135 0.83842367
H 1.4046638 -2.031362 -0.6363059
