18
title
O 1.3883576 1.9909053 -0.8956015
C 1.4889289 0.5859371 -0.8682642
C 0.122329 -0.088223495 -0.6817207
C 0.088012576 -1.6249563 -0.70280856
C -1.1853361 -1.9887606 0.0942338
C -1.2233436 -0.95433724 1.23144
C -0.5140227 0.274218 0.66370374
O -0.43230677 1.3554795 1.2029799
H 0.90027165 2.2381136 -0.09670354
H 1.9288872 0.27558216 -1.8225976
H 2.1691475 0.23818512 -0.07082302
H -0.55292916 0.30962768 -1.4543595
H 0.08717978 -2.037548 -1.7144201
H 0.9747313 -2.0208251 -0.19018704
H -2.066927 -1.873269 -0.54645216
H -1.1789403 -3.0201294 0.4540494
H -2.2188165 -0.6994585 1.603254
H -0.63904667 -1.2908182 2.0982983
