title
 OpenBabel02282110003D

 16 16  0  0  1  0  0  0  0  0999 V2000
    1.1654    2.3404   -0.5144 C   0  0  0  0  0  0  0  0  0  0  0  0
    1.2016    0.9434   -0.7671 O   0  0  0  0  0  0  0  0  0  0  0  0
   -0.0268    0.2931   -0.5990 C   0  0  1  0  0  0  0  0  0  0  0  0
    0.0056   -1.1165   -1.1981 C   0  0  0  0  0  0  0  0  0  0  0  0
   -0.9645   -1.8577   -0.4605 O   0  0  0  0  0  0  0  0  0  0  0  0
   -0.8720   -1.4622    0.8965 C   0  0  0  0  0  0  0  0  0  0  0  0
   -0.3799   -0.0162    0.8738 C   0  0  0  0  0  0  0  0  0  0  0  0
   -0.2444    0.7172    1.8172 O   0  0  0  0  0  0  0  0  0  0  0  0
    2.1654    2.7219   -0.7315 H   0  0  0  0  0  0  0  0  0  0  0  0
    0.4412    2.8410   -1.1756 H   0  0  0  0  0  0  0  0  0  0  0  0
    0.9077    2.5564    0.5269 H   0  0  0  0  0  0  0  0  0  0  0  0
   -0.8573    0.8745   -1.0362 H   0  0  0  0  0  0  0  0  0  0  0  0
   -0.2746   -1.1596   -2.2513 H   0  0  0  0  0  0  0  0  0  0  0  0
    1.0181   -1.5322   -1.0782 H   0  0  0  0  0  0  0  0  0  0  0  0
   -1.8509   -1.5592    1.3747 H   0  0  0  0  0  0  0  0  0  0  0  0
   -0.1501   -2.0754    1.4618 H   0  0  0  0  0  0  0  0  0  0  0  0
  1 11  1  0  0  0  0
  2  3  1  0  0  0  0
  2  1  1  0  0  0  0
  3 12  1  6  0  0  0
  3  7  1  0  0  0  0
  4 14  1  0  0  0  0
  4  3  1  0  0  0  0
  4  5  1  0  0  0  0
  5  6  1  0  0  0  0
  6 15  1  0  0  0  0
  6 16  1  0  0  0  0
  7  6  1  0  0  0  0
  7  8  2  0  0  0  0
  9  1  1  0  0  0  0
 10  1  1  0  0  0  0
 13  4  1  0  0  0  0
M  END
