title
 OpenBabel02282110003D

 16 16  0  0  1  0  0  0  0  0999 V2000
    1.4522    1.9974   -0.8481 O   0  0  0  0  0  0  0  0  0  0  0  0
    1.5119    0.5905   -0.8503 C   0  0  0  0  0  0  0  0  0  0  0  0
    0.1192   -0.0391   -0.7003 C   0  0  1  0  0  0  0  0  0  0  0  0
    0.0275   -1.5695   -0.7011 C   0  0  0  0  0  0  0  0  0  0  0  0
   -1.1362   -1.8875    0.0693 O   0  0  0  0  0  0  0  0  0  0  0  0
   -1.2206   -0.9642    1.1341 C   0  0  0  0  0  0  0  0  0  0  0  0
   -0.5088    0.2977    0.6506 C   0  0  0  0  0  0  0  0  0  0  0  0
   -0.4143    1.3437    1.2478 O   0  0  0  0  0  0  0  0  0  0  0  0
    0.9815    2.2488   -0.0409 H   0  0  0  0  0  0  0  0  0  0  0  0
    1.9572    0.2902   -1.8050 H   0  0  0  0  0  0  0  0  0  0  0  0
    2.1679    0.2048   -0.0510 H   0  0  0  0  0  0  0  0  0  0  0  0
   -0.5378    0.3776   -1.4752 H   0  0  0  0  0  0  0  0  0  0  0  0
   -0.1076   -2.0066   -1.6919 H   0  0  0  0  0  0  0  0  0  0  0  0
    0.9274   -2.0135   -0.2438 H   0  0  0  0  0  0  0  0  0  0  0  0
   -2.2697   -0.7750    1.3806 H   0  0  0  0  0  0  0  0  0  0  0  0
   -0.7146   -1.3251    2.0460 H   0  0  0  0  0  0  0  0  0  0  0  0
  1  9  1  0  0  0  0
  2  1  1  0  0  0  0
  2  3  1  0  0  0  0
  2 11  1  0  0  0  0
  3 12  1  6  0  0  0
  3  7  1  0  0  0  0
  4  3  1  0  0  0  0
  4 14  1  0  0  0  0
  4  5  1  0  0  0  0
  5  6  1  0  0  0  0
  6 15  1  0  0  0  0
  6 16  1  0  0  0  0
  7  6  1  0  0  0  0
  7  8  2  0  0  0  0
 10  2  1  0  0  0  0
 13  4  1  0  0  0  0
M  END
