title
 OpenBabel02282110003D

 17 17  0  0  1  0  0  0  0  0999 V2000
    1.3213    2.3185    0.0958 O   0  0  0  0  0  0  0  0  0  0  0  0
    1.3532    0.9172    0.2162 C   0  0  0  0  0  0  0  0  0  0  0  0
   -0.0548    0.3803    0.5473 C   0  0  1  0  0  0  0  0  0  0  0  0
   -1.0123    0.8627   -0.4628 N   0  0  0  0  0  0  0  0  0  0  0  0
   -1.1902   -0.2340   -1.4445 C   0  0  0  0  0  0  0  0  0  0  0  0
   -1.0222   -1.5470   -0.6624 C   0  0  0  0  0  0  0  0  0  0  0  0
   -0.0938   -1.1544    0.4915 C   0  0  0  0  0  0  0  0  0  0  0  0
    0.5165   -1.8976    1.2149 O   0  0  0  0  0  0  0  0  0  0  0  0
    0.5356    2.4995   -0.4411 H   0  0  0  0  0  0  0  0  0  0  0  0
    1.7241    0.4400   -0.7074 H   0  0  0  0  0  0  0  0  0  0  0  0
    2.0440    0.6537    1.0217 H   0  0  0  0  0  0  0  0  0  0  0  0
   -0.3282    0.7386    1.5440 H   0  0  0  0  0  0  0  0  0  0  0  0
   -1.9023    1.0623   -0.0210 H   0  0  0  0  0  0  0  0  0  0  0  0
   -2.1579   -0.1373   -1.9405 H   0  0  0  0  0  0  0  0  0  0  0  0
   -0.4188   -0.1498   -2.2183 H   0  0  0  0  0  0  0  0  0  0  0  0
   -1.9755   -1.8734   -0.2269 H   0  0  0  0  0  0  0  0  0  0  0  0
   -0.6147   -2.3865   -1.2298 H   0  0  0  0  0  0  0  0  0  0  0  0
  1  2  1  0  0  0  0
  2  3  1  0  0  0  0
  2 11  1  0  0  0  0
  3 12  1  1  0  0  0
  4 13  1  0  0  0  0
  4  3  1  0  0  0  0
  5  6  1  0  0  0  0
  5  4  1  0  0  0  0
  6 16  1  0  0  0  0
  6  7  1  0  0  0  0
  7  3  1  0  0  0  0
  7  8  2  0  0  0  0
  9  1  1  0  0  0  0
 10  2  1  0  0  0  0
 14  5  1  0  0  0  0
 15  5  1  0  0  0  0
 17  6  1  0  0  0  0
M  END
