title
 OpenBabel02282110003D

 18 18  0  0  1  0  0  0  0  0999 V2000
   -1.4666    1.5569   -1.0616 C   0  0  0  0  0  0  0  0  0  0  0  0
   -0.8861    0.1605   -0.9369 C   0  0  1  0  0  0  0  0  0  0  0  0
    0.3478    0.0822   -1.6542 O   0  0  0  0  0  0  0  0  0  0  0  0
    0.9520   -1.0917   -1.1923 C   0  0  0  0  0  0  0  0  0  0  0  0
    0.6209   -1.2272    0.1843 O   0  0  0  0  0  0  0  0  0  0  0  0
   -0.4669   -0.3279    0.4653 C   0  0  1  0  0  0  0  0  0  0  0  0
    0.0560    0.7426    1.4233 C   0  0  0  0  0  0  0  0  0  0  0  0
    0.6339    0.1438    2.5649 O   0  0  0  0  0  0  0  0  0  0  0  0
   -0.7717    2.3128   -0.6889 H   0  0  0  0  0  0  0  0  0  0  0  0
   -1.6806    1.7776   -2.1105 H   0  0  0  0  0  0  0  0  0  0  0  0
   -2.4029    1.6310   -0.5003 H   0  0  0  0  0  0  0  0  0  0  0  0
   -1.5941   -0.5713   -1.3606 H   0  0  0  0  0  0  0  0  0  0  0  0
    0.5782   -1.9751   -1.7392 H   0  0  0  0  0  0  0  0  0  0  0  0
    2.0367   -1.0065   -1.3134 H   0  0  0  0  0  0  0  0  0  0  0  0
   -1.2630   -0.8996    0.9558 H   0  0  0  0  0  0  0  0  0  0  0  0
    0.7796    1.3814    0.8927 H   0  0  0  0  0  0  0  0  0  0  0  0
   -0.7644    1.3772    1.7751 H   0  0  0  0  0  0  0  0  0  0  0  0
    1.2334   -0.5328    2.2261 H   0  0  0  0  0  0  0  0  0  0  0  0
  1  2  1  0  0  0  0
  1  9  1  0  0  0  0
  1 11  1  0  0  0  0
  2  6  1  1  0  0  0
  3  4  1  0  0  0  0
  3  2  1  0  0  0  0
  4  5  1  0  0  0  0
  5  6  1  0  0  0  0
  6 15  1  1  0  0  0
  6  7  1  0  0  0  0
  7 17  1  0  0  0  0
  7  8  1  0  0  0  0
 10  1  1  0  0  0  0
 12  2  1  0  0  0  0
 13  4  1  0  0  0  0
 14  4  1  0  0  0  0
 16  7  1  0  0  0  0
 18  8  1  0  0  0  0
M  END
