20
title
C -0.78243804 1.778523 -1.0131872
C -1.0090507 0.31311578 -0.64238864
O -0.6741951 -0.49810925 -1.7776452
C 0.3568447 -1.4253939 -1.4481965
C 1.0394387 -0.86697114 -0.20108984
C -0.15492456 -0.23581496 0.52975714
C 0.20654608 0.76030254 1.6203498
O 0.8969346 0.042888492 2.63549
H 0.2765496 1.9881626 -1.1934637
H -1.3284613 2.0035362 -1.9334472
H -1.1455574 2.4517095 -0.22913502
H -2.0769246 0.16992086 -0.42614743
H -0.074502386 -2.4185672 -1.2446579
H 1.0225656 -1.5192487 -2.3124957
H 1.5489194 -1.6261961 0.39435232
H 1.7729499 -0.098597825 -0.4731352
H -0.7210959 -1.0425657 1.0117339
H 0.83572495 1.5642968 1.2093029
H -0.70750326 1.2288709 2.0206757
H 1.1560404 0.66612047 3.3203745
