14
title
O 1.3183771 2.4080412 0.39290786
C 1.3324345 0.9998942 0.46134773
C -0.07619744 0.42348778 0.37699512
O -0.64114004 0.73077804 -0.8947722
C -1.431899 -0.37145817 -1.2623351
O -0.88812345 -1.5174438 -0.6102134
C -0.11479037 -1.1001385 0.4296633
O 0.42290163 -1.8367707 1.1997678
H 0.92814356 2.6474662 -0.45514208
H 1.9474372 0.55343616 -0.33443207
H 1.7677422 0.7208497 1.4246333
H -0.6934715 0.8363292 1.1900946
H -2.4771883 -0.24989031 -0.94039845
H -1.3768429 -0.51492476 -2.344151
