title
 OpenBabel02282110003D

 22 22  0  0  1  0  0  0  0  0999 V2000
   -1.0312    2.2466   -0.8613 C   0  0  0  0  0  0  0  0  0  0  0  0
   -0.6619    0.8914   -0.8038 O   0  0  0  0  0  0  0  0  0  0  0  0
    0.4171    0.6128    0.0822 C   0  0  1  0  0  0  0  0  0  0  0  0
   -0.0511    0.5196    1.5507 C   0  0  0  0  0  0  0  0  0  0  0  0
   -0.4842   -0.9613    1.7645 C   0  0  0  0  0  0  0  0  0  0  0  0
   -0.1498   -1.6904    0.4413 C   0  0  0  0  0  0  0  0  0  0  0  0
    0.9201   -0.8083   -0.2291 C   0  0  1  0  0  0  0  0  0  0  0  0
    1.1790   -1.0976   -1.7053 C   0  0  0  0  0  0  0  0  0  0  0  0
   -0.1890    2.8841   -1.1753 H   0  0  0  0  0  0  0  0  0  0  0  0
   -1.8327    2.3339   -1.5995 H   0  0  0  0  0  0  0  0  0  0  0  0
   -1.4036    2.6273    0.1020 H   0  0  0  0  0  0  0  0  0  0  0  0
    1.2023    1.3720   -0.0579 H   0  0  0  0  0  0  0  0  0  0  0  0
    0.7753    0.7850    2.2181 H   0  0  0  0  0  0  0  0  0  0  0  0
   -0.8578    1.2286    1.7546 H   0  0  0  0  0  0  0  0  0  0  0  0
    0.0695   -1.4007    2.6000 H   0  0  0  0  0  0  0  0  0  0  0  0
   -1.5447   -1.0457    2.0149 H   0  0  0  0  0  0  0  0  0  0  0  0
    0.1901   -2.7184    0.5970 H   0  0  0  0  0  0  0  0  0  0  0  0
   -1.0328   -1.7306   -0.2052 H   0  0  0  0  0  0  0  0  0  0  0  0
    1.8596   -0.9274    0.3298 H   0  0  0  0  0  0  0  0  0  0  0  0
    0.2737   -0.9313   -2.2938 H   0  0  0  0  0  0  0  0  0  0  0  0
    1.9646   -0.4481   -2.1071 H   0  0  0  0  0  0  0  0  0  0  0  0
    1.5002   -2.1345   -1.8488 H   0  0  0  0  0  0  0  0  0  0  0  0
  1  2  1  0  0  0  0
  1 11  1  0  0  0  0
  2  3  1  0  0  0  0
  3  7  1  6  0  0  0
  3  4  1  0  0  0  0
  4 14  1  0  0  0  0
  4  5  1  0  0  0  0
  4 13  1  0  0  0  0
  5 16  1  0  0  0  0
  5 15  1  0  0  0  0
  6 17  1  0  0  0  0
  6  5  1  0  0  0  0
  7 19  1  1  0  0  0
  7  6  1  0  0  0  0
  8  7  1  0  0  0  0
  9  1  1  0  0  0  0
 10  1  1  0  0  0  0
 12  3  1  0  0  0  0
 18  6  1  0  0  0  0
 20  8  1  0  0  0  0
 21  8  1  0  0  0  0
 22  8  1  0  0  0  0
M  END
