20
title
C -0.6123327 2.6017811 0.8394119
O -0.92295665 1.2332071 0.73105115
C -0.16683947 0.55204386 -0.23748213
C 1.3225871 0.31771 0.10400712
C 1.7251564 -0.93481225 -0.72283465
C 0.40070102 -1.4918382 -1.3189429
C -0.70739156 -0.8652813 -0.4616347
O -0.8034343 -1.4894786 0.81222373
H 0.41165325 2.7725286 1.2033026
H -0.7246072 3.1235309 -0.1254217
H -1.3132923 3.0364459 1.556459
H -0.23891897 1.0843273 -1.2033697
H 1.9469668 1.1859161 -0.12030775
H 1.3939236 0.11837033 1.1763793
H 2.4385397 -0.69136435 -1.5145816
H 2.2075484 -1.6764615 -0.08212704
H 0.27848348 -1.1787233 -2.3623202
H 0.35183677 -2.5854402 -1.3084124
H -1.6849158 -0.85184115 -0.96382684
H -1.0430326 -2.4098387 0.6674609
