20
title
C -0.401001 2.515004 -1.2210181
C -0.47629428 0.9857074 -1.2168251
C 0.56218374 0.35601512 -0.28787807
O 0.37916818 0.8477701 1.0487058
C 0.00086239114 -0.24089901 1.8721786
O -0.40024155 -1.2851595 1.0301275
C 0.4652312 -1.1782166 -0.10013201
C -0.07971813 -2.0123234 -1.2432326
H 0.5750692 2.8616319 -1.579354
H -1.1677871 2.9455652 -1.8718694
H -0.5447318 2.9073021 -0.21126607
H -1.4744868 0.6608855 -0.90049917
H -0.3198109 0.60306513 -2.2331815
H 1.5706323 0.6381038 -0.6200491
H 0.8606428 -0.54556733 2.4967937
H -0.84140015 0.044547994 2.5116515
H 1.4653184 -1.5513347 0.18022236
H -1.0893868 -1.6990556 -1.5177438
H 0.56667745 -1.9254628 -2.1219416
H -0.11541675 -3.0650136 -0.9504183
