22
title
C -0.2108307 2.5968068 -1.2897425
C -0.1939792 1.0719492 -1.4359711
C 0.40264308 0.37203604 -0.22247474
O -0.4301427 0.60959953 0.91017765
C -0.0013999385 -0.2687397 1.9433255
C 0.6707255 -1.4836818 1.2482815
C 0.542844 -1.1666924 -0.26317102
C -0.6569215 -1.8764585 -0.90081525
H 0.8038131 2.9944541 -1.174659
H -0.6581616 3.0729432 -2.1675828
H -0.7867409 2.890217 -0.40830284
H -1.2137028 0.7053314 -1.5932499
H 0.3893041 0.78518826 -2.3201916
H 1.405914 0.7996628 -0.03128831
H 0.7090079 0.24398665 2.609164
H -0.88039815 -0.5397227 2.5359735
H 1.7197567 -1.5651037 1.5457814
H 0.185236 -2.4282718 1.5069959
H 1.4555529 -1.4494625 -0.7981557
H -1.5921224 -1.5748354 -0.4178999
H -0.741428 -1.654519 -1.968888
H -0.5591325 -2.9617324 -0.7948719
