24
title
C -1.1740429 2.6905262 0.5775431
C -1.2585014 1.1635948 0.68576336
C -0.32580182 0.42976916 -0.282674
C 1.1864725 0.63916326 -0.02030253
C 1.9010493 -0.6017898 -0.6266404
C 0.7692943 -1.5216095 -1.1508162
C -0.4852828 -1.1117249 -0.3528021
C -0.54704285 -1.8021314 1.0173876
H -0.16850375 3.0533683 0.8139345
H -1.4176302 3.0290916 -0.436027
H -1.8719112 3.176387 1.2668152
H -1.0288959 0.86347735 1.7159324
H -2.2932417 0.8469261 0.49810624
H -0.54126567 0.8050812 -1.2944293
H 1.5476798 1.5760937 -0.45273703
H 1.3748716 0.7042947 1.057712
H 2.5950747 -0.32796043 -1.4261062
H 2.4966795 -1.113019 0.13558406
H 0.5984184 -1.3313434 -2.2166512
H 1.0077318 -2.5852122 -1.0510732
H -1.3975222 -1.3705342 -0.9038655
H 0.3321148 -1.5771408 1.6313279
H -1.4319214 -1.499265 1.5850415
H -0.58983266 -2.8894503 0.8940671
