title
 OpenBabel02282110003D

 24 24  0  0  1  0  0  0  0  0999 V2000
   -1.1740    2.6905    0.5775 C   0  0  0  0  0  0  0  0  0  0  0  0
   -1.2585    1.1636    0.6858 C   0  0  0  0  0  0  0  0  0  0  0  0
   -0.3258    0.4298   -0.2827 C   0  0  1  0  0  0  0  0  0  0  0  0
    1.1865    0.6392   -0.0203 C   0  0  0  0  0  0  0  0  0  0  0  0
    1.9010   -0.6018   -0.6266 C   0  0  0  0  0  0  0  0  0  0  0  0
    0.7693   -1.5216   -1.1508 C   0  0  0  0  0  0  0  0  0  0  0  0
   -0.4853   -1.1117   -0.3528 C   0  0  1  0  0  0  0  0  0  0  0  0
   -0.5470   -1.8021    1.0174 C   0  0  0  0  0  0  0  0  0  0  0  0
   -0.1685    3.0534    0.8139 H   0  0  0  0  0  0  0  0  0  0  0  0
   -1.4176    3.0291   -0.4360 H   0  0  0  0  0  0  0  0  0  0  0  0
   -1.8719    3.1764    1.2668 H   0  0  0  0  0  0  0  0  0  0  0  0
   -1.0289    0.8635    1.7159 H   0  0  0  0  0  0  0  0  0  0  0  0
   -2.2932    0.8469    0.4981 H   0  0  0  0  0  0  0  0  0  0  0  0
   -0.5413    0.8051   -1.2944 H   0  0  0  0  0  0  0  0  0  0  0  0
    1.5477    1.5761   -0.4527 H   0  0  0  0  0  0  0  0  0  0  0  0
    1.3749    0.7043    1.0577 H   0  0  0  0  0  0  0  0  0  0  0  0
    2.5951   -0.3280   -1.4261 H   0  0  0  0  0  0  0  0  0  0  0  0
    2.4967   -1.1130    0.1356 H   0  0  0  0  0  0  0  0  0  0  0  0
    0.5984   -1.3313   -2.2167 H   0  0  0  0  0  0  0  0  0  0  0  0
    1.0077   -2.5852   -1.0511 H   0  0  0  0  0  0  0  0  0  0  0  0
   -1.3975   -1.3705   -0.9039 H   0  0  0  0  0  0  0  0  0  0  0  0
    0.3321   -1.5771    1.6313 H   0  0  0  0  0  0  0  0  0  0  0  0
   -1.4319   -1.4993    1.5850 H   0  0  0  0  0  0  0  0  0  0  0  0
   -0.5898   -2.8895    0.8941 H   0  0  0  0  0  0  0  0  0  0  0  0
  1  2  1  0  0  0  0
  1  9  1  0  0  0  0
  1 11  1  0  0  0  0
  2 12  1  0  0  0  0
  3  7  1  1  0  0  0
  3  4  1  0  0  0  0
  3  2  1  0  0  0  0
  4 16  1  0  0  0  0
  5  4  1  0  0  0  0
  5 18  1  0  0  0  0
  6 20  1  0  0  0  0
  6  5  1  0  0  0  0
  6  7  1  0  0  0  0
  7 21  1  6  0  0  0
  7  8  1  0  0  0  0
  8 23  1  0  0  0  0
  8 22  1  0  0  0  0
 10  1  1  0  0  0  0
 13  2  1  0  0  0  0
 14  3  1  0  0  0  0
 15  4  1  0  0  0  0
 17  5  1  0  0  0  0
 19  6  1  0  0  0  0
 24  8  1  0  0  0  0
M  END
