title
 OpenBabel02282110003D

 22 22  0  0  1  0  0  0  0  0999 V2000
    1.3241    2.5922    0.6548 C   0  0  0  0  0  0  0  0  0  0  0  0
    1.3775    1.0614    0.6172 C   0  0  0  0  0  0  0  0  0  0  0  0
    0.0006    0.4045    0.4874 C   0  0  1  0  0  0  0  0  0  0  0  0
   -0.7734    0.7245   -0.8136 C   0  0  0  0  0  0  0  0  0  0  0  0
   -1.7726   -0.4505   -1.0132 C   0  0  0  0  0  0  0  0  0  0  0  0
   -1.4063   -1.5014    0.0679 C   0  0  0  0  0  0  0  0  0  0  0  0
    0.0167   -1.1327    0.5096 C   0  0  1  0  0  0  0  0  0  0  0  0
    0.9901   -1.5625   -0.4419 O   0  0  0  0  0  0  0  0  0  0  0  0
    2.3246    3.0190    0.7773 H   0  0  0  0  0  0  0  0  0  0  0  0
    0.9011    3.0019   -0.2682 H   0  0  0  0  0  0  0  0  0  0  0  0
    0.7070    2.9493    1.4877 H   0  0  0  0  0  0  0  0  0  0  0  0
    2.0061    0.7276   -0.2149 H   0  0  0  0  0  0  0  0  0  0  0  0
    1.8617    0.6943    1.5317 H   0  0  0  0  0  0  0  0  0  0  0  0
   -0.6158    0.7163    1.3435 H   0  0  0  0  0  0  0  0  0  0  0  0
   -1.2773    1.6931   -0.7649 H   0  0  0  0  0  0  0  0  0  0  0  0
   -0.0699    0.7690   -1.6508 H   0  0  0  0  0  0  0  0  0  0  0  0
   -2.8117   -0.1264   -0.9088 H   0  0  0  0  0  0  0  0  0  0  0  0
   -1.6757   -0.8715   -2.0171 H   0  0  0  0  0  0  0  0  0  0  0  0
   -2.0799   -1.4257    0.9294 H   0  0  0  0  0  0  0  0  0  0  0  0
   -1.4706   -2.5335   -0.2940 H   0  0  0  0  0  0  0  0  0  0  0  0
    0.2613   -1.5272    1.5075 H   0  0  0  0  0  0  0  0  0  0  0  0
    0.9220   -2.5186   -0.5225 H   0  0  0  0  0  0  0  0  0  0  0  0
  1  9  1  0  0  0  0
  1 11  1  0  0  0  0
  2  1  1  0  0  0  0
  2 13  1  0  0  0  0
  3  7  1  1  0  0  0
  3  2  1  0  0  0  0
  3 14  1  0  0  0  0
  4 15  1  0  0  0  0
  4  3  1  0  0  0  0
  5 17  1  0  0  0  0
  5  4  1  0  0  0  0
  5  6  1  0  0  0  0
  6  7  1  0  0  0  0
  6 19  1  0  0  0  0
  7 21  1  1  0  0  0
  8  7  1  0  0  0  0
 10  1  1  0  0  0  0
 12  2  1  0  0  0  0
 16  4  1  0  0  0  0
 18  5  1  0  0  0  0
 20  6  1  0  0  0  0
 22  8  1  0  0  0  0
M  END
