22
title
C -1.031187 2.2465653 -0.8612558
O -0.6619373 0.89144963 -0.80376685
C 0.41707247 0.61280584 0.0822206
C -0.05109784 0.5196169 1.550669
C -0.4841643 -0.96131253 1.7645042
C -0.14977752 -1.6903772 0.44126326
C 0.9200542 -0.8082737 -0.22908713
C 1.1790321 -1.097564 -1.7052693
H -0.18904553 2.884064 -1.1752629
H -1.8327471 2.333856 -1.5995194
H -1.4036137 2.6273026 0.10200827
H 1.202253 1.3719726 -0.057857167
H 0.77533805 0.785003 2.218145
H -0.8578095 1.228582 1.7545619
H 0.06945372 -1.400723 2.600041
H -1.5447127 -1.0456626 2.0148728
H 0.19009334 -2.7184348 0.5969729
H -1.0328275 -1.7306209 -0.2051545
H 1.8596171 -0.9274225 0.32975215
H 0.27373767 -0.9312899 -2.2937794
H 1.9646236 -0.44810247 -2.107134
H 1.5001924 -2.1345441 -1.8488219
