18
title
C -0.5347378 2.1611652 1.2879369
O -0.48556724 0.7732051 1.0110079
C -0.43904954 0.46086705 -0.36547562
O 0.7598151 0.8543158 -0.97135234
C 1.7112122 -0.2330104 -0.9478817
C 1.0157487 -1.4094892 -0.25576648
C -0.47820747 -1.0757735 -0.4489492
O -1.3631226 -1.6738315 0.46065605
H 0.35260653 2.673458 0.8990916
H -1.4311957 2.6223438 0.8478141
H -0.57301974 2.2729688 2.3735762
H -1.2563593 0.97624123 -0.8882704
H 1.9778895 -0.4643625 -1.9859148
H 2.6176753 0.09646607 -0.43010387
H 1.2928605 -2.3770676 -0.67779255
H 1.2328601 -1.4228396 0.8160741
H -0.8024395 -1.364207 -1.4547163
H -1.3203117 -1.1311882 1.2593461
