16
title
O -0.12472011 -1.2364868 -0.053220235
C -0.08767723 -0.0295502 -0.0022069267
C 1.2305692 0.7621094 0.047816973
C 2.4340105 -0.04948068 0.02920117
C 3.4339547 -0.71364194 0.014128205
C -1.320116 0.80976224 0.01705731
C -2.521813 0.29602742 -0.7651067
C -2.5411623 0.23352289 0.72183216
H 1.2223961 1.4674382 -0.7956084
H 1.2001288 1.394433 0.9467925
H 4.31282 -1.3091941 0.00031981303
H -1.1762849 1.8835654 0.06403199
H -3.1328964 1.0351298 -1.2699817
H -2.3642876 -0.63211817 -1.3020895
H -2.3965778 -0.73658586 1.1829258
H -3.1660004 0.9282503 1.2709447
