title
 OpenBabel02282110003D

 20 20  0  0  1  0  0  0  0  0999 V2000
   -0.3916    2.3320    1.1788 C   0  0  0  0  0  0  0  0  0  0  0  0
   -0.5053    0.9572    0.8980 O   0  0  0  0  0  0  0  0  0  0  0  0
   -0.1427    0.5998   -0.4259 C   0  0  1  0  0  0  0  0  0  0  0  0
    1.3808    0.4684   -0.6018 C   0  0  0  0  0  0  0  0  0  0  0  0
    1.7230   -0.8896   -0.3312 O   0  0  0  0  0  0  0  0  0  0  0  0
    0.5410   -1.6307   -0.0436 C   0  0  0  0  0  0  0  0  0  0  0  0
   -0.6111   -0.8447   -0.6808 C   0  0  1  0  0  0  0  0  0  0  0  0
   -2.0053   -1.1901   -0.1675 C   0  0  0  0  0  0  0  0  0  0  0  0
    0.6446    2.6945    1.1046 H   0  0  0  0  0  0  0  0  0  0  0  0
   -1.0146    2.9359    0.5002 H   0  0  0  0  0  0  0  0  0  0  0  0
   -0.7378    2.4822    2.2044 H   0  0  0  0  0  0  0  0  0  0  0  0
   -0.5783    1.3173   -1.1371 H   0  0  0  0  0  0  0  0  0  0  0  0
    1.6842    0.7206   -1.6278 H   0  0  0  0  0  0  0  0  0  0  0  0
    1.9226    1.1309    0.0844 H   0  0  0  0  0  0  0  0  0  0  0  0
    0.6583   -2.6376   -0.4572 H   0  0  0  0  0  0  0  0  0  0  0  0
    0.3918   -1.7165    1.0437 H   0  0  0  0  0  0  0  0  0  0  0  0
   -0.5664   -1.0033   -1.7659 H   0  0  0  0  0  0  0  0  0  0  0  0
   -2.0847   -0.9904    0.9030 H   0  0  0  0  0  0  0  0  0  0  0  0
   -2.7717   -0.5979   -0.6777 H   0  0  0  0  0  0  0  0  0  0  0  0
   -2.2318   -2.2469   -0.3430 H   0  0  0  0  0  0  0  0  0  0  0  0
  1 11  1  0  0  0  0
  2  1  1  0  0  0  0
  3  7  1  6  0  0  0
  3  2  1  0  0  0  0
  4  3  1  0  0  0  0
  4  5  1  0  0  0  0
  4 14  1  0  0  0  0
  5  6  1  0  0  0  0
  6 16  1  0  0  0  0
  7 17  1  6  0  0  0
  7  8  1  0  0  0  0
  7  6  1  0  0  0  0
  8 18  1  0  0  0  0
  9  1  1  0  0  0  0
 10  1  1  0  0  0  0
 12  3  1  0  0  0  0
 13  4  1  0  0  0  0
 15  6  1  0  0  0  0
 19  8  1  0  0  0  0
 20  8  1  0  0  0  0
M  END
