title
 OpenBabel02282110003D

 18 18  0  0  1  0  0  0  0  0999 V2000
    1.2106    2.3840    0.4843 O   0  0  0  0  0  0  0  0  0  0  0  0
    1.3388    0.9737    0.4563 C   0  0  0  0  0  0  0  0  0  0  0  0
   -0.0290    0.3166    0.6145 C   0  0  1  0  0  0  0  0  0  0  0  0
   -0.8847    0.8038   -0.4379 O   0  0  0  0  0  0  0  0  0  0  0  0
   -1.4545   -0.2932   -1.1481 C   0  0  0  0  0  0  0  0  0  0  0  0
   -1.4121   -1.4643   -0.1646 C   0  0  0  0  0  0  0  0  0  0  0  0
   -0.0656   -1.2193    0.5358 C   0  0  1  0  0  0  0  0  0  0  0  0
    1.0301   -1.6633   -0.2568 O   0  0  0  0  0  0  0  0  0  0  0  0
    0.5405    2.5961   -0.1765 H   0  0  0  0  0  0  0  0  0  0  0  0
    1.8055    0.6242   -0.4728 H   0  0  0  0  0  0  0  0  0  0  0  0
    1.9916    0.6930    1.2895 H   0  0  0  0  0  0  0  0  0  0  0  0
   -0.4640    0.6445    1.5689 H   0  0  0  0  0  0  0  0  0  0  0  0
   -2.4659   -0.0146   -1.4583 H   0  0  0  0  0  0  0  0  0  0  0  0
   -0.8625   -0.5214   -2.0456 H   0  0  0  0  0  0  0  0  0  0  0  0
   -2.2316   -1.3905    0.5584 H   0  0  0  0  0  0  0  0  0  0  0  0
   -1.4628   -2.4453   -0.6458 H   0  0  0  0  0  0  0  0  0  0  0  0
   -0.0222   -1.6645    1.5384 H   0  0  0  0  0  0  0  0  0  0  0  0
    0.9817   -2.6220   -0.3201 H   0  0  0  0  0  0  0  0  0  0  0  0
  2  1  1  0  0  0  0
  2  3  1  0  0  0  0
  2 11  1  0  0  0  0
  3  7  1  6  0  0  0
  3 12  1  0  0  0  0
  4  3  1  0  0  0  0
  5  4  1  0  0  0  0
  5  6  1  0  0  0  0
  6  7  1  0  0  0  0
  6 15  1  0  0  0  0
  7 17  1  1  0  0  0
  8  7  1  0  0  0  0
  9  1  1  0  0  0  0
 10  2  1  0  0  0  0
 13  5  1  0  0  0  0
 14  5  1  0  0  0  0
 16  6  1  0  0  0  0
 18  8  1  0  0  0  0
M  END
