title
 OpenBabel02282110003D

 16 16  0  0  0  0  0  0  0  0999 V2000
   -0.1247   -1.2365   -0.0532 O   0  0  0  0  0  0  0  0  0  0  0  0
   -0.0877   -0.0296   -0.0022 C   0  0  0  0  0  0  0  0  0  0  0  0
    1.2306    0.7621    0.0478 C   0  0  0  0  0  0  0  0  0  0  0  0
    2.4340   -0.0495    0.0292 C   0  0  0  0  0  0  0  0  0  0  0  0
    3.4340   -0.7136    0.0141 C   0  0  0  0  0  0  0  0  0  0  0  0
   -1.3201    0.8098    0.0171 C   0  0  0  0  0  0  0  0  0  0  0  0
   -2.5218    0.2960   -0.7651 C   0  0  0  0  0  0  0  0  0  0  0  0
   -2.5412    0.2335    0.7218 C   0  0  0  0  0  0  0  0  0  0  0  0
    1.2224    1.4674   -0.7956 H   0  0  0  0  0  0  0  0  0  0  0  0
    1.2001    1.3944    0.9468 H   0  0  0  0  0  0  0  0  0  0  0  0
    4.3128   -1.3092    0.0003 H   0  0  0  0  0  0  0  0  0  0  0  0
   -1.1763    1.8836    0.0640 H   0  0  0  0  0  0  0  0  0  0  0  0
   -3.1329    1.0351   -1.2700 H   0  0  0  0  0  0  0  0  0  0  0  0
   -2.3643   -0.6321   -1.3021 H   0  0  0  0  0  0  0  0  0  0  0  0
   -2.3966   -0.7366    1.1829 H   0  0  0  0  0  0  0  0  0  0  0  0
   -3.1660    0.9283    1.2709 H   0  0  0  0  0  0  0  0  0  0  0  0
  1  2  2  0  0  0  0
  2  6  1  0  0  0  0
  2  3  1  0  0  0  0
  3 10  1  0  0  0  0
  4  3  1  0  0  0  0
  5  4  3  0  0  0  0
  6 12  1  0  0  0  0
  6  8  1  0  0  0  0
  7  6  1  0  0  0  0
  7  8  1  0  0  0  0
  8 15  1  0  0  0  0
  8 16  1  0  0  0  0
  9  3  1  0  0  0  0
 11  5  1  0  0  0  0
 13  7  1  0  0  0  0
 14  7  1  0  0  0  0
M  END
