18
title
O 1.08993 2.467691 0.59338677
C 1.3022482 1.0627711 0.681368
C -0.048514124 0.39559224 0.48258442
C -0.68697715 0.62470895 -0.8937447
O -1.6466483 -0.42108783 -1.0560535
C -1.3607203 -1.4795115 -0.15068655
C -0.039913055 -1.1375813 0.5540623
O 1.0977601 -1.5980616 -0.16857378
H 1.9473703 2.9016676 0.62125474
H 2.00323 0.71128607 -0.08626078
H 1.7165883 0.7829838 1.663154
H -0.73455346 0.7648102 1.2543705
H -1.2014519 1.5850956 -0.97330534
H 0.074980505 0.56905246 -1.6849383
H -2.1797311 -1.5764761 0.5776796
H -1.2836393 -2.4293125 -0.69868183
H -0.019930836 -1.5129383 1.5870003
H 1.0259081 -2.5522184 -0.26740888
