20
title
C -0.43207398 2.2510998 1.134491
O -0.41055402 0.842473 1.0106052
C -0.51675004 0.39186677 -0.3170389
O 0.5843016 0.7881908 -1.1039051
C 1.599823 -0.22953783 -1.069899
C 1.029265 -1.3917834 -0.24256478
C -0.48884234 -1.1417774 -0.3151182
C -1.3235663 -1.8191746 0.7671233
H 0.40730312 2.7142138 0.6027771
H -1.3700613 2.6725261 0.7406012
H -0.36060253 2.4818027 2.1998188
H -1.4099423 0.8314366 -0.78611135
H 1.8106065 -0.5266174 -2.1046865
H 2.519619 0.18488862 -0.6427902
H 1.3216186 -2.368204 -0.63612115
H 1.3617039 -1.3289772 0.79787815
H -0.8473102 -1.4550518 -1.3039814
H -1.0039749 -1.498547 1.761116
H -2.38535 -1.5733908 0.66038406
H -1.2267438 -2.9078674 0.7044247
