title
 OpenBabel02282110003D

 18 18  0  0  1  0  0  0  0  0999 V2000
   -1.1861    2.2694    0.7318 C   0  0  0  0  0  0  0  0  0  0  0  0
   -0.2578    1.2179    0.9526 O   0  0  0  0  0  0  0  0  0  0  0  0
    0.2628    0.6486   -0.2379 C   0  0  1  0  0  0  0  0  0  0  0  0
    1.6634    0.0712    0.0450 C   0  0  0  0  0  0  0  0  0  0  0  0
    1.7082   -1.2051   -0.5719 O   0  0  0  0  0  0  0  0  0  0  0  0
    0.4182   -1.7675   -0.4040 C   0  0  0  0  0  0  0  0  0  0  0  0
   -0.5665   -0.6124   -0.6796 C   0  0  1  0  0  0  0  0  0  0  0  0
   -1.7955   -0.7248   -0.0030 O   0  0  0  0  0  0  0  0  0  0  0  0
   -0.7208    3.0936    0.1725 H   0  0  0  0  0  0  0  0  0  0  0  0
   -2.0716    1.9222    0.1858 H   0  0  0  0  0  0  0  0  0  0  0  0
   -1.4896    2.6364    1.7153 H   0  0  0  0  0  0  0  0  0  0  0  0
    0.2861    1.4064   -1.0292 H   0  0  0  0  0  0  0  0  0  0  0  0
    2.4808    0.6712   -0.3607 H   0  0  0  0  0  0  0  0  0  0  0  0
    1.7841   -0.0027    1.1371 H   0  0  0  0  0  0  0  0  0  0  0  0
    0.3211   -2.6103   -1.0916 H   0  0  0  0  0  0  0  0  0  0  0  0
    0.2636   -2.1317    0.6261 H   0  0  0  0  0  0  0  0  0  0  0  0
   -0.7937   -0.5605   -1.7479 H   0  0  0  0  0  0  0  0  0  0  0  0
   -1.6336   -0.3835    0.8874 H   0  0  0  0  0  0  0  0  0  0  0  0
  1  2  1  0  0  0  0
  1 11  1  0  0  0  0
  3  7  1  6  0  0  0
  3  4  1  0  0  0  0
  3  2  1  0  0  0  0
  4 14  1  0  0  0  0
  5  6  1  0  0  0  0
  5  4  1  0  0  0  0
  6 16  1  0  0  0  0
  7 17  1  6  0  0  0
  7  6  1  0  0  0  0
  7  8  1  0  0  0  0
  8 18  1  0  0  0  0
  9  1  1  0  0  0  0
 10  1  1  0  0  0  0
 12  3  1  0  0  0  0
 13  4  1  0  0  0  0
 15  6  1  0  0  0  0
M  END
