title
 OpenBabel02282110003D

 16 16  0  0  0  0  0  0  0  0999 V2000
    0.4176    1.3366   -1.5070 N   0  0  0  0  0  0  0  0  0  0  0  0
    0.0249    0.5320   -0.5966 C   0  0  0  0  0  0  0  0  0  0  0  0
   -1.3752    0.4475   -0.4680 N   0  0  0  0  0  0  0  0  0  0  0  0
   -2.1862   -0.2806    0.3672 C   0  0  0  0  0  0  0  0  0  0  0  0
   -1.8530   -1.0591    1.2311 O   0  0  0  0  0  0  0  0  0  0  0  0
    0.8539   -0.3022    0.3175 C   0  0  0  0  0  0  0  0  0  0  0  0
    2.1646   -0.8738   -0.1953 C   0  0  0  0  0  0  0  0  0  0  0  0
    2.1882    0.2404    0.7999 C   0  0  0  0  0  0  0  0  0  0  0  0
    1.4338    1.3667   -1.5653 H   0  0  0  0  0  0  0  0  0  0  0  0
   -1.8427    1.0508   -1.1323 H   0  0  0  0  0  0  0  0  0  0  0  0
   -3.2486   -0.0606    0.1466 H   0  0  0  0  0  0  0  0  0  0  0  0
    0.2920   -0.9093    1.0106 H   0  0  0  0  0  0  0  0  0  0  0  0
    2.4239   -1.8743    0.1311 H   0  0  0  0  0  0  0  0  0  0  0  0
    2.4334   -0.6524   -1.2227 H   0  0  0  0  0  0  0  0  0  0  0  0
    2.4735    1.2298    0.4586 H   0  0  0  0  0  0  0  0  0  0  0  0
    2.4642    0.0221    1.8251 H   0  0  0  0  0  0  0  0  0  0  0  0
  1  2  2  0  0  0  0
  2  3  1  0  0  0  0
  2  6  1  0  0  0  0
  3  4  1  0  0  0  0
  4  5  2  0  0  0  0
  6  8  1  0  0  0  0
  6 12  1  0  0  0  0
  7 13  1  0  0  0  0
  7  6  1  0  0  0  0
  7  8  1  0  0  0  0
  8 16  1  0  0  0  0
  9  1  1  0  0  0  0
 10  3  1  0  0  0  0
 11  4  1  0  0  0  0
 14  7  1  0  0  0  0
 15  8  1  0  0  0  0
M  END
