title
 OpenBabel02282110003D

 14 14  0  0  1  0  0  0  0  0999 V2000
   -0.3889   -2.0751    0.1947 O   0  0  0  0  0  0  0  0  0  0  0  0
   -0.3195   -0.8716    0.1899 C   0  0  0  0  0  0  0  0  0  0  0  0
    0.4985   -0.0887    1.2327 C   0  0  0  0  0  0  0  0  0  0  0  0
    1.7832    0.3007    0.6661 C   0  0  0  0  0  0  0  0  0  0  0  0
    2.8392    0.5925    0.1735 C   0  0  0  0  0  0  0  0  0  0  0  0
   -1.0362   -0.0740   -0.8644 C   0  0  1  0  0  0  0  0  0  0  0  0
   -2.0520    0.9275   -0.4758 C   0  0  0  0  0  0  0  0  0  0  0  0
   -0.7751    1.3241   -0.9510 O   0  0  0  0  0  0  0  0  0  0  0  0
   -0.0477    0.8049    1.5547 H   0  0  0  0  0  0  0  0  0  0  0  0
    0.6367   -0.7475    2.0951 H   0  0  0  0  0  0  0  0  0  0  0  0
    3.7735    0.8630   -0.2524 H   0  0  0  0  0  0  0  0  0  0  0  0
   -1.1648   -0.5993   -1.8090 H   0  0  0  0  0  0  0  0  0  0  0  0
   -2.8888    1.1057   -1.1486 H   0  0  0  0  0  0  0  0  0  0  0  0
   -2.2479    1.1229    0.5775 H   0  0  0  0  0  0  0  0  0  0  0  0
  2  1  2  0  0  0  0
  2  3  1  0  0  0  0
  3  9  1  0  0  0  0
  3 10  1  0  0  0  0
  4  3  1  0  0  0  0
  5  4  3  0  0  0  0
  6 12  1  6  0  0  0
  6  7  1  0  0  0  0
  6  2  1  0  0  0  0
  7 14  1  0  0  0  0
  8  6  1  0  0  0  0
  8  7  1  0  0  0  0
 11  5  1  0  0  0  0
 13  7  1  0  0  0  0
M  END
