title
 OpenBabel02282110003D

 15 15  0  0  0  0  0  0  0  0999 V2000
   -0.1134   -1.2327   -0.0521 O   0  0  0  0  0  0  0  0  0  0  0  0
   -0.1076   -0.0263   -0.0026 C   0  0  0  0  0  0  0  0  0  0  0  0
    1.2026    0.7833    0.0498 C   0  0  0  0  0  0  0  0  0  0  0  0
    2.4058   -0.0378    0.0340 C   0  0  0  0  0  0  0  0  0  0  0  0
    3.3734   -0.6674    0.0225 N   0  0  0  0  0  0  0  0  0  0  0  0
   -1.3459    0.7959    0.0129 C   0  0  0  0  0  0  0  0  0  0  0  0
   -2.5410    0.2639   -0.7709 C   0  0  0  0  0  0  0  0  0  0  0  0
   -2.5632    0.2028    0.7144 C   0  0  0  0  0  0  0  0  0  0  0  0
    1.2186    1.4800   -0.7979 H   0  0  0  0  0  0  0  0  0  0  0  0
    1.1929    1.4086    0.9516 H   0  0  0  0  0  0  0  0  0  0  0  0
   -1.2161    1.8714    0.0591 H   0  0  0  0  0  0  0  0  0  0  0  0
   -3.1569    0.9970   -1.2785 H   0  0  0  0  0  0  0  0  0  0  0  0
   -2.3699   -0.6616   -1.3081 H   0  0  0  0  0  0  0  0  0  0  0  0
   -2.4069   -0.7640    1.1785 H   0  0  0  0  0  0  0  0  0  0  0  0
   -3.1948    0.8923    1.2620 H   0  0  0  0  0  0  0  0  0  0  0  0
  1  2  2  0  0  0  0
  2  6  1  0  0  0  0
  2  3  1  0  0  0  0
  3 10  1  0  0  0  0
  4  3  1  0  0  0  0
  5  4  3  0  0  0  0
  6 11  1  0  0  0  0
  6  8  1  0  0  0  0
  7  6  1  0  0  0  0
  7  8  1  0  0  0  0
  8 14  1  0  0  0  0
  8 15  1  0  0  0  0
  9  3  1  0  0  0  0
 12  7  1  0  0  0  0
 13  7  1  0  0  0  0
M  END
