15
title
N 0.4955211 1.9762493 0.88492936
C 0.1437987 0.82085216 0.47150785
N -1.2418584 0.58967215 0.40006173
C -1.9683576 -0.5323485 0.08112474
O -1.5481395 -1.5989453 -0.2973068
N 0.9572398 -0.26528424 0.17623971
C 1.0927615 -0.84025764 -1.1508416
C 2.222828 -0.094805226 -0.5153321
H 1.5097204 2.054461 0.9154441
H -1.7642343 1.397969 0.7080703
H -3.0494456 -0.32713187 0.21169986
H 1.0857848 -1.9233199 -1.1876163
H 0.5731155 -0.3497156 -1.9693542
H 2.4556649 0.8934134 -0.9072097
H 3.064196 -0.63226247 -0.08860015
