title
 OpenBabel02282110003D

 14 14  0  0  1  0  0  0  0  0999 V2000
   -0.1781   -1.1864   -0.3393 O   0  0  0  0  0  0  0  0  0  0  0  0
   -0.1219   -0.0549    0.0795 C   0  0  0  0  0  0  0  0  0  0  0  0
    1.1733    0.5652    0.6249 C   0  0  0  0  0  0  0  0  0  0  0  0
    2.3473   -0.2812    0.4593 C   0  0  0  0  0  0  0  0  0  0  0  0
    3.2916   -0.9331    0.3342 N   0  0  0  0  0  0  0  0  0  0  0  0
   -1.3157    0.8413    0.1115 C   0  0  1  0  0  0  0  0  0  0  0  0
   -2.1252    0.9026   -1.1532 C   0  0  0  0  0  0  0  0  0  0  0  0
   -2.6372    0.2076    0.0152 N   0  0  0  0  0  0  0  0  0  0  0  0
    1.3390    1.5342    0.1376 H   0  0  0  0  0  0  0  0  0  0  0  0
    1.0245    0.7874    1.6897 H   0  0  0  0  0  0  0  0  0  0  0  0
   -1.2590    1.7212    0.7461 H   0  0  0  0  0  0  0  0  0  0  0  0
   -2.6232    1.8350   -1.4020 H   0  0  0  0  0  0  0  0  0  0  0  0
   -1.7631    0.3178   -1.9941 H   0  0  0  0  0  0  0  0  0  0  0  0
   -2.4805   -0.7944   -0.1022 H   0  0  0  0  0  0  0  0  0  0  0  0
  1  2  2  0  0  0  0
  2  6  1  0  0  0  0
  2  3  1  0  0  0  0
  3 10  1  0  0  0  0
  4  3  1  0  0  0  0
  5  4  3  0  0  0  0
  6 11  1  1  0  0  0
  7  8  1  0  0  0  0
  7  6  1  0  0  0  0
  8  6  1  0  0  0  0
  9  3  1  0  0  0  0
 12  7  1  0  0  0  0
 13  7  1  0  0  0  0
 14  8  1  0  0  0  0
M  END
