title
 OpenBabel02282110003D

 13 13  0  0  1  0  0  0  0  0999 V2000
   -0.1318   -2.0582   -0.6262 O   0  0  0  0  0  0  0  0  0  0  0  0
   -0.2197   -0.9371   -0.1987 C   0  0  0  0  0  0  0  0  0  0  0  0
    0.4611   -0.5166    1.1236 C   0  0  0  0  0  0  0  0  0  0  0  0
    1.6624    0.2706    0.8634 C   0  0  0  0  0  0  0  0  0  0  0  0
    2.6214    0.8760    0.6434 N   0  0  0  0  0  0  0  0  0  0  0  0
   -0.9981    0.1182   -0.9285 C   0  0  1  0  0  0  0  0  0  0  0  0
   -2.1227    0.8084   -0.2600 C   0  0  0  0  0  0  0  0  0  0  0  0
   -0.8806    1.4617   -0.4689 O   0  0  0  0  0  0  0  0  0  0  0  0
   -0.2193    0.0786    1.7404 H   0  0  0  0  0  0  0  0  0  0  0  0
    0.7271   -1.4308    1.6598 H   0  0  0  0  0  0  0  0  0  0  0  0
   -1.0420   -0.0238   -2.0064 H   0  0  0  0  0  0  0  0  0  0  0  0
   -2.9525    1.1541   -0.8729 H   0  0  0  0  0  0  0  0  0  0  0  0
   -2.3696    0.5744    0.7746 H   0  0  0  0  0  0  0  0  0  0  0  0
  1  2  2  0  0  0  0
  2  3  1  0  0  0  0
  3 10  1  0  0  0  0
  3  9  1  0  0  0  0
  4  3  1  0  0  0  0
  5  4  3  0  0  0  0
  6 11  1  6  0  0  0
  6  8  1  0  0  0  0
  6  7  1  0  0  0  0
  6  2  1  0  0  0  0
  7 13  1  0  0  0  0
  8  7  1  0  0  0  0
 12  7  1  0  0  0  0
M  END
