14
title
O -0.17810841 -1.1863656 -0.33931765
C -0.121947624 -0.05487063 0.079523
C 1.1732696 0.565228 0.62490606
C 2.3473358 -0.28116766 0.45931774
N 3.2915576 -0.93312156 0.33424613
C -1.3156999 0.84133375 0.11151981
C -2.1252315 0.9026109 -1.1532195
N -2.6371865 0.20755753 0.015226515
H 1.338972 1.5341536 0.13757305
H 1.0244545 0.787372 1.689724
H -1.2590498 1.7211603 0.7461463
H -2.623165 1.8350254 -1.4020241
H -1.7630615 0.3177739 -1.9940515
H -2.4805145 -0.79437095 -0.10219881
