14
title
N 0.23870088 0.7856024 1.9026201
C -0.09375236 0.22386922 0.8125528
N -1.4639609 0.13877986 0.526295
C -2.0838258 -0.30693752 -0.61317456
O -1.5363793 -0.74717885 -1.5977932
C 0.8673214 -0.361723 -0.18259555
C 1.7697873 0.5288416 -0.93010324
O 2.2344697 -0.22299606 0.19277588
H 1.2556794 0.75064385 1.9915824
H -2.0451572 0.5149973 1.2640268
H -3.182964 -0.21702631 -0.52369153
H 0.59192574 -1.3108492 -0.6291622
H 2.1471934 0.21074736 -1.8994887
H 1.7036084 1.6035476 -0.7717685
