title
 OpenBabel02282110003D

 15 15  0  0  0  0  0  0  0  0999 V2000
    0.4955    1.9762    0.8849 N   0  0  0  0  0  0  0  0  0  0  0  0
    0.1438    0.8209    0.4715 C   0  0  0  0  0  0  0  0  0  0  0  0
   -1.2419    0.5897    0.4001 N   0  0  0  0  0  0  0  0  0  0  0  0
   -1.9684   -0.5323    0.0811 C   0  0  0  0  0  0  0  0  0  0  0  0
   -1.5481   -1.5989   -0.2973 O   0  0  0  0  0  0  0  0  0  0  0  0
    0.9572   -0.2653    0.1762 N   0  0  0  0  0  0  0  0  0  0  0  0
    1.0928   -0.8403   -1.1508 C   0  0  0  0  0  0  0  0  0  0  0  0
    2.2228   -0.0948   -0.5153 C   0  0  0  0  0  0  0  0  0  0  0  0
    1.5097    2.0545    0.9154 H   0  0  0  0  0  0  0  0  0  0  0  0
   -1.7642    1.3980    0.7081 H   0  0  0  0  0  0  0  0  0  0  0  0
   -3.0494   -0.3271    0.2117 H   0  0  0  0  0  0  0  0  0  0  0  0
    1.0858   -1.9233   -1.1876 H   0  0  0  0  0  0  0  0  0  0  0  0
    0.5731   -0.3497   -1.9694 H   0  0  0  0  0  0  0  0  0  0  0  0
    2.4557    0.8934   -0.9072 H   0  0  0  0  0  0  0  0  0  0  0  0
    3.0642   -0.6323   -0.0886 H   0  0  0  0  0  0  0  0  0  0  0  0
  1  9  1  0  0  0  0
  2  1  2  0  0  0  0
  3  2  1  0  0  0  0
  3 10  1  0  0  0  0
  4 11  1  0  0  0  0
  4  3  1  0  0  0  0
  5  4  2  0  0  0  0
  6  2  1  0  0  0  0
  7  8  1  0  0  0  0
  7  6  1  0  0  0  0
  8 15  1  0  0  0  0
  8  6  1  0  0  0  0
 12  7  1  0  0  0  0
 13  7  1  0  0  0  0
 14  8  1  0  0  0  0
M  END
