15
title
N 0.054654695 1.5588262 0.02295395
C 0.1586803 0.29787374 0.029775253
O -0.96141344 -0.49818572 0.16474375
C -2.2098854 0.051259622 -0.007514587
O -3.1870155 -0.5974811 0.19911648
C 1.3607732 -0.5694181 -0.066381715
C 2.5357523 -0.13436106 -0.92382
C 2.6649237 -0.116590634 0.5645252
H 0.960793 2.0089757 -0.0896427
H -2.1696706 1.091276 -0.35202166
H 1.1354761 -1.6275345 -0.03388279
H 3.0479603 -0.90680873 -1.4853282
H 2.441396 0.8119836 -1.4457026
H 2.6572392 0.8422616 1.0718471
H 3.268695 -0.8757943 1.0475401
