13
title
N 0.012735586 1.5422238 0.30894142
C 0.10778378 0.29578233 0.14931473
O -0.9544113 -0.5000028 -0.2027277
C -2.2348645 0.0027066167 -0.10073822
O -3.1625736 -0.63416755 -0.4853
C 1.3411282 -0.54216367 0.27255118
C 2.4739835 -0.31723523 -0.6446128
O 2.4984517 0.16210967 0.6992837
H 0.92221045 1.9095616 0.5933453
H -2.2591321 0.99505365 0.36512718
H 1.1960115 -1.5330104 0.69851714
H 3.152032 -1.1395973 -0.8626579
H 2.38728 0.44969836 -1.4114426
