13
title
N 1.1817273 2.7133472 -0.39265156
C 1.2373115 1.5979569 0.1825134
O 0.27661577 0.666019 -0.1362537
C 0.27358535 -0.5133811 0.55274534
O 1.0228915 -0.78820026 1.4503738
C -0.80795264 -1.425558 0.06399601
C -2.1085942 -0.8945056 -0.3942212
O -1.146018 -1.3753554 -1.3176678
H 1.9505268 3.3034503 -0.07752112
H 1.9523304 1.2336216 0.9200051
H -0.7515063 -2.4155636 0.5092642
H -2.992436 -1.5160826 -0.2620219
H -2.266916 0.1809578 -0.40344602
