15
title
N 2.6993036 1.5728036 -0.9178619
C 1.9358546 1.0311499 -0.058949575
N 0.8186645 0.32399297 -0.46581945
C -0.041011028 -0.31506065 0.40896967
O 0.111297674 -0.33152363 1.6108377
N -1.068941 -0.98896086 -0.2738626
C -2.3505182 -1.1454916 0.3831378
C -2.2200885 -0.25207248 -0.8061961
H 3.4682221 2.0506458 -0.45208278
H 2.03795 1.0423272 1.028142
H 0.66918224 0.23331366 -1.460571
H -2.8091226 -2.123566 0.2765305
H -2.4559178 -0.6822009 1.3594986
H -2.2527475 0.8207255 -0.6336773
H -2.571834 -0.5741947 -1.7818412
