title
 OpenBabel02282110003D

 16 16  0  0  0  0  0  0  0  0999 V2000
    3.3895   -0.0092   -0.0968 N   0  0  0  0  0  0  0  0  0  0  0  0
    2.2271    0.4962   -0.1846 C   0  0  0  0  0  0  0  0  0  0  0  0
    1.1084   -0.2899    0.0379 N   0  0  0  0  0  0  0  0  0  0  0  0
   -0.1917    0.1824   -0.0384 C   0  0  0  0  0  0  0  0  0  0  0  0
   -0.4444    1.3412   -0.3110 O   0  0  0  0  0  0  0  0  0  0  0  0
   -1.2411   -0.8385    0.2388 C   0  0  0  0  0  0  0  0  0  0  0  0
   -2.5065   -0.3508    0.9250 C   0  0  0  0  0  0  0  0  0  0  0  0
   -2.5485   -0.7008   -0.5239 C   0  0  0  0  0  0  0  0  0  0  0  0
    4.0961    0.6984   -0.2888 H   0  0  0  0  0  0  0  0  0  0  0  0
    1.9614    1.5268   -0.4260 H   0  0  0  0  0  0  0  0  0  0  0  0
    1.2853   -1.2576    0.2665 H   0  0  0  0  0  0  0  0  0  0  0  0
   -0.9019   -1.8422    0.4715 H   0  0  0  0  0  0  0  0  0  0  0  0
   -2.9667   -1.0202    1.6423 H   0  0  0  0  0  0  0  0  0  0  0  0
   -2.5222    0.7011    1.1845 H   0  0  0  0  0  0  0  0  0  0  0  0
   -2.5923    0.1170   -1.2333 H   0  0  0  0  0  0  0  0  0  0  0  0
   -3.0386   -1.6175   -0.8305 H   0  0  0  0  0  0  0  0  0  0  0  0
  2  1  2  0  0  0  0
  2  3  1  0  0  0  0
  3 11  1  0  0  0  0
  4  3  1  0  0  0  0
  4  6  1  0  0  0  0
  5  4  2  0  0  0  0
  6 12  1  0  0  0  0
  6  7  1  0  0  0  0
  7 14  1  0  0  0  0
  7 13  1  0  0  0  0
  8  6  1  0  0  0  0
  8  7  1  0  0  0  0
  9  1  1  0  0  0  0
 10  2  1  0  0  0  0
 15  8  1  0  0  0  0
 16  8  1  0  0  0  0
M  END
