14
title
N 0.25224572 1.8353283 -0.79429585
C 0.40421084 0.6783372 -0.30926016
O -0.67810947 -0.059525426 0.1287406
C -1.9588166 0.35981888 -0.1585705
O -2.893665 -0.24054658 0.26721093
C 1.6667631 -0.07584113 -0.107096374
C 1.8490876 -0.9064031 1.1234889
N 1.6916553 -1.5468912 -0.17852366
H 1.146611 2.2299826 -1.0782267
H -1.9747645 1.2519403 -0.7944431
H 2.5332496 0.4120491 -0.5440943
H 2.8423698 -0.9726935 1.5571467
H 1.0246035 -0.94388527 1.828238
H 0.7375393 -1.8889453 -0.27151996
