title
 OpenBabel02282110003D

 13 13  0  0  1  0  0  0  0  0999 V2000
   -2.5874   -1.3664    0.0210 O   0  0  0  0  0  0  0  0  0  0  0  0
   -2.3427   -0.3679   -0.5932 C   0  0  0  0  0  0  0  0  0  0  0  0
   -1.1242    0.3131   -0.6178 N   0  0  0  0  0  0  0  0  0  0  0  0
    0.0636   -0.0299    0.0417 C   0  0  0  0  0  0  0  0  0  0  0  0
    0.2128   -1.0195    0.7074 O   0  0  0  0  0  0  0  0  0  0  0  0
    1.1612    0.9953   -0.1557 C   0  0  1  0  0  0  0  0  0  0  0  0
    2.1786    1.1327    0.9025 C   0  0  0  0  0  0  0  0  0  0  0  0
    2.4667    0.4510   -0.3086 O   0  0  0  0  0  0  0  0  0  0  0  0
   -3.0812    0.1551   -1.2346 H   0  0  0  0  0  0  0  0  0  0  0  0
   -1.1061    1.1461   -1.1883 H   0  0  0  0  0  0  0  0  0  0  0  0
    0.9466    1.8515   -0.7968 H   0  0  0  0  0  0  0  0  0  0  0  0
    2.6717    2.0942    1.0354 H   0  0  0  0  0  0  0  0  0  0  0  0
    2.0896    0.4957    1.7791 H   0  0  0  0  0  0  0  0  0  0  0  0
  2  1  2  0  0  0  0
  3  2  1  0  0  0  0
  3  4  1  0  0  0  0
  4  5  2  0  0  0  0
  6 11  1  6  0  0  0
  6  4  1  0  0  0  0
  6  7  1  0  0  0  0
  7 12  1  0  0  0  0
  7 13  1  0  0  0  0
  8  6  1  0  0  0  0
  8  7  1  0  0  0  0
  9  2  1  0  0  0  0
 10  3  1  0  0  0  0
M  END
