title
 OpenBabel02282110003D

 15 15  0  0  0  0  0  0  0  0999 V2000
   -0.5140   -2.8560    0.7813 O   0  0  0  0  0  0  0  0  0  0  0  0
   -1.0150   -1.8028    0.4883 C   0  0  0  0  0  0  0  0  0  0  0  0
   -0.5783   -0.4671    1.0717 C   0  0  0  0  0  0  0  0  0  0  0  0
   -0.4731    0.5909   -0.0211 C   0  0  0  0  0  0  0  0  0  0  0  0
   -1.3739    0.7982   -0.8040 O   0  0  0  0  0  0  0  0  0  0  0  0
    0.6994    1.3351    0.0071 N   0  0  0  0  0  0  0  0  0  0  0  0
    2.0255    0.8175   -0.2909 C   0  0  0  0  0  0  0  0  0  0  0  0
    1.3494    1.8120   -1.1902 C   0  0  0  0  0  0  0  0  0  0  0  0
   -1.8472   -1.7241   -0.2410 H   0  0  0  0  0  0  0  0  0  0  0  0
   -1.3784   -0.1371    1.7483 H   0  0  0  0  0  0  0  0  0  0  0  0
    0.3389   -0.5905    1.6488 H   0  0  0  0  0  0  0  0  0  0  0  0
    2.8215    1.1362    0.3759 H   0  0  0  0  0  0  0  0  0  0  0  0
    2.1024   -0.2080   -0.6442 H   0  0  0  0  0  0  0  0  0  0  0  0
    0.9507    1.4591   -2.1372 H   0  0  0  0  0  0  0  0  0  0  0  0
    1.6673    2.8500   -1.1753 H   0  0  0  0  0  0  0  0  0  0  0  0
  2  1  2  0  0  0  0
  2  3  1  0  0  0  0
  3 11  1  0  0  0  0
  3 10  1  0  0  0  0
  4  6  1  0  0  0  0
  4  3  1  0  0  0  0
  5  4  2  0  0  0  0
  7  6  1  0  0  0  0
  7 12  1  0  0  0  0
  8 15  1  0  0  0  0
  8  7  1  0  0  0  0
  8  6  1  0  0  0  0
  9  2  1  0  0  0  0
 13  7  1  0  0  0  0
 14  8  1  0  0  0  0
M  END
