title
 OpenBabel02282110003D

 15 15  0  0  1  0  0  0  0  0999 V2000
   -1.1295   -2.6435    1.4912 O   0  0  0  0  0  0  0  0  0  0  0  0
   -1.3226   -1.6072    0.9149 C   0  0  0  0  0  0  0  0  0  0  0  0
   -0.5895   -0.3122    1.2456 C   0  0  0  0  0  0  0  0  0  0  0  0
   -0.2228    0.4594   -0.0149 C   0  0  0  0  0  0  0  0  0  0  0  0
   -1.0357    0.6292   -0.9025 O   0  0  0  0  0  0  0  0  0  0  0  0
    1.1697    0.9847   -0.1292 C   0  0  1  0  0  0  0  0  0  0  0  0
    1.8939    0.6509   -1.4044 C   0  0  0  0  0  0  0  0  0  0  0  0
    1.4231    2.0028   -1.1564 N   0  0  0  0  0  0  0  0  0  0  0  0
   -2.0583   -1.5113    0.0911 H   0  0  0  0  0  0  0  0  0  0  0  0
   -1.2961    0.3167    1.8066 H   0  0  0  0  0  0  0  0  0  0  0  0
    0.2649   -0.5252    1.8910 H   0  0  0  0  0  0  0  0  0  0  0  0
    1.7392    1.0847    0.7896 H   0  0  0  0  0  0  0  0  0  0  0  0
    2.9701    0.5110   -1.3652 H   0  0  0  0  0  0  0  0  0  0  0  0
    1.3612    0.0340   -2.1227 H   0  0  0  0  0  0  0  0  0  0  0  0
    0.5433    2.1393   -1.6564 H   0  0  0  0  0  0  0  0  0  0  0  0
  2  3  1  0  0  0  0
  2  1  2  0  0  0  0
  3 10  1  0  0  0  0
  3 11  1  0  0  0  0
  4  3  1  0  0  0  0
  5  4  2  0  0  0  0
  6  4  1  0  0  0  0
  6 12  1  1  0  0  0
  7 13  1  0  0  0  0
  7  8  1  0  0  0  0
  7  6  1  0  0  0  0
  8  6  1  0  0  0  0
  9  2  1  0  0  0  0
 14  7  1  0  0  0  0
 15  8  1  0  0  0  0
M  END
