14
title
N 1.0625329 2.9486494 0.014317906
C 1.2259176 1.7049116 -0.07406097
O 0.15509824 0.8956646 0.20902738
C 0.33123392 -0.45894367 0.0526437
O 1.3367213 -0.98129064 -0.352437
N -0.795958 -1.1103655 0.49904087
C -2.1331458 -0.90570813 -0.025926542
C -1.4040875 -2.202278 -0.22789943
H 1.9333589 3.4255028 -0.21471448
H 2.118436 1.1423821 -0.34933046
H -2.9210398 -0.832254 0.7171969
H -2.2400815 -0.24438983 -0.8807178
H -1.010581 -2.4185588 -1.217085
H -1.6685574 -3.0709102 0.36701238
