title
 OpenBabel02282110003D

 15 15  0  0  0  0  0  0  0  0999 V2000
   -2.6892   -1.0762   -0.0819 O   0  0  0  0  0  0  0  0  0  0  0  0
   -2.3819    0.0381   -0.3993 C   0  0  0  0  0  0  0  0  0  0  0  0
   -1.1045    0.5918   -0.3750 N   0  0  0  0  0  0  0  0  0  0  0  0
    0.0982   -0.0198    0.0216 C   0  0  0  0  0  0  0  0  0  0  0  0
    0.1655   -1.1614    0.4071 O   0  0  0  0  0  0  0  0  0  0  0  0
    1.2850    0.8824   -0.0811 C   0  0  0  0  0  0  0  0  0  0  0  0
    2.3796    0.6858    0.9557 C   0  0  0  0  0  0  0  0  0  0  0  0
    2.6080    0.2266   -0.4436 C   0  0  0  0  0  0  0  0  0  0  0  0
   -3.1109    0.7912   -0.7654 H   0  0  0  0  0  0  0  0  0  0  0  0
   -1.0456    1.5519   -0.6808 H   0  0  0  0  0  0  0  0  0  0  0  0
    1.1164    1.8924   -0.4400 H   0  0  0  0  0  0  0  0  0  0  0  0
    2.8887    1.5751    1.3084 H   0  0  0  0  0  0  0  0  0  0  0  0
    2.1823   -0.0729    1.7037 H   0  0  0  0  0  0  0  0  0  0  0  0
    2.5628   -0.8395   -0.6320 H   0  0  0  0  0  0  0  0  0  0  0  0
    3.2790    0.7905   -1.0809 H   0  0  0  0  0  0  0  0  0  0  0  0
  2  3  1  0  0  0  0
  2  1  2  0  0  0  0
  3  4  1  0  0  0  0
  4  5  2  0  0  0  0
  6  4  1  0  0  0  0
  6  7  1  0  0  0  0
  7 12  1  0  0  0  0
  7 13  1  0  0  0  0
  8  6  1  0  0  0  0
  8  7  1  0  0  0  0
  9  2  1  0  0  0  0
 10  3  1  0  0  0  0
 11  6  1  0  0  0  0
 14  8  1  0  0  0  0
 15  8  1  0  0  0  0
M  END
