title
 OpenBabel02282110003D

 14 14  0  0  1  0  0  0  0  0999 V2000
   -2.6006   -1.2618   -0.2044 O   0  0  0  0  0  0  0  0  0  0  0  0
   -2.3505   -0.1482   -0.5677 C   0  0  0  0  0  0  0  0  0  0  0  0
   -1.1069    0.4831   -0.5163 N   0  0  0  0  0  0  0  0  0  0  0  0
    0.1008   -0.0345   -0.0371 C   0  0  0  0  0  0  0  0  0  0  0  0
    0.2331   -1.1529    0.4001 O   0  0  0  0  0  0  0  0  0  0  0  0
    1.2446    0.9349   -0.1130 C   0  0  1  0  0  0  0  0  0  0  0  0
    2.1078    1.0242    1.1073 C   0  0  0  0  0  0  0  0  0  0  0  0
    2.5916    0.3548   -0.0924 N   0  0  0  0  0  0  0  0  0  0  0  0
   -3.1042    0.5387   -1.0042 H   0  0  0  0  0  0  0  0  0  0  0  0
   -1.0864    1.4312   -0.8637 H   0  0  0  0  0  0  0  0  0  0  0  0
    1.1250    1.8095   -0.7478 H   0  0  0  0  0  0  0  0  0  0  0  0
    2.5855    1.9711    1.3405 H   0  0  0  0  0  0  0  0  0  0  0  0
    1.8115    0.4178    1.9582 H   0  0  0  0  0  0  0  0  0  0  0  0
    2.4760   -0.6526    0.0277 H   0  0  0  0  0  0  0  0  0  0  0  0
  2  3  1  0  0  0  0
  2  1  2  0  0  0  0
  3  4  1  0  0  0  0
  4  5  2  0  0  0  0
  6 11  1  6  0  0  0
  6  8  1  0  0  0  0
  6  4  1  0  0  0  0
  6  7  1  0  0  0  0
  7 12  1  0  0  0  0
  7 13  1  0  0  0  0
  8 14  1  0  0  0  0
  8  7  1  0  0  0  0
  9  2  1  0  0  0  0
 10  3  1  0  0  0  0
M  END
