14
title
O -2.4721508 -1.2812724 0.5319195
C -2.2888317 -0.18953796 0.07054237
N -1.0660768 0.37345126 -0.27297318
C 0.20051515 -0.2235895 -0.20789
O 0.41078222 -1.3727 0.07415931
N 1.1871864 0.7132588 -0.59227157
C 1.7287687 1.6416414 0.41286027
C 2.5384502 0.50309354 -0.108164735
H -3.1057782 0.53177124 -0.13738804
H -1.0870141 1.3099618 -0.64952344
H 1.9076079 2.6544824 0.06440393
H 1.3458315 1.5603976 1.4269409
H 2.6897378 -0.35332343 0.5418095
H 3.3216991 0.6866117 -0.83670723
