title
 OpenBabel02282110003D

 14 14  0  0  0  0  0  0  0  0999 V2000
    1.0625    2.9486    0.0143 N   0  0  0  0  0  0  0  0  0  0  0  0
    1.2259    1.7049   -0.0741 C   0  0  0  0  0  0  0  0  0  0  0  0
    0.1551    0.8957    0.2090 O   0  0  0  0  0  0  0  0  0  0  0  0
    0.3312   -0.4589    0.0526 C   0  0  0  0  0  0  0  0  0  0  0  0
    1.3367   -0.9813   -0.3524 O   0  0  0  0  0  0  0  0  0  0  0  0
   -0.7960   -1.1104    0.4990 N   0  0  0  0  0  0  0  0  0  0  0  0
   -2.1331   -0.9057   -0.0259 C   0  0  0  0  0  0  0  0  0  0  0  0
   -1.4041   -2.2023   -0.2279 C   0  0  0  0  0  0  0  0  0  0  0  0
    1.9334    3.4255   -0.2147 H   0  0  0  0  0  0  0  0  0  0  0  0
    2.1184    1.1424   -0.3493 H   0  0  0  0  0  0  0  0  0  0  0  0
   -2.9210   -0.8323    0.7172 H   0  0  0  0  0  0  0  0  0  0  0  0
   -2.2401   -0.2444   -0.8807 H   0  0  0  0  0  0  0  0  0  0  0  0
   -1.0106   -2.4186   -1.2171 H   0  0  0  0  0  0  0  0  0  0  0  0
   -1.6686   -3.0709    0.3670 H   0  0  0  0  0  0  0  0  0  0  0  0
  2  1  2  0  0  0  0
  2  3  1  0  0  0  0
  4  3  1  0  0  0  0
  4  6  1  0  0  0  0
  5  4  2  0  0  0  0
  7  6  1  0  0  0  0
  7 11  1  0  0  0  0
  8  7  1  0  0  0  0
  8 14  1  0  0  0  0
  8  6  1  0  0  0  0
  9  1  1  0  0  0  0
 10  2  1  0  0  0  0
 12  7  1  0  0  0  0
 13  8  1  0  0  0  0
M  END
