15
title
O -2.6891592 -1.0762136 -0.08185272
C -2.3819304 0.03805808 -0.3992944
N -1.1044891 0.59179467 -0.37496254
C 0.098232895 -0.019842707 0.021564871
O 0.1654965 -1.1614279 0.40707836
C 1.2850202 0.88244826 -0.08107762
C 2.379631 0.6858229 0.95572853
C 2.607963 0.22657564 -0.4435918
H -3.11092 0.7911789 -0.76540875
H -1.045563 1.5518548 -0.68077135
H 1.1163603 1.89236 -0.4400117
H 2.8887439 1.575105 1.3083775
H 2.1823177 -0.072905146 1.7036742
H 2.5628366 -0.8394946 -0.63199836
H 3.279016 0.79046196 -1.0808905
