14
title
O -2.385107 0.30429617 0.55004406
C -1.7155025 -0.6802847 0.72983885
C -0.24063823 -0.6435712 1.1039315
C 0.59440774 -0.8170497 -0.1725452
O 0.7464661 -1.8920013 -0.7014545
C 1.193384 0.42479888 -0.77145696
C 0.41590634 1.682968 -0.8470954
O 1.4634753 1.5231055 0.09986139
H -2.1373794 -1.6978482 0.5978635
H -0.0055644163 0.30377164 1.5901248
H -0.010550345 -1.4896109 1.7565933
H 1.9476603 0.2208704 -1.5287184
H 0.6263432 2.3608212 -1.6720506
H -0.59008974 1.7221931 -0.43410122
