13
title
O -2.5874066 -1.3664119 0.02098383
C -2.3427303 -0.36788094 -0.593174
N -1.1241897 0.3130865 -0.61778206
C 0.063649066 -0.029862033 0.04167597
O 0.21278965 -1.0194719 0.70737773
C 1.1612135 0.9952625 -0.15567587
C 2.1786401 1.1327277 0.9025114
O 2.4666722 0.4510188 -0.30861866
H -3.0812078 0.15514661 -1.2345783
H -1.1060992 1.1460596 -1.1883419
H 0.9466461 1.851453 -0.7967589
H 2.6716774 2.094187 1.035429
H 2.0896194 0.49571574 1.7790974
