title
 OpenBabel02282110003D

 15 15  0  0  1  0  0  0  0  0999 V2000
   -0.6255    3.6794   -0.5975 C   0  0  0  0  0  0  0  0  0  0  0  0
   -0.5350    2.2463   -0.3811 C   0  0  0  0  0  0  0  0  0  0  0  0
   -0.4814    1.0541   -0.1991 C   0  0  0  0  0  0  0  0  0  0  0  0
   -0.3906   -0.3700    0.0134 C   0  0  0  0  0  0  0  0  0  0  0  0
   -1.3666   -1.0670    0.2325 O   0  0  0  0  0  0  0  0  0  0  0  0
    0.9856   -0.9575   -0.0439 C   0  0  1  0  0  0  0  0  0  0  0  0
    1.3618   -1.8536    1.0995 C   0  0  0  0  0  0  0  0  0  0  0  0
    1.0801   -2.4130   -0.2143 N   0  0  0  0  0  0  0  0  0  0  0  0
    0.3607    4.1245   -0.7634 H   0  0  0  0  0  0  0  0  0  0  0  0
   -1.2497    3.8990   -1.4705 H   0  0  0  0  0  0  0  0  0  0  0  0
   -1.0818    4.1730    0.2673 H   0  0  0  0  0  0  0  0  0  0  0  0
    1.7510   -0.3644   -0.5333 H   0  0  0  0  0  0  0  0  0  0  0  0
    2.4011   -1.8879    1.4128 H   0  0  0  0  0  0  0  0  0  0  0  0
    0.6244   -1.9753    1.8880 H   0  0  0  0  0  0  0  0  0  0  0  0
    0.1221   -2.7671   -0.2161 H   0  0  0  0  0  0  0  0  0  0  0  0
  1  2  1  0  0  0  0
  1 11  1  0  0  0  0
  2  3  3  0  0  0  0
  3  4  1  0  0  0  0
  4  5  2  0  0  0  0
  6 12  1  6  0  0  0
  6  4  1  0  0  0  0
  6  7  1  0  0  0  0
  7 13  1  0  0  0  0
  7 14  1  0  0  0  0
  8  6  1  0  0  0  0
  8  7  1  0  0  0  0
  9  1  1  0  0  0  0
 10  1  1  0  0  0  0
 15  8  1  0  0  0  0
M  END
