title
 OpenBabel02282110003D

 15 15  0  0  0  0  0  0  0  0999 V2000
   -0.6036    3.5315    0.1205 C   0  0  0  0  0  0  0  0  0  0  0  0
   -0.5591    2.0816    0.0380 C   0  0  0  0  0  0  0  0  0  0  0  0
   -0.5333    0.8782   -0.0318 C   0  0  0  0  0  0  0  0  0  0  0  0
   -0.5515   -0.5688   -0.0783 C   0  0  0  0  0  0  0  0  0  0  0  0
   -1.5295   -1.2325    0.1940 O   0  0  0  0  0  0  0  0  0  0  0  0
    0.6435   -1.1282   -0.5335 N   0  0  0  0  0  0  0  0  0  0  0  0
    1.9140   -1.0201    0.1598 C   0  0  0  0  0  0  0  0  0  0  0  0
    1.1943   -2.3327    0.0417 C   0  0  0  0  0  0  0  0  0  0  0  0
    0.3639    3.9785   -0.1303 H   0  0  0  0  0  0  0  0  0  0  0  0
   -1.3522    3.9354   -0.5697 H   0  0  0  0  0  0  0  0  0  0  0  0
   -0.8764    3.8559    1.1306 H   0  0  0  0  0  0  0  0  0  0  0  0
    2.7793   -0.8128   -0.4634 H   0  0  0  0  0  0  0  0  0  0  0  0
    1.9177   -0.5320    1.1312 H   0  0  0  0  0  0  0  0  0  0  0  0
    0.6973   -2.7264    0.9240 H   0  0  0  0  0  0  0  0  0  0  0  0
    1.5456   -3.0785   -0.6653 H   0  0  0  0  0  0  0  0  0  0  0  0
  1 11  1  0  0  0  0
  2  1  1  0  0  0  0
  3  2  3  0  0  0  0
  4  3  1  0  0  0  0
  4  5  2  0  0  0  0
  6  4  1  0  0  0  0
  6  8  1  0  0  0  0
  6  7  1  0  0  0  0
  7 13  1  0  0  0  0
  8  7  1  0  0  0  0
  8 14  1  0  0  0  0
  9  1  1  0  0  0  0
 10  1  1  0  0  0  0
 12  7  1  0  0  0  0
 15  8  1  0  0  0  0
M  END
