16
title
C -0.034158893 3.6205847 0.5662937
C -0.00037394188 2.1667166 0.62445587
C 0.022407021 0.9641934 0.68229276
C 0.04680451 -0.504023 0.7196081
O -1.250855 -1.0712955 0.75780493
C 0.8316836 -1.0520964 -0.4750092
C 0.5878583 -2.4066672 -0.9755628
O 0.043626633 -1.2570531 -1.6478463
H 0.9782662 4.037993 0.5351146
H -0.56384414 3.969932 -0.32662004
H -0.5405583 4.042146 1.4413737
H 0.54493475 -0.8344514 1.6403033
H -1.6121712 -0.9482667 -0.13113241
H 1.7992847 -0.5830099 -0.6492796
H 1.3730792 -2.9277663 -1.5195519
H -0.14585203 -3.030313 -0.47208643
