19
title
C 0.65734965 2.0513108 -0.23238046
C 0.4969808 0.52416915 -0.30448592
C 1.1042469 -0.12565741 0.9617652
C 1.2456601 -1.5730253 0.8766739
C 1.3931879 -2.763342 0.80326384
N -0.85969687 -0.004756189 -0.4743579
C -2.0262966 0.7218392 0.0060413927
C -1.76659 0.5602657 -1.4549266
H 1.7196358 2.3123794 -0.25982386
H 0.17778213 2.5554886 -1.0761381
H 0.24159029 2.4621615 0.6936429
H 1.061667 0.15927163 -1.1708101
H 2.0866375 0.3239931 1.1534271
H 0.47296914 0.13768616 1.8209045
H 1.5075455 -3.8166187 0.7384714
H -2.7798653 0.119353436 0.5062591
H -1.9037958 1.7219019 0.41612178
H -1.4715858 1.4538484 -2.0027947
H -2.3277009 -0.16106859 -2.0437655
