title
 OpenBabel02282110003D

 17 17  0  0  1  0  0  0  0  0999 V2000
    0.0043    1.8966   -0.0098 C   0  0  0  0  0  0  0  0  0  0  0  0
   -0.1379    0.3804    0.1616 C   0  0  1  0  0  0  0  0  0  0  0  0
    0.4321   -0.4075   -1.0450 C   0  0  0  0  0  0  0  0  0  0  0  0
   -0.2521   -0.1003   -2.2981 C   0  0  0  0  0  0  0  0  0  0  0  0
   -0.8069    0.1588   -3.2784 N   0  0  0  0  0  0  0  0  0  0  0  0
    0.5590   -0.0943    1.4194 C   0  0  1  0  0  0  0  0  0  0  0  0
   -0.1686   -0.3668    2.6642 C   0  0  0  0  0  0  0  0  0  0  0  0
    0.2856   -1.4353    1.8291 O   0  0  0  0  0  0  0  0  0  0  0  0
    1.0585    2.1882   -0.0818 H   0  0  0  0  0  0  0  0  0  0  0  0
   -0.5003    2.2360   -0.9182 H   0  0  0  0  0  0  0  0  0  0  0  0
   -0.4324    2.4262    0.8419 H   0  0  0  0  0  0  0  0  0  0  0  0
   -1.1996    0.1226    0.2498 H   0  0  0  0  0  0  0  0  0  0  0  0
    1.4999   -0.1877   -1.1684 H   0  0  0  0  0  0  0  0  0  0  0  0
    0.3447   -1.4808   -0.8466 H   0  0  0  0  0  0  0  0  0  0  0  0
    1.6130    0.1849    1.4968 H   0  0  0  0  0  0  0  0  0  0  0  0
    0.3396   -0.2747    3.6226 H   0  0  0  0  0  0  0  0  0  0  0  0
   -1.2482   -0.2257    2.6945 H   0  0  0  0  0  0  0  0  0  0  0  0
  1  2  1  0  0  0  0
  1 11  1  0  0  0  0
  2 12  1  1  0  0  0
  2  6  1  0  0  0  0
  3 14  1  0  0  0  0
  3  2  1  0  0  0  0
  4  3  1  0  0  0  0
  5  4  3  0  0  0  0
  6 15  1  1  0  0  0
  6  8  1  0  0  0  0
  6  7  1  0  0  0  0
  7 17  1  0  0  0  0
  7 16  1  0  0  0  0
  8  7  1  0  0  0  0
  9  1  1  0  0  0  0
 10  1  1  0  0  0  0
 13  3  1  0  0  0  0
M  END
