title
 OpenBabel02282110003D

 18 18  0  0  1  0  0  0  0  0999 V2000
   -0.0259    1.8882    0.0410 C   0  0  0  0  0  0  0  0  0  0  0  0
   -0.0644    0.3718   -0.1781 C   0  0  1  0  0  0  0  0  0  0  0  0
    0.7285   -0.4008    0.9071 C   0  0  0  0  0  0  0  0  0  0  0  0
    2.1489   -0.0767    0.9302 C   0  0  0  0  0  0  0  0  0  0  0  0
    3.3186    0.2014    0.9271 C   0  0  0  0  0  0  0  0  0  0  0  0
   -1.4915   -0.1312   -0.2035 C   0  0  1  0  0  0  0  0  0  0  0  0
   -2.2242   -0.3626   -1.4535 C   0  0  0  0  0  0  0  0  0  0  0  0
   -1.6976   -1.4566   -0.6985 O   0  0  0  0  0  0  0  0  0  0  0  0
    1.0063    2.2458    0.0726 H   0  0  0  0  0  0  0  0  0  0  0  0
   -0.5501    2.4153   -0.7620 H   0  0  0  0  0  0  0  0  0  0  0  0
   -0.5043    2.1611    0.9893 H   0  0  0  0  0  0  0  0  0  0  0  0
    0.3899    0.1352   -1.1476 H   0  0  0  0  0  0  0  0  0  0  0  0
    0.2890   -0.1924    1.8926 H   0  0  0  0  0  0  0  0  0  0  0  0
    0.5984   -1.4749    0.7303 H   0  0  0  0  0  0  0  0  0  0  0  0
    4.3541    0.4357    0.9361 H   0  0  0  0  0  0  0  0  0  0  0  0
   -2.0773    0.0986    0.6906 H   0  0  0  0  0  0  0  0  0  0  0  0
   -3.3105   -0.2865   -1.4717 H   0  0  0  0  0  0  0  0  0  0  0  0
   -1.7299   -0.1728   -2.4057 H   0  0  0  0  0  0  0  0  0  0  0  0
  1  9  1  0  0  0  0
  1 11  1  0  0  0  0
  2 12  1  6  0  0  0
  2  1  1  0  0  0  0
  2  3  1  0  0  0  0
  3  4  1  0  0  0  0
  3 13  1  0  0  0  0
  5  4  3  0  0  0  0
  5 15  1  0  0  0  0
  6  2  1  0  0  0  0
  6 16  1  1  0  0  0
  7  8  1  0  0  0  0
  7  6  1  0  0  0  0
  8  6  1  0  0  0  0
 10  1  1  0  0  0  0
 14  3  1  0  0  0  0
 17  7  1  0  0  0  0
 18  7  1  0  0  0  0
M  END
