title
 OpenBabel02282110003D

 19 19  0  0  1  0  0  0  0  0999 V2000
    0.4747    1.7520    0.1817 C   0  0  0  0  0  0  0  0  0  0  0  0
    0.2604    0.2394    0.0503 C   0  0  1  0  0  0  0  0  0  0  0  0
   -1.2461   -0.1271    0.0511 C   0  0  0  0  0  0  0  0  0  0  0  0
   -1.9312    0.2537    1.2841 C   0  0  0  0  0  0  0  0  0  0  0  0
   -2.4532    0.5581    2.2695 N   0  0  0  0  0  0  0  0  0  0  0  0
    0.9149   -0.3147   -1.2012 C   0  0  0  0  0  0  0  0  0  0  0  0
    2.3786   -0.6716   -1.1986 C   0  0  0  0  0  0  0  0  0  0  0  0
    1.3364   -1.7613   -1.2753 C   0  0  0  0  0  0  0  0  0  0  0  0
    1.5426    1.9857    0.2086 H   0  0  0  0  0  0  0  0  0  0  0  0
    0.0381    2.2841   -0.6717 H   0  0  0  0  0  0  0  0  0  0  0  0
    0.0143    2.1430    1.0936 H   0  0  0  0  0  0  0  0  0  0  0  0
    0.7159   -0.2545    0.9186 H   0  0  0  0  0  0  0  0  0  0  0  0
   -1.7489    0.3631   -0.7918 H   0  0  0  0  0  0  0  0  0  0  0  0
   -1.3652   -1.2063   -0.0943 H   0  0  0  0  0  0  0  0  0  0  0  0
    0.5348    0.1177   -2.1251 H   0  0  0  0  0  0  0  0  0  0  0  0
    2.9655   -0.4546   -2.0839 H   0  0  0  0  0  0  0  0  0  0  0  0
    2.9235   -0.5608   -0.2667 H   0  0  0  0  0  0  0  0  0  0  0  0
    1.1899   -2.3787   -0.3943 H   0  0  0  0  0  0  0  0  0  0  0  0
    1.2109   -2.2912   -2.2128 H   0  0  0  0  0  0  0  0  0  0  0  0
  1  9  1  0  0  0  0
  1 11  1  0  0  0  0
  2  3  1  0  0  0  0
  2  1  1  0  0  0  0
  2 12  1  1  0  0  0
  3  4  1  0  0  0  0
  4  5  3  0  0  0  0
  6  7  1  0  0  0  0
  6  2  1  0  0  0  0
  7 17  1  0  0  0  0
  8  6  1  0  0  0  0
  8  7  1  0  0  0  0
  8 18  1  0  0  0  0
 10  1  1  0  0  0  0
 13  3  1  0  0  0  0
 14  3  1  0  0  0  0
 15  6  1  0  0  0  0
 16  7  1  0  0  0  0
 19  8  1  0  0  0  0
M  END
