18
title
C 0.03022046 1.8490713 0.022943182
C -0.10936755 0.32776043 0.15781544
C 0.46622118 -0.41169783 -1.0786291
C -0.23423178 -0.08270687 -2.3176198
N -0.80649495 0.18855314 -3.284477
C 0.5762039 -0.18360771 1.4095272
C -0.1500453 -0.25219783 2.6992762
N 0.22352234 -1.490559 1.9876225
H 1.0853503 2.14192 -0.024346272
H -0.46078825 2.2121053 -0.8841864
H -0.41890794 2.354476 0.8822188
H -1.1762637 0.07553048 0.22782744
H 1.5273603 -0.16146164 -1.1994323
H 0.4154156 -1.4954404 -0.9265685
H 1.6473635 0.016814651 1.442379
H 0.37527135 -0.08428201 3.6347384
H -1.1960053 0.044803962 2.7081647
H -0.5970916 -1.8663455 1.5156512
