18
title
O -0.7478593 1.144562 0.17643484
C -0.38420796 -0.22464481 0.1139106
C 0.4522023 -0.53910345 -1.1479751
C -0.20676583 -0.17433904 -2.3948934
C -0.7566857 0.12521604 -3.4204805
C 0.342577 -0.6924567 1.3676546
C 1.3146025 0.20965043 2.0890281
C -0.01825425 -0.12685594 2.7125986
H 0.02324462 1.6741916 -0.05216501
H -1.3365916 -0.76312107 0.03629715
H 1.4172322 -0.018296171 -1.0649892
H 0.69105595 -1.6101522 -1.1531478
H -1.243862 0.39007744 -4.325804
H 0.60270464 -1.7479653 1.3434618
H 2.2146673 -0.2303196 2.5033576
H 1.4444833 1.2239728 1.7261825
H -0.76244676 0.6609501 2.7251973
H -0.039370194 -0.7954075 3.5657673
