title
 OpenBabel02282110003D

 20 20  0  0  1  0  0  0  0  0999 V2000
   -0.1973    1.6779   -0.6499 C   0  0  0  0  0  0  0  0  0  0  0  0
   -0.1220    0.1723   -0.3567 C   0  0  1  0  0  0  0  0  0  0  0  0
    0.6428   -0.1079    0.9569 C   0  0  0  0  0  0  0  0  0  0  0  0
    2.1035    0.2654    0.8681 C   0  0  0  0  0  0  0  0  0  0  0  0
    2.6855    0.9989    1.6251 O   0  0  0  0  0  0  0  0  0  0  0  0
   -1.5045   -0.4531   -0.3166 C   0  0  0  0  0  0  0  0  0  0  0  0
   -2.2010   -0.8477   -1.5930 C   0  0  0  0  0  0  0  0  0  0  0  0
   -1.7000   -1.9110   -0.6444 C   0  0  0  0  0  0  0  0  0  0  0  0
    0.7981    2.1301   -0.7081 H   0  0  0  0  0  0  0  0  0  0  0  0
   -0.7118    1.8640   -1.5970 H   0  0  0  0  0  0  0  0  0  0  0  0
   -0.7490    2.1998    0.1404 H   0  0  0  0  0  0  0  0  0  0  0  0
    0.4336   -0.3112   -1.1744 H   0  0  0  0  0  0  0  0  0  0  0  0
    0.1938    0.4235    1.8023 H   0  0  0  0  0  0  0  0  0  0  0  0
    0.5954   -1.1861    1.1665 H   0  0  0  0  0  0  0  0  0  0  0  0
    2.6392   -0.2090    0.0098 H   0  0  0  0  0  0  0  0  0  0  0  0
   -2.1445   -0.0536    0.4677 H   0  0  0  0  0  0  0  0  0  0  0  0
   -3.2705   -0.6881   -1.6734 H   0  0  0  0  0  0  0  0  0  0  0  0
   -1.6622   -0.7116   -2.5256 H   0  0  0  0  0  0  0  0  0  0  0  0
   -0.8288   -2.4839   -0.9474 H   0  0  0  0  0  0  0  0  0  0  0  0
   -2.4264   -2.4801   -0.0749 H   0  0  0  0  0  0  0  0  0  0  0  0
  1  2  1  0  0  0  0
  1 11  1  0  0  0  0
  2 12  1  6  0  0  0
  2  6  1  0  0  0  0
  2  3  1  0  0  0  0
  3 14  1  0  0  0  0
  3 13  1  0  0  0  0
  4  3  1  0  0  0  0
  4  5  2  0  0  0  0
  6 16  1  0  0  0  0
  7  8  1  0  0  0  0
  7  6  1  0  0  0  0
  8  6  1  0  0  0  0
  8 20  1  0  0  0  0
  9  1  1  0  0  0  0
 10  1  1  0  0  0  0
 15  4  1  0  0  0  0
 17  7  1  0  0  0  0
 18  7  1  0  0  0  0
 19  8  1  0  0  0  0
M  END
