19
title
C 0.3995801 2.2504287 -0.23133071
C 0.14534037 0.75666285 -0.011700557
N -1.2897879 0.52092785 0.16543426
C -1.7955219 -0.35585144 1.0693053
O -1.1412812 -1.0272752 1.8420118
C 0.7281108 -0.092158355 -1.1276525
C 2.1521363 -0.58007455 -1.0250711
C 1.0070947 -1.5528334 -0.88856673
H 1.4710321 2.440825 -0.33488482
H -0.08752898 2.6010962 -1.1497737
H 0.017862597 2.8426468 0.6050137
H 0.6010773 0.44051298 0.9317448
H -1.9346017 0.99136853 -0.45068243
H -2.9033787 -0.38580146 1.0383047
H 0.38277313 0.1824729 -2.1226578
H 2.753073 -0.6079092 -1.9272025
H 2.7108803 -0.32729152 -0.12939474
H 0.780653 -1.9410816 0.09799823
H 0.8267372 -2.2487752 -1.7003536
