19
title
C -0.020357445 2.0897977 0.5160532
C 0.15982576 0.56504995 0.45634088
C -1.2130395 -0.13724165 0.44040284
C -1.1258731 -1.629472 0.684574
O -1.8893403 -2.2432199 1.3878087
N 0.94771475 0.017377721 -0.6581104
C 1.0587972 0.72509784 -1.9277875
C 2.231902 0.5933612 -1.0159535
H 0.93447244 2.6212742 0.46349296
H -0.6641516 2.4542115 -0.29094
H -0.49409065 2.3645265 1.463093
H 0.6957688 0.25616416 1.3641866
H -1.8946532 0.29299214 1.1796358
H -1.6618884 0.013954655 -0.55247015
H -0.2893743 -2.132929 0.15645291
H 0.9768856 0.10742794 -2.8179872
H 0.62308717 1.7164719 -2.0241127
H 2.5665772 1.4973512 -0.5107883
H 3.0226948 -0.12152772 -1.2278314
