title
 OpenBabel02282110003D

 19 19  0  0  1  0  0  0  0  0999 V2000
    0.3996    2.2504   -0.2313 C   0  0  0  0  0  0  0  0  0  0  0  0
    0.1453    0.7567   -0.0117 C   0  0  1  0  0  0  0  0  0  0  0  0
   -1.2898    0.5209    0.1654 N   0  0  0  0  0  0  0  0  0  0  0  0
   -1.7955   -0.3559    1.0693 C   0  0  0  0  0  0  0  0  0  0  0  0
   -1.1413   -1.0273    1.8420 O   0  0  0  0  0  0  0  0  0  0  0  0
    0.7281   -0.0922   -1.1277 C   0  0  0  0  0  0  0  0  0  0  0  0
    2.1521   -0.5801   -1.0251 C   0  0  0  0  0  0  0  0  0  0  0  0
    1.0071   -1.5528   -0.8886 C   0  0  0  0  0  0  0  0  0  0  0  0
    1.4710    2.4408   -0.3349 H   0  0  0  0  0  0  0  0  0  0  0  0
   -0.0875    2.6011   -1.1498 H   0  0  0  0  0  0  0  0  0  0  0  0
    0.0179    2.8426    0.6050 H   0  0  0  0  0  0  0  0  0  0  0  0
    0.6011    0.4405    0.9317 H   0  0  0  0  0  0  0  0  0  0  0  0
   -1.9346    0.9914   -0.4507 H   0  0  0  0  0  0  0  0  0  0  0  0
   -2.9034   -0.3858    1.0383 H   0  0  0  0  0  0  0  0  0  0  0  0
    0.3828    0.1825   -2.1227 H   0  0  0  0  0  0  0  0  0  0  0  0
    2.7531   -0.6079   -1.9272 H   0  0  0  0  0  0  0  0  0  0  0  0
    2.7109   -0.3273   -0.1294 H   0  0  0  0  0  0  0  0  0  0  0  0
    0.7807   -1.9411    0.0980 H   0  0  0  0  0  0  0  0  0  0  0  0
    0.8267   -2.2488   -1.7004 H   0  0  0  0  0  0  0  0  0  0  0  0
  1  2  1  0  0  0  0
  1 11  1  0  0  0  0
  2  3  1  0  0  0  0
  2 12  1  1  0  0  0
  3  4  1  0  0  0  0
  4  5  2  0  0  0  0
  6  7  1  0  0  0  0
  6  8  1  0  0  0  0
  6  2  1  0  0  0  0
  7  8  1  0  0  0  0
  7 17  1  0  0  0  0
  8 18  1  0  0  0  0
  9  1  1  0  0  0  0
 10  1  1  0  0  0  0
 13  3  1  0  0  0  0
 14  4  1  0  0  0  0
 15  6  1  0  0  0  0
 16  7  1  0  0  0  0
 19  8  1  0  0  0  0
M  END
