title
 OpenBabel02282110003D

 15 15  0  0  1  0  0  0  0  0999 V2000
    0.6847    1.5317   -0.3015 O   0  0  0  0  0  0  0  0  0  0  0  0
   -0.2862    0.6246    0.1852 C   0  0  1  0  0  0  0  0  0  0  0  0
   -0.4006   -0.6217   -0.7214 C   0  0  0  0  0  0  0  0  0  0  0  0
   -0.5887   -0.2690   -2.1250 C   0  0  0  0  0  0  0  0  0  0  0  0
   -0.7539   -0.0068   -3.2377 N   0  0  0  0  0  0  0  0  0  0  0  0
    0.0349    0.2763    1.6269 C   0  0  1  0  0  0  0  0  0  0  0  0
   -0.1800   -1.0269    2.2655 C   0  0  0  0  0  0  0  0  0  0  0  0
    1.1220   -0.6408    1.8153 O   0  0  0  0  0  0  0  0  0  0  0  0
    1.5527    1.1285   -0.1761 H   0  0  0  0  0  0  0  0  0  0  0  0
   -1.2338    1.1738    0.1567 H   0  0  0  0  0  0  0  0  0  0  0  0
    0.5082   -1.2250   -0.6153 H   0  0  0  0  0  0  0  0  0  0  0  0
   -1.2443   -1.2457   -0.4074 H   0  0  0  0  0  0  0  0  0  0  0  0
    0.0876    1.1567    2.2679 H   0  0  0  0  0  0  0  0  0  0  0  0
   -0.3038   -1.0707    3.3461 H   0  0  0  0  0  0  0  0  0  0  0  0
   -0.6382   -1.8475    1.7182 H   0  0  0  0  0  0  0  0  0  0  0  0
  1  9  1  0  0  0  0
  1  2  1  0  0  0  0
  2 10  1  6  0  0  0
  2  6  1  0  0  0  0
  3 11  1  0  0  0  0
  3 12  1  0  0  0  0
  3  2  1  0  0  0  0
  4  3  1  0  0  0  0
  5  4  3  0  0  0  0
  6  8  1  0  0  0  0
  6  7  1  0  0  0  0
  6 13  1  1  0  0  0
  7 14  1  0  0  0  0
  8  7  1  0  0  0  0
 15  7  1  0  0  0  0
M  END
