title
 OpenBabel02282110003D

 17 17  0  0  1  0  0  0  0  0999 V2000
   -0.7514    1.1458    0.1685 O   0  0  0  0  0  0  0  0  0  0  0  0
   -0.3865   -0.2197    0.1287 C   0  0  1  0  0  0  0  0  0  0  0  0
    0.4650   -0.5422   -1.1232 C   0  0  0  0  0  0  0  0  0  0  0  0
   -0.1908   -0.1687   -2.3736 C   0  0  0  0  0  0  0  0  0  0  0  0
   -0.7079    0.1195   -3.3657 N   0  0  0  0  0  0  0  0  0  0  0  0
    0.3306   -0.6881    1.3867 C   0  0  0  0  0  0  0  0  0  0  0  0
    1.2986    0.2094    2.1207 C   0  0  0  0  0  0  0  0  0  0  0  0
   -0.0423   -0.1228    2.7283 C   0  0  0  0  0  0  0  0  0  0  0  0
    0.0466    1.6817    0.1007 H   0  0  0  0  0  0  0  0  0  0  0  0
   -1.3381   -0.7568    0.0424 H   0  0  0  0  0  0  0  0  0  0  0  0
    1.4277   -0.0200   -1.0532 H   0  0  0  0  0  0  0  0  0  0  0  0
    0.6927   -1.6138   -1.1501 H   0  0  0  0  0  0  0  0  0  0  0  0
    0.5884   -1.7440    1.3635 H   0  0  0  0  0  0  0  0  0  0  0  0
    2.1917   -0.2382    2.5414 H   0  0  0  0  0  0  0  0  0  0  0  0
    1.4436    1.2260    1.7687 H   0  0  0  0  0  0  0  0  0  0  0  0
   -0.7843    0.6670    2.7343 H   0  0  0  0  0  0  0  0  0  0  0  0
   -0.0762   -0.7934    3.5791 H   0  0  0  0  0  0  0  0  0  0  0  0
  2 10  1  6  0  0  0
  2  1  1  0  0  0  0
  2  6  1  0  0  0  0
  3 11  1  0  0  0  0
  3  2  1  0  0  0  0
  4  3  1  0  0  0  0
  5  4  3  0  0  0  0
  6  7  1  0  0  0  0
  6  8  1  0  0  0  0
  7 14  1  0  0  0  0
  7  8  1  0  0  0  0
  8 16  1  0  0  0  0
  8 17  1  0  0  0  0
  9  1  1  0  0  0  0
 12  3  1  0  0  0  0
 13  6  1  0  0  0  0
 15  7  1  0  0  0  0
M  END
