title
 OpenBabel02282110003D

 16 16  0  0  1  0  0  0  0  0999 V2000
   -1.0918    0.8033    0.2337 O   0  0  0  0  0  0  0  0  0  0  0  0
   -0.2873   -0.3381    0.0039 C   0  0  1  0  0  0  0  0  0  0  0  0
    0.7597   -0.1002   -1.1064 C   0  0  0  0  0  0  0  0  0  0  0  0
    0.1634    0.3068   -2.3762 C   0  0  0  0  0  0  0  0  0  0  0  0
   -0.3069    0.6285   -3.3810 N   0  0  0  0  0  0  0  0  0  0  0  0
    0.3909   -0.8400    1.2728 C   0  0  1  0  0  0  0  0  0  0  0  0
    0.8614    0.1056    2.3159 C   0  0  0  0  0  0  0  0  0  0  0  0
   -0.3183   -0.7466    2.5490 N   0  0  0  0  0  0  0  0  0  0  0  0
   -0.5247    1.5787    0.3105 H   0  0  0  0  0  0  0  0  0  0  0  0
   -0.9890   -1.1065   -0.3416 H   0  0  0  0  0  0  0  0  0  0  0  0
    1.4713    0.6695   -0.7813 H   0  0  0  0  0  0  0  0  0  0  0  0
    1.3419   -1.0151   -1.2644 H   0  0  0  0  0  0  0  0  0  0  0  0
    0.9355   -1.7732    1.1360 H   0  0  0  0  0  0  0  0  0  0  0  0
    1.7352   -0.1351    2.9140 H   0  0  0  0  0  0  0  0  0  0  0  0
    0.7005    1.1705    2.1664 H   0  0  0  0  0  0  0  0  0  0  0  0
   -1.1537   -0.1815    2.4005 H   0  0  0  0  0  0  0  0  0  0  0  0
  1  9  1  0  0  0  0
  2 10  1  6  0  0  0
  2  1  1  0  0  0  0
  2  6  1  0  0  0  0
  3 11  1  0  0  0  0
  3  2  1  0  0  0  0
  4  3  1  0  0  0  0
  5  4  3  0  0  0  0
  6 13  1  6  0  0  0
  6  7  1  0  0  0  0
  6  8  1  0  0  0  0
  7  8  1  0  0  0  0
  7 14  1  0  0  0  0
 12  3  1  0  0  0  0
 15  7  1  0  0  0  0
 16  8  1  0  0  0  0
M  END
