16
title
O -0.13692449 1.6869606 0.13037932
C -0.23250043 0.2740032 0.24686025
C 0.2938342 -0.438067 -1.0072069
C -0.42146203 0.0377608 -2.2531383
O 0.12612438 0.4639211 -3.2357059
C 0.46930897 -0.22070721 1.4967035
C -0.2518563 -0.4328931 2.7539656
O 0.12331042 -1.5378386 1.9226544
H 0.7592517 1.910946 -0.14523843
H -1.3034306 0.06365029 0.35392684
H 1.370596 -0.2756724 -1.1349338
H 0.12259081 -1.5164304 -0.8886452
H -1.5322306 -0.037364002 -2.1991956
H 1.5380868 0.0043436033 1.5427434
H 0.27896005 -0.36284515 3.7016106
H -1.3195149 -0.22379051 2.7992492
