18
title
C -0.45245412 2.071222 0.37298656
C -0.6101717 0.5516364 0.4052287
O 0.027007917 -0.028138718 -0.7430291
C -0.70770603 -0.18240805 -1.8617744
N -0.1629978 -0.5935931 -2.9224844
C 0.021891633 -0.06454005 1.6401875
C 0.4771525 -1.4728076 1.6614711
N 1.457997 -0.36830124 1.672743
H 0.6067628 2.3426938 0.3737017
H -0.9189235 2.4932678 -0.5221163
H -0.92635685 2.5205865 1.2510166
H -1.6787902 0.29028288 0.3886484
H -1.7686968 0.069020756 -1.7244277
H -0.8577025 -0.6739186 -3.6619096
H -0.35536426 0.37398097 2.562529
H 0.41849592 -2.0450885 2.582844
H 0.37408623 -2.0511656 0.74874145
H 1.8309773 -0.2677965 0.7303935
