17
title
C -0.23129351 2.017276 -0.43138176
C -0.02691782 0.52813274 -0.70588124
O 0.6932955 -0.07679019 0.37262356
C 2.0370567 -0.08819906 0.2904675
N 2.725865 -0.551615 1.2405645
C -1.3523451 -0.19130209 -0.86615187
C -1.6587759 -1.4743977 -0.22671895
O -2.1963665 -0.24560854 0.27786672
H 0.7297889 2.530306 -0.33602476
H -0.79131746 2.484983 -1.2472733
H -0.79296815 2.1424887 0.49734485
H 0.5395123 0.3902746 -1.6393751
H 2.4213533 0.32086983 -0.6552158
H 3.7154653 -0.5006772 1.008488
H -1.867365 0.066591166 -1.7940024
H -2.3825364 -2.1426585 -0.69104123
H -0.9099176 -1.9412825 0.40625954
