title
 OpenBabel02282110013D

 19 19  0  0  0  0  0  0  0  0999 V2000
    0.1706    1.3622   -0.8149 C   0  0  0  0  0  0  0  0  0  0  0  0
    0.0711   -0.0467   -0.4675 N   0  0  0  0  0  0  0  0  0  0  0  0
    0.5974   -0.3223    0.8584 C   0  0  0  0  0  0  0  0  0  0  0  0
    2.1149   -0.2190    0.8860 C   0  0  0  0  0  0  0  0  0  0  0  0
    2.7610    0.1053    1.8472 O   0  0  0  0  0  0  0  0  0  0  0  0
   -1.2024   -0.6899   -0.6949 C   0  0  0  0  0  0  0  0  0  0  0  0
   -2.5269   -0.1929   -0.1426 C   0  0  0  0  0  0  0  0  0  0  0  0
   -2.2483   -0.1645   -1.6314 C   0  0  0  0  0  0  0  0  0  0  0  0
    1.1948    1.7035   -0.6333 H   0  0  0  0  0  0  0  0  0  0  0  0
   -0.0385    1.5083   -1.8765 H   0  0  0  0  0  0  0  0  0  0  0  0
   -0.4979    2.0187   -0.2283 H   0  0  0  0  0  0  0  0  0  0  0  0
    0.1780    0.3080    1.6614 H   0  0  0  0  0  0  0  0  0  0  0  0
    0.3605   -1.3641    1.1172 H   0  0  0  0  0  0  0  0  0  0  0  0
    2.5911   -0.5032   -0.0807 H   0  0  0  0  0  0  0  0  0  0  0  0
   -1.0889   -1.7718   -0.6966 H   0  0  0  0  0  0  0  0  0  0  0  0
   -3.2298   -0.9190    0.2504 H   0  0  0  0  0  0  0  0  0  0  0  0
   -2.5420    0.7637    0.3684 H   0  0  0  0  0  0  0  0  0  0  0  0
   -2.1113    0.8084   -2.0870 H   0  0  0  0  0  0  0  0  0  0  0  0
   -2.7511   -0.8791   -2.2736 H   0  0  0  0  0  0  0  0  0  0  0  0
  1  9  1  0  0  0  0
  1  2  1  0  0  0  0
  1 11  1  0  0  0  0
  2  3  1  0  0  0  0
  3  4  1  0  0  0  0
  3 13  1  0  0  0  0
  3 12  1  0  0  0  0
  4  5  2  0  0  0  0
  6  2  1  0  0  0  0
  6  7  1  0  0  0  0
  7 16  1  0  0  0  0
  7 17  1  0  0  0  0
  8  6  1  0  0  0  0
  8  7  1  0  0  0  0
 10  1  1  0  0  0  0
 14  4  1  0  0  0  0
 15  6  1  0  0  0  0
 18  8  1  0  0  0  0
 19  8  1  0  0  0  0
M  END
