16
title
C -0.24360453 2.085428 0.50581133
C -0.5827688 0.60316867 0.3765645
O 0.029193113 0.08869281 -0.81765985
C -0.7654023 -0.25010014 -1.8504508
O -0.34070975 -0.68065935 -2.8792675
C -0.09617566 -0.18799736 1.5762264
C 0.63030773 -1.4579483 1.4737939
O 1.3100113 -0.23607488 1.7841228
H 0.84026426 2.2089443 0.5645049
H -0.6194389 2.644532 -0.35500392
H -0.6927143 2.501319 1.4129343
H -1.6720623 0.46899316 0.30485854
H -1.8406012 -0.08712513 -1.6367717
H -0.6787439 0.007189412 2.4792612
H 0.5662717 -2.1761167 2.289794
H 0.8514314 -1.8688196 0.49272075
