17
title
C -0.2396853 2.1657083 -0.5426433
C -0.07266883 0.6572408 -0.70357835
O 0.6488551 0.15286113 0.43811154
C 1.8992939 -0.31864423 0.26313835
O 2.561053 -0.73992807 1.1621323
C -1.4040638 -0.066995315 -0.79507434
C -1.5552768 -1.4862703 -0.40170288
N -2.1549575 -0.4139822 0.41726303
H 0.7341508 2.6602273 -0.4918761
H -0.79266393 2.576114 -1.392746
H -0.79468447 2.3930452 0.37153304
H 0.5108113 0.44476748 -1.6109756
H 2.2311313 -0.2697292 -0.79220384
H -2.0270672 0.3152819 -1.602157
H -2.2667592 -2.11798 -0.9254477
H -0.6862813 -2.003994 -0.007117259
H -1.5583656 -0.25943834 1.2281723
