title
 OpenBabel02282110003D

 17 17  0  0  1  0  0  0  0  0999 V2000
   -0.2397    2.1657   -0.5426 C   0  0  0  0  0  0  0  0  0  0  0  0
   -0.0727    0.6572   -0.7036 C   0  0  1  0  0  0  0  0  0  0  0  0
    0.6489    0.1529    0.4381 O   0  0  0  0  0  0  0  0  0  0  0  0
    1.8993   -0.3186    0.2631 C   0  0  0  0  0  0  0  0  0  0  0  0
    2.5611   -0.7399    1.1621 O   0  0  0  0  0  0  0  0  0  0  0  0
   -1.4041   -0.0670   -0.7951 C   0  0  1  0  0  0  0  0  0  0  0  0
   -1.5553   -1.4863   -0.4017 C   0  0  0  0  0  0  0  0  0  0  0  0
   -2.1550   -0.4140    0.4173 N   0  0  0  0  0  0  0  0  0  0  0  0
    0.7342    2.6602   -0.4919 H   0  0  0  0  0  0  0  0  0  0  0  0
   -0.7927    2.5761   -1.3927 H   0  0  0  0  0  0  0  0  0  0  0  0
   -0.7947    2.3930    0.3715 H   0  0  0  0  0  0  0  0  0  0  0  0
    0.5108    0.4448   -1.6110 H   0  0  0  0  0  0  0  0  0  0  0  0
    2.2311   -0.2697   -0.7922 H   0  0  0  0  0  0  0  0  0  0  0  0
   -2.0271    0.3153   -1.6022 H   0  0  0  0  0  0  0  0  0  0  0  0
   -2.2668   -2.1180   -0.9254 H   0  0  0  0  0  0  0  0  0  0  0  0
   -0.6863   -2.0040   -0.0071 H   0  0  0  0  0  0  0  0  0  0  0  0
   -1.5584   -0.2594    1.2282 H   0  0  0  0  0  0  0  0  0  0  0  0
  1  9  1  0  0  0  0
  1 11  1  0  0  0  0
  2 12  1  6  0  0  0
  2  1  1  0  0  0  0
  2  3  1  0  0  0  0
  4  3  1  0  0  0  0
  4  5  2  0  0  0  0
  6 14  1  6  0  0  0
  6  2  1  0  0  0  0
  6  7  1  0  0  0  0
  6  8  1  0  0  0  0
  7 16  1  0  0  0  0
  7  8  1  0  0  0  0
  8 17  1  0  0  0  0
 10  1  1  0  0  0  0
 13  4  1  0  0  0  0
 15  7  1  0  0  0  0
M  END
