title
 OpenBabel02282110013D

 16 16  0  0  1  0  0  0  0  0999 V2000
   -0.1369    1.6870    0.1304 O   0  0  0  0  0  0  0  0  0  0  0  0
   -0.2325    0.2740    0.2469 C   0  0  1  0  0  0  0  0  0  0  0  0
    0.2938   -0.4381   -1.0072 C   0  0  0  0  0  0  0  0  0  0  0  0
   -0.4215    0.0378   -2.2531 C   0  0  0  0  0  0  0  0  0  0  0  0
    0.1261    0.4639   -3.2357 O   0  0  0  0  0  0  0  0  0  0  0  0
    0.4693   -0.2207    1.4967 C   0  0  1  0  0  0  0  0  0  0  0  0
   -0.2519   -0.4329    2.7540 C   0  0  0  0  0  0  0  0  0  0  0  0
    0.1233   -1.5378    1.9227 O   0  0  0  0  0  0  0  0  0  0  0  0
    0.7593    1.9109   -0.1452 H   0  0  0  0  0  0  0  0  0  0  0  0
   -1.3034    0.0637    0.3539 H   0  0  0  0  0  0  0  0  0  0  0  0
    1.3706   -0.2757   -1.1349 H   0  0  0  0  0  0  0  0  0  0  0  0
    0.1226   -1.5164   -0.8886 H   0  0  0  0  0  0  0  0  0  0  0  0
   -1.5322   -0.0374   -2.1992 H   0  0  0  0  0  0  0  0  0  0  0  0
    1.5381    0.0043    1.5427 H   0  0  0  0  0  0  0  0  0  0  0  0
    0.2790   -0.3628    3.7016 H   0  0  0  0  0  0  0  0  0  0  0  0
   -1.3195   -0.2238    2.7992 H   0  0  0  0  0  0  0  0  0  0  0  0
  1  2  1  0  0  0  0
  2 10  1  1  0  0  0
  2  6  1  0  0  0  0
  3 12  1  0  0  0  0
  3  2  1  0  0  0  0
  4 13  1  0  0  0  0
  4  3  1  0  0  0  0
  5  4  2  0  0  0  0
  6 14  1  1  0  0  0
  6  8  1  0  0  0  0
  6  7  1  0  0  0  0
  7 16  1  0  0  0  0
  7 15  1  0  0  0  0
  8  7  1  0  0  0  0
  9  1  1  0  0  0  0
 11  3  1  0  0  0  0
M  END
