20
title
C -0.7746586 3.3691823 1.1889836
C -0.74131244 1.8397315 1.2350168
C -0.055044763 1.2265104 0.01564018
C -0.0041275527 -0.2938672 0.027587932
O -0.47395727 -0.9498983 0.9356578
C 0.65825343 -0.9415303 -1.1437166
C 1.4169643 -2.2364764 -0.88916343
C 0.10993523 -2.2859998 -1.6009314
H 0.2364436 3.7904787 1.1503276
H -1.3152407 3.7312548 0.30694792
H -1.2710452 3.780164 2.0733993
H -0.22744845 1.4993906 2.1403542
H -1.7587204 1.4409009 1.3079257
H -0.5524932 1.5366789 -0.9156539
H 0.9771843 1.59462 -0.08398851
H 1.0483197 -0.27641258 -1.9062245
H 2.3298974 -2.393581 -1.4518924
H 1.4356351 -2.569656 0.14212339
H -0.74605 -2.652288 -1.0459235
H 0.09750391 -2.4782104 -2.6675572
