title
 OpenBabel02282110003D

 17 17  0  0  1  0  0  0  0  0999 V2000
   -0.2313    2.0173   -0.4314 C   0  0  0  0  0  0  0  0  0  0  0  0
   -0.0269    0.5281   -0.7059 C   0  0  1  0  0  0  0  0  0  0  0  0
    0.6933   -0.0768    0.3726 O   0  0  0  0  0  0  0  0  0  0  0  0
    2.0371   -0.0882    0.2905 C   0  0  0  0  0  0  0  0  0  0  0  0
    2.7259   -0.5516    1.2406 N   0  0  0  0  0  0  0  0  0  0  0  0
   -1.3523   -0.1913   -0.8662 C   0  0  1  0  0  0  0  0  0  0  0  0
   -1.6588   -1.4744   -0.2267 C   0  0  0  0  0  0  0  0  0  0  0  0
   -2.1964   -0.2456    0.2779 O   0  0  0  0  0  0  0  0  0  0  0  0
    0.7298    2.5303   -0.3360 H   0  0  0  0  0  0  0  0  0  0  0  0
   -0.7913    2.4850   -1.2473 H   0  0  0  0  0  0  0  0  0  0  0  0
   -0.7930    2.1425    0.4973 H   0  0  0  0  0  0  0  0  0  0  0  0
    0.5395    0.3903   -1.6394 H   0  0  0  0  0  0  0  0  0  0  0  0
    2.4214    0.3209   -0.6552 H   0  0  0  0  0  0  0  0  0  0  0  0
    3.7155   -0.5007    1.0085 H   0  0  0  0  0  0  0  0  0  0  0  0
   -1.8674    0.0666   -1.7940 H   0  0  0  0  0  0  0  0  0  0  0  0
   -2.3825   -2.1427   -0.6910 H   0  0  0  0  0  0  0  0  0  0  0  0
   -0.9099   -1.9413    0.4063 H   0  0  0  0  0  0  0  0  0  0  0  0
  1  9  1  0  0  0  0
  1 11  1  0  0  0  0
  2 12  1  6  0  0  0
  2  1  1  0  0  0  0
  2  3  1  0  0  0  0
  4  3  1  0  0  0  0
  4  5  2  0  0  0  0
  6 15  1  6  0  0  0
  6  2  1  0  0  0  0
  6  7  1  0  0  0  0
  6  8  1  0  0  0  0
  7  8  1  0  0  0  0
  7 17  1  0  0  0  0
 10  1  1  0  0  0  0
 13  4  1  0  0  0  0
 14  5  1  0  0  0  0
 16  7  1  0  0  0  0
M  END
