17
title
C -1.0585124 3.115475 -0.90203524
C -0.92603904 1.635345 -1.2051499
O -0.16507734 1.040841 -0.13915448
C 0.0691453 -0.27833602 -0.23540919
N -0.34127256 -0.9938637 -1.1972395
C 0.8592405 -0.74558175 0.9516023
C 0.295957 -1.7580882 1.8621188
O 1.29337 -2.0990562 0.9003971
H -0.075897 3.5924222 -0.84446216
H -1.6335757 3.6058266 -1.6930689
H -1.5746158 3.2756317 0.048919387
H -1.8994883 1.1376737 -1.2666383
H -0.4099347 1.4517337 -2.15312
H -0.013258956 -1.9503831 -1.058543
H 1.5802586 -0.031748038 1.3457061
H 0.6173647 -1.7831913 2.9017603
H -0.698474 -2.1511269 1.65983
