18
title
C -2.1522074 2.4730425 0.85101676
C -1.0320722 1.5065444 1.2422129
C -0.5286375 0.6797171 0.059594646
C 0.61413443 -0.25180453 0.417484
O 1.1433251 -0.27063423 1.5064776
C 1.1223655 -1.1781936 -0.658087
C 0.21677029 -2.1068923 -1.3662573
O 0.71209514 -0.9401483 -2.0057266
H -1.8173195 3.1836548 0.087030664
H -3.0191803 1.9390656 0.44550866
H -2.4933872 3.050912 1.7152894
H -0.18981671 2.0572236 1.6739881
H -1.3765459 0.8299391 2.0323725
H -1.3421872 0.09507184 -0.3915187
H -0.17543507 1.3237321 -0.7582513
H 2.160517 -1.477998 -0.5224613
H 0.6190088 -3.0524614 -1.7255021
H -0.84755087 -2.1058848 -1.1378924
