title
 OpenBabel02282110013D

 19 19  0  0  1  0  0  0  0  0999 V2000
   -1.3538    3.1999    1.1527 C   0  0  0  0  0  0  0  0  0  0  0  0
   -0.9493    1.7280    1.2608 C   0  0  0  0  0  0  0  0  0  0  0  0
   -0.4070    1.1673   -0.0533 C   0  0  0  0  0  0  0  0  0  0  0  0
   -0.0325   -0.3014    0.0030 C   0  0  0  0  0  0  0  0  0  0  0  0
   -0.2486   -1.0006    0.9731 O   0  0  0  0  0  0  0  0  0  0  0  0
    0.6272   -0.8756   -1.2147 C   0  0  1  0  0  0  0  0  0  0  0  0
    1.8586   -1.6968   -0.9727 C   0  0  0  0  0  0  0  0  0  0  0  0
    0.6121   -2.3382   -1.3637 N   0  0  0  0  0  0  0  0  0  0  0  0
   -0.5035    3.8296    0.8671 H   0  0  0  0  0  0  0  0  0  0  0  0
   -2.1374    3.3443    0.4003 H   0  0  0  0  0  0  0  0  0  0  0  0
   -1.7374    3.5739    2.1067 H   0  0  0  0  0  0  0  0  0  0  0  0
   -0.1916    1.6013    2.0420 H   0  0  0  0  0  0  0  0  0  0  0  0
   -1.8038    1.1215    1.5782 H   0  0  0  0  0  0  0  0  0  0  0  0
   -1.1439    1.2837   -0.8628 H   0  0  0  0  0  0  0  0  0  0  0  0
    0.4738    1.7298   -0.3963 H   0  0  0  0  0  0  0  0  0  0  0  0
    0.5456   -0.3070   -2.1365 H   0  0  0  0  0  0  0  0  0  0  0  0
    2.6431   -1.6965   -1.7239 H   0  0  0  0  0  0  0  0  0  0  0  0
    2.1895   -1.7869    0.0583 H   0  0  0  0  0  0  0  0  0  0  0  0
    0.1644   -2.7067   -0.5229 H   0  0  0  0  0  0  0  0  0  0  0  0
  1  2  1  0  0  0  0
  1 11  1  0  0  0  0
  2 13  1  0  0  0  0
  2 12  1  0  0  0  0
  3  4  1  0  0  0  0
  3  2  1  0  0  0  0
  4  5  2  0  0  0  0
  6 16  1  6  0  0  0
  6  7  1  0  0  0  0
  6  4  1  0  0  0  0
  7 18  1  0  0  0  0
  8  6  1  0  0  0  0
  8  7  1  0  0  0  0
  8 19  1  0  0  0  0
  9  1  1  0  0  0  0
 10  1  1  0  0  0  0
 14  3  1  0  0  0  0
 15  3  1  0  0  0  0
 17  7  1  0  0  0  0
M  END
