19
title
C -0.9305959 3.1191137 1.3435463
C -0.9373596 1.5890163 1.3125836
C 0.02082848 1.019451 0.26616567
C 0.013310665 -0.5006291 0.20797388
O -0.7094131 -1.1984531 0.883975
N 0.9847752 -1.0438527 -0.64057666
C 0.9825493 -0.92250985 -2.0885758
C 0.75088584 -2.2409296 -1.4112707
H 0.06633865 3.5101655 1.5765504
H -1.2309557 3.539924 0.37704605
H -1.6219691 3.5013895 2.1006243
H -0.66839683 1.1896163 2.2962098
H -1.9476602 1.2183131 1.1104057
H -0.22709286 1.4038239 -0.7333866
H 1.051851 1.3465962 0.4513505
H 0.12523705 -0.44522852 -2.558307
H 1.9400479 -0.70216197 -2.5528152
H 1.5437886 -2.9828615 -1.3901471
H -0.25952947 -2.6406436 -1.4028956
