title
 OpenBabel02282110013D

 18 18  0  0  1  0  0  0  0  0999 V2000
   -2.1522    2.4730    0.8510 C   0  0  0  0  0  0  0  0  0  0  0  0
   -1.0321    1.5065    1.2422 C   0  0  0  0  0  0  0  0  0  0  0  0
   -0.5286    0.6797    0.0596 C   0  0  0  0  0  0  0  0  0  0  0  0
    0.6141   -0.2518    0.4175 C   0  0  0  0  0  0  0  0  0  0  0  0
    1.1433   -0.2706    1.5065 O   0  0  0  0  0  0  0  0  0  0  0  0
    1.1224   -1.1782   -0.6581 C   0  0  1  0  0  0  0  0  0  0  0  0
    0.2168   -2.1069   -1.3663 C   0  0  0  0  0  0  0  0  0  0  0  0
    0.7121   -0.9401   -2.0057 O   0  0  0  0  0  0  0  0  0  0  0  0
   -1.8173    3.1837    0.0870 H   0  0  0  0  0  0  0  0  0  0  0  0
   -3.0192    1.9391    0.4455 H   0  0  0  0  0  0  0  0  0  0  0  0
   -2.4934    3.0509    1.7153 H   0  0  0  0  0  0  0  0  0  0  0  0
   -0.1898    2.0572    1.6740 H   0  0  0  0  0  0  0  0  0  0  0  0
   -1.3765    0.8299    2.0324 H   0  0  0  0  0  0  0  0  0  0  0  0
   -1.3422    0.0951   -0.3915 H   0  0  0  0  0  0  0  0  0  0  0  0
   -0.1754    1.3237   -0.7583 H   0  0  0  0  0  0  0  0  0  0  0  0
    2.1605   -1.4780   -0.5225 H   0  0  0  0  0  0  0  0  0  0  0  0
    0.6190   -3.0525   -1.7255 H   0  0  0  0  0  0  0  0  0  0  0  0
   -0.8476   -2.1059   -1.1379 H   0  0  0  0  0  0  0  0  0  0  0  0
  1  2  1  0  0  0  0
  1 11  1  0  0  0  0
  2 12  1  0  0  0  0
  2 13  1  0  0  0  0
  3  4  1  0  0  0  0
  3  2  1  0  0  0  0
  4  5  2  0  0  0  0
  6 16  1  1  0  0  0
  6  4  1  0  0  0  0
  7 18  1  0  0  0  0
  7  6  1  0  0  0  0
  8  7  1  0  0  0  0
  8  6  1  0  0  0  0
  9  1  1  0  0  0  0
 10  1  1  0  0  0  0
 14  3  1  0  0  0  0
 15  3  1  0  0  0  0
 17  7  1  0  0  0  0
M  END
