19
title
C -0.69417155 2.8314006 1.4978167
C -1.402423 1.53756 1.0894402
N -0.79245 0.8960862 -0.06364497
C -0.07019741 -0.2600691 0.026166955
O 0.0789082 -0.8704897 1.0746368
C 0.5238936 -0.7346405 -1.2635643
C 1.8624177 -1.4443878 -1.1800938
C 0.6260172 -2.2351806 -1.4600291
H 0.3479365 2.6329715 1.7641467
H -0.7044048 3.5668023 0.68549013
H -1.1914437 3.282708 2.3623767
H -1.3581516 0.80445135 1.8973511
H -2.4597673 1.7364683 0.874459
H -0.83793736 1.3660924 -0.9529757
H 0.33600807 -0.12992655 -2.1452854
H 2.569432 -1.2721404 -1.983501
H 2.2877169 -1.5250646 -0.18686505
H 0.23171233 -2.840588 -0.65259033
H 0.46308172 -2.6191401 -2.460511
