title
 OpenBabel02282110013D

 19 19  0  0  0  0  0  0  0  0999 V2000
   -0.9306    3.1191    1.3435 C   0  0  0  0  0  0  0  0  0  0  0  0
   -0.9374    1.5890    1.3126 C   0  0  0  0  0  0  0  0  0  0  0  0
    0.0208    1.0195    0.2662 C   0  0  0  0  0  0  0  0  0  0  0  0
    0.0133   -0.5006    0.2080 C   0  0  0  0  0  0  0  0  0  0  0  0
   -0.7094   -1.1985    0.8840 O   0  0  0  0  0  0  0  0  0  0  0  0
    0.9848   -1.0439   -0.6406 N   0  0  0  0  0  0  0  0  0  0  0  0
    0.9825   -0.9225   -2.0886 C   0  0  0  0  0  0  0  0  0  0  0  0
    0.7509   -2.2409   -1.4113 C   0  0  0  0  0  0  0  0  0  0  0  0
    0.0663    3.5102    1.5766 H   0  0  0  0  0  0  0  0  0  0  0  0
   -1.2310    3.5399    0.3770 H   0  0  0  0  0  0  0  0  0  0  0  0
   -1.6220    3.5014    2.1006 H   0  0  0  0  0  0  0  0  0  0  0  0
   -0.6684    1.1896    2.2962 H   0  0  0  0  0  0  0  0  0  0  0  0
   -1.9477    1.2183    1.1104 H   0  0  0  0  0  0  0  0  0  0  0  0
   -0.2271    1.4038   -0.7334 H   0  0  0  0  0  0  0  0  0  0  0  0
    1.0519    1.3466    0.4514 H   0  0  0  0  0  0  0  0  0  0  0  0
    0.1252   -0.4452   -2.5583 H   0  0  0  0  0  0  0  0  0  0  0  0
    1.9400   -0.7022   -2.5528 H   0  0  0  0  0  0  0  0  0  0  0  0
    1.5438   -2.9829   -1.3901 H   0  0  0  0  0  0  0  0  0  0  0  0
   -0.2595   -2.6406   -1.4029 H   0  0  0  0  0  0  0  0  0  0  0  0
  1  9  1  0  0  0  0
  1 11  1  0  0  0  0
  2  1  1  0  0  0  0
  2 12  1  0  0  0  0
  3 15  1  0  0  0  0
  3  2  1  0  0  0  0
  4  3  1  0  0  0  0
  4  5  2  0  0  0  0
  6  4  1  0  0  0  0
  7  8  1  0  0  0  0
  7  6  1  0  0  0  0
  8 19  1  0  0  0  0
  8 18  1  0  0  0  0
  8  6  1  0  0  0  0
 10  1  1  0  0  0  0
 13  2  1  0  0  0  0
 14  3  1  0  0  0  0
 16  7  1  0  0  0  0
 17  7  1  0  0  0  0
M  END
