18
title
O 1.2088544 3.2294948 0.07418373
C 1.3827153 1.820276 0.022213144
C -0.0033921904 1.1955699 0.039761197
C 0.015802175 -0.3206616 -0.010882766
O 1.0552543 -0.94979626 -0.060169596
C -1.3122092 -0.99990684 0.002996759
C -1.4401633 -2.2983239 -0.7820631
C -1.3992065 -2.34815 0.7052224
H 2.0797899 3.63658 0.06317536
H 1.9156665 1.5081038 -0.8869893
H 1.9645565 1.4490284 0.87764573
H -0.54883873 1.5131907 0.93883044
H -0.5970576 1.5708219 -0.8048999
H -2.1829731 -0.35550624 0.048507918
H -2.38075 -2.476959 -1.290053
H -0.54952824 -2.6089308 -1.31607
H -0.48110256 -2.6921003 1.1674526
H -2.3107488 -2.562156 1.2510774
