title
 OpenBabel02282110013D

 17 17  0  0  0  0  0  0  0  0999 V2000
   -1.4939    1.9823   -0.8169 C   0  0  0  0  0  0  0  0  0  0  0  0
   -0.5019    1.7738    0.1759 O   0  0  0  0  0  0  0  0  0  0  0  0
    0.6979    1.2053   -0.3267 C   0  0  0  0  0  0  0  0  0  0  0  0
    0.4902   -0.2932   -0.5595 C   0  0  0  0  0  0  0  0  0  0  0  0
    0.0806   -0.7434   -1.6089 O   0  0  0  0  0  0  0  0  0  0  0  0
    0.8091   -1.0881    0.5331 N   0  0  0  0  0  0  0  0  0  0  0  0
    0.1787   -0.9960    1.8400 C   0  0  0  0  0  0  0  0  0  0  0  0
    0.0006   -2.2029    0.9624 C   0  0  0  0  0  0  0  0  0  0  0  0
   -1.7963    1.0478   -1.3046 H   0  0  0  0  0  0  0  0  0  0  0  0
   -2.3545    2.4252   -0.3102 H   0  0  0  0  0  0  0  0  0  0  0  0
   -1.1358    2.6766   -1.5914 H   0  0  0  0  0  0  0  0  0  0  0  0
    0.9952    1.6721   -1.2751 H   0  0  0  0  0  0  0  0  0  0  0  0
    1.4676    1.3815    0.4292 H   0  0  0  0  0  0  0  0  0  0  0  0
    0.8484   -1.0442    2.6942 H   0  0  0  0  0  0  0  0  0  0  0  0
   -0.6558   -0.3087    1.9401 H   0  0  0  0  0  0  0  0  0  0  0  0
   -0.9529   -2.3390    0.4596 H   0  0  0  0  0  0  0  0  0  0  0  0
    0.5371   -3.1178    1.1961 H   0  0  0  0  0  0  0  0  0  0  0  0
  1 10  1  0  0  0  0
  1  2  1  0  0  0  0
  3  2  1  0  0  0  0
  3 13  1  0  0  0  0
  4  3  1  0  0  0  0
  4  6  1  0  0  0  0
  5  4  2  0  0  0  0
  6  8  1  0  0  0  0
  6  7  1  0  0  0  0
  7 15  1  0  0  0  0
  7 14  1  0  0  0  0
  8 17  1  0  0  0  0
  8  7  1  0  0  0  0
  9  1  1  0  0  0  0
 11  1  1  0  0  0  0
 12  3  1  0  0  0  0
 16  8  1  0  0  0  0
M  END
