17
title
C -1.493913 1.9823241 -0.816906
O -0.50194836 1.773759 0.17587756
C 0.697853 1.205286 -0.32665506
C 0.49016517 -0.29317507 -0.5595013
O 0.08059872 -0.74337363 -1.6088805
N 0.8091075 -1.0880651 0.533057
C 0.1786532 -0.9959917 1.8399587
C 0.0006359901 -2.202935 0.9624493
H -1.7963368 1.0478201 -1.3046234
H -2.3544693 2.425229 -0.31016442
H -1.1357505 2.6765797 -1.5914297
H 0.9951988 1.6720808 -1.2750567
H 1.4675653 1.3815072 0.42915913
H 0.84839994 -1.0442252 2.694238
H -0.6557885 -0.3087164 1.9400973
H -0.9529033 -2.3389978 0.4596171
H 0.53712565 -3.1177826 1.1961055
