18
title
C -1.1644092 3.0207949 1.0668067
C -0.9501127 1.5323873 1.2634131
O -0.26532868 1.032858 0.09801741
C 0.009407245 -0.2873192 0.101883724
O -0.28565928 -1.0319313 1.008148
C 0.7130848 -0.6924604 -1.1411561
C 1.736214 -1.8093294 -1.0221835
C 0.4235008 -2.0848827 -1.6755444
H -0.20936319 3.541418 0.9527997
H -1.7694331 3.214268 0.1764849
H -1.6837419 3.439159 1.9341459
H -0.3445066 1.318227 2.1497307
H -1.8956668 0.99290735 1.3777193
H 0.8999269 0.1021677 -1.8516136
H 2.6241076 -1.7296399 -1.6384767
H 1.8916322 -2.205405 -0.025666164
H -0.30088702 -2.6656313 -1.1169108
H 0.38574007 -2.1995225 -2.7525563
