title
 OpenBabel02282110013D

 18 18  0  0  0  0  0  0  0  0999 V2000
   -0.6259    3.2382    0.9343 C   0  0  0  0  0  0  0  0  0  0  0  0
   -0.6163    1.8325    1.0196 O   0  0  0  0  0  0  0  0  0  0  0  0
   -0.0067    1.2273   -0.0766 C   0  0  0  0  0  0  0  0  0  0  0  0
   -0.0230   -0.2908    0.0639 C   0  0  0  0  0  0  0  0  0  0  0  0
   -0.5109   -0.8537    1.0164 O   0  0  0  0  0  0  0  0  0  0  0  0
    0.6115   -1.0267   -1.0688 C   0  0  0  0  0  0  0  0  0  0  0  0
    1.3297   -2.3266   -0.7362 C   0  0  0  0  0  0  0  0  0  0  0  0
    0.0170   -2.3780   -1.4383 C   0  0  0  0  0  0  0  0  0  0  0  0
    0.3937    3.6532    0.8895 H   0  0  0  0  0  0  0  0  0  0  0  0
   -1.1787    3.5914    0.0491 H   0  0  0  0  0  0  0  0  0  0  0  0
   -1.1209    3.6128    1.8330 H   0  0  0  0  0  0  0  0  0  0  0  0
   -0.5103    1.4883   -1.0274 H   0  0  0  0  0  0  0  0  0  0  0  0
    1.0461    1.5487   -0.1953 H   0  0  0  0  0  0  0  0  0  0  0  0
    1.0182   -0.4226   -1.8732 H   0  0  0  0  0  0  0  0  0  0  0  0
    2.2334   -2.5482   -1.2920 H   0  0  0  0  0  0  0  0  0  0  0  0
    1.3445   -2.5942    0.3141 H   0  0  0  0  0  0  0  0  0  0  0  0
   -0.8474   -2.6799   -0.8582 H   0  0  0  0  0  0  0  0  0  0  0  0
   -0.0079   -2.6361   -2.4906 H   0  0  0  0  0  0  0  0  0  0  0  0
  1  2  1  0  0  0  0
  1 11  1  0  0  0  0
  3  4  1  0  0  0  0
  3  2  1  0  0  0  0
  4  5  2  0  0  0  0
  6  7  1  0  0  0  0
  6  4  1  0  0  0  0
  7 16  1  0  0  0  0
  8  6  1  0  0  0  0
  8 17  1  0  0  0  0
  8  7  1  0  0  0  0
  9  1  1  0  0  0  0
 10  1  1  0  0  0  0
 12  3  1  0  0  0  0
 13  3  1  0  0  0  0
 14  6  1  0  0  0  0
 15  7  1  0  0  0  0
 18  8  1  0  0  0  0
M  END
