title
 OpenBabel02282110013D

 16 16  0  0  1  0  0  0  0  0999 V2000
   -1.0359    2.6489   -1.1890 C   0  0  0  0  0  0  0  0  0  0  0  0
   -0.4639    1.2887   -1.5363 C   0  0  0  0  0  0  0  0  0  0  0  0
   -0.2409    0.5805   -0.2983 O   0  0  0  0  0  0  0  0  0  0  0  0
    0.2541   -0.6590   -0.4169 C   0  0  0  0  0  0  0  0  0  0  0  0
    0.5247   -1.1980   -1.4618 O   0  0  0  0  0  0  0  0  0  0  0  0
    0.4655   -1.3178    0.9162 C   0  0  1  0  0  0  0  0  0  0  0  0
    0.9786   -0.5589    2.0735 C   0  0  0  0  0  0  0  0  0  0  0  0
   -0.3845   -0.9450    1.9972 O   0  0  0  0  0  0  0  0  0  0  0  0
   -0.3400    3.2185   -0.5668 H   0  0  0  0  0  0  0  0  0  0  0  0
   -1.2225    3.2163   -2.1055 H   0  0  0  0  0  0  0  0  0  0  0  0
   -1.9796    2.5477   -0.6462 H   0  0  0  0  0  0  0  0  0  0  0  0
   -1.1463    0.7008   -2.1576 H   0  0  0  0  0  0  0  0  0  0  0  0
    0.4861    1.3652   -2.0746 H   0  0  0  0  0  0  0  0  0  0  0  0
    0.6873   -2.3785    0.8281 H   0  0  0  0  0  0  0  0  0  0  0  0
    1.5804   -1.0815    2.8153 H   0  0  0  0  0  0  0  0  0  0  0  0
    1.1685    0.5062    1.9622 H   0  0  0  0  0  0  0  0  0  0  0  0
  1 11  1  0  0  0  0
  1  9  1  0  0  0  0
  2  1  1  0  0  0  0
  2  3  1  0  0  0  0
  4  3  1  0  0  0  0
  4  6  1  0  0  0  0
  5  4  2  0  0  0  0
  6 14  1  6  0  0  0
  6  8  1  0  0  0  0
  6  7  1  0  0  0  0
  7 15  1  0  0  0  0
  8  7  1  0  0  0  0
 10  1  1  0  0  0  0
 12  2  1  0  0  0  0
 13  2  1  0  0  0  0
 16  7  1  0  0  0  0
M  END
