16
title
O 1.7122298 2.1376212 1.6071554
C 1.5483537 1.4700991 0.36502862
C 0.30505437 0.60199577 0.4860778
C 0.011983094 -0.17960554 -0.77622145
O 0.6563998 -0.059548445 -1.795707
C -1.1539873 -1.1330062 -0.7527508
C -1.2712988 -2.1794102 0.28472292
O -2.0924172 -1.0226611 0.31878793
H 2.4817019 2.7100127 1.5383358
H 1.4238604 2.1775606 -0.4666361
H 2.417246 0.8409301 0.12277195
H 0.40560037 -0.08107526 1.3386986
H -0.5723203 1.216716 0.7229092
H -1.5743569 -1.3342978 -1.7367651
H -1.7728902 -3.1108232 0.027780995
H -0.52136856 -2.2511542 1.0703537
