24
title
C 1.4900224 3.2122571 -0.22274968
C 1.561649 1.7042296 0.035986234
C 0.17918476 1.0411695 0.06277915
C 0.18631944 -0.4915677 0.22200531
C 0.7758393 -0.94411784 1.5667152
C -1.2152694 -1.0509588 0.042077553
C -1.7830993 -1.2874073 -1.3336616
C -1.4286345 -2.4597094 -0.44903383
H 2.4870067 3.6639066 -0.24019735
H 1.009605 3.42684 -1.1839536
H 0.9088363 3.7198594 0.5553874
H 2.1752965 1.2288321 -0.74140996
H 2.0827105 1.527259 0.9843801
H -0.41863278 1.481682 0.8744498
H -0.34916595 1.2884682 -0.8674426
H 0.8125306 -0.90851766 -0.5816903
H 0.20243284 -0.5252066 2.4026783
H 0.74450016 -2.0343838 1.6566087
H 1.8161709 -0.628249 1.6863259
H -1.9249035 -0.70213825 0.79049534
H -2.8311586 -1.0719754 -1.5106719
H -1.1414768 -1.0889124 -2.1866503
H -0.5510511 -3.041721 -0.71311694
H -2.2345693 -3.0457685 -0.02101289
