23
title
C 0.9136494 3.1932027 0.46878898
C 0.89119315 1.6628317 0.40579793
C -0.53420544 1.0999266 0.38661635
C -0.65251243 -0.4312367 0.4153833
C -2.1204894 -0.85704136 0.5048178
N -0.06591597 -1.0102723 -0.7984856
C 1.3371266 -1.4077272 -0.74848133
C 0.25937715 -2.4319248 -0.74948436
H 1.9380579 3.578767 0.4777711
H 0.40110722 3.631257 -0.39501143
H 0.4109148 3.5609345 1.3705198
H 1.431691 1.3295217 -0.48648834
H 1.4350284 1.2548147 1.2686428
H -1.0826025 1.4948728 1.2525537
H -1.0576785 1.4654477 -0.50653815
H -0.12422016 -0.80764055 1.3141884
H -2.6729126 -0.5028486 -0.37122804
H -2.2148852 -1.9462466 0.54539627
H -2.5898829 -0.4422638 1.4019586
H 1.9197245 -1.2121551 -1.64464
H 1.8780695 -1.2637353 0.18540858
H 0.08757362 -2.9651518 0.18490812
H 0.034242067 -3.0035424 -1.6454523
