21
title
C -1.5858715 3.1042132 -0.9620147
C -1.1112788 1.6676111 -1.1931244
C -0.40793914 1.0636953 0.02637969
C 0.13151987 -0.35135597 -0.21732654
O 1.047982 -0.39047188 -1.3131459
C 0.74597913 -0.9439284 1.0339346
C -0.017126726 -1.91418 1.859076
N 1.1340046 -2.3595204 1.0583396
H -0.7454969 3.7669113 -0.72605467
H -2.085269 3.5056098 -1.8493316
H -2.2937794 3.1618383 -0.12737454
H -1.9688501 1.0362005 -1.4614314
H -0.4271561 1.6280416 -2.0472386
H 0.43010777 1.7104529 0.32821319
H -1.0935334 1.0353979 0.8838148
H -0.6945708 -0.99997205 -0.5404254
H 1.8466272 0.0781465 -1.044764
H 1.4608035 -0.291354 1.5376194
H 0.12865122 -1.9524276 2.9348564
H -1.0198114 -2.1780965 1.5306108
H 0.8180651 -2.806892 0.20030104
