title
 OpenBabel02282110013D

 22 22  0  0  1  0  0  0  0  0999 V2000
    1.5509    3.2275   -0.0761 C   0  0  0  0  0  0  0  0  0  0  0  0
    1.5576    1.7001    0.0225 C   0  0  0  0  0  0  0  0  0  0  0  0
    0.1549    1.0872   -0.0304 C   0  0  0  0  0  0  0  0  0  0  0  0
    0.1428   -0.4383    0.1372 C   0  0  1  0  0  0  0  0  0  0  0  0
    0.7517   -0.8335    1.3687 O   0  0  0  0  0  0  0  0  0  0  0  0
   -1.2499   -1.0145   -0.0102 C   0  0  0  0  0  0  0  0  0  0  0  0
   -1.7554   -1.4527   -1.3630 C   0  0  0  0  0  0  0  0  0  0  0  0
   -1.4322   -2.4786   -0.3061 C   0  0  0  0  0  0  0  0  0  0  0  0
    2.5665    3.6340   -0.0394 H   0  0  0  0  0  0  0  0  0  0  0  0
    1.0912    3.5655   -1.0119 H   0  0  0  0  0  0  0  0  0  0  0  0
    0.9843    3.6760    0.7480 H   0  0  0  0  0  0  0  0  0  0  0  0
    2.1620    1.2824   -0.7939 H   0  0  0  0  0  0  0  0  0  0  0  0
    2.0439    1.3834    0.9512 H   0  0  0  0  0  0  0  0  0  0  0  0
   -0.4721    1.5301    0.7593 H   0  0  0  0  0  0  0  0  0  0  0  0
   -0.3329    1.3398   -0.9810 H   0  0  0  0  0  0  0  0  0  0  0  0
    0.7868   -0.8850   -0.6326 H   0  0  0  0  0  0  0  0  0  0  0  0
    0.1782   -0.5358    2.0836 H   0  0  0  0  0  0  0  0  0  0  0  0
   -1.9882   -0.5585    0.6483 H   0  0  0  0  0  0  0  0  0  0  0  0
   -2.7955   -1.2703   -1.6094 H   0  0  0  0  0  0  0  0  0  0  0  0
   -1.0797   -1.3642   -2.2080 H   0  0  0  0  0  0  0  0  0  0  0  0
   -0.5360   -3.0767   -0.4324 H   0  0  0  0  0  0  0  0  0  0  0  0
   -2.2527   -3.0041    0.1698 H   0  0  0  0  0  0  0  0  0  0  0  0
  1  9  1  0  0  0  0
  1  2  1  0  0  0  0
  1 11  1  0  0  0  0
  2 13  1  0  0  0  0
  3  2  1  0  0  0  0
  3  4  1  0  0  0  0
  3 14  1  0  0  0  0
  4 16  1  6  0  0  0
  4  5  1  0  0  0  0
  5 17  1  0  0  0  0
  6  4  1  0  0  0  0
  6 18  1  0  0  0  0
  7  8  1  0  0  0  0
  7  6  1  0  0  0  0
  8  6  1  0  0  0  0
  8 22  1  0  0  0  0
 10  1  1  0  0  0  0
 12  2  1  0  0  0  0
 15  3  1  0  0  0  0
 19  7  1  0  0  0  0
 20  7  1  0  0  0  0
 21  8  1  0  0  0  0
M  END
