title
 OpenBabel02282110013D

 24 24  0  0  1  0  0  0  0  0999 V2000
    1.4900    3.2123   -0.2227 C   0  0  0  0  0  0  0  0  0  0  0  0
    1.5616    1.7042    0.0360 C   0  0  0  0  0  0  0  0  0  0  0  0
    0.1792    1.0412    0.0628 C   0  0  0  0  0  0  0  0  0  0  0  0
    0.1863   -0.4916    0.2220 C   0  0  1  0  0  0  0  0  0  0  0  0
    0.7758   -0.9441    1.5667 C   0  0  0  0  0  0  0  0  0  0  0  0
   -1.2153   -1.0510    0.0421 C   0  0  0  0  0  0  0  0  0  0  0  0
   -1.7831   -1.2874   -1.3337 C   0  0  0  0  0  0  0  0  0  0  0  0
   -1.4286   -2.4597   -0.4490 C   0  0  0  0  0  0  0  0  0  0  0  0
    2.4870    3.6639   -0.2402 H   0  0  0  0  0  0  0  0  0  0  0  0
    1.0096    3.4268   -1.1840 H   0  0  0  0  0  0  0  0  0  0  0  0
    0.9088    3.7199    0.5554 H   0  0  0  0  0  0  0  0  0  0  0  0
    2.1753    1.2288   -0.7414 H   0  0  0  0  0  0  0  0  0  0  0  0
    2.0827    1.5273    0.9844 H   0  0  0  0  0  0  0  0  0  0  0  0
   -0.4186    1.4817    0.8744 H   0  0  0  0  0  0  0  0  0  0  0  0
   -0.3492    1.2885   -0.8674 H   0  0  0  0  0  0  0  0  0  0  0  0
    0.8125   -0.9085   -0.5817 H   0  0  0  0  0  0  0  0  0  0  0  0
    0.2024   -0.5252    2.4027 H   0  0  0  0  0  0  0  0  0  0  0  0
    0.7445   -2.0344    1.6566 H   0  0  0  0  0  0  0  0  0  0  0  0
    1.8162   -0.6282    1.6863 H   0  0  0  0  0  0  0  0  0  0  0  0
   -1.9249   -0.7021    0.7905 H   0  0  0  0  0  0  0  0  0  0  0  0
   -2.8312   -1.0720   -1.5107 H   0  0  0  0  0  0  0  0  0  0  0  0
   -1.1415   -1.0889   -2.1867 H   0  0  0  0  0  0  0  0  0  0  0  0
   -0.5511   -3.0417   -0.7131 H   0  0  0  0  0  0  0  0  0  0  0  0
   -2.2346   -3.0458   -0.0210 H   0  0  0  0  0  0  0  0  0  0  0  0
  1  2  1  0  0  0  0
  1 11  1  0  0  0  0
  2  3  1  0  0  0  0
  2 13  1  0  0  0  0
  3  4  1  0  0  0  0
  3 14  1  0  0  0  0
  4 16  1  6  0  0  0
  4  5  1  0  0  0  0
  5 18  1  0  0  0  0
  5 19  1  0  0  0  0
  5 17  1  0  0  0  0
  6  4  1  0  0  0  0
  6 20  1  0  0  0  0
  7  8  1  0  0  0  0
  7  6  1  0  0  0  0
  8 24  1  0  0  0  0
  8  6  1  0  0  0  0
  9  1  1  0  0  0  0
 10  1  1  0  0  0  0
 12  2  1  0  0  0  0
 15  3  1  0  0  0  0
 21  7  1  0  0  0  0
 22  7  1  0  0  0  0
 23  8  1  0  0  0  0
M  END
