22
title
C 1.5508671 3.2274888 -0.076094516
C 1.5576383 1.7000554 0.022529082
C 0.15494299 1.0871847 -0.030375121
C 0.14281416 -0.43831867 0.13721313
O 0.7517052 -0.8335313 1.3686585
C -1.2498671 -1.0145438 -0.010198478
C -1.7553507 -1.4526899 -1.363018
C -1.4322003 -2.4786386 -0.3060813
H 2.5665317 3.6339648 -0.039412543
H 1.0911602 3.565498 -1.0118803
H 0.9843396 3.6760337 0.74803084
H 2.1620476 1.2824239 -0.79390204
H 2.0438976 1.3833838 0.9512493
H -0.4721154 1.5300577 0.75931174
H -0.33292043 1.3398049 -0.9809693
H 0.7867776 -0.88500947 -0.6325732
H 0.17821765 -0.5357849 2.0836098
H -1.988213 -0.5584938 0.64825815
H -2.7954707 -1.2703445 -1.6094179
H -1.0797209 -1.3641517 -2.2079756
H -0.5360297 -3.0767388 -0.43236068
H -2.2526681 -3.0040936 0.16983971
