title
 OpenBabel02282110013D

 17 17  0  0  0  0  0  0  0  0999 V2000
    1.4160    2.9926   -0.1332 O   0  0  0  0  0  0  0  0  0  0  0  0
    1.5470    1.5784   -0.1680 C   0  0  0  0  0  0  0  0  0  0  0  0
    0.1777    0.9963    0.1508 C   0  0  0  0  0  0  0  0  0  0  0  0
    0.1690   -0.5206    0.1156 C   0  0  0  0  0  0  0  0  0  0  0  0
    1.1348   -1.1901   -0.1822 O   0  0  0  0  0  0  0  0  0  0  0  0
   -1.0297   -1.0963    0.5422 N   0  0  0  0  0  0  0  0  0  0  0  0
   -2.2987   -0.9988   -0.1580 C   0  0  0  0  0  0  0  0  0  0  0  0
   -1.5626   -2.3017   -0.0444 C   0  0  0  0  0  0  0  0  0  0  0  0
    2.2762    3.3750   -0.3282 H   0  0  0  0  0  0  0  0  0  0  0  0
    1.8787    1.2232   -1.1536 H   0  0  0  0  0  0  0  0  0  0  0  0
    2.2809    1.2183    0.5667 H   0  0  0  0  0  0  0  0  0  0  0  0
   -0.1601    1.3353    1.1364 H   0  0  0  0  0  0  0  0  0  0  0  0
   -0.5598    1.3821   -0.5645 H   0  0  0  0  0  0  0  0  0  0  0  0
   -3.1721   -0.8045    0.4584 H   0  0  0  0  0  0  0  0  0  0  0  0
   -2.3068   -0.5125   -1.1309 H   0  0  0  0  0  0  0  0  0  0  0  0
   -1.0582   -2.6825   -0.9283 H   0  0  0  0  0  0  0  0  0  0  0  0
   -1.9095   -3.0574    0.6542 H   0  0  0  0  0  0  0  0  0  0  0  0
  2  1  1  0  0  0  0
  2  3  1  0  0  0  0
  2 11  1  0  0  0  0
  3 12  1  0  0  0  0
  4  3  1  0  0  0  0
  4  6  1  0  0  0  0
  5  4  2  0  0  0  0
  7  8  1  0  0  0  0
  7 14  1  0  0  0  0
  7  6  1  0  0  0  0
  8  6  1  0  0  0  0
  8 17  1  0  0  0  0
  9  1  1  0  0  0  0
 10  2  1  0  0  0  0
 13  3  1  0  0  0  0
 15  7  1  0  0  0  0
 16  8  1  0  0  0  0
M  END
