18
title
C -1.1691314 2.997757 -0.41396517
O -1.1559951 1.5911659 -0.344904
C 0.051433586 1.0250937 -0.80427295
C -0.043170072 -0.49756476 -0.65366423
O 1.0877513 -1.1170428 -1.2307997
C -0.18766573 -0.8920664 0.8075508
C 0.19855383 -2.2233682 1.2783157
O 1.0685073 -1.0952177 1.4782201
H -1.0392718 3.3548687 -1.4474014
H -2.1397276 3.3354201 -0.042618275
H -0.37528524 3.443647 0.20545483
H 0.23077956 1.2693437 -1.8626618
H 0.9108825 1.4028859 -0.22356498
H -0.9263186 -0.8406114 -1.2061894
H 1.7702247 -1.095442 -0.5439771
H -0.9161098 -0.3154857 1.3733557
H -0.24667057 -2.624976 2.186266
H 0.5580733 -2.9552777 0.5590712
