title
 OpenBabel02282110013D

 20 20  0  0  1  0  0  0  0  0999 V2000
   -0.6549    3.2204    1.4868 C   0  0  0  0  0  0  0  0  0  0  0  0
   -0.5830    1.6924    1.5389 C   0  0  0  0  0  0  0  0  0  0  0  0
    0.1962    1.0885    0.3672 C   0  0  0  0  0  0  0  0  0  0  0  0
    0.2242   -0.4476    0.3883 C   0  0  1  0  0  0  0  0  0  0  0  0
   -1.0805   -1.0027    0.3680 O   0  0  0  0  0  0  0  0  0  0  0  0
    1.0395   -0.9953   -0.7748 C   0  0  1  0  0  0  0  0  0  0  0  0
    0.8125   -2.3404   -1.3090 C   0  0  0  0  0  0  0  0  0  0  0  0
    0.2866   -1.1833   -1.9823 O   0  0  0  0  0  0  0  0  0  0  0  0
    0.3450    3.6688    1.5078 H   0  0  0  0  0  0  0  0  0  0  0  0
   -1.1491    3.5628    0.5706 H   0  0  0  0  0  0  0  0  0  0  0  0
   -1.2164    3.6216    2.3363 H   0  0  0  0  0  0  0  0  0  0  0  0
   -0.1151    1.3779    2.4817 H   0  0  0  0  0  0  0  0  0  0  0  0
   -1.5916    1.2665    1.5432 H   0  0  0  0  0  0  0  0  0  0  0  0
   -0.2445    1.4157   -0.5851 H   0  0  0  0  0  0  0  0  0  0  0  0
    1.2301    1.4613    0.3732 H   0  0  0  0  0  0  0  0  0  0  0  0
    0.6832   -0.7852    1.3277 H   0  0  0  0  0  0  0  0  0  0  0  0
   -1.3639   -0.9578   -0.5564 H   0  0  0  0  0  0  0  0  0  0  0  0
    2.0169   -0.5359   -0.9254 H   0  0  0  0  0  0  0  0  0  0  0  0
    1.6133   -2.8535   -1.8377 H   0  0  0  0  0  0  0  0  0  0  0  0
    0.0651   -2.9740   -0.8387 H   0  0  0  0  0  0  0  0  0  0  0  0
  1  9  1  0  0  0  0
  1  2  1  0  0  0  0
  1 11  1  0  0  0  0
  2 13  1  0  0  0  0
  2 12  1  0  0  0  0
  3 15  1  0  0  0  0
  3  4  1  0  0  0  0
  3  2  1  0  0  0  0
  4 16  1  1  0  0  0
  5  4  1  0  0  0  0
  6 18  1  6  0  0  0
  6  4  1  0  0  0  0
  7 20  1  0  0  0  0
  7  6  1  0  0  0  0
  8  7  1  0  0  0  0
  8  6  1  0  0  0  0
 10  1  1  0  0  0  0
 14  3  1  0  0  0  0
 17  5  1  0  0  0  0
 19  7  1  0  0  0  0
M  END
