19
title
C -0.73147035 3.050813 -1.1266992
O -0.8829649 1.6516325 -1.0371015
C -0.3840231 1.1047189 0.1696516
C -0.49292573 -0.4148586 0.0401276
O 0.16126744 -0.8381482 -1.1446526
C 0.13917546 -1.1157074 1.2256498
C 0.66797537 -2.491813 1.094284
N 1.5912635 -1.3475595 1.2448146
H 0.32568267 3.3494225 -1.0593106
H -1.1287848 3.36148 -2.0958147
H -1.287942 3.5683298 -0.33103237
H 0.66866595 1.3945378 0.31724104
H -0.96348214 1.4647428 1.0344491
H -1.5638155 -0.67585164 -0.0035796496
H -0.060445566 -0.1779062 -1.8131373
H -0.27459994 -0.8073681 2.1844926
H 0.631648 -3.1677516 1.943831
H 0.5982196 -2.962972 0.119250864
H 1.9453728 -1.1194439 0.3168678
