title
 OpenBabel02282110013D

 19 19  0  0  1  0  0  0  0  0999 V2000
   -0.7315    3.0508   -1.1267 C   0  0  0  0  0  0  0  0  0  0  0  0
   -0.8830    1.6516   -1.0371 O   0  0  0  0  0  0  0  0  0  0  0  0
   -0.3840    1.1047    0.1697 C   0  0  0  0  0  0  0  0  0  0  0  0
   -0.4929   -0.4149    0.0401 C   0  0  1  0  0  0  0  0  0  0  0  0
    0.1613   -0.8381   -1.1447 O   0  0  0  0  0  0  0  0  0  0  0  0
    0.1392   -1.1157    1.2256 C   0  0  1  0  0  0  0  0  0  0  0  0
    0.6680   -2.4918    1.0943 C   0  0  0  0  0  0  0  0  0  0  0  0
    1.5913   -1.3476    1.2448 N   0  0  0  0  0  0  0  0  0  0  0  0
    0.3257    3.3494   -1.0593 H   0  0  0  0  0  0  0  0  0  0  0  0
   -1.1288    3.3615   -2.0958 H   0  0  0  0  0  0  0  0  0  0  0  0
   -1.2879    3.5683   -0.3310 H   0  0  0  0  0  0  0  0  0  0  0  0
    0.6687    1.3945    0.3172 H   0  0  0  0  0  0  0  0  0  0  0  0
   -0.9635    1.4647    1.0344 H   0  0  0  0  0  0  0  0  0  0  0  0
   -1.5638   -0.6759   -0.0036 H   0  0  0  0  0  0  0  0  0  0  0  0
   -0.0604   -0.1779   -1.8131 H   0  0  0  0  0  0  0  0  0  0  0  0
   -0.2746   -0.8074    2.1845 H   0  0  0  0  0  0  0  0  0  0  0  0
    0.6316   -3.1678    1.9438 H   0  0  0  0  0  0  0  0  0  0  0  0
    0.5982   -2.9630    0.1193 H   0  0  0  0  0  0  0  0  0  0  0  0
    1.9454   -1.1194    0.3169 H   0  0  0  0  0  0  0  0  0  0  0  0
  1  9  1  0  0  0  0
  1  2  1  0  0  0  0
  1 11  1  0  0  0  0
  2  3  1  0  0  0  0
  3 12  1  0  0  0  0
  3 13  1  0  0  0  0
  4 14  1  6  0  0  0
  4  3  1  0  0  0  0
  4  6  1  0  0  0  0
  5  4  1  0  0  0  0
  6  8  1  0  0  0  0
  6 16  1  1  0  0  0
  7  6  1  0  0  0  0
  7  8  1  0  0  0  0
  7 17  1  0  0  0  0
 10  1  1  0  0  0  0
 15  5  1  0  0  0  0
 18  7  1  0  0  0  0
 19  8  1  0  0  0  0
M  END
