20
title
C 0.1270574 2.8572643 1.2280418
O 0.16763583 1.474299 0.9746832
C -0.81922066 1.0543056 0.061503477
C -0.7166427 -0.46079916 -0.1386265
O -1.8406188 -0.9021999 -0.89916533
C 0.5955352 -0.88544434 -0.75341314
C 1.7762384 -1.2297884 0.116406746
C 1.0503798 -2.3186576 -0.6292165
H 0.30505964 3.4460914 0.31379706
H -0.84233403 3.1676636 1.649628
H 0.9149502 3.082526 1.9510844
H -1.8294951 1.2946297 0.4294107
H -0.6958327 1.5661963 -0.91151446
H -0.8238479 -0.939702 0.8422353
H -1.6512848 -0.731049 -1.8276714
H 0.8237235 -0.3814196 -1.6923648
H 2.7623637 -0.9363434 -0.2253863
H 1.6424644 -1.1620315 1.189939
H 0.41695794 -2.9937928 -0.06371265
H 1.5405066 -2.7786076 -1.4801408
