21
title
C 0.94323605 3.1184428 0.52007407
O 1.016402 1.7200519 0.6495382
C -0.049392313 1.0517714 0.010712349
C 0.10947894 -0.45156884 0.24210045
C -0.0075767203 -0.80977345 1.7224131
N -0.9340304 -1.1359742 -0.5223324
C -0.629552 -1.445303 -1.9161586
C -0.66559696 -2.521224 -0.888382
H 0.976793 3.4341207 -0.5351164
H 0.021344414 3.5233042 0.9672256
H 1.8046277 3.5426424 1.042097
H -1.0215274 1.3862882 0.40971726
H -0.047547586 1.2679604 -1.0709022
H 1.1170834 -0.7350254 -0.11583135
H 0.17298874 -1.8769405 1.8829603
H 0.72073925 -0.23995638 2.3033772
H -1.0125563 -0.5761864 2.0887105
H -1.447569 -1.322736 -2.6202617
H 0.34958774 -1.1623266 -2.3005898
H 0.28999165 -2.9516106 -0.59168977
H -1.509591 -3.2022576 -0.82612747
