22
title
C -0.5790724 3.0348222 1.224808
O -0.721923 1.6380297 1.160383
C -0.028478347 1.0619271 0.07316231
C -0.26772118 -0.44912368 0.066974156
C -1.7588924 -0.77847224 -0.08309627
C 0.56371766 -1.1058052 -1.0197986
C 2.0230758 -1.417733 -0.79883647
C 1.0141807 -2.5374138 -0.881889
H 0.47493067 3.3344672 1.3425345
H -0.9738503 3.5296311 0.3226639
H -1.1431308 3.3844397 2.0933287
H -0.37620983 1.5036417 -0.8787719
H 1.0510211 1.2737312 0.15218602
H 0.076349474 -0.8292013 1.0390261
H -1.9281546 -1.8576779 -0.021271596
H -2.3438284 -0.28487927 0.6961443
H -2.1354735 -0.43697578 -1.055159
H 0.2962239 -0.7947841 -2.0281126
H 2.7147138 -1.2834737 -1.6232325
H 2.4467838 -1.1927853 0.17493807
H 0.76395243 -3.0595853 0.036205877
H 1.0148599 -3.168637 -1.7636245
