20
title
C -0.796812 3.098724 -1.0113193
O -0.93648905 1.6992399 -1.043681
C -0.2958445 1.0567626 0.03689488
C -0.4506445 -0.46003675 -0.12553672
C 0.24436277 -0.95338845 -1.3994251
C 0.03479164 -1.1345189 1.1447155
C 0.7067005 -2.4384255 1.1969402
O 1.4508119 -1.2272246 1.3463192
H 0.26020223 3.4055445 -1.0553993
H -1.3182529 3.5008037 -1.8834941
H -1.2402778 3.533474 -0.101133265
H 0.774568 1.3218561 0.068386994
H -0.7404439 1.3856982 0.9925007
H -1.5284498 -0.65978384 -0.20334421
H -0.035093315 -0.31476545 -2.2394474
H 1.3317034 -0.91632557 -1.279785
H -0.041481502 -1.9805431 -1.6433628
H -0.504486 -0.8276291 2.044298
H 0.6217211 -3.0477815 2.0959845
H 0.8992925 -2.9918513 0.28078172
