title
 OpenBabel02282110013D

 20 20  0  0  1  0  0  0  0  0999 V2000
   -0.5067    2.9234   -1.5751 C   0  0  0  0  0  0  0  0  0  0  0  0
   -0.3984    1.4089   -1.6412 C   0  0  0  0  0  0  0  0  0  0  0  0
    0.0896    0.9458   -0.3965 O   0  0  0  0  0  0  0  0  0  0  0  0
    0.1244   -0.4648   -0.2451 C   0  0  1  0  0  0  0  0  0  0  0  0
    1.2630   -1.1235   -1.0290 C   0  0  0  0  0  0  0  0  0  0  0  0
    0.2786   -0.7111    1.2410 C   0  0  1  0  0  0  0  0  0  0  0  0
   -0.8679   -1.0029    2.1040 C   0  0  0  0  0  0  0  0  0  0  0  0
    0.0179   -2.0444    1.6779 O   0  0  0  0  0  0  0  0  0  0  0  0
    0.4724    3.3686   -1.3767 H   0  0  0  0  0  0  0  0  0  0  0  0
   -0.8829    3.3207   -2.5226 H   0  0  0  0  0  0  0  0  0  0  0  0
   -1.1879    3.2252   -0.7745 H   0  0  0  0  0  0  0  0  0  0  0  0
   -1.3839    0.9591   -1.8500 H   0  0  0  0  0  0  0  0  0  0  0  0
    0.2714    1.1135   -2.4635 H   0  0  0  0  0  0  0  0  0  0  0  0
   -0.8360   -0.9014   -0.5668 H   0  0  0  0  0  0  0  0  0  0  0  0
    1.1312   -1.0100   -2.1084 H   0  0  0  0  0  0  0  0  0  0  0  0
    2.2229   -0.6773   -0.7492 H   0  0  0  0  0  0  0  0  0  0  0  0
    1.2932   -2.1929   -0.8015 H   0  0  0  0  0  0  0  0  0  0  0  0
    1.1608   -0.2478    1.6860 H   0  0  0  0  0  0  0  0  0  0  0  0
   -0.8254   -0.7594    3.1644 H   0  0  0  0  0  0  0  0  0  0  0  0
   -1.8677   -1.0359    1.6732 H   0  0  0  0  0  0  0  0  0  0  0  0
  1  9  1  0  0  0  0
  1 11  1  0  0  0  0
  2  1  1  0  0  0  0
  2  3  1  0  0  0  0
  3  4  1  0  0  0  0
  4 14  1  6  0  0  0
  4  6  1  0  0  0  0
  5 17  1  0  0  0  0
  5 16  1  0  0  0  0
  5  4  1  0  0  0  0
  6  8  1  0  0  0  0
  6 18  1  1  0  0  0
  6  7  1  0  0  0  0
  7 19  1  0  0  0  0
  8  7  1  0  0  0  0
 10  1  1  0  0  0  0
 12  2  1  0  0  0  0
 13  2  1  0  0  0  0
 15  5  1  0  0  0  0
 20  7  1  0  0  0  0
M  END
