21
title
C 1.6208687 2.5924473 -0.09109017
C 1.5230958 1.2310169 0.5768984
O 0.34615055 0.59237516 0.11680773
C 0.17294948 -0.75318325 0.53893065
C -0.31034812 -0.84946907 1.9891887
C -0.81231505 -1.4088107 -0.41514334
C -1.9391917 -0.64137304 -0.99528223
N -0.8038388 -1.0673784 -1.8408886
H 2.5184624 3.1181648 0.2479275
H 1.6705312 2.4865286 -1.1786484
H 0.74784964 3.2038386 0.15425274
H 2.404105 0.6148567 0.332908
H 1.5019221 1.3470404 1.6711543
H 1.1397642 -1.2789079 0.44733745
H 0.4232501 -0.43653297 2.687374
H -1.2517446 -0.30558765 2.1093705
H -0.4771305 -1.8957423 2.2650318
H -0.95418125 -2.4693463 -0.21513864
H -2.8825443 -1.1362435 -1.2080405
H -2.0134923 0.41077226 -0.7393245
H -0.1900924 -0.26206458 -1.9543055
