title
 OpenBabel02282110013D

 21 21  0  0  1  0  0  0  0  0999 V2000
    1.6209    2.5924   -0.0911 C   0  0  0  0  0  0  0  0  0  0  0  0
    1.5231    1.2310    0.5769 C   0  0  0  0  0  0  0  0  0  0  0  0
    0.3462    0.5924    0.1168 O   0  0  0  0  0  0  0  0  0  0  0  0
    0.1729   -0.7532    0.5389 C   0  0  1  0  0  0  0  0  0  0  0  0
   -0.3103   -0.8495    1.9892 C   0  0  0  0  0  0  0  0  0  0  0  0
   -0.8123   -1.4088   -0.4151 C   0  0  1  0  0  0  0  0  0  0  0  0
   -1.9392   -0.6414   -0.9953 C   0  0  0  0  0  0  0  0  0  0  0  0
   -0.8038   -1.0674   -1.8409 N   0  0  0  0  0  0  0  0  0  0  0  0
    2.5185    3.1182    0.2479 H   0  0  0  0  0  0  0  0  0  0  0  0
    1.6705    2.4865   -1.1786 H   0  0  0  0  0  0  0  0  0  0  0  0
    0.7478    3.2038    0.1543 H   0  0  0  0  0  0  0  0  0  0  0  0
    2.4041    0.6149    0.3329 H   0  0  0  0  0  0  0  0  0  0  0  0
    1.5019    1.3470    1.6712 H   0  0  0  0  0  0  0  0  0  0  0  0
    1.1398   -1.2789    0.4473 H   0  0  0  0  0  0  0  0  0  0  0  0
    0.4233   -0.4365    2.6874 H   0  0  0  0  0  0  0  0  0  0  0  0
   -1.2517   -0.3056    2.1094 H   0  0  0  0  0  0  0  0  0  0  0  0
   -0.4771   -1.8957    2.2650 H   0  0  0  0  0  0  0  0  0  0  0  0
   -0.9542   -2.4693   -0.2151 H   0  0  0  0  0  0  0  0  0  0  0  0
   -2.8825   -1.1362   -1.2080 H   0  0  0  0  0  0  0  0  0  0  0  0
   -2.0135    0.4108   -0.7393 H   0  0  0  0  0  0  0  0  0  0  0  0
   -0.1901   -0.2621   -1.9543 H   0  0  0  0  0  0  0  0  0  0  0  0
  1 11  1  0  0  0  0
  1  9  1  0  0  0  0
  1  2  1  0  0  0  0
  2 13  1  0  0  0  0
  3  4  1  0  0  0  0
  3  2  1  0  0  0  0
  4 14  1  6  0  0  0
  4  5  1  0  0  0  0
  5 16  1  0  0  0  0
  5 17  1  0  0  0  0
  5 15  1  0  0  0  0
  6 18  1  1  0  0  0
  6  4  1  0  0  0  0
  7 20  1  0  0  0  0
  7  6  1  0  0  0  0
  8  7  1  0  0  0  0
  8  6  1  0  0  0  0
 10  1  1  0  0  0  0
 12  2  1  0  0  0  0
 19  7  1  0  0  0  0
 21  8  1  0  0  0  0
M  END
