title
 OpenBabel02282110013D

 15 15  0  0  1  0  0  0  0  0999 V2000
   -1.4324    1.4427   -0.8492 C   0  0  0  0  0  0  0  0  0  0  0  0
   -1.0364   -0.0130   -0.8157 C   0  0  1  0  0  0  0  0  0  0  0  0
    0.1910   -0.2730   -1.5805 O   0  0  0  0  0  0  0  0  0  0  0  0
    0.8607   -0.7300   -0.4708 C   0  0  0  0  0  0  0  0  0  0  0  0
    2.0350   -1.1335   -0.3216 N   0  0  0  0  0  0  0  0  0  0  0  0
   -0.3392   -0.5803    0.4658 C   0  0  1  0  0  0  0  0  0  0  0  0
   -0.1980    0.2708    1.6266 C   0  0  0  0  0  0  0  0  0  0  0  0
   -0.0946    0.9838    2.5881 C   0  0  0  0  0  0  0  0  0  0  0  0
   -0.6325    2.0757   -0.4579 H   0  0  0  0  0  0  0  0  0  0  0  0
   -1.6556    1.7461   -1.8761 H   0  0  0  0  0  0  0  0  0  0  0  0
   -2.3266    1.6018   -0.2388 H   0  0  0  0  0  0  0  0  0  0  0  0
   -1.8348   -0.6601   -1.1899 H   0  0  0  0  0  0  0  0  0  0  0  0
    2.5563   -1.0995   -1.1992 H   0  0  0  0  0  0  0  0  0  0  0  0
   -0.7365   -1.5588    0.7529 H   0  0  0  0  0  0  0  0  0  0  0  0
    0.0123    1.6082    3.4406 H   0  0  0  0  0  0  0  0  0  0  0  0
  1  2  1  0  0  0  0
  1  9  1  0  0  0  0
  1 11  1  0  0  0  0
  2  6  1  1  0  0  0
  3  2  1  0  0  0  0
  3  4  1  0  0  0  0
  4  5  2  0  0  0  0
  4  6  1  0  0  0  0
  6 14  1  1  0  0  0
  6  7  1  0  0  0  0
  7  8  3  0  0  0  0
  8 15  1  0  0  0  0
 10  1  1  0  0  0  0
 12  2  1  0  0  0  0
 13  5  1  0  0  0  0
M  END
