14
title
C -1.4033673 1.4751797 -0.8547997
C -1.0510348 0.008714263 -0.8041084
O 0.16967943 -0.29307863 -1.5716081
C 0.8406249 -0.7407251 -0.4710742
O 1.9585025 -1.1274688 -0.3947886
C -0.37045667 -0.5576408 0.4796393
C -0.20096645 0.28877845 1.6371536
C -0.05771205 0.9987699 2.5958917
H -0.582132 2.0894547 -0.47764704
H -1.6244345 1.7723266 -1.8836763
H -2.2877893 1.6683687 -0.2401002
H -1.8636955 -0.6213478 -1.1740106
H -0.7721594 -1.5353329 0.76522243
H 0.07746783 1.6207917 3.4462638
