title
 OpenBabel02282110013D

 15 15  0  0  1  0  0  0  0  0999 V2000
   -1.2422    1.7027   -0.8114 C   0  0  0  0  0  0  0  0  0  0  0  0
   -1.1519    0.1918   -0.6900 C   0  0  1  0  0  0  0  0  0  0  0  0
   -0.1180   -0.4496   -1.5136 N   0  0  0  0  0  0  0  0  0  0  0  0
    0.6080   -0.9959   -0.4911 C   0  0  0  0  0  0  0  0  0  0  0  0
    1.5986   -1.6676   -0.4468 O   0  0  0  0  0  0  0  0  0  0  0  0
   -0.4022   -0.4099    0.5623 C   0  0  1  0  0  0  0  0  0  0  0  0
    0.1246    0.4933    1.5567 C   0  0  0  0  0  0  0  0  0  0  0  0
    0.5719    1.2479    2.3789 C   0  0  0  0  0  0  0  0  0  0  0  0
   -0.2699    2.1686   -0.6336 H   0  0  0  0  0  0  0  0  0  0  0  0
   -1.5894    1.9856   -1.8107 H   0  0  0  0  0  0  0  0  0  0  0  0
   -1.9533    2.1011   -0.0816 H   0  0  0  0  0  0  0  0  0  0  0  0
   -2.1383   -0.2659   -0.8286 H   0  0  0  0  0  0  0  0  0  0  0  0
   -0.0093   -0.5291   -2.5142 H   0  0  0  0  0  0  0  0  0  0  0  0
   -0.9714   -1.2192    1.0300 H   0  0  0  0  0  0  0  0  0  0  0  0
    0.9736    1.9056    3.1095 H   0  0  0  0  0  0  0  0  0  0  0  0
  1  2  1  0  0  0  0
  1  9  1  0  0  0  0
  1 11  1  0  0  0  0
  2  6  1  1  0  0  0
  3  2  1  0  0  0  0
  3  4  1  0  0  0  0
  4  5  2  0  0  0  0
  4  6  1  0  0  0  0
  6 14  1  1  0  0  0
  6  7  1  0  0  0  0
  7  8  3  0  0  0  0
  8 15  1  0  0  0  0
 10  1  1  0  0  0  0
 12  2  1  0  0  0  0
 13  3  1  0  0  0  0
M  END
