15
title
C -1.2421733 1.7026645 -0.81140774
C -1.1518869 0.19182429 -0.6900006
N -0.11799673 -0.4496126 -1.5136034
C 0.6079578 -0.995896 -0.4910825
O 1.5986279 -1.66764 -0.44678724
C -0.40219858 -0.40990767 0.5622687
C 0.124581896 0.4932693 1.5567154
C 0.5719221 1.2478765 2.3788946
H -0.26987723 2.1685731 -0.6336
H -1.5893873 1.9856348 -1.8106911
H -1.9533379 2.1010618 -0.08157751
H -2.1383114 -0.26591843 -0.8286018
H -0.009340564 -0.52914876 -2.5142338
H -0.971383 -1.2191564 1.0300211
H 0.97360855 1.9055765 3.1094952
