title
 OpenBabel02282110013D

 19 19  0  0  1  0  0  0  0  0999 V2000
    1.5451    2.8650   -1.0176 O   0  0  0  0  0  0  0  0  0  0  0  0
    1.5914    1.5996   -0.3739 C   0  0  0  0  0  0  0  0  0  0  0  0
    0.1897    1.0053   -0.4211 C   0  0  0  0  0  0  0  0  0  0  0  0
    0.0939   -0.3618    0.2633 C   0  0  1  0  0  0  0  0  0  0  0  0
    0.5189   -0.3054    1.6274 O   0  0  0  0  0  0  0  0  0  0  0  0
   -1.2956   -0.9514    0.1425 C   0  0  1  0  0  0  0  0  0  0  0  0
   -1.5839   -1.9927   -0.8759 C   0  0  0  0  0  0  0  0  0  0  0  0
   -1.5378   -2.3395    0.5531 N   0  0  0  0  0  0  0  0  0  0  0  0
    2.4134    3.2708   -0.9412 H   0  0  0  0  0  0  0  0  0  0  0  0
    2.2979    0.9204   -0.8799 H   0  0  0  0  0  0  0  0  0  0  0  0
    1.9158    1.6865    0.6721 H   0  0  0  0  0  0  0  0  0  0  0  0
   -0.5067    1.7063    0.0587 H   0  0  0  0  0  0  0  0  0  0  0  0
   -0.1288    0.9136   -1.4661 H   0  0  0  0  0  0  0  0  0  0  0  0
    0.8068   -1.0537   -0.2063 H   0  0  0  0  0  0  0  0  0  0  0  0
   -0.1363    0.2037    2.1186 H   0  0  0  0  0  0  0  0  0  0  0  0
   -2.0998   -0.2700    0.4237 H   0  0  0  0  0  0  0  0  0  0  0  0
   -2.5674   -2.0534   -1.3328 H   0  0  0  0  0  0  0  0  0  0  0  0
   -0.7670   -2.3090   -1.5206 H   0  0  0  0  0  0  0  0  0  0  0  0
   -0.6499   -2.7806    0.7837 H   0  0  0  0  0  0  0  0  0  0  0  0
  1  9  1  0  0  0  0
  1  2  1  0  0  0  0
  2 11  1  0  0  0  0
  3  2  1  0  0  0  0
  3 12  1  0  0  0  0
  3  4  1  0  0  0  0
  4 14  1  6  0  0  0
  4  5  1  0  0  0  0
  5 15  1  0  0  0  0
  6  4  1  0  0  0  0
  6 16  1  1  0  0  0
  6  8  1  0  0  0  0
  7  6  1  0  0  0  0
  7  8  1  0  0  0  0
  8 19  1  0  0  0  0
 10  2  1  0  0  0  0
 13  3  1  0  0  0  0
 17  7  1  0  0  0  0
 18  7  1  0  0  0  0
M  END
