15
title
C -1.2803211 2.094932 -0.46704385
C -1.2087462 0.5769451 -0.5173327
C -0.5200014 -0.057826754 -1.760535
C 0.523991 -0.6343615 -0.78867006
O 1.496759 -1.318002 -0.8665903
N -0.13470256 -0.032889184 0.31073526
C 0.05145478 -0.05137783 1.6803297
O 0.9554137 -0.600575 2.2530084
H -0.30545646 2.5383964 -0.69255036
H -2.005775 2.460263 -1.2007271
H -1.5972896 2.4478686 0.51924574
H -2.1840808 0.13189533 -0.2961392
H -1.0967444 -0.81616294 -2.2926652
H -0.10972297 0.657588 -2.476477
H -0.7518107 0.5117469 2.198875
