title
 OpenBabel02282110013D

 13 13  0  0  1  0  0  0  0  0999 V2000
    1.2638    1.3052   -0.6886 O   0  0  0  0  0  0  0  0  0  0  0  0
    1.2882   -0.0811   -0.4768 C   0  0  1  0  0  0  0  0  0  0  0  0
    1.4549   -0.4795    1.0241 C   0  0  0  0  0  0  0  0  0  0  0  0
   -0.0715   -0.6109    1.1109 C   0  0  0  0  0  0  0  0  0  0  0  0
   -0.8698   -0.6438    1.9900 O   0  0  0  0  0  0  0  0  0  0  0  0
   -0.1877   -0.6054   -0.4508 C   0  0  1  0  0  0  0  0  0  0  0  0
   -1.2320    0.1581   -1.0980 C   0  0  0  0  0  0  0  0  0  0  0  0
   -2.0802    0.7603   -1.6010 N   0  0  0  0  0  0  0  0  0  0  0  0
    2.1578    1.6497   -0.5935 H   0  0  0  0  0  0  0  0  0  0  0  0
    1.9417   -0.6011   -1.1851 H   0  0  0  0  0  0  0  0  0  0  0  0
    1.9499   -1.4445    1.1757 H   0  0  0  0  0  0  0  0  0  0  0  0
    1.9094    0.2682    1.6773 H   0  0  0  0  0  0  0  0  0  0  0  0
   -0.2234   -1.6482   -0.7872 H   0  0  0  0  0  0  0  0  0  0  0  0
  1  9  1  0  0  0  0
  1  2  1  0  0  0  0
  2  6  1  6  0  0  0
  2  3  1  0  0  0  0
  3  4  1  0  0  0  0
  3 11  1  0  0  0  0
  3 12  1  0  0  0  0
  4  5  2  0  0  0  0
  6 13  1  6  0  0  0
  6  4  1  0  0  0  0
  7  6  1  0  0  0  0
  8  7  3  0  0  0  0
 10  2  1  0  0  0  0
M  END
