title
 OpenBabel02282110013D

 15 15  0  0  1  0  0  0  0  0999 V2000
   -1.4554    1.3932   -0.7168 C   0  0  0  0  0  0  0  0  0  0  0  0
   -0.9729   -0.0370   -0.7853 C   0  0  1  0  0  0  0  0  0  0  0  0
    0.2397   -0.1633   -1.6223 O   0  0  0  0  0  0  0  0  0  0  0  0
    0.9732   -0.6808   -0.5844 C   0  0  0  0  0  0  0  0  0  0  0  0
    2.1762   -1.0212   -0.4985 N   0  0  0  0  0  0  0  0  0  0  0  0
   -0.1856   -0.6633    0.3955 C   0  0  1  0  0  0  0  0  0  0  0  0
    0.0321    0.0723    1.6995 C   0  0  0  0  0  0  0  0  0  0  0  0
   -0.7262    0.8821    2.1659 O   0  0  0  0  0  0  0  0  0  0  0  0
   -0.6688    2.0632   -0.3629 H   0  0  0  0  0  0  0  0  0  0  0  0
   -1.7716    1.7189   -1.7122 H   0  0  0  0  0  0  0  0  0  0  0  0
   -2.3016    1.4729   -0.0304 H   0  0  0  0  0  0  0  0  0  0  0  0
   -1.7461   -0.6992   -1.1847 H   0  0  0  0  0  0  0  0  0  0  0  0
    2.6733   -0.8783   -1.3791 H   0  0  0  0  0  0  0  0  0  0  0  0
   -0.5067   -1.6805    0.6505 H   0  0  0  0  0  0  0  0  0  0  0  0
    0.9703   -0.2204    2.2172 H   0  0  0  0  0  0  0  0  0  0  0  0
  1  9  1  0  0  0  0
  1 11  1  0  0  0  0
  2  1  1  0  0  0  0
  2  6  1  1  0  0  0
  3  2  1  0  0  0  0
  3  4  1  0  0  0  0
  4  5  2  0  0  0  0
  4  6  1  0  0  0  0
  6 14  1  1  0  0  0
  6  7  1  0  0  0  0
  7  8  2  0  0  0  0
  7 15  1  0  0  0  0
 10  1  1  0  0  0  0
 12  2  1  0  0  0  0
 13  5  1  0  0  0  0
M  END
