16
title
C -1.2885326 2.0883117 -0.41307127
C -1.2081301 0.57100296 -0.48511916
C -0.5353776 -0.0434794 -1.7454689
C 0.52014905 -0.6292245 -0.7880527
O 1.4932656 -1.3129628 -0.8908582
N -0.12406781 -0.042978246 0.31668475
C 0.0596306 -0.057795484 1.6872145
N 1.0353618 -0.64346474 2.2491336
H -0.32173613 2.540948 -0.6546635
H -2.0337214 2.4594128 -1.1238452
H -1.5844761 2.4264963 0.58532333
H -2.1809952 0.12072871 -0.25761896
H -1.1180717 -0.7960854 -2.2793632
H -0.13631502 0.68241084 -2.457177
H -0.7400429 0.49392155 2.1999042
H 0.9713654 -0.5328948 3.2598436
