title
 OpenBabel02282110013D

 14 14  0  0  1  0  0  0  0  0999 V2000
    1.3002    1.2999   -0.6586 O   0  0  0  0  0  0  0  0  0  0  0  0
    1.2726   -0.0967   -0.5043 C   0  0  1  0  0  0  0  0  0  0  0  0
    1.4525   -0.5576    0.9757 C   0  0  0  0  0  0  0  0  0  0  0  0
   -0.0795   -0.6305    1.0808 C   0  0  0  0  0  0  0  0  0  0  0  0
   -0.8588   -0.6446    1.9804 O   0  0  0  0  0  0  0  0  0  0  0  0
   -0.2212   -0.5780   -0.4727 C   0  0  1  0  0  0  0  0  0  0  0  0
   -1.2638    0.1998   -1.0925 C   0  0  0  0  0  0  0  0  0  0  0  0
   -2.1500    0.8414   -1.5889 C   0  0  0  0  0  0  0  0  0  0  0  0
    2.2062    1.5995   -0.5318 H   0  0  0  0  0  0  0  0  0  0  0  0
    1.9000   -0.6064   -1.2441 H   0  0  0  0  0  0  0  0  0  0  0  0
    1.9114   -1.5464    1.0799 H   0  0  0  0  0  0  0  0  0  0  0  0
    1.9480    0.1452    1.6491 H   0  0  0  0  0  0  0  0  0  0  0  0
   -0.2551   -1.6210   -0.8170 H   0  0  0  0  0  0  0  0  0  0  0  0
   -2.9272    1.4178   -2.0261 H   0  0  0  0  0  0  0  0  0  0  0  0
  1  9  1  0  0  0  0
  1  2  1  0  0  0  0
  2  6  1  6  0  0  0
  2  3  1  0  0  0  0
  3 11  1  0  0  0  0
  3  4  1  0  0  0  0
  3 12  1  0  0  0  0
  4  5  2  0  0  0  0
  6 13  1  6  0  0  0
  6  4  1  0  0  0  0
  7  6  1  0  0  0  0
  8  7  3  0  0  0  0
 10  2  1  0  0  0  0
 14  8  1  0  0  0  0
M  END
