title
 OpenBabel02282110013D

 14 14  0  0  1  0  0  0  0  0999 V2000
   -0.4781    2.3030   -0.6893 C   0  0  0  0  0  0  0  0  0  0  0  0
   -0.4133    0.8553   -0.6867 N   0  0  0  0  0  0  0  0  0  0  0  0
   -1.6509    0.0860   -0.4320 C   0  0  0  0  0  0  0  0  0  0  0  0
   -0.8309   -0.8469    0.4611 C   0  0  0  0  0  0  0  0  0  0  0  0
   -0.9807   -1.9033    0.9791 O   0  0  0  0  0  0  0  0  0  0  0  0
    0.3333    0.1987    0.4058 C   0  0  1  0  0  0  0  0  0  0  0  0
    1.6828   -0.2488    0.0923 C   0  0  0  0  0  0  0  0  0  0  0  0
    2.7503   -0.6165   -0.1541 N   0  0  0  0  0  0  0  0  0  0  0  0
    0.5249    2.7149   -0.8320 H   0  0  0  0  0  0  0  0  0  0  0  0
   -1.1002    2.6379   -1.5242 H   0  0  0  0  0  0  0  0  0  0  0  0
   -0.8978    2.7190    0.2452 H   0  0  0  0  0  0  0  0  0  0  0  0
   -2.4162    0.6224    0.1542 H   0  0  0  0  0  0  0  0  0  0  0  0
   -2.1214   -0.3527   -1.3175 H   0  0  0  0  0  0  0  0  0  0  0  0
    0.3489    0.7708    1.3507 H   0  0  0  0  0  0  0  0  0  0  0  0
  1  2  1  0  0  0  0
  1 11  1  0  0  0  0
  2  3  1  0  0  0  0
  2  6  1  0  0  0  0
  3 12  1  0  0  0  0
  3  4  1  0  0  0  0
  4  5  2  0  0  0  0
  6  4  1  0  0  0  0
  6 14  1  1  0  0  0
  7  6  1  0  0  0  0
  8  7  3  0  0  0  0
  9  1  1  0  0  0  0
 10  1  1  0  0  0  0
 13  3  1  0  0  0  0
M  END
