title
 OpenBabel02282110013D

 15 15  0  0  1  0  0  0  0  0999 V2000
   -1.3161    1.6477   -0.6561 C   0  0  0  0  0  0  0  0  0  0  0  0
   -1.1142    0.1401   -0.6483 C   0  0  1  0  0  0  0  0  0  0  0  0
   -0.0614   -0.3521   -1.5581 N   0  0  0  0  0  0  0  0  0  0  0  0
    0.7022   -0.9787   -0.6154 C   0  0  0  0  0  0  0  0  0  0  0  0
    1.7226   -1.6085   -0.6496 O   0  0  0  0  0  0  0  0  0  0  0  0
   -0.3116   -0.5501    0.5026 C   0  0  1  0  0  0  0  0  0  0  0  0
    0.2812    0.2077    1.6590 C   0  0  0  0  0  0  0  0  0  0  0  0
    0.0260    1.3423    1.9730 O   0  0  0  0  0  0  0  0  0  0  0  0
   -0.3763    2.1792   -0.5010 H   0  0  0  0  0  0  0  0  0  0  0  0
   -1.7400    1.9552   -1.6188 H   0  0  0  0  0  0  0  0  0  0  0  0
   -2.0080    1.9473    0.1342 H   0  0  0  0  0  0  0  0  0  0  0  0
   -2.0710   -0.3664   -0.8233 H   0  0  0  0  0  0  0  0  0  0  0  0
    0.0335   -0.3146   -2.5627 H   0  0  0  0  0  0  0  0  0  0  0  0
   -0.8021   -1.4442    0.9054 H   0  0  0  0  0  0  0  0  0  0  0  0
    1.0160   -0.3986    2.2336 H   0  0  0  0  0  0  0  0  0  0  0  0
  1  2  1  0  0  0  0
  1  9  1  0  0  0  0
  1 11  1  0  0  0  0
  2  6  1  1  0  0  0
  3  2  1  0  0  0  0
  3  4  1  0  0  0  0
  4  6  1  0  0  0  0
  5  4  2  0  0  0  0
  6 14  1  1  0  0  0
  6  7  1  0  0  0  0
  7  8  2  0  0  0  0
  7 15  1  0  0  0  0
 10  1  1  0  0  0  0
 12  2  1  0  0  0  0
 13  3  1  0  0  0  0
M  END
