16
title
C -1.7576482 1.78144 -0.29785427
C -1.2759781 0.36827874 -0.5827577
C -0.30487064 0.17356381 -1.7925246
C 0.7306205 -0.3183886 -0.7881153
N 1.9085113 -0.7471051 -0.878599
N -0.1725526 -0.11329715 0.28547347
C -0.06477894 -0.37762454 1.6201395
O 0.93623483 -0.81338334 2.1468818
H -0.9192843 2.4848092 -0.29111218
H -2.468297 2.0962753 -1.0686888
H -2.2658224 1.8430009 0.6696742
H -2.1153896 -0.33482894 -0.59119034
H -0.611775 -0.57055014 -2.5289874
H -0.029819267 1.0982836 -2.3043551
H 2.270727 -0.9915793 0.04479778
H -0.9963797 -0.14937727 2.1745725
