13
title
O 1.263842 1.305241 -0.6885595
C 1.2881997 -0.08107737 -0.47679067
C 1.4548573 -0.47953752 1.0241129
C -0.07149092 -0.61085 1.1109467
O -0.8698434 -0.6437941 1.9899997
C -0.18766586 -0.6053592 -0.4508264
C -1.2320386 0.1581018 -1.0979961
N -2.08018 0.7603418 -1.6010412
H 2.1577635 1.6496623 -0.5934753
H 1.9417281 -0.60109216 -1.1851377
H 1.9499463 -1.4445122 1.1757166
H 1.909427 0.26824448 1.6773127
H -0.2233613 -1.6482162 -0.7872353
