16
title
C -0.4245508 2.3170063 -0.6913846
N -0.46234143 0.8770368 -0.553844
C -1.7213284 0.20761205 -0.17094761
C -0.8900005 -0.83178794 0.62457836
O -0.61477023 -2.035996 -0.02309733
C 0.24882242 0.2535123 0.5774573
C 1.6134185 -0.18465291 0.30003667
N 2.687524 -0.5434747 0.06953866
H 0.6000336 2.641338 -0.8976206
H -1.0506133 2.6194534 -1.536372
H -0.7832184 2.8448112 0.2116571
H -2.363165 0.8172014 0.48606098
H -2.3166945 -0.1733744 -1.0066798
H -1.2444391 -1.0859509 1.6230601
H -0.26530808 -1.8412417 -0.90118957
H 0.24498352 0.86629355 1.4945756
