title
 OpenBabel02282110013D

 17 17  0  0  1  0  0  0  0  0999 V2000
   -1.3440    1.9271   -0.6738 C   0  0  0  0  0  0  0  0  0  0  0  0
   -1.2705    0.4164   -0.5314 C   0  0  1  0  0  0  0  0  0  0  0  0
   -0.3441   -0.3963   -1.4764 C   0  0  0  0  0  0  0  0  0  0  0  0
   -0.0210   -1.3442   -0.2949 C   0  0  1  0  0  0  0  0  0  0  0  0
    1.2462   -1.8957   -0.1400 O   0  0  0  0  0  0  0  0  0  0  0  0
   -0.5188   -0.2178    0.6975 C   0  0  1  0  0  0  0  0  0  0  0  0
    0.6005    0.5735    1.1761 C   0  0  0  0  0  0  0  0  0  0  0  0
    1.5346    1.1706    1.5092 N   0  0  0  0  0  0  0  0  0  0  0  0
   -0.3494    2.3803   -0.6208 H   0  0  0  0  0  0  0  0  0  0  0  0
   -1.7883    2.1972   -1.6375 H   0  0  0  0  0  0  0  0  0  0  0  0
   -1.9589    2.3735    0.1148 H   0  0  0  0  0  0  0  0  0  0  0  0
   -2.2780   -0.0111   -0.5443 H   0  0  0  0  0  0  0  0  0  0  0  0
   -0.7752   -0.8329   -2.3793 H   0  0  0  0  0  0  0  0  0  0  0  0
    0.5404    0.1889   -1.7523 H   0  0  0  0  0  0  0  0  0  0  0  0
   -0.7258   -2.1787   -0.2553 H   0  0  0  0  0  0  0  0  0  0  0  0
    1.8908   -1.1797   -0.0783 H   0  0  0  0  0  0  0  0  0  0  0  0
   -1.1288   -0.5400    1.5443 H   0  0  0  0  0  0  0  0  0  0  0  0
  1  9  1  0  0  0  0
  1  2  1  0  0  0  0
  1 11  1  0  0  0  0
  2  6  1  1  0  0  0
  3  2  1  0  0  0  0
  3  4  1  0  0  0  0
  4 15  1  0  0  0  0
  4  5  1  0  0  0  0
  4  6  1  1  0  0  0
  5 16  1  0  0  0  0
  6  7  1  0  0  0  0
  6 17  1  1  0  0  0
  7  8  3  0  0  0  0
 10  1  1  0  0  0  0
 12  2  1  0  0  0  0
 13  3  1  0  0  0  0
 14  3  1  0  0  0  0
M  END
