title
 OpenBabel02282110013D

 19 19  0  0  1  0  0  0  0  0999 V2000
   -1.4097    1.8180   -0.6992 C   0  0  0  0  0  0  0  0  0  0  0  0
   -1.2701    0.3128   -0.5548 C   0  0  1  0  0  0  0  0  0  0  0  0
   -0.3177   -0.4631   -1.5016 C   0  0  0  0  0  0  0  0  0  0  0  0
    0.0859   -1.3819   -0.3190 C   0  0  1  0  0  0  0  0  0  0  0  0
    1.5249   -1.8494   -0.1890 C   0  0  0  0  0  0  0  0  0  0  0  0
   -0.4806   -0.2916    0.6683 C   0  0  1  0  0  0  0  0  0  0  0  0
    0.5343    0.5963    1.2132 C   0  0  0  0  0  0  0  0  0  0  0  0
    1.3466    1.3049    1.6340 N   0  0  0  0  0  0  0  0  0  0  0  0
   -0.4355    2.3138   -0.6517 H   0  0  0  0  0  0  0  0  0  0  0  0
   -1.8706    2.0660   -1.6614 H   0  0  0  0  0  0  0  0  0  0  0  0
   -2.0388    2.2403    0.0917 H   0  0  0  0  0  0  0  0  0  0  0  0
   -2.2586   -0.1580   -0.5604 H   0  0  0  0  0  0  0  0  0  0  0  0
   -0.7522   -0.9339   -2.3864 H   0  0  0  0  0  0  0  0  0  0  0  0
    0.5226    0.1656   -1.8156 H   0  0  0  0  0  0  0  0  0  0  0  0
   -0.5931   -2.2395   -0.2708 H   0  0  0  0  0  0  0  0  0  0  0  0
    2.2191   -1.0037   -0.1902 H   0  0  0  0  0  0  0  0  0  0  0  0
    1.6823   -2.4101    0.7386 H   0  0  0  0  0  0  0  0  0  0  0  0
    1.7879   -2.5059   -1.0254 H   0  0  0  0  0  0  0  0  0  0  0  0
   -1.0917   -0.6657    1.4940 H   0  0  0  0  0  0  0  0  0  0  0  0
  1  9  1  0  0  0  0
  1  2  1  0  0  0  0
  1 11  1  0  0  0  0
  2  6  1  1  0  0  0
  3  2  1  0  0  0  0
  3  4  1  0  0  0  0
  4 15  1  0  0  0  0
  4  5  1  0  0  0  0
  4  6  1  1  0  0  0
  5 17  1  0  0  0  0
  6  7  1  0  0  0  0
  6 19  1  1  0  0  0
  7  8  3  0  0  0  0
 10  1  1  0  0  0  0
 12  2  1  0  0  0  0
 13  3  1  0  0  0  0
 14  3  1  0  0  0  0
 16  5  1  0  0  0  0
 18  5  1  0  0  0  0
M  END
