title
 OpenBabel02282110013D

 18 18  0  0  1  0  0  0  0  0999 V2000
   -1.1411    1.7313   -0.8537 C   0  0  0  0  0  0  0  0  0  0  0  0
   -1.0589    0.2120   -0.8774 C   0  0  1  0  0  0  0  0  0  0  0  0
    0.1169   -0.3719   -1.7061 C   0  0  0  0  0  0  0  0  0  0  0  0
    0.8946   -0.5165   -0.4613 N   0  0  0  0  0  0  0  0  0  0  0  0
    1.7755   -1.6509   -0.2922 C   0  0  0  0  0  0  0  0  0  0  0  0
   -0.3338   -0.4487    0.3451 C   0  0  1  0  0  0  0  0  0  0  0  0
   -0.2296    0.2914    1.6029 C   0  0  0  0  0  0  0  0  0  0  0  0
   -0.1636    0.8785    2.5965 N   0  0  0  0  0  0  0  0  0  0  0  0
   -0.1622    2.1739   -0.6476 H   0  0  0  0  0  0  0  0  0  0  0  0
   -1.4894    2.1060   -1.8216 H   0  0  0  0  0  0  0  0  0  0  0  0
   -1.8378    2.0798   -0.0853 H   0  0  0  0  0  0  0  0  0  0  0  0
   -2.0344   -0.2293   -1.0871 H   0  0  0  0  0  0  0  0  0  0  0  0
   -0.1383   -1.3360   -2.1753 H   0  0  0  0  0  0  0  0  0  0  0  0
    0.5771    0.2796   -2.4566 H   0  0  0  0  0  0  0  0  0  0  0  0
    2.6013   -1.5813   -1.0071 H   0  0  0  0  0  0  0  0  0  0  0  0
    2.2018   -1.6404    0.7159 H   0  0  0  0  0  0  0  0  0  0  0  0
    1.2669   -2.6212   -0.4455 H   0  0  0  0  0  0  0  0  0  0  0  0
   -0.7649   -1.4402    0.5659 H   0  0  0  0  0  0  0  0  0  0  0  0
  1  9  1  0  0  0  0
  1 11  1  0  0  0  0
  2  1  1  0  0  0  0
  2  6  1  1  0  0  0
  3  2  1  0  0  0  0
  3  4  1  0  0  0  0
  4  5  1  0  0  0  0
  4  6  1  0  0  0  0
  5 16  1  0  0  0  0
  6 18  1  1  0  0  0
  6  7  1  0  0  0  0
  7  8  3  0  0  0  0
 10  1  1  0  0  0  0
 12  2  1  0  0  0  0
 13  3  1  0  0  0  0
 14  3  1  0  0  0  0
 15  5  1  0  0  0  0
 17  5  1  0  0  0  0
M  END
