title
 OpenBabel02282110013D

 18 18  0  0  1  0  0  0  0  0999 V2000
   -1.3493    1.9113   -0.7263 C   0  0  0  0  0  0  0  0  0  0  0  0
   -1.2525    0.4024   -0.5821 C   0  0  1  0  0  0  0  0  0  0  0  0
   -0.2754   -0.3895   -1.4915 C   0  0  0  0  0  0  0  0  0  0  0  0
    0.0121   -1.3377   -0.3002 C   0  0  1  0  0  0  0  0  0  0  0  0
    1.2893   -1.8572   -0.0963 O   0  0  0  0  0  0  0  0  0  0  0  0
   -0.5370   -0.2223    0.6751 C   0  0  1  0  0  0  0  0  0  0  0  0
    0.5418    0.5746    1.2236 C   0  0  0  0  0  0  0  0  0  0  0  0
    1.4900    1.1895    1.6411 C   0  0  0  0  0  0  0  0  0  0  0  0
   -0.3671    2.3811   -0.6189 H   0  0  0  0  0  0  0  0  0  0  0  0
   -1.7485    2.1777   -1.7110 H   0  0  0  0  0  0  0  0  0  0  0  0
   -2.0118    2.3441    0.0312 H   0  0  0  0  0  0  0  0  0  0  0  0
   -2.2518   -0.0418   -0.6415 H   0  0  0  0  0  0  0  0  0  0  0  0
   -0.6612   -0.8269   -2.4150 H   0  0  0  0  0  0  0  0  0  0  0  0
    0.6128    0.2078   -1.7241 H   0  0  0  0  0  0  0  0  0  0  0  0
   -0.6747   -2.1889   -0.2998 H   0  0  0  0  0  0  0  0  0  0  0  0
    1.8644   -1.1217    0.1532 H   0  0  0  0  0  0  0  0  0  0  0  0
   -1.1937   -0.5700    1.4776 H   0  0  0  0  0  0  0  0  0  0  0  0
    2.2971    1.7544    2.0382 H   0  0  0  0  0  0  0  0  0  0  0  0
  1  9  1  0  0  0  0
  1  2  1  0  0  0  0
  1 11  1  0  0  0  0
  2  6  1  1  0  0  0
  3  2  1  0  0  0  0
  3  4  1  0  0  0  0
  4 15  1  0  0  0  0
  4  5  1  0  0  0  0
  4  6  1  1  0  0  0
  5 16  1  0  0  0  0
  6  7  1  0  0  0  0
  6 17  1  1  0  0  0
  7  8  3  0  0  0  0
  8 18  1  0  0  0  0
 10  1  1  0  0  0  0
 12  2  1  0  0  0  0
 13  3  1  0  0  0  0
 14  3  1  0  0  0  0
M  END
