19
title
C -1.4097039 1.818048 -0.69919324
C -1.2701435 0.3127783 -0.55478626
C -0.31772342 -0.46313554 -1.5015846
C 0.08594344 -1.381916 -0.31901714
C 1.524936 -1.8494229 -0.18898435
C -0.48062363 -0.29159302 0.6683303
C 0.53427875 0.59630454 1.2131695
N 1.3466277 1.304863 1.6339971
H -0.43548933 2.3137665 -0.6517379
H -1.8705522 2.0660377 -1.6613504
H -2.0387738 2.2402833 0.091714226
H -2.258649 -0.15801032 -0.56038266
H -0.7521939 -0.933906 -2.3864303
H 0.52263296 0.16564867 -1.8155904
H -0.59305626 -2.2395036 -0.27080697
H 2.219104 -1.0037222 -0.19015591
H 1.6822839 -2.4100866 0.7386142
H 1.7878625 -2.5059144 -1.0253552
H -1.0916545 -0.6656753 1.4939743
