18
title
C -1.1279035 1.805868 -0.93658304
C -1.1412373 0.30911773 -0.69706476
O -0.27885526 -0.41490963 -1.6005948
C 0.2138676 -1.248122 -0.52946085
C 1.7138575 -1.4596944 -0.58511084
C -0.4419362 -0.32565305 0.5475449
C 0.48856765 0.56736875 1.3222277
O 0.4667738 0.6777628 2.5230606
H -0.11476987 2.2137818 -0.9096735
H -1.5514493 2.0221176 -1.9222454
H -1.736482 2.3189952 -0.18445864
H -2.1730866 -0.06502459 -0.773016
H -0.29458362 -2.2237215 -0.5406709
H 2.257874 -0.5128174 -0.61728513
H 2.0517924 -2.0330324 0.28462896
H 1.9701306 -2.0255518 -1.4861134
H -1.1030095 -0.82454884 1.2570941
H 1.2234906 1.1415607 0.71763164
