16
title
O 1.6903062 0.6977796 -1.3865316
C 1.2510399 -0.31669608 -0.53618544
C 1.1901265 -0.0833411 0.99663335
C -0.1088912 -0.93108225 1.036452
O -1.1498681 -0.58538014 1.8978834
C -0.2812826 -0.69513917 -0.5147649
C -1.1222972 0.44875383 -0.79514563
C -1.7788044 1.4436165 -0.9745059
H 1.0567299 1.4242085 -1.327541
H 1.8416258 -1.202839 -0.7819377
H 2.038213 -0.39998478 1.6063101
H 0.9655732 0.96684617 1.2127231
H 0.10834139 -1.9859039 1.2224553
H -1.4893342 0.2739647 1.6170101
H -0.5830789 -1.5584394 -1.1130091
H -2.3862994 2.2935102 -1.168413
