17
title
C -0.7157293 2.237457 -0.84231114
N -0.6662842 0.8098994 -0.6081878
C -1.7896906 0.15717517 0.09222929
C -0.7713037 -0.81842715 0.72941333
O -0.6256766 -2.0542355 0.0782582
C 0.2993625 0.27804428 0.36930126
C 1.6175139 -0.20064588 -0.19469644
O 2.638983 -0.26693672 0.4378851
H 0.22642633 2.5754032 -1.2858156
H -1.5211157 2.4689646 -1.5469046
H -0.88915426 2.818646 0.08206932
H -2.273432 0.80259174 0.8436381
H -2.5597339 -0.27926248 -0.5543816
H -0.87875867 -1.0364776 1.7912863
H -0.6533629 -1.895362 -0.8723247
H 0.49070528 0.93656427 1.2314793
H 1.5652533 -0.5073952 -1.264265
