title
 OpenBabel02282110013D

 20 20  0  0  1  0  0  0  0  0999 V2000
   -1.9354    0.2984   -1.4827 C   0  0  0  0  0  0  0  0  0  0  0  0
   -0.8044   -0.6096   -1.0183 C   0  0  1  0  0  0  0  0  0  0  0  0
    0.6353   -0.3910   -1.5519 C   0  0  0  0  0  0  0  0  0  0  0  0
    1.1783   -0.8013   -0.1584 C   0  0  1  0  0  0  0  0  0  0  0  0
    2.4195   -0.1228    0.4060 C   0  0  0  0  0  0  0  0  0  0  0  0
   -0.2449   -0.5098    0.4509 C   0  0  1  0  0  0  0  0  0  0  0  0
   -0.3797    0.8546    1.0660 C   0  0  0  0  0  0  0  0  0  0  0  0
   -0.8353    1.0655    2.1632 O   0  0  0  0  0  0  0  0  0  0  0  0
   -1.6815    1.3581   -1.3796 H   0  0  0  0  0  0  0  0  0  0  0  0
   -2.1621    0.1171   -2.5391 H   0  0  0  0  0  0  0  0  0  0  0  0
   -2.8517    0.1175   -0.9104 H   0  0  0  0  0  0  0  0  0  0  0  0
   -1.0921   -1.6538   -1.1804 H   0  0  0  0  0  0  0  0  0  0  0  0
    0.9551   -0.9745   -2.4192 H   0  0  0  0  0  0  0  0  0  0  0  0
    0.8281    0.6677   -1.7604 H   0  0  0  0  0  0  0  0  0  0  0  0
    1.3200   -1.8871   -0.1342 H   0  0  0  0  0  0  0  0  0  0  0  0
    2.3457    0.9686    0.3671 H   0  0  0  0  0  0  0  0  0  0  0  0
    2.5898   -0.4088    1.4496 H   0  0  0  0  0  0  0  0  0  0  0  0
    3.3072   -0.4118   -0.1671 H   0  0  0  0  0  0  0  0  0  0  0  0
   -0.6273   -1.2370    1.1706 H   0  0  0  0  0  0  0  0  0  0  0  0
   -0.0247    1.7033    0.4370 H   0  0  0  0  0  0  0  0  0  0  0  0
  1  9  1  0  0  0  0
  1  2  1  0  0  0  0
  1 11  1  0  0  0  0
  2  6  1  1  0  0  0
  3  2  1  0  0  0  0
  3  4  1  0  0  0  0
  4 15  1  0  0  0  0
  4  5  1  0  0  0  0
  4  6  1  1  0  0  0
  5 17  1  0  0  0  0
  6  7  1  0  0  0  0
  6 19  1  1  0  0  0
  7  8  2  0  0  0  0
 10  1  1  0  0  0  0
 12  2  1  0  0  0  0
 13  3  1  0  0  0  0
 14  3  1  0  0  0  0
 16  5  1  0  0  0  0
 18  5  1  0  0  0  0
 20  7  1  0  0  0  0
M  END
