title
 OpenBabel02282110013D

 19 19  0  0  1  0  0  0  0  0999 V2000
   -1.6819    1.3736    0.5739 C   0  0  0  0  0  0  0  0  0  0  0  0
   -1.1666    0.1358   -0.1426 C   0  0  1  0  0  0  0  0  0  0  0  0
   -0.7256    0.2650   -1.6313 C   0  0  0  0  0  0  0  0  0  0  0  0
    0.6715   -0.2953   -1.2273 C   0  0  1  0  0  0  0  0  0  0  0  0
    1.8942    0.5492   -1.5538 C   0  0  0  0  0  0  0  0  0  0  0  0
    0.2171   -0.2551    0.1758 N   0  0  0  0  0  0  0  0  0  0  0  0
    0.6835   -0.8597    1.2917 C   0  0  0  0  0  0  0  0  0  0  0  0
    0.0606   -0.9715    2.3298 O   0  0  0  0  0  0  0  0  0  0  0  0
   -1.0115    2.2246    0.4159 H   0  0  0  0  0  0  0  0  0  0  0  0
   -2.6761    1.6410    0.2001 H   0  0  0  0  0  0  0  0  0  0  0  0
   -1.7521    1.1819    1.6474 H   0  0  0  0  0  0  0  0  0  0  0  0
   -1.8549   -0.7017    0.0261 H   0  0  0  0  0  0  0  0  0  0  0  0
   -1.2864   -0.3340   -2.3490 H   0  0  0  0  0  0  0  0  0  0  0  0
   -0.6856    1.2999   -1.9798 H   0  0  0  0  0  0  0  0  0  0  0  0
    0.8250   -1.3251   -1.5757 H   0  0  0  0  0  0  0  0  0  0  0  0
    1.7545    1.5812   -1.2178 H   0  0  0  0  0  0  0  0  0  0  0  0
    2.7927    0.1515   -1.0713 H   0  0  0  0  0  0  0  0  0  0  0  0
    2.0696    0.5559   -2.6350 H   0  0  0  0  0  0  0  0  0  0  0  0
    1.7205   -1.2350    1.1625 H   0  0  0  0  0  0  0  0  0  0  0  0
  1 11  1  0  0  0  0
  2 12  1  1  0  0  0
  2  6  1  0  0  0  0
  2  1  1  0  0  0  0
  3  4  1  0  0  0  0
  3  2  1  0  0  0  0
  4 15  1  6  0  0  0
  4  6  1  0  0  0  0
  5  4  1  0  0  0  0
  5 16  1  0  0  0  0
  5 17  1  0  0  0  0
  6  7  1  0  0  0  0
  7  8  2  0  0  0  0
  9  1  1  0  0  0  0
 10  1  1  0  0  0  0
 13  3  1  0  0  0  0
 14  3  1  0  0  0  0
 18  5  1  0  0  0  0
 19  7  1  0  0  0  0
M  END
