title
 OpenBabel02282110013D

 17 17  0  0  1  0  0  0  0  0999 V2000
   -0.7157    2.2375   -0.8423 C   0  0  0  0  0  0  0  0  0  0  0  0
   -0.6663    0.8099   -0.6082 N   0  0  0  0  0  0  0  0  0  0  0  0
   -1.7897    0.1572    0.0922 C   0  0  0  0  0  0  0  0  0  0  0  0
   -0.7713   -0.8184    0.7294 C   0  0  1  0  0  0  0  0  0  0  0  0
   -0.6257   -2.0542    0.0783 O   0  0  0  0  0  0  0  0  0  0  0  0
    0.2994    0.2780    0.3693 C   0  0  1  0  0  0  0  0  0  0  0  0
    1.6175   -0.2006   -0.1947 C   0  0  0  0  0  0  0  0  0  0  0  0
    2.6390   -0.2669    0.4379 O   0  0  0  0  0  0  0  0  0  0  0  0
    0.2264    2.5754   -1.2858 H   0  0  0  0  0  0  0  0  0  0  0  0
   -1.5211    2.4690   -1.5469 H   0  0  0  0  0  0  0  0  0  0  0  0
   -0.8892    2.8186    0.0821 H   0  0  0  0  0  0  0  0  0  0  0  0
   -2.2734    0.8026    0.8436 H   0  0  0  0  0  0  0  0  0  0  0  0
   -2.5597   -0.2793   -0.5544 H   0  0  0  0  0  0  0  0  0  0  0  0
   -0.8788   -1.0365    1.7913 H   0  0  0  0  0  0  0  0  0  0  0  0
   -0.6534   -1.8954   -0.8723 H   0  0  0  0  0  0  0  0  0  0  0  0
    0.4907    0.9366    1.2315 H   0  0  0  0  0  0  0  0  0  0  0  0
    1.5653   -0.5074   -1.2643 H   0  0  0  0  0  0  0  0  0  0  0  0
  1  2  1  0  0  0  0
  1 11  1  0  0  0  0
  2  3  1  0  0  0  0
  2  6  1  0  0  0  0
  3  4  1  0  0  0  0
  3 12  1  0  0  0  0
  4  6  1  6  0  0  0
  4 14  1  0  0  0  0
  5  4  1  0  0  0  0
  6 16  1  1  0  0  0
  7  6  1  0  0  0  0
  7  8  2  0  0  0  0
  9  1  1  0  0  0  0
 10  1  1  0  0  0  0
 13  3  1  0  0  0  0
 15  5  1  0  0  0  0
 17  7  1  0  0  0  0
M  END
