16
title
O 1.5970463 0.8597716 -1.2828082
C 1.3407273 -0.23199257 -0.4322991
C 1.3397919 -0.006308974 1.1046523
C 0.021767497 -0.82627183 1.1642369
O -1.0544971 -0.33501956 1.9266979
C -0.16611493 -0.6217562 -0.36859202
C -1.0878676 0.5357235 -0.6993644
O -1.99654 0.447558 -1.4836051
H 2.5392528 1.0547448 -1.259505
H 1.9482105 -1.1039732 -0.7088224
H 2.1981378 -0.35528037 1.6839002
H 1.1408445 1.0449353 1.331599
H 0.21759117 -1.8837436 1.3861831
H -0.8636254 -0.479181 2.8589458
H -0.4838215 -1.485928 -0.9527884
H -0.8763329 1.4861445 -0.17031772
