18
title
C -1.059088 2.4867084 -0.40635955
C -1.3195622 0.97630847 -0.38333875
C -0.3514478 0.23794815 0.5368042
C -0.380334 -1.3210158 0.63629484
O -0.97708225 -1.8480535 -0.53079027
C 1.1801872 -1.3585014 0.6002437
C 1.1316698 0.1107522 0.14139496
O 1.9136457 0.83712393 -0.40053982
H -0.036121033 2.6983526 -0.72868866
H -1.7471825 2.9905713 -1.0919557
H -1.195886 2.9286995 0.58733225
H -2.3457973 0.77239543 -0.054629758
H -1.2337328 0.56235826 -1.3921626
H -0.39160904 0.65932965 1.5511273
H -0.8450509 -1.7262197 1.5428618
H -0.8368156 -2.800078 -0.53719413
H 1.6417534 -1.4594173 1.5882121
H 1.640842 -2.0714223 -0.088409916
