title
 OpenBabel02282110013D

 20 20  0  0  1  0  0  0  0  0999 V2000
    0.0726    2.5308    1.0430 C   0  0  0  0  0  0  0  0  0  0  0  0
    0.3173    1.0385    1.2982 C   0  0  0  0  0  0  0  0  0  0  0  0
    0.6175    0.2742    0.0110 C   0  0  1  0  0  0  0  0  0  0  0  0
    0.8525   -1.2839   -0.0155 C   0  0  1  0  0  0  0  0  0  0  0  0
    0.2941   -2.0556    1.1768 C   0  0  0  0  0  0  0  0  0  0  0  0
   -0.0371   -1.3868   -1.2969 C   0  0  0  0  0  0  0  0  0  0  0  0
   -0.5114    0.0451   -1.0073 C   0  0  0  0  0  0  0  0  0  0  0  0
   -1.4661    0.6874   -1.3439 O   0  0  0  0  0  0  0  0  0  0  0  0
    0.9570    3.0054    0.6030 H   0  0  0  0  0  0  0  0  0  0  0  0
   -0.7623    2.6700    0.3513 H   0  0  0  0  0  0  0  0  0  0  0  0
   -0.1590    3.0560    1.9747 H   0  0  0  0  0  0  0  0  0  0  0  0
    1.1545    0.9098    1.9962 H   0  0  0  0  0  0  0  0  0  0  0  0
   -0.5621    0.6044    1.7876 H   0  0  0  0  0  0  0  0  0  0  0  0
    1.4463    0.7652   -0.5190 H   0  0  0  0  0  0  0  0  0  0  0  0
    1.8976   -1.5579   -0.1774 H   0  0  0  0  0  0  0  0  0  0  0  0
   -0.7668   -1.8345    1.3400 H   0  0  0  0  0  0  0  0  0  0  0  0
    0.3824   -3.1342    1.0106 H   0  0  0  0  0  0  0  0  0  0  0  0
    0.8299   -1.8143    2.1003 H   0  0  0  0  0  0  0  0  0  0  0  0
    0.5362   -1.4407   -2.2281 H   0  0  0  0  0  0  0  0  0  0  0  0
   -0.8127   -2.1574   -1.3189 H   0  0  0  0  0  0  0  0  0  0  0  0
  1  2  1  0  0  0  0
  1 11  1  0  0  0  0
  2 13  1  0  0  0  0
  2 12  1  0  0  0  0
  3  4  1  1  0  0  0
  3  2  1  0  0  0  0
  4 15  1  6  0  0  0
  4  5  1  0  0  0  0
  5 16  1  0  0  0  0
  5 18  1  0  0  0  0
  6  7  1  0  0  0  0
  6  4  1  0  0  0  0
  7  3  1  0  0  0  0
  8  7  2  0  0  0  0
  9  1  1  0  0  0  0
 10  1  1  0  0  0  0
 14  3  1  0  0  0  0
 17  5  1  0  0  0  0
 19  6  1  0  0  0  0
 20  6  1  0  0  0  0
M  END
