title
 OpenBabel02282110013D

 17 17  0  0  1  0  0  0  0  0999 V2000
   -1.3110    1.8268   -1.1116 C   0  0  0  0  0  0  0  0  0  0  0  0
   -1.2263    0.3214   -0.8994 C   0  0  1  0  0  0  0  0  0  0  0  0
   -0.1401   -0.3594   -1.6320 N   0  0  0  0  0  0  0  0  0  0  0  0
    0.5119   -0.8192   -0.5214 C   0  0  0  0  0  0  0  0  0  0  0  0
    1.5582   -1.3974   -0.3453 O   0  0  0  0  0  0  0  0  0  0  0  0
   -0.5638   -0.2323    0.4117 C   0  0  1  0  0  0  0  0  0  0  0  0
    0.0409    0.6843    1.4760 C   0  0  0  0  0  0  0  0  0  0  0  0
    0.8516   -0.0777    2.3481 O   0  0  0  0  0  0  0  0  0  0  0  0
   -0.3465    2.3140   -0.9473 H   0  0  0  0  0  0  0  0  0  0  0  0
   -1.6339    2.0524   -2.1336 H   0  0  0  0  0  0  0  0  0  0  0  0
   -2.0452    2.2676   -0.4296 H   0  0  0  0  0  0  0  0  0  0  0  0
   -2.2030   -0.1360   -1.0952 H   0  0  0  0  0  0  0  0  0  0  0  0
    0.1127   -0.3694   -2.6099 H   0  0  0  0  0  0  0  0  0  0  0  0
   -1.1592   -1.0080    0.9000 H   0  0  0  0  0  0  0  0  0  0  0  0
    0.6139    1.4967    1.0024 H   0  0  0  0  0  0  0  0  0  0  0  0
   -0.7390    1.1484    2.0893 H   0  0  0  0  0  0  0  0  0  0  0  0
    1.4640   -0.5822    1.7939 H   0  0  0  0  0  0  0  0  0  0  0  0
  1  9  1  0  0  0  0
  1  2  1  0  0  0  0
  1 11  1  0  0  0  0
  2  6  1  1  0  0  0
  3  2  1  0  0  0  0
  3  4  1  0  0  0  0
  4  5  2  0  0  0  0
  4  6  1  0  0  0  0
  6 14  1  1  0  0  0
  6  7  1  0  0  0  0
  7 16  1  0  0  0  0
  7  8  1  0  0  0  0
 10  1  1  0  0  0  0
 12  2  1  0  0  0  0
 13  3  1  0  0  0  0
 15  7  1  0  0  0  0
 17  8  1  0  0  0  0
M  END
