18
title
C -0.1899404 2.4501052 1.2105155
C 0.03233499 0.9453493 1.4027803
C 0.632655 0.29669893 0.15507178
C 0.7871655 -1.2435006 0.037244715
C 0.26007265 -2.1463299 1.1304888
O -0.10538314 -1.2346345 -1.1372529
C -0.2954979 0.11937773 -1.0494202
O -0.99051684 0.8011542 -1.734948
H 0.7580944 2.96852 1.0299306
H -0.84239966 2.6386824 0.35350385
H -0.6499169 2.8927543 2.09865
H 0.7029162 0.76874363 2.252808
H -0.9199108 0.46471217 1.6524656
H 1.5469444 0.82540953 -0.13474865
H 1.7843328 -1.5580002 -0.28401062
H -0.7561227 -1.8714622 1.4238292
H 0.24634032 -3.18419 0.7856135
H 0.9058437 -2.0898106 2.012848
