title
 OpenBabel02282110013D

 19 19  0  0  1  0  0  0  0  0999 V2000
   -1.0098    1.8072    1.6172 C   0  0  0  0  0  0  0  0  0  0  0  0
   -0.7547    0.2994    1.5232 C   0  0  0  0  0  0  0  0  0  0  0  0
   -0.1452   -0.1224    0.2805 N   0  0  0  0  0  0  0  0  0  0  0  0
   -0.6969   -0.4556   -1.0473 C   0  0  1  0  0  0  0  0  0  0  0  0
   -1.2285    0.7097   -1.8694 C   0  0  0  0  0  0  0  0  0  0  0  0
    0.7166   -1.0032   -1.4108 C   0  0  0  0  0  0  0  0  0  0  0  0
    1.1022   -0.6481    0.0409 C   0  0  0  0  0  0  0  0  0  0  0  0
    2.0681   -0.7757    0.7491 O   0  0  0  0  0  0  0  0  0  0  0  0
   -0.0756    2.3633    1.4987 H   0  0  0  0  0  0  0  0  0  0  0  0
   -1.7085    2.1460    0.8465 H   0  0  0  0  0  0  0  0  0  0  0  0
   -1.4380    2.0578    2.5930 H   0  0  0  0  0  0  0  0  0  0  0  0
   -0.0676   -0.0141    2.3163 H   0  0  0  0  0  0  0  0  0  0  0  0
   -1.6933   -0.2531    1.6670 H   0  0  0  0  0  0  0  0  0  0  0  0
   -1.4534   -1.2495   -0.9831 H   0  0  0  0  0  0  0  0  0  0  0  0
   -0.4845    1.5098   -1.9360 H   0  0  0  0  0  0  0  0  0  0  0  0
   -1.4704    0.3757   -2.8839 H   0  0  0  0  0  0  0  0  0  0  0  0
   -2.1415    1.1258   -1.4314 H   0  0  0  0  0  0  0  0  0  0  0  0
    0.7706   -2.0684   -1.6423 H   0  0  0  0  0  0  0  0  0  0  0  0
    1.2506   -0.4341   -2.1750 H   0  0  0  0  0  0  0  0  0  0  0  0
  1 11  1  0  0  0  0
  2  1  1  0  0  0  0
  2 13  1  0  0  0  0
  2 12  1  0  0  0  0
  3  2  1  0  0  0  0
  4 14  1  1  0  0  0
  4  3  1  0  0  0  0
  5 17  1  0  0  0  0
  5  4  1  0  0  0  0
  6  4  1  0  0  0  0
  6  7  1  0  0  0  0
  7  3  1  0  0  0  0
  7  8  2  0  0  0  0
  9  1  1  0  0  0  0
 10  1  1  0  0  0  0
 15  5  1  0  0  0  0
 16  5  1  0  0  0  0
 18  6  1  0  0  0  0
 19  6  1  0  0  0  0
M  END
