title
 OpenBabel02282110013D

 19 19  0  0  1  0  0  0  0  0999 V2000
    1.0922    2.4744   -0.4678 C   0  0  0  0  0  0  0  0  0  0  0  0
    1.1769    0.9628   -0.7072 C   0  0  0  0  0  0  0  0  0  0  0  0
   -0.1934    0.2914   -0.6102 C   0  0  1  0  0  0  0  0  0  0  0  0
   -0.3274   -1.2579   -0.6814 C   0  0  1  0  0  0  0  0  0  0  0  0
    0.9073   -2.1283   -0.7600 C   0  0  0  0  0  0  0  0  0  0  0  0
   -0.9102   -1.2584    0.6708 O   0  0  0  0  0  0  0  0  0  0  0  0
   -0.7836    0.1089    0.7752 C   0  0  0  0  0  0  0  0  0  0  0  0
   -1.0621    0.8813    1.7252 N   0  0  0  0  0  0  0  0  0  0  0  0
    2.0850    2.9323   -0.5104 H   0  0  0  0  0  0  0  0  0  0  0  0
    0.4670    2.9583   -1.2264 H   0  0  0  0  0  0  0  0  0  0  0  0
    0.6534    2.6842    0.5113 H   0  0  0  0  0  0  0  0  0  0  0  0
    1.6011    0.7621   -1.6992 H   0  0  0  0  0  0  0  0  0  0  0  0
    1.8618    0.5162    0.0220 H   0  0  0  0  0  0  0  0  0  0  0  0
   -0.8966    0.7931   -1.2831 H   0  0  0  0  0  0  0  0  0  0  0  0
   -1.0865   -1.5960   -1.3940 H   0  0  0  0  0  0  0  0  0  0  0  0
    1.6586   -1.8282   -0.0253 H   0  0  0  0  0  0  0  0  0  0  0  0
    0.6418   -3.1726   -0.5702 H   0  0  0  0  0  0  0  0  0  0  0  0
    1.3519   -2.0675   -1.7588 H   0  0  0  0  0  0  0  0  0  0  0  0
   -1.4399    0.3662    2.5227 H   0  0  0  0  0  0  0  0  0  0  0  0
  1 11  1  0  0  0  0
  2  3  1  0  0  0  0
  2  1  1  0  0  0  0
  2 13  1  0  0  0  0
  3  4  1  6  0  0  0
  3  7  1  0  0  0  0
  4 15  1  6  0  0  0
  4  6  1  0  0  0  0
  5  4  1  0  0  0  0
  5 17  1  0  0  0  0
  5 16  1  0  0  0  0
  6  7  1  0  0  0  0
  7  8  2  0  0  0  0
  8 19  1  0  0  0  0
  9  1  1  0  0  0  0
 10  1  1  0  0  0  0
 12  2  1  0  0  0  0
 14  3  1  0  0  0  0
 18  5  1  0  0  0  0
M  END
