title
 OpenBabel02282110013D

 18 18  0  0  1  0  0  0  0  0999 V2000
   -0.2162    2.5116    0.4606 C   0  0  0  0  0  0  0  0  0  0  0  0
    0.3456    1.2595    0.8190 O   0  0  0  0  0  0  0  0  0  0  0  0
    0.5031    0.3932   -0.2596 C   0  0  1  0  0  0  0  0  0  0  0  0
    1.0995   -1.0161    0.0600 C   0  0  1  0  0  0  0  0  0  0  0  0
    0.9140   -1.4410    1.5137 C   0  0  0  0  0  0  0  0  0  0  0  0
    0.0652   -1.6606   -0.9199 C   0  0  0  0  0  0  0  0  0  0  0  0
   -0.7264   -0.3429   -0.8459 C   0  0  0  0  0  0  0  0  0  0  0  0
   -1.8738   -0.0434   -1.0127 O   0  0  0  0  0  0  0  0  0  0  0  0
    0.4209    3.0386   -0.2669 H   0  0  0  0  0  0  0  0  0  0  0  0
   -1.2189    2.3948    0.0341 H   0  0  0  0  0  0  0  0  0  0  0  0
   -0.2762    3.1059    1.3750 H   0  0  0  0  0  0  0  0  0  0  0  0
    1.0599    0.8717   -1.0862 H   0  0  0  0  0  0  0  0  0  0  0  0
    2.1426   -1.1274   -0.2426 H   0  0  0  0  0  0  0  0  0  0  0  0
   -0.1328   -1.3552    1.8237 H   0  0  0  0  0  0  0  0  0  0  0  0
    1.2241   -2.4818    1.6500 H   0  0  0  0  0  0  0  0  0  0  0  0
    1.5050   -0.8109    2.1832 H   0  0  0  0  0  0  0  0  0  0  0  0
    0.4612   -1.8441   -1.9236 H   0  0  0  0  0  0  0  0  0  0  0  0
   -0.4629   -2.5547   -0.5800 H   0  0  0  0  0  0  0  0  0  0  0  0
  1  2  1  0  0  0  0
  1 11  1  0  0  0  0
  3  4  1  1  0  0  0
  3  2  1  0  0  0  0
  4 13  1  6  0  0  0
  4  5  1  0  0  0  0
  5 15  1  0  0  0  0
  5 14  1  0  0  0  0
  5 16  1  0  0  0  0
  6  7  1  0  0  0  0
  6 18  1  0  0  0  0
  6  4  1  0  0  0  0
  7  3  1  0  0  0  0
  8  7  2  0  0  0  0
  9  1  1  0  0  0  0
 10  1  1  0  0  0  0
 12  3  1  0  0  0  0
 17  6  1  0  0  0  0
M  END
