title
 OpenBabel02282110013D

 17 17  0  0  1  0  0  0  0  0999 V2000
   -0.5030    2.3714    0.9348 C   0  0  0  0  0  0  0  0  0  0  0  0
    0.0497    1.0394    1.1883 N   0  0  0  0  0  0  0  0  0  0  0  0
    0.6139    0.4295    0.0028 C   0  0  1  0  0  0  0  0  0  0  0  0
    0.9831   -1.0754    0.0829 C   0  0  1  0  0  0  0  0  0  0  0  0
    0.7098   -1.8287    1.3645 C   0  0  0  0  0  0  0  0  0  0  0  0
   -0.0310   -1.3700   -0.9491 O   0  0  0  0  0  0  0  0  0  0  0  0
   -0.4283   -0.0643   -1.0137 C   0  0  0  0  0  0  0  0  0  0  0  0
   -1.3031    0.4016   -1.6724 O   0  0  0  0  0  0  0  0  0  0  0  0
    0.2331    3.0878    0.5304 H   0  0  0  0  0  0  0  0  0  0  0  0
   -1.3203    2.2897    0.2144 H   0  0  0  0  0  0  0  0  0  0  0  0
   -0.9036    2.7758    1.8680 H   0  0  0  0  0  0  0  0  0  0  0  0
    0.7696    1.1024    1.9016 H   0  0  0  0  0  0  0  0  0  0  0  0
    1.3937    1.0335   -0.4943 H   0  0  0  0  0  0  0  0  0  0  0  0
    1.9711   -1.3075   -0.3240 H   0  0  0  0  0  0  0  0  0  0  0  0
   -0.2621   -1.5527    1.7770 H   0  0  0  0  0  0  0  0  0  0  0  0
    0.7313   -2.9058    1.1761 H   0  0  0  0  0  0  0  0  0  0  0  0
    1.4817   -1.6011    2.1079 H   0  0  0  0  0  0  0  0  0  0  0  0
  1  2  1  0  0  0  0
  1 11  1  0  0  0  0
  2 12  1  0  0  0  0
  3  4  1  1  0  0  0
  3  2  1  0  0  0  0
  4 14  1  6  0  0  0
  4  5  1  0  0  0  0
  5 15  1  0  0  0  0
  5 17  1  0  0  0  0
  6  4  1  0  0  0  0
  7  6  1  0  0  0  0
  7  3  1  0  0  0  0
  8  7  2  0  0  0  0
  9  1  1  0  0  0  0
 10  1  1  0  0  0  0
 13  3  1  0  0  0  0
 16  5  1  0  0  0  0
M  END
