16
title
C 0.8362982 2.4213567 0.025458006
O 0.8150924 1.1503782 -0.6094109
C -0.3784641 0.46052578 -0.41408336
C -0.40019763 -0.98181844 -0.96880525
C 0.8895975 -1.5395364 -1.5235164
O -0.6873785 -1.4881393 0.3894727
C -0.5828341 -0.24240969 0.94725764
O -0.6335691 0.053737596 2.09852
H 1.805952 2.8687823 -0.20031731
H 0.038990147 3.0712729 -0.3652093
H 0.71800816 2.329245 1.1113708
H -1.2530327 1.0645024 -0.7008424
H -1.2554483 -1.2012013 -1.6127619
H 1.7314159 -1.2961494 -0.87249386
H 0.81592005 -2.6257281 -1.6247171
H 1.085071 -1.1101516 -2.5107138
