title
 OpenBabel02282110013D

 16 16  0  0  1  0  0  0  0  0999 V2000
   -0.5983    2.0596   -1.2391 C   0  0  0  0  0  0  0  0  0  0  0  0
   -0.8874    0.7587   -0.7494 O   0  0  0  0  0  0  0  0  0  0  0  0
   -0.2656    0.4574    0.4814 C   0  0  1  0  0  0  0  0  0  0  0  0
   -0.5735   -1.0416    0.8193 C   0  0  1  0  0  0  0  0  0  0  0  0
   -1.6808   -1.5953    0.1757 O   0  0  0  0  0  0  0  0  0  0  0  0
    0.8569   -1.4532    0.3336 C   0  0  0  0  0  0  0  0  0  0  0  0
    1.2181    0.0364    0.2807 C   0  0  0  0  0  0  0  0  0  0  0  0
    2.2348    0.6552    0.1474 O   0  0  0  0  0  0  0  0  0  0  0  0
    0.4768    2.1964   -1.4047 H   0  0  0  0  0  0  0  0  0  0  0  0
   -1.1306    2.1664   -2.1864 H   0  0  0  0  0  0  0  0  0  0  0  0
   -0.9494    2.8287   -0.5365 H   0  0  0  0  0  0  0  0  0  0  0  0
   -0.4782    1.2229    1.2407 H   0  0  0  0  0  0  0  0  0  0  0  0
   -0.6901   -1.1936    1.8960 H   0  0  0  0  0  0  0  0  0  0  0  0
   -1.8333   -1.0569   -0.6127 H   0  0  0  0  0  0  0  0  0  0  0  0
    1.4679   -2.0831    0.9842 H   0  0  0  0  0  0  0  0  0  0  0  0
    0.8321   -1.8974   -0.6678 H   0  0  0  0  0  0  0  0  0  0  0  0
  1  2  1  0  0  0  0
  1 11  1  0  0  0  0
  2  3  1  0  0  0  0
  3  4  1  1  0  0  0
  3 12  1  0  0  0  0
  4 13  1  1  0  0  0
  5  4  1  0  0  0  0
  6  4  1  0  0  0  0
  6 15  1  0  0  0  0
  7  6  1  0  0  0  0
  7  3  1  0  0  0  0
  8  7  2  0  0  0  0
  9  1  1  0  0  0  0
 10  1  1  0  0  0  0
 14  5  1  0  0  0  0
 16  6  1  0  0  0  0
M  END
