16
title
C -0.5982593 2.059558 -1.2390773
O -0.8874441 0.7586801 -0.74940896
C -0.26563874 0.4574111 0.48136175
C -0.5735144 -1.0415719 0.81932807
O -1.6807793 -1.5953453 0.17568041
C 0.85693413 -1.4532378 0.33361363
C 1.2180798 0.036357116 0.2806853
O 2.2347708 0.6551724 0.14739574
H 0.47676387 2.1963847 -1.4047127
H -1.130579 2.166363 -2.1864245
H -0.94939554 2.8287158 -0.53654
H -0.47822315 1.2228929 1.2406956
H -0.6901344 -1.1935735 1.8960491
H -1.8333315 -1.0569084 -0.6126735
H 1.4678774 -2.083065 0.9842137
H 0.8321387 -1.8974171 -0.6677849
