title
 OpenBabel02282110013D

 16 16  0  0  1  0  0  0  0  0999 V2000
    0.8363    2.4214    0.0255 C   0  0  0  0  0  0  0  0  0  0  0  0
    0.8151    1.1504   -0.6094 O   0  0  0  0  0  0  0  0  0  0  0  0
   -0.3785    0.4605   -0.4141 C   0  0  1  0  0  0  0  0  0  0  0  0
   -0.4002   -0.9818   -0.9688 C   0  0  1  0  0  0  0  0  0  0  0  0
    0.8896   -1.5395   -1.5235 C   0  0  0  0  0  0  0  0  0  0  0  0
   -0.6874   -1.4881    0.3895 O   0  0  0  0  0  0  0  0  0  0  0  0
   -0.5828   -0.2424    0.9473 C   0  0  0  0  0  0  0  0  0  0  0  0
   -0.6336    0.0537    2.0985 O   0  0  0  0  0  0  0  0  0  0  0  0
    1.8060    2.8688   -0.2003 H   0  0  0  0  0  0  0  0  0  0  0  0
    0.0390    3.0713   -0.3652 H   0  0  0  0  0  0  0  0  0  0  0  0
    0.7180    2.3292    1.1114 H   0  0  0  0  0  0  0  0  0  0  0  0
   -1.2530    1.0645   -0.7008 H   0  0  0  0  0  0  0  0  0  0  0  0
   -1.2554   -1.2012   -1.6128 H   0  0  0  0  0  0  0  0  0  0  0  0
    1.7314   -1.2961   -0.8725 H   0  0  0  0  0  0  0  0  0  0  0  0
    0.8159   -2.6257   -1.6247 H   0  0  0  0  0  0  0  0  0  0  0  0
    1.0851   -1.1102   -2.5107 H   0  0  0  0  0  0  0  0  0  0  0  0
  1 11  1  0  0  0  0
  2  3  1  0  0  0  0
  2  1  1  0  0  0  0
  3  4  1  6  0  0  0
  3  7  1  0  0  0  0
  4 13  1  6  0  0  0
  4  6  1  0  0  0  0
  5  4  1  0  0  0  0
  5 14  1  0  0  0  0
  6  7  1  0  0  0  0
  7  8  2  0  0  0  0
  9  1  1  0  0  0  0
 10  1  1  0  0  0  0
 12  3  1  0  0  0  0
 15  5  1  0  0  0  0
 16  5  1  0  0  0  0
M  END
