title
 OpenBabel02282110013D

 22 22  0  0  1  0  0  0  0  0999 V2000
   -1.6475    0.3330   -1.5825 C   0  0  0  0  0  0  0  0  0  0  0  0
   -0.5569   -0.5862   -1.0509 C   0  0  1  0  0  0  0  0  0  0  0  0
    0.9210   -0.3107   -1.4403 C   0  0  0  0  0  0  0  0  0  0  0  0
    1.3494   -0.7706   -0.0209 C   0  0  1  0  0  0  0  0  0  0  0  0
    2.5106   -0.0684    0.6709 C   0  0  0  0  0  0  0  0  0  0  0  0
   -0.1268   -0.5523    0.4556 C   0  0  1  0  0  0  0  0  0  0  0  0
   -0.3818    0.7555    1.1871 C   0  0  0  0  0  0  0  0  0  0  0  0
   -1.7736    0.8248    1.4752 O   0  0  0  0  0  0  0  0  0  0  0  0
   -1.4333    1.3843   -1.3652 H   0  0  0  0  0  0  0  0  0  0  0  0
   -1.7323    0.2327   -2.6710 H   0  0  0  0  0  0  0  0  0  0  0  0
   -2.6192    0.0987   -1.1389 H   0  0  0  0  0  0  0  0  0  0  0  0
   -0.8065   -1.6221   -1.3078 H   0  0  0  0  0  0  0  0  0  0  0  0
    1.3358   -0.8455   -2.2993 H   0  0  0  0  0  0  0  0  0  0  0  0
    1.1024    0.7610   -1.5843 H   0  0  0  0  0  0  0  0  0  0  0  0
    1.5467   -1.8484   -0.0377 H   0  0  0  0  0  0  0  0  0  0  0  0
    2.3727    1.0177    0.7020 H   0  0  0  0  0  0  0  0  0  0  0  0
    2.6410   -0.4187    1.7012 H   0  0  0  0  0  0  0  0  0  0  0  0
    3.4479   -0.2621    0.1372 H   0  0  0  0  0  0  0  0  0  0  0  0
   -0.5438   -1.3543    1.0728 H   0  0  0  0  0  0  0  0  0  0  0  0
    0.2112    0.7785    2.1154 H   0  0  0  0  0  0  0  0  0  0  0  0
   -0.0620    1.6167    0.5791 H   0  0  0  0  0  0  0  0  0  0  0  0
   -1.9498    1.6668    1.9050 H   0  0  0  0  0  0  0  0  0  0  0  0
  1  9  1  0  0  0  0
  1 11  1  0  0  0  0
  1  2  1  0  0  0  0
  2  6  1  1  0  0  0
  3  2  1  0  0  0  0
  3  4  1  0  0  0  0
  4  6  1  1  0  0  0
  4  5  1  0  0  0  0
  5 16  1  0  0  0  0
  5 17  1  0  0  0  0
  6 19  1  1  0  0  0
  6  7  1  0  0  0  0
  7  8  1  0  0  0  0
  7 20  1  0  0  0  0
  8 22  1  0  0  0  0
 10  1  1  0  0  0  0
 12  2  1  0  0  0  0
 13  3  1  0  0  0  0
 14  3  1  0  0  0  0
 15  4  1  0  0  0  0
 18  5  1  0  0  0  0
 21  7  1  0  0  0  0
M  END
