title
 OpenBabel02282110013D

 18 18  0  0  1  0  0  0  0  0999 V2000
    0.9904    2.4055    0.0216 C   0  0  0  0  0  0  0  0  0  0  0  0
    0.9622    1.0792   -0.5972 N   0  0  0  0  0  0  0  0  0  0  0  0
   -0.3314    0.4343   -0.4934 C   0  0  1  0  0  0  0  0  0  0  0  0
   -0.3946   -1.0642   -0.9080 C   0  0  1  0  0  0  0  0  0  0  0  0
    0.8694   -1.7551   -1.3658 C   0  0  0  0  0  0  0  0  0  0  0  0
   -0.7422   -1.4210    0.4782 O   0  0  0  0  0  0  0  0  0  0  0  0
   -0.6660   -0.1110    0.8865 C   0  0  0  0  0  0  0  0  0  0  0  0
   -0.8275    0.4031    2.0197 N   0  0  0  0  0  0  0  0  0  0  0  0
    1.9889    2.8349   -0.0983 H   0  0  0  0  0  0  0  0  0  0  0  0
    0.2538    3.1092   -0.4044 H   0  0  0  0  0  0  0  0  0  0  0  0
    0.7783    2.3061    1.0885 H   0  0  0  0  0  0  0  0  0  0  0  0
    1.2072    1.1614   -1.5793 H   0  0  0  0  0  0  0  0  0  0  0  0
   -1.1641    1.0279   -0.9091 H   0  0  0  0  0  0  0  0  0  0  0  0
   -1.2431   -1.3026   -1.5566 H   0  0  0  0  0  0  0  0  0  0  0  0
    1.7163   -1.4672   -0.7407 H   0  0  0  0  0  0  0  0  0  0  0  0
    0.7373   -2.8402   -1.3213 H   0  0  0  0  0  0  0  0  0  0  0  0
    1.0938   -1.4865   -2.4041 H   0  0  0  0  0  0  0  0  0  0  0  0
   -1.0344   -0.3089    2.7230 H   0  0  0  0  0  0  0  0  0  0  0  0
  1 11  1  0  0  0  0
  2  3  1  0  0  0  0
  2  1  1  0  0  0  0
  3  4  1  6  0  0  0
  3  7  1  0  0  0  0
  4 14  1  6  0  0  0
  4  6  1  0  0  0  0
  5 16  1  0  0  0  0
  5  4  1  0  0  0  0
  5 15  1  0  0  0  0
  6  7  1  0  0  0  0
  7  8  2  0  0  0  0
  8 18  1  0  0  0  0
  9  1  1  0  0  0  0
 10  1  1  0  0  0  0
 12  2  1  0  0  0  0
 13  3  1  0  0  0  0
 17  5  1  0  0  0  0
M  END
