17
title
C -0.40935904 2.3285985 -0.70573443
N -0.32105505 0.88421476 -0.6108005
C -1.5707172 0.1295112 -0.34691253
C -0.7917992 -0.68618566 0.6952109
O -1.0051299 -1.6620575 1.3455949
C 0.38806254 0.29590508 0.56029075
C 1.7642978 -0.26612356 0.21607298
O 1.7163535 -1.0057093 -0.9819581
H 0.5937982 2.7559721 -0.7966127
H -0.9744547 2.609898 -1.5996957
H -0.90175414 2.7874637 0.17101729
H -2.3672197 0.7272085 0.12573922
H -1.9876964 -0.40603355 -1.2057631
H 0.44016558 0.96591514 1.4348905
H 2.4929128 0.560653 0.15645605
H 2.0905526 -0.93878525 1.016652
H 1.1684078 -0.47487047 -1.5785569
