title
 OpenBabel02282110013D

 19 19  0  0  1  0  0  0  0  0999 V2000
   -0.4497    2.2103   -0.4736 C   0  0  0  0  0  0  0  0  0  0  0  0
   -0.4488    0.7589   -0.4960 N   0  0  0  0  0  0  0  0  0  0  0  0
   -1.7428    0.0811   -0.2598 C   0  0  0  0  0  0  0  0  0  0  0  0
   -1.0141   -0.9808    0.5974 C   0  0  1  0  0  0  0  0  0  0  0  0
   -0.7573   -2.2103   -0.0408 O   0  0  0  0  0  0  0  0  0  0  0  0
    0.1661    0.0432    0.6526 C   0  0  1  0  0  0  0  0  0  0  0  0
    1.5923   -0.4358    0.3913 C   0  0  0  0  0  0  0  0  0  0  0  0
    2.3797    0.5837   -0.2060 O   0  0  0  0  0  0  0  0  0  0  0  0
    0.5786    2.5808   -0.4743 H   0  0  0  0  0  0  0  0  0  0  0  0
   -0.9605    2.5984   -1.3615 H   0  0  0  0  0  0  0  0  0  0  0  0
   -0.9579    2.6199    0.4197 H   0  0  0  0  0  0  0  0  0  0  0  0
   -2.4459    0.6884    0.3324 H   0  0  0  0  0  0  0  0  0  0  0  0
   -2.2575   -0.2781   -1.1590 H   0  0  0  0  0  0  0  0  0  0  0  0
   -1.4700   -1.2313    1.5556 H   0  0  0  0  0  0  0  0  0  0  0  0
   -0.4778   -2.0261   -0.9443 H   0  0  0  0  0  0  0  0  0  0  0  0
    0.1228    0.6433    1.5758 H   0  0  0  0  0  0  0  0  0  0  0  0
    2.0844   -0.7058    1.3308 H   0  0  0  0  0  0  0  0  0  0  0  0
    1.5721   -1.3374   -0.2367 H   0  0  0  0  0  0  0  0  0  0  0  0
    1.9530    0.7816   -1.0478 H   0  0  0  0  0  0  0  0  0  0  0  0
  1 11  1  0  0  0  0
  2  1  1  0  0  0  0
  2  3  1  0  0  0  0
  2  6  1  0  0  0  0
  3 12  1  0  0  0  0
  3  4  1  0  0  0  0
  4  6  1  1  0  0  0
  4 14  1  0  0  0  0
  5  4  1  0  0  0  0
  6 16  1  1  0  0  0
  7  6  1  0  0  0  0
  7 17  1  0  0  0  0
  8  7  1  0  0  0  0
  9  1  1  0  0  0  0
 10  1  1  0  0  0  0
 13  3  1  0  0  0  0
 15  5  1  0  0  0  0
 18  7  1  0  0  0  0
 19  8  1  0  0  0  0
M  END
