24
title
C 0.31298995 2.5941348 -1.0180991
C 0.2964315 1.0743244 -1.2228214
C 0.6731926 0.29729098 0.035677392
C -0.33452627 0.15554094 1.2318391
C -1.8195962 0.35610595 0.93529516
C 0.09736599 -1.335716 1.3667392
C 0.82304025 -1.2620091 -0.0095466785
C 0.12406735 -2.0032945 -1.1476065
H 1.3087714 2.9391994 -0.7174879
H 0.040379286 3.1237407 -1.9365414
H -0.38917542 2.9029047 -0.23659496
H -0.6908084 0.7645358 -1.5847508
H 1.0036793 0.8142784 -2.0219176
H 1.6084638 0.72070163 0.42252526
H -0.06798705 0.77350533 2.0951982
H -2.1601734 -0.2529077 0.09171851
H -2.4188466 0.066653915 1.8060509
H -2.0547547 1.4008693 0.7052886
H 0.77809423 -1.513727 2.2034478
H -0.7210101 -2.0603945 1.433617
H 1.8673278 -1.59007 0.023211677
H -0.93667865 -1.7436948 -1.2238328
H 0.5882273 -1.7867637 -2.1159363
H 0.1834933 -3.0857823 -0.98726237
