22
title
C 0.9855068 2.5003197 0.67020893
C 1.0206614 0.9693441 0.74629563
C -0.35771292 0.32602224 0.6034785
C -0.96393484 0.1256753 -0.82004
C -0.3029937 0.6810004 -2.066597
O -0.8022409 -1.308011 -0.72103465
C -0.4503165 -1.2253649 0.6785065
C 0.7634171 -2.0682445 1.0181885
H 1.9850122 2.924883 0.8064083
H 0.60684496 2.8492398 -0.2953556
H 0.33721346 2.917051 1.4491196
H 1.7097248 0.57836616 -0.010534553
H 1.4416312 0.67121977 1.7151495
H -1.0489801 0.8248399 1.2901131
H -2.0340948 0.38373712 -0.83618736
H 0.7755868 0.5034782 -2.0708232
H -0.72703403 0.18509392 -2.94594
H -0.48623508 1.7558 -2.1653914
H -1.2991 -1.5479708 1.3012027
H 1.6373335 -1.7735114 0.43173194
H 1.0087922 -1.9862554 2.0825999
H 0.54953796 -3.1198578 0.80168915
