title
 OpenBabel02282110013D

 22 22  0  0  1  0  0  0  0  0999 V2000
    0.7580    2.3742    0.1124 C   0  0  0  0  0  0  0  0  0  0  0  0
    0.7544    0.9903    0.3821 O   0  0  0  0  0  0  0  0  0  0  0  0
   -0.5207    0.3870    0.3086 C   0  0  1  0  0  0  0  0  0  0  0  0
   -0.8245   -0.3127   -1.0624 C   0  0  1  0  0  0  0  0  0  0  0  0
   -0.1515    0.1914   -2.3295 C   0  0  0  0  0  0  0  0  0  0  0  0
   -0.3218   -1.6457   -0.4404 C   0  0  0  0  0  0  0  0  0  0  0  0
   -0.4910   -1.0215    0.9720 C   0  0  1  0  0  0  0  0  0  0  0  0
    0.5467   -1.3062    2.0458 C   0  0  0  0  0  0  0  0  0  0  0  0
    1.7821    2.7287    0.2571 H   0  0  0  0  0  0  0  0  0  0  0  0
    0.4489    2.6045   -0.9167 H   0  0  0  0  0  0  0  0  0  0  0  0
    0.0937    2.9187    0.8014 H   0  0  0  0  0  0  0  0  0  0  0  0
   -1.2822    1.0880    0.6799 H   0  0  0  0  0  0  0  0  0  0  0  0
   -1.9111   -0.3537   -1.2005 H   0  0  0  0  0  0  0  0  0  0  0  0
    0.9184    0.3448   -2.1604 H   0  0  0  0  0  0  0  0  0  0  0  0
   -0.2631   -0.5371   -3.1404 H   0  0  0  0  0  0  0  0  0  0  0  0
   -0.5826    1.1372   -2.6763 H   0  0  0  0  0  0  0  0  0  0  0  0
   -0.8837   -2.5559   -0.6665 H   0  0  0  0  0  0  0  0  0  0  0  0
    0.7338   -1.8196   -0.6746 H   0  0  0  0  0  0  0  0  0  0  0  0
   -1.4950   -1.2420    1.3520 H   0  0  0  0  0  0  0  0  0  0  0  0
    1.5463   -1.0270    1.7039 H   0  0  0  0  0  0  0  0  0  0  0  0
    0.3395   -0.7430    2.9624 H   0  0  0  0  0  0  0  0  0  0  0  0
    0.5528   -2.3714    2.3021 H   0  0  0  0  0  0  0  0  0  0  0  0
  1  9  1  0  0  0  0
  1  2  1  0  0  0  0
  1 11  1  0  0  0  0
  3  2  1  0  0  0  0
  3 12  1  1  0  0  0
  4  6  1  0  0  0  0
  4  3  1  1  0  0  0
  5 14  1  0  0  0  0
  5  4  1  0  0  0  0
  6  7  1  0  0  0  0
  7  3  1  6  0  0  0
  7 19  1  0  0  0  0
  7  8  1  0  0  0  0
  8 22  1  0  0  0  0
  8 21  1  0  0  0  0
 10  1  1  0  0  0  0
 13  4  1  0  0  0  0
 15  5  1  0  0  0  0
 16  5  1  0  0  0  0
 17  6  1  0  0  0  0
 18  6  1  0  0  0  0
 20  8  1  0  0  0  0
M  END
