20
title
C -2.004186 1.2611107 -1.1378404
C -1.1676692 -0.0101309195 -1.0702941
C 0.25619528 -0.0097407065 -1.6990056
C 0.7268864 -0.8998528 -0.52786297
O 2.0133605 -0.6824413 0.037914727
C -0.5368424 -0.47574908 0.28566107
C -0.23340264 0.61036247 1.3159534
O 0.5250715 0.09418024 2.3942983
H -1.4645531 2.1271303 -0.74126995
H -2.2769217 1.4895253 -2.1741107
H -2.933591 1.1572436 -0.5673986
H -1.7462584 -0.8400588 -1.4897517
H 0.3819581 -0.3870109 -2.7164598
H 0.7091696 0.98834956 -1.6423674
H 0.6930671 -1.9618417 -0.7859423
H 2.2477887 0.24091615 -0.10105416
H -1.0553764 -1.2912608 0.7977768
H 0.27917477 1.4668032 0.8423976
H -1.161931 1.0043964 1.7426282
H 1.2961181 -0.32915634 1.9931422
