20
title
C 0.690866 2.5972745 0.7696724
C 0.84568834 1.0907238 1.003199
C -0.39876914 0.29915053 0.62869895
C -0.86183393 0.20781405 -0.852795
O 0.30053705 0.20600171 -1.6845994
C -1.3601177 -1.2317274 -0.55808735
C -0.37854838 -1.2662032 0.651521
O 0.8753264 -1.8388915 0.35205027
H 1.5915306 3.1387157 1.0755675
H 0.5173439 2.8121572 -0.28958547
H -0.15203178 3.0070083 1.3381451
H 1.702098 0.7173619 0.434935
H 1.0731844 0.89692473 2.0591364
H -1.2549896 0.6413717 1.2229686
H -1.5905504 0.9447299 -1.2117913
H 0.031351566 -0.06372034 -2.5690796
H -2.4087481 -1.248527 -0.24717921
H -1.1991694 -1.9830782 -1.3368276
H -0.7259804 -1.7524238 1.5663651
H 1.181862 -1.4145393 -0.46043265
