22
title
C 0.75803167 2.3742025 0.11237643
O 0.7544482 0.99028134 0.38209847
C -0.5207434 0.38697466 0.30860394
C -0.8245085 -0.31274983 -1.0623853
C -0.1514582 0.19137906 -2.3294513
C -0.32184035 -1.6457405 -0.4403879
C -0.4909907 -1.0214611 0.9719851
C 0.5467482 -1.3061543 2.0458229
H 1.782059 2.728708 0.25706485
H 0.4489018 2.6045392 -0.9166542
H 0.09369016 2.9186668 0.80143785
H -1.2822372 1.0880435 0.6799077
H -1.9110934 -0.35370967 -1.2005366
H 0.91844904 0.34483674 -2.1603723
H -0.26310986 -0.53708225 -3.1404183
H -0.5825555 1.1372142 -2.676299
H -0.88366157 -2.55587 -0.6665124
H 0.7337877 -1.819581 -0.67463034
H -1.4949774 -1.2420075 1.3519535
H 1.5462679 -1.0270474 1.7039095
H 0.33946118 -0.742958 2.9624004
H 0.55280614 -2.3713827 2.3021321
