title
 OpenBabel02282110013D

 20 20  0  0  1  0  0  0  0  0999 V2000
    0.6909    2.5973    0.7697 C   0  0  0  0  0  0  0  0  0  0  0  0
    0.8457    1.0907    1.0032 C   0  0  0  0  0  0  0  0  0  0  0  0
   -0.3988    0.2992    0.6287 C   0  0  1  0  0  0  0  0  0  0  0  0
   -0.8618    0.2078   -0.8528 C   0  0  1  0  0  0  0  0  0  0  0  0
    0.3005    0.2060   -1.6846 O   0  0  0  0  0  0  0  0  0  0  0  0
   -1.3601   -1.2317   -0.5581 C   0  0  0  0  0  0  0  0  0  0  0  0
   -0.3785   -1.2662    0.6515 C   0  0  1  0  0  0  0  0  0  0  0  0
    0.8753   -1.8389    0.3521 O   0  0  0  0  0  0  0  0  0  0  0  0
    1.5915    3.1387    1.0756 H   0  0  0  0  0  0  0  0  0  0  0  0
    0.5173    2.8122   -0.2896 H   0  0  0  0  0  0  0  0  0  0  0  0
   -0.1520    3.0070    1.3381 H   0  0  0  0  0  0  0  0  0  0  0  0
    1.7021    0.7174    0.4349 H   0  0  0  0  0  0  0  0  0  0  0  0
    1.0732    0.8969    2.0591 H   0  0  0  0  0  0  0  0  0  0  0  0
   -1.2550    0.6414    1.2230 H   0  0  0  0  0  0  0  0  0  0  0  0
   -1.5906    0.9447   -1.2118 H   0  0  0  0  0  0  0  0  0  0  0  0
    0.0314   -0.0637   -2.5691 H   0  0  0  0  0  0  0  0  0  0  0  0
   -2.4087   -1.2485   -0.2472 H   0  0  0  0  0  0  0  0  0  0  0  0
   -1.1992   -1.9831   -1.3368 H   0  0  0  0  0  0  0  0  0  0  0  0
   -0.7260   -1.7524    1.5664 H   0  0  0  0  0  0  0  0  0  0  0  0
    1.1819   -1.4145   -0.4604 H   0  0  0  0  0  0  0  0  0  0  0  0
  1  2  1  0  0  0  0
  1  9  1  0  0  0  0
  1 11  1  0  0  0  0
  2 13  1  0  0  0  0
  3  2  1  0  0  0  0
  3 14  1  1  0  0  0
  4  6  1  0  0  0  0
  4  3  1  1  0  0  0
  5  4  1  0  0  0  0
  6 17  1  0  0  0  0
  6  7  1  0  0  0  0
  7  3  1  1  0  0  0
  7 19  1  0  0  0  0
  8  7  1  0  0  0  0
 10  1  1  0  0  0  0
 12  2  1  0  0  0  0
 15  4  1  0  0  0  0
 16  5  1  0  0  0  0
 18  6  1  0  0  0  0
 20  8  1  0  0  0  0
M  END
