19
title
C -0.44966963 2.2102818 -0.47364274
N -0.4488048 0.7588922 -0.4959821
C -1.7428464 0.08105661 -0.25981992
C -1.014134 -0.98076326 0.5974122
O -0.7572832 -2.2103097 -0.040800873
C 0.16614433 0.04324313 0.6525893
C 1.5923002 -0.43578294 0.39132392
O 2.3797398 0.58367777 -0.20595327
H 0.57859415 2.580767 -0.47427782
H -0.96052223 2.5983748 -1.3615433
H -0.9579011 2.6198535 0.41969037
H -2.4459457 0.6883779 0.33241522
H -2.257516 -0.27809027 -1.1589646
H -1.4699969 -1.2313429 1.5555664
H -0.47775406 -2.0261245 -0.94426334
H 0.12275488 0.64331603 1.5757908
H 2.0843933 -0.70584124 1.3307804
H 1.5720634 -1.3374108 -0.23666841
H 1.9530244 0.7816113 -1.0477513
