title
 OpenBabel02282110013D

 20 20  0  0  1  0  0  0  0  0999 V2000
   -0.5290    2.3359   -0.6413 C   0  0  0  0  0  0  0  0  0  0  0  0
   -0.7035    0.9335   -0.5346 O   0  0  0  0  0  0  0  0  0  0  0  0
   -0.1070    0.3790    0.6243 C   0  0  1  0  0  0  0  0  0  0  0  0
   -0.6165   -1.0681    0.8781 C   0  0  1  0  0  0  0  0  0  0  0  0
   -2.0081   -1.4490    0.3965 C   0  0  0  0  0  0  0  0  0  0  0  0
    0.6259   -1.6117    0.1155 C   0  0  0  0  0  0  0  0  0  0  0  0
    1.2996   -0.2213    0.2859 C   0  0  1  0  0  0  0  0  0  0  0  0
    1.9852    0.3410   -0.8002 O   0  0  0  0  0  0  0  0  0  0  0  0
    0.5317    2.6138   -0.6842 H   0  0  0  0  0  0  0  0  0  0  0  0
   -1.0222    2.6509   -1.5645 H   0  0  0  0  0  0  0  0  0  0  0  0
   -0.9958    2.8582    0.2070 H   0  0  0  0  0  0  0  0  0  0  0  0
   -0.1759    1.0883    1.4597 H   0  0  0  0  0  0  0  0  0  0  0  0
   -0.5189   -1.2818    1.9482 H   0  0  0  0  0  0  0  0  0  0  0  0
   -2.1451   -1.1761   -0.6528 H   0  0  0  0  0  0  0  0  0  0  0  0
   -2.1681   -2.5279    0.4967 H   0  0  0  0  0  0  0  0  0  0  0  0
   -2.7852   -0.9401    0.9769 H   0  0  0  0  0  0  0  0  0  0  0  0
    1.1429   -2.4831    0.5239 H   0  0  0  0  0  0  0  0  0  0  0  0
    0.3965   -1.8015   -0.9384 H   0  0  0  0  0  0  0  0  0  0  0  0
    1.9781   -0.1908    1.1429 H   0  0  0  0  0  0  0  0  0  0  0  0
    1.3262    0.4453   -1.4983 H   0  0  0  0  0  0  0  0  0  0  0  0
  1  2  1  0  0  0  0
  1 11  1  0  0  0  0
  2  3  1  0  0  0  0
  3  7  1  6  0  0  0
  3 12  1  0  0  0  0
  4  3  1  6  0  0  0
  4 13  1  0  0  0  0
  5 15  1  0  0  0  0
  5  4  1  0  0  0  0
  5 16  1  0  0  0  0
  6  7  1  0  0  0  0
  6 17  1  0  0  0  0
  6  4  1  0  0  0  0
  7 19  1  1  0  0  0
  8  7  1  0  0  0  0
  9  1  1  0  0  0  0
 10  1  1  0  0  0  0
 14  5  1  0  0  0  0
 18  6  1  0  0  0  0
 20  8  1  0  0  0  0
M  END
