20
title
C -1.4997286 0.7227121 -1.3924371
C -0.6204473 -0.4479812 -1.0037521
O 0.7375603 -0.31633008 -1.4955161
C 1.2881507 -0.7254903 -0.22363895
C 2.4451654 0.15134004 0.2174365
C -0.106847845 -0.62746185 0.45125028
C -0.3392221 0.51211864 1.426211
O -1.7105271 0.4679295 1.8020082
H -1.0594777 1.6737579 -1.080725
H -1.620377 0.74997073 -2.4800692
H -2.4855883 0.6257596 -0.92958003
H -1.0674753 -1.3799298 -1.380759
H 1.6295166 -1.7707536 -0.2772351
H 2.1516736 1.2014716 0.29567352
H 2.8378403 -0.18021996 1.1847897
H 3.25453 0.08310764 -0.5164196
H -0.44427732 -1.5506812 0.92855674
H 0.31667754 0.38303652 2.3023484
H -0.085585915 1.4800504 0.97063607
H -1.8909345 1.2204152 2.3730319
