title
 OpenBabel02282110013D

 16 17  0  0  1  0  0  0  0  0999 V2000
   -0.2146   -2.8970   -0.3014 C   0  0  0  0  0  0  0  0  0  0  0  0
   -0.2366   -1.7005   -0.1739 C   0  0  0  0  0  0  0  0  0  0  0  0
   -0.2633   -0.2730   -0.0266 C   0  0  2  0  0  0  0  0  0  0  0  0
   -0.7875    0.5986   -1.2189 C   0  0  0  0  0  0  0  0  0  0  0  0
    0.5101    1.4619   -1.1764 C   0  0  0  0  0  0  0  0  0  0  0  0
    0.9931    0.6738    0.0555 C   0  0  1  0  0  0  0  0  0  0  0  0
    0.5276    1.2374    1.2940 O   0  0  0  0  0  0  0  0  0  0  0  0
   -0.5941    0.3324    1.3588 C   0  0  0  0  0  0  0  0  0  0  0  0
   -0.1929   -3.9530   -0.4108 H   0  0  0  0  0  0  0  0  0  0  0  0
   -0.9079    0.0263   -2.1394 H   0  0  0  0  0  0  0  0  0  0  0  0
   -1.7230    1.1223   -1.0075 H   0  0  0  0  0  0  0  0  0  0  0  0
    1.1458    1.3184   -2.0541 H   0  0  0  0  0  0  0  0  0  0  0  0
    0.3866    2.5312   -0.9948 H   0  0  0  0  0  0  0  0  0  0  0  0
    2.0297    0.3324    0.1107 H   0  0  0  0  0  0  0  0  0  0  0  0
   -1.5552    0.8551    1.4398 H   0  0  0  0  0  0  0  0  0  0  0  0
   -0.4911   -0.3785    2.1867 H   0  0  0  0  0  0  0  0  0  0  0  0
  1  2  3  0  0  0  0
  2  3  1  0  0  0  0
  3  6  1  6  0  0  0
  3  8  1  0  0  0  0
  4  5  1  0  0  0  0
  4 11  1  0  0  0  0
  4  3  1  0  0  0  0
  5 13  1  0  0  0  0
  5  6  1  0  0  0  0
  6 14  1  6  0  0  0
  6  7  1  0  0  0  0
  7  8  1  0  0  0  0
  8 15  1  0  0  0  0
  8 16  1  0  0  0  0
  9  1  1  0  0  0  0
 10  4  1  0  0  0  0
 12  5  1  0  0  0  0
M  END
