16
title
C -0.3870265 -2.8600183 -0.30176592
C -0.32979485 -1.6688689 -0.14247806
C -0.25149968 -0.23568466 0.010432358
C -0.7165395 0.63042104 -1.2021501
N 0.4873067 1.50098 -1.0854675
C 1.055795 0.64683783 -0.016340863
C 0.6550424 1.1588126 1.3817239
N -0.5522215 0.2840508 1.3665555
H -0.43864176 -3.9134293 -0.42514512
H -0.76855135 0.05235574 -2.130914
H -1.6665822 1.1603783 -1.0626659
H 1.0475657 1.4955794 -1.929008
H 2.060376 0.25442478 -0.17647918
H 1.334552 0.8940624 2.199873
H 0.46806598 2.2370098 1.3958119
H -1.4442707 0.76078093 1.4467013
