18
title
O 1.0513945 2.1715746 0.43503547
C 1.0318927 0.77209467 0.65087193
C -0.39926264 0.22446343 0.6145462
C -1.0098974 0.1752151 -0.8129331
O -0.40227076 1.0748639 -1.7242846
C -0.6429144 -1.3304936 -0.9033216
C -0.4987335 -1.3244408 0.6455177
O 0.6193358 -1.9550077 1.2271916
H 0.6964548 2.302987 -0.45254597
H 1.6680646 0.24355903 -0.0724614
H 1.4604449 0.5945102 1.6409856
H -0.9922886 0.7607022 1.3594837
H -2.0967517 0.3277013 -0.79148483
H -0.8121077 0.973364 -2.5884085
H -1.3616621 -2.0157049 -1.3600917
H 0.33730707 -1.4534558 -1.3719515
H -1.4289601 -1.6508414 1.1312145
H 0.4953791 -2.9075756 1.1704851
