16
title
C -0.214613 -2.8970053 -0.30138752
C -0.2365738 -1.7004739 -0.17392738
C -0.26328483 -0.27298155 -0.026611248
C -0.78751427 0.5985859 -1.2188598
C 0.5100759 1.4618584 -1.1763725
C 0.99308115 0.67376024 0.05551894
O 0.5275683 1.2373637 1.2940319
C -0.5941236 0.33244047 1.3587519
H -0.19292419 -3.9529526 -0.4107743
H -0.9079198 0.026321493 -2.1393676
H -1.7230493 1.1222633 -1.007512
H 1.1457659 1.318379 -2.0540636
H 0.38663763 2.531233 -0.9947767
H 2.0296519 0.33236107 0.110677645
H -1.5551792 0.85513073 1.4397781
H -0.49113074 -0.37852076 2.1867409
