18
title
C -0.5563835 2.2685227 0.8171472
O -0.6949 0.8785954 0.56565434
C -0.039241713 0.43746197 -0.613055
C 1.3296723 -0.22862549 -0.25882885
O 2.0001671 0.25844234 0.87340504
C 0.6041702 -1.6023381 -0.17497894
C -0.58944255 -0.9770408 -0.9571731
O -1.9017695 -1.252775 -0.56173766
H 0.49594656 2.5495439 0.94417524
H -0.9872941 2.8616943 -0.0015579805
H -1.1032711 2.483349 1.7385246
H -0.069990255 1.2157573 -1.384785
H 2.0367281 -0.17725404 -1.0908842
H 1.3428509 0.29074806 1.5790629
H 1.1011374 -2.4761755 -0.6005224
H 0.31068274 -1.8252189 0.8557495
H -0.51474667 -1.1779249 -2.0300515
H -2.0665042 -0.69190294 0.20799726
