15
title
C -0.32700983 -2.86313 -0.2165695
C -0.28374878 -1.6651244 -0.11970437
C -0.22167248 -0.23019391 -0.032522112
C -0.74023086 0.6333533 -1.2139857
N 0.42150685 1.5592364 -1.0653994
C 1.0547192 0.67650014 -0.059056286
C 0.6488955 1.0554014 1.3706682
O -0.59071285 0.3058166 1.2601402
H -0.36957422 -3.921762 -0.29196954
H -0.7589356 0.078264184 -2.1583123
H -1.7136164 1.1017343 -1.0409015
H 0.9661793 1.6435689 -1.9146618
H 2.06947 0.3315472 -0.25767505
H 1.287869 0.63966614 2.1598475
H 0.47683695 2.1226766 1.5384816
