11
title
O 0.27964604 2.4913433 0.012070556
C 0.18826696 1.162159 0.0053007854
C -0.96237355 0.46700346 0.007941246
C -0.927427 -0.98913604 -0.0002052618
O -1.904263 -1.7005861 0.0013900507
N 0.38926685 -1.5725746 -0.010774408
C 1.397803 -0.81790227 -0.0123515725
O 1.4033042 0.559262 -0.004812589
H 1.2128637 2.7416277 0.008188254
H -1.911356 0.983719 0.016086912
H 2.421146 -1.1811349 -0.01998191
