15
title
C 0.2620358 2.749691 0.0037857767
C 0.24437751 1.2477883 0.014704735
C -0.89664865 0.52979314 -0.09686514
C -0.9090545 -0.9188947 -0.08599475
N -1.9614986 -1.6228921 -0.18881577
O 0.34059623 -1.5412719 0.048387755
C 1.4707562 -0.8131315 0.15856299
C 1.4932597 0.52816826 0.14942718
H 0.88103074 3.1251209 -0.8197133
H -0.74306774 3.162808 -0.10434013
H 0.6988813 3.1400025 0.9306423
H -1.8667268 1.0000188 -0.20087299
H -1.7348491 -2.6169837 -0.15705188
H 2.3429763 -1.4487808 0.25380385
H 2.4361293 1.0516294 0.24193431
