14
title
C 0.30027506 2.7032726 -0.012567587
C 0.22585778 1.2089001 0.0061466484
C -0.9216788 0.5096824 -0.1278698
C -0.92283297 -0.9350849 -0.10070221
N -1.9442947 -1.6732831 -0.21778347
O 0.3550111 -1.5077839 0.0740585
C 1.430895 -0.7109397 0.19696939
N 1.4583033 0.56240886 0.17642203
H 0.9618139 3.0357769 -0.82001466
H -0.6839124 3.1559818 -0.1470397
H 0.73897195 3.0687551 0.9223721
H -1.8822815 0.9900839 -0.26018336
H -1.6930795 -2.660421 -0.166938
H 2.336295 -1.2979634 0.32417327
