title
 OpenBabel02282109573D

 14 14  0  0  0  0  0  0  0  0999 V2000
    0.3003    2.7033   -0.0126 C   0  0  0  0  0  0  0  0  0  0  0  0
    0.2259    1.2089    0.0061 C   0  0  0  0  0  0  0  0  0  0  0  0
   -0.9217    0.5097   -0.1279 C   0  0  0  0  0  0  0  0  0  0  0  0
   -0.9228   -0.9351   -0.1007 C   0  0  0  0  0  0  0  0  0  0  0  0
   -1.9443   -1.6733   -0.2178 N   0  0  0  0  0  0  0  0  0  0  0  0
    0.3550   -1.5078    0.0741 O   0  0  0  0  0  0  0  0  0  0  0  0
    1.4309   -0.7109    0.1970 C   0  0  0  0  0  0  0  0  0  0  0  0
    1.4583    0.5624    0.1764 N   0  0  0  0  0  0  0  0  0  0  0  0
    0.9618    3.0358   -0.8200 H   0  0  0  0  0  0  0  0  0  0  0  0
   -0.6839    3.1560   -0.1470 H   0  0  0  0  0  0  0  0  0  0  0  0
    0.7390    3.0688    0.9224 H   0  0  0  0  0  0  0  0  0  0  0  0
   -1.8823    0.9901   -0.2602 H   0  0  0  0  0  0  0  0  0  0  0  0
   -1.6931   -2.6604   -0.1669 H   0  0  0  0  0  0  0  0  0  0  0  0
    2.3363   -1.2980    0.3242 H   0  0  0  0  0  0  0  0  0  0  0  0
  1  2  1  0  0  0  0
  1 11  1  0  0  0  0
  2  8  1  0  0  0  0
  3  4  1  0  0  0  0
  3  2  2  0  0  0  0
  4  6  1  0  0  0  0
  5 13  1  0  0  0  0
  5  4  2  0  0  0  0
  6  7  1  0  0  0  0
  7 14  1  0  0  0  0
  8  7  2  0  0  0  0
  9  1  1  0  0  0  0
 10  1  1  0  0  0  0
 12  3  1  0  0  0  0
M  END
