15
title
C -0.038705815 2.7363033 0.32868284
C -0.0123468265 1.2308118 0.29730573
C -0.04197696 0.5398267 -0.88033724
C -0.017236164 -0.90817666 -0.946051
O -0.04048799 -1.602251 -1.949816
N 0.040001933 -1.513588 0.3271484
C 0.07010942 -0.8431134 1.5100144
C 0.045699123 0.51421565 1.536566
H 0.8559221 3.1304517 0.8243999
H -0.08829663 3.158733 -0.6770386
H -0.9025097 3.098387 0.89795804
H -0.08607742 1.051196 -1.8349142
H 0.058074906 -2.523562 0.30633682
H 0.11367622 -1.4539559 2.4039898
H 0.06993086 1.039609 2.4823015
