title
 OpenBabel02282109573D

 14 14  0  0  0  0  0  0  0  0999 V2000
    0.2981    2.6979    0.0383 C   0  0  0  0  0  0  0  0  0  0  0  0
    0.2512    1.1978    0.0330 C   0  0  0  0  0  0  0  0  0  0  0  0
   -0.9105    0.5013   -0.1279 C   0  0  0  0  0  0  0  0  0  0  0  0
   -0.9309   -0.9444   -0.1283 C   0  0  0  0  0  0  0  0  0  0  0  0
   -1.8836   -1.6881   -0.2599 O   0  0  0  0  0  0  0  0  0  0  0  0
    0.3713   -1.4754    0.0540 N   0  0  0  0  0  0  0  0  0  0  0  0
    1.4773   -0.7105    0.2067 C   0  0  0  0  0  0  0  0  0  0  0  0
    1.4793    0.5835    0.2049 N   0  0  0  0  0  0  0  0  0  0  0  0
    0.9621    3.0538   -0.7565 H   0  0  0  0  0  0  0  0  0  0  0  0
   -0.6919    3.1365   -0.0998 H   0  0  0  0  0  0  0  0  0  0  0  0
    0.7198    3.0547    0.9838 H   0  0  0  0  0  0  0  0  0  0  0  0
   -1.8610    1.0026   -0.2613 H   0  0  0  0  0  0  0  0  0  0  0  0
    0.4334   -2.4850    0.0644 H   0  0  0  0  0  0  0  0  0  0  0  0
    2.4131   -1.2495    0.3379 H   0  0  0  0  0  0  0  0  0  0  0  0
  1 11  1  0  0  0  0
  2  1  1  0  0  0  0
  2  8  1  0  0  0  0
  3  2  2  0  0  0  0
  4  3  1  0  0  0  0
  4  6  1  0  0  0  0
  5  4  2  0  0  0  0
  6 13  1  0  0  0  0
  6  7  1  0  0  0  0
  7 14  1  0  0  0  0
  8  7  2  0  0  0  0
  9  1  1  0  0  0  0
 10  1  1  0  0  0  0
 12  3  1  0  0  0  0
M  END
