14
title
C -0.04066027 2.7487571 0.32693547
C -0.013369016 1.24698 0.28559262
C -0.044212967 0.5530439 -0.88297474
C -0.01824494 -0.8924438 -0.93729067
O -0.04143468 -1.596269 -1.909775
O 0.041917074 -1.5333618 0.32321274
C 0.07166951 -0.83611095 1.4656711
C 0.047587734 0.5094403 1.5181704
H 0.8527894 3.13702 0.82931846
H -0.088885196 3.178945 -0.6753684
H -0.9054006 3.103262 0.8995557
H -0.090306155 1.0503536 -1.8443294
H 0.11707174 -1.4844533 2.3336117
H 0.07406728 1.0132241 2.4756892
