14
title
C -0.043012306 2.669639 0.296567
C -0.013029259 1.1686119 0.28110266
N -0.04431477 0.5650035 -0.86576086
C -0.018854534 -0.81164616 -0.9285905
N -0.046555743 -1.4540896 -2.017198
O 0.042346295 -1.5462761 0.29481116
C 0.073298216 -0.89063734 1.4583375
C 0.049105432 0.45022613 1.534879
H 0.84889275 3.0637732 0.7975083
H -0.08921672 3.0542297 -0.7221071
H -0.9100379 3.0279496 0.8637263
H -0.019295078 -2.4570558 -1.8375987
H 0.119123 -1.5656896 2.3066995
H 0.07504946 0.95767176 2.488902
