13
title
C 0.2722839 2.6327314 -0.002981879
C 0.23171367 1.1391301 0.016280796
N -0.89298195 0.5250893 -0.14639449
C -0.9144195 -0.85113287 -0.12628953
N -1.9537537 -1.5468023 -0.27445537
O 0.34309468 -1.5106189 0.07847091
C 1.428046 -0.7553332 0.2327852
N 1.4742192 0.5220885 0.21815063
H 0.95202595 2.9715254 -0.7922658
H -0.7242597 3.041895 -0.1631339
H 0.68554175 3.001165 0.94214386
H -1.734961 -2.5407298 -0.22386605
H 2.3226285 -1.3567257 0.3808716
