title
 OpenBabel02282109573D

 13 13  0  0  0  0  0  0  0  0999 V2000
    0.2723    2.6327   -0.0030 C   0  0  0  0  0  0  0  0  0  0  0  0
    0.2317    1.1391    0.0163 C   0  0  0  0  0  0  0  0  0  0  0  0
   -0.8930    0.5251   -0.1464 N   0  0  0  0  0  0  0  0  0  0  0  0
   -0.9144   -0.8511   -0.1263 C   0  0  0  0  0  0  0  0  0  0  0  0
   -1.9538   -1.5468   -0.2745 N   0  0  0  0  0  0  0  0  0  0  0  0
    0.3431   -1.5106    0.0785 O   0  0  0  0  0  0  0  0  0  0  0  0
    1.4280   -0.7553    0.2328 C   0  0  0  0  0  0  0  0  0  0  0  0
    1.4742    0.5221    0.2182 N   0  0  0  0  0  0  0  0  0  0  0  0
    0.9520    2.9715   -0.7923 H   0  0  0  0  0  0  0  0  0  0  0  0
   -0.7243    3.0419   -0.1631 H   0  0  0  0  0  0  0  0  0  0  0  0
    0.6855    3.0012    0.9421 H   0  0  0  0  0  0  0  0  0  0  0  0
   -1.7350   -2.5407   -0.2239 H   0  0  0  0  0  0  0  0  0  0  0  0
    2.3226   -1.3567    0.3809 H   0  0  0  0  0  0  0  0  0  0  0  0
  1  2  1  0  0  0  0
  1 11  1  0  0  0  0
  2  8  1  0  0  0  0
  3  4  2  0  0  0  0
  3  2  2  0  0  0  0
  4  6  1  0  0  0  0
  5 12  1  0  0  0  0
  5  4  1  0  0  0  0
  6  7  1  0  0  0  0
  7 13  1  0  0  0  0
  8  7  2  0  0  0  0
  9  1  1  0  0  0  0
 10  1  1  0  0  0  0
M  RAD  1   5   2
M  END
