title
 OpenBabel02282109573D

 14 14  0  0  0  0  0  0  0  0999 V2000
   -0.0364    2.6627    0.3061 C   0  0  0  0  0  0  0  0  0  0  0  0
   -0.0093    1.1570    0.3045 C   0  0  0  0  0  0  0  0  0  0  0  0
   -0.0427    0.5559   -0.8577 N   0  0  0  0  0  0  0  0  0  0  0  0
   -0.0204   -0.8274   -0.9339 C   0  0  0  0  0  0  0  0  0  0  0  0
   -0.0481   -1.4707   -1.9597 O   0  0  0  0  0  0  0  0  0  0  0  0
    0.0391   -1.5126    0.3083 N   0  0  0  0  0  0  0  0  0  0  0  0
    0.0735   -0.8924    1.5080 C   0  0  0  0  0  0  0  0  0  0  0  0
    0.0508    0.4649    1.5570 C   0  0  0  0  0  0  0  0  0  0  0  0
    0.8576    3.0619    0.7988 H   0  0  0  0  0  0  0  0  0  0  0  0
   -0.0838    3.0348   -0.7170 H   0  0  0  0  0  0  0  0  0  0  0  0
   -0.9020    3.0303    0.8689 H   0  0  0  0  0  0  0  0  0  0  0  0
    0.0545   -2.5199    0.2356 H   0  0  0  0  0  0  0  0  0  0  0  0
    0.1182   -1.5282    2.3854 H   0  0  0  0  0  0  0  0  0  0  0  0
    0.0770    0.9947    2.4987 H   0  0  0  0  0  0  0  0  0  0  0  0
  1  9  1  0  0  0  0
  1 11  1  0  0  0  0
  2  1  1  0  0  0  0
  2  8  1  0  0  0  0
  3  2  2  0  0  0  0
  4  3  1  0  0  0  0
  4  6  1  0  0  0  0
  5  4  2  0  0  0  0
  6  7  1  0  0  0  0
  7  8  2  0  0  0  0
  7 13  1  0  0  0  0
  8 14  1  0  0  0  0
 10  1  1  0  0  0  0
 12  6  1  0  0  0  0
M  END
