title
 OpenBabel02282109573D

 13 13  0  0  0  0  0  0  0  0999 V2000
   -0.0366    2.6210    0.3252 C   0  0  0  0  0  0  0  0  0  0  0  0
   -0.0100    1.1233    0.2799 C   0  0  0  0  0  0  0  0  0  0  0  0
   -0.0473    0.5326   -0.8830 N   0  0  0  0  0  0  0  0  0  0  0  0
   -0.0232   -0.8491   -0.9417 C   0  0  0  0  0  0  0  0  0  0  0  0
   -0.0522   -1.5204   -1.9437 O   0  0  0  0  0  0  0  0  0  0  0  0
    0.0424   -1.4859    0.3312 N   0  0  0  0  0  0  0  0  0  0  0  0
    0.0770   -0.7844    1.4778 C   0  0  0  0  0  0  0  0  0  0  0  0
    0.0539    0.5111    1.5200 N   0  0  0  0  0  0  0  0  0  0  0  0
    0.8579    2.9897    0.8381 H   0  0  0  0  0  0  0  0  0  0  0  0
   -0.0889    3.0340   -0.6812 H   0  0  0  0  0  0  0  0  0  0  0  0
   -0.8955    2.9563    0.9158 H   0  0  0  0  0  0  0  0  0  0  0  0
    0.0616   -2.4967    0.3248 H   0  0  0  0  0  0  0  0  0  0  0  0
    0.1268   -1.3584    2.4013 H   0  0  0  0  0  0  0  0  0  0  0  0
  1  9  1  0  0  0  0
  1 11  1  0  0  0  0
  2  1  1  0  0  0  0
  2  8  1  0  0  0  0
  3  2  2  0  0  0  0
  4  3  1  0  0  0  0
  4  6  1  0  0  0  0
  5  4  2  0  0  0  0
  6  7  1  0  0  0  0
  7  8  2  0  0  0  0
  7 13  1  0  0  0  0
 10  1  1  0  0  0  0
 12  6  1  0  0  0  0
M  END
