title
 OpenBabel02282109573D

 13 13  0  0  0  0  0  0  0  0999 V2000
   -0.0389    2.6737    0.3038 C   0  0  0  0  0  0  0  0  0  0  0  0
   -0.0104    1.1725    0.2964 C   0  0  0  0  0  0  0  0  0  0  0  0
   -0.0449    0.5685   -0.8599 N   0  0  0  0  0  0  0  0  0  0  0  0
   -0.0218   -0.8054   -0.9329 C   0  0  0  0  0  0  0  0  0  0  0  0
   -0.0486   -1.4690   -1.9234 O   0  0  0  0  0  0  0  0  0  0  0  0
    0.0414   -1.5336    0.3066 O   0  0  0  0  0  0  0  0  0  0  0  0
    0.0751   -0.8847    1.4639 C   0  0  0  0  0  0  0  0  0  0  0  0
    0.0525    0.4613    1.5412 C   0  0  0  0  0  0  0  0  0  0  0  0
    0.8532    3.0683    0.8034 H   0  0  0  0  0  0  0  0  0  0  0  0
   -0.0845    3.0533   -0.7166 H   0  0  0  0  0  0  0  0  0  0  0  0
   -0.9059    3.0343    0.8691 H   0  0  0  0  0  0  0  0  0  0  0  0
    0.1217   -1.5560    2.3161 H   0  0  0  0  0  0  0  0  0  0  0  0
    0.0806    0.9697    2.4946 H   0  0  0  0  0  0  0  0  0  0  0  0
  1  9  1  0  0  0  0
  1 11  1  0  0  0  0
  2  1  1  0  0  0  0
  2  8  2  0  0  0  0
  3  2  1  0  0  0  0
  4  3  2  0  0  0  0
  4  6  1  0  0  0  0
  5  4  2  0  0  0  0
  6  7  1  0  0  0  0
  7  8  1  0  0  0  0
  7 12  1  0  0  0  0
  8 13  1  0  0  0  0
 10  1  1  0  0  0  0
M  RAD  1   7   2
M  END
