title
 OpenBabel02282109573D

 12 12  0  0  0  0  0  0  0  0999 V2000
   -0.0389    2.6313    0.3257 C   0  0  0  0  0  0  0  0  0  0  0  0
   -0.0112    1.1382    0.2701 C   0  0  0  0  0  0  0  0  0  0  0  0
   -0.0500    0.5459   -0.8880 N   0  0  0  0  0  0  0  0  0  0  0  0
   -0.0246   -0.8252   -0.9438 C   0  0  0  0  0  0  0  0  0  0  0  0
   -0.0528   -1.5213   -1.9063 O   0  0  0  0  0  0  0  0  0  0  0  0
    0.0451   -1.5054    0.3342 O   0  0  0  0  0  0  0  0  0  0  0  0
    0.0786   -0.7777    1.4368 C   0  0  0  0  0  0  0  0  0  0  0  0
    0.0558    0.5053    1.5034 N   0  0  0  0  0  0  0  0  0  0  0  0
    0.8555    2.9931    0.8441 H   0  0  0  0  0  0  0  0  0  0  0  0
   -0.0922    3.0536   -0.6765 H   0  0  0  0  0  0  0  0  0  0  0  0
   -0.8971    2.9578    0.9226 H   0  0  0  0  0  0  0  0  0  0  0  0
    0.1307   -1.3876    2.3366 H   0  0  0  0  0  0  0  0  0  0  0  0
  1  9  1  0  0  0  0
  1 11  1  0  0  0  0
  2  1  1  0  0  0  0
  2  8  1  0  0  0  0
  3  2  2  0  0  0  0
  4  3  2  0  0  0  0
  4  6  1  0  0  0  0
  5  4  2  0  0  0  0
  6  7  1  0  0  0  0
  7  8  2  0  0  0  0
  7 12  1  0  0  0  0
 10  1  1  0  0  0  0
M  END
