12
title
C -0.038867056 2.6312826 0.32574263
C -0.01122023 1.1381826 0.27006608
N -0.050046727 0.54594517 -0.8879555
C -0.024623191 -0.8252126 -0.9437824
O -0.05284106 -1.52133 -1.9063032
O 0.04508952 -1.5054184 0.33423525
C 0.07864091 -0.77767396 1.4367529
N 0.05575445 0.50527555 1.5033594
H 0.8555183 2.9930937 0.84405524
H -0.09221981 3.0535579 -0.6764966
H -0.8970872 2.957786 0.92264605
H 0.13067414 -1.3876458 2.3366053
