14
title
N 0.2851843 2.6151881 0.14042936
C 0.24419913 1.2407428 0.03660245
C -0.91445106 0.5241803 0.015841145
C -0.9266022 -0.9133418 -0.025231674
N -1.9746586 -1.6332076 -0.040833738
O 0.33934534 -1.5413189 -0.057954676
C 1.4692487 -0.81637865 -0.04077111
C 1.5014433 0.52367675 0.0054043336
H 1.1073717 3.0724118 -0.2215431
H -0.57052964 3.107846 -0.06532177
H -1.8856674 1.0027311 0.03344584
H -1.7303861 -2.6221716 -0.07623131
H 2.350193 -1.4472439 -0.06794502
H 2.44937 1.0454183 0.030659948
