title
 OpenBabel02282109573D

 13 13  0  0  0  0  0  0  0  0999 V2000
    0.3156    2.5604    0.1162 N   0  0  0  0  0  0  0  0  0  0  0  0
    0.2191    1.2015    0.0321 C   0  0  0  0  0  0  0  0  0  0  0  0
   -0.9510    0.5029    0.0115 C   0  0  0  0  0  0  0  0  0  0  0  0
   -0.9428   -0.9288   -0.0237 C   0  0  0  0  0  0  0  0  0  0  0  0
   -1.9529   -1.6939   -0.0413 N   0  0  0  0  0  0  0  0  0  0  0  0
    0.3640   -1.5015   -0.0426 O   0  0  0  0  0  0  0  0  0  0  0  0
    1.4362   -0.7080   -0.0304 C   0  0  0  0  0  0  0  0  0  0  0  0
    1.4632    0.5674    0.0055 N   0  0  0  0  0  0  0  0  0  0  0  0
    1.2118    2.9529   -0.1214 H   0  0  0  0  0  0  0  0  0  0  0  0
   -0.4938    3.1181   -0.0976 H   0  0  0  0  0  0  0  0  0  0  0  0
   -1.9179    0.9879    0.0271 H   0  0  0  0  0  0  0  0  0  0  0  0
   -1.6715   -2.6727   -0.0679 H   0  0  0  0  0  0  0  0  0  0  0  0
    2.3574   -1.2842   -0.0565 H   0  0  0  0  0  0  0  0  0  0  0  0
  2  1  1  0  0  0  0
  3 11  1  0  0  0  0
  3  2  2  0  0  0  0
  4  3  1  0  0  0  0
  5  4  2  0  0  0  0
  6  7  1  0  0  0  0
  6  4  1  0  0  0  0
  7  8  2  0  0  0  0
  8  2  1  0  0  0  0
  9  1  1  0  0  0  0
 10  1  1  0  0  0  0
 12  5  1  0  0  0  0
 13  7  1  0  0  0  0
M  END
