title
 OpenBabel02282109573D

 14 14  0  0  0  0  0  0  0  0999 V2000
    0.2901    2.6076    0.1394 N   0  0  0  0  0  0  0  0  0  0  0  0
    0.2727    1.2308    0.0382 C   0  0  0  0  0  0  0  0  0  0  0  0
   -0.9029    0.5162    0.0156 C   0  0  0  0  0  0  0  0  0  0  0  0
   -0.9371   -0.9203   -0.0281 C   0  0  0  0  0  0  0  0  0  0  0  0
   -1.9223   -1.6432   -0.0502 O   0  0  0  0  0  0  0  0  0  0  0  0
    0.3530   -1.5103   -0.0538 N   0  0  0  0  0  0  0  0  0  0  0  0
    1.5196   -0.8185   -0.0366 C   0  0  0  0  0  0  0  0  0  0  0  0
    1.5292    0.5375    0.0091 C   0  0  0  0  0  0  0  0  0  0  0  0
    1.1138    3.0773   -0.2020 H   0  0  0  0  0  0  0  0  0  0  0  0
   -0.5681    3.0859   -0.0875 H   0  0  0  0  0  0  0  0  0  0  0  0
   -1.8645    1.0159    0.0331 H   0  0  0  0  0  0  0  0  0  0  0  0
    0.3478   -2.5193   -0.0885 H   0  0  0  0  0  0  0  0  0  0  0  0
    2.4285   -1.4083   -0.0608 H   0  0  0  0  0  0  0  0  0  0  0  0
    2.4653    1.0795    0.0352 H   0  0  0  0  0  0  0  0  0  0  0  0
  2  1  1  0  0  0  0
  3 11  1  0  0  0  0
  3  2  2  0  0  0  0
  4  3  1  0  0  0  0
  5  4  2  0  0  0  0
  6  7  1  0  0  0  0
  6  4  1  0  0  0  0
  7  8  2  0  0  0  0
  8 14  1  0  0  0  0
  8  2  1  0  0  0  0
  9  1  1  0  0  0  0
 10  1  1  0  0  0  0
 12  6  1  0  0  0  0
 13  7  1  0  0  0  0
M  END
