13
title
N 0.30943328 2.5540607 0.1162235
C 0.24648024 1.1919459 0.03333641
C -0.9398964 0.49226677 0.010920227
C -0.9478691 -0.93790716 -0.026905637
O -1.8951896 -1.7031432 -0.049060877
N 0.3786635 -1.4712077 -0.040988334
C 1.4872248 -0.70662874 -0.025961287
N 1.488444 0.5880619 0.009913418
H 1.2012501 2.9670186 -0.10295223
H -0.50898343 3.0936337 -0.10881406
H -1.8982893 0.99557465 0.027330901
H 0.44004402 -2.4795794 -0.07010414
H 2.4373596 -1.2358466 -0.04737832
