title
 OpenBabel02282109573D

 13 13  0  0  0  0  0  0  0  0999 V2000
    0.3094    2.5541    0.1162 N   0  0  0  0  0  0  0  0  0  0  0  0
    0.2465    1.1919    0.0333 C   0  0  0  0  0  0  0  0  0  0  0  0
   -0.9399    0.4923    0.0109 C   0  0  0  0  0  0  0  0  0  0  0  0
   -0.9479   -0.9379   -0.0269 C   0  0  0  0  0  0  0  0  0  0  0  0
   -1.8952   -1.7031   -0.0491 O   0  0  0  0  0  0  0  0  0  0  0  0
    0.3787   -1.4712   -0.0410 N   0  0  0  0  0  0  0  0  0  0  0  0
    1.4872   -0.7066   -0.0260 C   0  0  0  0  0  0  0  0  0  0  0  0
    1.4884    0.5881    0.0099 N   0  0  0  0  0  0  0  0  0  0  0  0
    1.2013    2.9670   -0.1030 H   0  0  0  0  0  0  0  0  0  0  0  0
   -0.5090    3.0936   -0.1088 H   0  0  0  0  0  0  0  0  0  0  0  0
   -1.8983    0.9956    0.0273 H   0  0  0  0  0  0  0  0  0  0  0  0
    0.4400   -2.4796   -0.0701 H   0  0  0  0  0  0  0  0  0  0  0  0
    2.4374   -1.2358   -0.0474 H   0  0  0  0  0  0  0  0  0  0  0  0
  2  1  1  0  0  0  0
  3 11  1  0  0  0  0
  3  2  2  0  0  0  0
  4  3  1  0  0  0  0
  5  4  2  0  0  0  0
  6  4  1  0  0  0  0
  6  7  1  0  0  0  0
  7  8  2  0  0  0  0
  8  2  1  0  0  0  0
  9  1  1  0  0  0  0
 10  1  1  0  0  0  0
 12  6  1  0  0  0  0
 13  7  1  0  0  0  0
M  END
