13
title
N 0.2865778 2.6146176 -0.100496255
C 0.26065424 1.2478571 -0.025595218
C -0.9075901 0.528103 0.00022873866
C -0.9334765 -0.9023319 0.025873872
O -1.8822784 -1.6394379 0.04838756
O 0.35432252 -1.5298262 0.0316026
C 1.4754684 -0.81040627 0.009399361
C 1.5110855 0.5349956 -0.019284204
H 1.1316012 3.0899444 0.16953696
H -0.5645683 3.1150966 0.09832042
H -1.8748484 1.0157368 -0.0006590111
H 2.362831 -1.4345207 0.017142586
H 2.459378 1.0559202 -0.045728777
