title
 OpenBabel02282109573D

 12 12  0  0  0  0  0  0  0  0999 V2000
    0.3132    2.5580    0.0796 N   0  0  0  0  0  0  0  0  0  0  0  0
    0.2344    1.2069    0.0240 C   0  0  0  0  0  0  0  0  0  0  0  0
   -0.9472    0.5054    0.0094 C   0  0  0  0  0  0  0  0  0  0  0  0
   -0.9520   -0.9167   -0.0174 C   0  0  0  0  0  0  0  0  0  0  0  0
   -1.8575   -1.6997   -0.0317 O   0  0  0  0  0  0  0  0  0  0  0  0
    0.3850   -1.4890   -0.0314 O   0  0  0  0  0  0  0  0  0  0  0  0
    1.4460   -0.7004   -0.0208 C   0  0  0  0  0  0  0  0  0  0  0  0
    1.4715    0.5824    0.0056 N   0  0  0  0  0  0  0  0  0  0  0  0
    1.2171    2.9772   -0.0570 H   0  0  0  0  0  0  0  0  0  0  0  0
   -0.5053    3.1255   -0.0515 H   0  0  0  0  0  0  0  0  0  0  0  0
   -1.9102    0.9990    0.0217 H   0  0  0  0  0  0  0  0  0  0  0  0
    2.3763   -1.2637   -0.0384 H   0  0  0  0  0  0  0  0  0  0  0  0
  2  1  1  0  0  0  0
  3 11  1  0  0  0  0
  3  2  2  0  0  0  0
  4  3  1  0  0  0  0
  5  4  2  0  0  0  0
  6  7  1  0  0  0  0
  6  4  1  0  0  0  0
  7  8  2  0  0  0  0
  8  2  1  0  0  0  0
  9  1  1  0  0  0  0
 10  1  1  0  0  0  0
 12  7  1  0  0  0  0
M  END
