12
title
N 0.31318852 2.557995 0.07956811
C 0.23443046 1.2069235 0.023979561
C -0.9472122 0.5054199 0.009432431
C -0.95198023 -0.91674244 -0.017400239
O -1.8574984 -1.6996542 -0.03172738
O 0.3850428 -1.4889826 -0.03136148
C 1.4460168 -0.70040584 -0.020799084
N 1.4714836 0.5823614 0.0056030224
H 1.2171009 2.977164 -0.057007965
H -0.50533086 3.125515 -0.051479425
H -1.910218 0.9990008 0.021743737
H 2.376287 -1.2637426 -0.038387988
