title
 OpenBabel02282109573D

 12 12  0  0  0  0  0  0  0  0999 V2000
    0.2858    2.4658    0.0115 N   0  0  0  0  0  0  0  0  0  0  0  0
    0.2615    1.1195    0.0045 C   0  0  0  0  0  0  0  0  0  0  0  0
   -0.9077    0.5145    0.0077 N   0  0  0  0  0  0  0  0  0  0  0  0
   -0.9391   -0.8500    0.0006 C   0  0  0  0  0  0  0  0  0  0  0  0
   -1.9199   -1.5572    0.0024 O   0  0  0  0  0  0  0  0  0  0  0  0
    0.3554   -1.4740   -0.0098 N   0  0  0  0  0  0  0  0  0  0  0  0
    1.4901   -0.7573   -0.0122 C   0  0  0  0  0  0  0  0  0  0  0  0
    1.5200    0.5383   -0.0055 N   0  0  0  0  0  0  0  0  0  0  0  0
    1.1678    2.9450    0.0092 H   0  0  0  0  0  0  0  0  0  0  0  0
   -0.5819    2.9720    0.0190 H   0  0  0  0  0  0  0  0  0  0  0  0
    0.3619   -2.4837   -0.0151 H   0  0  0  0  0  0  0  0  0  0  0  0
    2.4251   -1.3144   -0.0203 H   0  0  0  0  0  0  0  0  0  0  0  0
  1 10  1  0  0  0  0
  2  3  2  0  0  0  0
  2  1  1  0  0  0  0
  4  5  2  0  0  0  0
  4  3  1  0  0  0  0
  6  4  1  0  0  0  0
  7  6  1  0  0  0  0
  7  8  2  0  0  0  0
  8  2  1  0  0  0  0
  9  1  1  0  0  0  0
 11  6  1  0  0  0  0
 12  7  1  0  0  0  0
M  END
