12
title
N 0.2858321 2.4657557 0.011469884
C 0.26150128 1.1195349 0.004475652
N -0.90769064 0.5144948 0.0076990207
C -0.93909156 -0.8499865 0.0005978255
O -1.9198886 -1.5572114 0.002374163
N 0.35536432 -1.4740498 -0.009757092
C 1.4901158 -0.75734013 -0.012182255
N 1.5199537 0.5382631 -0.0055118403
H 1.1678169 2.9450436 0.009226465
H -0.5818613 2.9720018 0.01897797
H 0.36185864 -2.4836686 -0.015120436
H 2.4250503 -1.31444 -0.020254247
