11
title
N 0.28658712 2.4732192 0.01155583
C 0.25435898 1.1333977 0.004663278
N -0.9130011 0.52789515 0.007854114
C -0.9529751 -0.8200134 0.0010093253
O -1.8854958 -1.5581874 0.0019148992
O 0.36700302 -1.4957832 -0.00994485
C 1.4500341 -0.7526779 -0.011980046
N 1.5032376 0.5332687 -0.005410099
H 1.1731871 2.9453719 0.009194554
H -0.5774909 2.9872713 0.019043367
H 2.36801 -1.3386654 -0.020168414
