14
title
O 0.36969838 -2.5517778 0.024412865
C 0.3453182 -1.3241227 0.011052781
C -0.8872817 -0.54307914 0.017795432
C -0.8871425 0.81717443 -0.0035351429
N -2.0220747 1.6276789 -0.08308063
H -2.8780193 1.0943933 -0.014102851
H -2.0321314 2.3862848 0.5889968
N 0.3015078 1.5085764 -0.0029864924
C 1.5073583 0.8435061 -0.0053295647
C 1.5662355 -0.50239766 0.009935764
H -1.8266242 -1.0825232 0.05584794
H 0.27914605 2.498281 -0.18593502
H 2.3816924 1.4834511 -0.0149942115
H 2.5216064 -1.0116415 0.022171777
