title
 OpenBabel02282109573D

 14 14  0  0  0  0  0  0  0  0999 V2000
    0.3697   -2.5518    0.0244 O   0  0  0  0  0  0  0  0  0  0  0  0
    0.3453   -1.3241    0.0111 C   0  0  0  0  0  0  0  0  0  0  0  0
   -0.8873   -0.5431    0.0178 C   0  0  0  0  0  0  0  0  0  0  0  0
   -0.8871    0.8172   -0.0035 C   0  0  0  0  0  0  0  0  0  0  0  0
   -2.0221    1.6277   -0.0831 N   0  0  0  0  0  0  0  0  0  0  0  0
   -2.8780    1.0944   -0.0141 H   0  0  0  0  0  0  0  0  0  0  0  0
   -2.0321    2.3863    0.5890 H   0  0  0  0  0  0  0  0  0  0  0  0
    0.3015    1.5086   -0.0030 N   0  0  0  0  0  0  0  0  0  0  0  0
    1.5074    0.8435   -0.0053 C   0  0  0  0  0  0  0  0  0  0  0  0
    1.5662   -0.5024    0.0099 C   0  0  0  0  0  0  0  0  0  0  0  0
   -1.8266   -1.0825    0.0558 H   0  0  0  0  0  0  0  0  0  0  0  0
    0.2791    2.4983   -0.1859 H   0  0  0  0  0  0  0  0  0  0  0  0
    2.3817    1.4835   -0.0150 H   0  0  0  0  0  0  0  0  0  0  0  0
    2.5216   -1.0116    0.0222 H   0  0  0  0  0  0  0  0  0  0  0  0
  2  3  1  0  0  0  0
  2  1  2  0  0  0  0
  3 11  1  0  0  0  0
  4  8  1  0  0  0  0
  4  3  2  0  0  0  0
  5  6  1  0  0  0  0
  5  4  1  0  0  0  0
  5  7  1  0  0  0  0
  9  8  1  0  0  0  0
  9 10  2  0  0  0  0
 10  2  1  0  0  0  0
 10 14  1  0  0  0  0
 12  8  1  0  0  0  0
 13  9  1  0  0  0  0
M  END
