13
title
O 0.22917056 2.566538 0.013015985
C 0.24969485 1.2134964 0.0053499453
C -0.9151519 0.52223116 0.008068216
C -0.93415457 -0.9186371 0.00015953352
N -1.9843712 -1.631988 0.0020855097
O 0.33155248 -1.5524704 -0.010511167
C 1.4665288 -0.8394061 -0.012949401
C 1.5063112 0.50328803 -0.005693125
H 1.1304303 2.9045718 0.009753046
H -1.8714724 1.026243 0.016260413
H -1.7484591 -2.6237326 -0.0047743027
H 2.3433707 -1.4762306 -0.021446707
H 2.4578729 1.0205666 -0.008177985
