12
title
O 0.27241576 2.5053554 0.011663936
C 0.24912181 1.1644 0.00474263
C -0.94286734 0.49391612 0.007717589
C -0.9576108 -0.94131356 0.00018359354
O -1.9063667 -1.7006458 0.0015555571
N 0.36916333 -1.480889 -0.009774527
C 1.4836948 -0.7288336 -0.011905622
N 1.4845228 0.56951064 -0.0051267836
H 1.2047588 2.762725 0.007924074
H -1.8855499 1.0224928 0.015678272
H 0.42302632 -2.4905608 -0.0153223835
H 2.4311588 -1.2616874 -0.019830002
