title
 OpenBabel02282109573D

 11 11  0  0  0  0  0  0  0  0999 V2000
    0.2768    2.5123    0.0118 O   0  0  0  0  0  0  0  0  0  0  0  0
    0.2394    1.1778    0.0048 C   0  0  0  0  0  0  0  0  0  0  0  0
   -0.9483    0.5092    0.0077 C   0  0  0  0  0  0  0  0  0  0  0  0
   -0.9627   -0.9192   -0.0003 C   0  0  0  0  0  0  0  0  0  0  0  0
   -1.8711   -1.6938    0.0020 O   0  0  0  0  0  0  0  0  0  0  0  0
    0.3742   -1.4990   -0.0100 O   0  0  0  0  0  0  0  0  0  0  0  0
    1.4425   -0.7254   -0.0116 C   0  0  0  0  0  0  0  0  0  0  0  0
    1.4689    0.5608   -0.0052 N   0  0  0  0  0  0  0  0  0  0  0  0
    1.2104    2.7669    0.0081 H   0  0  0  0  0  0  0  0  0  0  0  0
   -1.8957    1.0287    0.0161 H   0  0  0  0  0  0  0  0  0  0  0  0
    2.3693   -1.2936   -0.0195 H   0  0  0  0  0  0  0  0  0  0  0  0
  2  3  1  0  0  0  0
  2  1  1  0  0  0  0
  3 10  1  0  0  0  0
  4  5  2  0  0  0  0
  4  3  1  0  0  0  0
  6  4  1  0  0  0  0
  7  6  1  0  0  0  0
  7  8  2  0  0  0  0
  8  2  2  0  0  0  0
  9  1  1  0  0  0  0
 11  7  1  0  0  0  0
M  RAD  1   3   2
M  END
