title
 OpenBabel02282109573D

 12 12  0  0  0  0  0  0  0  0999 V2000
   -0.3512    2.4672    0.0150 O   0  0  0  0  0  0  0  0  0  0  0  0
   -0.2911    1.1325    0.0076 C   0  0  0  0  0  0  0  0  0  0  0  0
    0.8659    0.5571   -0.0019 N   0  0  0  0  0  0  0  0  0  0  0  0
    0.9475   -0.8117   -0.0097 C   0  0  0  0  0  0  0  0  0  0  0  0
    2.0350   -1.4537   -0.0191 N   0  0  0  0  0  0  0  0  0  0  0  0
   -0.2814   -1.5508   -0.0066 O   0  0  0  0  0  0  0  0  0  0  0  0
   -1.4493   -0.9051    0.0034 C   0  0  0  0  0  0  0  0  0  0  0  0
   -1.5489    0.4352    0.0110 C   0  0  0  0  0  0  0  0  0  0  0  0
    0.5666    2.7815    0.0114 H   0  0  0  0  0  0  0  0  0  0  0  0
    1.8569   -2.4564   -0.0234 H   0  0  0  0  0  0  0  0  0  0  0  0
   -2.2934   -1.5864    0.0046 H   0  0  0  0  0  0  0  0  0  0  0  0
   -2.4961    0.9520    0.0191 H   0  0  0  0  0  0  0  0  0  0  0  0
  2  8  1  0  0  0  0
  2  1  1  0  0  0  0
  3  2  2  0  0  0  0
  4  6  1  0  0  0  0
  4  3  2  0  0  0  0
  5  4  1  0  0  0  0
  6  7  1  0  0  0  0
  7 11  1  0  0  0  0
  7  8  2  0  0  0  0
  8 12  1  0  0  0  0
  9  1  1  0  0  0  0
 10  5  1  0  0  0  0
M  RAD  1   5   2
M  END
