11
title
O 0.26110902 2.4335911 0.011655892
C 0.227854 1.1057373 0.0043549514
N -0.9199231 0.5228631 0.0077067213
C -0.95210963 -0.84101874 0.0008605247
N -1.9893143 -1.5522238 0.002624824
O 0.34063527 -1.5154845 -0.009848725
C 1.4338186 -0.7756626 -0.011947003
N 1.4853354 0.50673425 -0.0054811575
H 1.1929389 2.6936233 0.008085875
H -1.7560256 -2.5430605 -0.0039040796
H 2.3435683 -1.3722008 -0.020054698
