11
title
O -0.37444702 2.4153428 0.014906678
C -0.30477527 1.0871141 0.0074856826
N 0.8786053 0.5318133 -0.0019891409
C 0.96121806 -0.8384415 -0.009782352
O 1.9670569 -1.5039248 -0.018781895
N -0.3132697 -1.4944069 -0.0062438785
C -1.4676741 -0.81046474 0.0037412317
N -1.534892 0.48701784 0.011021662
H 0.5405577 2.734532 0.011571368
H -0.29301006 -2.5046759 -0.011719333
H -2.3863246 -1.3932528 0.005692037
