title
 OpenBabel02282109573D

 11 11  0  0  0  0  0  0  0  0999 V2000
   -0.3584    2.4687    0.0151 O   0  0  0  0  0  0  0  0  0  0  0  0
   -0.3088    1.1375    0.0078 C   0  0  0  0  0  0  0  0  0  0  0  0
    0.8584    0.5607   -0.0021 N   0  0  0  0  0  0  0  0  0  0  0  0
    0.9521   -0.8024   -0.0098 C   0  0  0  0  0  0  0  0  0  0  0  0
    1.9441   -1.4630   -0.0192 O   0  0  0  0  0  0  0  0  0  0  0  0
   -0.2915   -1.5403   -0.0063 O   0  0  0  0  0  0  0  0  0  0  0  0
   -1.4542   -0.9013    0.0038 C   0  0  0  0  0  0  0  0  0  0  0  0
   -1.5576    0.4434    0.0115 C   0  0  0  0  0  0  0  0  0  0  0  0
    0.5612    2.7787    0.0113 H   0  0  0  0  0  0  0  0  0  0  0  0
   -2.3018   -1.5793    0.0053 H   0  0  0  0  0  0  0  0  0  0  0  0
   -2.5058    0.9583    0.0198 H   0  0  0  0  0  0  0  0  0  0  0  0
  2  8  1  0  0  0  0
  2  1  1  0  0  0  0
  3  2  2  0  0  0  0
  4  6  1  0  0  0  0
  4  3  2  0  0  0  0
  5  4  2  0  0  0  0
  6  7  1  0  0  0  0
  7 10  1  0  0  0  0
  7  8  2  0  0  0  0
  8 11  1  0  0  0  0
  9  1  1  0  0  0  0
M  END
