11
title
O -0.3584463 2.468732 0.015079355
C -0.30876213 1.13752 0.0077878577
N 0.85835624 0.5606622 -0.002097526
C 0.9520762 -0.80241543 -0.009762437
O 1.9441361 -1.4629768 -0.019221697
O -0.29152343 -1.5403346 -0.006337323
C -1.4541897 -0.9013311 0.003834571
C -1.557622 0.4433893 0.011497812
H 0.56124306 2.7786725 0.011296885
H -2.3017614 -1.5792853 0.0052536884
H -2.5058491 0.95829093 0.019762566
