title
 OpenBabel02282109573D

 10 10  0  0  0  0  0  0  0  0999 V2000
   -0.3790    2.4216    0.0142 O   0  0  0  0  0  0  0  0  0  0  0  0
   -0.2974    1.1010    0.0074 C   0  0  0  0  0  0  0  0  0  0  0  0
    0.8836    0.5462   -0.0021 N   0  0  0  0  0  0  0  0  0  0  0  0
    0.9693   -0.8110   -0.0095 C   0  0  0  0  0  0  0  0  0  0  0  0
    1.9331   -1.5042   -0.0185 O   0  0  0  0  0  0  0  0  0  0  0  0
   -0.3179   -1.5138   -0.0059 O   0  0  0  0  0  0  0  0  0  0  0  0
   -1.4268   -0.8050    0.0039 C   0  0  0  0  0  0  0  0  0  0  0  0
   -1.5193    0.4803    0.0110 N   0  0  0  0  0  0  0  0  0  0  0  0
    0.5304    2.7584    0.0107 H   0  0  0  0  0  0  0  0  0  0  0  0
   -2.3228   -1.4220    0.0058 H   0  0  0  0  0  0  0  0  0  0  0  0
  2  8  2  0  0  0  0
  2  1  1  0  0  0  0
  3  2  2  0  0  0  0
  4  6  1  0  0  0  0
  4  3  2  0  0  0  0
  5  4  2  0  0  0  0
  6  7  1  0  0  0  0
  7 10  1  0  0  0  0
  7  8  2  0  0  0  0
  9  1  1  0  0  0  0
M  END
