18
title
C -0.04035684 2.7193391 -0.3310336
C -0.030048922 1.209769 -0.34471
C -0.0023567542 0.5052122 -1.5510806
C 0.029032277 -0.8859043 -1.5547986
C 0.0324499 -1.5917265 -0.35561278
C 0.0051969034 -0.9132364 0.8656012
C 0.03255936 -1.6702166 2.1714823
C -0.030245539 0.4831185 0.8483107
H 0.9762017 3.1246495 -0.40948015
H -0.6132728 3.123277 -1.1712885
H -0.47434208 3.1087253 0.5943795
H -0.011729291 1.049656 -2.4908602
H 0.042796146 -1.423307 -2.4978442
H 0.05014011 -2.6776693 -0.36591703
H 1.0600901 -1.9171252 2.466511
H -0.40614763 -1.083761 2.9838674
H -0.51662296 -2.6138833 2.0986376
H -0.062195923 1.0210671 1.7928523
