17
title
C 0.0605108 2.7178438 0.33309442
C 0.01442863 1.211479 0.31343907
C 0.082590885 0.4893421 -0.87730795
C 0.037434377 -0.90414363 -0.8644399
C 0.1091973 -1.7133662 -2.1339493
C -0.07770468 -1.51904 0.38497016
N -0.14527518 -0.8602317 1.542249
C -0.09921841 0.47144365 1.4931906
H 0.98956096 3.0955365 -0.108258136
H -0.7670355 3.1509826 -0.23975997
H -0.0038988881 3.1017041 1.35475
H 0.17173007 1.0175682 -1.82433
H 1.042927 -1.5257589 -2.6757765
H 0.055268314 -2.7847567 -1.9230202
H -0.7129468 -1.4644552 -2.8141558
H -0.1171124 -2.6053445 0.44831797
H -0.15591028 0.98900175 2.4495082
