17
title
C 0.030429864 2.6409996 -0.28524175
C 0.026255796 1.1349378 -0.35013738
C 0.09351627 0.45489705 -1.5688715
C 0.08580114 -0.9343329 -1.5608795
C 0.011608264 -1.5996536 -0.34355894
C -0.05274079 -0.84665936 0.831695
C -0.13490762 -1.5030884 2.1862504
N -0.045194235 0.4919743 0.8218959
H 0.08962034 3.089974 -1.2797862
H -0.87655395 3.0034292 0.20916927
H 0.878966 2.994248 0.3094446
H 0.15048884 1.0077623 -2.50004
H 0.136941 -1.4912206 -2.491254
H 0.0033510802 -2.6831222 -0.29878384
H 0.71092266 -1.1965481 2.8099759
H -1.0444682 -1.1879815 2.7076423
H -0.13575509 -2.5931919 2.1096504
