17
title
C -0.062220056 2.7211585 -0.32806307
C -0.049070008 1.2113973 -0.3460762
C -0.059558842 0.5123003 -1.5566822
C -0.017774953 -0.8790638 -1.555155
C 0.032409843 -1.5905043 -0.36291745
C 0.041046623 -0.90682 0.860022
N 0.148897 -1.6044084 2.0667274
C -0.0034056853 0.4933211 0.84818524
H 0.9568616 3.1265252 -0.35818687
H -0.5965518 3.1254072 -1.1927979
H -0.5379589 3.1089246 0.57770556
H -0.1030045 1.0564886 -2.4945314
H -0.030874532 -1.4201013 -2.496285
H 0.064229935 -2.6760867 -0.37163934
H -0.19515276 -2.5533128 2.0346596
H -0.21471153 -1.1122457 2.8701155
H 0.0009926456 1.0292196 1.7944905
