title
 OpenBabel02282109573D

 17 17  0  0  0  0  0  0  0  0999 V2000
   -0.0622    2.7212   -0.3281 C   0  0  0  0  0  0  0  0  0  0  0  0
   -0.0491    1.2114   -0.3461 C   0  0  0  0  0  0  0  0  0  0  0  0
   -0.0596    0.5123   -1.5567 C   0  0  0  0  0  0  0  0  0  0  0  0
   -0.0178   -0.8791   -1.5552 C   0  0  0  0  0  0  0  0  0  0  0  0
    0.0324   -1.5905   -0.3629 C   0  0  0  0  0  0  0  0  0  0  0  0
    0.0410   -0.9068    0.8600 C   0  0  0  0  0  0  0  0  0  0  0  0
    0.1489   -1.6044    2.0667 N   0  0  0  0  0  0  0  0  0  0  0  0
   -0.0034    0.4933    0.8482 C   0  0  0  0  0  0  0  0  0  0  0  0
    0.9569    3.1265   -0.3582 H   0  0  0  0  0  0  0  0  0  0  0  0
   -0.5966    3.1254   -1.1928 H   0  0  0  0  0  0  0  0  0  0  0  0
   -0.5380    3.1089    0.5777 H   0  0  0  0  0  0  0  0  0  0  0  0
   -0.1030    1.0565   -2.4945 H   0  0  0  0  0  0  0  0  0  0  0  0
   -0.0309   -1.4201   -2.4963 H   0  0  0  0  0  0  0  0  0  0  0  0
    0.0642   -2.6761   -0.3716 H   0  0  0  0  0  0  0  0  0  0  0  0
   -0.1952   -2.5533    2.0347 H   0  0  0  0  0  0  0  0  0  0  0  0
   -0.2147   -1.1122    2.8701 H   0  0  0  0  0  0  0  0  0  0  0  0
    0.0010    1.0292    1.7945 H   0  0  0  0  0  0  0  0  0  0  0  0
  1 11  1  0  0  0  0
  2  1  1  0  0  0  0
  2  8  2  0  0  0  0
  3  4  2  0  0  0  0
  3  2  1  0  0  0  0
  4  5  1  0  0  0  0
  5  6  2  0  0  0  0
  6  7  1  0  0  0  0
  7 16  1  0  0  0  0
  8  6  1  0  0  0  0
  8 17  1  0  0  0  0
  9  1  1  0  0  0  0
 10  1  1  0  0  0  0
 12  3  1  0  0  0  0
 13  4  1  0  0  0  0
 14  5  1  0  0  0  0
 15  7  1  0  0  0  0
M  END
