16
title
C -0.049697403 2.736424 -0.30239916
C -0.04702619 1.2273688 -0.3403675
C -0.12028743 0.5361617 -1.5504162
C -0.09611325 -0.8580253 -1.5669782
C -0.0010886863 -1.5839524 -0.387514
C 0.07015144 -0.8988514 0.8271585
O 0.15951827 -1.6450889 1.9656516
C 0.04615609 0.4946748 0.846783
H 0.94816965 3.1305182 -0.074608825
H -0.35815156 3.1572464 -1.2628837
H -0.72843885 3.1176476 0.46774536
H -0.1969898 1.0891644 -2.4808328
H -0.15508065 -1.3859339 -2.513437
H 0.016258102 -2.6674728 -0.38311833
H 0.20071691 -1.0542209 2.7246819
H 0.09981488 1.0177943 1.7997903
