15
title
C -0.059332605 2.6549091 -0.26215845
C -0.05501111 1.1518621 -0.34786287
C -0.19946551 0.48074618 -1.5586463
C -0.18548468 -0.9156453 -1.5590439
C -0.029864112 -1.6015805 -0.3679326
C 0.1073977 -0.83227104 0.79324716
O 0.2613913 -1.4665622 1.9755884
N 0.096708976 0.49274752 0.8142118
H 0.8784317 3.0154102 0.17314279
H -0.18764046 3.1142504 -1.2449297
H -0.86688864 2.9978633 0.39287317
H -0.32017192 1.0370817 -2.480488
H -0.29625088 -1.4623777 -2.4900374
H -0.011849606 -2.6822908 -0.31054863
H 0.33726734 -0.7669135 2.6395347
