title
 OpenBabel02282109573D

 14 14  0  0  1  0  0  0  0  0999 V2000
   -0.1133    2.6622   -0.3468 C   0  0  0  0  0  0  0  0  0  0  0  0
   -0.0762    1.1597   -0.3686 C   0  0  1  0  0  0  0  0  0  0  0  0
   -0.2026    0.4274   -1.5513 C   0  0  0  0  0  0  0  0  0  0  0  0
   -0.1525   -0.9553   -1.4426 C   0  0  0  0  0  0  0  0  0  0  0  0
    0.0079   -1.5806   -0.2764 N   0  0  0  0  0  0  0  0  0  0  0  0
    0.1177   -0.7769    0.7873 C   0  0  0  0  0  0  0  0  0  0  0  0
    0.2801   -1.3744    1.9769 O   0  0  0  0  0  0  0  0  0  0  0  0
    0.0854    0.5502    0.8117 N   0  0  0  0  0  0  0  0  0  0  0  0
    0.8148    3.0531    0.0820 H   0  0  0  0  0  0  0  0  0  0  0  0
   -0.2471    3.0803   -1.3467 H   0  0  0  0  0  0  0  0  0  0  0  0
   -0.9291    3.0071    0.2962 H   0  0  0  0  0  0  0  0  0  0  0  0
   -0.3336    0.9143   -2.5092 H   0  0  0  0  0  0  0  0  0  0  0  0
   -0.2438   -1.5911   -2.3204 H   0  0  0  0  0  0  0  0  0  0  0  0
    0.2835   -2.3248    1.7993 H   0  0  0  0  0  0  0  0  0  0  0  0
  1  9  1  0  0  0  0
  1 11  1  0  0  0  0
  2  1  1  6  0  0  0
  2  8  1  0  0  0  0
  3  4  2  0  0  0  0
  3  2  1  0  0  0  0
  4  5  1  0  0  0  0
  5  6  2  0  0  0  0
  6  8  2  0  0  0  0
  6  7  1  0  0  0  0
 10  1  1  0  0  0  0
 12  3  1  0  0  0  0
 13  4  1  0  0  0  0
 14  7  1  0  0  0  0
M  RAD  1   2   2
M  END
