title
 OpenBabel02282109573D

 15 15  0  0  0  0  0  0  0  0999 V2000
   -0.0320    2.6485   -0.2562 C   0  0  0  0  0  0  0  0  0  0  0  0
   -0.0361    1.1455   -0.3075 C   0  0  0  0  0  0  0  0  0  0  0  0
   -0.1665    0.4481   -1.5065 C   0  0  0  0  0  0  0  0  0  0  0  0
   -0.1750   -0.8904   -1.5499 N   0  0  0  0  0  0  0  0  0  0  0  0
   -0.0456   -1.5314   -0.4013 C   0  0  0  0  0  0  0  0  0  0  0  0
    0.0900   -0.8377    0.8202 C   0  0  0  0  0  0  0  0  0  0  0  0
    0.2769   -1.5041    2.0115 N   0  0  0  0  0  0  0  0  0  0  0  0
    0.0869    0.4952    0.8583 N   0  0  0  0  0  0  0  0  0  0  0  0
    0.9072    3.0138    0.1718 H   0  0  0  0  0  0  0  0  0  0  0  0
   -0.1545    3.0832   -1.2511 H   0  0  0  0  0  0  0  0  0  0  0  0
   -0.8395    3.0119    0.3874 H   0  0  0  0  0  0  0  0  0  0  0  0
   -0.2706    0.9735   -2.4511 H   0  0  0  0  0  0  0  0  0  0  0  0
   -0.0466   -2.6194   -0.4263 H   0  0  0  0  0  0  0  0  0  0  0  0
   -0.0697   -2.4481    2.0721 H   0  0  0  0  0  0  0  0  0  0  0  0
    0.1167   -0.9408    2.8331 H   0  0  0  0  0  0  0  0  0  0  0  0
  1  9  1  0  0  0  0
  1 11  1  0  0  0  0
  2  1  1  0  0  0  0
  2  8  2  0  0  0  0
  3  2  1  0  0  0  0
  4  3  2  0  0  0  0
  4  5  1  0  0  0  0
  5  6  2  0  0  0  0
  6  8  1  0  0  0  0
  6  7  1  0  0  0  0
  7 14  1  0  0  0  0
  7 15  1  0  0  0  0
 10  1  1  0  0  0  0
 12  3  1  0  0  0  0
 13  5  1  0  0  0  0
M  END
