title
 OpenBabel02282109573D

 14 14  0  0  0  0  0  0  0  0999 V2000
   -0.0304    2.6604   -0.2320 C   0  0  0  0  0  0  0  0  0  0  0  0
   -0.0440    1.1596   -0.3013 C   0  0  0  0  0  0  0  0  0  0  0  0
   -0.2291    0.4689   -1.4967 C   0  0  0  0  0  0  0  0  0  0  0  0
   -0.2408   -0.8688   -1.5559 N   0  0  0  0  0  0  0  0  0  0  0  0
   -0.0678   -1.5281   -0.4212 C   0  0  0  0  0  0  0  0  0  0  0  0
    0.1190   -0.8337    0.7852 C   0  0  0  0  0  0  0  0  0  0  0  0
    0.2925   -1.5319    1.9230 O   0  0  0  0  0  0  0  0  0  0  0  0
    0.1314    0.4871    0.8491 N   0  0  0  0  0  0  0  0  0  0  0  0
    0.9228    3.0166    0.1719 H   0  0  0  0  0  0  0  0  0  0  0  0
   -0.1807    3.1065   -1.2177 H   0  0  0  0  0  0  0  0  0  0  0  0
   -0.8173    3.0201    0.4389 H   0  0  0  0  0  0  0  0  0  0  0  0
   -0.3716    1.0039   -2.4308 H   0  0  0  0  0  0  0  0  0  0  0  0
   -0.0729   -2.6135   -0.4406 H   0  0  0  0  0  0  0  0  0  0  0  0
    0.4022   -0.8791    2.6289 H   0  0  0  0  0  0  0  0  0  0  0  0
  1  9  1  0  0  0  0
  1 11  1  0  0  0  0
  2  1  1  0  0  0  0
  2  8  1  0  0  0  0
  3  2  2  0  0  0  0
  4  3  1  0  0  0  0
  4  5  2  0  0  0  0
  5  6  1  0  0  0  0
  6  8  2  0  0  0  0
  6  7  1  0  0  0  0
  7 14  1  0  0  0  0
 10  1  1  0  0  0  0
 12  3  1  0  0  0  0
 13  5  1  0  0  0  0
M  END
