title
 OpenBabel02282109573D

 15 15  0  0  0  0  0  0  0  0999 V2000
   -0.1066    2.6199   -0.3174 C   0  0  0  0  0  0  0  0  0  0  0  0
   -0.0394    1.1214   -0.3197 C   0  0  0  0  0  0  0  0  0  0  0  0
    0.0629    0.5091   -1.5076 N   0  0  0  0  0  0  0  0  0  0  0  0
    0.1254   -0.8181   -1.4387 C   0  0  0  0  0  0  0  0  0  0  0  0
    0.0948   -1.5548   -0.3312 N   0  0  0  0  0  0  0  0  0  0  0  0
   -0.0089   -0.8471    0.8024 C   0  0  0  0  0  0  0  0  0  0  0  0
   -0.0403   -1.6096    2.0937 C   0  0  0  0  0  0  0  0  0  0  0  0
   -0.0798    0.4879    0.8581 N   0  0  0  0  0  0  0  0  0  0  0  0
    0.8458    3.0336   -0.6666 H   0  0  0  0  0  0  0  0  0  0  0  0
   -0.8753    2.9629   -1.0155 H   0  0  0  0  0  0  0  0  0  0  0  0
   -0.3138    2.9920    0.6858 H   0  0  0  0  0  0  0  0  0  0  0  0
    0.2082   -1.3547   -2.3823 H   0  0  0  0  0  0  0  0  0  0  0  0
    0.9312   -2.0858    2.2656 H   0  0  0  0  0  0  0  0  0  0  0  0
   -0.2650   -0.9430    2.9262 H   0  0  0  0  0  0  0  0  0  0  0  0
   -0.7809   -2.4122    2.0389 H   0  0  0  0  0  0  0  0  0  0  0  0
  1 11  1  0  0  0  0
  2  1  1  0  0  0  0
  2  8  1  0  0  0  0
  3  4  2  0  0  0  0
  3  2  2  0  0  0  0
  4  5  1  0  0  0  0
  5  6  2  0  0  0  0
  6  8  1  0  0  0  0
  6  7  1  0  0  0  0
  7 13  1  0  0  0  0
  7 14  1  0  0  0  0
  9  1  1  0  0  0  0
 10  1  1  0  0  0  0
 12  4  1  0  0  0  0
 15  7  1  0  0  0  0
M  RAD  1   8   2
M  END
