15
title
C -0.06068271 2.6040518 -0.29717267
C -0.045085378 1.0999564 -0.334384
N -0.12940517 0.5134685 -1.5322368
C -0.10836067 -0.8279386 -1.5219524
C -0.0052320105 -1.5802312 -0.3715512
C 0.076527126 -0.85974306 0.834335
N 0.22351925 -1.4812994 2.0443788
N 0.051725034 0.47726265 0.8464071
H 0.88003325 2.9813366 0.1174763
H -0.19983026 3.0050774 -1.3011097
H -0.86165 2.960031 0.35802308
H -0.17893694 -1.3155091 -2.4922316
H 0.014566451 -2.6635752 -0.3947246
H -0.04499657 -2.4472113 2.1281543
H 0.066216685 -0.8996672 2.8523734
