15
title
C -0.043043908 2.6956856 -0.3145275
C -0.014096962 1.1890465 -0.31370735
N 0.031085407 0.5951447 -1.5149883
C 0.057456404 -0.73960865 -1.5386338
C 0.041460678 -1.5512451 -0.4124397
C -0.0055348706 -0.9270314 0.8325298
O -0.021747697 -1.7041699 1.9424435
C -0.033716373 0.4670033 0.8795997
H 0.84366304 3.0904586 -0.8204695
H -0.91357464 3.0566485 -0.8712417
H -0.08013651 3.105196 0.69799304
H 0.09396184 -1.1964511 -2.5253322
H 0.06428588 -2.631535 -0.48449954
H -0.054542795 -1.1413425 2.7239385
H -0.07052126 0.9850277 1.8341473
