title
 OpenBabel02282109573D

 15 15  0  0  0  0  0  0  0  0999 V2000
   -0.0430    2.6957   -0.3145 C   0  0  0  0  0  0  0  0  0  0  0  0
   -0.0141    1.1890   -0.3137 C   0  0  0  0  0  0  0  0  0  0  0  0
    0.0311    0.5951   -1.5150 N   0  0  0  0  0  0  0  0  0  0  0  0
    0.0575   -0.7396   -1.5386 C   0  0  0  0  0  0  0  0  0  0  0  0
    0.0415   -1.5512   -0.4124 C   0  0  0  0  0  0  0  0  0  0  0  0
   -0.0055   -0.9270    0.8325 C   0  0  0  0  0  0  0  0  0  0  0  0
   -0.0217   -1.7042    1.9424 O   0  0  0  0  0  0  0  0  0  0  0  0
   -0.0337    0.4670    0.8796 C   0  0  0  0  0  0  0  0  0  0  0  0
    0.8437    3.0905   -0.8205 H   0  0  0  0  0  0  0  0  0  0  0  0
   -0.9136    3.0566   -0.8712 H   0  0  0  0  0  0  0  0  0  0  0  0
   -0.0801    3.1052    0.6980 H   0  0  0  0  0  0  0  0  0  0  0  0
    0.0940   -1.1965   -2.5253 H   0  0  0  0  0  0  0  0  0  0  0  0
    0.0643   -2.6315   -0.4845 H   0  0  0  0  0  0  0  0  0  0  0  0
   -0.0545   -1.1413    2.7239 H   0  0  0  0  0  0  0  0  0  0  0  0
   -0.0705    0.9850    1.8341 H   0  0  0  0  0  0  0  0  0  0  0  0
  1  2  1  0  0  0  0
  1 11  1  0  0  0  0
  2  8  2  0  0  0  0
  3  2  1  0  0  0  0
  4  3  2  0  0  0  0
  4  5  1  0  0  0  0
  5  6  2  0  0  0  0
  6  8  1  0  0  0  0
  6  7  1  0  0  0  0
  7 14  1  0  0  0  0
  8 15  1  0  0  0  0
  9  1  1  0  0  0  0
 10  1  1  0  0  0  0
 12  4  1  0  0  0  0
 13  5  1  0  0  0  0
M  END
