14
title
C -0.04940842 2.6168344 -0.27502996
C -0.044544727 1.1149886 -0.33020744
N -0.1720498 0.5345333 -1.5244474
C -0.16312067 -0.807171 -1.531763
C -0.031751364 -1.5754573 -0.39197186
C 0.09450613 -0.8553531 0.7998789
O 0.22729692 -1.5152194 1.9606138
N 0.08924985 0.4698747 0.84018284
H 0.88208437 2.9830496 0.16836636
H -0.16385652 3.0297997 -1.2770342
H -0.8658488 2.9702826 0.36283588
H -0.26701167 -1.280896 -2.5052972
H -0.025241252 -2.6569922 -0.40459237
H 0.2982287 -0.83718514 2.6485498
