title
 OpenBabel02282109573D

 15 15  0  0  0  0  0  0  0  0999 V2000
   -0.0966    2.6945   -0.3464 C   0  0  0  0  0  0  0  0  0  0  0  0
   -0.0357    1.1928   -0.3012 C   0  0  0  0  0  0  0  0  0  0  0  0
    0.0512    0.5603   -1.4897 N   0  0  0  0  0  0  0  0  0  0  0  0
    0.1029   -0.7655   -1.4334 C   0  0  0  0  0  0  0  0  0  0  0  0
    0.0771   -1.5455   -0.3535 N   0  0  0  0  0  0  0  0  0  0  0  0
   -0.0049   -0.9095    0.8239 C   0  0  0  0  0  0  0  0  0  0  0  0
    0.0135   -1.6926    1.9449 N   0  0  0  0  0  0  0  0  0  0  0  0
   -0.0663    0.4931    0.8927 C   0  0  0  0  0  0  0  0  0  0  0  0
    0.7966    3.0905   -0.8400 H   0  0  0  0  0  0  0  0  0  0  0  0
   -0.9563    3.0168   -0.9423 H   0  0  0  0  0  0  0  0  0  0  0  0
   -0.1726    3.1315    0.6521 H   0  0  0  0  0  0  0  0  0  0  0  0
    0.1712   -1.2853   -2.3875 H   0  0  0  0  0  0  0  0  0  0  0  0
   -0.1477   -2.6754    1.7907 H   0  0  0  0  0  0  0  0  0  0  0  0
   -0.3308   -1.3109    2.8096 H   0  0  0  0  0  0  0  0  0  0  0  0
   -0.1314    1.0061    1.8461 H   0  0  0  0  0  0  0  0  0  0  0  0
  1  2  1  0  0  0  0
  1 11  1  0  0  0  0
  2  8  2  0  0  0  0
  3  4  2  0  0  0  0
  3  2  1  0  0  0  0
  4  5  1  0  0  0  0
  5  6  2  0  0  0  0
  6  8  1  0  0  0  0
  6  7  1  0  0  0  0
  7 14  1  0  0  0  0
  8 15  1  0  0  0  0
  9  1  1  0  0  0  0
 10  1  1  0  0  0  0
 12  4  1  0  0  0  0
 13  7  1  0  0  0  0
M  END
