title
 OpenBabel02282109573D

 16 16  0  0  0  0  0  0  0  0999 V2000
   -0.3701    2.5921    0.1726 N   0  0  0  0  0  0  0  0  0  0  0  0
   -0.3634    1.1982    0.0555 C   0  0  0  0  0  0  0  0  0  0  0  0
   -1.5669    0.4791    0.0571 C   0  0  0  0  0  0  0  0  0  0  0  0
   -1.5331   -0.9091    0.0034 C   0  0  0  0  0  0  0  0  0  0  0  0
   -0.3314   -1.6048   -0.0529 C   0  0  0  0  0  0  0  0  0  0  0  0
    0.8769   -0.8937   -0.0566 C   0  0  0  0  0  0  0  0  0  0  0  0
    2.0963   -1.5685   -0.1763 N   0  0  0  0  0  0  0  0  0  0  0  0
    0.8484    0.5031   -0.0019 C   0  0  0  0  0  0  0  0  0  0  0  0
    0.4442    3.0486   -0.2129 H   0  0  0  0  0  0  0  0  0  0  0  0
   -1.2190    3.0306   -0.1545 H   0  0  0  0  0  0  0  0  0  0  0  0
   -2.5131    1.0083    0.1059 H   0  0  0  0  0  0  0  0  0  0  0  0
   -2.4670   -1.4629    0.0054 H   0  0  0  0  0  0  0  0  0  0  0  0
   -0.3211   -2.6890   -0.0997 H   0  0  0  0  0  0  0  0  0  0  0  0
    2.0750   -2.5231    0.1526 H   0  0  0  0  0  0  0  0  0  0  0  0
    2.8887   -1.0721    0.2056 H   0  0  0  0  0  0  0  0  0  0  0  0
    1.7837    1.0577   -0.0039 H   0  0  0  0  0  0  0  0  0  0  0  0
  2  3  1  0  0  0  0
  2  1  1  0  0  0  0
  3 11  1  0  0  0  0
  4 12  1  0  0  0  0
  4  3  2  0  0  0  0
  5  4  1  0  0  0  0
  6  5  2  0  0  0  0
  6  8  1  0  0  0  0
  7  6  1  0  0  0  0
  7 14  1  0  0  0  0
  7 15  1  0  0  0  0
  8  2  2  0  0  0  0
  9  1  1  0  0  0  0
 10  1  1  0  0  0  0
 13  5  1  0  0  0  0
 16  8  1  0  0  0  0
M  END
