title
 OpenBabel02282109573D

 14 14  0  0  0  0  0  0  0  0999 V2000
    0.3262    2.5582   -0.1472 N   0  0  0  0  0  0  0  0  0  0  0  0
    0.2883    1.1905   -0.0512 C   0  0  0  0  0  0  0  0  0  0  0  0
   -0.9138    0.4832    0.0073 C   0  0  0  0  0  0  0  0  0  0  0  0
   -0.8210   -0.9088    0.0554 C   0  0  0  0  0  0  0  0  0  0  0  0
   -1.9289   -1.7107    0.1601 N   0  0  0  0  0  0  0  0  0  0  0  0
    0.3663   -1.5460    0.0428 N   0  0  0  0  0  0  0  0  0  0  0  0
    1.4353   -0.7590   -0.0115 C   0  0  0  0  0  0  0  0  0  0  0  0
    1.4834    0.5680   -0.0577 N   0  0  0  0  0  0  0  0  0  0  0  0
    1.2264    2.9681    0.0474 H   0  0  0  0  0  0  0  0  0  0  0  0
   -0.4725    3.0805    0.1730 H   0  0  0  0  0  0  0  0  0  0  0  0
   -1.8726    0.9902    0.0151 H   0  0  0  0  0  0  0  0  0  0  0  0
   -2.8139   -1.3427   -0.1474 H   0  0  0  0  0  0  0  0  0  0  0  0
   -1.7632   -2.6842   -0.0432 H   0  0  0  0  0  0  0  0  0  0  0  0
    2.3979   -1.2680   -0.0192 H   0  0  0  0  0  0  0  0  0  0  0  0
  1  2  1  0  0  0  0
  1  9  1  0  0  0  0
  1 10  1  0  0  0  0
  2  3  1  0  0  0  0
  3 11  1  0  0  0  0
  3  4  2  0  0  0  0
  4  5  1  0  0  0  0
  6  4  1  0  0  0  0
  7  6  2  0  0  0  0
  8  2  2  0  0  0  0
  8  7  1  0  0  0  0
 12  5  1  0  0  0  0
 13  5  1  0  0  0  0
 14  7  1  0  0  0  0
M  END
