14
title
N 0.351663 2.6070623 0.22006647
C 0.33623037 1.2333711 0.07962609
C -0.8652266 0.52488595 0.023839276
C -0.80478656 -0.86401314 -0.062543206
O -1.9658333 -1.5535257 -0.11721706
N 0.31836432 -1.5759318 -0.09975039
C 1.4625038 -0.88015336 -0.04677521
C 1.5364455 0.49663728 0.04130246
H 1.197543 3.0772743 -0.06149218
H -0.48624954 3.0970087 -0.05240343
H -1.8262037 1.0250998 0.049321532
H -1.7081958 -2.4842713 -0.17420502
H 2.3757474 -1.4695563 -0.07942966
H 2.4969442 0.9979544 0.08438458
