title
 OpenBabel02282109573D

 14 14  0  0  0  0  0  0  0  0999 V2000
    0.3517    2.6071    0.2201 N   0  0  0  0  0  0  0  0  0  0  0  0
    0.3362    1.2334    0.0796 C   0  0  0  0  0  0  0  0  0  0  0  0
   -0.8652    0.5249    0.0238 C   0  0  0  0  0  0  0  0  0  0  0  0
   -0.8048   -0.8640   -0.0625 C   0  0  0  0  0  0  0  0  0  0  0  0
   -1.9658   -1.5535   -0.1172 O   0  0  0  0  0  0  0  0  0  0  0  0
    0.3184   -1.5759   -0.0998 N   0  0  0  0  0  0  0  0  0  0  0  0
    1.4625   -0.8802   -0.0468 C   0  0  0  0  0  0  0  0  0  0  0  0
    1.5364    0.4966    0.0413 C   0  0  0  0  0  0  0  0  0  0  0  0
    1.1975    3.0773   -0.0615 H   0  0  0  0  0  0  0  0  0  0  0  0
   -0.4862    3.0970   -0.0524 H   0  0  0  0  0  0  0  0  0  0  0  0
   -1.8262    1.0251    0.0493 H   0  0  0  0  0  0  0  0  0  0  0  0
   -1.7082   -2.4843   -0.1742 H   0  0  0  0  0  0  0  0  0  0  0  0
    2.3757   -1.4696   -0.0794 H   0  0  0  0  0  0  0  0  0  0  0  0
    2.4969    0.9980    0.0844 H   0  0  0  0  0  0  0  0  0  0  0  0
  2  1  1  0  0  0  0
  3 11  1  0  0  0  0
  3  2  2  0  0  0  0
  4  3  1  0  0  0  0
  5  4  1  0  0  0  0
  6  4  2  0  0  0  0
  6  7  1  0  0  0  0
  7  8  2  0  0  0  0
  8  2  1  0  0  0  0
  8 14  1  0  0  0  0
  9  1  1  0  0  0  0
 10  1  1  0  0  0  0
 12  5  1  0  0  0  0
 13  7  1  0  0  0  0
M  END
