title
 OpenBabel02282109573D

 15 15  0  0  0  0  0  0  0  0999 V2000
   -0.3549    2.6090   -0.1039 N   0  0  0  0  0  0  0  0  0  0  0  0
   -0.3569    1.2151   -0.0092 C   0  0  0  0  0  0  0  0  0  0  0  0
   -1.5630    0.5062    0.0684 C   0  0  0  0  0  0  0  0  0  0  0  0
   -1.5463   -0.8839    0.0998 C   0  0  0  0  0  0  0  0  0  0  0  0
   -0.3549   -1.5987    0.0575 C   0  0  0  0  0  0  0  0  0  0  0  0
    0.8453   -0.8907   -0.0190 C   0  0  0  0  0  0  0  0  0  0  0  0
    2.0005   -1.6155   -0.0579 O   0  0  0  0  0  0  0  0  0  0  0  0
    0.8484    0.5025   -0.0506 C   0  0  0  0  0  0  0  0  0  0  0  0
    0.4890    3.0554    0.2249 H   0  0  0  0  0  0  0  0  0  0  0  0
   -1.1765    3.0545    0.2781 H   0  0  0  0  0  0  0  0  0  0  0  0
   -2.5034    1.0469    0.0993 H   0  0  0  0  0  0  0  0  0  0  0  0
   -2.4864   -1.4231    0.1615 H   0  0  0  0  0  0  0  0  0  0  0  0
   -0.3330   -2.6809    0.0826 H   0  0  0  0  0  0  0  0  0  0  0  0
    2.7477   -1.0118   -0.1194 H   0  0  0  0  0  0  0  0  0  0  0  0
    1.7912    1.0415   -0.1147 H   0  0  0  0  0  0  0  0  0  0  0  0
  1  2  1  0  0  0  0
  1  9  1  0  0  0  0
  1 10  1  0  0  0  0
  2  3  2  0  0  0  0
  3 11  1  0  0  0  0
  3  4  1  0  0  0  0
  4 12  1  0  0  0  0
  5 13  1  0  0  0  0
  5  4  2  0  0  0  0
  6  5  1  0  0  0  0
  7  6  1  0  0  0  0
  8  6  2  0  0  0  0
  8  2  1  0  0  0  0
 14  7  1  0  0  0  0
 15  8  1  0  0  0  0
M  END
