14
title
N -0.29388463 2.5054111 0.17849807
C -0.3221522 1.1317592 0.06160721
C -1.5317649 0.41399494 0.06255263
N -1.5404084 -0.91302335 0.0037486567
C -0.37235656 -1.5426031 -0.05792673
C 0.837948 -0.8260397 -0.06287196
N 2.0561345 -1.4609202 -0.18283977
N 0.85781044 0.50843346 -0.002077553
H 0.57943135 2.9285035 -0.097529136
H -1.1153446 3.0045674 -0.12352924
H -2.4888165 0.92589164 0.11759694
H -0.38292813 -2.6280193 -0.11061403
H 2.1004827 -2.42034 0.12164565
H 2.847349 -0.897287 0.0894895
