title
 OpenBabel02282109573D

 13 13  0  0  1  0  0  0  0  0999 V2000
   -0.2626    2.5187    0.1445 N   0  0  0  0  0  0  0  0  0  0  0  0
   -0.3131    1.1473    0.0510 C   0  0  2  0  0  0  0  0  0  0  0  0
   -1.5283    0.4396    0.0891 C   0  0  0  0  0  0  0  0  0  0  0  0
   -1.5571   -0.8871    0.0481 N   0  0  0  0  0  0  0  0  0  0  0  0
   -0.3996   -1.5395   -0.0275 C   0  0  0  0  0  0  0  0  0  0  0  0
    0.8033   -0.8269   -0.0678 C   0  0  0  0  0  0  0  0  0  0  0  0
    1.9678   -1.4986   -0.1507 O   0  0  0  0  0  0  0  0  0  0  0  0
    0.8553    0.4984   -0.0343 N   0  0  0  0  0  0  0  0  0  0  0  0
    0.6075    2.9345   -0.1506 H   0  0  0  0  0  0  0  0  0  0  0  0
   -1.0889    3.0291   -0.1224 H   0  0  0  0  0  0  0  0  0  0  0  0
   -2.4776    0.9645    0.1552 H   0  0  0  0  0  0  0  0  0  0  0  0
   -0.4099   -2.6230   -0.0605 H   0  0  0  0  0  0  0  0  0  0  0  0
    2.6675   -0.8309   -0.1626 H   0  0  0  0  0  0  0  0  0  0  0  0
  2  3  1  0  0  0  0
  2  1  1  1  0  0  0
  3 11  1  0  0  0  0
  4  3  2  0  0  0  0
  5  4  1  0  0  0  0
  6  8  2  0  0  0  0
  6  5  1  0  0  0  0
  7  6  1  0  0  0  0
  8  2  1  0  0  0  0
  9  1  1  0  0  0  0
 10  1  1  0  0  0  0
 12  5  1  0  0  0  0
 13  7  1  0  0  0  0
M  RAD  2   2   2   5   2
M  END
