13
title
N -0.26255977 2.5187454 0.14447467
C -0.31308553 1.1473095 0.05096332
C -1.5283445 0.4395728 0.08914469
N -1.5571101 -0.8870513 0.04807494
C -0.39963934 -1.5395278 -0.02754392
C 0.8033112 -0.8268729 -0.0678106
O 1.9678301 -1.4985887 -0.15066257
N 0.8553376 0.4984405 -0.03429724
H 0.60749567 2.9344578 -0.15064037
H -1.0889106 3.0290823 -0.122428566
H -2.4776287 0.9645067 0.15518406
H -0.40988058 -2.6230083 -0.060539816
H 2.6675363 -0.8309135 -0.16257182
