title
 OpenBabel02282109573D

 13 13  0  0  0  0  0  0  0  0999 V2000
   -0.3515    2.4623   -0.0779 N   0  0  0  0  0  0  0  0  0  0  0  0
   -0.3288    1.1094   -0.0233 C   0  0  0  0  0  0  0  0  0  0  0  0
   -1.5236    0.4821   -0.0176 N   0  0  0  0  0  0  0  0  0  0  0  0
   -1.4213   -0.8422    0.0026 C   0  0  0  0  0  0  0  0  0  0  0  0
   -0.3088   -1.5678    0.0210 N   0  0  0  0  0  0  0  0  0  0  0  0
    0.8153   -0.8211    0.0224 C   0  0  0  0  0  0  0  0  0  0  0  0
    1.9912   -1.4908    0.0750 N   0  0  0  0  0  0  0  0  0  0  0  0
    0.8699    0.5155   -0.0016 N   0  0  0  0  0  0  0  0  0  0  0  0
    0.5055    2.9628    0.0791 H   0  0  0  0  0  0  0  0  0  0  0  0
   -1.2327    2.9244    0.0628 H   0  0  0  0  0  0  0  0  0  0  0  0
   -2.3583   -1.3974    0.0043 H   0  0  0  0  0  0  0  0  0  0  0  0
    1.9729   -2.4858   -0.0643 H   0  0  0  0  0  0  0  0  0  0  0  0
    2.8413   -0.9797   -0.0853 H   0  0  0  0  0  0  0  0  0  0  0  0
  1  2  1  0  0  0  0
  1 10  1  0  0  0  0
  1  9  1  0  0  0  0
  2  3  2  0  0  0  0
  2  8  1  0  0  0  0
  3  4  2  0  0  0  0
  4 11  1  0  0  0  0
  4  5  1  0  0  0  0
  5  6  2  0  0  0  0
  6  7  1  0  0  0  0
  8  6  1  0  0  0  0
 12  7  1  0  0  0  0
 13  7  1  0  0  0  0
M  RAD  1   8   2
M  END
