13
title
N -0.35151437 2.46234 -0.07791274
C -0.32876137 1.1094425 -0.023284841
N -1.5235823 0.48205253 -0.01762873
C -1.4213076 -0.8421872 0.0025861964
N -0.30884787 -1.5678477 0.020962605
C 0.81528485 -0.82114583 0.022394385
N 1.9911841 -1.4907773 0.0749618
N 0.8699298 0.51547515 -0.0015879294
H 0.50550187 2.9628277 0.07907386
H -1.2326603 2.9244175 0.06276823
H -2.3583133 -1.3974073 0.0042903908
H 1.972906 -2.4857783 -0.06426772
H 2.8413155 -0.97968453 -0.08532635
