13
title
N 0.31645966 2.5177152 0.1845188
C 0.35310692 1.1590544 0.067978606
N -0.8303539 0.5364335 0.017084217
C -0.7859345 -0.78774863 -0.05306747
O -1.980792 -1.3976052 -0.09990029
N 0.2888623 -1.5787413 -0.0873087
C 1.4601309 -0.92947537 -0.040273882
C 1.5668153 0.44315565 0.03921701
H 1.138618 3.051792 -0.038190432
H -0.5748765 2.9531643 0.00844557
H -1.7874024 -2.3436565 -0.15111223
H 2.3520124 -1.5512273 -0.06862783
H 2.5271595 0.94121075 0.08180707
