14
title
N -0.35044438 2.5549152 0.16898988
C -0.3287246 1.1761029 0.060563754
N -1.5198258 0.5665116 0.09524848
C -1.5207922 -0.769678 0.049299125
C -0.38858083 -1.5616602 -0.03966198
C 0.84810185 -0.9087087 -0.081245884
O 1.9656758 -1.6712846 -0.16983046
C 0.8866565 0.478448 -0.029221404
H 0.41619956 3.0578692 -0.24933007
H -1.2586628 2.9527626 -0.02007073
H -2.5017784 -1.2387131 0.08178944
H -0.4416502 -2.6416538 -0.07946206
H 2.7405114 -1.0987684 -0.18242113
H 1.8327193 1.0126038 -0.046963263
