title
 OpenBabel02282109573D

 13 13  0  0  0  0  0  0  0  0999 V2000
   -0.3230    2.4638   -0.0811 N   0  0  0  0  0  0  0  0  0  0  0  0
   -0.3404    1.1021   -0.0049 C   0  0  0  0  0  0  0  0  0  0  0  0
   -1.5426    0.5148    0.0824 N   0  0  0  0  0  0  0  0  0  0  0  0
   -1.5226   -0.8205    0.1070 C   0  0  0  0  0  0  0  0  0  0  0  0
   -0.3662   -1.5795    0.0517 C   0  0  0  0  0  0  0  0  0  0  0  0
    0.8198   -0.8437   -0.0266 C   0  0  0  0  0  0  0  0  0  0  0  0
    1.9958   -1.4901   -0.0744 O   0  0  0  0  0  0  0  0  0  0  0  0
    0.8519    0.4811   -0.0538 N   0  0  0  0  0  0  0  0  0  0  0  0
    0.5531    2.9251    0.0947 H   0  0  0  0  0  0  0  0  0  0  0  0
   -1.1707    2.9395    0.1778 H   0  0  0  0  0  0  0  0  0  0  0  0
   -2.4928   -1.3079    0.1773 H   0  0  0  0  0  0  0  0  0  0  0  0
   -0.3646   -2.6598    0.0743 H   0  0  0  0  0  0  0  0  0  0  0  0
    2.6772   -0.8046   -0.1284 H   0  0  0  0  0  0  0  0  0  0  0  0
  1  2  1  0  0  0  0
  1  9  1  0  0  0  0
  1 10  1  0  0  0  0
  2  3  2  0  0  0  0
  3  4  1  0  0  0  0
  4 11  1  0  0  0  0
  5 12  1  0  0  0  0
  5  4  2  0  0  0  0
  6  5  1  0  0  0  0
  7  6  1  0  0  0  0
  8  6  2  0  0  0  0
  8  2  1  0  0  0  0
 13  7  1  0  0  0  0
M  END
