13
title
N -0.44027323 2.5416076 0.19913828
C -0.34294963 1.1845835 0.07662923
N -1.5100704 0.5081966 0.060484592
C -1.4131163 -0.81184727 -0.016250618
N -0.30409014 -1.5480536 -0.08407232
C 0.8381424 -0.8535045 -0.07045113
O 1.9811144 -1.5563203 -0.13959894
C 0.8918694 0.5297159 0.0092704175
H 0.34727302 3.1129758 -0.05563018
H -1.3552972 2.9293582 0.03410501
H -2.3521233 -1.3615252 -0.028615896
H 1.7157476 -2.485883 -0.18666303
H 1.8377922 1.0557097 0.022657948
