12
title
N -0.4050954 2.4575934 0.09348962
C -0.35885677 1.1126649 0.046815295
N -1.5390531 0.45571232 0.054841496
C -1.4129624 -0.8622563 0.0070683546
N -0.27611482 -1.5560086 -0.045518067
C 0.8174615 -0.7789383 -0.047289696
O 1.9978076 -1.3991609 -0.098496735
N 0.8559977 0.541894 -0.003622407
H 0.45077398 2.9827447 0.08907402
H -1.2958864 2.918911 0.13167542
H -2.3347278 -1.4412148 0.011107506
H 1.800016 -2.3459818 -0.12542246
