title
 OpenBabel02282109573D

 13 13  0  0  0  0  0  0  0  0999 V2000
    0.0394    2.5518    0.3888 O   0  0  0  0  0  0  0  0  0  0  0  0
    0.0097    1.1947    0.3138 C   0  0  0  0  0  0  0  0  0  0  0  0
    0.0720    0.4940   -0.8889 C   0  0  0  0  0  0  0  0  0  0  0  0
    0.0336   -0.8982   -0.8474 C   0  0  0  0  0  0  0  0  0  0  0  0
    0.0877   -1.6794   -1.9587 O   0  0  0  0  0  0  0  0  0  0  0  0
   -0.0656   -1.5318    0.3946 C   0  0  0  0  0  0  0  0  0  0  0  0
   -0.1247   -0.8552    1.5390 N   0  0  0  0  0  0  0  0  0  0  0  0
   -0.0885    0.4747    1.5077 C   0  0  0  0  0  0  0  0  0  0  0  0
    0.1081    2.9234   -0.4967 H   0  0  0  0  0  0  0  0  0  0  0  0
    0.1489    1.0214   -1.8379 H   0  0  0  0  0  0  0  0  0  0  0  0
    0.1544   -1.1236   -2.7420 H   0  0  0  0  0  0  0  0  0  0  0  0
   -0.0964   -2.6164    0.4395 H   0  0  0  0  0  0  0  0  0  0  0  0
   -0.1378    1.0099    2.4513 H   0  0  0  0  0  0  0  0  0  0  0  0
  2  1  1  0  0  0  0
  2  8  2  0  0  0  0
  3  4  2  0  0  0  0
  3  2  1  0  0  0  0
  4  6  1  0  0  0  0
  5  4  1  0  0  0  0
  6 12  1  0  0  0  0
  6  7  2  0  0  0  0
  8  7  1  0  0  0  0
  8 13  1  0  0  0  0
  9  1  1  0  0  0  0
 10  3  1  0  0  0  0
 11  5  1  0  0  0  0
M  END
