title
 OpenBabel02282109573D

 12 12  0  0  0  0  0  0  0  0999 V2000
   -0.0425    2.5066    0.3343 O   0  0  0  0  0  0  0  0  0  0  0  0
   -0.0173    1.1670    0.3115 C   0  0  0  0  0  0  0  0  0  0  0  0
   -0.0236    0.5038   -0.9097 C   0  0  0  0  0  0  0  0  0  0  0  0
    0.0040   -0.8830   -0.8243 C   0  0  0  0  0  0  0  0  0  0  0  0
    0.0005   -1.6128   -1.9482 O   0  0  0  0  0  0  0  0  0  0  0  0
    0.0346   -1.5479    0.3363 N   0  0  0  0  0  0  0  0  0  0  0  0
    0.0372   -0.7923    1.4306 C   0  0  0  0  0  0  0  0  0  0  0  0
    0.0129    0.5360    1.4910 N   0  0  0  0  0  0  0  0  0  0  0  0
   -0.0328    2.7601    1.2686 H   0  0  0  0  0  0  0  0  0  0  0  0
   -0.0482    1.0272   -1.8548 H   0  0  0  0  0  0  0  0  0  0  0  0
    0.0224   -2.5391   -1.6675 H   0  0  0  0  0  0  0  0  0  0  0  0
    0.0619   -1.3190    2.3817 H   0  0  0  0  0  0  0  0  0  0  0  0
  1  9  1  0  0  0  0
  2  1  1  0  0  0  0
  2  8  2  0  0  0  0
  3  4  1  0  0  0  0
  3  2  1  0  0  0  0
  4  6  2  0  0  0  0
  5 11  1  0  0  0  0
  5  4  1  0  0  0  0
  6  7  2  0  0  0  0
  7  8  1  0  0  0  0
  7 12  1  0  0  0  0
 10  3  1  0  0  0  0
M  RAD  1   3   2
M  END
