13
title
O 0.0457211 2.4645605 -0.332611
C 0.0048628617 1.1164972 -0.35593173
C -0.10879476 0.46079808 -1.5812223
C -0.146764 -0.92831975 -1.5516402
C -0.0733095 -1.612663 -0.34406534
C 0.03838642 -0.8429273 0.8131874
O 0.112911835 -1.4611721 2.0097272
N 0.07726015 0.48869568 0.8168319
H 0.12484382 2.7177067 0.5968884
H -0.16324183 1.029714 -2.4994242
H -0.2345507 -1.4835999 -2.479769
H -0.09954244 -2.6919148 -0.27886072
H 0.18441416 -0.7615108 2.6728065
