title
 OpenBabel02282109573D

 12 12  0  0  0  0  0  0  0  0999 V2000
    0.0546    2.4685   -0.3019 O   0  0  0  0  0  0  0  0  0  0  0  0
    0.0096    1.1248   -0.3113 C   0  0  0  0  0  0  0  0  0  0  0  0
   -0.1194    0.4447   -1.5270 C   0  0  0  0  0  0  0  0  0  0  0  0
   -0.1654   -0.8843   -1.5528 N   0  0  0  0  0  0  0  0  0  0  0  0
   -0.0857   -1.5418   -0.3992 C   0  0  0  0  0  0  0  0  0  0  0  0
    0.0431   -0.8431    0.8059 C   0  0  0  0  0  0  0  0  0  0  0  0
    0.1224   -1.5221    1.9636 O   0  0  0  0  0  0  0  0  0  0  0  0
    0.0907    0.4854    0.8522 N   0  0  0  0  0  0  0  0  0  0  0  0
    0.1446    2.7409    0.6214 H   0  0  0  0  0  0  0  0  0  0  0  0
   -0.1837    0.9886   -2.4628 H   0  0  0  0  0  0  0  0  0  0  0  0
   -0.1223   -2.6253   -0.4110 H   0  0  0  0  0  0  0  0  0  0  0  0
    0.2058   -0.8667    2.6695 H   0  0  0  0  0  0  0  0  0  0  0  0
  1  9  1  0  0  0  0
  2  1  1  0  0  0  0
  2  8  2  0  0  0  0
  3  2  1  0  0  0  0
  4  3  1  0  0  0  0
  4  5  2  0  0  0  0
  5  6  1  0  0  0  0
  6  8  2  0  0  0  0
  6  7  1  0  0  0  0
  7 12  1  0  0  0  0
 10  3  1  0  0  0  0
 11  5  1  0  0  0  0
M  RAD  1   3   2
M  END
