title
 OpenBabel02282109573D

 15 15  0  0  0  0  0  0  0  0999 V2000
   -0.2623    2.6079   -0.0064 C   0  0  0  0  0  0  0  0  0  0  0  0
   -0.4135    1.1232   -0.0307 C   0  0  0  0  0  0  0  0  0  0  0  0
   -1.5664    0.4333   -0.1423 C   0  0  0  0  0  0  0  0  0  0  0  0
   -1.5155   -1.0033   -0.1480 C   0  0  0  0  0  0  0  0  0  0  0  0
   -0.3325   -1.6440   -0.0427 C   0  0  0  0  0  0  0  0  0  0  0  0
    0.9067   -0.9041    0.0783 C   0  0  0  0  0  0  0  0  0  0  0  0
    2.0534   -1.4414    0.1819 N   0  0  0  0  0  0  0  0  0  0  0  0
    0.7841    0.4919    0.0754 O   0  0  0  0  0  0  0  0  0  0  0  0
    0.3778    2.9429   -0.8300 H   0  0  0  0  0  0  0  0  0  0  0  0
   -1.2345    3.0958   -0.0928 H   0  0  0  0  0  0  0  0  0  0  0  0
    0.2157    2.9307    0.9250 H   0  0  0  0  0  0  0  0  0  0  0  0
   -2.5049    0.9642   -0.2252 H   0  0  0  0  0  0  0  0  0  0  0  0
   -2.4387   -1.5661   -0.2380 H   0  0  0  0  0  0  0  0  0  0  0  0
   -0.2417   -2.7221   -0.0421 H   0  0  0  0  0  0  0  0  0  0  0  0
    2.7799   -0.7289    0.2546 H   0  0  0  0  0  0  0  0  0  0  0  0
  1 11  1  0  0  0  0
  2  1  1  0  0  0  0
  2  8  1  0  0  0  0
  3  2  2  0  0  0  0
  4  3  1  0  0  0  0
  4  5  2  0  0  0  0
  5 14  1  0  0  0  0
  5  6  1  0  0  0  0
  6  7  2  0  0  0  0
  7 15  1  0  0  0  0
  8  6  1  0  0  0  0
  9  1  1  0  0  0  0
 10  1  1  0  0  0  0
 12  3  1  0  0  0  0
 13  4  1  0  0  0  0
M  END
