title
 OpenBabel02282109573D

 15 15  0  0  0  0  0  0  0  0999 V2000
   -0.0391    2.6640   -0.2795 C   0  0  0  0  0  0  0  0  0  0  0  0
   -0.0266    1.1684   -0.3937 C   0  0  0  0  0  0  0  0  0  0  0  0
   -0.0597    0.4805   -1.5721 C   0  0  0  0  0  0  0  0  0  0  0  0
   -0.0427   -0.9424   -1.5372 C   0  0  0  0  0  0  0  0  0  0  0  0
    0.0055   -1.6303   -0.3628 C   0  0  0  0  0  0  0  0  0  0  0  0
    0.0421   -0.9425    0.9126 C   0  0  0  0  0  0  0  0  0  0  0  0
    0.0859   -1.4411    2.0255 O   0  0  0  0  0  0  0  0  0  0  0  0
    0.0216    0.4630    0.7746 N   0  0  0  0  0  0  0  0  0  0  0  0
    0.8591    3.0283    0.2328 H   0  0  0  0  0  0  0  0  0  0  0  0
   -0.0792    3.1247   -1.2676 H   0  0  0  0  0  0  0  0  0  0  0  0
   -0.9065    3.0087    0.2955 H   0  0  0  0  0  0  0  0  0  0  0  0
   -0.0980    1.0178   -2.5100 H   0  0  0  0  0  0  0  0  0  0  0  0
   -0.0692   -1.4871   -2.4765 H   0  0  0  0  0  0  0  0  0  0  0  0
    0.0188   -2.7123   -0.3242 H   0  0  0  0  0  0  0  0  0  0  0  0
    0.0467    0.9548    1.6584 H   0  0  0  0  0  0  0  0  0  0  0  0
  1  9  1  0  0  0  0
  1 11  1  0  0  0  0
  2  1  1  0  0  0  0
  2  8  1  0  0  0  0
  3  4  1  0  0  0  0
  3  2  2  0  0  0  0
  4  5  2  0  0  0  0
  5 14  1  0  0  0  0
  5  6  1  0  0  0  0
  6  7  2  0  0  0  0
  8  6  1  0  0  0  0
  8 15  1  0  0  0  0
 10  1  1  0  0  0  0
 12  3  1  0  0  0  0
 13  4  1  0  0  0  0
M  END
