14
title
C -0.27362096 2.6160932 -0.035285793
C -0.41572234 1.1296704 -0.055452902
C -1.5696331 0.4374912 -0.21184126
C -1.5143985 -0.98835146 -0.20532838
C -0.334467 -1.6370424 -0.046282552
C 0.90346026 -0.90798795 0.121514864
O 2.011395 -1.3460776 0.27098653
O 0.76389813 0.49997565 0.103564434
H 0.40118587 2.945405 -0.83257693
H -1.2425603 3.1005514 -0.16621347
H 0.16480923 2.9442403 0.91316897
H -2.5044072 0.96612835 -0.33779147
H -2.4325655 -1.5545088 -0.32978728
H -0.25361246 -2.716141 -0.03605552
