13
title
C -0.271992 2.6346898 -0.041373346
C -0.40162072 1.1485265 -0.05819898
C -1.5482839 0.438909 -0.22041596
C -1.425955 -0.97687733 -0.20159756
N -0.3109323 -1.6299776 -0.042532142
C 0.85683745 -0.92012155 0.12266227
O 1.9525437 -1.3636929 0.27869648
O 0.7612516 0.5172037 0.10777321
H 0.4087779 2.960587 -0.8345771
H -1.2424487 3.1133194 -0.17968926
H 0.16102947 2.9625087 0.90934944
H -2.5013921 0.92914885 -0.35641363
H -2.321913 -1.5856212 -0.3282621
