title
 OpenBabel02282109573D

 14 14  0  0  0  0  0  0  0  0999 V2000
   -0.2454    2.5832   -0.3375 C   0  0  0  0  0  0  0  0  0  0  0  0
   -0.3548    1.0999   -0.2442 C   0  0  0  0  0  0  0  0  0  0  0  0
   -1.4152    0.3467   -0.6003 C   0  0  0  0  0  0  0  0  0  0  0  0
   -1.4135   -1.0329   -0.4719 N   0  0  0  0  0  0  0  0  0  0  0  0
   -0.3506   -1.5772    0.0052 C   0  0  0  0  0  0  0  0  0  0  0  0
    0.8493   -0.8429    0.4189 C   0  0  0  0  0  0  0  0  0  0  0  0
    1.9361   -1.2908    0.8966 N   0  0  0  0  0  0  0  0  0  0  0  0
    0.7673    0.5279    0.2593 O   0  0  0  0  0  0  0  0  0  0  0  0
    0.5964    2.8650   -0.9791 H   0  0  0  0  0  0  0  0  0  0  0  0
   -1.1625    3.0108   -0.7455 H   0  0  0  0  0  0  0  0  0  0  0  0
   -0.0584    3.0166    0.6509 H   0  0  0  0  0  0  0  0  0  0  0  0
   -2.3109    0.8015   -1.0021 H   0  0  0  0  0  0  0  0  0  0  0  0
   -0.3206   -2.6602    0.1174 H   0  0  0  0  0  0  0  0  0  0  0  0
    1.8891   -2.3059    0.9715 H   0  0  0  0  0  0  0  0  0  0  0  0
  1  2  1  0  0  0  0
  1 11  1  0  0  0  0
  2  8  1  0  0  0  0
  3  4  1  0  0  0  0
  3  2  2  0  0  0  0
  4  5  1  0  0  0  0
  5 13  1  0  0  0  0
  5  6  2  0  0  0  0
  6  7  1  0  0  0  0
  7 14  1  0  0  0  0
  8  6  1  0  0  0  0
  9  1  1  0  0  0  0
 10  1  1  0  0  0  0
 12  3  1  0  0  0  0
M  RAD  2   4   2   7   2
M  END
