title
 OpenBabel02282109573D

 13 13  0  0  0  0  0  0  0  0999 V2000
   -0.2443    2.6202   -0.0053 C   0  0  0  0  0  0  0  0  0  0  0  0
   -0.3704    1.1356   -0.0477 C   0  0  0  0  0  0  0  0  0  0  0  0
   -1.5046    0.4270   -0.2534 C   0  0  0  0  0  0  0  0  0  0  0  0
   -1.5148   -0.9488   -0.2741 N   0  0  0  0  0  0  0  0  0  0  0  0
   -0.3953   -1.5645   -0.0897 C   0  0  0  0  0  0  0  0  0  0  0  0
    0.8894   -0.8984    0.1405 C   0  0  0  0  0  0  0  0  0  0  0  0
    1.9562   -1.4162    0.3162 O   0  0  0  0  0  0  0  0  0  0  0  0
    0.8060    0.4969    0.1465 O   0  0  0  0  0  0  0  0  0  0  0  0
    0.4532    2.9670   -0.7752 H   0  0  0  0  0  0  0  0  0  0  0  0
   -1.2145    3.0931   -0.1657 H   0  0  0  0  0  0  0  0  0  0  0  0
    0.1541    2.9429    0.9625 H   0  0  0  0  0  0  0  0  0  0  0  0
   -2.4505    0.9290   -0.4101 H   0  0  0  0  0  0  0  0  0  0  0  0
   -0.3700   -2.6510   -0.1005 H   0  0  0  0  0  0  0  0  0  0  0  0
  1 11  1  0  0  0  0
  2  1  1  0  0  0  0
  2  8  1  0  0  0  0
  3  2  2  0  0  0  0
  4  3  1  0  0  0  0
  4  5  2  0  0  0  0
  5  6  1  0  0  0  0
  6  8  1  0  0  0  0
  6  7  2  0  0  0  0
  9  1  1  0  0  0  0
 10  1  1  0  0  0  0
 12  3  1  0  0  0  0
 13  5  1  0  0  0  0
M  END
