14
title
C -0.038401242 2.6274776 -0.2943089
C -0.026408361 1.128795 -0.37742597
N -0.06401094 0.53234315 -1.5344521
C -0.048401106 -0.8406383 -1.5092955
C 0.0023741466 -1.6015184 -0.38474533
C 0.044775784 -0.96876407 0.9158142
O 0.0921309 -1.4888299 2.0135257
N 0.025349975 0.44293973 0.79663616
H 0.8645706 2.9989297 0.20275056
H -0.086740114 3.03836 -1.3018118
H -0.9013808 2.980968 0.28068566
H -0.080505304 -1.3118308 -2.4881601
H 0.012700476 -2.6832457 -0.41721246
H 0.053436473 0.94008845 1.6779932
