title
 OpenBabel02282109573D

 13 13  0  0  0  0  0  0  0  0999 V2000
   -0.0659    2.5850   -0.2386 C   0  0  0  0  0  0  0  0  0  0  0  0
   -0.0547    1.0988   -0.3841 C   0  0  0  0  0  0  0  0  0  0  0  0
   -0.1527    0.5168   -1.5298 N   0  0  0  0  0  0  0  0  0  0  0  0
   -0.1282   -0.8609   -1.5138 C   0  0  0  0  0  0  0  0  0  0  0  0
   -0.0099   -1.6036   -0.3893 C   0  0  0  0  0  0  0  0  0  0  0  0
    0.1000   -0.9507    0.8935 C   0  0  0  0  0  0  0  0  0  0  0  0
    0.2114   -1.4268    1.9856 O   0  0  0  0  0  0  0  0  0  0  0  0
    0.0672    0.4676    0.7969 O   0  0  0  0  0  0  0  0  0  0  0  0
    0.8579    2.9228    0.2415 H   0  0  0  0  0  0  0  0  0  0  0  0
   -0.1660    3.0475   -1.2193 H   0  0  0  0  0  0  0  0  0  0  0  0
   -0.8951    2.8933    0.4061 H   0  0  0  0  0  0  0  0  0  0  0  0
   -0.2118   -1.3333   -2.4883 H   0  0  0  0  0  0  0  0  0  0  0  0
    0.0075   -2.6852   -0.3987 H   0  0  0  0  0  0  0  0  0  0  0  0
  1  9  1  0  0  0  0
  1 11  1  0  0  0  0
  2  1  1  0  0  0  0
  2  8  1  0  0  0  0
  3  4  1  0  0  0  0
  3  2  2  0  0  0  0
  4  5  2  0  0  0  0
  5  6  1  0  0  0  0
  6  7  2  0  0  0  0
  8  6  1  0  0  0  0
 10  1  1  0  0  0  0
 12  4  1  0  0  0  0
 13  5  1  0  0  0  0
M  END
