title
 OpenBabel02282109573D

 13 13  0  0  1  0  0  0  0  0999 V2000
   -0.0353    2.6441   -0.2907 C   0  0  0  0  0  0  0  0  0  0  0  0
   -0.0245    1.1471   -0.3594 C   0  0  2  0  0  0  0  0  0  0  0  0
   -0.0647    0.5303   -1.5110 N   0  0  0  0  0  0  0  0  0  0  0  0
   -0.0492   -0.8374   -1.4254 C   0  0  0  0  0  0  0  0  0  0  0  0
   -0.0003   -1.5909   -0.3668 N   0  0  0  0  0  0  0  0  0  0  0  0
    0.0431   -0.9652    0.8686 C   0  0  0  0  0  0  0  0  0  0  0  0
    0.0908   -1.5098    1.9438 O   0  0  0  0  0  0  0  0  0  0  0  0
    0.0277    0.4576    0.8009 N   0  0  0  0  0  0  0  0  0  0  0  0
    0.8652    3.0148    0.2105 H   0  0  0  0  0  0  0  0  0  0  0  0
   -0.0777    3.0467   -1.3016 H   0  0  0  0  0  0  0  0  0  0  0  0
   -0.9017    2.9988    0.2779 H   0  0  0  0  0  0  0  0  0  0  0  0
   -0.0824   -1.3473   -2.3873 H   0  0  0  0  0  0  0  0  0  0  0  0
    0.0589    0.9340    1.6932 H   0  0  0  0  0  0  0  0  0  0  0  0
  1  9  1  0  0  0  0
  1 11  1  0  0  0  0
  2  1  1  1  0  0  0
  2  8  1  0  0  0  0
  3  4  2  0  0  0  0
  3  2  1  0  0  0  0
  4  5  1  0  0  0  0
  5  6  1  0  0  0  0
  6  7  2  0  0  0  0
  8  6  1  0  0  0  0
  8 13  1  0  0  0  0
 10  1  1  0  0  0  0
 12  4  1  0  0  0  0
M  RAD  2   2   2   5   2
M  END
