title
 OpenBabel02282109573D

 12 12  0  0  0  0  0  0  0  0999 V2000
   -0.0644    2.6025   -0.2370 C   0  0  0  0  0  0  0  0  0  0  0  0
   -0.0534    1.1167   -0.3640 C   0  0  0  0  0  0  0  0  0  0  0  0
   -0.1576    0.5161   -1.5072 N   0  0  0  0  0  0  0  0  0  0  0  0
   -0.1290   -0.8535   -1.4299 C   0  0  0  0  0  0  0  0  0  0  0  0
   -0.0125   -1.5927   -0.3708 N   0  0  0  0  0  0  0  0  0  0  0  0
    0.0990   -0.9582    0.8446 C   0  0  0  0  0  0  0  0  0  0  0  0
    0.2138   -1.4498    1.9206 O   0  0  0  0  0  0  0  0  0  0  0  0
    0.0721    0.4852    0.8006 O   0  0  0  0  0  0  0  0  0  0  0  0
    0.8618    2.9409    0.2380 H   0  0  0  0  0  0  0  0  0  0  0  0
   -0.1687    3.0552   -1.2217 H   0  0  0  0  0  0  0  0  0  0  0  0
   -0.8904    2.9132    0.4104 H   0  0  0  0  0  0  0  0  0  0  0  0
   -0.2160   -1.3688   -2.3850 H   0  0  0  0  0  0  0  0  0  0  0  0
  1  9  1  0  0  0  0
  1 11  1  0  0  0  0
  2  1  1  0  0  0  0
  2  8  1  0  0  0  0
  3  4  2  0  0  0  0
  3  2  2  0  0  0  0
  4  5  1  0  0  0  0
  5  6  2  0  0  0  0
  6  7  2  0  0  0  0
  8  6  1  0  0  0  0
 10  1  1  0  0  0  0
 12  4  1  0  0  0  0
M  END
