title
 OpenBabel02282109573D

 13 13  0  0  0  0  0  0  0  0999 V2000
   -0.2771    2.4776    0.1284 N   0  0  0  0  0  0  0  0  0  0  0  0
   -0.4122    1.1228    0.0329 C   0  0  0  0  0  0  0  0  0  0  0  0
   -1.5965    0.4328    0.0078 C   0  0  0  0  0  0  0  0  0  0  0  0
   -1.5209   -0.9767   -0.0326 C   0  0  0  0  0  0  0  0  0  0  0  0
   -0.3290   -1.6426   -0.0495 C   0  0  0  0  0  0  0  0  0  0  0  0
    0.9149   -0.9324   -0.0303 C   0  0  0  0  0  0  0  0  0  0  0  0
    2.0438   -1.3367   -0.0458 O   0  0  0  0  0  0  0  0  0  0  0  0
    0.7675    0.5032    0.0090 O   0  0  0  0  0  0  0  0  0  0  0  0
    0.6263    2.8502   -0.1192 H   0  0  0  0  0  0  0  0  0  0  0  0
   -1.0711    3.0433   -0.1218 H   0  0  0  0  0  0  0  0  0  0  0  0
   -2.5399    0.9600    0.0285 H   0  0  0  0  0  0  0  0  0  0  0  0
   -2.4459   -1.5456   -0.0518 H   0  0  0  0  0  0  0  0  0  0  0  0
   -0.2633   -2.7214   -0.0817 H   0  0  0  0  0  0  0  0  0  0  0  0
  2  1  1  0  0  0  0
  3 11  1  0  0  0  0
  3  2  2  0  0  0  0
  4  3  1  0  0  0  0
  5  4  2  0  0  0  0
  5  6  1  0  0  0  0
  6  8  1  0  0  0  0
  7  6  2  0  0  0  0
  8  2  1  0  0  0  0
  9  1  1  0  0  0  0
 10  1  1  0  0  0  0
 12  4  1  0  0  0  0
 13  5  1  0  0  0  0
M  END
