title
 OpenBabel02282109573D

 13 13  0  0  1  0  0  0  0  0999 V2000
   -0.2576    2.4734    0.0991 N   0  0  0  0  0  0  0  0  0  0  0  0
   -0.3912    1.1289    0.0270 C   0  0  2  0  0  0  0  0  0  0  0  0
   -1.5673    0.4243    0.0083 C   0  0  0  0  0  0  0  0  0  0  0  0
   -1.4324   -0.9822   -0.0275 C   0  0  0  0  0  0  0  0  0  0  0  0
   -0.3017   -1.6337   -0.0430 N   0  0  0  0  0  0  0  0  0  0  0  0
    0.8674   -0.9113   -0.0236 C   0  0  0  0  0  0  0  0  0  0  0  0
    2.0581   -1.3393   -0.0315 N   0  0  0  0  0  0  0  0  0  0  0  0
    0.7869    0.5111    0.0052 O   0  0  0  0  0  0  0  0  0  0  0  0
    0.6547    2.8609   -0.0790 H   0  0  0  0  0  0  0  0  0  0  0  0
   -1.0577    3.0543   -0.0813 H   0  0  0  0  0  0  0  0  0  0  0  0
   -2.5274    0.9185    0.0256 H   0  0  0  0  0  0  0  0  0  0  0  0
   -2.3360   -1.5918   -0.0452 H   0  0  0  0  0  0  0  0  0  0  0  0
    2.0220   -2.3569   -0.0551 H   0  0  0  0  0  0  0  0  0  0  0  0
  2  1  1  1  0  0  0
  3 11  1  0  0  0  0
  3  2  1  0  0  0  0
  4  3  2  0  0  0  0
  5  4  1  0  0  0  0
  5  6  2  0  0  0  0
  6  8  1  0  0  0  0
  7  6  1  0  0  0  0
  8  2  1  0  0  0  0
  9  1  1  0  0  0  0
 10  1  1  0  0  0  0
 12  4  1  0  0  0  0
 13  7  1  0  0  0  0
M  RAD  2   2   2   7   2
M  END
