title
 OpenBabel02282109573D

 13 13  0  0  0  0  0  0  0  0999 V2000
   -0.3158    2.5422    0.1424 N   0  0  0  0  0  0  0  0  0  0  0  0
   -0.3862    1.1793    0.0402 C   0  0  0  0  0  0  0  0  0  0  0  0
   -1.5604    0.4531    0.0180 C   0  0  0  0  0  0  0  0  0  0  0  0
   -1.4303   -0.9474   -0.0307 C   0  0  0  0  0  0  0  0  0  0  0  0
   -0.3114   -1.6340   -0.0621 N   0  0  0  0  0  0  0  0  0  0  0  0
    0.8782   -0.9453   -0.0395 C   0  0  0  0  0  0  0  0  0  0  0  0
    1.9895   -1.4274   -0.0559 O   0  0  0  0  0  0  0  0  0  0  0  0
    0.7746    0.4847    0.0081 N   0  0  0  0  0  0  0  0  0  0  0  0
    0.5180    3.0003   -0.1920 H   0  0  0  0  0  0  0  0  0  0  0  0
   -1.1667    3.0471   -0.0482 H   0  0  0  0  0  0  0  0  0  0  0  0
   -2.5251    0.9401    0.0357 H   0  0  0  0  0  0  0  0  0  0  0  0
   -2.3452   -1.5410   -0.0501 H   0  0  0  0  0  0  0  0  0  0  0  0
    1.6673    0.9566    0.0557 H   0  0  0  0  0  0  0  0  0  0  0  0
  2  1  1  0  0  0  0
  3 11  1  0  0  0  0
  3  2  2  0  0  0  0
  4  3  1  0  0  0  0
  5  6  1  0  0  0  0
  5  4  2  0  0  0  0
  6  8  1  0  0  0  0
  7  6  2  0  0  0  0
  8  2  1  0  0  0  0
  8 13  1  0  0  0  0
  9  1  1  0  0  0  0
 10  1  1  0  0  0  0
 12  4  1  0  0  0  0
M  END
