title
 OpenBabel02282109573D

 13 13  0  0  0  0  0  0  0  0999 V2000
   -0.2160    2.4765    0.1554 N   0  0  0  0  0  0  0  0  0  0  0  0
   -0.3639    1.1199    0.0368 C   0  0  0  0  0  0  0  0  0  0  0  0
   -1.5284    0.4181   -0.0018 C   0  0  0  0  0  0  0  0  0  0  0  0
   -1.5272   -0.9544   -0.0459 N   0  0  0  0  0  0  0  0  0  0  0  0
   -0.3961   -1.5767   -0.0582 C   0  0  0  0  0  0  0  0  0  0  0  0
    0.8980   -0.9110   -0.0320 C   0  0  0  0  0  0  0  0  0  0  0  0
    2.0172   -1.5050   -0.0512 N   0  0  0  0  0  0  0  0  0  0  0  0
    0.8307    0.4902    0.0141 O   0  0  0  0  0  0  0  0  0  0  0  0
    0.6630    2.8449   -0.1772 H   0  0  0  0  0  0  0  0  0  0  0  0
   -1.0205    3.0319   -0.0902 H   0  0  0  0  0  0  0  0  0  0  0  0
   -2.4859    0.9227    0.0095 H   0  0  0  0  0  0  0  0  0  0  0  0
   -0.3755   -2.6614   -0.0934 H   0  0  0  0  0  0  0  0  0  0  0  0
    2.7923   -0.8424   -0.0242 H   0  0  0  0  0  0  0  0  0  0  0  0
  2  1  1  0  0  0  0
  3 11  1  0  0  0  0
  3  2  2  0  0  0  0
  4  3  1  0  0  0  0
  5  4  1  0  0  0  0
  5  6  2  0  0  0  0
  6  8  1  0  0  0  0
  7  6  1  0  0  0  0
  7 13  1  0  0  0  0
  8  2  1  0  0  0  0
  9  1  1  0  0  0  0
 10  1  1  0  0  0  0
 12  5  1  0  0  0  0
M  RAD  2   4   2   7   2
M  END
