13
title
N -0.264565 2.422709 0.1060146
C -0.3864197 1.075846 0.02666185
N -1.5405812 0.49432126 0.008568328
C -1.500184 -0.88254106 -0.019934658
C -0.36316314 -1.6132532 -0.037611943
C 0.9124569 -0.9456049 -0.028323343
N 2.0538182 -1.4931439 -0.047630273
O 0.8184268 0.47008845 0.004407074
H 0.6231569 2.838819 -0.117222585
H -1.1013045 2.9578276 -0.05298661
H -2.4721565 -1.366479 -0.029734578
H -0.3587678 -2.693549 -0.061713386
H 2.7984288 -0.79679704 -0.033150714
