13
title
N -0.33239064 2.4845994 0.13807301
C -0.3779243 1.1185497 0.036819853
N -1.5388043 0.5144669 0.016673459
C -1.4947779 -0.84944725 -0.021062955
C -0.36326417 -1.6072105 -0.057761062
C 0.9282136 -0.96668756 -0.041647483
O 2.0359612 -1.467791 -0.060493696
N 0.8066709 0.45101514 0.0100845685
H 0.4594573 2.9682066 -0.25556523
H -1.2252733 2.9247758 -0.025823917
H -2.4696352 -1.3307167 -0.027673494
H -0.39251506 -2.6875567 -0.09362206
H 1.6883496 0.94354206 0.06914333
