12
title
N -0.29071173 2.4290671 -0.038777214
C -0.38890597 1.0856758 -0.0031562448
N -1.5521011 0.4959258 0.012701379
C -1.5023762 -0.865709 0.017172955
C -0.36115876 -1.6078619 0.010244939
C 0.9148522 -0.9562381 0.00029545845
O 2.0263033 -1.3971812 -0.0021648835
O 0.8033605 0.48374894 -0.0056836884
H 0.6061818 2.8659399 0.07961789
H -1.1331311 2.9656522 0.07118526
H -2.4713387 -1.358261 0.02827213
H -0.368512 -2.6886005 0.015228463
