12
title
N -0.27916828 2.424927 0.0137210805
C -0.36843154 1.0887182 0.007502455
N -1.5240319 0.48026168 0.010706168
C -1.4147655 -0.8798406 0.0032659613
N -0.33248195 -1.5970063 -0.0062199063
C 0.87111276 -0.9285219 -0.009632539
N 2.0416532 -1.3984692 -0.017927738
O 0.8235319 0.49284458 -0.0020744945
H 0.619673 2.874001 0.010996978
H -1.1274725 2.9630501 0.020996882
H -2.3627636 -1.4149451 0.0058295922
H 1.9741513 -2.4148922 -0.022317091
