title
 OpenBabel02282109573D

 11 11  0  0  0  0  0  0  0  0999 V2000
   -0.2945    2.4435    0.0142 N   0  0  0  0  0  0  0  0  0  0  0  0
   -0.3628    1.1076    0.0077 C   0  0  0  0  0  0  0  0  0  0  0  0
   -1.5268    0.4939    0.0108 N   0  0  0  0  0  0  0  0  0  0  0  0
   -1.4229   -0.8523    0.0036 C   0  0  0  0  0  0  0  0  0  0  0  0
   -0.3444   -1.5945   -0.0063 N   0  0  0  0  0  0  0  0  0  0  0  0
    0.8626   -0.9711   -0.0097 C   0  0  0  0  0  0  0  0  0  0  0  0
    1.9597   -1.4266   -0.0182 O   0  0  0  0  0  0  0  0  0  0  0  0
    0.8136    0.5054   -0.0018 O   0  0  0  0  0  0  0  0  0  0  0  0
    0.5975    2.9067    0.0118 H   0  0  0  0  0  0  0  0  0  0  0  0
   -1.1509    2.9697    0.0215 H   0  0  0  0  0  0  0  0  0  0  0  0
   -2.3722   -1.3858    0.0053 H   0  0  0  0  0  0  0  0  0  0  0  0
  1 10  1  0  0  0  0
  2  3  2  0  0  0  0
  2  1  1  0  0  0  0
  4 11  1  0  0  0  0
  4  3  2  0  0  0  0
  5  4  1  0  0  0  0
  6  5  2  0  0  0  0
  6  8  1  0  0  0  0
  7  6  2  0  0  0  0
  8  2  1  0  0  0  0
  9  1  1  0  0  0  0
M  END
