11
title
N -0.29445866 2.4434693 0.014173826
C -0.3627688 1.1075782 0.007660542
N -1.5267606 0.49389103 0.010826765
C -1.4229012 -0.85226125 0.0036449109
N -0.3443943 -1.5945282 -0.006344114
C 0.86256623 -0.97107726 -0.009698104
O 1.9596802 -1.4265981 -0.01817586
O 0.8136281 0.5053838 -0.0017924265
H 0.59750444 2.9066792 0.011783736
H -1.1509043 2.9696941 0.021499706
H -2.372207 -1.3858447 0.0052537327
