title
 OpenBabel02282109573D

 13 13  0  0  0  0  0  0  0  0999 V2000
   -0.2774    2.4290    0.0144 O   0  0  0  0  0  0  0  0  0  0  0  0
   -0.3985    1.0973    0.0080 C   0  0  0  0  0  0  0  0  0  0  0  0
   -1.5807    0.4432    0.0111 C   0  0  0  0  0  0  0  0  0  0  0  0
   -1.5249   -0.9859    0.0032 C   0  0  0  0  0  0  0  0  0  0  0  0
   -0.3459   -1.6524   -0.0069 C   0  0  0  0  0  0  0  0  0  0  0  0
    0.9091   -0.9431   -0.0100 C   0  0  0  0  0  0  0  0  0  0  0  0
    2.0636   -1.4672   -0.0192 N   0  0  0  0  0  0  0  0  0  0  0  0
    0.7911    0.4751   -0.0019 O   0  0  0  0  0  0  0  0  0  0  0  0
    0.6646    2.6438    0.0104 H   0  0  0  0  0  0  0  0  0  0  0  0
   -2.5060    0.9988    0.0192 H   0  0  0  0  0  0  0  0  0  0  0  0
   -2.4572   -1.5410    0.0054 H   0  0  0  0  0  0  0  0  0  0  0  0
   -0.2805   -2.7315   -0.0130 H   0  0  0  0  0  0  0  0  0  0  0  0
    2.7950   -0.7578   -0.0195 H   0  0  0  0  0  0  0  0  0  0  0  0
  2  3  2  0  0  0  0
  2  1  1  0  0  0  0
  3 10  1  0  0  0  0
  4 11  1  0  0  0  0
  4  3  1  0  0  0  0
  5  4  2  0  0  0  0
  6  5  1  0  0  0  0
  6  8  1  0  0  0  0
  7  6  2  0  0  0  0
  8  2  1  0  0  0  0
  9  1  1  0  0  0  0
 12  5  1  0  0  0  0
 13  7  1  0  0  0  0
M  END
