13
title
O -0.2774267 2.4289718 0.0144395195
C -0.39848992 1.0973477 0.008038472
C -1.580676 0.44322857 0.011113945
C -1.5249465 -0.9859447 0.0032106242
C -0.34592146 -1.652367 -0.0068638246
C 0.9090774 -0.9430699 -0.010034757
N 2.0635507 -1.4671868 -0.019239161
O 0.7910894 0.4750717 -0.0018553756
H 0.6645582 2.643751 0.010374114
H -2.50602 0.9987936 0.019192588
H -2.4572442 -1.5409926 0.005422204
H -0.28045696 -2.73149 -0.012968829
H 2.795021 -0.7577569 -0.019524483
