13
title
O 0.1931123 2.4759452 0.012254303
C 0.37697622 1.1397302 0.004007842
C 1.5773011 0.4834042 -0.0063034575
C 1.5395217 -0.9359286 -0.013698813
C 0.37090138 -1.6399586 -0.010907213
C -0.9102077 -0.9697442 -0.00023056952
O -2.0217597 -1.4682789 0.0035825318
N -0.7856092 0.4465132 0.0068012914
H 1.0522537 2.911877 0.009881012
H 2.5092115 1.0328418 -0.008591221
H 2.4835212 -1.4727337 -0.02185163
H 0.34895876 -2.721661 -0.01652091
H -1.657691 0.9591493 0.0145090865
