11
title
O -0.3158262 2.4554303 0.014732285
C -0.37945807 1.1303462 0.008085063
C -1.5658815 0.44330707 0.011047982
C -1.4424058 -0.9550706 0.0029500413
N -0.31968734 -1.6396154 -0.0069061792
C 0.8640487 -0.98989856 -0.0099438345
O 1.9791193 -1.3959938 -0.018447055
O 0.7788533 0.5216358 -0.0015384767
H 0.6181441 2.7126384 0.010906229
H -2.5146358 0.9561959 0.019014673
H -2.3514428 -1.5553423 0.0047784885
