title
 OpenBabel02282109573D

 13 13  0  0  0  0  0  0  0  0999 V2000
    0.1317    2.4662    0.0126 O   0  0  0  0  0  0  0  0  0  0  0  0
    0.3185    1.1325    0.0043 C   0  0  0  0  0  0  0  0  0  0  0  0
    1.5139    0.4709   -0.0060 C   0  0  0  0  0  0  0  0  0  0  0  0
    1.5463   -0.8977   -0.0136 N   0  0  0  0  0  0  0  0  0  0  0  0
    0.4379   -1.5669   -0.0110 C   0  0  0  0  0  0  0  0  0  0  0  0
   -0.8978   -0.9684   -0.0002 C   0  0  0  0  0  0  0  0  0  0  0  0
   -2.0521   -1.5263    0.0033 N   0  0  0  0  0  0  0  0  0  0  0  0
   -0.8408    0.4319    0.0071 N   0  0  0  0  0  0  0  0  0  0  0  0
    0.9904    2.9039    0.0103 H   0  0  0  0  0  0  0  0  0  0  0  0
    2.4574    1.0032   -0.0084 H   0  0  0  0  0  0  0  0  0  0  0  0
    0.4906   -2.6538   -0.0172 H   0  0  0  0  0  0  0  0  0  0  0  0
   -1.9496   -2.5395   -0.0027 H   0  0  0  0  0  0  0  0  0  0  0  0
   -1.7225    0.9271    0.0148 H   0  0  0  0  0  0  0  0  0  0  0  0
  2  8  1  0  0  0  0
  2  1  1  0  0  0  0
  3  2  2  0  0  0  0
  4  5  2  0  0  0  0
  4  3  1  0  0  0  0
  5  6  1  0  0  0  0
  6  7  2  0  0  0  0
  6  8  1  0  0  0  0
  8 13  1  0  0  0  0
  9  1  1  0  0  0  0
 10  3  1  0  0  0  0
 11  5  1  0  0  0  0
 12  7  1  0  0  0  0
M  END
