title
 OpenBabel02282109573D

 12 12  0  0  0  0  0  0  0  0999 V2000
   -0.2486    2.4331    0.0136 O   0  0  0  0  0  0  0  0  0  0  0  0
   -0.3582    1.1032    0.0075 C   0  0  0  0  0  0  0  0  0  0  0  0
   -1.5272    0.4253    0.0105 C   0  0  0  0  0  0  0  0  0  0  0  0
   -1.5307   -0.9526    0.0036 N   0  0  0  0  0  0  0  0  0  0  0  0
   -0.4058   -1.5817   -0.0057 C   0  0  0  0  0  0  0  0  0  0  0  0
    0.8985   -0.9302   -0.0096 C   0  0  0  0  0  0  0  0  0  0  0  0
    2.0106   -1.5329   -0.0186 N   0  0  0  0  0  0  0  0  0  0  0  0
    0.8349    0.4774   -0.0022 O   0  0  0  0  0  0  0  0  0  0  0  0
    0.6901    2.6629    0.0096 H   0  0  0  0  0  0  0  0  0  0  0  0
   -2.4733    0.9470    0.0183 H   0  0  0  0  0  0  0  0  0  0  0  0
   -0.3935   -2.6672   -0.0112 H   0  0  0  0  0  0  0  0  0  0  0  0
    2.7960   -0.8825   -0.0197 H   0  0  0  0  0  0  0  0  0  0  0  0
  2  3  2  0  0  0  0
  2  1  1  0  0  0  0
  3 10  1  0  0  0  0
  4  3  1  0  0  0  0
  5  4  1  0  0  0  0
  6  5  2  0  0  0  0
  6  8  1  0  0  0  0
  7  6  1  0  0  0  0
  8  2  1  0  0  0  0
  9  1  1  0  0  0  0
 11  5  1  0  0  0  0
 12  7  1  0  0  0  0
M  RAD  2   4   2   7   2
M  END
