12
title
O -0.24856599 2.4330995 0.013552643
C -0.35819176 1.1031795 0.007497871
C -1.5272193 0.42531493 0.010477829
N -1.5307189 -0.9525946 0.0035835113
C -0.40577504 -1.5816644 -0.005712663
C 0.8985259 -0.9302328 -0.00960497
N 2.010627 -1.5328723 -0.018638354
O 0.8349109 0.4773852 -0.0021779004
H 0.69008857 2.6629019 0.009579422
H -2.4732716 0.9469998 0.018255495
H -0.3934866 -2.6671581 -0.01118983
H 2.7959535 -0.88248366 -0.019658338
