11
title
O 0.18265766 2.3855991 0.012612265
C 0.32653123 1.0742673 0.00427757
N 1.4958292 0.51540947 -0.005080671
C 1.4339453 -0.85781395 -0.012508499
N 0.37272468 -1.5958529 -0.011062469
C -0.8529874 -0.9609606 -0.00072373997
N -2.0069027 -1.4622273 0.002288727
O -0.8408592 0.46720245 0.007176076
H 1.0755358 2.7616272 0.010008898
H 2.398449 -1.3606625 -0.020658398
H -1.9178671 -2.4768598 -0.00421196
