title
 OpenBabel02282109573D

 16 16  0  0  0  0  0  0  0  0999 V2000
    0.2015    2.5095    0.0631 C   0  0  0  0  0  0  0  0  0  0  0  0
    0.0767    1.0266    0.0263 C   0  0  0  0  0  0  0  0  0  0  0  0
   -1.0045    0.2130    0.0781 C   0  0  0  0  0  0  0  0  0  0  0  0
   -2.4595    0.5070    0.1903 C   0  0  0  0  0  0  0  0  0  0  0  0
   -0.5269   -1.1020    0.0033 N   0  0  0  0  0  0  0  0  0  0  0  0
    0.8567   -1.1445   -0.0962 C   0  0  0  0  0  0  0  0  0  0  0  0
    1.5837   -2.1157   -0.1772 O   0  0  0  0  0  0  0  0  0  0  0  0
    1.2025    0.1995   -0.0800 N   0  0  0  0  0  0  0  0  0  0  0  0
    0.8041    2.8457    0.9165 H   0  0  0  0  0  0  0  0  0  0  0  0
    0.6784    2.8999   -0.8449 H   0  0  0  0  0  0  0  0  0  0  0  0
   -0.7812    2.9779    0.1478 H   0  0  0  0  0  0  0  0  0  0  0  0
   -3.0206    0.1150   -0.6676 H   0  0  0  0  0  0  0  0  0  0  0  0
   -2.8955    0.0625    1.0939 H   0  0  0  0  0  0  0  0  0  0  0  0
   -2.6337    1.5840    0.2347 H   0  0  0  0  0  0  0  0  0  0  0  0
   -1.0818   -1.9392    0.0169 H   0  0  0  0  0  0  0  0  0  0  0  0
    2.1594    0.4997   -0.1357 H   0  0  0  0  0  0  0  0  0  0  0  0
  1 11  1  0  0  0  0
  1  9  1  0  0  0  0
  2  1  1  0  0  0  0
  2  3  2  0  0  0  0
  3  4  1  0  0  0  0
  4 14  1  0  0  0  0
  4 13  1  0  0  0  0
  5 15  1  0  0  0  0
  5  3  1  0  0  0  0
  6  8  1  0  0  0  0
  6  5  1  0  0  0  0
  7  6  2  0  0  0  0
  8  2  1  0  0  0  0
 10  1  1  0  0  0  0
 12  4  1  0  0  0  0
 16  8  1  0  0  0  0
M  END
