16
title
C 0.20145148 2.5094895 0.06310116
C 0.07666887 1.0265825 0.026330687
C -1.0044838 0.21301349 0.07807776
C -2.4594545 0.5070481 0.19027007
N -0.5269034 -1.1020215 0.0033257494
C 0.856681 -1.1444972 -0.09617623
O 1.5837013 -2.115718 -0.17721991
N 1.2024709 0.19945247 -0.080038354
H 0.80410296 2.8456564 0.9164637
H 0.67843056 2.8998647 -0.844898
H -0.7812253 2.9778893 0.14776908
H -3.020574 0.11504873 -0.6675568
H -2.8955288 0.062466044 1.0939132
H -2.633695 1.5840286 0.23474684
H -1.0817976 -1.9392037 0.016866853
H 2.1594136 0.49967843 -0.13566183
