title
 OpenBabel02282109573D

 15 15  0  0  0  0  0  0  0  0999 V2000
    0.2114    2.5129   -0.2749 C   0  0  0  0  0  0  0  0  0  0  0  0
    0.0938    1.0388   -0.1140 C   0  0  0  0  0  0  0  0  0  0  0  0
   -0.9680    0.2305    0.0421 C   0  0  0  0  0  0  0  0  0  0  0  0
   -2.4309    0.4573    0.1187 C   0  0  0  0  0  0  0  0  0  0  0  0
   -0.5361   -1.0852    0.1491 O   0  0  0  0  0  0  0  0  0  0  0  0
    0.8415   -1.1148    0.0580 C   0  0  0  0  0  0  0  0  0  0  0  0
    1.5111   -2.1103    0.1151 O   0  0  0  0  0  0  0  0  0  0  0  0
    1.2171    0.1979   -0.1031 N   0  0  0  0  0  0  0  0  0  0  0  0
    0.8111    2.9593    0.5277 H   0  0  0  0  0  0  0  0  0  0  0  0
    0.6883    2.7778   -1.2265 H   0  0  0  0  0  0  0  0  0  0  0  0
   -0.7749    2.9802   -0.2542 H   0  0  0  0  0  0  0  0  0  0  0  0
   -2.6587    1.5213    0.0241 H   0  0  0  0  0  0  0  0  0  0  0  0
   -2.9577   -0.0785   -0.6792 H   0  0  0  0  0  0  0  0  0  0  0  0
   -2.8379    0.1030    1.0728 H   0  0  0  0  0  0  0  0  0  0  0  0
    2.1788    0.4717   -0.1991 H   0  0  0  0  0  0  0  0  0  0  0  0
  1 11  1  0  0  0  0
  1  2  1  0  0  0  0
  1  9  1  0  0  0  0
  2  8  1  0  0  0  0
  2  3  2  0  0  0  0
  3  4  1  0  0  0  0
  3  5  1  0  0  0  0
  4 14  1  0  0  0  0
  6  7  2  0  0  0  0
  6  5  1  0  0  0  0
  8  6  1  0  0  0  0
 10  1  1  0  0  0  0
 12  4  1  0  0  0  0
 13  4  1  0  0  0  0
 15  8  1  0  0  0  0
M  END
