15
title
C 0.16313727 2.5104325 -0.18393803
C 0.0737523 1.0295091 -0.079999365
C -0.98750025 0.19124688 -0.12964448
N -2.354174 0.39172444 -0.3812534
N -0.51475054 -1.1071715 0.07829216
C 0.871694 -1.124021 0.20617278
O 1.605284 -2.0831602 0.34659988
N 1.2048967 0.21829732 0.13151452
H 0.71964985 2.836799 -1.0723958
H -0.83679837 2.949122 -0.24316299
H 0.66098833 2.9489422 0.6903746
H -2.9264307 0.28436723 0.4520213
H -2.5296524 1.3077227 -0.7736082
H -1.0484018 -1.9446762 -0.07664221
H 2.1618013 0.5238435 0.1376718
