title
 OpenBabel02282109573D

 13 13  0  0  0  0  0  0  0  0999 V2000
    0.2869    2.4719    0.0963 C   0  0  0  0  0  0  0  0  0  0  0  0
    0.0969    1.0060    0.0412 C   0  0  0  0  0  0  0  0  0  0  0  0
   -0.9799    0.2231    0.1069 C   0  0  0  0  0  0  0  0  0  0  0  0
   -2.3246    0.5220    0.2535 N   0  0  0  0  0  0  0  0  0  0  0  0
   -0.5539   -1.1163   -0.0021 O   0  0  0  0  0  0  0  0  0  0  0  0
    0.8003   -1.1033   -0.1337 C   0  0  0  0  0  0  0  0  0  0  0  0
    1.5077   -2.0522   -0.2506 O   0  0  0  0  0  0  0  0  0  0  0  0
    1.2179    0.2016   -0.1088 O   0  0  0  0  0  0  0  0  0  0  0  0
    0.9303    2.7548    0.9364 H   0  0  0  0  0  0  0  0  0  0  0  0
    0.7588    2.8430   -0.8200 H   0  0  0  0  0  0  0  0  0  0  0  0
   -0.6847    2.9545    0.2154 H   0  0  0  0  0  0  0  0  0  0  0  0
   -2.8813    0.2067   -0.5352 H   0  0  0  0  0  0  0  0  0  0  0  0
   -2.7214    0.1246    1.0996 H   0  0  0  0  0  0  0  0  0  0  0  0
  1 11  1  0  0  0  0
  1  9  1  0  0  0  0
  2  1  1  0  0  0  0
  2  3  2  0  0  0  0
  3  4  1  0  0  0  0
  4 13  1  0  0  0  0
  5  3  1  0  0  0  0
  6  8  1  0  0  0  0
  6  5  1  0  0  0  0
  7  6  2  0  0  0  0
  8  2  1  0  0  0  0
 10  1  1  0  0  0  0
 12  4  1  0  0  0  0
M  END
