title
 OpenBabel02282109573D

 14 14  0  0  0  0  0  0  0  0999 V2000
    0.1390    2.5153   -0.0411 C   0  0  0  0  0  0  0  0  0  0  0  0
    0.0813    1.0305   -0.0185 C   0  0  0  0  0  0  0  0  0  0  0  0
   -0.9708    0.1946    0.0854 C   0  0  0  0  0  0  0  0  0  0  0  0
   -2.2863    0.4744    0.2739 O   0  0  0  0  0  0  0  0  0  0  0  0
   -0.5015   -1.1227    0.0155 N   0  0  0  0  0  0  0  0  0  0  0  0
    0.8902   -1.1402   -0.0751 C   0  0  0  0  0  0  0  0  0  0  0  0
    1.6319   -2.1020   -0.0966 O   0  0  0  0  0  0  0  0  0  0  0  0
    1.2153    0.2062   -0.1342 N   0  0  0  0  0  0  0  0  0  0  0  0
    0.7467    2.9141    0.7809 H   0  0  0  0  0  0  0  0  0  0  0  0
    0.5653    2.8963   -0.9776 H   0  0  0  0  0  0  0  0  0  0  0  0
   -0.8706    2.9187    0.0629 H   0  0  0  0  0  0  0  0  0  0  0  0
   -2.7779    0.2860   -0.5354 H   0  0  0  0  0  0  0  0  0  0  0  0
   -1.0306   -1.9447    0.2499 H   0  0  0  0  0  0  0  0  0  0  0  0
    2.1710    0.5155   -0.1581 H   0  0  0  0  0  0  0  0  0  0  0  0
  1  2  1  0  0  0  0
  1 11  1  0  0  0  0
  1  9  1  0  0  0  0
  2  3  2  0  0  0  0
  3  4  1  0  0  0  0
  5  3  1  0  0  0  0
  5 13  1  0  0  0  0
  6  5  1  0  0  0  0
  7  6  2  0  0  0  0
  8  6  1  0  0  0  0
  8  2  1  0  0  0  0
 10  1  1  0  0  0  0
 12  4  1  0  0  0  0
 14  8  1  0  0  0  0
M  END
