14
title
C 0.1389516 2.5153275 -0.04105054
C 0.08128569 1.0304987 -0.018483926
C -0.970768 0.19461387 0.085354485
O -2.286322 0.47436297 0.27393892
N -0.501499 -1.1227272 0.015455734
C 0.89017016 -1.1402223 -0.07505086
O 1.6319036 -2.1019592 -0.0966069
N 1.2153194 0.20618492 -0.13423564
H 0.7466997 2.914146 0.78086674
H 0.56527996 2.8962848 -0.9776079
H -0.8705651 2.9187493 0.06288007
H -2.7778845 0.28603595 -0.53539586
H -1.0305965 -1.9446945 0.24987489
H 2.1709836 0.5154961 -0.15807146
