13
title
C 0.17815137 2.537281 -0.016325854
C 0.10240612 1.0541896 -0.006879614
C -0.934917 0.21148862 -0.07886233
O -2.255529 0.44197094 -0.12645906
O -0.52318984 -1.0997196 -0.03337409
C 0.87157446 -1.1105851 0.073251784
O 1.5316724 -2.111554 0.116579816
N 1.2320104 0.2068549 0.10884069
H 0.81182677 2.90755 -0.83176565
H -0.8229277 2.9517896 -0.15224712
H 0.5827578 2.934974 0.92278165
H -2.678918 -0.29107147 -0.59019554
H 2.192337 0.4953187 0.16887471
