14
title
N 0.24387419 2.3912182 0.06871747
C 0.10531203 1.0028698 -0.007983855
C -0.9985755 0.22378927 0.0038456547
N -2.3385713 0.6378272 -0.00211387
N -0.5399298 -1.1215459 -0.02449793
C 0.84139186 -1.1787242 -0.006722316
O 1.5672033 -2.152447 0.041943975
N 1.219107 0.16676545 -0.055601228
H 0.73143715 2.7757945 -0.7359635
H -0.6778689 2.8123891 0.11770509
H -2.8508692 0.35877603 0.82924646
H -2.8542438 0.31134653 -0.8140326
H -1.1010516 -1.9412833 0.12675872
H 2.1658208 0.45185417 0.12749246
