title
 OpenBabel02282109573D

 14 14  0  0  0  0  0  0  0  0999 V2000
    0.2439    2.3912    0.0687 N   0  0  0  0  0  0  0  0  0  0  0  0
    0.1053    1.0029   -0.0080 C   0  0  0  0  0  0  0  0  0  0  0  0
   -0.9986    0.2238    0.0038 C   0  0  0  0  0  0  0  0  0  0  0  0
   -2.3386    0.6378   -0.0021 N   0  0  0  0  0  0  0  0  0  0  0  0
   -0.5399   -1.1215   -0.0245 N   0  0  0  0  0  0  0  0  0  0  0  0
    0.8414   -1.1787   -0.0067 C   0  0  0  0  0  0  0  0  0  0  0  0
    1.5672   -2.1524    0.0419 O   0  0  0  0  0  0  0  0  0  0  0  0
    1.2191    0.1668   -0.0556 N   0  0  0  0  0  0  0  0  0  0  0  0
    0.7314    2.7758   -0.7360 H   0  0  0  0  0  0  0  0  0  0  0  0
   -0.6779    2.8124    0.1177 H   0  0  0  0  0  0  0  0  0  0  0  0
   -2.8509    0.3588    0.8292 H   0  0  0  0  0  0  0  0  0  0  0  0
   -2.8542    0.3113   -0.8140 H   0  0  0  0  0  0  0  0  0  0  0  0
   -1.1011   -1.9413    0.1268 H   0  0  0  0  0  0  0  0  0  0  0  0
    2.1658    0.4519    0.1275 H   0  0  0  0  0  0  0  0  0  0  0  0
  1 10  1  0  0  0  0
  2  3  2  0  0  0  0
  2  1  1  0  0  0  0
  4  3  1  0  0  0  0
  4 11  1  0  0  0  0
  5  6  1  0  0  0  0
  5  3  1  0  0  0  0
  5 13  1  0  0  0  0
  6  7  2  0  0  0  0
  8  2  1  0  0  0  0
  8  6  1  0  0  0  0
  8 14  1  0  0  0  0
  9  1  1  0  0  0  0
 12  4  1  0  0  0  0
M  END
