12
title
N 0.31042746 2.350368 0.06925968
C 0.101255625 0.99122375 -0.015222479
C -0.9957686 0.22913235 -0.030901177
N -2.3377125 0.5576314 -0.048921064
O -0.55771536 -1.1272315 0.012332875
C 0.79108155 -1.1211435 0.016870469
O 1.5151322 -2.0649407 0.021400504
O 1.2205356 0.19263119 0.012410756
H 1.0503782 2.6794016 -0.539796
H -0.54710597 2.8665695 -0.08015682
H -2.832441 0.2979144 0.79908556
H -2.8360722 0.17363536 -0.845584
