title
 OpenBabel02282109573D

 12 12  0  0  0  0  0  0  0  0999 V2000
    0.3104    2.3504    0.0693 N   0  0  0  0  0  0  0  0  0  0  0  0
    0.1013    0.9912   -0.0152 C   0  0  0  0  0  0  0  0  0  0  0  0
   -0.9958    0.2291   -0.0309 C   0  0  0  0  0  0  0  0  0  0  0  0
   -2.3377    0.5576   -0.0489 N   0  0  0  0  0  0  0  0  0  0  0  0
   -0.5577   -1.1272    0.0123 O   0  0  0  0  0  0  0  0  0  0  0  0
    0.7911   -1.1211    0.0169 C   0  0  0  0  0  0  0  0  0  0  0  0
    1.5151   -2.0649    0.0214 O   0  0  0  0  0  0  0  0  0  0  0  0
    1.2205    0.1926    0.0124 O   0  0  0  0  0  0  0  0  0  0  0  0
    1.0504    2.6794   -0.5398 H   0  0  0  0  0  0  0  0  0  0  0  0
   -0.5471    2.8666   -0.0802 H   0  0  0  0  0  0  0  0  0  0  0  0
   -2.8324    0.2979    0.7991 H   0  0  0  0  0  0  0  0  0  0  0  0
   -2.8361    0.1736   -0.8456 H   0  0  0  0  0  0  0  0  0  0  0  0
  2  8  1  0  0  0  0
  2  1  1  0  0  0  0
  3  2  2  0  0  0  0
  3  5  1  0  0  0  0
  4  3  1  0  0  0  0
  4 11  1  0  0  0  0
  5  6  1  0  0  0  0
  6  7  2  0  0  0  0
  8  6  1  0  0  0  0
  9  1  1  0  0  0  0
 10  1  1  0  0  0  0
 12  4  1  0  0  0  0
M  END
