title
 OpenBabel02282109573D

 13 13  0  0  0  0  0  0  0  0999 V2000
    0.2082    2.4068    0.1021 N   0  0  0  0  0  0  0  0  0  0  0  0
    0.0868    1.0144    0.0037 C   0  0  0  0  0  0  0  0  0  0  0  0
   -0.9809    0.1937    0.0110 C   0  0  0  0  0  0  0  0  0  0  0  0
   -2.3048    0.4919    0.1047 O   0  0  0  0  0  0  0  0  0  0  0  0
   -0.5123   -1.1325   -0.0664 N   0  0  0  0  0  0  0  0  0  0  0  0
    0.8811   -1.1506   -0.0417 C   0  0  0  0  0  0  0  0  0  0  0  0
    1.6202   -2.1123    0.0060 O   0  0  0  0  0  0  0  0  0  0  0  0
    1.2253    0.1982   -0.0807 N   0  0  0  0  0  0  0  0  0  0  0  0
    0.5112    2.8352   -0.7690 H   0  0  0  0  0  0  0  0  0  0  0  0
   -0.6794    2.8169    0.3673 H   0  0  0  0  0  0  0  0  0  0  0  0
   -2.7287    0.3559   -0.7527 H   0  0  0  0  0  0  0  0  0  0  0  0
   -1.0421   -1.9423    0.2104 H   0  0  0  0  0  0  0  0  0  0  0  0
    2.1585    0.5057    0.1359 H   0  0  0  0  0  0  0  0  0  0  0  0
  1 10  1  0  0  0  0
  2  3  2  0  0  0  0
  2  1  1  0  0  0  0
  3  4  1  0  0  0  0
  5  6  1  0  0  0  0
  5  3  1  0  0  0  0
  5 12  1  0  0  0  0
  6  7  2  0  0  0  0
  8  6  1  0  0  0  0
  8  2  1  0  0  0  0
  8 13  1  0  0  0  0
  9  1  1  0  0  0  0
 11  4  1  0  0  0  0
M  END
