13
title
N 0.20824866 2.4068236 0.10206947
C 0.08678842 1.0144144 0.0037484951
C -0.98087007 0.19369595 0.010952778
O -2.3048058 0.49185386 0.10469048
N -0.5122635 -1.1324769 -0.06641466
C 0.8810661 -1.1506156 -0.04173608
O 1.6201555 -2.112271 0.0059926845
N 1.2253234 0.19823955 -0.080741666
H 0.5112113 2.8351624 -0.7690225
H -0.6793731 2.8168833 0.36731467
H -2.7287407 0.35586295 -0.75272065
H -1.0421101 -1.9422542 0.21042621
H 2.1585395 0.5057399 0.13589416
