title
 OpenBabel02282109573D

 12 12  0  0  0  0  0  0  0  0999 V2000
    0.0203    2.3844    0.0821 N   0  0  0  0  0  0  0  0  0  0  0  0
    0.0297    0.9992    0.0337 C   0  0  0  0  0  0  0  0  0  0  0  0
   -0.9952    0.1364    0.0385 C   0  0  0  0  0  0  0  0  0  0  0  0
   -2.3256    0.3145    0.0898 O   0  0  0  0  0  0  0  0  0  0  0  0
   -0.4750   -1.1464   -0.0237 N   0  0  0  0  0  0  0  0  0  0  0  0
    0.9092   -1.0859   -0.0686 C   0  0  0  0  0  0  0  0  0  0  0  0
    1.6998   -1.9878   -0.1266 O   0  0  0  0  0  0  0  0  0  0  0  0
    1.2275    0.2469   -0.0330 O   0  0  0  0  0  0  0  0  0  0  0  0
    0.4833    2.7624    0.9036 H   0  0  0  0  0  0  0  0  0  0  0  0
    0.4277    2.8195   -0.7405 H   0  0  0  0  0  0  0  0  0  0  0  0
   -2.4781    1.2683    0.1280 H   0  0  0  0  0  0  0  0  0  0  0  0
   -0.9940   -2.0068   -0.0360 H   0  0  0  0  0  0  0  0  0  0  0  0
  1  9  1  0  0  0  0
  2  3  2  0  0  0  0
  2  1  1  0  0  0  0
  3  4  1  0  0  0  0
  4 11  1  0  0  0  0
  5  3  1  0  0  0  0
  6  8  1  0  0  0  0
  6  5  1  0  0  0  0
  7  6  2  0  0  0  0
  8  2  1  0  0  0  0
 10  1  1  0  0  0  0
 12  5  1  0  0  0  0
M  END
