title
 OpenBabel02282109573D

 11 11  0  0  0  0  0  0  0  0999 V2000
    0.1561    2.4075    0.0051 N   0  0  0  0  0  0  0  0  0  0  0  0
    0.0672    1.0350    0.0022 C   0  0  0  0  0  0  0  0  0  0  0  0
   -0.9640    0.1908    0.0486 C   0  0  0  0  0  0  0  0  0  0  0  0
   -2.2796    0.3936    0.1147 O   0  0  0  0  0  0  0  0  0  0  0  0
   -0.5270   -1.1106    0.0201 O   0  0  0  0  0  0  0  0  0  0  0  0
    0.8599   -1.0744   -0.0483 C   0  0  0  0  0  0  0  0  0  0  0  0
    1.5513   -2.0406   -0.0873 O   0  0  0  0  0  0  0  0  0  0  0  0
    1.2422    0.2138   -0.0602 O   0  0  0  0  0  0  0  0  0  0  0  0
    0.6402    2.7865    0.8118 H   0  0  0  0  0  0  0  0  0  0  0  0
    0.5585    2.7953   -0.8414 H   0  0  0  0  0  0  0  0  0  0  0  0
   -2.7194   -0.4651    0.1318 H   0  0  0  0  0  0  0  0  0  0  0  0
  1  9  1  0  0  0  0
  2  1  1  0  0  0  0
  2  3  2  0  0  0  0
  3  4  1  0  0  0  0
  4 11  1  0  0  0  0
  5  3  1  0  0  0  0
  6  5  1  0  0  0  0
  7  6  2  0  0  0  0
  8  6  1  0  0  0  0
  8  2  1  0  0  0  0
 10  1  1  0  0  0  0
M  END
