18
title
C 0.20935775 2.4772465 0.20753898
C 0.07847897 0.9979459 0.053905707
C -0.044728238 0.1927931 -1.058543
C -0.07620728 0.62406296 -2.4943554
C -0.11522743 -1.162947 -0.5974807
C -0.042701025 -1.1436356 0.77413934
N -0.12938628 -2.1500988 1.7603673
N 0.07822274 0.16706988 1.1620538
H 1.1664352 2.7663145 0.6619792
H 0.15133625 2.9680448 -0.76629716
H -0.5867133 2.9026008 0.8332187
H -0.03200911 1.7123328 -2.5942826
H 0.7664823 0.21144953 -3.0630271
H -0.99164635 0.28804973 -2.9965227
H -0.19071296 -2.0471182 -1.2137226
H -0.49412453 -3.0047536 1.3575982
H 0.776742 -2.3689773 2.1663632
H 0.03825431 0.46973196 2.1201015
