title
 OpenBabel02282109573D

 16 16  0  0  0  0  0  0  0  0999 V2000
   -0.2242    2.5137    0.2240 C   0  0  0  0  0  0  0  0  0  0  0  0
   -0.0928    1.0367    0.0799 C   0  0  0  0  0  0  0  0  0  0  0  0
   -0.0304    0.1964   -0.9988 C   0  0  0  0  0  0  0  0  0  0  0  0
   -0.0788    0.5271   -2.4542 C   0  0  0  0  0  0  0  0  0  0  0  0
    0.0947   -1.1293   -0.5821 N   0  0  0  0  0  0  0  0  0  0  0  0
    0.1057   -1.0688    0.7183 C   0  0  0  0  0  0  0  0  0  0  0  0
    0.2099   -2.1001    1.5763 O   0  0  0  0  0  0  0  0  0  0  0  0
   -0.0027    0.1945    1.1950 N   0  0  0  0  0  0  0  0  0  0  0  0
    0.6315    2.9590    0.7483 H   0  0  0  0  0  0  0  0  0  0  0  0
   -0.2824    2.9822   -0.7608 H   0  0  0  0  0  0  0  0  0  0  0  0
   -1.1289    2.7995    0.7764 H   0  0  0  0  0  0  0  0  0  0  0  0
    0.8299    0.1896   -2.9656 H   0  0  0  0  0  0  0  0  0  0  0  0
   -0.9236    0.0292   -2.9436 H   0  0  0  0  0  0  0  0  0  0  0  0
   -0.1793    1.6030   -2.6198 H   0  0  0  0  0  0  0  0  0  0  0  0
    0.2746   -2.8934    1.0298 H   0  0  0  0  0  0  0  0  0  0  0  0
   -0.0135    0.4627    2.1640 H   0  0  0  0  0  0  0  0  0  0  0  0
  1  9  1  0  0  0  0
  1 11  1  0  0  0  0
  2  1  1  0  0  0  0
  2  8  1  0  0  0  0
  3  5  1  0  0  0  0
  3  2  2  0  0  0  0
  4  3  1  0  0  0  0
  5  6  2  0  0  0  0
  6  8  1  0  0  0  0
  6  7  1  0  0  0  0
  8 16  1  0  0  0  0
 10  1  1  0  0  0  0
 12  4  1  0  0  0  0
 13  4  1  0  0  0  0
 14  4  1  0  0  0  0
 15  7  1  0  0  0  0
M  END
