16
title
C 0.21232004 2.4420562 -0.08154295
C 0.0132609 0.97286355 -0.035606403
C -1.0687265 0.15715705 0.09559427
N -2.4129841 0.5160399 0.29803854
C -0.58401674 -1.2012322 0.074338794
C 0.76751095 -1.1037371 -0.058893755
N 1.794852 -2.03911 -0.06254722
O 1.1599898 0.18378423 -0.12176725
H 0.7140503 2.8345373 0.813406
H 0.81165856 2.7451243 -0.9491902
H -0.75489914 2.9488902 -0.158491
H -2.5966463 1.4831932 0.061770592
H -3.047154 -0.07232471 -0.22892785
H -1.1673563 -2.1036673 0.16596763
H 1.4878603 -2.9538329 -0.36307746
H 2.590751 -1.7330616 -0.6083077
