title
 OpenBabel02282109573D

 16 16  0  0  0  0  0  0  0  0999 V2000
   -0.1771    2.4940    0.1575 C   0  0  0  0  0  0  0  0  0  0  0  0
   -0.0817    1.0117    0.0373 C   0  0  0  0  0  0  0  0  0  0  0  0
    0.1232    0.1875   -1.0453 C   0  0  0  0  0  0  0  0  0  0  0  0
    0.3600    0.5693   -2.3850 N   0  0  0  0  0  0  0  0  0  0  0  0
    0.1491   -1.1712   -0.5828 C   0  0  0  0  0  0  0  0  0  0  0  0
   -0.0360   -1.1179    0.7767 C   0  0  0  0  0  0  0  0  0  0  0  0
   -0.1125   -2.0720    1.7415 O   0  0  0  0  0  0  0  0  0  0  0  0
   -0.1627    0.1792    1.1597 N   0  0  0  0  0  0  0  0  0  0  0  0
   -0.3571    2.9459   -0.8233 H   0  0  0  0  0  0  0  0  0  0  0  0
   -1.0116    2.8000    0.8024 H   0  0  0  0  0  0  0  0  0  0  0  0
    0.7324    2.9612    0.5615 H   0  0  0  0  0  0  0  0  0  0  0  0
    0.1368    1.5442   -2.5460 H   0  0  0  0  0  0  0  0  0  0  0  0
   -0.1839    0.0119   -3.0342 H   0  0  0  0  0  0  0  0  0  0  0  0
    0.3046   -2.0561   -1.1807 H   0  0  0  0  0  0  0  0  0  0  0  0
    0.0224   -2.9284    1.3256 H   0  0  0  0  0  0  0  0  0  0  0  0
   -0.3292    0.4757    2.1048 H   0  0  0  0  0  0  0  0  0  0  0  0
  1 11  1  0  0  0  0
  1 10  1  0  0  0  0
  2  1  1  0  0  0  0
  2  8  1  0  0  0  0
  3  5  1  0  0  0  0
  3  2  2  0  0  0  0
  4  3  1  0  0  0  0
  5  6  2  0  0  0  0
  6  8  1  0  0  0  0
  6  7  1  0  0  0  0
  8 16  1  0  0  0  0
  9  1  1  0  0  0  0
 12  4  1  0  0  0  0
 13  4  1  0  0  0  0
 14  5  1  0  0  0  0
 15  7  1  0  0  0  0
M  END
