16
title
C 0.028694157 2.5718362 0.16691524
C 0.018529907 1.0743002 0.15823139
C -0.07099136 0.26968503 -0.95421076
N -0.17513695 0.51516336 -2.3437107
N -0.045533784 -1.0514486 -0.5193962
C 0.056985978 -1.0784206 0.8361194
O 0.09613367 -2.2930415 1.4460218
C 0.10022365 0.21213882 1.3044636
H 0.9518701 2.9742205 0.6018499
H -0.054651424 2.9673474 -0.8503934
H -0.8035592 2.9847488 0.75002044
H -1.0123689 1.0360943 -2.5818312
H 0.6188447 1.0333124 -2.7043085
H -0.09577833 -1.852525 -1.1245799
H 0.16567522 -2.1469872 2.3940816
H 0.1804805 0.5138036 2.3383548
