title
 OpenBabel02282109573D

 16 16  0  0  0  0  0  0  0  0999 V2000
    0.1119    2.5710    0.2001 C   0  0  0  0  0  0  0  0  0  0  0  0
    0.0530    1.0770    0.1886 C   0  0  0  0  0  0  0  0  0  0  0  0
   -0.0253    0.2875   -0.9126 C   0  0  0  0  0  0  0  0  0  0  0  0
   -0.0664    0.5888   -2.2730 N   0  0  0  0  0  0  0  0  0  0  0  0
   -0.0621   -1.0560   -0.5208 O   0  0  0  0  0  0  0  0  0  0  0  0
   -0.0019   -1.0702    0.8287 C   0  0  0  0  0  0  0  0  0  0  0  0
   -0.1101   -2.3260    1.4155 N   0  0  0  0  0  0  0  0  0  0  0  0
    0.0737    0.1940    1.3295 C   0  0  0  0  0  0  0  0  0  0  0  0
    1.0333    2.9340    0.6709 H   0  0  0  0  0  0  0  0  0  0  0  0
    0.0732    2.9584   -0.8207 H   0  0  0  0  0  0  0  0  0  0  0  0
   -0.7246    3.0013    0.7634 H   0  0  0  0  0  0  0  0  0  0  0  0
   -0.9051    0.2388   -2.7263 H   0  0  0  0  0  0  0  0  0  0  0  0
    0.7349    0.2277   -2.7821 H   0  0  0  0  0  0  0  0  0  0  0  0
    0.3392   -3.0492    0.8671 H   0  0  0  0  0  0  0  0  0  0  0  0
    0.2344   -2.3379    2.3657 H   0  0  0  0  0  0  0  0  0  0  0  0
    0.1346    0.4733    2.3698 H   0  0  0  0  0  0  0  0  0  0  0  0
  1  9  1  0  0  0  0
  1 11  1  0  0  0  0
  2  1  1  0  0  0  0
  2  8  1  0  0  0  0
  3  5  1  0  0  0  0
  3  2  2  0  0  0  0
  4  3  1  0  0  0  0
  5  6  1  0  0  0  0
  6  8  2  0  0  0  0
  6  7  1  0  0  0  0
  7 15  1  0  0  0  0
  8 16  1  0  0  0  0
 10  1  1  0  0  0  0
 12  4  1  0  0  0  0
 13  4  1  0  0  0  0
 14  7  1  0  0  0  0
M  END
