title
 OpenBabel02282109573D

 16 16  0  0  0  0  0  0  0  0999 V2000
   -0.0405    2.4882    0.1946 C   0  0  0  0  0  0  0  0  0  0  0  0
   -0.0108    1.0029    0.0844 C   0  0  0  0  0  0  0  0  0  0  0  0
   -0.0166    0.1851   -1.0206 C   0  0  0  0  0  0  0  0  0  0  0  0
   -0.0576    0.6580   -2.3067 O   0  0  0  0  0  0  0  0  0  0  0  0
    0.0013   -1.1757   -0.5924 C   0  0  0  0  0  0  0  0  0  0  0  0
    0.0273   -1.1537    0.7872 C   0  0  0  0  0  0  0  0  0  0  0  0
    0.1101   -2.1713    1.7631 N   0  0  0  0  0  0  0  0  0  0  0  0
    0.0145    0.1542    1.1847 N   0  0  0  0  0  0  0  0  0  0  0  0
    0.8215    2.8883    0.7454 H   0  0  0  0  0  0  0  0  0  0  0  0
   -0.0192    2.9200   -0.8087 H   0  0  0  0  0  0  0  0  0  0  0  0
   -0.9459    2.8575    0.6949 H   0  0  0  0  0  0  0  0  0  0  0  0
   -0.0125   -0.0921   -2.9050 H   0  0  0  0  0  0  0  0  0  0  0  0
   -0.0326   -2.0572   -1.2160 H   0  0  0  0  0  0  0  0  0  0  0  0
    0.4902   -3.0193    1.3605 H   0  0  0  0  0  0  0  0  0  0  0  0
   -0.7989   -2.4029    2.1551 H   0  0  0  0  0  0  0  0  0  0  0  0
    0.1462    0.4420    2.1388 H   0  0  0  0  0  0  0  0  0  0  0  0
  1 11  1  0  0  0  0
  1  9  1  0  0  0  0
  2  1  1  0  0  0  0
  2  8  1  0  0  0  0
  3  5  1  0  0  0  0
  3  2  2  0  0  0  0
  4  3  1  0  0  0  0
  5  6  2  0  0  0  0
  6  8  1  0  0  0  0
  6  7  1  0  0  0  0
  7 15  1  0  0  0  0
  8 16  1  0  0  0  0
 10  1  1  0  0  0  0
 12  4  1  0  0  0  0
 13  5  1  0  0  0  0
 14  7  1  0  0  0  0
M  END
