15
title
C 0.24311408 2.437107 0.1258212
C 0.046005324 0.971553 0.0427176
C -1.0416054 0.17184167 -0.09983091
O -2.3245819 0.6258422 -0.20054677
C -0.59642035 -1.1974999 -0.10376607
C 0.7578426 -1.1254333 0.037313066
N 1.7680348 -2.0778947 0.026101876
O 1.1706885 0.1537144 0.13009964
H 0.9028533 2.8135004 -0.66629374
H -0.7275282 2.9277122 0.017968029
H 0.6741435 2.7495694 1.0859275
H -2.897701 -0.1188667 -0.40061298
H -1.1973633 -2.0884845 -0.19795224
H 1.4548346 -2.9870129 0.33712387
H 2.5799878 -1.7802566 0.5524021
