title
 OpenBabel02282109573D

 15 15  0  0  0  0  0  0  0  0999 V2000
   -0.1456    2.4924    0.1898 C   0  0  0  0  0  0  0  0  0  0  0  0
   -0.0602    1.0110    0.0732 C   0  0  0  0  0  0  0  0  0  0  0  0
    0.0089    0.1948   -1.0262 C   0  0  0  0  0  0  0  0  0  0  0  0
    0.0219    0.6618   -2.3140 O   0  0  0  0  0  0  0  0  0  0  0  0
    0.0773   -1.1723   -0.6019 C   0  0  0  0  0  0  0  0  0  0  0  0
    0.0473   -1.1338    0.7731 C   0  0  0  0  0  0  0  0  0  0  0  0
    0.0804   -2.0991    1.7284 O   0  0  0  0  0  0  0  0  0  0  0  0
   -0.0309    0.1583    1.1822 N   0  0  0  0  0  0  0  0  0  0  0  0
    0.7214    2.9306    0.7032 H   0  0  0  0  0  0  0  0  0  0  0  0
   -0.1859    2.9245   -0.8128 H   0  0  0  0  0  0  0  0  0  0  0  0
   -1.0439    2.8232    0.7288 H   0  0  0  0  0  0  0  0  0  0  0  0
   -0.0402   -0.0895   -2.9094 H   0  0  0  0  0  0  0  0  0  0  0  0
    0.1453   -2.0520   -1.2241 H   0  0  0  0  0  0  0  0  0  0  0  0
    0.1400   -2.9536    1.2915 H   0  0  0  0  0  0  0  0  0  0  0  0
   -0.0724    0.4431    2.1447 H   0  0  0  0  0  0  0  0  0  0  0  0
  1  9  1  0  0  0  0
  1 11  1  0  0  0  0
  2  1  1  0  0  0  0
  2  8  1  0  0  0  0
  3  5  1  0  0  0  0
  3  2  2  0  0  0  0
  4  3  1  0  0  0  0
  5  6  2  0  0  0  0
  6  8  1  0  0  0  0
  6  7  1  0  0  0  0
  8 15  1  0  0  0  0
 10  1  1  0  0  0  0
 12  4  1  0  0  0  0
 13  5  1  0  0  0  0
 14  7  1  0  0  0  0
M  END
