title
 OpenBabel02282109573D

 14 14  0  0  1  0  0  0  0  0999 V2000
   -0.1596    2.5280    0.2230 C   0  0  0  0  0  0  0  0  0  0  0  0
   -0.0665    1.0489    0.1089 C   0  0  1  0  0  0  0  0  0  0  0  0
    0.0028    0.2019   -0.9597 C   0  0  0  0  0  0  0  0  0  0  0  0
    0.0021    0.5504   -2.2687 O   0  0  0  0  0  0  0  0  0  0  0  0
    0.0786   -1.1222   -0.5810 N   0  0  0  0  0  0  0  0  0  0  0  0
    0.0550   -1.0787    0.7279 C   0  0  0  0  0  0  0  0  0  0  0  0
    0.1065   -2.1282    1.5662 O   0  0  0  0  0  0  0  0  0  0  0  0
   -0.0302    0.1754    1.2152 N   0  0  0  0  0  0  0  0  0  0  0  0
    0.6912    2.9669    0.7614 H   0  0  0  0  0  0  0  0  0  0  0  0
   -0.1704    2.9596   -0.7806 H   0  0  0  0  0  0  0  0  0  0  0  0
   -1.0744    2.8579    0.7336 H   0  0  0  0  0  0  0  0  0  0  0  0
    0.0608   -0.2716   -2.7682 H   0  0  0  0  0  0  0  0  0  0  0  0
    0.1639   -2.9166    1.0129 H   0  0  0  0  0  0  0  0  0  0  0  0
   -0.0614    0.4298    2.1873 H   0  0  0  0  0  0  0  0  0  0  0  0
  1 11  1  0  0  0  0
  1  9  1  0  0  0  0
  2  1  1  1  0  0  0
  2  8  1  0  0  0  0
  3  5  2  0  0  0  0
  3  2  1  0  0  0  0
  4  3  1  0  0  0  0
  5  6  2  0  0  0  0
  6  8  1  0  0  0  0
  6  7  1  0  0  0  0
  8 14  1  0  0  0  0
 10  1  1  0  0  0  0
 12  4  1  0  0  0  0
 13  7  1  0  0  0  0
M  RAD  1   2   2
M  END
