title
 OpenBabel02282109573D

 16 16  0  0  0  0  0  0  0  0999 V2000
    0.0797    2.5731    0.1546 C   0  0  0  0  0  0  0  0  0  0  0  0
    0.0357    1.0751    0.1622 C   0  0  0  0  0  0  0  0  0  0  0  0
   -0.0396    0.2434   -0.9303 C   0  0  0  0  0  0  0  0  0  0  0  0
   -0.1035    0.4708   -2.2713 O   0  0  0  0  0  0  0  0  0  0  0  0
   -0.0504   -1.0566   -0.5109 N   0  0  0  0  0  0  0  0  0  0  0  0
    0.0196   -1.0922    0.8720 C   0  0  0  0  0  0  0  0  0  0  0  0
   -0.0226   -2.3502    1.5175 N   0  0  0  0  0  0  0  0  0  0  0  0
    0.0792    0.2067    1.3077 C   0  0  0  0  0  0  0  0  0  0  0  0
    1.0224    2.9659    0.5558 H   0  0  0  0  0  0  0  0  0  0  0  0
   -0.0254    2.9812   -0.8585 H   0  0  0  0  0  0  0  0  0  0  0  0
   -0.7300    3.0102    0.7513 H   0  0  0  0  0  0  0  0  0  0  0  0
   -0.0381    1.4195   -2.4163 H   0  0  0  0  0  0  0  0  0  0  0  0
   -0.1819   -1.8608   -1.0996 H   0  0  0  0  0  0  0  0  0  0  0  0
    0.9059   -2.7000    1.7388 H   0  0  0  0  0  0  0  0  0  0  0  0
   -0.5347   -2.2891    2.3895 H   0  0  0  0  0  0  0  0  0  0  0  0
    0.1575    0.5214    2.3384 H   0  0  0  0  0  0  0  0  0  0  0  0
  1  2  1  0  0  0  0
  1  9  1  0  0  0  0
  1 11  1  0  0  0  0
  2  8  1  0  0  0  0
  3  5  1  0  0  0  0
  3  2  2  0  0  0  0
  4  3  1  0  0  0  0
  5  6  1  0  0  0  0
  6  8  2  0  0  0  0
  6  7  1  0  0  0  0
  7 14  1  0  0  0  0
  7 15  1  0  0  0  0
  8 16  1  0  0  0  0
 10  1  1  0  0  0  0
 12  4  1  0  0  0  0
 13  5  1  0  0  0  0
M  END
