19
title
C 0.022810858 2.8831465 0.065461844
C 0.009995108 1.3961165 -0.06504225
C -0.008977782 0.5822472 -1.1720076
C -0.014442245 -0.7797587 -0.7343367
C -0.033807434 -1.9854369 -1.6261169
C 0.0015677536 -0.7581887 0.64564604
C 0.00481448 -1.8538408 1.6605554
N 0.0162239 0.5672874 1.0333673
H 0.914932 3.2478108 0.5911575
H 0.015177955 3.342449 -0.92570716
H -0.8516094 3.2612827 0.6110076
H -0.018155394 0.9232319 -2.1974893
H 0.83942056 -2.013692 -2.2893162
H -0.035207562 -2.9170797 -1.0529001
H -0.92142725 -1.9993844 -2.2703838
H 0.89612687 -1.8244147 2.3012066
H -0.87071425 -1.8104968 2.321848
H -0.00860417 -2.8289673 1.1693169
H 0.029566143 0.88142455 1.9884714
