title
 OpenBabel02282109573D

 19 19  0  0  0  0  0  0  0  0999 V2000
    0.0228    2.8831    0.0655 C   0  0  0  0  0  0  0  0  0  0  0  0
    0.0100    1.3961   -0.0650 C   0  0  0  0  0  0  0  0  0  0  0  0
   -0.0090    0.5822   -1.1720 C   0  0  0  0  0  0  0  0  0  0  0  0
   -0.0144   -0.7798   -0.7343 C   0  0  0  0  0  0  0  0  0  0  0  0
   -0.0338   -1.9854   -1.6261 C   0  0  0  0  0  0  0  0  0  0  0  0
    0.0016   -0.7582    0.6456 C   0  0  0  0  0  0  0  0  0  0  0  0
    0.0048   -1.8538    1.6606 C   0  0  0  0  0  0  0  0  0  0  0  0
    0.0162    0.5673    1.0334 N   0  0  0  0  0  0  0  0  0  0  0  0
    0.9149    3.2478    0.5912 H   0  0  0  0  0  0  0  0  0  0  0  0
    0.0152    3.3424   -0.9257 H   0  0  0  0  0  0  0  0  0  0  0  0
   -0.8516    3.2613    0.6110 H   0  0  0  0  0  0  0  0  0  0  0  0
   -0.0182    0.9232   -2.1975 H   0  0  0  0  0  0  0  0  0  0  0  0
    0.8394   -2.0137   -2.2893 H   0  0  0  0  0  0  0  0  0  0  0  0
   -0.0352   -2.9171   -1.0529 H   0  0  0  0  0  0  0  0  0  0  0  0
   -0.9214   -1.9994   -2.2704 H   0  0  0  0  0  0  0  0  0  0  0  0
    0.8961   -1.8244    2.3012 H   0  0  0  0  0  0  0  0  0  0  0  0
   -0.8707   -1.8105    2.3218 H   0  0  0  0  0  0  0  0  0  0  0  0
   -0.0086   -2.8290    1.1693 H   0  0  0  0  0  0  0  0  0  0  0  0
    0.0296    0.8814    1.9885 H   0  0  0  0  0  0  0  0  0  0  0  0
  1  9  1  0  0  0  0
  1 11  1  0  0  0  0
  2  1  1  0  0  0  0
  2  8  1  0  0  0  0
  3  4  1  0  0  0  0
  3  2  2  0  0  0  0
  4  6  2  0  0  0  0
  5 14  1  0  0  0  0
  5  4  1  0  0  0  0
  6  8  1  0  0  0  0
  6  7  1  0  0  0  0
  7 16  1  0  0  0  0
  7 17  1  0  0  0  0
  8 19  1  0  0  0  0
 10  1  1  0  0  0  0
 12  3  1  0  0  0  0
 13  5  1  0  0  0  0
 15  5  1  0  0  0  0
 18  7  1  0  0  0  0
M  END
