18
title
C 0.06496439 2.8293426 -0.06478299
C -0.12184741 1.354969 -0.03794482
C -1.2118592 0.54643154 -0.068171665
C -0.73450625 -0.81199646 -0.013958367
C -1.579205 -2.048777 -0.022689233
C 0.6242252 -0.7226298 0.045689184
C 1.7233949 -1.7213602 0.11945461
O 1.0085034 0.5931135 0.03166782
H 0.6610093 3.1453197 -0.92895347
H -0.9065575 3.3255053 -0.12090246
H 0.5807731 3.187604 0.8338209
H -2.241421 0.8677581 -0.122635625
H -2.1903665 -2.1114628 -0.930828
H -0.97050875 -2.9557197 0.0265613
H -2.270073 -2.0694263 0.82845247
H 2.4043903 -1.6357775 -0.7356129
H 2.3244445 -1.5935903 1.0275487
H 1.3151902 -2.7342823 0.1251806
