17
title
C 0.09285078 2.8394744 0.016620163
C -0.10391117 1.3660326 -0.012403979
C -1.1980458 0.5737771 -0.16373773
C -0.74605495 -0.7912593 -0.10347404
C -1.5672448 -2.0359187 -0.21800011
C 0.60051495 -0.72593784 0.08147462
N 1.5578216 -1.7368121 0.21158728
O 1.0083559 0.59217316 0.13925005
H 0.7667517 3.1730707 -0.78119165
H -0.8670021 3.344288 -0.114601344
H 0.5264411 3.1707458 0.96751374
H -2.2134793 0.9142136 -0.30260614
H -2.0919726 -2.0858223 -1.1793765
H -0.9283642 -2.9179168 -0.13130392
H -2.3319674 -2.08813 0.5659299
H 2.0410273 -1.6934745 1.1040666
H 2.262991 -1.6921353 -0.518229
