17
title
C 0.07029761 2.8316214 -0.101143986
C -0.110535376 1.3569528 -0.048969302
C -1.2079564 0.55507725 -0.022231719
C -0.7276256 -0.7997726 0.020930192
N -1.5414948 -1.9415978 0.13721743
C 0.6350372 -0.72444785 0.014914323
C 1.7206264 -1.7371229 0.060991526
O 1.0172008 0.59945995 -0.019793993
H 0.62180436 3.1395745 -0.99727255
H -0.90377194 3.3257885 -0.11336788
H 0.6297855 3.1993768 0.7668337
H -2.2384038 0.87701213 -0.023892201
H -2.3508208 -1.8960127 -0.47020367
H -1.0386841 -2.7981741 -0.059281297
H 2.4822955 -1.5399839 -0.7021119
H 2.2313244 -1.7680818 1.0324358
H 1.3156956 -2.7367218 -0.12597948
