16
title
C 0.09145438 2.8442318 0.020133903
C -0.096665725 1.3692144 0.0007372464
C -1.2014993 0.5803126 -0.102789804
C -0.7394589 -0.77991164 -0.07729039
N -1.528844 -1.938049 -0.08179068
C 0.6170405 -0.722335 0.038873415
N 1.5551537 -1.7521397 0.118779495
O 1.0212038 0.6043064 0.10021948
H 0.71473527 3.1828942 -0.8159431
H -0.8772892 3.3438907 -0.052570336
H 0.5793348 3.1759615 0.94400257
H -2.2235723 0.91890115 -0.18106802
H -2.264995 -1.9073361 -0.7764269
H -0.95437443 -2.759747 -0.23222484
H 2.0055988 -1.8138174 1.0276029
H 2.2838674 -1.6746532 -0.5841685
