title
 OpenBabel02282109573D

 17 17  0  0  0  0  0  0  0  0999 V2000
   -0.0454    2.8995    0.0394 C   0  0  0  0  0  0  0  0  0  0  0  0
   -0.0239    1.4107   -0.0672 C   0  0  0  0  0  0  0  0  0  0  0  0
   -0.0215    0.5871   -1.1743 C   0  0  0  0  0  0  0  0  0  0  0  0
    0.0053   -0.7558   -0.7015 C   0  0  0  0  0  0  0  0  0  0  0  0
    0.0167   -1.9103   -1.4401 O   0  0  0  0  0  0  0  0  0  0  0  0
    0.0187   -0.7389    0.6740 C   0  0  0  0  0  0  0  0  0  0  0  0
    0.0463   -1.8568    1.6586 C   0  0  0  0  0  0  0  0  0  0  0  0
    0.0002    0.5993    1.0374 N   0  0  0  0  0  0  0  0  0  0  0  0
    0.8430    3.2935    0.5498 H   0  0  0  0  0  0  0  0  0  0  0  0
   -0.0740    3.3434   -0.9584 H   0  0  0  0  0  0  0  0  0  0  0  0
   -0.9235    3.2648    0.5876 H   0  0  0  0  0  0  0  0  0  0  0  0
   -0.0372    0.9139   -2.2042 H   0  0  0  0  0  0  0  0  0  0  0  0
    0.0037   -1.6721   -2.3707 H   0  0  0  0  0  0  0  0  0  0  0  0
    0.9365   -1.8311    2.3014 H   0  0  0  0  0  0  0  0  0  0  0  0
   -0.8319   -1.8601    2.3181 H   0  0  0  0  0  0  0  0  0  0  0  0
    0.0568   -2.8066    1.1192 H   0  0  0  0  0  0  0  0  0  0  0  0
    0.0043    0.9266    1.9877 H   0  0  0  0  0  0  0  0  0  0  0  0
  1  9  1  0  0  0  0
  1 11  1  0  0  0  0
  2  1  1  0  0  0  0
  2  8  1  0  0  0  0
  3  4  1  0  0  0  0
  3  2  2  0  0  0  0
  4  6  2  0  0  0  0
  5  4  1  0  0  0  0
  6  8  1  0  0  0  0
  6  7  1  0  0  0  0
  7 14  1  0  0  0  0
  7 15  1  0  0  0  0
  8 17  1  0  0  0  0
 10  1  1  0  0  0  0
 12  3  1  0  0  0  0
 13  5  1  0  0  0  0
 16  7  1  0  0  0  0
M  END
