16
title
C -0.035955504 2.9033167 -0.0037540311
C -0.01968877 1.4126652 -0.086774394
C -0.03770975 0.57491684 -1.1873462
C -0.008696844 -0.76230174 -0.70421106
O -0.012705774 -1.9313787 -1.4188262
C 0.02626978 -0.72343165 0.67216724
N 0.06428194 -1.7179483 1.6746291
N 0.018760027 0.6170023 1.0237175
H 0.85575217 3.3019264 0.49679536
H -0.06707876 3.331156 -1.0086297
H -0.91032284 3.2801242 0.54221296
H -0.06825938 0.89335734 -2.219821
H -0.039009098 -1.711733 -2.353883
H 0.88337 -2.3106241 1.5771184
H -0.7432733 -2.3314028 1.6181117
H 0.039533082 0.92580503 1.9805261
