title
 OpenBabel02282109573D

 15 15  0  0  0  0  0  0  0  0999 V2000
    0.0166    2.8538    0.0338 C   0  0  0  0  0  0  0  0  0  0  0  0
   -0.1469    1.3785   -0.0064 C   0  0  0  0  0  0  0  0  0  0  0  0
   -1.2203    0.5515   -0.1022 C   0  0  0  0  0  0  0  0  0  0  0  0
   -0.7038   -0.7898   -0.0626 C   0  0  0  0  0  0  0  0  0  0  0  0
   -1.3868   -1.9833   -0.0466 O   0  0  0  0  0  0  0  0  0  0  0  0
    0.6493   -0.6808    0.0425 C   0  0  0  0  0  0  0  0  0  0  0  0
    1.6770   -1.6200    0.0413 N   0  0  0  0  0  0  0  0  0  0  0  0
    1.0047    0.6311    0.0797 O   0  0  0  0  0  0  0  0  0  0  0  0
    0.6423    3.2179   -0.7900 H   0  0  0  0  0  0  0  0  0  0  0  0
   -0.9613    3.3346   -0.0441 H   0  0  0  0  0  0  0  0  0  0  0  0
    0.4849    3.1858    0.9683 H   0  0  0  0  0  0  0  0  0  0  0  0
   -2.2554    0.8494   -0.1716 H   0  0  0  0  0  0  0  0  0  0  0  0
   -1.9807   -2.0109   -0.8038 H   0  0  0  0  0  0  0  0  0  0  0  0
    1.2816   -2.5529    0.0278 H   0  0  0  0  0  0  0  0  0  0  0  0
    2.2911   -1.5310    0.8451 H   0  0  0  0  0  0  0  0  0  0  0  0
  1 11  1  0  0  0  0
  2  1  1  0  0  0  0
  2  8  1  0  0  0  0
  3  4  1  0  0  0  0
  3  2  2  0  0  0  0
  4  5  1  0  0  0  0
  4  6  2  0  0  0  0
  6  8  1  0  0  0  0
  7  6  1  0  0  0  0
  7 15  1  0  0  0  0
  9  1  1  0  0  0  0
 10  1  1  0  0  0  0
 12  3  1  0  0  0  0
 13  5  1  0  0  0  0
 14  7  1  0  0  0  0
M  END
