15
title
C 0.016637884 2.8538368 0.033767816
C -0.14688429 1.3785391 -0.006408167
C -1.2202512 0.55149984 -0.10218839
C -0.7037732 -0.78975767 -0.062590964
O -1.3867902 -1.983278 -0.046627987
C 0.64930487 -0.6807696 0.042540975
N 1.6769724 -1.6200163 0.041318443
O 1.0047181 0.6310731 0.07969429
H 0.64230967 3.2179399 -0.79004073
H -0.96134716 3.334582 -0.04414143
H 0.48489842 3.185753 0.968337
H -2.255423 0.8494208 -0.1715754
H -1.980673 -2.0108654 -0.8038324
H 1.2815789 -2.5528893 0.027761525
H 2.291102 -1.5310171 0.84505206
