17
title
C 0.03692141 2.7697403 0.08571569
C 0.012551331 1.2913325 -0.06427049
N -0.04458174 0.5917404 -1.1507593
C -0.041344125 -0.73922086 -0.72423947
C -0.09874911 -1.8636639 -1.7029288
C 0.01920448 -0.7645583 0.6315967
C 0.053189993 -1.8251853 1.669481
O 0.054402806 0.54218334 1.067579
H 0.9473521 3.1004708 0.59667987
H -0.0017350193 3.226101 -0.9035804
H -0.8162778 3.121574 0.6753088
H 0.75260484 -1.8269148 -2.391251
H -0.08796199 -2.8337483 -1.1994363
H -1.0070418 -1.805593 -2.3124936
H 0.96533626 -1.7689204 2.2748313
H -0.79929227 -1.7477875 2.3542516
H 0.02020876 -2.8102102 1.1987321
