title
 OpenBabel02282109573D

 17 17  0  0  0  0  0  0  0  0999 V2000
    0.0369    2.7697    0.0857 C   0  0  0  0  0  0  0  0  0  0  0  0
    0.0126    1.2913   -0.0643 C   0  0  0  0  0  0  0  0  0  0  0  0
   -0.0446    0.5917   -1.1508 N   0  0  0  0  0  0  0  0  0  0  0  0
   -0.0413   -0.7392   -0.7242 C   0  0  0  0  0  0  0  0  0  0  0  0
   -0.0987   -1.8637   -1.7029 C   0  0  0  0  0  0  0  0  0  0  0  0
    0.0192   -0.7646    0.6316 C   0  0  0  0  0  0  0  0  0  0  0  0
    0.0532   -1.8252    1.6695 C   0  0  0  0  0  0  0  0  0  0  0  0
    0.0544    0.5422    1.0676 O   0  0  0  0  0  0  0  0  0  0  0  0
    0.9474    3.1005    0.5967 H   0  0  0  0  0  0  0  0  0  0  0  0
   -0.0017    3.2261   -0.9036 H   0  0  0  0  0  0  0  0  0  0  0  0
   -0.8163    3.1216    0.6753 H   0  0  0  0  0  0  0  0  0  0  0  0
    0.7526   -1.8269   -2.3913 H   0  0  0  0  0  0  0  0  0  0  0  0
   -0.0880   -2.8337   -1.1994 H   0  0  0  0  0  0  0  0  0  0  0  0
   -1.0070   -1.8056   -2.3125 H   0  0  0  0  0  0  0  0  0  0  0  0
    0.9653   -1.7689    2.2748 H   0  0  0  0  0  0  0  0  0  0  0  0
   -0.7993   -1.7478    2.3543 H   0  0  0  0  0  0  0  0  0  0  0  0
    0.0202   -2.8102    1.1987 H   0  0  0  0  0  0  0  0  0  0  0  0
  1  9  1  0  0  0  0
  1 11  1  0  0  0  0
  2  1  1  0  0  0  0
  2  8  1  0  0  0  0
  3  4  1  0  0  0  0
  3  2  2  0  0  0  0
  4  6  2  0  0  0  0
  5 13  1  0  0  0  0
  5  4  1  0  0  0  0
  6  8  1  0  0  0  0
  6  7  1  0  0  0  0
  7 15  1  0  0  0  0
  7 16  1  0  0  0  0
 10  1  1  0  0  0  0
 12  5  1  0  0  0  0
 14  5  1  0  0  0  0
 17  7  1  0  0  0  0
M  END
