title
 OpenBabel02282109573D

 16 16  0  0  0  0  0  0  0  0999 V2000
    0.0732    2.7751    0.1651 C   0  0  0  0  0  0  0  0  0  0  0  0
   -0.0634    1.2964    0.0899 C   0  0  0  0  0  0  0  0  0  0  0  0
   -1.1447    0.5882    0.1862 N   0  0  0  0  0  0  0  0  0  0  0  0
   -0.7234   -0.7348    0.0480 C   0  0  0  0  0  0  0  0  0  0  0  0
   -1.6712   -1.8832    0.0992 C   0  0  0  0  0  0  0  0  0  0  0  0
    0.6205   -0.7536   -0.1284 C   0  0  0  0  0  0  0  0  0  0  0  0
    1.5319   -1.7903   -0.3123 N   0  0  0  0  0  0  0  0  0  0  0  0
    1.0609    0.5668   -0.1025 O   0  0  0  0  0  0  0  0  0  0  0  0
    0.7309    3.0703    0.9895 H   0  0  0  0  0  0  0  0  0  0  0  0
    0.5018    3.1802   -0.7577 H   0  0  0  0  0  0  0  0  0  0  0  0
   -0.9131    3.2126    0.3219 H   0  0  0  0  0  0  0  0  0  0  0  0
   -1.1325   -2.8243   -0.0309 H   0  0  0  0  0  0  0  0  0  0  0  0
   -2.2022   -1.9105    1.0569 H   0  0  0  0  0  0  0  0  0  0  0  0
   -2.4301   -1.8000   -0.6863 H   0  0  0  0  0  0  0  0  0  0  0  0
    2.2299   -1.8320    0.4239 H   0  0  0  0  0  0  0  0  0  0  0  0
    2.0182   -1.7298   -1.2015 H   0  0  0  0  0  0  0  0  0  0  0  0
  1 11  1  0  0  0  0
  1  9  1  0  0  0  0
  2  1  1  0  0  0  0
  2  3  2  0  0  0  0
  4  5  1  0  0  0  0
  4  3  1  0  0  0  0
  5 13  1  0  0  0  0
  6  8  1  0  0  0  0
  6  4  2  0  0  0  0
  7  6  1  0  0  0  0
  7 15  1  0  0  0  0
  8  2  1  0  0  0  0
 10  1  1  0  0  0  0
 12  5  1  0  0  0  0
 14  5  1  0  0  0  0
 16  7  1  0  0  0  0
M  END
