16
title
C -0.26639464 2.819795 0.010462173
C -0.13565521 1.3356794 -0.04780571
N -0.25603887 0.5865992 -1.1154411
C -0.058767773 -0.7275142 -0.71301097
C -0.12143013 -1.8732904 -1.6693019
C 0.18433027 -0.741435 0.63389206
O 0.4414355 -1.7052361 1.555373
N 0.13649632 0.5637316 1.0591397
H 0.6533506 3.3019707 0.3634375
H -0.48157853 3.1854525 -0.99447936
H -1.0796362 3.1370945 0.6745223
H 0.060362093 -2.8307567 -1.1662996
H -1.1021953 -1.9401683 -2.1535182
H 0.62641233 -1.7752725 -2.4642606
H 0.44172797 -2.556763 1.1071702
H 0.27768165 0.86894566 2.00745
