title
 OpenBabel02282109573D

 15 15  0  0  0  0  0  0  0  0999 V2000
   -0.1633    2.8428   -0.0269 C   0  0  0  0  0  0  0  0  0  0  0  0
   -0.0829    1.3542   -0.0681 C   0  0  0  0  0  0  0  0  0  0  0  0
   -0.1395    0.5998   -1.1390 N   0  0  0  0  0  0  0  0  0  0  0  0
   -0.0247   -0.7085   -0.6990 C   0  0  0  0  0  0  0  0  0  0  0  0
   -0.0319   -1.8827   -1.4934 N   0  0  0  0  0  0  0  0  0  0  0  0
    0.1021   -0.7233    0.6608 C   0  0  0  0  0  0  0  0  0  0  0  0
    0.2413   -1.7315    1.5467 O   0  0  0  0  0  0  0  0  0  0  0  0
    0.0661    0.5841    1.0698 N   0  0  0  0  0  0  0  0  0  0  0  0
    0.7399    3.2937    0.4022 H   0  0  0  0  0  0  0  0  0  0  0  0
   -0.2780    3.2098   -1.0477 H   0  0  0  0  0  0  0  0  0  0  0  0
   -1.0181    3.1943    0.5639 H   0  0  0  0  0  0  0  0  0  0  0  0
    0.7209   -1.8635   -2.1765 H   0  0  0  0  0  0  0  0  0  0  0  0
   -0.8945   -1.9549   -2.0267 H   0  0  0  0  0  0  0  0  0  0  0  0
    0.2374   -2.5382    1.0120 H   0  0  0  0  0  0  0  0  0  0  0  0
    0.1364    0.9018    2.0219 H   0  0  0  0  0  0  0  0  0  0  0  0
  1  9  1  0  0  0  0
  1 11  1  0  0  0  0
  2  1  1  0  0  0  0
  2  8  1  0  0  0  0
  3  4  1  0  0  0  0
  3  2  2  0  0  0  0
  4  6  2  0  0  0  0
  5  4  1  0  0  0  0
  6  8  1  0  0  0  0
  6  7  1  0  0  0  0
  8 15  1  0  0  0  0
 10  1  1  0  0  0  0
 12  5  1  0  0  0  0
 13  5  1  0  0  0  0
 14  7  1  0  0  0  0
M  END
