14
title
C -0.010827617 2.7851925 0.07590922
C -0.09859669 1.3023024 0.047100224
N -1.1626993 0.56265235 0.1385187
C -0.70305115 -0.7435708 0.047032762
N -1.5872388 -1.8221707 0.047368668
C 0.6448081 -0.72215796 -0.09842559
O 1.5888022 -1.6830189 -0.13385771
O 1.04939 0.6013271 -0.09398345
H 0.63240784 3.1287122 0.8928824
H 0.40726084 3.1762807 -0.8579679
H -1.0120664 3.1941645 0.2140691
H -2.4310944 -1.59851 0.55940604
H -1.1683862 -2.669181 0.40912235
H 1.9089773 -1.8008869 -1.037632
