title
 OpenBabel02282109573D

 14 14  0  0  0  0  0  0  0  0999 V2000
   -0.0108    2.7852    0.0759 C   0  0  0  0  0  0  0  0  0  0  0  0
   -0.0986    1.3023    0.0471 C   0  0  0  0  0  0  0  0  0  0  0  0
   -1.1627    0.5627    0.1385 N   0  0  0  0  0  0  0  0  0  0  0  0
   -0.7031   -0.7436    0.0470 C   0  0  0  0  0  0  0  0  0  0  0  0
   -1.5872   -1.8222    0.0474 N   0  0  0  0  0  0  0  0  0  0  0  0
    0.6448   -0.7222   -0.0984 C   0  0  0  0  0  0  0  0  0  0  0  0
    1.5888   -1.6830   -0.1339 O   0  0  0  0  0  0  0  0  0  0  0  0
    1.0494    0.6013   -0.0940 O   0  0  0  0  0  0  0  0  0  0  0  0
    0.6324    3.1287    0.8929 H   0  0  0  0  0  0  0  0  0  0  0  0
    0.4073    3.1763   -0.8580 H   0  0  0  0  0  0  0  0  0  0  0  0
   -1.0121    3.1942    0.2141 H   0  0  0  0  0  0  0  0  0  0  0  0
   -2.4311   -1.5985    0.5594 H   0  0  0  0  0  0  0  0  0  0  0  0
   -1.1684   -2.6692    0.4091 H   0  0  0  0  0  0  0  0  0  0  0  0
    1.9090   -1.8009   -1.0376 H   0  0  0  0  0  0  0  0  0  0  0  0
  1 11  1  0  0  0  0
  1  9  1  0  0  0  0
  2  1  1  0  0  0  0
  2  3  2  0  0  0  0
  4  5  1  0  0  0  0
  4  3  1  0  0  0  0
  5 13  1  0  0  0  0
  5 12  1  0  0  0  0
  6  8  1  0  0  0  0
  6  4  2  0  0  0  0
  7  6  1  0  0  0  0
  8  2  1  0  0  0  0
 10  1  1  0  0  0  0
 14  7  1  0  0  0  0
M  END
