title
 OpenBabel02282109573D

 16 16  0  0  1  0  0  0  0  0999 V2000
   -0.0360    2.8322    0.0099 C   0  0  0  0  0  0  0  0  0  0  0  0
   -0.0176    1.3410   -0.0261 C   0  0  1  0  0  0  0  0  0  0  0  0
   -0.0175    0.5942   -1.1167 N   0  0  0  0  0  0  0  0  0  0  0  0
    0.0031   -0.6985   -0.6734 C   0  0  0  0  0  0  0  0  0  0  0  0
    0.0088   -1.7420   -1.5395 O   0  0  0  0  0  0  0  0  0  0  0  0
    0.0161   -0.7773    0.6945 C   0  0  1  0  0  0  0  0  0  0  0  0
    0.0391   -1.9295    1.6361 C   0  0  0  0  0  0  0  0  0  0  0  0
    0.0024    0.5604    1.0881 N   0  0  0  0  0  0  0  0  0  0  0  0
    0.8507    3.2420    0.5081 H   0  0  0  0  0  0  0  0  0  0  0  0
   -0.0560    3.2060   -1.0146 H   0  0  0  0  0  0  0  0  0  0  0  0
   -0.9174    3.2195    0.5347 H   0  0  0  0  0  0  0  0  0  0  0  0
   -0.0043   -1.3537   -2.4221 H   0  0  0  0  0  0  0  0  0  0  0  0
    0.9308   -1.9334    2.2768 H   0  0  0  0  0  0  0  0  0  0  0  0
   -0.8383   -1.9530    2.2958 H   0  0  0  0  0  0  0  0  0  0  0  0
    0.0432   -2.8582    1.0610 H   0  0  0  0  0  0  0  0  0  0  0  0
    0.0066    0.8870    2.0398 H   0  0  0  0  0  0  0  0  0  0  0  0
  1  9  1  0  0  0  0
  1 11  1  0  0  0  0
  2  1  1  6  0  0  0
  2  8  1  0  0  0  0
  3  4  2  0  0  0  0
  3  2  1  0  0  0  0
  4  6  1  0  0  0  0
  5  4  1  0  0  0  0
  6  8  1  0  0  0  0
  6  7  1  6  0  0  0
  7 13  1  0  0  0  0
  7 14  1  0  0  0  0
  8 16  1  0  0  0  0
 10  1  1  0  0  0  0
 12  5  1  0  0  0  0
 15  7  1  0  0  0  0
M  RAD  2   2   2   6   2
M  END
