title
 OpenBabel02282109573D

 15 15  0  0  1  0  0  0  0  0999 V2000
   -0.0110    2.7799    0.0554 C   0  0  0  0  0  0  0  0  0  0  0  0
   -0.0086    1.2991   -0.0634 C   0  0  0  0  0  0  0  0  0  0  0  0
   -0.0465    0.5801   -1.1464 N   0  0  0  0  0  0  0  0  0  0  0  0
   -0.0229   -0.7229   -0.6904 C   0  0  0  0  0  0  0  0  0  0  0  0
   -0.0504   -1.7704   -1.5423 O   0  0  0  0  0  0  0  0  0  0  0  0
    0.0290   -0.7559    0.6647 C   0  0  2  0  0  0  0  0  0  0  0  0
    0.0729   -1.8240    1.6895 C   0  0  0  0  0  0  0  0  0  0  0  0
    0.0382    0.5702    1.0708 O   0  0  0  0  0  0  0  0  0  0  0  0
    0.8903    3.1367    0.5649 H   0  0  0  0  0  0  0  0  0  0  0  0
   -0.0514    3.2169   -0.9426 H   0  0  0  0  0  0  0  0  0  0  0  0
   -0.8740    3.1283    0.6327 H   0  0  0  0  0  0  0  0  0  0  0  0
   -0.0858   -1.3993   -2.4317 H   0  0  0  0  0  0  0  0  0  0  0  0
    0.9810   -1.7706    2.3020 H   0  0  0  0  0  0  0  0  0  0  0  0
   -0.7865   -1.7786    2.3692 H   0  0  0  0  0  0  0  0  0  0  0  0
    0.0582   -2.7951    1.1889 H   0  0  0  0  0  0  0  0  0  0  0  0
  1  9  1  0  0  0  0
  1 11  1  0  0  0  0
  2  1  1  0  0  0  0
  2  8  1  0  0  0  0
  3  4  2  0  0  0  0
  3  2  2  0  0  0  0
  4  6  1  0  0  0  0
  5  4  1  0  0  0  0
  6  8  1  0  0  0  0
  6  7  1  1  0  0  0
  7 13  1  0  0  0  0
  7 14  1  0  0  0  0
 10  1  1  0  0  0  0
 12  5  1  0  0  0  0
 15  7  1  0  0  0  0
M  RAD  1   6   2
M  END
