title
 OpenBabel02282109573D

 15 15  0  0  1  0  0  0  0  0999 V2000
   -0.0266    2.8352   -0.0328 C   0  0  0  0  0  0  0  0  0  0  0  0
   -0.0133    1.3433   -0.0429 C   0  0  2  0  0  0  0  0  0  0  0  0
   -0.0329    0.5823   -1.1285 N   0  0  0  0  0  0  0  0  0  0  0  0
   -0.0101   -0.7041   -0.6766 C   0  0  0  0  0  0  0  0  0  0  0  0
   -0.0213   -1.7602   -1.5269 O   0  0  0  0  0  0  0  0  0  0  0  0
    0.0239   -0.7643    0.6937 C   0  0  1  0  0  0  0  0  0  0  0  0
    0.0569   -1.7907    1.6571 N   0  0  0  0  0  0  0  0  0  0  0  0
    0.0210    0.5783    1.0756 N   0  0  0  0  0  0  0  0  0  0  0  0
    0.8656    3.2505    0.4503 H   0  0  0  0  0  0  0  0  0  0  0  0
   -0.0548    3.1898   -1.0640 H   0  0  0  0  0  0  0  0  0  0  0  0
   -0.9020    3.2344    0.4930 H   0  0  0  0  0  0  0  0  0  0  0  0
   -0.0464   -1.3840   -2.4148 H   0  0  0  0  0  0  0  0  0  0  0  0
    0.8761   -2.3807    1.5522 H   0  0  0  0  0  0  0  0  0  0  0  0
   -0.7558   -2.3954    1.5924 H   0  0  0  0  0  0  0  0  0  0  0  0
    0.0416    0.8879    2.0331 H   0  0  0  0  0  0  0  0  0  0  0  0
  1  9  1  0  0  0  0
  1 11  1  0  0  0  0
  2  1  1  1  0  0  0
  2  8  1  0  0  0  0
  3  4  2  0  0  0  0
  3  2  1  0  0  0  0
  4  6  1  0  0  0  0
  5  4  1  0  0  0  0
  6  8  1  0  0  0  0
  6  7  1  6  0  0  0
  8 15  1  0  0  0  0
 10  1  1  0  0  0  0
 12  5  1  0  0  0  0
 13  7  1  0  0  0  0
 14  7  1  0  0  0  0
M  RAD  2   2   2   6   2
M  END
