14
title
C -0.1126217 2.781168 0.0666168
C -0.05054031 1.3005446 -0.04991435
N 0.006564182 0.59227365 -1.1413182
C 0.04706385 -0.7148421 -0.70111907
O 0.11099099 -1.7419977 -1.568913
C 0.01333971 -0.7688811 0.65509266
N 0.03032429 -1.8050604 1.5722095
O -0.051298477 0.5715681 1.0777034
H 0.7409915 3.1682696 0.63294894
H -0.104084104 3.2175105 -0.9325552
H -1.0225091 3.0979135 0.5871922
H 0.11869391 -1.3509738 -2.4507525
H -0.80890703 -1.8628106 2.1387987
H 0.84021395 -1.7969363 2.182683
