title
 OpenBabel02282109573D

 14 14  0  0  1  0  0  0  0  0999 V2000
   -0.1451    2.8395   -0.0405 C   0  0  0  0  0  0  0  0  0  0  0  0
   -0.0689    1.3514   -0.0592 C   0  0  2  0  0  0  0  0  0  0  0  0
   -0.0349    0.5877   -1.1349 N   0  0  0  0  0  0  0  0  0  0  0  0
    0.0326   -0.7017   -0.6860 C   0  0  0  0  0  0  0  0  0  0  0  0
    0.0841   -1.7809   -1.5170 O   0  0  0  0  0  0  0  0  0  0  0  0
    0.0407   -0.7378    0.6787 C   0  0  2  0  0  0  0  0  0  0  0  0
    0.0949   -1.7244    1.6120 O   0  0  0  0  0  0  0  0  0  0  0  0
   -0.0249    0.5822    1.0742 N   0  0  0  0  0  0  0  0  0  0  0  0
    0.7179    3.2925    0.4627 H   0  0  0  0  0  0  0  0  0  0  0  0
   -0.1649    3.1966   -1.0712 H   0  0  0  0  0  0  0  0  0  0  0  0
   -1.0484    3.2021    0.4653 H   0  0  0  0  0  0  0  0  0  0  0  0
    0.0598   -1.4307   -2.4146 H   0  0  0  0  0  0  0  0  0  0  0  0
    0.1379   -2.5635    1.1411 H   0  0  0  0  0  0  0  0  0  0  0  0
   -0.0348    0.8969    2.0298 H   0  0  0  0  0  0  0  0  0  0  0  0
  1  9  1  0  0  0  0
  1 11  1  0  0  0  0
  2  1  1  1  0  0  0
  2  8  1  0  0  0  0
  3  4  2  0  0  0  0
  3  2  1  0  0  0  0
  4  6  1  0  0  0  0
  5  4  1  0  0  0  0
  6  8  1  0  0  0  0
  6  7  1  1  0  0  0
  8 14  1  0  0  0  0
 10  1  1  0  0  0  0
 12  5  1  0  0  0  0
 13  7  1  0  0  0  0
M  RAD  2   2   2   6   2
M  END
