title
 OpenBabel02282109573D

 13 13  0  0  1  0  0  0  0  0999 V2000
    0.2752    2.4335    0.1300 N   0  0  0  0  0  0  0  0  0  0  0  0
    0.0982    1.0421    0.0557 C   0  0  1  0  0  0  0  0  0  0  0  0
   -0.9680    0.1882    0.0091 C   0  0  0  0  0  0  0  0  0  0  0  0
   -2.2781    0.5326    0.0263 O   0  0  0  0  0  0  0  0  0  0  0  0
   -0.5776   -1.1297   -0.0608 N   0  0  0  0  0  0  0  0  0  0  0  0
    0.7352   -1.0782   -0.0568 C   0  0  0  0  0  0  0  0  0  0  0  0
    1.5710   -2.1304   -0.1121 O   0  0  0  0  0  0  0  0  0  0  0  0
    1.2143    0.1749    0.0105 N   0  0  0  0  0  0  0  0  0  0  0  0
   -0.1311    2.8306    0.9704 H   0  0  0  0  0  0  0  0  0  0  0  0
   -0.1298    2.9177   -0.6641 H   0  0  0  0  0  0  0  0  0  0  0  0
   -2.7741   -0.2930   -0.0182 H   0  0  0  0  0  0  0  0  0  0  0  0
    1.0119   -2.9160   -0.1546 H   0  0  0  0  0  0  0  0  0  0  0  0
    2.1777    0.4625    0.0268 H   0  0  0  0  0  0  0  0  0  0  0  0
  1  9  1  0  0  0  0
  2  1  1  6  0  0  0
  3  4  1  0  0  0  0
  3  2  1  0  0  0  0
  5  6  2  0  0  0  0
  5  3  2  0  0  0  0
  6  8  1  0  0  0  0
  7  6  1  0  0  0  0
  8 13  1  0  0  0  0
  8  2  1  0  0  0  0
 10  1  1  0  0  0  0
 11  4  1  0  0  0  0
 12  7  1  0  0  0  0
M  RAD  1   2   2
M  END
