title
 OpenBabel02282109573D

 13 13  0  0  0  0  0  0  0  0999 V2000
    0.2094    2.3980   -0.0998 N   0  0  0  0  0  0  0  0  0  0  0  0
    0.1205    1.0024   -0.0153 C   0  0  0  0  0  0  0  0  0  0  0  0
   -0.9949    0.2202    0.0449 C   0  0  0  0  0  0  0  0  0  0  0  0
   -2.3225    0.5052    0.1659 O   0  0  0  0  0  0  0  0  0  0  0  0
   -0.5230   -1.1076    0.0276 N   0  0  0  0  0  0  0  0  0  0  0  0
    0.8221   -1.0175   -0.0310 C   0  0  0  0  0  0  0  0  0  0  0  0
    1.5756   -2.1323   -0.0416 O   0  0  0  0  0  0  0  0  0  0  0  0
    1.2602    0.2140   -0.0688 N   0  0  0  0  0  0  0  0  0  0  0  0
    1.1171    2.7119    0.2213 H   0  0  0  0  0  0  0  0  0  0  0  0
   -0.5183    2.8567    0.4349 H   0  0  0  0  0  0  0  0  0  0  0  0
   -2.6932    0.6845   -0.7072 H   0  0  0  0  0  0  0  0  0  0  0  0
   -1.0734   -1.9417    0.1363 H   0  0  0  0  0  0  0  0  0  0  0  0
    2.4924   -1.8323   -0.0828 H   0  0  0  0  0  0  0  0  0  0  0  0
  1  2  1  0  0  0  0
  1  9  1  0  0  0  0
  1 10  1  0  0  0  0
  2  3  2  0  0  0  0
  3  4  1  0  0  0  0
  5  3  1  0  0  0  0
  5 12  1  0  0  0  0
  6  5  1  0  0  0  0
  7  6  1  0  0  0  0
  8  6  2  0  0  0  0
  8  2  1  0  0  0  0
 11  4  1  0  0  0  0
 13  7  1  0  0  0  0
M  END
