title
 OpenBabel02282109573D

 12 12  0  0  0  0  0  0  0  0999 V2000
    0.1815    2.4145   -0.1229 N   0  0  0  0  0  0  0  0  0  0  0  0
    0.1111    1.0275   -0.0318 C   0  0  0  0  0  0  0  0  0  0  0  0
   -0.9687    0.2135   -0.0004 C   0  0  0  0  0  0  0  0  0  0  0  0
   -2.2958    0.4055    0.1137 O   0  0  0  0  0  0  0  0  0  0  0  0
   -0.4883   -1.1111    0.0313 O   0  0  0  0  0  0  0  0  0  0  0  0
    0.8443   -0.9512    0.0059 C   0  0  0  0  0  0  0  0  0  0  0  0
    1.5953   -2.0533    0.0164 O   0  0  0  0  0  0  0  0  0  0  0  0
    1.2790    0.2618   -0.0306 N   0  0  0  0  0  0  0  0  0  0  0  0
    1.0515    2.7606    0.2607 H   0  0  0  0  0  0  0  0  0  0  0  0
   -0.6090    2.8782    0.3052 H   0  0  0  0  0  0  0  0  0  0  0  0
   -2.7192    0.3274   -0.7517 H   0  0  0  0  0  0  0  0  0  0  0  0
    1.0098   -2.8180    0.0716 H   0  0  0  0  0  0  0  0  0  0  0  0
  1  2  1  0  0  0  0
  1  9  1  0  0  0  0
  1 10  1  0  0  0  0
  2  8  1  0  0  0  0
  2  3  2  0  0  0  0
  3  5  1  0  0  0  0
  3  4  1  0  0  0  0
  6  7  1  0  0  0  0
  6  5  1  0  0  0  0
  7 12  1  0  0  0  0
  8  6  2  0  0  0  0
 11  4  1  0  0  0  0
M  END
