title
 OpenBabel02282109573D

 15 15  0  0  0  0  0  0  0  0999 V2000
    0.1039    2.7268    0.0582 N   0  0  0  0  0  0  0  0  0  0  0  0
   -0.0951    1.3527   -0.0042 C   0  0  0  0  0  0  0  0  0  0  0  0
   -1.2148    0.5759    0.0513 C   0  0  0  0  0  0  0  0  0  0  0  0
   -0.7414   -0.7843    0.0316 C   0  0  0  0  0  0  0  0  0  0  0  0
   -1.5298   -1.9360    0.1505 N   0  0  0  0  0  0  0  0  0  0  0  0
    0.6155   -0.7400   -0.0448 C   0  0  0  0  0  0  0  0  0  0  0  0
    1.5612   -1.7588   -0.0870 N   0  0  0  0  0  0  0  0  0  0  0  0
    1.0248    0.6078   -0.0532 O   0  0  0  0  0  0  0  0  0  0  0  0
    0.9332    3.0189   -0.4434 H   0  0  0  0  0  0  0  0  0  0  0  0
   -0.7029    3.2517   -0.2504 H   0  0  0  0  0  0  0  0  0  0  0  0
   -2.2370    0.9131    0.1177 H   0  0  0  0  0  0  0  0  0  0  0  0
   -2.3559   -1.9070   -0.4345 H   0  0  0  0  0  0  0  0  0  0  0  0
   -0.9874   -2.7645   -0.0659 H   0  0  0  0  0  0  0  0  0  0  0  0
    2.1567   -1.7261   -0.9088 H   0  0  0  0  0  0  0  0  0  0  0  0
    2.1577   -1.7990    0.7345 H   0  0  0  0  0  0  0  0  0  0  0  0
  2  3  2  0  0  0  0
  2  1  1  0  0  0  0
  3 11  1  0  0  0  0
  4  3  1  0  0  0  0
  4  5  1  0  0  0  0
  6  4  2  0  0  0  0
  7  6  1  0  0  0  0
  7 15  1  0  0  0  0
  8  6  1  0  0  0  0
  8  2  1  0  0  0  0
  9  1  1  0  0  0  0
 10  1  1  0  0  0  0
 12  5  1  0  0  0  0
 13  5  1  0  0  0  0
 14  7  1  0  0  0  0
M  END
