title
 OpenBabel02282109573D

 15 15  0  0  0  0  0  0  0  0999 V2000
    0.1084    2.7953    0.1509 N   0  0  0  0  0  0  0  0  0  0  0  0
   -0.0629    1.3999    0.0252 C   0  0  0  0  0  0  0  0  0  0  0  0
   -1.1832    0.6030   -0.0405 C   0  0  0  0  0  0  0  0  0  0  0  0
   -0.7446   -0.7623   -0.0386 C   0  0  0  0  0  0  0  0  0  0  0  0
   -1.5530   -1.9112   -0.1844 N   0  0  0  0  0  0  0  0  0  0  0  0
    0.6240   -0.7401    0.0133 C   0  0  0  0  0  0  0  0  0  0  0  0
    1.5265   -1.7680    0.0627 O   0  0  0  0  0  0  0  0  0  0  0  0
    1.0423    0.5865    0.0289 N   0  0  0  0  0  0  0  0  0  0  0  0
    0.4097    3.2258   -0.7194 H   0  0  0  0  0  0  0  0  0  0  0  0
   -0.7636    3.2333    0.4215 H   0  0  0  0  0  0  0  0  0  0  0  0
   -2.2035    0.9478   -0.1214 H   0  0  0  0  0  0  0  0  0  0  0  0
   -2.4130   -1.8285    0.3456 H   0  0  0  0  0  0  0  0  0  0  0  0
   -1.0604   -2.7343    0.1452 H   0  0  0  0  0  0  0  0  0  0  0  0
    1.7185   -2.0682   -0.8344 H   0  0  0  0  0  0  0  0  0  0  0  0
    1.9584    0.8858    0.3162 H   0  0  0  0  0  0  0  0  0  0  0  0
  1 10  1  0  0  0  0
  2  8  1  0  0  0  0
  2  1  1  0  0  0  0
  3  4  1  0  0  0  0
  3  2  2  0  0  0  0
  4  6  2  0  0  0  0
  5  4  1  0  0  0  0
  5 13  1  0  0  0  0
  5 12  1  0  0  0  0
  6  8  1  0  0  0  0
  6  7  1  0  0  0  0
  8 15  1  0  0  0  0
  9  1  1  0  0  0  0
 11  3  1  0  0  0  0
 14  7  1  0  0  0  0
M  END
