title
 OpenBabel02282109573D

 14 14  0  0  0  0  0  0  0  0999 V2000
    0.0782    2.7322   -0.0748 N   0  0  0  0  0  0  0  0  0  0  0  0
   -0.1167    1.3579    0.0128 C   0  0  0  0  0  0  0  0  0  0  0  0
   -1.2259    0.5680    0.0205 C   0  0  0  0  0  0  0  0  0  0  0  0
   -0.7419   -0.7931   -0.0002 C   0  0  0  0  0  0  0  0  0  0  0  0
   -1.5281   -1.9570   -0.0734 N   0  0  0  0  0  0  0  0  0  0  0  0
    0.6106   -0.7119   -0.0065 C   0  0  0  0  0  0  0  0  0  0  0  0
    1.5756   -1.6555    0.0755 O   0  0  0  0  0  0  0  0  0  0  0  0
    1.0145    0.6150   -0.0034 O   0  0  0  0  0  0  0  0  0  0  0  0
    0.8686    3.0458    0.4761 H   0  0  0  0  0  0  0  0  0  0  0  0
   -0.7519    3.2503    0.1789 H   0  0  0  0  0  0  0  0  0  0  0  0
   -2.2544    0.8926    0.0214 H   0  0  0  0  0  0  0  0  0  0  0  0
   -2.3061   -1.9289    0.5756 H   0  0  0  0  0  0  0  0  0  0  0  0
   -0.9722   -2.7804    0.1281 H   0  0  0  0  0  0  0  0  0  0  0  0
    2.0151   -1.7499   -0.7797 H   0  0  0  0  0  0  0  0  0  0  0  0
  1  2  1  0  0  0  0
  1 10  1  0  0  0  0
  1  9  1  0  0  0  0
  2  3  2  0  0  0  0
  3 11  1  0  0  0  0
  4  3  1  0  0  0  0
  5  4  1  0  0  0  0
  5 13  1  0  0  0  0
  5 12  1  0  0  0  0
  6  8  1  0  0  0  0
  6  4  2  0  0  0  0
  6  7  1  0  0  0  0
  8  2  1  0  0  0  0
 14  7  1  0  0  0  0
M  END
