14
title
N 0.07821554 2.7321537 -0.07483747
C -0.11673492 1.3579024 0.012821145
C -1.2259345 0.5679586 0.020486169
C -0.74185354 -0.79306734 -0.00017824033
N -1.5280802 -1.9570211 -0.07343837
C 0.6106429 -0.71194327 -0.0065226182
O 1.5755692 -1.655485 0.07545489
O 1.0145407 0.6149571 -0.0034484714
H 0.86864614 3.0457535 0.4761426
H -0.7519274 3.250285 0.17894411
H -2.2544081 0.89261323 0.021410536
H -2.3061445 -1.9288746 0.57560384
H -0.97223383 -2.7803948 0.12808685
H 2.0151362 -1.7499264 -0.77969307
