14
title
N -0.030500876 2.7275465 -0.18253048
C -0.15807666 1.3514106 -0.047999237
C -1.2420697 0.5206308 -0.0034106714
C -0.6864728 -0.8034443 0.036843438
O -1.3568373 -1.9900572 0.092438474
C 0.6692259 -0.70158404 0.020929756
N 1.7367804 -1.5923889 0.06399761
O 0.99225384 0.6617414 -0.030499663
H 0.83526915 3.0713317 0.21354158
H -0.8215964 3.2351778 0.18855993
H -2.2831388 0.80441266 -0.0071383757
H -2.3001907 -1.8085096 0.069480754
H 1.80801 -2.1786854 -0.75999683
H 1.7273451 -2.187838 0.8837487
