14
title
N 0.09718576 2.8152552 0.06637601
C -0.09349401 1.4135778 0.028578432
C -1.1986927 0.59213436 0.0016331596
C -0.7233356 -0.7549788 -0.031489793
O -1.4267738 -1.9447421 -0.0026629923
C 0.64917755 -0.70799124 -0.018173054
O 1.579133 -1.6961683 -0.022997316
N 1.0294406 0.60116184 0.023676734
H -0.28400865 3.2724128 -0.75553274
H -0.34781784 3.2341256 0.8761947
H -2.2297852 0.9118613 0.008591931
H -1.9931672 -1.9875168 -0.78015393
H 1.0875324 -2.5263839 -0.015910659
H 1.9745084 0.94301957 0.054508623
