13
title
N 0.0074047567 2.7373316 -0.074467584
C -0.15004425 1.358924 0.005040183
C -1.238352 0.53868085 -0.014484849
C -0.7067631 -0.8022665 -0.017546851
O -1.3971194 -1.9770745 -0.045592804
C 0.64444566 -0.6975783 0.004875339
O 1.6451895 -1.5917803 0.11363752
O 0.9971118 0.6473095 0.019715246
H 0.8165774 3.06127 0.441646
H -0.8206677 3.2376833 0.21852176
H -2.2761998 0.83314013 -0.03126855
H -2.3344173 -1.7794536 0.030716866
H 2.0344853 -1.7588903 -0.7542259
