14
title
N -0.066909194 2.7181134 -0.11107191
C -0.063336104 1.3272327 -0.012876294
N -1.1398023 0.5620245 -0.011528029
C -0.65916187 -0.72259617 -0.0017984199
O -1.498864 -1.7869847 0.004815278
C 0.7068878 -0.7642522 0.0185877
N 1.6881471 -1.7714183 0.06049711
N 1.0738604 0.5972131 0.011956633
H 0.5063046 3.1740324 0.5894017
H -1.0185401 3.0574968 -0.045186423
H -2.3909059 -1.4207878 -0.00020483007
H 1.670968 -2.358261 -0.7673035
H 1.5762066 -2.380662 0.8641488
H 2.0198424 0.929484 -0.06708678
