13
title
N -0.0028738491 2.6435647 0.23594718
C -0.07369763 1.2832378 0.07241587
N -1.1550963 0.5718548 -0.07987312
C -0.678671 -0.7278512 -0.11285421
O -1.526148 -1.7632174 -0.26071548
C 0.6689262 -0.7728203 0.011556889
N 1.6073211 -1.7824986 0.03309868
O 1.0687795 0.5977426 0.13619627
H 0.8645504 3.0617423 -0.065997496
H -0.82513684 3.127017 -0.09321021
H -2.4103048 -1.381084 -0.3109231
H 2.1199732 -1.861289 0.9043296
H 2.2604475 -1.7687037 -0.7423975
