13
title
N -0.06258791 2.7205713 0.23968756
C -0.08311222 1.3331721 0.071301825
N -1.148962 0.5664263 0.024441557
C -0.6692218 -0.7231565 -0.032855526
O -1.4886338 -1.8105197 -0.09812
C 0.69073856 -0.7355848 -0.04390477
O 1.6480281 -1.7005587 -0.115943454
N 1.0683614 0.60097426 0.02082088
H 0.38854778 3.20643 -0.5291707
H -1.0153936 3.05495 0.3215517
H -2.3875883 -1.4675233 -0.14920066
H 1.2038858 -2.5316508 -0.3145834
H 2.004315 0.9353458 0.17444688
