12
title
O -0.010816244 2.6535616 0.06905886
C 0.008098388 1.3118802 -0.02214094
N 0.08086076 0.6045779 -1.1217448
C 0.037543915 -0.708749 -0.6976878
O 0.106641896 -1.7409096 -1.5734215
C -0.046071365 -0.7857136 0.659683
O -0.1593201 -1.8022053 1.5557488
N -0.05637443 0.55382615 1.0920404
H 0.027704822 2.9867334 -0.8360566
H 0.15466082 -1.346061 -2.45145
H 0.6577061 -2.3137848 1.5615591
H -0.16743156 0.87072927 2.0397897
