title
 OpenBabel02282109573D

 18 18  0  0  0  0  0  0  0  0999 V2000
   -0.0656    2.8214    0.0277 C   0  0  0  0  0  0  0  0  0  0  0  0
    0.0379    1.3819    0.0050 N   0  0  0  0  0  0  0  0  0  0  0  0
   -0.0435    0.5910   -1.1083 C   0  0  0  0  0  0  0  0  0  0  0  0
   -0.0364   -0.7338   -0.7254 C   0  0  0  0  0  0  0  0  0  0  0  0
   -0.0969   -1.9392   -1.6118 C   0  0  0  0  0  0  0  0  0  0  0  0
    0.0503   -0.7406    0.7014 C   0  0  0  0  0  0  0  0  0  0  0  0
    0.0197   -1.9041    1.4991 N   0  0  0  0  0  0  0  0  0  0  0  0
    0.0926    0.5712    1.1228 C   0  0  0  0  0  0  0  0  0  0  0  0
    0.6298    3.2394    0.7623 H   0  0  0  0  0  0  0  0  0  0  0  0
    0.1977    3.2187   -0.9553 H   0  0  0  0  0  0  0  0  0  0  0  0
   -1.0790    3.1597    0.2794 H   0  0  0  0  0  0  0  0  0  0  0  0
   -0.1019    1.0300   -2.0927 H   0  0  0  0  0  0  0  0  0  0  0  0
    0.8131   -2.5521   -1.5474 H   0  0  0  0  0  0  0  0  0  0  0  0
   -0.9377   -2.5932   -1.3496 H   0  0  0  0  0  0  0  0  0  0  0  0
   -0.2150   -1.6513   -2.6605 H   0  0  0  0  0  0  0  0  0  0  0  0
    0.5741   -2.6522    1.0991 H   0  0  0  0  0  0  0  0  0  0  0  0
    0.3510   -1.7320    2.4402 H   0  0  0  0  0  0  0  0  0  0  0  0
    0.1520    0.9958    2.1126 H   0  0  0  0  0  0  0  0  0  0  0  0
  1 11  1  0  0  0  0
  1  9  1  0  0  0  0
  2  1  1  0  0  0  0
  2  8  1  0  0  0  0
  3  4  2  0  0  0  0
  3  2  1  0  0  0  0
  4  6  1  0  0  0  0
  5 13  1  0  0  0  0
  5 14  1  0  0  0  0
  5  4  1  0  0  0  0
  6  8  2  0  0  0  0
  6  7  1  0  0  0  0
  7 17  1  0  0  0  0
  8 18  1  0  0  0  0
 10  1  1  0  0  0  0
 12  3  1  0  0  0  0
 15  5  1  0  0  0  0
 16  7  1  0  0  0  0
M  END
