title
 OpenBabel02282109573D

 15 15  0  0  0  0  0  0  0  0999 V2000
   -0.1720    2.8349   -0.0530 C   0  0  0  0  0  0  0  0  0  0  0  0
   -0.1932    1.3916   -0.0248 N   0  0  0  0  0  0  0  0  0  0  0  0
   -0.1182    0.5812   -1.1371 C   0  0  0  0  0  0  0  0  0  0  0  0
    0.0472   -0.7129   -0.6961 C   0  0  0  0  0  0  0  0  0  0  0  0
    0.1426   -1.8975   -1.3809 O   0  0  0  0  0  0  0  0  0  0  0  0
    0.0882   -0.6869    0.7222 C   0  0  0  0  0  0  0  0  0  0  0  0
    0.2163   -1.7714    1.5400 O   0  0  0  0  0  0  0  0  0  0  0  0
   -0.0520    0.6248    1.1120 C   0  0  0  0  0  0  0  0  0  0  0  0
    0.8486    3.2384   -0.0842 H   0  0  0  0  0  0  0  0  0  0  0  0
   -0.7139    3.1929   -0.9326 H   0  0  0  0  0  0  0  0  0  0  0  0
   -0.6720    3.2257    0.8374 H   0  0  0  0  0  0  0  0  0  0  0  0
   -0.1890    0.9892   -2.1326 H   0  0  0  0  0  0  0  0  0  0  0  0
   -0.0070   -1.7392   -2.3169 H   0  0  0  0  0  0  0  0  0  0  0  0
    0.2565   -2.5495    0.9730 H   0  0  0  0  0  0  0  0  0  0  0  0
   -0.0692    1.0652    2.0947 H   0  0  0  0  0  0  0  0  0  0  0  0
  1  2  1  0  0  0  0
  1 11  1  0  0  0  0
  2  8  1  0  0  0  0
  3  4  2  0  0  0  0
  3  2  1  0  0  0  0
  4  6  1  0  0  0  0
  5  4  1  0  0  0  0
  6  8  2  0  0  0  0
  6  7  1  0  0  0  0
  8 15  1  0  0  0  0
  9  1  1  0  0  0  0
 10  1  1  0  0  0  0
 12  3  1  0  0  0  0
 13  5  1  0  0  0  0
 14  7  1  0  0  0  0
M  END
