title
 OpenBabel02282109573D

 19 19  0  0  0  0  0  0  0  0999 V2000
   -0.0506    2.4027   -0.0878 C   0  0  0  0  0  0  0  0  0  0  0  0
   -0.0188    0.9573   -0.1002 N   0  0  0  0  0  0  0  0  0  0  0  0
   -0.0466    0.1705   -1.2313 C   0  0  0  0  0  0  0  0  0  0  0  0
   -0.0102   -1.1522   -0.8568 C   0  0  0  0  0  0  0  0  0  0  0  0
   -0.0215   -2.3407   -1.7704 C   0  0  0  0  0  0  0  0  0  0  0  0
    0.0414   -1.1603    0.5685 C   0  0  0  0  0  0  0  0  0  0  0  0
    0.0349    0.1443    1.0121 C   0  0  0  0  0  0  0  0  0  0  0  0
    0.0748    0.6954    2.3992 C   0  0  0  0  0  0  0  0  0  0  0  0
    0.8328    2.8186    0.4094 H   0  0  0  0  0  0  0  0  0  0  0  0
   -0.0662    2.7657   -1.1170 H   0  0  0  0  0  0  0  0  0  0  0  0
   -0.9426    2.7819    0.4240 H   0  0  0  0  0  0  0  0  0  0  0  0
   -0.0900    0.6222   -2.2107 H   0  0  0  0  0  0  0  0  0  0  0  0
    0.8760   -2.9590   -1.6477 H   0  0  0  0  0  0  0  0  0  0  0  0
   -0.8836   -2.9921   -1.5824 H   0  0  0  0  0  0  0  0  0  0  0  0
   -0.0662   -2.0320   -2.8193 H   0  0  0  0  0  0  0  0  0  0  0  0
    0.0803   -2.0331    1.2048 H   0  0  0  0  0  0  0  0  0  0  0  0
    0.9531    1.3302    2.5755 H   0  0  0  0  0  0  0  0  0  0  0  0
   -0.8102    1.2996    2.6384 H   0  0  0  0  0  0  0  0  0  0  0  0
    0.1147   -0.1263    3.1178 H   0  0  0  0  0  0  0  0  0  0  0  0
  1  9  1  0  0  0  0
  1 11  1  0  0  0  0
  2  1  1  0  0  0  0
  2  7  1  0  0  0  0
  3  4  2  0  0  0  0
  3  2  1  0  0  0  0
  4  6  1  0  0  0  0
  5 13  1  0  0  0  0
  5 14  1  0  0  0  0
  5  4  1  0  0  0  0
  6  7  2  0  0  0  0
  6 16  1  0  0  0  0
  7  8  1  0  0  0  0
  8 17  1  0  0  0  0
  8 18  1  0  0  0  0
  8 19  1  0  0  0  0
 10  1  1  0  0  0  0
 12  3  1  0  0  0  0
 15  5  1  0  0  0  0
M  END
