19
title
C -0.050590023 2.4027314 -0.087839216
N -0.018783916 0.95734656 -0.10017019
C -0.046646517 0.17052606 -1.2312708
C -0.010164338 -1.1521782 -0.8567639
C -0.021527626 -2.3407135 -1.7704185
C 0.041367367 -1.1602961 0.56848145
C 0.0348681 0.14425734 1.0121442
C 0.07475124 0.6953962 2.3991656
H 0.83281916 2.8185637 0.40939763
H -0.06622045 2.7656689 -1.1169513
H -0.9425751 2.781882 0.42398193
H -0.089972146 0.62222564 -2.210708
H 0.87598395 -2.9589984 -1.6476977
H -0.8835872 -2.9921412 -1.5824393
H -0.06622826 -2.0319526 -2.8192961
H 0.080335654 -2.0331013 1.2048385
H 0.9530576 1.3301682 2.5755017
H -0.8101635 1.2996274 2.6384058
H 0.11473006 -0.12633666 3.1177526
