title
 OpenBabel02282109573D

 18 18  0  0  0  0  0  0  0  0999 V2000
   -0.0989    2.4009   -0.1055 C   0  0  0  0  0  0  0  0  0  0  0  0
   -0.0363    0.9565   -0.1173 N   0  0  0  0  0  0  0  0  0  0  0  0
   -0.0185    0.1570   -1.2415 C   0  0  0  0  0  0  0  0  0  0  0  0
    0.0289   -1.1606   -0.8515 C   0  0  0  0  0  0  0  0  0  0  0  0
    0.0474   -2.3567   -1.7546 C   0  0  0  0  0  0  0  0  0  0  0  0
    0.0637   -1.1610    0.5758 C   0  0  0  0  0  0  0  0  0  0  0  0
    0.0262    0.1508    0.9974 C   0  0  0  0  0  0  0  0  0  0  0  0
   -0.0333    0.7325    2.2833 N   0  0  0  0  0  0  0  0  0  0  0  0
    0.8928    2.8597   -0.2101 H   0  0  0  0  0  0  0  0  0  0  0  0
   -0.7284    2.7490   -0.9285 H   0  0  0  0  0  0  0  0  0  0  0  0
   -0.5354    2.7245    0.8414 H   0  0  0  0  0  0  0  0  0  0  0  0
   -0.0388    0.5972   -2.2265 H   0  0  0  0  0  0  0  0  0  0  0  0
    0.9463   -2.9676   -1.6066 H   0  0  0  0  0  0  0  0  0  0  0  0
   -0.8140   -3.0130   -1.5806 H   0  0  0  0  0  0  0  0  0  0  0  0
    0.0241   -2.0561   -2.8065 H   0  0  0  0  0  0  0  0  0  0  0  0
    0.1137   -2.0264    1.2209 H   0  0  0  0  0  0  0  0  0  0  0  0
   -0.3435    0.0487    2.9627 H   0  0  0  0  0  0  0  0  0  0  0  0
    0.8681    1.0842    2.5947 H   0  0  0  0  0  0  0  0  0  0  0  0
  1 11  1  0  0  0  0
  2  1  1  0  0  0  0
  2  7  1  0  0  0  0
  3  4  2  0  0  0  0
  3  2  1  0  0  0  0
  4  6  1  0  0  0  0
  5 13  1  0  0  0  0
  5 14  1  0  0  0  0
  5  4  1  0  0  0  0
  6  7  2  0  0  0  0
  6 16  1  0  0  0  0
  7  8  1  0  0  0  0
  8 18  1  0  0  0  0
  8 17  1  0  0  0  0
  9  1  1  0  0  0  0
 10  1  1  0  0  0  0
 12  3  1  0  0  0  0
 15  5  1  0  0  0  0
M  END
