title
 OpenBabel02282109573D

 18 18  0  0  0  0  0  0  0  0999 V2000
   -0.0403    2.4336   -0.1180 C   0  0  0  0  0  0  0  0  0  0  0  0
   -0.0504    0.9858   -0.1328 N   0  0  0  0  0  0  0  0  0  0  0  0
   -0.0541    0.1882   -1.2628 C   0  0  0  0  0  0  0  0  0  0  0  0
    0.0047   -1.1053   -0.8180 C   0  0  0  0  0  0  0  0  0  0  0  0
    0.0152   -2.3688   -1.6157 C   0  0  0  0  0  0  0  0  0  0  0  0
    0.0498   -1.1196    0.5605 N   0  0  0  0  0  0  0  0  0  0  0  0
    0.0201    0.1407    0.9427 C   0  0  0  0  0  0  0  0  0  0  0  0
    0.0547    0.6076    2.3605 C   0  0  0  0  0  0  0  0  0  0  0  0
    0.9764    2.8352   -0.2033 H   0  0  0  0  0  0  0  0  0  0  0  0
   -0.6355    2.8148   -0.9513 H   0  0  0  0  0  0  0  0  0  0  0  0
   -0.4801    2.7997    0.8118 H   0  0  0  0  0  0  0  0  0  0  0  0
   -0.1030    0.6159   -2.2514 H   0  0  0  0  0  0  0  0  0  0  0  0
    0.9183   -2.9554   -1.4137 H   0  0  0  0  0  0  0  0  0  0  0  0
   -0.8412   -3.0035   -1.3628 H   0  0  0  0  0  0  0  0  0  0  0  0
   -0.0217   -2.1585   -2.6883 H   0  0  0  0  0  0  0  0  0  0  0  0
    0.9274    1.2371    2.5710 H   0  0  0  0  0  0  0  0  0  0  0  0
   -0.8385    1.1837    2.6309 H   0  0  0  0  0  0  0  0  0  0  0  0
    0.1018   -0.2710    3.0049 H   0  0  0  0  0  0  0  0  0  0  0  0
  1 11  1  0  0  0  0
  2  1  1  0  0  0  0
  2  7  1  0  0  0  0
  3  4  2  0  0  0  0
  3  2  1  0  0  0  0
  4  6  1  0  0  0  0
  5 13  1  0  0  0  0
  5 14  1  0  0  0  0
  5  4  1  0  0  0  0
  6  7  2  0  0  0  0
  7  8  1  0  0  0  0
  8 16  1  0  0  0  0
  8 17  1  0  0  0  0
  8 18  1  0  0  0  0
  9  1  1  0  0  0  0
 10  1  1  0  0  0  0
 12  3  1  0  0  0  0
 15  5  1  0  0  0  0
M  END
