18
title
C -0.04034316 2.4336085 -0.11798663
N -0.050390527 0.98579615 -0.1327509
C -0.054082952 0.18821779 -1.2627934
C 0.0046746456 -1.1053499 -0.8179927
C 0.015246049 -2.3687515 -1.6156967
N 0.04983092 -1.1195694 0.56048715
C 0.020109497 0.14071324 0.9427355
C 0.05473224 0.6075825 2.3605156
H 0.9763795 2.8351665 -0.20328249
H -0.6355471 2.8148067 -0.95127505
H -0.48006958 2.799696 0.8117544
H -0.103023164 0.6158603 -2.2513552
H 0.9182583 -2.955388 -1.4137478
H -0.84121865 -3.0035193 -1.3628222
H -0.021654883 -2.1585245 -2.6883385
H 0.9273902 1.2370886 2.5710328
H -0.8385041 1.1836894 2.6309247
H 0.10175816 -0.27100268 3.0048683
