17
title
C -0.023681432 2.4108284 -0.117971376
N -0.0030633078 0.96675634 -0.11672013
C 0.018932177 0.163343 -1.2475032
C 0.01307215 -1.1519555 -0.83961564
N -0.064352974 -2.3004625 -1.6555148
C 0.016900642 -1.1516382 0.58527565
C 0.012927093 0.16715251 0.9966318
N -0.04434531 0.75004303 2.282502
H 0.96847826 2.839236 -0.31168973
H -0.71114165 2.7731385 -0.88811475
H -0.3695891 2.7526293 0.8590384
H 0.030484498 0.59942603 -2.2334142
H 0.2297239 -2.1114023 -2.6058817
H 0.5012425 -3.0589194 -1.2937526
H 0.017143112 -2.0165963 1.2320715
H -0.43983614 0.09651522 2.947326
H 0.8719246 1.0206075 2.6294749
