15
title
C -0.1248616 2.4160874 -0.06884174
N -0.08337761 0.97079027 -0.096239634
C -0.08146558 0.18367606 -1.2498399
C 0.026254665 -1.1222045 -0.8513456
O 0.046183106 -2.1873853 -1.7067074
C 0.103258625 -1.1590595 0.5752145
C 0.034733165 0.15588695 0.98470914
O 0.06985037 0.7284805 2.217717
H 0.82616794 2.8534126 -0.395495
H -0.92049706 2.7806768 -0.725465
H -0.3298802 2.747069 0.9493338
H -0.16321051 0.6245494 -2.227756
H 0.14525025 -2.989688 -1.1873536
H 0.1888777 -2.0291088 1.2088962
H 0.071627274 0.026285166 2.8742087
