15
title
C -0.119537 2.4477193 -0.06372005
N -0.018349117 1.006962 -0.12097428
C 0.040184166 0.22130105 -1.2798082
C 0.056950305 -1.0637591 -0.8187997
O 0.09922559 -2.198683 -1.5540102
N 0.03605577 -1.1133876 0.54975677
C -0.006841405 0.15084234 0.93141955
N -0.11959727 0.5957861 2.25143
H 0.85766727 2.9348228 -0.16888349
H -0.7716803 2.8041136 -0.86548346
H -0.5580588 2.7322657 0.89521855
H 0.07078745 0.6513497 -2.2645354
H 0.111571044 -2.9244783 -0.9188485
H -0.17449117 -0.20817205 2.864855
H 0.65360963 1.1824155 2.5462813
