15
title
C -0.0960597 2.4588187 0.13113806
N -0.14160056 1.015934 0.06418283
C -1.2684474 0.19175069 0.13632104
C -0.8437485 -1.0748916 0.031357676
C -1.5267006 -2.389168 0.034843322
O 0.53378975 -1.0729496 -0.106412694
C 0.98187035 0.23436789 -0.08668773
O 2.1352549 0.5634564 -0.18579309
H 0.9508012 2.752321 0.040447965
H -0.66852164 2.9112468 -0.6857181
H -0.49045476 2.8234644 1.0856807
H -2.262826 0.58711 0.25541192
H -1.3453605 -2.9342668 -0.8984159
H -1.170109 -3.020696 0.856429
H -2.6041365 -2.2491064 0.14934517
