title
 OpenBabel02282109573D

 15 15  0  0  0  0  0  0  0  0999 V2000
   -0.0961    2.4588    0.1311 C   0  0  0  0  0  0  0  0  0  0  0  0
   -0.1416    1.0159    0.0642 N   0  0  0  0  0  0  0  0  0  0  0  0
   -1.2684    0.1918    0.1363 C   0  0  0  0  0  0  0  0  0  0  0  0
   -0.8437   -1.0749    0.0314 C   0  0  0  0  0  0  0  0  0  0  0  0
   -1.5267   -2.3892    0.0348 C   0  0  0  0  0  0  0  0  0  0  0  0
    0.5338   -1.0729   -0.1064 O   0  0  0  0  0  0  0  0  0  0  0  0
    0.9819    0.2344   -0.0867 C   0  0  0  0  0  0  0  0  0  0  0  0
    2.1353    0.5635   -0.1858 O   0  0  0  0  0  0  0  0  0  0  0  0
    0.9508    2.7523    0.0404 H   0  0  0  0  0  0  0  0  0  0  0  0
   -0.6685    2.9112   -0.6857 H   0  0  0  0  0  0  0  0  0  0  0  0
   -0.4905    2.8235    1.0857 H   0  0  0  0  0  0  0  0  0  0  0  0
   -2.2628    0.5871    0.2554 H   0  0  0  0  0  0  0  0  0  0  0  0
   -1.3454   -2.9343   -0.8984 H   0  0  0  0  0  0  0  0  0  0  0  0
   -1.1701   -3.0207    0.8564 H   0  0  0  0  0  0  0  0  0  0  0  0
   -2.6041   -2.2491    0.1493 H   0  0  0  0  0  0  0  0  0  0  0  0
  1 11  1  0  0  0  0
  2  1  1  0  0  0  0
  2  3  1  0  0  0  0
  3 12  1  0  0  0  0
  4  5  1  0  0  0  0
  4  3  2  0  0  0  0
  5 15  1  0  0  0  0
  5 14  1  0  0  0  0
  6  7  1  0  0  0  0
  6  4  1  0  0  0  0
  7  2  1  0  0  0  0
  8  7  2  0  0  0  0
  9  1  1  0  0  0  0
 10  1  1  0  0  0  0
 13  5  1  0  0  0  0
M  END
