15
title
C -0.1430087 2.4486384 0.0044070957
N -0.14439027 1.006659 -0.018576184
C -1.270548 0.1651113 -0.021624064
C -0.8258385 -1.1103723 -0.008532436
N -1.477092 -2.3464649 0.08605231
N 0.56525886 -1.0609331 -0.028940875
C 1.0198686 0.25762033 -0.0077161724
O 2.172199 0.65232426 0.016442496
H 0.9009061 2.767156 0.004189442
H -0.6456175 2.8629456 -0.87723047
H -0.63595265 2.8353424 0.9040092
H -2.2731154 0.5547375 -0.053712614
H -2.4754431 -2.2263663 0.2033496
H -1.3174736 -2.9334223 -0.72810036
H 1.1780877 -1.8373058 0.14980493
