title
 OpenBabel02282109573D

 15 15  0  0  0  0  0  0  0  0999 V2000
   -0.1430    2.4486    0.0044 C   0  0  0  0  0  0  0  0  0  0  0  0
   -0.1444    1.0067   -0.0186 N   0  0  0  0  0  0  0  0  0  0  0  0
   -1.2705    0.1651   -0.0216 C   0  0  0  0  0  0  0  0  0  0  0  0
   -0.8258   -1.1104   -0.0085 C   0  0  0  0  0  0  0  0  0  0  0  0
   -1.4771   -2.3465    0.0861 N   0  0  0  0  0  0  0  0  0  0  0  0
    0.5653   -1.0609   -0.0289 N   0  0  0  0  0  0  0  0  0  0  0  0
    1.0199    0.2576   -0.0077 C   0  0  0  0  0  0  0  0  0  0  0  0
    2.1722    0.6523    0.0164 O   0  0  0  0  0  0  0  0  0  0  0  0
    0.9009    2.7672    0.0042 H   0  0  0  0  0  0  0  0  0  0  0  0
   -0.6456    2.8629   -0.8772 H   0  0  0  0  0  0  0  0  0  0  0  0
   -0.6360    2.8353    0.9040 H   0  0  0  0  0  0  0  0  0  0  0  0
   -2.2731    0.5547   -0.0537 H   0  0  0  0  0  0  0  0  0  0  0  0
   -2.4754   -2.2264    0.2033 H   0  0  0  0  0  0  0  0  0  0  0  0
   -1.3175   -2.9334   -0.7281 H   0  0  0  0  0  0  0  0  0  0  0  0
    1.1781   -1.8373    0.1498 H   0  0  0  0  0  0  0  0  0  0  0  0
  1 11  1  0  0  0  0
  2  7  1  0  0  0  0
  2  1  1  0  0  0  0
  3  2  1  0  0  0  0
  3  4  2  0  0  0  0
  4  5  1  0  0  0  0
  5 13  1  0  0  0  0
  6  4  1  0  0  0  0
  6  7  1  0  0  0  0
  6 15  1  0  0  0  0
  7  8  2  0  0  0  0
  9  1  1  0  0  0  0
 10  1  1  0  0  0  0
 12  3  1  0  0  0  0
 14  5  1  0  0  0  0
M  END
