14
title
C -0.1226075 2.4676542 0.00090589735
N -0.14601564 1.0246081 0.0039123073
C -1.2888563 0.19353789 -0.004733015
C -0.8293894 -1.0681276 -0.0023834708
N -1.416365 -2.3180394 0.0933144
O 0.5416809 -1.0677502 -0.00696712
C 0.9830926 0.25654614 -0.010720968
O 2.1442282 0.5730926 -0.028008742
H 0.9239554 2.7756102 -0.006233234
H -0.6219368 2.869864 -0.8879229
H -0.61104757 2.8732243 0.894018
H -2.2890763 0.5874176 -0.0032030644
H -2.4025767 -2.3068902 -0.12901807
H -0.9324842 -3.014063 -0.46179825
