14
title
C -0.1558076 2.4558463 -0.00051405636
N -0.14583544 1.0120249 -0.017033542
C -1.2641642 0.1657374 0.010449994
C -0.80771196 -1.1004554 0.012229614
O -1.4783266 -2.2743516 0.10681467
N 0.58642906 -1.0502197 -0.038081836
C 1.0282819 0.27280933 -0.024696488
O 2.175015 0.68150353 -0.020463381
H 0.88533014 2.7823455 -0.013047004
H -0.670879 2.861026 -0.87863934
H -0.64231205 2.84039 0.9028602
H -2.2727346 0.5390725 0.0132315755
H -1.397215 -2.7635384 -0.7214094
H 1.2092202 -1.8228017 0.12246618
