title
 OpenBabel02282109573D

 18 18  0  0  0  0  0  0  0  0999 V2000
   -0.0375    2.9272    0.0163 C   0  0  0  0  0  0  0  0  0  0  0  0
   -0.0032    1.4184    0.0056 C   0  0  0  0  0  0  0  0  0  0  0  0
   -0.1378    0.7005   -1.1851 C   0  0  0  0  0  0  0  0  0  0  0  0
   -0.1372   -0.6911   -1.1907 C   0  0  0  0  0  0  0  0  0  0  0  0
    0.0031   -1.4184   -0.0063 C   0  0  0  0  0  0  0  0  0  0  0  0
    0.0376   -2.9272   -0.0155 C   0  0  0  0  0  0  0  0  0  0  0  0
    0.1377   -0.7002    1.1849 C   0  0  0  0  0  0  0  0  0  0  0  0
    0.1372    0.6909    1.1904 C   0  0  0  0  0  0  0  0  0  0  0  0
    0.5760    3.3357    0.8250 H   0  0  0  0  0  0  0  0  0  0  0  0
    0.3268    3.3422   -0.9281 H   0  0  0  0  0  0  0  0  0  0  0  0
   -1.0578    3.3032    0.1633 H   0  0  0  0  0  0  0  0  0  0  0  0
   -0.2474    1.2383   -2.1228 H   0  0  0  0  0  0  0  0  0  0  0  0
   -0.2452   -1.2215   -2.1328 H   0  0  0  0  0  0  0  0  0  0  0  0
    1.0641   -3.3034   -0.1083 H   0  0  0  0  0  0  0  0  0  0  0  0
   -0.3754   -3.3425    0.9087 H   0  0  0  0  0  0  0  0  0  0  0  0
   -0.5331   -3.3351   -0.8550 H   0  0  0  0  0  0  0  0  0  0  0  0
    0.2473   -1.2382    2.1225 H   0  0  0  0  0  0  0  0  0  0  0  0
    0.2453    1.2214    2.1325 H   0  0  0  0  0  0  0  0  0  0  0  0
  1 11  1  0  0  0  0
  1  9  1  0  0  0  0
  2  1  1  0  0  0  0
  2  8  2  0  0  0  0
  3  2  1  0  0  0  0
  4  3  2  0  0  0  0
  4  5  1  0  0  0  0
  5  7  2  0  0  0  0
  6  5  1  0  0  0  0
  6 15  1  0  0  0  0
  7  8  1  0  0  0  0
  7 17  1  0  0  0  0
  8 18  1  0  0  0  0
 10  1  1  0  0  0  0
 12  3  1  0  0  0  0
 13  4  1  0  0  0  0
 14  6  1  0  0  0  0
 16  6  1  0  0  0  0
M  END
