18
title
C -0.03749296 2.927156 0.016304903
C -0.0031706046 1.4184026 0.0056292843
C -0.13775651 0.7004713 -1.1851373
C -0.13722093 -0.6910839 -1.1906974
C 0.0030975223 -1.4183998 -0.006304718
C 0.03756645 -2.9271593 -0.015514193
C 0.13771756 -0.7002363 1.184876
C 0.13721576 0.69085133 1.1904304
H 0.5759982 3.3356822 0.82498986
H 0.32675862 3.3421915 -0.92813176
H -1.0578153 3.303203 0.16328767
H -0.24735849 1.2383388 -2.1227994
H -0.24517718 -1.221524 -2.1327713
H 1.0641472 -3.3034387 -0.108342014
H -0.3754304 -3.3425255 0.9086841
H -0.53310776 -3.335137 -0.8550262
H 0.24725531 -1.2381749 2.12254
H 0.24525084 1.2213632 2.13249
