16
title
C -0.10283872 2.9438357 0.053586576
C -0.060962524 1.435127 0.031525783
C -0.03246847 0.73221666 -1.1790113
C 0.025291553 -0.6542032 -1.216783
C 0.054891296 -1.3798814 -0.024443833
O 0.10919868 -2.7409377 -0.11230642
C 0.024480393 -0.70111203 1.1923754
C -0.03359756 0.6907641 1.2109191
H 0.8678562 3.3793762 -0.21410348
H -0.8363092 3.3362632 -0.6587796
H -0.3666129 3.3200214 1.0460469
H -0.057617493 1.2833153 -2.1150153
H 0.04471103 -1.1920722 -2.1578605
H 0.123267345 -3.1107407 0.77637345
H 0.042459942 -1.2583654 2.125777
H -0.059068535 1.204072 2.167814
