17
title
C -0.041897576 2.907008 0.03773324
C -0.011255334 1.4008269 0.055099055
C -0.2760927 0.6501638 -1.0926425
N -0.2671801 -0.68117154 -1.1523751
C 0.015412061 -1.3640631 -0.035267033
C 0.015253099 -2.8669667 -0.14487423
C 0.29552355 -0.7115611 1.1684341
C 0.28146017 0.676048 1.2109804
H 0.926874 3.331572 0.32423258
H -0.28980258 3.2850702 -0.95785403
H -0.7856041 3.3015208 0.73924065
H -0.51070905 1.1646838 -2.0238833
H 0.25458208 -3.3430176 0.8092979
H -0.9639699 -3.2255416 -0.47815403
H 0.74503994 -3.1955714 -0.89184386
H 0.5214149 -1.2882963 2.0591865
H 0.49750245 1.1958666 2.1405752
