16
title
C 0.0012137812 2.8544688 0.043030422
C 0.0019460187 1.350798 0.024418458
C -0.37300724 0.6178906 -1.1059165
N -0.37805593 -0.71259016 -1.1393201
C -0.0019469842 -1.3507973 -0.024428416
C -0.0012121614 -2.8544698 -0.043025132
C 0.37300858 -0.6178842 1.1059164
N 0.37805495 0.7125841 1.1393217
H 1.0024996 3.2356956 0.26751617
H -0.3216181 3.2671216 -0.91603184
H -0.66646326 3.2279518 0.8259876
H -0.6798749 1.1298798 -2.015678
H 0.32186115 -3.2671313 0.9159552
H -1.0025617 -3.2356787 -0.2672473
H 0.6662767 -3.2279491 -0.8261435
H 0.6798711 -1.1298803 2.0156775
