15
title
C -0.103834145 2.9191115 0.004073515
C -0.0495315 1.4135478 0.032859616
C -0.047686916 0.6586496 -1.1348273
N -0.0010039997 -0.6794296 -1.1739373
C 0.04678844 -1.3262906 -0.018694518
O 0.09379786 -2.6759152 -0.059447255
C 0.050804265 -0.68710357 1.2268128
C 0.0018891166 0.6943157 1.2362489
H 0.77229327 3.3641894 0.48936704
H -0.13839681 3.2917182 -1.0234025
H -0.98866695 3.3013594 0.5257828
H -0.08619694 1.1560726 -2.1020043
H 0.08198857 -2.9105163 -0.9978667
H 0.09115496 -1.2727873 2.136761
H 0.0032972838 1.2262902 2.183616
