16
title
C -0.009709209 2.8803139 -0.00548844
C 0.0037868882 1.3736916 0.032395013
N -0.20864148 0.7369828 -1.1285394
C -0.20659131 -0.59048754 -1.1425107
C 0.004043626 -1.3942804 -0.011321331
N -0.071239084 -2.7858145 -0.08907203
C 0.2287087 -0.7268931 1.1948545
C 0.22749189 0.6614566 1.2119527
H 0.18337178 3.3092306 0.98133516
H 0.7476999 3.2569199 -0.7008944
H -0.9780332 3.2500014 -0.35903585
H -0.38356426 -1.0653679 -2.1078486
H 0.106441624 -3.1636412 -1.0089856
H 0.4600474 -3.2779663 0.61490375
H 0.39896417 -1.2910566 2.1075988
H 0.40236965 1.1923299 2.142
