title
 OpenBabel02282109573D

 15 15  0  0  0  0  0  0  0  0999 V2000
   -0.0290    2.8606   -0.0274 C   0  0  0  0  0  0  0  0  0  0  0  0
   -0.0114    1.3568   -0.0124 C   0  0  0  0  0  0  0  0  0  0  0  0
   -0.2593    0.7144   -1.1683 N   0  0  0  0  0  0  0  0  0  0  0  0
   -0.2495   -0.6069   -1.1545 C   0  0  0  0  0  0  0  0  0  0  0  0
    0.0156   -1.3425    0.0192 C   0  0  0  0  0  0  0  0  0  0  0  0
   -0.0287   -2.7218    0.0398 N   0  0  0  0  0  0  0  0  0  0  0  0
    0.2732   -0.7153    1.1676 N   0  0  0  0  0  0  0  0  0  0  0  0
    0.2517    0.6195    1.1389 C   0  0  0  0  0  0  0  0  0  0  0  0
    0.1973    3.2705    0.9605 H   0  0  0  0  0  0  0  0  0  0  0  0
    0.7047    3.2515   -0.7400 H   0  0  0  0  0  0  0  0  0  0  0  0
   -1.0095    3.2352   -0.3395 H   0  0  0  0  0  0  0  0  0  0  0  0
   -0.4557   -1.1190   -2.0932 H   0  0  0  0  0  0  0  0  0  0  0  0
    0.1626   -3.1975   -0.8278 H   0  0  0  0  0  0  0  0  0  0  0  0
    0.4152   -3.1343    0.8470 H   0  0  0  0  0  0  0  0  0  0  0  0
    0.4607    1.1233    2.0802 H   0  0  0  0  0  0  0  0  0  0  0  0
  1  2  1  0  0  0  0
  1  9  1  0  0  0  0
  2  8  2  0  0  0  0
  3  4  2  0  0  0  0
  3  2  1  0  0  0  0
  4  5  1  0  0  0  0
  5  6  1  0  0  0  0
  5  7  2  0  0  0  0
  6 14  1  0  0  0  0
  8  7  1  0  0  0  0
  8 15  1  0  0  0  0
 10  1  1  0  0  0  0
 11  1  1  0  0  0  0
 12  4  1  0  0  0  0
 13  6  1  0  0  0  0
M  END
