15
title
C -0.11843357 2.8863337 0.04747947
C -0.05934305 1.3804853 0.060615327
N 0.049951248 0.7714624 -1.1305982
C 0.105875686 -0.55442065 -1.1737524
C 0.056845248 -1.3646456 -0.03440812
O 0.12292676 -2.7136035 -0.20706604
C -0.05634551 -0.74140257 1.2034451
C -0.114774585 0.6478174 1.246392
H 0.7807306 3.3028717 -0.4180591
H -0.97257906 3.233003 -0.54326886
H -0.20683917 3.2953463 1.0572163
H 0.19431031 -1.0238029 -2.150703
H 0.07891317 -3.1470737 0.651647
H -0.09819208 -1.3285378 2.1175454
H -0.20314425 1.1585339 2.1993458
