title
 OpenBabel02282109573D

 14 14  0  0  0  0  0  0  0  0999 V2000
   -0.0979    2.8668    0.0211 C   0  0  0  0  0  0  0  0  0  0  0  0
   -0.0468    1.3639    0.0124 C   0  0  0  0  0  0  0  0  0  0  0  0
    0.0750    0.7495   -1.1789 N   0  0  0  0  0  0  0  0  0  0  0  0
    0.1206   -0.5724   -1.1945 C   0  0  0  0  0  0  0  0  0  0  0  0
    0.0445   -1.3146   -0.0050 C   0  0  0  0  0  0  0  0  0  0  0  0
    0.0944   -2.6596   -0.0620 O   0  0  0  0  0  0  0  0  0  0  0  0
   -0.0753   -0.7313    1.1758 N   0  0  0  0  0  0  0  0  0  0  0  0
   -0.1203    0.6063    1.1777 C   0  0  0  0  0  0  0  0  0  0  0  0
    0.8095    3.2871   -0.4242 H   0  0  0  0  0  0  0  0  0  0  0  0
   -0.9437    3.2284   -0.5726 H   0  0  0  0  0  0  0  0  0  0  0  0
   -0.1970    3.2566    1.0375 H   0  0  0  0  0  0  0  0  0  0  0  0
    0.2188   -1.0761   -2.1519 H   0  0  0  0  0  0  0  0  0  0  0  0
    0.0275   -2.9740    0.8506 H   0  0  0  0  0  0  0  0  0  0  0  0
   -0.2188    1.0857    2.1483 H   0  0  0  0  0  0  0  0  0  0  0  0
  1 11  1  0  0  0  0
  2  1  1  0  0  0  0
  2  8  2  0  0  0  0
  3  2  1  0  0  0  0
  4  3  2  0  0  0  0
  4  5  1  0  0  0  0
  5  7  2  0  0  0  0
  6  5  1  0  0  0  0
  6 13  1  0  0  0  0
  7  8  1  0  0  0  0
  8 14  1  0  0  0  0
  9  1  1  0  0  0  0
 10  1  1  0  0  0  0
 12  4  1  0  0  0  0
M  END
