title
 OpenBabel02282109573D

 15 15  0  0  0  0  0  0  0  0999 V2000
    0.0506    2.8322    0.0381 N   0  0  0  0  0  0  0  0  0  0  0  0
    0.0296    1.4264    0.0538 C   0  0  0  0  0  0  0  0  0  0  0  0
   -1.1833    0.7251    0.0732 C   0  0  0  0  0  0  0  0  0  0  0  0
   -1.2126   -0.6623    0.0231 C   0  0  0  0  0  0  0  0  0  0  0  0
   -0.0248   -1.3890   -0.0485 C   0  0  0  0  0  0  0  0  0  0  0  0
   -0.1122   -2.7556   -0.0941 O   0  0  0  0  0  0  0  0  0  0  0  0
    1.1883   -0.7039   -0.0677 C   0  0  0  0  0  0  0  0  0  0  0  0
    1.2142    0.6871   -0.0167 C   0  0  0  0  0  0  0  0  0  0  0  0
    0.8991    3.2289    0.4183 H   0  0  0  0  0  0  0  0  0  0  0  0
   -0.7558    3.2536    0.4783 H   0  0  0  0  0  0  0  0  0  0  0  0
   -2.1175    1.2770    0.1251 H   0  0  0  0  0  0  0  0  0  0  0  0
   -2.1546   -1.1986    0.0405 H   0  0  0  0  0  0  0  0  0  0  0  0
    0.7765   -3.1210   -0.1456 H   0  0  0  0  0  0  0  0  0  0  0  0
    2.1232   -1.2564   -0.1203 H   0  0  0  0  0  0  0  0  0  0  0  0
    2.1690    1.2046   -0.0362 H   0  0  0  0  0  0  0  0  0  0  0  0
  1  2  1  0  0  0  0
  1  9  1  0  0  0  0
  1 10  1  0  0  0  0
  2  3  1  0  0  0  0
  3 11  1  0  0  0  0
  4 12  1  0  0  0  0
  4  3  2  0  0  0  0
  5  4  1  0  0  0  0
  6  5  1  0  0  0  0
  7  5  2  0  0  0  0
  7  8  1  0  0  0  0
  8  2  2  0  0  0  0
 13  6  1  0  0  0  0
 14  7  1  0  0  0  0
 15  8  1  0  0  0  0
M  END
