15
title
N 0.05064382 2.8321977 0.03805298
C 0.02955883 1.426393 0.053826306
C -1.1832644 0.7251329 0.073187076
C -1.2126101 -0.66227126 0.023067141
C -0.024772795 -1.3890479 -0.048455797
O -0.112161845 -2.7556362 -0.09409348
C 1.1883402 -0.70387053 -0.067738004
C 1.214223 0.6870605 -0.016721865
H 0.8990508 3.2289379 0.418293
H -0.75581986 3.253591 0.47833738
H -2.1174743 1.2769926 0.12513596
H -2.1546464 -1.198643 0.040510267
H 0.7764859 -3.1209822 -0.14557986
H 2.1232128 -1.2564361 -0.12032456
H 2.1689606 1.204586 -0.036226906
