15
title
N -0.006046566 2.8011663 0.079235345
C 0.027404953 1.3979636 0.0027970173
C -1.1407998 0.6338369 0.0014958815
N -1.1707945 -0.6998072 -0.008799029
C -0.013376868 -1.3632991 -0.010264934
N -0.08967354 -2.7550614 0.04773528
C 1.2211642 -0.6953457 -0.01392679
C 1.2347252 0.6878476 -0.009595544
H 0.770348 3.250764 -0.3872937
H -0.87755543 3.1984503 -0.24563102
H -2.1097007 1.1326368 0.0048607276
H -1.0046544 -3.0943387 -0.21525927
H 0.6544235 -3.2473705 -0.42458257
H 2.1495395 -1.2569532 -0.014009145
H 2.1795397 1.2242532 -0.008732443
