title
 OpenBabel02282109573D

 14 14  0  0  0  0  0  0  0  0999 V2000
    0.0013    2.7374    0.0781 N   0  0  0  0  0  0  0  0  0  0  0  0
   -0.0003    1.3476    0.0041 C   0  0  0  0  0  0  0  0  0  0  0  0
   -1.1853    0.5985    0.0057 C   0  0  0  0  0  0  0  0  0  0  0  0
   -1.1854   -0.7299   -0.0111 N   0  0  0  0  0  0  0  0  0  0  0  0
    0.0003   -1.3476   -0.0101 C   0  0  0  0  0  0  0  0  0  0  0  0
   -0.0005   -2.7381    0.0494 N   0  0  0  0  0  0  0  0  0  0  0  0
    1.1852   -0.5984   -0.0147 C   0  0  0  0  0  0  0  0  0  0  0  0
    1.1853    0.7300   -0.0176 N   0  0  0  0  0  0  0  0  0  0  0  0
    0.8845    3.1378   -0.2058 H   0  0  0  0  0  0  0  0  0  0  0  0
   -0.7882    3.1948   -0.3536 H   0  0  0  0  0  0  0  0  0  0  0  0
   -2.1557    1.0910    0.0138 H   0  0  0  0  0  0  0  0  0  0  0  0
   -0.8871   -3.1356   -0.2282 H   0  0  0  0  0  0  0  0  0  0  0  0
    0.7838   -3.1909   -0.3965 H   0  0  0  0  0  0  0  0  0  0  0  0
    2.1556   -1.0909   -0.0235 H   0  0  0  0  0  0  0  0  0  0  0  0
  2  3  2  0  0  0  0
  2  1  1  0  0  0  0
  3 11  1  0  0  0  0
  4  5  2  0  0  0  0
  4  3  1  0  0  0  0
  5  6  1  0  0  0  0
  7  5  1  0  0  0  0
  8  7  2  0  0  0  0
  8  2  1  0  0  0  0
  9  1  1  0  0  0  0
 10  1  1  0  0  0  0
 12  6  1  0  0  0  0
 13  6  1  0  0  0  0
 14  7  1  0  0  0  0
M  END
