14
title
N 0.0012754395 2.737394 0.07813062
C -0.00033217223 1.3476063 0.0040758913
C -1.1852813 0.59847426 0.0057412935
N -1.1854365 -0.7298572 -0.01110891
C 0.0002967569 -1.3475761 -0.01007978
N -0.0005169406 -2.7380595 0.04937631
C 1.1852282 -0.5984279 -0.014726811
N 1.185263 0.73000705 -0.017626705
H 0.8845476 3.1378314 -0.20582479
H -0.7882101 3.1948056 -0.35364765
H -2.1556563 1.0909804 0.013778067
H -0.88712484 -3.1355658 -0.22822453
H 0.78376585 -3.1908698 -0.39649883
H 2.1555998 -1.0909293 -0.023482993
