14
title
N -0.037736196 2.7825456 0.08438816
C -0.01903743 1.3816396 0.0027993629
C -1.1847565 0.61095273 -0.0030664532
N -1.1833757 -0.7179929 -0.009995873
C 0.01804713 -1.3124946 -0.0066351546
N 0.03745353 -2.6877549 0.05663691
N 1.2024735 -0.6850871 -0.026292205
C 1.1673143 0.6433812 -0.01904357
H 0.7807475 3.221534 -0.31613317
H -0.87426835 3.1986246 -0.30308482
H -2.161443 1.0951382 -0.00746468
H -0.8128985 -3.1417844 -0.23563349
H 0.89593 -3.1182096 -0.2473199
H 2.1301203 1.1543218 -0.03660977
