title
 OpenBabel02282109573D

 13 13  0  0  0  0  0  0  0  0999 V2000
   -0.0404    2.7437   -0.0270 N   0  0  0  0  0  0  0  0  0  0  0  0
   -0.0237    1.3561    0.0183 C   0  0  0  0  0  0  0  0  0  0  0  0
   -1.1987    0.5922   -0.0222 C   0  0  0  0  0  0  0  0  0  0  0  0
   -1.1694   -0.7387   -0.0347 N   0  0  0  0  0  0  0  0  0  0  0  0
    0.0223   -1.3209   -0.0151 C   0  0  0  0  0  0  0  0  0  0  0  0
    0.0856   -2.6726   -0.0313 O   0  0  0  0  0  0  0  0  0  0  0  0
    1.2004   -0.5708    0.0263 C   0  0  0  0  0  0  0  0  0  0  0  0
    1.1733    0.7571    0.0480 N   0  0  0  0  0  0  0  0  0  0  0  0
    0.8310    3.1561    0.2745 H   0  0  0  0  0  0  0  0  0  0  0  0
   -0.8492    3.1874    0.3817 H   0  0  0  0  0  0  0  0  0  0  0  0
   -2.1770    1.0664   -0.0450 H   0  0  0  0  0  0  0  0  0  0  0  0
   -0.8286   -2.9851   -0.0592 H   0  0  0  0  0  0  0  0  0  0  0  0
    2.1688   -1.0616    0.0483 H   0  0  0  0  0  0  0  0  0  0  0  0
  1  2  1  0  0  0  0
  1  9  1  0  0  0  0
  1 10  1  0  0  0  0
  2  8  1  0  0  0  0
  3  2  2  0  0  0  0
  4  3  1  0  0  0  0
  4  5  2  0  0  0  0
  5  7  1  0  0  0  0
  6  5  1  0  0  0  0
  7  8  2  0  0  0  0
  7 13  1  0  0  0  0
 11  3  1  0  0  0  0
 12  6  1  0  0  0  0
M  END
