13
title
N -0.040442802 2.7437477 -0.026997155
C -0.02369845 1.3560593 0.01832631
C -1.1987151 0.5922167 -0.022197513
N -1.1693548 -0.73867744 -0.03474902
C 0.022337848 -1.3208573 -0.015103069
O 0.08562024 -2.6725976 -0.031321693
C 1.2003868 -0.57084066 0.026291449
N 1.1732684 0.75706667 0.04804261
H 0.8309813 3.1560843 0.2745376
H -0.84917384 3.187389 0.3817261
H -2.1769943 1.0664401 -0.045046214
H -0.8286333 -2.9851134 -0.059162322
H 2.1687503 -1.0616298 0.04831678
