title
 OpenBabel02282109573D

 13 13  0  0  0  0  0  0  0  0999 V2000
    0.0183    2.7831    0.2037 N   0  0  0  0  0  0  0  0  0  0  0  0
    0.0087    1.3913    0.0656 C   0  0  0  0  0  0  0  0  0  0  0  0
   -1.1743    0.6428    0.0709 C   0  0  0  0  0  0  0  0  0  0  0  0
   -1.2020   -0.6846    0.0064 N   0  0  0  0  0  0  0  0  0  0  0  0
   -0.0193   -1.2864   -0.0644 C   0  0  0  0  0  0  0  0  0  0  0  0
   -0.0455   -2.6313   -0.1265 O   0  0  0  0  0  0  0  0  0  0  0  0
    1.1758   -0.6963   -0.0836 N   0  0  0  0  0  0  0  0  0  0  0  0
    1.1793    0.6337   -0.0185 C   0  0  0  0  0  0  0  0  0  0  0  0
    0.8344    3.2318   -0.1891 H   0  0  0  0  0  0  0  0  0  0  0  0
   -0.8240    3.2355   -0.1245 H   0  0  0  0  0  0  0  0  0  0  0  0
   -2.1394    1.1454    0.1299 H   0  0  0  0  0  0  0  0  0  0  0  0
    0.8772   -2.9136   -0.1729 H   0  0  0  0  0  0  0  0  0  0  0  0
    2.1536    1.1203   -0.0334 H   0  0  0  0  0  0  0  0  0  0  0  0
  2  3  2  0  0  0  0
  2  1  1  0  0  0  0
  3 11  1  0  0  0  0
  4  3  1  0  0  0  0
  5  4  2  0  0  0  0
  6  5  1  0  0  0  0
  7  5  2  0  0  0  0
  7  8  1  0  0  0  0
  8  2  1  0  0  0  0
  9  1  1  0  0  0  0
 10  1  1  0  0  0  0
 12  6  1  0  0  0  0
 13  8  1  0  0  0  0
M  RAD  1   8   2
M  END
