13
title
N 0.018259987 2.783075 0.2036647
C 0.008662265 1.3912634 0.065622345
C -1.174349 0.6428417 0.07091964
N -1.2020093 -0.68458945 0.0064113718
C -0.019328935 -1.2864082 -0.06435295
O -0.04553988 -2.6312752 -0.1264566
N 1.1757653 -0.6963473 -0.08363135
C 1.1793015 0.6337106 -0.018479675
H 0.8344372 3.2318084 -0.18905628
H -0.82401824 3.2354977 -0.12445389
H -2.1394062 1.1453786 0.12988882
H 0.8771852 -2.9136052 -0.17289995
H 2.1536431 1.1203012 -0.033394612
