14
title
N -0.0037480125 2.764195 -0.027918408
C 0.033593252 1.3728245 0.01686774
N -1.1464185 0.74639845 0.050180398
C -1.1644982 -0.5861313 0.028899346
C -0.014998587 -1.3712258 -0.014476881
O -0.15747556 -2.7310996 -0.024721222
C 1.2159436 -0.71563476 -0.040376946
C 1.2468996 0.6698233 -0.028759742
H 0.77658564 3.2352946 0.40500402
H -0.89665556 3.1323395 0.26875636
H -2.1375444 -1.0702076 0.053583425
H 0.713391 -3.1389108 -0.06038744
H 2.1422956 -1.2840123 -0.072337724
H 2.1916785 1.2019246 -0.060625568
