13
title
N 0.058070596 2.694759 0.036048476
C 0.033900984 1.3211831 0.04746053
N -1.1736302 0.73524106 0.10325933
C -1.1921622 -0.59136313 0.053381678
C -0.028980367 -1.3540651 -0.049160812
O -0.12393853 -2.7144876 -0.097679
C 1.1648674 -0.6405669 -0.082856126
N 1.2126265 0.68850404 -0.03351282
H 0.93745357 3.1170666 0.28525582
H -0.7725376 3.1464846 0.3822778
H -2.160749 -1.0844165 0.098484695
H 0.7597199 -3.0911984 -0.1669104
H 2.1210458 -1.16248 -0.14738609
