14
title
O -0.036473367 2.7629101 0.1539811
C -0.018646276 1.3985113 0.048287228
C -0.016565828 0.7331115 -1.1783735
C 0.0019364516 -0.6566614 -1.2278717
C 0.018638337 -1.3985113 -0.048289694
O 0.03652315 -2.76291 -0.15397908
C 0.01657346 -0.7331103 1.1783731
C -0.0019585332 0.6566598 1.2278717
H -0.046895783 3.1434147 -0.72979337
H -0.029487843 1.3028749 -2.1040645
H 0.0036395648 -1.1796802 -2.1772494
H 0.04638447 -3.1434178 0.7298001
H 0.029518181 -1.3028766 2.104062
H -0.0036820015 1.1796819 2.1772475
