13
title
O -0.03195091 2.7400205 -0.102411866
C -0.016283369 1.3794392 0.011057758
C -0.0036486883 0.6219003 -1.1569536
N 0.012084457 -0.7134314 -1.1582321
C 0.015827307 -1.3458703 0.007663482
O 0.031838644 -2.7000158 -0.012058399
C 0.0041469214 -0.6859935 1.2389122
C -0.012149875 0.6997143 1.2314068
H -0.039388526 3.1319299 0.77654684
H -0.0064908164 1.12318 -2.1207047
H 0.037724424 -2.9486744 -0.94636345
H 0.007900472 -1.2529967 2.161351
H -0.021615854 1.2514795 2.1679337
