12
title
O -0.034127787 2.7205021 0.17343426
C -0.017441424 1.3646551 0.053141076
C -0.019479955 0.6753018 -1.1572839
N -0.0026724099 -0.6540862 -1.2306386
C 0.016467528 -1.2959188 -0.068110965
O 0.033315405 -2.6383412 -0.13791218
N 0.020418996 -0.7494212 1.1510088
C 0.0034329386 0.5794045 1.2049057
H -0.047687177 3.1197171 -0.7032039
H -0.035272796 1.2163429 -2.1042297
H 0.04579918 -2.9544437 0.7751076
H 0.006266923 1.0475174 2.1859698
