14
title
C 0.009157697 2.8687632 0.016236885
C -0.02712805 1.3679279 0.003080444
C -1.1718135 0.6520633 -0.16725166
N -1.1306393 -0.71363586 -0.16824053
C 0.039656952 -1.4580983 -0.0017693895
O 0.040270463 -2.6761632 -0.007820266
C 1.2040435 -0.58263415 0.17208469
N 1.1733563 0.7131163 0.17440721
H 0.6630341 3.2476141 -0.7763779
H -0.98732567 3.295253 -0.12610333
H 0.41039053 3.238452 0.96578723
H -2.145019 1.1068969 -0.30646113
H -1.9751498 -1.2552313 -0.29384914
H 2.1588564 -1.0857443 0.30875236
