14
title
C -0.028864976 2.90834 -0.01709795
C -0.04621388 1.404592 -0.013365929
C -1.1774398 0.66349566 -0.17874393
N -1.1098655 -0.68898284 -0.16245085
C 0.08380121 -1.429824 0.018995333
O 0.041937146 -2.6398504 0.018390954
N 1.233074 -0.66709006 0.18677904
C 1.1444391 0.63250244 0.16754404
H 0.6109801 3.3029401 -0.814559
H -1.03342 3.3132703 -0.16832587
H 0.3512159 3.3100178 0.9290437
H -2.160675 1.098034 -0.3273811
H -1.940519 -1.2509559 -0.28364867
H 2.0840032 1.1733521 0.305019
