15
title
C -0.041337583 2.893427 0.038612872
C -0.019027535 1.3904067 0.035463087
C -0.062807284 0.6739863 -1.1024907
O -0.04502326 -0.67862004 -1.1521549
C 0.022008358 -1.4547105 0.007079349
N 0.037457116 -2.7234266 -0.06585887
C 0.07059076 -0.71331424 1.2521899
C 0.051184174 0.6345664 1.2665893
H 0.8575484 3.3048024 0.5127842
H -0.09553188 3.2924364 -0.97780365
H -0.90315485 3.2785084 0.5963354
H -0.116772674 1.1016874 -2.0969856
H -0.0045531164 -3.0284817 -1.0385683
H 0.12266827 -1.3096049 2.1538975
H 0.0883156 1.1724316 2.209484
