14
title
C 0.065273926 2.7979493 0.48010677
C 0.010011183 1.3209987 0.23113498
C -1.1182972 0.59810823 0.32342055
O -1.160796 -0.7425254 0.0956571
C -0.000116066745 -1.4108694 -0.24902128
N 0.025531461 -2.6586812 -0.47489092
C 1.1938902 -0.566855 -0.33194622
N 1.214928 0.698377 -0.11279119
H 0.7607249 3.0248802 1.2952441
H 0.42968062 3.3247344 -0.40830514
H -0.9178967 3.197472 0.7415566
H -2.0934393 0.99060875 0.5821438
H -0.901829 -3.0718987 -0.36754355
H 2.1132925 -1.0813396 -0.60111487
