title
 OpenBabel02282109573D

 14 14  0  0  0  0  0  0  0  0999 V2000
   -0.0373    2.8818    0.0175 C   0  0  0  0  0  0  0  0  0  0  0  0
   -0.0186    1.3803   -0.0065 C   0  0  0  0  0  0  0  0  0  0  0  0
   -0.0703    0.6483   -1.1377 C   0  0  0  0  0  0  0  0  0  0  0  0
   -0.0536   -0.6881   -1.1561 O   0  0  0  0  0  0  0  0  0  0  0  0
    0.0213   -1.4097    0.0447 C   0  0  0  0  0  0  0  0  0  0  0  0
    0.0307   -2.6675   -0.0866 N   0  0  0  0  0  0  0  0  0  0  0  0
    0.0764   -0.6990    1.2388 N   0  0  0  0  0  0  0  0  0  0  0  0
    0.0571    0.5922    1.1994 C   0  0  0  0  0  0  0  0  0  0  0  0
    0.8657    3.2868    0.4886 H   0  0  0  0  0  0  0  0  0  0  0  0
   -0.0965    3.2907   -0.9947 H   0  0  0  0  0  0  0  0  0  0  0  0
   -0.8955    3.2635    0.5822 H   0  0  0  0  0  0  0  0  0  0  0  0
   -0.1301    1.0622   -2.1394 H   0  0  0  0  0  0  0  0  0  0  0  0
    0.0864   -3.0807    0.8430 H   0  0  0  0  0  0  0  0  0  0  0  0
    0.1023    1.1101    2.1597 H   0  0  0  0  0  0  0  0  0  0  0  0
  1  9  1  0  0  0  0
  1 11  1  0  0  0  0
  2  1  1  0  0  0  0
  2  8  2  0  0  0  0
  3  2  1  0  0  0  0
  4  3  1  0  0  0  0
  4  5  1  0  0  0  0
  5  7  2  0  0  0  0
  6  5  1  0  0  0  0
  6 13  1  0  0  0  0
  8  7  1  0  0  0  0
  8 14  1  0  0  0  0
 10  1  1  0  0  0  0
 12  3  1  0  0  0  0
M  RAD  2   3   2   6   2
M  END
