14
title
C -0.037896995 2.9089873 0.04004243
C -0.017352074 1.4049737 0.040427912
C -0.06350713 0.6832386 -1.1009701
O -0.04738018 -0.6585734 -1.1472752
C 0.020404173 -1.4553823 0.011669412
O 0.03012227 -2.6478517 -0.13109595
C 0.07107792 -0.70422244 1.2504377
C 0.052944 0.6495214 1.2600017
H 0.8630527 3.3206398 0.5091066
H -0.0944319 3.3033662 -0.9778663
H -0.8981632 3.2965727 0.59761846
H -0.11825088 1.1170745 -2.0937588
H 0.123770796 -1.2935984 2.1569872
H 0.092066295 1.1842563 2.2055655
