13
title
C -0.0027541332 2.8547592 0.05952071
C -0.016364543 1.3554999 0.025454983
C -1.1332362 0.6304039 -0.19232361
O -1.1369836 -0.71905726 -0.22142342
C 0.039049834 -1.4336928 -0.022982094
O 0.014468983 -2.6324725 -0.05254157
C 1.2115382 -0.58017355 0.20755993
N 1.193348 0.7082092 0.2312414
H 0.6738188 3.2506993 -0.7048684
H -0.9998726 3.2674005 -0.11289563
H 0.35918802 3.2144117 1.0282443
H -2.1199229 1.0442461 -0.3624141
H 2.1502857 -1.1055418 0.36677372
