title
 OpenBabel02282109573D

 13 13  0  0  0  0  0  0  0  0999 V2000
   -0.0028    2.8548    0.0595 C   0  0  0  0  0  0  0  0  0  0  0  0
   -0.0164    1.3555    0.0255 C   0  0  0  0  0  0  0  0  0  0  0  0
   -1.1332    0.6304   -0.1923 C   0  0  0  0  0  0  0  0  0  0  0  0
   -1.1370   -0.7191   -0.2214 O   0  0  0  0  0  0  0  0  0  0  0  0
    0.0390   -1.4337   -0.0230 C   0  0  0  0  0  0  0  0  0  0  0  0
    0.0145   -2.6325   -0.0525 O   0  0  0  0  0  0  0  0  0  0  0  0
    1.2115   -0.5802    0.2076 C   0  0  0  0  0  0  0  0  0  0  0  0
    1.1933    0.7082    0.2312 N   0  0  0  0  0  0  0  0  0  0  0  0
    0.6738    3.2507   -0.7049 H   0  0  0  0  0  0  0  0  0  0  0  0
   -0.9999    3.2674   -0.1129 H   0  0  0  0  0  0  0  0  0  0  0  0
    0.3592    3.2144    1.0282 H   0  0  0  0  0  0  0  0  0  0  0  0
   -2.1199    1.0442   -0.3624 H   0  0  0  0  0  0  0  0  0  0  0  0
    2.1503   -1.1055    0.3668 H   0  0  0  0  0  0  0  0  0  0  0  0
  1 11  1  0  0  0  0
  2  1  1  0  0  0  0
  2  8  1  0  0  0  0
  3  2  2  0  0  0  0
  4  3  1  0  0  0  0
  4  5  1  0  0  0  0
  5  7  1  0  0  0  0
  6  5  2  0  0  0  0
  7  8  2  0  0  0  0
  7 13  1  0  0  0  0
  9  1  1  0  0  0  0
 10  1  1  0  0  0  0
 12  3  1  0  0  0  0
M  END
