title
 OpenBabel02282109573D

 13 13  0  0  0  0  0  0  0  0999 V2000
   -0.0411    2.8969    0.0115 C   0  0  0  0  0  0  0  0  0  0  0  0
   -0.0203    1.3944   -0.0085 C   0  0  0  0  0  0  0  0  0  0  0  0
   -0.0724    0.6594   -1.1436 C   0  0  0  0  0  0  0  0  0  0  0  0
   -0.0538   -0.6706   -1.1495 O   0  0  0  0  0  0  0  0  0  0  0  0
    0.0241   -1.4146    0.0715 C   0  0  0  0  0  0  0  0  0  0  0  0
    0.0346   -2.6024   -0.0323 O   0  0  0  0  0  0  0  0  0  0  0  0
    0.0790   -0.6870    1.2437 N   0  0  0  0  0  0  0  0  0  0  0  0
    0.0574    0.6102    1.1883 C   0  0  0  0  0  0  0  0  0  0  0  0
    0.8603    3.3031    0.4832 H   0  0  0  0  0  0  0  0  0  0  0  0
   -0.0981    3.3013   -1.0025 H   0  0  0  0  0  0  0  0  0  0  0  0
   -0.9016    3.2778    0.5723 H   0  0  0  0  0  0  0  0  0  0  0  0
   -0.1336    1.0772   -2.1448 H   0  0  0  0  0  0  0  0  0  0  0  0
    0.1035    1.1304    2.1477 H   0  0  0  0  0  0  0  0  0  0  0  0
  1  9  1  0  0  0  0
  1 11  1  0  0  0  0
  2  1  1  0  0  0  0
  2  8  2  0  0  0  0
  3  2  1  0  0  0  0
  4  3  1  0  0  0  0
  4  5  1  0  0  0  0
  5  7  2  0  0  0  0
  6  5  2  0  0  0  0
  8  7  1  0  0  0  0
  8 13  1  0  0  0  0
 10  1  1  0  0  0  0
 12  3  1  0  0  0  0
M  RAD  1   3   2
M  END
