13
title
N 0.025449047 2.752325 0.13698788
C -0.036081765 1.3579545 0.03418054
C -1.2005023 0.6447536 0.016395329
N -1.1392702 -0.72516894 -0.025789816
C 0.040041637 -1.4645357 -0.040785525
O 0.050107166 -2.6851783 -0.07662407
C 1.2103013 -0.5839901 -0.013912984
N 1.1728234 0.7132139 0.01719309
H 0.93397105 3.0943043 -0.14637163
H -0.71684515 3.245373 -0.33917782
H -2.1859121 1.0918044 0.038014796
H -1.9903086 -1.2700558 -0.044212442
H 2.1799612 -1.0759883 -0.027051957
