title
 OpenBabel02282109573D

 13 13  0  0  0  0  0  0  0  0999 V2000
    0.1027    2.6975    0.3753 N   0  0  0  0  0  0  0  0  0  0  0  0
   -0.0007    1.3133    0.2254 C   0  0  0  0  0  0  0  0  0  0  0  0
   -1.1573    0.6229    0.1678 C   0  0  0  0  0  0  0  0  0  0  0  0
   -1.1823   -0.7280   -0.0650 O   0  0  0  0  0  0  0  0  0  0  0  0
   -0.0077   -1.4169   -0.2406 C   0  0  0  0  0  0  0  0  0  0  0  0
    0.0359   -2.6676   -0.4665 N   0  0  0  0  0  0  0  0  0  0  0  0
    1.2045   -0.6030   -0.1414 C   0  0  0  0  0  0  0  0  0  0  0  0
    1.2208    0.6632    0.0720 N   0  0  0  0  0  0  0  0  0  0  0  0
    0.9929    2.9581    0.7781 H   0  0  0  0  0  0  0  0  0  0  0  0
   -0.6685    3.1322    0.8618 H   0  0  0  0  0  0  0  0  0  0  0  0
   -2.1510    1.0326    0.2833 H   0  0  0  0  0  0  0  0  0  0  0  0
   -0.9036   -3.0658   -0.4993 H   0  0  0  0  0  0  0  0  0  0  0  0
    2.1440   -1.1370   -0.2585 H   0  0  0  0  0  0  0  0  0  0  0  0
  1  9  1  0  0  0  0
  1 10  1  0  0  0  0
  2  1  1  0  0  0  0
  3  2  2  0  0  0  0
  3 11  1  0  0  0  0
  4  3  1  0  0  0  0
  5  7  2  0  0  0  0
  5  4  1  0  0  0  0
  6  5  1  0  0  0  0
  7  8  1  0  0  0  0
  8  2  1  0  0  0  0
 12  6  1  0  0  0  0
 13  7  1  0  0  0  0
M  RAD  2   6   2   8   2
M  END
