12
title
N 0.03457246 2.735805 0.14757639
C -0.024144767 1.3472686 0.03429476
C -1.1690065 0.62343407 -0.009737543
O -1.154704 -0.73326576 -0.04435642
C 0.03212119 -1.4389921 -0.038792673
O 0.018237568 -2.6409805 -0.06520722
C 1.2213938 -0.57987714 -0.006066829
N 1.1997455 0.70874655 0.028462429
H 0.91450185 3.1008303 -0.19072483
H -0.7534278 3.2321289 -0.24314877
H -2.1731133 1.0267487 -0.016445352
H 2.1789083 -1.0945693 -0.014975145
