12
title
O -0.006544983 2.6883864 0.014659837
C -0.023417138 1.3326677 0.0073838816
C -1.198962 0.6449463 0.0104807895
N -1.1446688 -0.72354513 0.0027282045
C 0.031920828 -1.4736599 -0.0081840325
O 0.030053753 -2.6937666 -0.014829319
C 1.211376 -0.6054166 -0.010344652
N 1.1767546 0.6947793 -0.0030725235
H 0.9249822 2.943436 0.01060974
H -2.1715074 1.1167318 0.018699711
H -1.9993231 -1.2634884 0.004757175
H 2.1776116 -1.1025637 -0.018679824
