title
 OpenBabel02282109573D

 12 12  0  0  0  0  0  0  0  0999 V2000
   -0.0697    2.7349    0.0156 O   0  0  0  0  0  0  0  0  0  0  0  0
   -0.0393    1.3703    0.0078 C   0  0  0  0  0  0  0  0  0  0  0  0
   -1.1978    0.6534    0.0108 C   0  0  0  0  0  0  0  0  0  0  0  0
   -1.1219   -0.7028    0.0030 N   0  0  0  0  0  0  0  0  0  0  0  0
    0.0776   -1.4494   -0.0081 C   0  0  0  0  0  0  0  0  0  0  0  0
    0.0351   -2.6605   -0.0151 O   0  0  0  0  0  0  0  0  0  0  0  0
    1.2431   -0.6902   -0.0113 N   0  0  0  0  0  0  0  0  0  0  0  0
    1.1645    0.6092   -0.0037 C   0  0  0  0  0  0  0  0  0  0  0  0
    0.8326    3.0708    0.0110 H   0  0  0  0  0  0  0  0  0  0  0  0
   -2.1800    1.1091    0.0191 H   0  0  0  0  0  0  0  0  0  0  0  0
   -1.9640   -1.2607    0.0049 H   0  0  0  0  0  0  0  0  0  0  0  0
    2.1147    1.1538   -0.0065 H   0  0  0  0  0  0  0  0  0  0  0  0
  2  3  2  0  0  0  0
  2  1  1  0  0  0  0
  3 10  1  0  0  0  0
  4 11  1  0  0  0  0
  4  3  1  0  0  0  0
  5  4  1  0  0  0  0
  6  5  2  0  0  0  0
  7  5  1  0  0  0  0
  7  8  2  0  0  0  0
  8  2  1  0  0  0  0
  9  1  1  0  0  0  0
 12  8  1  0  0  0  0
M  END
