13
title
O -0.12309129 2.7155294 0.015172181
C -0.024738297 1.3535788 0.0073431563
C 1.1264396 0.65643483 -0.003383019
O 1.1613322 -0.70575976 -0.010823155
C -0.00046318103 -1.4701402 -0.007795944
N 0.05529048 -2.7409964 -0.01491552
C -1.246945 -0.72535396 0.0037514654
C -1.2649106 0.62132794 0.011017109
H 0.7584345 3.103772 0.011892965
H 2.1206431 1.0868927 -0.0071649607
H 1.0248432 -3.058621 -0.022520367
H -2.1508791 -1.320128 0.0060982145
H -2.1918736 1.1839774 0.019658599
