12
title
O 0.06133395 2.6084125 0.52286065
C 0.008567924 1.2818424 0.25742722
C -1.1587317 0.6222996 0.15110062
O -1.1868027 -0.71798366 -0.11763204
C -0.012606092 -1.4179497 -0.28469762
N 0.020280391 -2.6632438 -0.5356904
C 1.2063762 -0.62010735 -0.15173934
N 1.2221903 0.6412483 0.10140645
H 0.99858946 2.839701 0.5482274
H -2.142146 1.054579 0.26007083
H -0.92157996 -3.0523868 -0.5927285
H 2.1438372 -1.1538253 -0.2800744
