14
title
C -0.08305403 2.794782 0.016612694
N -0.061678227 1.3389647 0.007558407
C -1.2347947 0.61489564 0.010688795
C -1.2085738 -0.73101246 0.0031452104
C 0.06726226 -1.4572412 -0.00834576
O 0.14440665 -2.6691847 -0.015650397
N 1.2315822 -0.64656854 -0.011156436
C 1.11294 0.6310453 -0.0034158945
H 0.94294494 3.165131 0.009409419
H -0.5996517 3.182252 -0.8670288
H -0.5834175 3.1717098 0.9140832
H -2.1478598 1.1997998 0.019349525
H -2.1269684 -1.3038758 0.005410529
H 2.0072622 1.2555041 -0.0054676672
