title
 OpenBabel02282109573D

 14 14  0  0  0  0  0  0  0  0999 V2000
   -0.0831    2.7948    0.0166 C   0  0  0  0  0  0  0  0  0  0  0  0
   -0.0617    1.3390    0.0076 N   0  0  0  0  0  0  0  0  0  0  0  0
   -1.2348    0.6149    0.0107 C   0  0  0  0  0  0  0  0  0  0  0  0
   -1.2086   -0.7310    0.0031 C   0  0  0  0  0  0  0  0  0  0  0  0
    0.0673   -1.4572   -0.0083 C   0  0  0  0  0  0  0  0  0  0  0  0
    0.1444   -2.6692   -0.0157 O   0  0  0  0  0  0  0  0  0  0  0  0
    1.2316   -0.6466   -0.0112 N   0  0  0  0  0  0  0  0  0  0  0  0
    1.1129    0.6310   -0.0034 C   0  0  0  0  0  0  0  0  0  0  0  0
    0.9429    3.1651    0.0094 H   0  0  0  0  0  0  0  0  0  0  0  0
   -0.5997    3.1823   -0.8670 H   0  0  0  0  0  0  0  0  0  0  0  0
   -0.5834    3.1717    0.9141 H   0  0  0  0  0  0  0  0  0  0  0  0
   -2.1479    1.1998    0.0193 H   0  0  0  0  0  0  0  0  0  0  0  0
   -2.1270   -1.3039    0.0054 H   0  0  0  0  0  0  0  0  0  0  0  0
    2.0073    1.2555   -0.0055 H   0  0  0  0  0  0  0  0  0  0  0  0
  1 11  1  0  0  0  0
  2  3  1  0  0  0  0
  2  1  1  0  0  0  0
  3 12  1  0  0  0  0
  4 13  1  0  0  0  0
  4  3  2  0  0  0  0
  5  4  1  0  0  0  0
  6  5  2  0  0  0  0
  7  5  1  0  0  0  0
  7  8  2  0  0  0  0
  8  2  1  0  0  0  0
  9  1  1  0  0  0  0
 10  1  1  0  0  0  0
 14  8  1  0  0  0  0
M  END
