title
 OpenBabel02282109573D

 13 13  0  0  0  0  0  0  0  0999 V2000
    0.0077    2.7796    0.0149 C   0  0  0  0  0  0  0  0  0  0  0  0
   -0.0448    1.3236    0.0074 N   0  0  0  0  0  0  0  0  0  0  0  0
   -0.0644    0.5963   -1.1606 C   0  0  0  0  0  0  0  0  0  0  0  0
   -0.0447   -0.6804   -1.2237 N   0  0  0  0  0  0  0  0  0  0  0  0
    0.0413   -1.4149   -0.0079 C   0  0  0  0  0  0  0  0  0  0  0  0
    0.1633   -2.6118   -0.0151 O   0  0  0  0  0  0  0  0  0  0  0  0
   -0.0293   -0.6936    1.2168 N   0  0  0  0  0  0  0  0  0  0  0  0
   -0.0497    0.5837    1.1677 C   0  0  0  0  0  0  0  0  0  0  0  0
    1.0402    3.1442    0.0082 H   0  0  0  0  0  0  0  0  0  0  0  0
   -0.5106    3.1680   -0.8643 H   0  0  0  0  0  0  0  0  0  0  0  0
   -0.4956    3.1583    0.9069 H   0  0  0  0  0  0  0  0  0  0  0  0
   -0.1124    1.1930   -2.0720 H   0  0  0  0  0  0  0  0  0  0  0  0
   -0.0861    1.1706    2.0860 H   0  0  0  0  0  0  0  0  0  0  0  0
  1 11  1  0  0  0  0
  2  1  1  0  0  0  0
  2  8  1  0  0  0  0
  3  2  1  0  0  0  0
  4  3  1  0  0  0  0
  4  5  2  0  0  0  0
  5  7  1  0  0  0  0
  6  5  2  0  0  0  0
  8  7  2  0  0  0  0
  8 13  1  0  0  0  0
  9  1  1  0  0  0  0
 10  1  1  0  0  0  0
 12  3  1  0  0  0  0
M  RAD  1   3   2
M  END
