title
 OpenBabel02282109573D

 11 11  0  0  0  0  0  0  0  0999 V2000
    0.4184   -2.6400   -0.0205 O   0  0  0  0  0  0  0  0  0  0  0  0
    0.3914   -1.4432   -0.0136 C   0  0  0  0  0  0  0  0  0  0  0  0
   -0.6708   -0.5718    0.0061 N   0  0  0  0  0  0  0  0  0  0  0  0
   -0.2202    0.7586    0.0073 C   0  0  0  0  0  0  0  0  0  0  0  0
    1.1260    0.6770   -0.0120 C   0  0  0  0  0  0  0  0  0  0  0  0
    1.5237   -0.6300   -0.0247 O   0  0  0  0  0  0  0  0  0  0  0  0
   -1.0780    1.8715    0.0255 C   0  0  0  0  0  0  0  0  0  0  0  0
   -1.8365    2.8065    0.0413 C   0  0  0  0  0  0  0  0  0  0  0  0
   -1.6284   -0.8760    0.0178 H   0  0  0  0  0  0  0  0  0  0  0  0
    1.8914    1.4324   -0.0184 H   0  0  0  0  0  0  0  0  0  0  0  0
   -2.4953    3.6397    0.0552 H   0  0  0  0  0  0  0  0  0  0  0  0
  1  2  2  0  0  0  0
  2  3  1  0  0  0  0
  3  4  1  0  0  0  0
  3  9  1  0  0  0  0
  4  7  1  0  0  0  0
  5  4  2  0  0  0  0
  6  2  1  0  0  0  0
  6  5  1  0  0  0  0
  7  8  3  0  0  0  0
  8 11  1  0  0  0  0
 10  5  1  0  0  0  0
M  END
