title
 OpenBabel02282109573D

 12 12  0  0  0  0  0  0  0  0999 V2000
   -0.3470   -2.6796   -0.0087 O   0  0  0  0  0  0  0  0  0  0  0  0
   -0.3877   -1.4681   -0.0022 C   0  0  0  0  0  0  0  0  0  0  0  0
   -1.5152   -0.6421    0.0176 N   0  0  0  0  0  0  0  0  0  0  0  0
   -1.1665    0.6944    0.0193 C   0  0  0  0  0  0  0  0  0  0  0  0
    0.1913    0.7662    0.0011 C   0  0  0  0  0  0  0  0  0  0  0  0
    0.6573   -0.5577   -0.0116 N   0  0  0  0  0  0  0  0  0  0  0  0
    1.0443    1.8821   -0.0049 C   0  0  0  0  0  0  0  0  0  0  0  0
    1.8027    2.8187   -0.0106 C   0  0  0  0  0  0  0  0  0  0  0  0
   -2.4460   -1.0201    0.0283 H   0  0  0  0  0  0  0  0  0  0  0  0
   -1.8921    1.4884    0.0334 H   0  0  0  0  0  0  0  0  0  0  0  0
    1.6216   -0.8391   -0.0265 H   0  0  0  0  0  0  0  0  0  0  0  0
    2.4607    3.6520   -0.0154 H   0  0  0  0  0  0  0  0  0  0  0  0
  1  2  2  0  0  0  0
  2  3  1  0  0  0  0
  3  4  1  0  0  0  0
  3  9  1  0  0  0  0
  4 10  1  0  0  0  0
  5  4  2  0  0  0  0
  6  2  1  0  0  0  0
  6  5  1  0  0  0  0
  7  5  1  0  0  0  0
  8  7  3  0  0  0  0
 11  6  1  0  0  0  0
 12  8  1  0  0  0  0
M  END
