12
title
O -0.3470062 -2.6796408 -0.008653142
C -0.38767356 -1.468126 -0.0021581189
N -1.5152012 -0.6420797 0.017636782
C -1.1664727 0.6943544 0.019347137
C 0.19125192 0.7662324 0.0011172234
N 0.65732473 -0.55772674 -0.01155362
C 1.0443479 1.882058 -0.004929196
C 1.8026778 2.8186698 -0.0106046265
H -2.446023 -1.0200752 0.028329618
H -1.8921236 1.4883612 0.033359956
H 1.6216248 -0.8391341 -0.02650583
H 2.4606955 3.6519747 -0.015406691
