9
title
O -0.3410825 -2.602572 -0.009129348
C -0.38444653 -1.4217585 -0.002248518
O -1.5365463 -0.6541321 0.017771363
C -1.1610916 0.6546339 0.019500954
C 0.17566149 0.725973 0.001444762
O 0.6827158 -0.5642859 -0.012461936
C 1.0578511 1.8233222 -0.004904907
N 1.7713579 2.7349808 -0.00991904
H -1.9308103 1.4062375 0.03411877
