title
 OpenBabel02282109573D

 12 12  0  0  0  0  0  0  0  0999 V2000
   -1.9857   -2.0544    0.0062 O   0  0  0  0  0  0  0  0  0  0  0  0
   -2.0000   -0.8387    0.0165 C   0  0  0  0  0  0  0  0  0  0  0  0
   -0.8053   -0.0283    0.0093 C   0  0  0  0  0  0  0  0  0  0  0  0
   -0.6621    1.3277    0.0188 C   0  0  0  0  0  0  0  0  0  0  0  0
    0.6800    1.5995    0.0050 N   0  0  0  0  0  0  0  0  0  0  0  0
    1.4465    0.4137   -0.0132 C   0  0  0  0  0  0  0  0  0  0  0  0
    2.6518    0.3219   -0.0286 O   0  0  0  0  0  0  0  0  0  0  0  0
    0.4776   -0.5710   -0.0102 N   0  0  0  0  0  0  0  0  0  0  0  0
   -2.9468   -0.2595    0.0323 H   0  0  0  0  0  0  0  0  0  0  0  0
   -1.4164    2.0971    0.0339 H   0  0  0  0  0  0  0  0  0  0  0  0
    1.1147    2.5064    0.0070 H   0  0  0  0  0  0  0  0  0  0  0  0
    0.6715   -1.5580   -0.0208 H   0  0  0  0  0  0  0  0  0  0  0  0
  1  2  2  0  0  0  0
  2  9  1  0  0  0  0
  3  2  1  0  0  0  0
  3  4  2  0  0  0  0
  4 10  1  0  0  0  0
  5 11  1  0  0  0  0
  5  4  1  0  0  0  0
  6  8  1  0  0  0  0
  6  5  1  0  0  0  0
  7  6  2  0  0  0  0
  8  3  1  0  0  0  0
 12  8  1  0  0  0  0
M  END
