10
title
O -1.9913031 -2.0610857 0.0059433477
C -1.9797927 -0.8547137 0.01554529
C -0.77625227 -0.033212885 0.008512027
C -0.6296278 1.3006375 0.017576702
O 0.69288135 1.6115751 0.0050953687
C 1.3967905 0.41191295 -0.012502581
O 2.574958 0.3135536 -0.026594702
O 0.48413298 -0.600703 -0.010280129
H -2.9087667 -0.24566959 0.030855516
H -1.3377424 2.112008 0.032095153
