title
 OpenBabel02282109573D

 15 15  0  0  0  0  0  0  0  0999 V2000
   -0.0584    2.9247    0.4826 C   0  0  0  0  0  0  0  0  0  0  0  0
   -0.0224    1.4368    0.3683 C   0  0  0  0  0  0  0  0  0  0  0  0
   -0.0524    0.6127   -0.7292 C   0  0  0  0  0  0  0  0  0  0  0  0
    0.0078   -0.7455   -0.2706 C   0  0  0  0  0  0  0  0  0  0  0  0
    0.0730   -0.6935    1.1105 C   0  0  0  0  0  0  0  0  0  0  0  0
    0.0541    0.6228    1.4793 N   0  0  0  0  0  0  0  0  0  0  0  0
    0.0020   -1.9141   -1.0667 C   0  0  0  0  0  0  0  0  0  0  0  0
   -0.0038   -2.9007   -1.7589 C   0  0  0  0  0  0  0  0  0  0  0  0
    0.8395    3.3243    0.9702 H   0  0  0  0  0  0  0  0  0  0  0  0
   -0.1194    3.3710   -0.5123 H   0  0  0  0  0  0  0  0  0  0  0  0
   -0.9256    3.2750    1.0563 H   0  0  0  0  0  0  0  0  0  0  0  0
   -0.1111    0.9285   -1.7591 H   0  0  0  0  0  0  0  0  0  0  0  0
    0.1302   -1.4871    1.8369 H   0  0  0  0  0  0  0  0  0  0  0  0
    0.0908    0.9522    2.4286 H   0  0  0  0  0  0  0  0  0  0  0  0
   -0.0088   -3.7715   -2.3653 H   0  0  0  0  0  0  0  0  0  0  0  0
  1  9  1  0  0  0  0
  1 11  1  0  0  0  0
  2  1  1  0  0  0  0
  2  6  1  0  0  0  0
  3  4  1  0  0  0  0
  3  2  2  0  0  0  0
  4  5  2  0  0  0  0
  5  6  1  0  0  0  0
  5 13  1  0  0  0  0
  6 14  1  0  0  0  0
  7  4  1  0  0  0  0
  8  7  3  0  0  0  0
 10  1  1  0  0  0  0
 12  3  1  0  0  0  0
 15  8  1  0  0  0  0
M  END
