title
 OpenBabel02282109573D

 14 14  0  0  0  0  0  0  0  0999 V2000
   -0.0553    2.9450    0.4407 C   0  0  0  0  0  0  0  0  0  0  0  0
   -0.0209    1.4557    0.3474 C   0  0  0  0  0  0  0  0  0  0  0  0
   -0.0532    0.6173   -0.7383 C   0  0  0  0  0  0  0  0  0  0  0  0
    0.0066   -0.7289   -0.2516 C   0  0  0  0  0  0  0  0  0  0  0  0
    0.0737   -0.6621    1.1281 C   0  0  0  0  0  0  0  0  0  0  0  0
    0.0562    0.6566    1.4712 N   0  0  0  0  0  0  0  0  0  0  0  0
   -0.0009   -1.9149   -1.0248 C   0  0  0  0  0  0  0  0  0  0  0  0
   -0.0075   -2.8801   -1.6660 N   0  0  0  0  0  0  0  0  0  0  0  0
    0.8446    3.3478    0.9212 H   0  0  0  0  0  0  0  0  0  0  0  0
   -0.1179    3.3772   -0.5599 H   0  0  0  0  0  0  0  0  0  0  0  0
   -0.9212    3.3014    1.0117 H   0  0  0  0  0  0  0  0  0  0  0  0
   -0.1127    0.9152   -1.7729 H   0  0  0  0  0  0  0  0  0  0  0  0
    0.1310   -1.4459    1.8648 H   0  0  0  0  0  0  0  0  0  0  0  0
    0.0944    1.0010    2.4156 H   0  0  0  0  0  0  0  0  0  0  0  0
  1  9  1  0  0  0  0
  1 11  1  0  0  0  0
  2  1  1  0  0  0  0
  2  6  1  0  0  0  0
  3  4  1  0  0  0  0
  3  2  2  0  0  0  0
  4  5  2  0  0  0  0
  5  6  1  0  0  0  0
  5 13  1  0  0  0  0
  6 14  1  0  0  0  0
  7  4  1  0  0  0  0
  8  7  3  0  0  0  0
 10  1  1  0  0  0  0
 12  3  1  0  0  0  0
M  END
