14
title
C 0.42302155 2.9072943 -0.039606117
C 0.2793942 1.4288201 -0.007204644
C -0.7735413 0.5854198 -0.15453659
C -0.25727883 -0.7565157 -0.01484487
C 1.0825891 -0.6054289 0.20809174
O 1.4201173 0.7053254 0.21531412
C -0.9782309 -1.970022 -0.09125324
C -1.6086159 -2.9938054 -0.15950447
H 1.1110063 3.2259514 -0.8306729
H -0.5490615 3.369175 -0.22415818
H 0.8126212 3.2931337 0.9090755
H -1.7998106 0.85855037 -0.34019837
H 1.8809702 -1.309417 0.37148547
H -2.1584585 -3.899898 -0.21853225
