title
 OpenBabel02282109573D

 13 13  0  0  0  0  0  0  0  0999 V2000
    0.4190    2.9223    0.0053 C   0  0  0  0  0  0  0  0  0  0  0  0
    0.2756    1.4442    0.0156 C   0  0  0  0  0  0  0  0  0  0  0  0
   -0.7733    0.6016   -0.1614 C   0  0  0  0  0  0  0  0  0  0  0  0
   -0.2490   -0.7348   -0.0285 C   0  0  0  0  0  0  0  0  0  0  0  0
    1.0864   -0.5900    0.2202 C   0  0  0  0  0  0  0  0  0  0  0  0
    1.4145    0.7166    0.2492 O   0  0  0  0  0  0  0  0  0  0  0  0
   -0.9586   -1.9563   -0.1317 C   0  0  0  0  0  0  0  0  0  0  0  0
   -1.5485   -2.9490   -0.2180 N   0  0  0  0  0  0  0  0  0  0  0  0
    1.1208    3.2494   -0.7696 H   0  0  0  0  0  0  0  0  0  0  0  0
   -0.5499    3.3857   -0.1901 H   0  0  0  0  0  0  0  0  0  0  0  0
    0.7918    3.2934    0.9661 H   0  0  0  0  0  0  0  0  0  0  0  0
   -1.7970    0.8724   -0.3617 H   0  0  0  0  0  0  0  0  0  0  0  0
    1.8814   -1.2967    0.3884 H   0  0  0  0  0  0  0  0  0  0  0  0
  1  2  1  0  0  0  0
  1 11  1  0  0  0  0
  2  6  1  0  0  0  0
  3  4  1  0  0  0  0
  3  2  2  0  0  0  0
  4  5  2  0  0  0  0
  5  6  1  0  0  0  0
  5 13  1  0  0  0  0
  7  4  1  0  0  0  0
  8  7  3  0  0  0  0
  9  1  1  0  0  0  0
 10  1  1  0  0  0  0
 12  3  1  0  0  0  0
M  END
