14
title
C -0.058901027 2.839257 0.45478165
C -0.018789321 1.3485293 0.40760964
N -0.050328128 0.6107873 -0.67614084
C 0.0084426515 -0.70721465 -0.24347068
C 0.07602501 -0.745771 1.1308547
N 0.05807125 0.56644243 1.5319654
C -0.0031662863 -1.8094156 -1.1321019
C -0.01244132 -2.753559 -1.8791564
H 0.83903176 3.2565057 0.9248294
H -0.12125756 3.217208 -0.5661027
H -0.92710775 3.2061427 1.0141654
H 0.13305159 -1.5656807 1.8264359
H 0.094986066 0.8920091 2.4836524
H -0.021082202 -3.5808458 -2.543957
