title
 OpenBabel02282109573D

 14 14  0  0  0  0  0  0  0  0999 V2000
   -0.0589    2.8393    0.4548 C   0  0  0  0  0  0  0  0  0  0  0  0
   -0.0188    1.3485    0.4076 C   0  0  0  0  0  0  0  0  0  0  0  0
   -0.0503    0.6108   -0.6761 N   0  0  0  0  0  0  0  0  0  0  0  0
    0.0084   -0.7072   -0.2435 C   0  0  0  0  0  0  0  0  0  0  0  0
    0.0760   -0.7458    1.1309 C   0  0  0  0  0  0  0  0  0  0  0  0
    0.0581    0.5664    1.5320 N   0  0  0  0  0  0  0  0  0  0  0  0
   -0.0032   -1.8094   -1.1321 C   0  0  0  0  0  0  0  0  0  0  0  0
   -0.0124   -2.7536   -1.8792 C   0  0  0  0  0  0  0  0  0  0  0  0
    0.8390    3.2565    0.9248 H   0  0  0  0  0  0  0  0  0  0  0  0
   -0.1213    3.2172   -0.5661 H   0  0  0  0  0  0  0  0  0  0  0  0
   -0.9271    3.2061    1.0142 H   0  0  0  0  0  0  0  0  0  0  0  0
    0.1331   -1.5657    1.8264 H   0  0  0  0  0  0  0  0  0  0  0  0
    0.0950    0.8920    2.4837 H   0  0  0  0  0  0  0  0  0  0  0  0
   -0.0211   -3.5808   -2.5440 H   0  0  0  0  0  0  0  0  0  0  0  0
  1  9  1  0  0  0  0
  1 11  1  0  0  0  0
  2  1  1  0  0  0  0
  2  6  1  0  0  0  0
  3  4  1  0  0  0  0
  3  2  2  0  0  0  0
  4  5  2  0  0  0  0
  5  6  1  0  0  0  0
  5 12  1  0  0  0  0
  6 13  1  0  0  0  0
  7  4  1  0  0  0  0
  8  7  3  0  0  0  0
 10  1  1  0  0  0  0
 14  8  1  0  0  0  0
M  END
