13
title
C -0.05433806 2.853202 0.45502645
C -0.016665611 1.3631219 0.40867335
N -0.051285043 0.624452 -0.67449385
C 0.0067612617 -0.68580323 -0.23485853
C 0.07787341 -0.7315648 1.1377059
N 0.061141077 0.5784414 1.533721
C -0.0076778964 -1.7956526 -1.1203275
N -0.017982906 -2.7157478 -1.8229057
H 0.8481624 3.2669103 0.9185569
H -0.12338608 3.2298944 -0.5656552
H -0.9183154 3.2191021 1.0207868
H 0.13556471 -1.5528057 1.8315082
H 0.0999687 0.90423435 2.4857721
