title
 OpenBabel02282109573D

 13 13  0  0  0  0  0  0  0  0999 V2000
   -0.0543    2.8532    0.4550 C   0  0  0  0  0  0  0  0  0  0  0  0
   -0.0167    1.3631    0.4087 C   0  0  0  0  0  0  0  0  0  0  0  0
   -0.0513    0.6245   -0.6745 N   0  0  0  0  0  0  0  0  0  0  0  0
    0.0068   -0.6858   -0.2349 C   0  0  0  0  0  0  0  0  0  0  0  0
    0.0779   -0.7316    1.1377 C   0  0  0  0  0  0  0  0  0  0  0  0
    0.0611    0.5784    1.5337 N   0  0  0  0  0  0  0  0  0  0  0  0
   -0.0077   -1.7957   -1.1203 C   0  0  0  0  0  0  0  0  0  0  0  0
   -0.0180   -2.7157   -1.8229 N   0  0  0  0  0  0  0  0  0  0  0  0
    0.8482    3.2669    0.9186 H   0  0  0  0  0  0  0  0  0  0  0  0
   -0.1234    3.2299   -0.5657 H   0  0  0  0  0  0  0  0  0  0  0  0
   -0.9183    3.2191    1.0208 H   0  0  0  0  0  0  0  0  0  0  0  0
    0.1356   -1.5528    1.8315 H   0  0  0  0  0  0  0  0  0  0  0  0
    0.1000    0.9042    2.4858 H   0  0  0  0  0  0  0  0  0  0  0  0
  1  9  1  0  0  0  0
  1 11  1  0  0  0  0
  2  1  1  0  0  0  0
  2  6  1  0  0  0  0
  3  4  1  0  0  0  0
  3  2  2  0  0  0  0
  4  5  2  0  0  0  0
  5  6  1  0  0  0  0
  5 12  1  0  0  0  0
  6 13  1  0  0  0  0
  7  4  1  0  0  0  0
  8  7  3  0  0  0  0
 10  1  1  0  0  0  0
M  END
