title
 OpenBabel02282109573D

 13 13  0  0  0  0  0  0  0  0999 V2000
    0.4324    2.8193   -0.0569 C   0  0  0  0  0  0  0  0  0  0  0  0
    0.3343    1.3384   -0.0017 C   0  0  0  0  0  0  0  0  0  0  0  0
   -0.7081    0.5922   -0.1685 N   0  0  0  0  0  0  0  0  0  0  0  0
   -0.2388   -0.7185   -0.0107 C   0  0  0  0  0  0  0  0  0  0  0  0
    1.0960   -0.6667    0.2483 C   0  0  0  0  0  0  0  0  0  0  0  0
    1.4767    0.6394    0.2573 O   0  0  0  0  0  0  0  0  0  0  0  0
   -1.0685   -1.8582   -0.1161 C   0  0  0  0  0  0  0  0  0  0  0  0
   -1.7670   -2.8340   -0.2039 C   0  0  0  0  0  0  0  0  0  0  0  0
    1.1311    3.1375   -0.8374 H   0  0  0  0  0  0  0  0  0  0  0  0
   -0.5541    3.2302   -0.2707 H   0  0  0  0  0  0  0  0  0  0  0  0
    0.7921    3.2245    0.8943 H   0  0  0  0  0  0  0  0  0  0  0  0
    1.8569   -1.4040    0.4345 H   0  0  0  0  0  0  0  0  0  0  0  0
   -2.3881   -3.6915   -0.2826 H   0  0  0  0  0  0  0  0  0  0  0  0
  1  2  1  0  0  0  0
  1 11  1  0  0  0  0
  2  6  1  0  0  0  0
  3  4  1  0  0  0  0
  3  2  2  0  0  0  0
  4  5  2  0  0  0  0
  5  6  1  0  0  0  0
  5 12  1  0  0  0  0
  7  4  1  0  0  0  0
  8  7  3  0  0  0  0
  9  1  1  0  0  0  0
 10  1  1  0  0  0  0
 13  8  1  0  0  0  0
M  END
