12
title
C 0.43039802 2.8345542 0.007204077
C 0.3314904 1.3541535 0.033328325
N -0.7010687 0.6075927 -0.1858989
C -0.22905673 -0.6961945 -0.030978477
C 1.0938776 -0.6541835 0.28039935
O 1.4657992 0.647608 0.32498372
C -1.0487355 -1.8440624 -0.1865117
N -1.699841 -2.7927082 -0.30883834
H 1.159687 3.164017 -0.73942965
H -0.54719263 3.2486122 -0.23876488
H 0.7518221 3.2214925 0.9792152
H 1.846173 -1.3963321 0.48304018
