title
 OpenBabel02282109573D

 13 13  0  0  0  0  0  0  0  0999 V2000
    0.4574    2.8395    0.1148 N   0  0  0  0  0  0  0  0  0  0  0  0
    0.3266    1.4438    0.0235 C   0  0  0  0  0  0  0  0  0  0  0  0
   -0.7580    0.6022    0.0173 C   0  0  0  0  0  0  0  0  0  0  0  0
   -0.2490   -0.7389   -0.0122 C   0  0  0  0  0  0  0  0  0  0  0  0
    1.1305   -0.6610   -0.0334 C   0  0  0  0  0  0  0  0  0  0  0  0
    1.4622    0.6633   -0.0045 N   0  0  0  0  0  0  0  0  0  0  0  0
   -1.0092   -1.9329   -0.0341 C   0  0  0  0  0  0  0  0  0  0  0  0
   -1.6413   -2.9042   -0.0526 N   0  0  0  0  0  0  0  0  0  0  0  0
    0.7367    3.2657   -0.7640 H   0  0  0  0  0  0  0  0  0  0  0  0
   -0.4134    3.2654    0.4061 H   0  0  0  0  0  0  0  0  0  0  0  0
   -1.7969    0.8900    0.0164 H   0  0  0  0  0  0  0  0  0  0  0  0
    1.8752   -1.4379   -0.0677 H   0  0  0  0  0  0  0  0  0  0  0  0
    2.3947    1.0334    0.0708 H   0  0  0  0  0  0  0  0  0  0  0  0
  1 10  1  0  0  0  0
  2  1  1  0  0  0  0
  3  2  2  0  0  0  0
  4  3  1  0  0  0  0
  5  4  2  0  0  0  0
  5  6  1  0  0  0  0
  6  2  1  0  0  0  0
  6 13  1  0  0  0  0
  7  4  1  0  0  0  0
  8  7  3  0  0  0  0
  9  1  1  0  0  0  0
 11  3  1  0  0  0  0
 12  5  1  0  0  0  0
M  END
