13
title
N 0.45741054 2.839535 0.11482551
C 0.3265878 1.443787 0.023508463
C -0.7580174 0.60215676 0.017276894
C -0.24903895 -0.7389498 -0.01215561
C 1.1304698 -0.6610303 -0.033388294
N 1.4621724 0.66331744 -0.0045393086
C -1.0092009 -1.9329379 -0.034144234
N -1.6413003 -2.904209 -0.052571695
H 0.73671174 3.2657158 -0.76399595
H -0.41344813 3.2654247 0.40605286
H -1.7968593 0.88996005 0.016403683
H 1.8751767 -1.4379423 -0.06767081
H 2.3946915 1.0333562 0.07077203
