13
title
N 0.43324846 2.7846415 0.12919523
C 0.2774641 1.4118869 0.024219241
C -0.80075073 0.58274 0.00045860145
C -0.26148283 -0.76070756 -0.018658051
C 1.0948547 -0.6239371 -0.009995503
O 1.4334725 0.7006425 0.018705577
C -0.99080646 -1.9715116 -0.046788163
C -1.6301364 -2.9918182 -0.071632504
H 1.2644355 3.122148 -0.3395807
H -0.38392866 3.2964423 -0.17247777
H -1.8418877 0.85854304 -0.003837774
H 1.9111278 -1.3241959 -0.025388042
H -2.186779 -3.8953936 -0.09245094
