title
 OpenBabel02282109573D

 13 13  0  0  0  0  0  0  0  0999 V2000
    0.4112    2.7262    0.1627 N   0  0  0  0  0  0  0  0  0  0  0  0
    0.3771    1.3414    0.0299 C   0  0  0  0  0  0  0  0  0  0  0  0
   -0.6964    0.5933    0.0464 N   0  0  0  0  0  0  0  0  0  0  0  0
   -0.2293   -0.7187   -0.0196 C   0  0  0  0  0  0  0  0  0  0  0  0
    1.1414   -0.7309   -0.0885 C   0  0  0  0  0  0  0  0  0  0  0  0
    1.5218    0.5973   -0.0565 N   0  0  0  0  0  0  0  0  0  0  0  0
   -1.0945   -1.8379   -0.0234 C   0  0  0  0  0  0  0  0  0  0  0  0
   -1.8262   -2.7943   -0.0274 C   0  0  0  0  0  0  0  0  0  0  0  0
    0.9498    3.1925   -0.5580 H   0  0  0  0  0  0  0  0  0  0  0  0
   -0.5348    3.0874    0.1714 H   0  0  0  0  0  0  0  0  0  0  0  0
    1.8538   -1.5335   -0.1688 H   0  0  0  0  0  0  0  0  0  0  0  0
    2.4637    0.9451    0.0027 H   0  0  0  0  0  0  0  0  0  0  0  0
   -2.4747   -3.6344   -0.0301 H   0  0  0  0  0  0  0  0  0  0  0  0
  1 10  1  0  0  0  0
  2  3  2  0  0  0  0
  2  1  1  0  0  0  0
  4  3  1  0  0  0  0
  5  6  1  0  0  0  0
  5  4  2  0  0  0  0
  6 12  1  0  0  0  0
  6  2  1  0  0  0  0
  7  4  1  0  0  0  0
  8  7  3  0  0  0  0
  9  1  1  0  0  0  0
 11  5  1  0  0  0  0
 13  8  1  0  0  0  0
M  END
