13
title
O 0.0529234 2.7379196 0.5480479
C 0.023838835 1.3960999 0.3577247
C 0.04516175 0.5961828 -0.75383806
C -0.009875604 -0.76410806 -0.2790635
C -0.061518174 -0.717054 1.0990108
N -0.04036583 0.6073294 1.4727806
C -0.010662598 -1.9309796 -1.0772079
C -0.010368553 -2.9142437 -1.7741823
H 0.09468482 3.1665113 -0.3120661
H 0.09337778 0.91174066 -1.7835448
H -0.11080053 -1.5086211 1.8267415
H -0.06679355 0.96268094 2.4127352
H -0.010436212 -3.7842288 -2.3820405
