title
 OpenBabel02282109573D

 12 12  0  0  0  0  0  0  0  0999 V2000
    0.0623    2.6400    0.5324 O   0  0  0  0  0  0  0  0  0  0  0  0
    0.0234    1.3042    0.4176 C   0  0  0  0  0  0  0  0  0  0  0  0
    0.0527    0.6092   -0.6823 N   0  0  0  0  0  0  0  0  0  0  0  0
   -0.0117   -0.7213   -0.2583 C   0  0  0  0  0  0  0  0  0  0  0  0
   -0.0787   -0.7788    1.1116 C   0  0  0  0  0  0  0  0  0  0  0  0
   -0.0552    0.5375    1.5380 N   0  0  0  0  0  0  0  0  0  0  0  0
   -0.0049   -1.8096   -1.1613 C   0  0  0  0  0  0  0  0  0  0  0  0
    0.0007   -2.7391   -1.9267 C   0  0  0  0  0  0  0  0  0  0  0  0
    0.1165    2.9891   -0.3663 H   0  0  0  0  0  0  0  0  0  0  0  0
   -0.1387   -1.6065    1.7965 H   0  0  0  0  0  0  0  0  0  0  0  0
   -0.0893    0.8739    2.4852 H   0  0  0  0  0  0  0  0  0  0  0  0
    0.0058   -3.5562   -2.6042 H   0  0  0  0  0  0  0  0  0  0  0  0
  2  1  1  0  0  0  0
  2  6  1  0  0  0  0
  3  4  1  0  0  0  0
  3  2  2  0  0  0  0
  4  5  2  0  0  0  0
  5  6  1  0  0  0  0
  5 10  1  0  0  0  0
  6 11  1  0  0  0  0
  7  4  1  0  0  0  0
  8  7  3  0  0  0  0
  9  1  1  0  0  0  0
 12  8  1  0  0  0  0
M  END
