title
 OpenBabel02282109573D

 15 15  0  0  0  0  0  0  0  0999 V2000
   -0.0539    3.0515    0.3240 C   0  0  0  0  0  0  0  0  0  0  0  0
   -0.0242    1.5621    0.2311 C   0  0  0  0  0  0  0  0  0  0  0  0
   -0.0605    0.7152   -0.8474 C   0  0  0  0  0  0  0  0  0  0  0  0
   -0.0040   -0.6297   -0.3584 C   0  0  0  0  0  0  0  0  0  0  0  0
   -0.0159   -1.8592   -1.1384 C   0  0  0  0  0  0  0  0  0  0  0  0
    0.0341   -2.9813   -0.6773 O   0  0  0  0  0  0  0  0  0  0  0  0
    0.0657   -0.5524    1.0230 C   0  0  0  0  0  0  0  0  0  0  0  0
    0.0527    0.7640    1.3613 N   0  0  0  0  0  0  0  0  0  0  0  0
    0.8470    3.4543    0.8034 H   0  0  0  0  0  0  0  0  0  0  0  0
   -0.1155    3.4830   -0.6772 H   0  0  0  0  0  0  0  0  0  0  0  0
   -0.9182    3.4135    0.8945 H   0  0  0  0  0  0  0  0  0  0  0  0
   -0.1210    1.0169   -1.8827 H   0  0  0  0  0  0  0  0  0  0  0  0
   -0.0766   -1.7000   -2.2395 H   0  0  0  0  0  0  0  0  0  0  0  0
    0.1220   -1.3376    1.7586 H   0  0  0  0  0  0  0  0  0  0  0  0
    0.0934    1.1147    2.3040 H   0  0  0  0  0  0  0  0  0  0  0  0
  1  9  1  0  0  0  0
  1 11  1  0  0  0  0
  2  1  1  0  0  0  0
  2  8  1  0  0  0  0
  3  4  1  0  0  0  0
  3  2  2  0  0  0  0
  4  7  2  0  0  0  0
  5  6  2  0  0  0  0
  5  4  1  0  0  0  0
  7  8  1  0  0  0  0
  7 14  1  0  0  0  0
  8 15  1  0  0  0  0
 10  1  1  0  0  0  0
 12  3  1  0  0  0  0
 13  5  1  0  0  0  0
M  END
