15
title
C -0.053852376 3.0515308 0.32402802
C -0.02421105 1.5621401 0.23111737
C -0.06045648 0.7152441 -0.8473867
C -0.004002686 -0.629673 -0.358381
C -0.015910542 -1.8592107 -1.1384231
O 0.034085587 -2.9813342 -0.67727584
C 0.065711215 -0.55238795 1.0229805
N 0.052738283 0.76399475 1.3613372
H 0.84704465 3.4542766 0.80336285
H -0.115518615 3.483039 -0.67719513
H -0.91823214 3.4134648 0.8944968
H -0.12102302 1.0168649 -1.8827016
H -0.07659806 -1.7000473 -2.23954
H 0.12196143 -1.3376179 1.7585944
H 0.09336029 1.1146685 2.303991
