title
 OpenBabel02282109573D

 14 14  0  0  0  0  0  0  0  0999 V2000
    0.3019    3.0229   -0.0195 C   0  0  0  0  0  0  0  0  0  0  0  0
    0.1593    1.5445   -0.0091 C   0  0  0  0  0  0  0  0  0  0  0  0
   -0.8866    0.6943   -0.1664 C   0  0  0  0  0  0  0  0  0  0  0  0
   -0.3595   -0.6409   -0.0459 C   0  0  0  0  0  0  0  0  0  0  0  0
   -1.0778   -1.9119   -0.1379 C   0  0  0  0  0  0  0  0  0  0  0  0
   -0.5652   -3.0039   -0.0255 O   0  0  0  0  0  0  0  0  0  0  0  0
    0.9811   -0.4868    0.1776 C   0  0  0  0  0  0  0  0  0  0  0  0
    1.3085    0.8189    0.2025 O   0  0  0  0  0  0  0  0  0  0  0  0
    0.9882    3.3539   -0.8068 H   0  0  0  0  0  0  0  0  0  0  0  0
   -0.6711    3.4861   -0.1958 H   0  0  0  0  0  0  0  0  0  0  0  0
    0.6923    3.3948    0.9342 H   0  0  0  0  0  0  0  0  0  0  0  0
   -1.9138    0.9718   -0.3469 H   0  0  0  0  0  0  0  0  0  0  0  0
   -2.1700   -1.8094   -0.3253 H   0  0  0  0  0  0  0  0  0  0  0  0
    1.7802   -1.1929    0.3295 H   0  0  0  0  0  0  0  0  0  0  0  0
  1  2  1  0  0  0  0
  1 11  1  0  0  0  0
  2  8  1  0  0  0  0
  3  4  1  0  0  0  0
  3  2  2  0  0  0  0
  4  7  2  0  0  0  0
  5  4  1  0  0  0  0
  5  6  2  0  0  0  0
  7  8  1  0  0  0  0
  7 14  1  0  0  0  0
  9  1  1  0  0  0  0
 10  1  1  0  0  0  0
 12  3  1  0  0  0  0
 13  5  1  0  0  0  0
M  END
