14
title
C 0.30185768 3.0228925 -0.01954025
C 0.15928498 1.5445064 -0.009103083
C -0.8865563 0.694297 -0.16643058
C -0.35946015 -0.6408957 -0.04593259
C -1.0777941 -1.911903 -0.13790216
O -0.56516147 -3.0039442 -0.025520468
C 0.98110926 -0.48681483 0.17760444
O 1.3085271 0.81885284 0.20254624
H 0.9882005 3.353908 -0.8067959
H -0.6711013 3.4861162 -0.1957853
H 0.69225645 3.3947814 0.9342477
H -1.9138203 0.9717638 -0.3469317
H -2.1700408 -1.8094286 -0.32533664
H 1.7801557 -1.1929263 0.32952031
