title
 OpenBabel02282109573D

 14 14  0  0  0  0  0  0  0  0999 V2000
    0.3441    2.9461    0.1261 N   0  0  0  0  0  0  0  0  0  0  0  0
    0.2100    1.5477    0.0354 C   0  0  0  0  0  0  0  0  0  0  0  0
   -0.8673    0.6982    0.0087 C   0  0  0  0  0  0  0  0  0  0  0  0
   -0.3562   -0.6418   -0.0145 C   0  0  0  0  0  0  0  0  0  0  0  0
   -1.1231   -1.8789   -0.0498 C   0  0  0  0  0  0  0  0  0  0  0  0
   -0.6494   -2.9960   -0.0963 O   0  0  0  0  0  0  0  0  0  0  0  0
    1.0256   -0.5532   -0.0099 C   0  0  0  0  0  0  0  0  0  0  0  0
    1.3519    0.7675    0.0290 N   0  0  0  0  0  0  0  0  0  0  0  0
    0.5758    3.3745   -0.7657 H   0  0  0  0  0  0  0  0  0  0  0  0
   -0.5145    3.3681    0.4571 H   0  0  0  0  0  0  0  0  0  0  0  0
   -1.9068    0.9896   -0.0094 H   0  0  0  0  0  0  0  0  0  0  0  0
   -2.2276   -1.7312   -0.0300 H   0  0  0  0  0  0  0  0  0  0  0  0
    1.7694   -1.3321   -0.0294 H   0  0  0  0  0  0  0  0  0  0  0  0
    2.2813    1.1457    0.1108 H   0  0  0  0  0  0  0  0  0  0  0  0
  1 10  1  0  0  0  0
  2  1  1  0  0  0  0
  3  2  2  0  0  0  0
  4  7  2  0  0  0  0
  4  3  1  0  0  0  0
  5 12  1  0  0  0  0
  5  4  1  0  0  0  0
  6  5  2  0  0  0  0
  7  8  1  0  0  0  0
  8  2  1  0  0  0  0
  8 14  1  0  0  0  0
  9  1  1  0  0  0  0
 11  3  1  0  0  0  0
 13  7  1  0  0  0  0
M  END
