title
 OpenBabel02282109573D

 12 12  0  0  0  0  0  0  0  0999 V2000
    0.7969    2.6765    0.4125 N   0  0  0  0  0  0  0  0  0  0  0  0
    0.4562    1.3783    0.1545 C   0  0  0  0  0  0  0  0  0  0  0  0
   -0.6482    0.7614    0.4264 N   0  0  0  0  0  0  0  0  0  0  0  0
   -0.4020   -0.5538    0.0181 C   0  0  0  0  0  0  0  0  0  0  0  0
   -1.4017   -1.6177    0.1448 C   0  0  0  0  0  0  0  0  0  0  0  0
   -1.2222   -2.7632   -0.2046 O   0  0  0  0  0  0  0  0  0  0  0  0
    0.8548   -0.6413   -0.4878 C   0  0  0  0  0  0  0  0  0  0  0  0
    1.4249    0.6008   -0.4059 O   0  0  0  0  0  0  0  0  0  0  0  0
    1.4899    3.0741   -0.2036 H   0  0  0  0  0  0  0  0  0  0  0  0
    0.0034    3.2750    0.5846 H   0  0  0  0  0  0  0  0  0  0  0  0
   -2.3575   -1.2804    0.5970 H   0  0  0  0  0  0  0  0  0  0  0  0
    1.4505   -1.4288   -0.9129 H   0  0  0  0  0  0  0  0  0  0  0  0
  1 10  1  0  0  0  0
  2  1  1  0  0  0  0
  2  3  2  0  0  0  0
  4  5  1  0  0  0  0
  4  3  1  0  0  0  0
  5 11  1  0  0  0  0
  6  5  2  0  0  0  0
  7  8  1  0  0  0  0
  7  4  2  0  0  0  0
  8  2  1  0  0  0  0
  9  1  1  0  0  0  0
 12  7  1  0  0  0  0
M  END
