13
title
O 0.043831423 2.8577144 0.43605274
C 0.022960639 1.5173005 0.24279322
C 0.04319047 0.71066314 -0.8625577
C -0.0006621046 -0.643228 -0.37594697
C 0.00082537776 -1.8630972 -1.1719015
O -0.037097234 -2.9905016 -0.72329515
C -0.04539026 -0.59018606 1.0038648
N -0.030466868 0.72846115 1.3658812
H 0.08230455 3.2910166 -0.42198202
H 0.08387038 1.0268939 -1.8934969
H 0.040941708 -1.6906064 -2.2720242
H -0.08571889 -1.3846178 1.7292871
H -0.05424556 1.09167 2.3041222
