14
title
C -0.052158713 3.0068936 0.34937227
C -0.017585313 1.5178798 0.26852223
C -0.098540984 0.714268 -0.82735944
N -0.016389579 -0.59557205 -0.3532999
C -0.05479881 -1.7691276 -1.1048748
O 0.021180516 -2.8710485 -0.6325995
C 0.11113351 -0.49848837 1.0214216
N 0.113692574 0.7388398 1.4199717
H 0.86491895 3.3927536 0.80687314
H -0.15873137 3.4551876 -0.64161634
H -0.887348 3.3431025 0.9728032
H -0.20435868 0.9254993 -1.8785478
H -0.16307275 -1.5620575 -2.1843867
H 0.19427149 -1.3824935 1.6335317
