14
title
N 0.29360637 2.9381769 0.14211604
C 0.2809535 1.5444609 0.03318601
C -0.80225545 0.7087667 0.014122128
N -0.32538572 -0.60814345 -0.014492673
C -1.1082718 -1.7497238 -0.0416621
O -0.67465687 -2.8736885 -0.07743917
C 1.0591983 -0.58615243 -0.020374564
C 1.4610841 0.71479386 0.011717661
H 1.0684161 3.3679147 -0.3451874
H -0.5730504 3.3748162 -0.14152686
H -1.8607603 0.910099 0.023993732
H -2.1856616 -1.5038935 -0.026255026
H 1.6050348 -1.5135802 -0.046167262
H 2.4823987 1.0656999 0.026702663
