title
 OpenBabel02282109573D

 12 12  0  0  0  0  0  0  0  0999 V2000
    0.0235    2.8302    0.2662 O   0  0  0  0  0  0  0  0  0  0  0  0
    0.0162    1.4869    0.2294 C   0  0  0  0  0  0  0  0  0  0  0  0
   -0.0350    0.6859   -0.8717 C   0  0  0  0  0  0  0  0  0  0  0  0
   -0.0181   -0.6175   -0.3551 N   0  0  0  0  0  0  0  0  0  0  0  0
   -0.0545   -1.8105   -1.0769 C   0  0  0  0  0  0  0  0  0  0  0  0
   -0.0368   -2.8998   -0.5703 O   0  0  0  0  0  0  0  0  0  0  0  0
    0.0420   -0.5019    1.0162 C   0  0  0  0  0  0  0  0  0  0  0  0
    0.0637    0.7473    1.3947 N   0  0  0  0  0  0  0  0  0  0  0  0
    0.0650    3.0796    1.1980 H   0  0  0  0  0  0  0  0  0  0  0  0
   -0.0799    0.8891   -1.9262 H   0  0  0  0  0  0  0  0  0  0  0  0
   -0.1007   -1.6304   -2.1653 H   0  0  0  0  0  0  0  0  0  0  0  0
    0.0658   -1.3737    1.6496 H   0  0  0  0  0  0  0  0  0  0  0  0
  1  9  1  0  0  0  0
  2  1  1  0  0  0  0
  2  8  2  0  0  0  0
  3  4  1  0  0  0  0
  3  2  1  0  0  0  0
  4  7  1  0  0  0  0
  5  6  2  0  0  0  0
  5  4  1  0  0  0  0
  7  8  1  0  0  0  0
  7 12  1  0  0  0  0
 10  3  1  0  0  0  0
 11  5  1  0  0  0  0
M  RAD  2   3   2   7   2
M  END
