15
title
C -0.02202639 2.8826246 -0.3460431
C -0.02531918 1.3979139 -0.4995543
C -0.06998779 0.6043681 -1.6309557
C -0.04840282 -0.7491337 -1.21904
C 0.009262606 -0.7647191 0.16561885
N 0.022069683 0.5567496 0.579161
C 0.05044749 -1.8312985 1.0826108
C 0.086307056 -2.7337432 1.8820728
H 0.88879454 3.245133 0.1465822
H -0.077773936 3.357469 -1.327979
H -0.8758183 3.2385516 0.24376519
H -0.11352458 0.97018355 -2.6457899
H -0.072008766 -1.6255201 -1.8472916
H 0.061215688 0.84182525 1.5430868
H 0.11740413 -3.5369725 2.5755236
