title
 OpenBabel02282109573D

 14 14  0  0  0  0  0  0  0  0999 V2000
   -0.0279    2.8905   -0.3795 C   0  0  0  0  0  0  0  0  0  0  0  0
   -0.0290    1.4040   -0.5155 C   0  0  0  0  0  0  0  0  0  0  0  0
   -0.0788    0.5991   -1.6411 C   0  0  0  0  0  0  0  0  0  0  0  0
   -0.0544   -0.7484   -1.2196 C   0  0  0  0  0  0  0  0  0  0  0  0
    0.0102   -0.7444    0.1637 C   0  0  0  0  0  0  0  0  0  0  0  0
    0.0247    0.5777    0.5707 N   0  0  0  0  0  0  0  0  0  0  0  0
    0.0572   -1.8063    1.0893 C   0  0  0  0  0  0  0  0  0  0  0  0
    0.0965   -2.6687    1.8643 N   0  0  0  0  0  0  0  0  0  0  0  0
    0.8788    3.2556    0.1173 H   0  0  0  0  0  0  0  0  0  0  0  0
   -0.0751    3.3533   -1.3672 H   0  0  0  0  0  0  0  0  0  0  0  0
   -0.8875    3.2495    0.1988 H   0  0  0  0  0  0  0  0  0  0  0  0
   -0.1277    0.9555   -2.6586 H   0  0  0  0  0  0  0  0  0  0  0  0
   -0.0802   -1.6317   -1.8377 H   0  0  0  0  0  0  0  0  0  0  0  0
    0.0685    0.8744    1.5314 H   0  0  0  0  0  0  0  0  0  0  0  0
  1  9  1  0  0  0  0
  1 11  1  0  0  0  0
  2  1  1  0  0  0  0
  2  6  1  0  0  0  0
  3  4  1  0  0  0  0
  3  2  2  0  0  0  0
  4  5  2  0  0  0  0
  5  6  1  0  0  0  0
  5  7  1  0  0  0  0
  6 14  1  0  0  0  0
  7  8  3  0  0  0  0
 10  1  1  0  0  0  0
 12  3  1  0  0  0  0
 13  4  1  0  0  0  0
M  END
