14
title
C -0.027880097 2.8905356 -0.3795309
C -0.028986994 1.404048 -0.5154573
C -0.078844264 0.5990976 -1.6411299
C -0.05440874 -0.74840075 -1.219645
C 0.010240721 -0.74441177 0.16374631
N 0.024718864 0.57768774 0.57074374
C 0.057237517 -1.8063293 1.0893213
N 0.09649862 -2.6687236 1.8643258
H 0.87882745 3.2556045 0.1172985
H -0.07506388 3.3533452 -1.3672061
H -0.8874951 3.2494748 0.19879939
H -0.12766792 0.95552367 -2.6585565
H -0.08020659 -1.6316721 -1.8377373
H 0.068548426 0.87439376 1.5313926
