title
 OpenBabel02282109573D

 13 13  0  0  0  0  0  0  0  0999 V2000
   -0.0200    2.9067   -0.3407 C   0  0  0  0  0  0  0  0  0  0  0  0
   -0.0259    1.4215   -0.4633 C   0  0  0  0  0  0  0  0  0  0  0  0
   -0.0848    0.5814   -1.5567 C   0  0  0  0  0  0  0  0  0  0  0  0
   -0.0637   -0.7307   -1.1804 N   0  0  0  0  0  0  0  0  0  0  0  0
    0.0078   -0.7095    0.1372 C   0  0  0  0  0  0  0  0  0  0  0  0
    0.0331    0.5773    0.6157 N   0  0  0  0  0  0  0  0  0  0  0  0
    0.0555   -1.8299    1.0049 C   0  0  0  0  0  0  0  0  0  0  0  0
    0.0964   -2.7150    1.7508 N   0  0  0  0  0  0  0  0  0  0  0  0
    0.8919    3.2736    0.1444 H   0  0  0  0  0  0  0  0  0  0  0  0
   -0.0738    3.3581   -1.3335 H   0  0  0  0  0  0  0  0  0  0  0  0
   -0.8748    3.2727    0.2397 H   0  0  0  0  0  0  0  0  0  0  0  0
   -0.1414    0.8663   -2.5967 H   0  0  0  0  0  0  0  0  0  0  0  0
    0.0855    0.8448    1.5857 H   0  0  0  0  0  0  0  0  0  0  0  0
  1  9  1  0  0  0  0
  1 11  1  0  0  0  0
  2  1  1  0  0  0  0
  2  6  1  0  0  0  0
  3  4  1  0  0  0  0
  3  2  2  0  0  0  0
  4  5  2  0  0  0  0
  5  6  1  0  0  0  0
  5  7  1  0  0  0  0
  6 13  1  0  0  0  0
  7  8  3  0  0  0  0
 10  1  1  0  0  0  0
 12  3  1  0  0  0  0
M  END
