13
title
C -0.020024596 2.9067104 -0.34067962
C -0.025886636 1.4215158 -0.4633333
C -0.08480106 0.5814148 -1.5567155
N -0.06366201 -0.7306558 -1.1804371
C 0.007812839 -0.70954216 0.13724077
N 0.03310791 0.5773157 0.61565757
C 0.05550212 -1.8299423 1.0049467
N 0.096449964 -2.714962 1.7507502
H 0.891879 3.2736 0.14439476
H -0.07379961 3.358091 -1.3334737
H -0.87483966 3.272707 0.2396785
H -0.14137857 0.86628616 -2.5966542
H 0.085545614 0.8447552 1.5857404
