12
title
C -0.3224046 2.8382323 0.062489614
C -0.50913024 1.3710567 -0.039494656
C -1.5686251 0.5502706 -0.28534654
N -1.1560484 -0.76598763 -0.26248768
C 0.11519548 -0.69343185 -0.0081206495
O 0.58442414 0.5747254 0.14104746
C 1.0411999 -1.7586317 0.1274402
N 1.8013648 -2.6236072 0.23915306
H 0.39571092 3.1992877 -0.681261
H -1.2761805 3.3427916 -0.10389297
H 0.05287728 3.1226015 1.051189
H -2.5953155 0.81914014 -0.47616628
