title
 OpenBabel02282109573D

 13 13  0  0  0  0  0  0  0  0999 V2000
   -0.0247    2.8671   -0.3814 C   0  0  0  0  0  0  0  0  0  0  0  0
   -0.0269    1.3784   -0.4658 C   0  0  0  0  0  0  0  0  0  0  0  0
   -0.0848    0.6675   -1.5798 N   0  0  0  0  0  0  0  0  0  0  0  0
   -0.0623   -0.6414   -1.1975 C   0  0  0  0  0  0  0  0  0  0  0  0
    0.0105   -0.7431    0.1764 C   0  0  0  0  0  0  0  0  0  0  0  0
    0.0324    0.5687    0.6262 N   0  0  0  0  0  0  0  0  0  0  0  0
    0.0581   -1.8530    1.0425 C   0  0  0  0  0  0  0  0  0  0  0  0
    0.0977   -2.7598    1.7640 N   0  0  0  0  0  0  0  0  0  0  0  0
    0.8869    3.2432    0.0958 H   0  0  0  0  0  0  0  0  0  0  0  0
   -0.0807    3.2724   -1.3918 H   0  0  0  0  0  0  0  0  0  0  0  0
   -0.8799    3.2403    0.1927 H   0  0  0  0  0  0  0  0  0  0  0  0
   -0.0988   -1.4501   -1.9107 H   0  0  0  0  0  0  0  0  0  0  0  0
    0.0832    0.8533    1.5910 H   0  0  0  0  0  0  0  0  0  0  0  0
  1  9  1  0  0  0  0
  1 11  1  0  0  0  0
  2  1  1  0  0  0  0
  2  6  1  0  0  0  0
  3  4  1  0  0  0  0
  3  2  2  0  0  0  0
  4  5  2  0  0  0  0
  5  6  1  0  0  0  0
  5  7  1  0  0  0  0
  6 13  1  0  0  0  0
  7  8  3  0  0  0  0
 10  1  1  0  0  0  0
 12  4  1  0  0  0  0
M  END
