13
title
N -0.33348587 2.68478 0.14417794
C -0.54610825 1.3254946 0.02841591
C -1.6764432 0.5526304 -0.014627969
C -1.2152576 -0.79556847 -0.045204654
C 0.15055498 -0.7641084 -0.022076922
O 0.5642321 0.56397086 0.024775676
C 1.1382445 -1.7559192 -0.040127486
C 1.9818493 -2.6179683 -0.056209337
H 0.5569004 2.9843745 -0.23014988
H -1.0956026 3.2466857 -0.20625338
H -2.69609 0.90180683 -0.020692838
H -1.8170375 -1.6898148 -0.0837584
H 2.7222147 -3.3783734 -0.07052739
