title
 OpenBabel02282109573D

 13 13  0  0  0  0  0  0  0  0999 V2000
   -0.3335    2.6848    0.1442 N   0  0  0  0  0  0  0  0  0  0  0  0
   -0.5461    1.3255    0.0284 C   0  0  0  0  0  0  0  0  0  0  0  0
   -1.6764    0.5526   -0.0146 C   0  0  0  0  0  0  0  0  0  0  0  0
   -1.2153   -0.7956   -0.0452 C   0  0  0  0  0  0  0  0  0  0  0  0
    0.1506   -0.7641   -0.0221 C   0  0  0  0  0  0  0  0  0  0  0  0
    0.5642    0.5640    0.0248 O   0  0  0  0  0  0  0  0  0  0  0  0
    1.1382   -1.7559   -0.0401 C   0  0  0  0  0  0  0  0  0  0  0  0
    1.9818   -2.6180   -0.0562 C   0  0  0  0  0  0  0  0  0  0  0  0
    0.5569    2.9844   -0.2301 H   0  0  0  0  0  0  0  0  0  0  0  0
   -1.0956    3.2467   -0.2063 H   0  0  0  0  0  0  0  0  0  0  0  0
   -2.6961    0.9018   -0.0207 H   0  0  0  0  0  0  0  0  0  0  0  0
   -1.8170   -1.6898   -0.0838 H   0  0  0  0  0  0  0  0  0  0  0  0
    2.7222   -3.3784   -0.0705 H   0  0  0  0  0  0  0  0  0  0  0  0
  2  1  1  0  0  0  0
  3  2  2  0  0  0  0
  4  5  2  0  0  0  0
  4  3  1  0  0  0  0
  5  6  1  0  0  0  0
  6  2  1  0  0  0  0
  7  5  1  0  0  0  0
  8  7  3  0  0  0  0
  9  1  1  0  0  0  0
 10  1  1  0  0  0  0
 11  3  1  0  0  0  0
 12  4  1  0  0  0  0
 13  8  1  0  0  0  0
M  END
