title
 OpenBabel02282109573D

 12 12  0  0  0  0  0  0  0  0999 V2000
   -0.3279    2.7860    0.1453 N   0  0  0  0  0  0  0  0  0  0  0  0
   -0.4651    1.4066    0.0248 C   0  0  0  0  0  0  0  0  0  0  0  0
   -1.5644    0.5687   -0.0356 C   0  0  0  0  0  0  0  0  0  0  0  0
   -1.1733   -0.7391   -0.0547 N   0  0  0  0  0  0  0  0  0  0  0  0
    0.1436   -0.7195   -0.0143 C   0  0  0  0  0  0  0  0  0  0  0  0
    0.6209    0.5759    0.0399 N   0  0  0  0  0  0  0  0  0  0  0  0
    1.0160   -1.8332   -0.0378 C   0  0  0  0  0  0  0  0  0  0  0  0
    1.7678   -2.7150   -0.0520 N   0  0  0  0  0  0  0  0  0  0  0  0
    0.2804    3.2026   -0.5505 H   0  0  0  0  0  0  0  0  0  0  0  0
   -1.2239    3.2548    0.1297 H   0  0  0  0  0  0  0  0  0  0  0  0
   -2.6058    0.8504   -0.0673 H   0  0  0  0  0  0  0  0  0  0  0  0
    1.5832    0.8535    0.1469 H   0  0  0  0  0  0  0  0  0  0  0  0
  2  6  1  0  0  0  0
  2  1  1  0  0  0  0
  3  2  2  0  0  0  0
  4  3  1  0  0  0  0
  4  5  2  0  0  0  0
  5  6  1  0  0  0  0
  6 12  1  0  0  0  0
  7  5  1  0  0  0  0
  8  7  3  0  0  0  0
  9  1  1  0  0  0  0
 10  1  1  0  0  0  0
 11  3  1  0  0  0  0
M  END
