11
title
N -0.309824 2.705372 0.1546178
C -0.5053404 1.3555388 0.033900887
C -1.6055063 0.5373522 -0.02046508
N -1.1801273 -0.7704483 -0.054385174
C 0.114494815 -0.7089933 -0.023046428
O 0.60095143 0.5805238 0.032993957
C 1.0567132 -1.7601463 -0.04524784
N 1.8367645 -2.6161754 -0.064270586
H 0.5771197 3.0397785 -0.19474845
H -1.0893247 3.2741861 -0.1394907
H -2.6489398 0.8048977 -0.035488818
