12
title
N -0.34528783 2.6517224 0.1259016
C -0.49864894 1.2992214 0.02559112
N -1.6150185 0.62667584 -0.011377365
C -1.1974142 -0.6902705 -0.0360139
C 0.1615127 -0.7623566 -0.018803226
O 0.6238275 0.5579417 0.022658393
C 1.0955635 -1.8027754 -0.037727613
C 1.8902295 -2.7091944 -0.05457702
H 0.5226856 3.0222003 -0.22981459
H -1.166558 3.1753957 -0.13515267
H -1.8982623 -1.5091987 -0.06892897
H 2.5882852 -3.5090396 -0.069028445
