11
title
N -0.3599724 2.6566813 0.12793975
C -0.50462025 1.3118985 0.031741794
N -1.6211095 0.63138396 -0.0023603083
C -1.2030721 -0.67889565 -0.031883266
C 0.15682478 -0.739793 -0.020425776
O 0.6201186 0.57379156 0.02237854
C 1.0921639 -1.7848366 -0.04651926
N 1.8504525 -2.662247 -0.06964606
H 0.5202195 3.046042 -0.16965163
H -1.1821809 3.1923032 -0.09984853
H -1.8996083 -1.5018388 -0.06355256
