title
 OpenBabel02282109573D

 12 12  0  0  0  0  0  0  0  0999 V2000
    0.0358    2.7076   -0.2494 O   0  0  0  0  0  0  0  0  0  0  0  0
    0.0194    1.3790   -0.4787 C   0  0  0  0  0  0  0  0  0  0  0  0
    0.0135    0.6198   -1.6353 C   0  0  0  0  0  0  0  0  0  0  0  0
   -0.0057   -0.7354   -1.2269 C   0  0  0  0  0  0  0  0  0  0  0  0
   -0.0104   -0.7674    0.1555 C   0  0  0  0  0  0  0  0  0  0  0  0
    0.0051    0.5539    0.5964 N   0  0  0  0  0  0  0  0  0  0  0  0
   -0.0273   -1.8490    1.0544 C   0  0  0  0  0  0  0  0  0  0  0  0
   -0.0412   -2.7325    1.8072 N   0  0  0  0  0  0  0  0  0  0  0  0
    0.0456    3.1694   -1.0938 H   0  0  0  0  0  0  0  0  0  0  0  0
    0.0218    0.9978   -2.6453 H   0  0  0  0  0  0  0  0  0  0  0  0
   -0.0149   -1.6039   -1.8658 H   0  0  0  0  0  0  0  0  0  0  0  0
    0.0056    0.8567    1.5559 H   0  0  0  0  0  0  0  0  0  0  0  0
  2  1  1  0  0  0  0
  2  6  1  0  0  0  0
  3  4  1  0  0  0  0
  3  2  2  0  0  0  0
  4  5  2  0  0  0  0
  5  6  1  0  0  0  0
  5  7  1  0  0  0  0
  6 12  1  0  0  0  0
  7  8  3  0  0  0  0
  9  1  1  0  0  0  0
 10  3  1  0  0  0  0
 11  4  1  0  0  0  0
M  END
