title
 OpenBabel02282109573D

 12 12  0  0  0  0  0  0  0  0999 V2000
    0.0312    2.7148   -0.1807 O   0  0  0  0  0  0  0  0  0  0  0  0
    0.0165    1.3857   -0.4180 C   0  0  0  0  0  0  0  0  0  0  0  0
    0.0091    0.5981   -1.5466 C   0  0  0  0  0  0  0  0  0  0  0  0
   -0.0065   -0.7259   -1.1891 N   0  0  0  0  0  0  0  0  0  0  0  0
   -0.0088   -0.7532    0.1299 C   0  0  0  0  0  0  0  0  0  0  0  0
    0.0051    0.5325    0.6443 N   0  0  0  0  0  0  0  0  0  0  0  0
   -0.0230   -1.8878    0.9679 C   0  0  0  0  0  0  0  0  0  0  0  0
   -0.0349   -2.8348    1.7121 C   0  0  0  0  0  0  0  0  0  0  0  0
    0.0391    3.1785   -1.0240 H   0  0  0  0  0  0  0  0  0  0  0  0
    0.0142    0.9112   -2.5795 H   0  0  0  0  0  0  0  0  0  0  0  0
    0.0067    0.7981    1.6154 H   0  0  0  0  0  0  0  0  0  0  0  0
   -0.0456   -3.6807    2.3539 H   0  0  0  0  0  0  0  0  0  0  0  0
  2  1  1  0  0  0  0
  2  6  1  0  0  0  0
  3  4  1  0  0  0  0
  3  2  2  0  0  0  0
  4  5  2  0  0  0  0
  5  6  1  0  0  0  0
  5  7  1  0  0  0  0
  6 11  1  0  0  0  0
  7  8  3  0  0  0  0
  8 12  1  0  0  0  0
  9  1  1  0  0  0  0
 10  3  1  0  0  0  0
M  END
