title
 OpenBabel02282109573D

 11 11  0  0  0  0  0  0  0  0999 V2000
    0.0281    2.6785   -0.2676 O   0  0  0  0  0  0  0  0  0  0  0  0
    0.0186    1.3532   -0.4232 C   0  0  0  0  0  0  0  0  0  0  0  0
    0.0300    0.6956   -1.5609 N   0  0  0  0  0  0  0  0  0  0  0  0
    0.0127   -0.6264   -1.2014 C   0  0  0  0  0  0  0  0  0  0  0  0
   -0.0094   -0.7643    0.1681 C   0  0  0  0  0  0  0  0  0  0  0  0
   -0.0051    0.5460    0.6591 N   0  0  0  0  0  0  0  0  0  0  0  0
   -0.0323   -1.8955    1.0034 C   0  0  0  0  0  0  0  0  0  0  0  0
   -0.0512   -2.8217    1.7015 N   0  0  0  0  0  0  0  0  0  0  0  0
    0.0450    3.0632   -1.1540 H   0  0  0  0  0  0  0  0  0  0  0  0
    0.0168   -1.4163   -1.9357 H   0  0  0  0  0  0  0  0  0  0  0  0
   -0.0172    0.8305    1.6246 H   0  0  0  0  0  0  0  0  0  0  0  0
  2  1  1  0  0  0  0
  2  6  1  0  0  0  0
  3  4  1  0  0  0  0
  3  2  2  0  0  0  0
  4  5  2  0  0  0  0
  5  6  1  0  0  0  0
  5  7  1  0  0  0  0
  6 11  1  0  0  0  0
  7  8  3  0  0  0  0
  9  1  1  0  0  0  0
 10  4  1  0  0  0  0
M  END
