11
title
O 0.24010302 2.5977974 0.01468556
C 0.45494643 1.2889007 0.0055435672
N 1.5902009 0.6601053 -0.0041249595
C 1.2097921 -0.6728044 -0.010520655
C -0.14741941 -0.7755893 -0.003934251
O -0.64384174 0.53202885 0.0064930976
C -1.0545632 -1.8409148 -0.0057552923
C -1.8244714 -2.7677517 -0.00746397
H 1.1074331 3.023874 0.013093448
H 1.932129 -1.4728519 -0.01923312
H -2.5028234 -3.5845723 -0.008987702
