title
 OpenBabel02282109573D

 11 11  0  0  0  0  0  0  0  0999 V2000
    0.2401    2.5978    0.0147 O   0  0  0  0  0  0  0  0  0  0  0  0
    0.4549    1.2889    0.0055 C   0  0  0  0  0  0  0  0  0  0  0  0
    1.5902    0.6601   -0.0041 N   0  0  0  0  0  0  0  0  0  0  0  0
    1.2098   -0.6728   -0.0105 C   0  0  0  0  0  0  0  0  0  0  0  0
   -0.1474   -0.7756   -0.0039 C   0  0  0  0  0  0  0  0  0  0  0  0
   -0.6438    0.5320    0.0065 O   0  0  0  0  0  0  0  0  0  0  0  0
   -1.0546   -1.8409   -0.0058 C   0  0  0  0  0  0  0  0  0  0  0  0
   -1.8245   -2.7678   -0.0075 C   0  0  0  0  0  0  0  0  0  0  0  0
    1.1074    3.0239    0.0131 H   0  0  0  0  0  0  0  0  0  0  0  0
    1.9321   -1.4729   -0.0192 H   0  0  0  0  0  0  0  0  0  0  0  0
   -2.5028   -3.5846   -0.0090 H   0  0  0  0  0  0  0  0  0  0  0  0
  2  6  1  0  0  0  0
  2  1  1  0  0  0  0
  3  2  2  0  0  0  0
  4  3  1  0  0  0  0
  4  5  2  0  0  0  0
  5  6  1  0  0  0  0
  7  5  1  0  0  0  0
  8  7  3  0  0  0  0
  9  1  1  0  0  0  0
 10  4  1  0  0  0  0
 11  8  1  0  0  0  0
M  END
