15
title
C -0.028702984 3.0107262 -0.25693834
C -0.02720672 1.5247908 -0.40370196
C -0.07756531 0.72851807 -1.5427309
C -0.050848894 -0.6174413 -1.1332568
C 0.015469955 -0.63301957 0.25395223
N 0.028258177 0.687831 0.66933435
C 0.06633907 -1.730333 1.193749
O 0.05871728 -2.9082136 0.9004614
H 0.87471455 3.3727415 0.24841355
H -0.07098105 3.482314 -1.2406818
H -0.89185673 3.3639493 0.3200198
H -0.12783602 1.1008751 -2.5548506
H -0.07563791 -1.50011 -1.752648
H 0.07259095 0.98259413 1.631198
H 0.11590716 -1.4074696 2.2632809
