title
 OpenBabel02282109573D

 15 15  0  0  0  0  0  0  0  0999 V2000
   -0.0287    3.0107   -0.2569 C   0  0  0  0  0  0  0  0  0  0  0  0
   -0.0272    1.5248   -0.4037 C   0  0  0  0  0  0  0  0  0  0  0  0
   -0.0776    0.7285   -1.5427 C   0  0  0  0  0  0  0  0  0  0  0  0
   -0.0508   -0.6174   -1.1333 C   0  0  0  0  0  0  0  0  0  0  0  0
    0.0155   -0.6330    0.2540 C   0  0  0  0  0  0  0  0  0  0  0  0
    0.0283    0.6878    0.6693 N   0  0  0  0  0  0  0  0  0  0  0  0
    0.0663   -1.7303    1.1937 C   0  0  0  0  0  0  0  0  0  0  0  0
    0.0587   -2.9082    0.9005 O   0  0  0  0  0  0  0  0  0  0  0  0
    0.8747    3.3727    0.2484 H   0  0  0  0  0  0  0  0  0  0  0  0
   -0.0710    3.4823   -1.2407 H   0  0  0  0  0  0  0  0  0  0  0  0
   -0.8919    3.3639    0.3200 H   0  0  0  0  0  0  0  0  0  0  0  0
   -0.1278    1.1009   -2.5549 H   0  0  0  0  0  0  0  0  0  0  0  0
   -0.0756   -1.5001   -1.7526 H   0  0  0  0  0  0  0  0  0  0  0  0
    0.0726    0.9826    1.6312 H   0  0  0  0  0  0  0  0  0  0  0  0
    0.1159   -1.4075    2.2633 H   0  0  0  0  0  0  0  0  0  0  0  0
  1  9  1  0  0  0  0
  1 11  1  0  0  0  0
  2  1  1  0  0  0  0
  2  6  1  0  0  0  0
  3  4  1  0  0  0  0
  3  2  2  0  0  0  0
  4  5  2  0  0  0  0
  5  6  1  0  0  0  0
  5  7  1  0  0  0  0
  6 14  1  0  0  0  0
  7 15  1  0  0  0  0
  8  7  2  0  0  0  0
 10  1  1  0  0  0  0
 12  3  1  0  0  0  0
 13  4  1  0  0  0  0
M  END
