14
title
C -0.5086276 2.752673 -0.00040367016
C -0.6803447 1.278328 -0.059144907
C -1.7756687 0.47172958 -0.2243119
C -1.2950324 -0.86394686 -0.19311433
C 0.06206185 -0.78554887 -0.010947151
O 0.43640298 0.52719605 0.0708095
C 1.0673062 -1.8253553 0.09723084
O 2.2551446 -1.6515155 0.25925323
H 0.16111094 3.103427 -0.79303384
H -1.4746538 3.2474046 -0.117343575
H -0.07229542 3.0609727 0.95584154
H -2.794219 0.8031431 -0.35145298
H -1.8679899 -1.7735147 -0.29139686
H 0.6274398 -2.8440905 0.013970105
