13
title
C -0.19776382 2.9519207 0.084414616
C -0.40434474 1.486412 -0.0102712875
C -1.4867444 0.6817635 -0.23035218
N -1.098057 -0.63640124 -0.21602663
C 0.1829777 -0.59655005 0.0077227405
O 0.6727323 0.673274 0.14374995
C 1.162252 -1.6844647 0.13379692
O 0.89455444 -2.856385 0.04018868
H 0.5070673 3.3039978 -0.6764828
H -1.1483508 3.4692261 -0.060184617
H 0.20447567 3.2343705 1.0632695
H -2.512065 0.9738924 -0.3963756
H 2.1920512 -1.3173459 0.32719675
