title
 OpenBabel02282109573D

 13 13  0  0  0  0  0  0  0  0999 V2000
   -0.1978    2.9519    0.0844 C   0  0  0  0  0  0  0  0  0  0  0  0
   -0.4043    1.4864   -0.0103 C   0  0  0  0  0  0  0  0  0  0  0  0
   -1.4867    0.6818   -0.2304 C   0  0  0  0  0  0  0  0  0  0  0  0
   -1.0981   -0.6364   -0.2160 N   0  0  0  0  0  0  0  0  0  0  0  0
    0.1830   -0.5966    0.0077 C   0  0  0  0  0  0  0  0  0  0  0  0
    0.6727    0.6733    0.1437 O   0  0  0  0  0  0  0  0  0  0  0  0
    1.1623   -1.6845    0.1338 C   0  0  0  0  0  0  0  0  0  0  0  0
    0.8946   -2.8564    0.0402 O   0  0  0  0  0  0  0  0  0  0  0  0
    0.5071    3.3040   -0.6765 H   0  0  0  0  0  0  0  0  0  0  0  0
   -1.1484    3.4692   -0.0602 H   0  0  0  0  0  0  0  0  0  0  0  0
    0.2045    3.2344    1.0633 H   0  0  0  0  0  0  0  0  0  0  0  0
   -2.5121    0.9739   -0.3964 H   0  0  0  0  0  0  0  0  0  0  0  0
    2.1921   -1.3173    0.3272 H   0  0  0  0  0  0  0  0  0  0  0  0
  1 11  1  0  0  0  0
  2  1  1  0  0  0  0
  2  6  1  0  0  0  0
  3  4  1  0  0  0  0
  3  2  2  0  0  0  0
  4  5  2  0  0  0  0
  5  7  1  0  0  0  0
  5  6  1  0  0  0  0
  7 13  1  0  0  0  0
  8  7  2  0  0  0  0
  9  1  1  0  0  0  0
 10  1  1  0  0  0  0
 12  3  1  0  0  0  0
M  END
