14
title
C -0.028790314 2.980203 -0.2578311
C -0.026733208 1.492078 -0.35064495
N -0.086933486 0.7908836 -1.4768217
C -0.060063913 -0.5174375 -1.1020848
C 0.018413678 -0.6385506 0.27310663
N 0.03819611 0.67289245 0.7294116
C 0.0735499 -1.7897172 1.151511
O 0.057951886 -2.9441688 0.7818086
H 0.88016886 3.3571305 0.22417806
H -0.08295581 3.3912284 -1.2661192
H -0.8867086 3.348937 0.31548595
H -0.09696377 -1.3221524 -1.8201374
H 0.09146561 0.95961565 1.6937149
H 0.13392085 -1.5354087 2.2370849
