title
 OpenBabel02282109573D

 14 14  0  0  0  0  0  0  0  0999 V2000
   -0.0288    2.9802   -0.2578 C   0  0  0  0  0  0  0  0  0  0  0  0
   -0.0267    1.4921   -0.3506 C   0  0  0  0  0  0  0  0  0  0  0  0
   -0.0869    0.7909   -1.4768 N   0  0  0  0  0  0  0  0  0  0  0  0
   -0.0601   -0.5174   -1.1021 C   0  0  0  0  0  0  0  0  0  0  0  0
    0.0184   -0.6386    0.2731 C   0  0  0  0  0  0  0  0  0  0  0  0
    0.0382    0.6729    0.7294 N   0  0  0  0  0  0  0  0  0  0  0  0
    0.0735   -1.7897    1.1515 C   0  0  0  0  0  0  0  0  0  0  0  0
    0.0580   -2.9442    0.7818 O   0  0  0  0  0  0  0  0  0  0  0  0
    0.8802    3.3571    0.2242 H   0  0  0  0  0  0  0  0  0  0  0  0
   -0.0830    3.3912   -1.2661 H   0  0  0  0  0  0  0  0  0  0  0  0
   -0.8867    3.3489    0.3155 H   0  0  0  0  0  0  0  0  0  0  0  0
   -0.0970   -1.3222   -1.8201 H   0  0  0  0  0  0  0  0  0  0  0  0
    0.0915    0.9596    1.6937 H   0  0  0  0  0  0  0  0  0  0  0  0
    0.1339   -1.5354    2.2371 H   0  0  0  0  0  0  0  0  0  0  0  0
  1  9  1  0  0  0  0
  1 11  1  0  0  0  0
  2  1  1  0  0  0  0
  2  6  1  0  0  0  0
  3  4  1  0  0  0  0
  3  2  2  0  0  0  0
  4  5  2  0  0  0  0
  5  6  1  0  0  0  0
  5  7  1  0  0  0  0
  6 13  1  0  0  0  0
  7 14  1  0  0  0  0
  8  7  2  0  0  0  0
 10  1  1  0  0  0  0
 12  4  1  0  0  0  0
M  END
