13
title
C -0.04707882 2.7434812 -0.46038273
C -0.06265929 1.2680074 -0.6170555
N -0.17324117 0.57736135 -1.7195773
C -0.13038829 -0.7344721 -1.3053832
C 0.0062280013 -0.78369576 0.052421074
O 0.049784012 0.5144278 0.49606004
C 0.10035675 -1.8882343 0.9904365
O 0.21965392 -1.7842454 2.1899679
H 0.8868506 3.0745687 0.0047151274
H -0.14664204 3.206666 -1.4415985
H -0.8689975 3.07383 0.18265401
H -0.199665 -1.556542 -2.001545
H 0.05049841 -2.876875 0.48460463
