title
 OpenBabel02282109573D

 12 12  0  0  0  0  0  0  0  0999 V2000
   -0.1807    2.8211    0.1447 N   0  0  0  0  0  0  0  0  0  0  0  0
   -0.3933    1.4727    0.0333 C   0  0  0  0  0  0  0  0  0  0  0  0
   -1.5138    0.6742   -0.0125 C   0  0  0  0  0  0  0  0  0  0  0  0
   -1.1173   -0.6359   -0.0421 N   0  0  0  0  0  0  0  0  0  0  0  0
    0.1822   -0.6129   -0.0163 C   0  0  0  0  0  0  0  0  0  0  0  0
    0.6905    0.6788    0.0318 O   0  0  0  0  0  0  0  0  0  0  0  0
    1.1671   -1.6883   -0.0335 C   0  0  0  0  0  0  0  0  0  0  0  0
    0.9013   -2.8667   -0.0758 O   0  0  0  0  0  0  0  0  0  0  0  0
    0.7101    3.1427   -0.2065 H   0  0  0  0  0  0  0  0  0  0  0  0
   -0.9534    3.3990   -0.1494 H   0  0  0  0  0  0  0  0  0  0  0  0
   -2.5507    0.9691   -0.0248 H   0  0  0  0  0  0  0  0  0  0  0  0
    2.2124   -1.3125   -0.0028 H   0  0  0  0  0  0  0  0  0  0  0  0
  2  1  1  0  0  0  0
  3  2  2  0  0  0  0
  4  5  2  0  0  0  0
  4  3  1  0  0  0  0
  5  6  1  0  0  0  0
  6  2  1  0  0  0  0
  7  5  1  0  0  0  0
  7 12  1  0  0  0  0
  8  7  2  0  0  0  0
  9  1  1  0  0  0  0
 10  1  1  0  0  0  0
 11  3  1  0  0  0  0
M  END
