title
 OpenBabel02282109573D

 12 12  0  0  0  0  0  0  0  0999 V2000
    0.0241    2.7878   -0.1442 O   0  0  0  0  0  0  0  0  0  0  0  0
    0.0179    1.4623   -0.3046 C   0  0  0  0  0  0  0  0  0  0  0  0
    0.0400    0.8155   -1.4536 N   0  0  0  0  0  0  0  0  0  0  0  0
    0.0219   -0.5057   -1.1027 C   0  0  0  0  0  0  0  0  0  0  0  0
   -0.0112   -0.6638    0.2681 C   0  0  0  0  0  0  0  0  0  0  0  0
   -0.0132    0.6464    0.7661 N   0  0  0  0  0  0  0  0  0  0  0  0
   -0.0395   -1.8392    1.1094 C   0  0  0  0  0  0  0  0  0  0  0  0
   -0.0384   -2.9821    0.7015 O   0  0  0  0  0  0  0  0  0  0  0  0
    0.0477    3.1730   -1.0303 H   0  0  0  0  0  0  0  0  0  0  0  0
    0.0332   -1.2924   -1.8408 H   0  0  0  0  0  0  0  0  0  0  0  0
   -0.0336    0.9338    1.7307 H   0  0  0  0  0  0  0  0  0  0  0  0
   -0.0633   -1.6194    2.2036 H   0  0  0  0  0  0  0  0  0  0  0  0
  2  1  1  0  0  0  0
  2  6  1  0  0  0  0
  3  4  1  0  0  0  0
  3  2  2  0  0  0  0
  4  5  2  0  0  0  0
  5  6  1  0  0  0  0
  5  7  1  0  0  0  0
  6 11  1  0  0  0  0
  7 12  1  0  0  0  0
  8  7  2  0  0  0  0
  9  1  1  0  0  0  0
 10  4  1  0  0  0  0
M  END
