title
 OpenBabel02282109573D

 14 14  0  0  0  0  0  0  0  0999 V2000
   -0.0265    2.9857   -0.4315 C   0  0  0  0  0  0  0  0  0  0  0  0
   -0.0232    1.4862   -0.4100 C   0  0  0  0  0  0  0  0  0  0  0  0
   -0.0734    0.6479   -1.5094 C   0  0  0  0  0  0  0  0  0  0  0  0
   -0.0492   -0.6456   -1.0791 N   0  0  0  0  0  0  0  0  0  0  0  0
    0.0157   -0.6665    0.2984 C   0  0  0  0  0  0  0  0  0  0  0  0
    0.0327    0.6491    0.7327 C   0  0  0  0  0  0  0  0  0  0  0  0
    0.0527   -1.8766    1.0223 C   0  0  0  0  0  0  0  0  0  0  0  0
    0.0826   -2.8786    1.6055 N   0  0  0  0  0  0  0  0  0  0  0  0
    0.8856    3.3976    0.0144 H   0  0  0  0  0  0  0  0  0  0  0  0
   -0.0944    3.3644   -1.4551 H   0  0  0  0  0  0  0  0  0  0  0  0
   -0.8733    3.3949    0.1303 H   0  0  0  0  0  0  0  0  0  0  0  0
   -0.1241    0.8820   -2.5613 H   0  0  0  0  0  0  0  0  0  0  0  0
   -0.0753   -1.4644   -1.6622 H   0  0  0  0  0  0  0  0  0  0  0  0
    0.0805    0.9601    1.7648 H   0  0  0  0  0  0  0  0  0  0  0  0
  1  2  1  0  0  0  0
  1  9  1  0  0  0  0
  1 11  1  0  0  0  0
  2  6  1  0  0  0  0
  3  4  1  0  0  0  0
  3  2  2  0  0  0  0
  4  5  1  0  0  0  0
  5  6  2  0  0  0  0
  5  7  1  0  0  0  0
  6 14  1  0  0  0  0
  7  8  3  0  0  0  0
 10  1  1  0  0  0  0
 12  3  1  0  0  0  0
 13  4  1  0  0  0  0
M  END
