14
title
C -0.02651809 2.9856575 -0.4314996
C -0.023221077 1.4862038 -0.40995052
C -0.073351175 0.647927 -1.5093808
N -0.04922125 -0.64560777 -1.0791146
C 0.015660744 -0.66653186 0.2983612
C 0.03272213 0.6491189 0.73266006
C 0.052664734 -1.8765504 1.0223012
N 0.08258226 -2.8786447 1.6054604
H 0.8855673 3.39761 0.014382813
H -0.09439404 3.3644264 -1.4550693
H -0.8733279 3.3948605 0.13028058
H -0.12406369 0.8819607 -2.5612519
H -0.075255714 -1.4644055 -1.6621829
H 0.08054909 0.96009356 1.7648413
