title
 OpenBabel02282109573D

 14 14  0  0  0  0  0  0  0  0999 V2000
   -0.0063    2.8805   -0.4277 C   0  0  0  0  0  0  0  0  0  0  0  0
   -0.0330    1.3869   -0.4673 C   0  0  0  0  0  0  0  0  0  0  0  0
   -0.1705    0.5624   -1.5613 C   0  0  0  0  0  0  0  0  0  0  0  0
   -0.1333   -0.7177   -1.0708 N   0  0  0  0  0  0  0  0  0  0  0  0
    0.0237   -0.6297    0.2884 C   0  0  0  0  0  0  0  0  0  0  0  0
    0.0866    0.6349    0.6739 N   0  0  0  0  0  0  0  0  0  0  0  0
    0.1006   -1.7783    1.1083 C   0  0  0  0  0  0  0  0  0  0  0  0
    0.1626   -2.7760    1.7791 C   0  0  0  0  0  0  0  0  0  0  0  0
    0.9344    3.2447   -0.0016 H   0  0  0  0  0  0  0  0  0  0  0  0
   -0.1146    3.3032   -1.4302 H   0  0  0  0  0  0  0  0  0  0  0  0
   -0.8156    3.2706    0.1984 H   0  0  0  0  0  0  0  0  0  0  0  0
   -0.2878    0.7679   -2.6126 H   0  0  0  0  0  0  0  0  0  0  0  0
   -0.2064   -1.5711   -1.5989 H   0  0  0  0  0  0  0  0  0  0  0  0
    0.2192   -3.6456    2.3859 H   0  0  0  0  0  0  0  0  0  0  0  0
  1  9  1  0  0  0  0
  1 11  1  0  0  0  0
  2  1  1  0  0  0  0
  2  6  1  0  0  0  0
  3  4  1  0  0  0  0
  3  2  2  0  0  0  0
  4  5  1  0  0  0  0
  5  6  2  0  0  0  0
  5  7  1  0  0  0  0
  7  8  3  0  0  0  0
  8 14  1  0  0  0  0
 10  1  1  0  0  0  0
 12  3  1  0  0  0  0
 13  4  1  0  0  0  0
M  END
