14
title
C -0.018956257 2.9715593 -0.45778447
C -0.019599069 1.4752319 -0.40455776
C -0.08217818 0.60940427 -1.4555792
O -0.061545055 -0.68075305 -1.040733
C 0.017186394 -0.6542147 0.32706052
C 0.045234572 0.6439325 0.7586825
C 0.053439815 -1.881803 1.0105582
C 0.08523378 -2.9270525 1.6086493
H 0.89060175 3.3879526 -0.010891894
H -0.0773352 3.3294518 -1.4892831
H -0.86928153 3.3923068 0.09022247
H -0.14313816 0.7562983 -2.5220969
H 0.10520341 0.9626632 1.7877126
H 0.11323837 -3.848443 2.1354873
