13
title
C -0.022736821 2.9848444 -0.45024914
C -0.02156292 1.4880085 -0.40504798
C -0.08238066 0.6244709 -1.4601142
O -0.06049385 -0.66616136 -1.0533035
C 0.016931161 -0.63856226 0.30913278
C 0.043643802 0.6532576 0.7545288
C 0.054602966 -1.8721634 0.9934694
N 0.0868051 -2.8725216 1.5772057
H 0.8863796 3.397408 -0.00012157361
H -0.080582105 3.3470125 -1.4798512
H -0.8745969 3.3990436 0.09938338
H -0.14284179 0.7756547 -2.5259874
H 0.102631494 0.9652262 1.7856336
