title
 OpenBabel02282109573D

 12 12  0  0  0  0  0  0  0  0999 V2000
   -0.0161    2.8984   -0.4221 C   0  0  0  0  0  0  0  0  0  0  0  0
   -0.0365    1.4083   -0.4569 C   0  0  0  0  0  0  0  0  0  0  0  0
   -0.1666    0.5614   -1.5147 C   0  0  0  0  0  0  0  0  0  0  0  0
   -0.1289   -0.7206   -1.0592 O   0  0  0  0  0  0  0  0  0  0  0  0
    0.0255   -0.5853    0.2809 C   0  0  0  0  0  0  0  0  0  0  0  0
    0.0866    0.6443    0.6938 N   0  0  0  0  0  0  0  0  0  0  0  0
    0.1012   -1.7693    1.0594 C   0  0  0  0  0  0  0  0  0  0  0  0
    0.1628   -2.7355    1.6924 N   0  0  0  0  0  0  0  0  0  0  0  0
    0.9239    3.2625    0.0037 H   0  0  0  0  0  0  0  0  0  0  0  0
   -0.1264    3.3156   -1.4258 H   0  0  0  0  0  0  0  0  0  0  0  0
   -0.8278    3.2816    0.2040 H   0  0  0  0  0  0  0  0  0  0  0  0
   -0.2864    0.6880   -2.5771 H   0  0  0  0  0  0  0  0  0  0  0  0
  1  9  1  0  0  0  0
  1 11  1  0  0  0  0
  2  1  1  0  0  0  0
  2  6  1  0  0  0  0
  3  4  1  0  0  0  0
  3  2  2  0  0  0  0
  4  5  1  0  0  0  0
  5  6  2  0  0  0  0
  5  7  1  0  0  0  0
  7  8  3  0  0  0  0
 10  1  1  0  0  0  0
 12  3  1  0  0  0  0
M  END
