13
title
N -0.4716859 2.8619525 0.14566353
C -0.43994626 1.4639254 0.034405347
C -1.5305815 0.6070451 0.00614886
N -1.0616925 -0.6791708 -0.022212164
C 0.3113731 -0.6688449 -0.018074263
C 0.7233274 0.65686077 0.019363994
C 1.0644948 -1.8601575 -0.050558608
N 1.6720073 -2.8480551 -0.07903489
H 0.32664633 3.3055701 -0.28878245
H -1.3201793 3.2707586 -0.22297168
H -2.5878456 0.8168009 0.011733187
H -1.6266543 -1.5097432 -0.0525772
H 1.7485068 0.99195385 0.03923541
