title
 OpenBabel02282109573D

 13 13  0  0  0  0  0  0  0  0999 V2000
   -0.4705    2.7526    0.1357 N   0  0  0  0  0  0  0  0  0  0  0  0
   -0.5000    1.3618    0.0324 C   0  0  0  0  0  0  0  0  0  0  0  0
   -1.5934    0.5172    0.0014 C   0  0  0  0  0  0  0  0  0  0  0  0
   -1.0583   -0.7517   -0.0328 N   0  0  0  0  0  0  0  0  0  0  0  0
    0.3005   -0.6319   -0.0169 C   0  0  0  0  0  0  0  0  0  0  0  0
    0.6615    0.6470    0.0192 N   0  0  0  0  0  0  0  0  0  0  0  0
    1.1549   -1.7553   -0.0411 C   0  0  0  0  0  0  0  0  0  0  0  0
    1.8584   -2.7326   -0.0637 C   0  0  0  0  0  0  0  0  0  0  0  0
    0.4395    3.1112   -0.1232 H   0  0  0  0  0  0  0  0  0  0  0  0
   -1.1980    3.2174   -0.3901 H   0  0  0  0  0  0  0  0  0  0  0  0
   -2.6551    0.6943    0.0097 H   0  0  0  0  0  0  0  0  0  0  0  0
   -1.5687   -1.6180   -0.0648 H   0  0  0  0  0  0  0  0  0  0  0  0
    2.4918   -3.5846   -0.0824 H   0  0  0  0  0  0  0  0  0  0  0  0
  2  1  1  0  0  0  0
  3 11  1  0  0  0  0
  3  2  2  0  0  0  0
  4  5  1  0  0  0  0
  4  3  1  0  0  0  0
  5  6  2  0  0  0  0
  6  2  1  0  0  0  0
  7  5  1  0  0  0  0
  8  7  3  0  0  0  0
  9  1  1  0  0  0  0
 10  1  1  0  0  0  0
 12  4  1  0  0  0  0
 13  8  1  0  0  0  0
M  END
