13
title
N -0.4705437 2.7526214 0.13573985
C -0.49997634 1.36178 0.032444224
C -1.5933737 0.51724404 0.00143039
N -1.058308 -0.75171274 -0.032759596
C 0.3005096 -0.6319197 -0.016913109
N 0.66148555 0.6470323 0.019199813
C 1.1549093 -1.7552965 -0.041099455
C 1.8584408 -2.732554 -0.06372555
H 0.4394687 3.1111677 -0.12320913
H -1.1979659 3.2174265 -0.39012292
H -2.6550617 0.69425017 0.009713564
H -1.568691 -1.6179645 -0.064849064
H 2.4918323 -3.5845523 -0.082373425
