12
title
N -0.45944455 2.7639866 0.13697039
C -0.49407014 1.3785918 0.03335567
C -1.5939515 0.536183 0.0049108956
N -1.0714477 -0.73363024 -0.029614512
C 0.28546497 -0.615918 -0.01652504
N 0.6609512 0.655958 0.017943691
C 1.1376777 -1.7470666 -0.043637786
N 1.7996545 -2.6974387 -0.06882087
H 0.44737753 3.1312158 -0.11885309
H -1.1991947 3.239472 -0.36011192
H -2.6544194 0.7204711 0.013943575
H -1.5904258 -1.5958542 -0.058888186
