13
title
N -0.47705817 2.8481438 0.14414798
C -0.43541032 1.4532702 0.030680334
C -1.4803754 0.5714948 -0.01128291
O -1.0265491 -0.7137834 -0.035522
C 0.3352683 -0.65607774 -0.01687146
C 0.74672854 0.64975214 0.0272893
C 1.0508772 -1.8656417 -0.04169408
C 1.675954 -2.895378 -0.063312724
H 0.2792122 3.3039691 -0.34926593
H -1.3584439 3.2455032 -0.15304689
H -2.5504246 0.69439876 -0.019260177
H 1.7695078 0.9911304 0.059559654
H 2.2258015 -3.8034534 -0.08127913
