title
 OpenBabel02282109573D

 12 12  0  0  0  0  0  0  0  0999 V2000
   -0.4752    2.8570    0.1490 N   0  0  0  0  0  0  0  0  0  0  0  0
   -0.4370    1.4667    0.0342 C   0  0  0  0  0  0  0  0  0  0  0  0
   -1.4856    0.5854   -0.0049 C   0  0  0  0  0  0  0  0  0  0  0  0
   -1.0385   -0.6998   -0.0320 O   0  0  0  0  0  0  0  0  0  0  0  0
    0.3180   -0.6404   -0.0176 C   0  0  0  0  0  0  0  0  0  0  0  0
    0.7421    0.6597    0.0261 C   0  0  0  0  0  0  0  0  0  0  0  0
    1.0354   -1.8552   -0.0480 C   0  0  0  0  0  0  0  0  0  0  0  0
    1.6463   -2.8396   -0.0737 N   0  0  0  0  0  0  0  0  0  0  0  0
    0.2919    3.3193   -0.3197 H   0  0  0  0  0  0  0  0  0  0  0  0
   -1.3526    3.2654   -0.1430 H   0  0  0  0  0  0  0  0  0  0  0  0
   -2.5553    0.7111   -0.0092 H   0  0  0  0  0  0  0  0  0  0  0  0
    1.7671    0.9945    0.0542 H   0  0  0  0  0  0  0  0  0  0  0  0
  2  1  1  0  0  0  0
  3  2  2  0  0  0  0
  4  5  1  0  0  0  0
  4  3  1  0  0  0  0
  5  6  2  0  0  0  0
  6  2  1  0  0  0  0
  6 12  1  0  0  0  0
  7  5  1  0  0  0  0
  8  7  3  0  0  0  0
  9  1  1  0  0  0  0
 10  1  1  0  0  0  0
 11  3  1  0  0  0  0
M  END
