12
title
N -0.44774714 2.7545333 0.14056523
C -0.48522693 1.3719503 0.033153143
C -1.5427903 0.50943464 -0.013188176
O -1.0388253 -0.7651871 -0.04544614
C 0.30384588 -0.6037882 -0.015231721
N 0.68612313 0.64466006 0.02985646
C 1.1125578 -1.7583854 -0.037798125
C 1.7996907 -2.7455122 -0.057751942
H 0.44111168 3.129029 -0.16230795
H -1.2193592 3.2311192 -0.3037901
H -2.6133132 0.60815746 -0.024090746
H 2.4106476 -3.614308 -0.07449682
