title
 OpenBabel02282109573D

 11 11  0  0  0  0  0  0  0  0999 V2000
   -0.4539    2.7622    0.1427 N   0  0  0  0  0  0  0  0  0  0  0  0
   -0.4904    1.3851    0.0352 C   0  0  0  0  0  0  0  0  0  0  0  0
   -1.5492    0.5185   -0.0075 C   0  0  0  0  0  0  0  0  0  0  0  0
   -1.0468   -0.7541   -0.0411 O   0  0  0  0  0  0  0  0  0  0  0  0
    0.2893   -0.5867   -0.0157 C   0  0  0  0  0  0  0  0  0  0  0  0
    0.6796    0.6557    0.0277 N   0  0  0  0  0  0  0  0  0  0  0  0
    1.1052   -1.7461   -0.0425 C   0  0  0  0  0  0  0  0  0  0  0  0
    1.7695   -2.6932   -0.0659 N   0  0  0  0  0  0  0  0  0  0  0  0
    0.4325    3.1493   -0.1496 H   0  0  0  0  0  0  0  0  0  0  0  0
   -1.2354    3.2469   -0.2732 H   0  0  0  0  0  0  0  0  0  0  0  0
   -2.6199    0.6158   -0.0155 H   0  0  0  0  0  0  0  0  0  0  0  0
  2  1  1  0  0  0  0
  3  2  2  0  0  0  0
  4  5  1  0  0  0  0
  4  3  1  0  0  0  0
  5  6  2  0  0  0  0
  6  2  1  0  0  0  0
  7  5  1  0  0  0  0
  8  7  3  0  0  0  0
  9  1  1  0  0  0  0
 10  1  1  0  0  0  0
 11  3  1  0  0  0  0
M  END
