title
 OpenBabel02282109573D

 12 12  0  0  0  0  0  0  0  0999 V2000
    0.0510    2.7977   -0.5256 O   0  0  0  0  0  0  0  0  0  0  0  0
    0.0184    1.4418   -0.4279 C   0  0  0  0  0  0  0  0  0  0  0  0
   -0.0599    0.6009   -1.5245 C   0  0  0  0  0  0  0  0  0  0  0  0
   -0.0718   -0.6836   -1.0558 N   0  0  0  0  0  0  0  0  0  0  0  0
   -0.0031   -0.6824    0.3160 C   0  0  0  0  0  0  0  0  0  0  0  0
    0.0548    0.6420    0.7355 C   0  0  0  0  0  0  0  0  0  0  0  0
    0.0013   -1.8776    1.0631 C   0  0  0  0  0  0  0  0  0  0  0  0
    0.0042   -2.8680    1.6669 N   0  0  0  0  0  0  0  0  0  0  0  0
    0.1060    3.1727    0.3582 H   0  0  0  0  0  0  0  0  0  0  0  0
   -0.1065    0.8277   -2.5759 H   0  0  0  0  0  0  0  0  0  0  0  0
   -0.1232   -1.5123   -1.6225 H   0  0  0  0  0  0  0  0  0  0  0  0
    0.1155    0.9719    1.7610 H   0  0  0  0  0  0  0  0  0  0  0  0
  1  2  1  0  0  0  0
  1  9  1  0  0  0  0
  2  6  1  0  0  0  0
  3  4  1  0  0  0  0
  3  2  2  0  0  0  0
  4  5  1  0  0  0  0
  5  6  2  0  0  0  0
  5  7  1  0  0  0  0
  6 12  1  0  0  0  0
  7  8  3  0  0  0  0
 10  3  1  0  0  0  0
 11  4  1  0  0  0  0
M  END
