title
 OpenBabel02282109573D

 11 11  0  0  1  0  0  0  0  0999 V2000
    0.0600    2.7030   -0.4851 O   0  0  0  0  0  0  0  0  0  0  0  0
    0.0161    1.3592   -0.4792 C   0  0  0  0  0  0  0  0  0  0  0  0
   -0.0774    0.5390   -1.5866 C   0  0  0  0  0  0  0  0  0  0  0  0
   -0.0878   -0.7331   -1.0697 N   0  0  0  0  0  0  0  0  0  0  0  0
   -0.0038   -0.6298    0.2864 C   0  0  2  0  0  0  0  0  0  0  0  0
    0.0612    0.6413    0.6685 N   0  0  0  0  0  0  0  0  0  0  0  0
    0.0092   -1.7672    1.1296 C   0  0  0  0  0  0  0  0  0  0  0  0
    0.0171   -2.7216    1.7859 N   0  0  0  0  0  0  0  0  0  0  0  0
    0.1245    2.9845    0.4362 H   0  0  0  0  0  0  0  0  0  0  0  0
   -0.1338    0.7432   -2.6408 H   0  0  0  0  0  0  0  0  0  0  0  0
   -0.1471   -1.5915   -1.5931 H   0  0  0  0  0  0  0  0  0  0  0  0
  1  2  1  0  0  0  0
  1  9  1  0  0  0  0
  2  6  2  0  0  0  0
  3  4  1  0  0  0  0
  3  2  1  0  0  0  0
  4  5  1  0  0  0  0
  5  6  1  0  0  0  0
  5  7  1  6  0  0  0
  7  8  3  0  0  0  0
 10  3  1  0  0  0  0
 11  4  1  0  0  0  0
M  RAD  2   3   2   5   2
M  END
