title
 OpenBabel02282109573D

 10 10  0  0  0  0  0  0  0  0999 V2000
    0.0680    2.7030   -0.4918 O   0  0  0  0  0  0  0  0  0  0  0  0
    0.0181    1.3651   -0.4769 C   0  0  0  0  0  0  0  0  0  0  0  0
   -0.0897    0.5175   -1.5418 C   0  0  0  0  0  0  0  0  0  0  0  0
   -0.1026   -0.7539   -1.0420 O   0  0  0  0  0  0  0  0  0  0  0  0
   -0.0021   -0.5999    0.2931 C   0  0  0  0  0  0  0  0  0  0  0  0
    0.0732    0.6422    0.6865 N   0  0  0  0  0  0  0  0  0  0  0  0
    0.0109   -1.7650    1.1002 C   0  0  0  0  0  0  0  0  0  0  0  0
    0.0214   -2.7162    1.7587 N   0  0  0  0  0  0  0  0  0  0  0  0
    0.1443    2.9991    0.4241 H   0  0  0  0  0  0  0  0  0  0  0  0
   -0.1609    0.6336   -2.6073 H   0  0  0  0  0  0  0  0  0  0  0  0
  1  2  1  0  0  0  0
  1  9  1  0  0  0  0
  2  6  2  0  0  0  0
  3  4  1  0  0  0  0
  3  2  1  0  0  0  0
  4  5  1  0  0  0  0
  5  6  2  0  0  0  0
  5  7  1  0  0  0  0
  7  8  3  0  0  0  0
 10  3  1  0  0  0  0
M  RAD  1   3   2
M  END
