15
title
C -0.026743898 3.0833673 -0.30905464
C -0.022865407 1.5838363 -0.28027588
C -0.10352142 0.74041814 -1.3822681
N -0.069923475 -0.54680854 -0.95333415
C 0.031790793 -0.57481176 0.41744596
C 0.085422724 -1.8348658 1.1205349
O 0.04565736 -2.9202085 0.5675952
C 0.062482946 0.74410385 0.85471725
H 0.8889123 3.4992073 0.12616129
H -0.10357141 3.4574254 -1.3339375
H -0.86866224 3.4972024 0.25721586
H -0.18173514 0.981389 -2.431643
H -0.110322766 -1.3872368 -1.5069847
H 0.16719048 -1.7467649 2.2240138
H 0.13861024 1.0577296 1.8859767
