title
 OpenBabel02282109573D

 14 14  0  0  0  0  0  0  0  0999 V2000
   -0.0293    3.0835   -0.3016 C   0  0  0  0  0  0  0  0  0  0  0  0
   -0.0218    1.5862   -0.2764 C   0  0  0  0  0  0  0  0  0  0  0  0
   -0.0795    0.7374   -1.3478 C   0  0  0  0  0  0  0  0  0  0  0  0
   -0.0529   -0.5560   -0.9669 O   0  0  0  0  0  0  0  0  0  0  0  0
    0.0247   -0.5619    0.3946 C   0  0  0  0  0  0  0  0  0  0  0  0
    0.0699   -1.8297    1.1032 C   0  0  0  0  0  0  0  0  0  0  0  0
    0.0449   -2.9270    0.5929 O   0  0  0  0  0  0  0  0  0  0  0  0
    0.0466    0.7273    0.8612 C   0  0  0  0  0  0  0  0  0  0  0  0
    0.8768    3.4956    0.1554 H   0  0  0  0  0  0  0  0  0  0  0  0
   -0.0864    3.4596   -1.3265 H   0  0  0  0  0  0  0  0  0  0  0  0
   -0.8840    3.4885    0.2509 H   0  0  0  0  0  0  0  0  0  0  0  0
   -0.1407    0.9131   -2.4106 H   0  0  0  0  0  0  0  0  0  0  0  0
    0.1323   -1.6940    2.2057 H   0  0  0  0  0  0  0  0  0  0  0  0
    0.1047    1.0221    1.8987 H   0  0  0  0  0  0  0  0  0  0  0  0
  1  2  1  0  0  0  0
  1  9  1  0  0  0  0
  1 11  1  0  0  0  0
  2  8  1  0  0  0  0
  3  4  1  0  0  0  0
  3  2  2  0  0  0  0
  4  5  1  0  0  0  0
  5  8  2  0  0  0  0
  5  6  1  0  0  0  0
  6 13  1  0  0  0  0
  7  6  2  0  0  0  0
  8 14  1  0  0  0  0
 10  1  1  0  0  0  0
 12  3  1  0  0  0  0
M  END
