title
 OpenBabel02282109573D

 13 13  0  0  0  0  0  0  0  0999 V2000
   -0.6167    2.7093    0.1313 N   0  0  0  0  0  0  0  0  0  0  0  0
   -0.6225    1.3238    0.0298 C   0  0  0  0  0  0  0  0  0  0  0  0
   -1.7166    0.4639    0.0040 C   0  0  0  0  0  0  0  0  0  0  0  0
   -1.1757   -0.7916   -0.0289 N   0  0  0  0  0  0  0  0  0  0  0  0
    0.1855   -0.6631   -0.0176 C   0  0  0  0  0  0  0  0  0  0  0  0
    1.0446   -1.8407   -0.0470 C   0  0  0  0  0  0  0  0  0  0  0  0
    2.2528   -1.8378   -0.0410 O   0  0  0  0  0  0  0  0  0  0  0  0
    0.5358    0.6193    0.0144 N   0  0  0  0  0  0  0  0  0  0  0  0
    0.2858    3.0932   -0.1152 H   0  0  0  0  0  0  0  0  0  0  0  0
   -1.3621    3.1716   -0.3696 H   0  0  0  0  0  0  0  0  0  0  0  0
   -2.7794    0.6371    0.0140 H   0  0  0  0  0  0  0  0  0  0  0  0
   -1.6892   -1.6576   -0.0568 H   0  0  0  0  0  0  0  0  0  0  0  0
    0.4660   -2.7961   -0.0777 H   0  0  0  0  0  0  0  0  0  0  0  0
  2  1  1  0  0  0  0
  3 11  1  0  0  0  0
  3  2  2  0  0  0  0
  4  5  1  0  0  0  0
  4  3  1  0  0  0  0
  5  8  2  0  0  0  0
  6  7  2  0  0  0  0
  6  5  1  0  0  0  0
  8  2  1  0  0  0  0
  9  1  1  0  0  0  0
 10  1  1  0  0  0  0
 12  4  1  0  0  0  0
 13  6  1  0  0  0  0
M  END
