title
 OpenBabel02282109573D

 13 13  0  0  0  0  0  0  0  0999 V2000
   -0.3287    2.9603    0.1474 N   0  0  0  0  0  0  0  0  0  0  0  0
   -0.3091    1.5675    0.0355 C   0  0  0  0  0  0  0  0  0  0  0  0
   -1.3750    0.7020    0.0021 C   0  0  0  0  0  0  0  0  0  0  0  0
   -0.9557   -0.5869   -0.0242 O   0  0  0  0  0  0  0  0  0  0  0  0
    0.4007   -0.5624   -0.0145 C   0  0  0  0  0  0  0  0  0  0  0  0
    1.1407   -1.8123   -0.0441 C   0  0  0  0  0  0  0  0  0  0  0  0
    0.6562   -2.9214   -0.0790 O   0  0  0  0  0  0  0  0  0  0  0  0
    0.8478    0.7353    0.0251 C   0  0  0  0  0  0  0  0  0  0  0  0
    0.4405    3.4091   -0.3313 H   0  0  0  0  0  0  0  0  0  0  0  0
   -1.2018    3.3769   -0.1464 H   0  0  0  0  0  0  0  0  0  0  0  0
   -2.4420    0.8544    0.0008 H   0  0  0  0  0  0  0  0  0  0  0  0
    2.2417   -1.6512   -0.0316 H   0  0  0  0  0  0  0  0  0  0  0  0
    1.8799    1.0521    0.0488 H   0  0  0  0  0  0  0  0  0  0  0  0
  2  1  1  0  0  0  0
  3  2  2  0  0  0  0
  4  5  1  0  0  0  0
  4  3  1  0  0  0  0
  5  8  2  0  0  0  0
  6 12  1  0  0  0  0
  6  5  1  0  0  0  0
  7  6  2  0  0  0  0
  8  2  1  0  0  0  0
  8 13  1  0  0  0  0
  9  1  1  0  0  0  0
 10  1  1  0  0  0  0
 11  3  1  0  0  0  0
M  END
