12
title
N -0.3192372 2.867542 0.14168498
C -0.37483475 1.4884338 0.03787318
C -1.4524082 0.63969517 0.00330001
O -0.97852397 -0.63740504 -0.029677762
C 0.36125 -0.50658906 -0.011640097
C 1.2178341 -1.6962093 -0.039020244
O 0.8140569 -2.8337197 -0.08203456
N 0.77375746 0.7345984 0.026893904
H 0.57119834 3.2387848 -0.15922382
H -1.0928552 3.3589287 -0.28161812
H -2.5208542 0.7646588 0.0006165997
H 2.2939813 -1.4336048 -0.01617239
