12
title
O 0.054615837 2.6477935 -0.64178604
C 0.01303866 1.3041027 -0.60891855
C -0.066379726 0.46531937 -1.7107817
N -0.08084805 -0.79220724 -1.1739845
C -0.012894043 -0.6761154 0.18682934
C -0.010391158 -1.8577614 1.0413915
O 0.0467736 -1.8564541 2.2476816
N 0.045450877 0.6060597 0.5435074
H 0.107855074 2.9439356 0.2759923
H -0.110536896 0.65743035 -2.7682836
H -0.13298452 -1.6552212 -1.6913115
H -0.06866217 -2.8106322 0.4615092
