title
 OpenBabel02282109573D

 11 11  0  0  0  0  0  0  0  0999 V2000
    0.0552    2.8081   -0.3536 O   0  0  0  0  0  0  0  0  0  0  0  0
    0.0172    1.4676   -0.3603 C   0  0  0  0  0  0  0  0  0  0  0  0
   -0.0778    0.6386   -1.4445 C   0  0  0  0  0  0  0  0  0  0  0  0
   -0.0824   -0.6384   -0.9745 O   0  0  0  0  0  0  0  0  0  0  0  0
    0.0095   -0.5208    0.3644 C   0  0  0  0  0  0  0  0  0  0  0  0
    0.0320   -1.7190    1.2101 C   0  0  0  0  0  0  0  0  0  0  0  0
   -0.0272   -2.8510    0.7950 O   0  0  0  0  0  0  0  0  0  0  0  0
    0.0719    0.7201    0.7816 N   0  0  0  0  0  0  0  0  0  0  0  0
    0.1241    3.0880    0.5676 H   0  0  0  0  0  0  0  0  0  0  0  0
   -0.1442    0.7813   -2.5077 H   0  0  0  0  0  0  0  0  0  0  0  0
    0.1103   -1.4681    2.2862 H   0  0  0  0  0  0  0  0  0  0  0  0
  1  9  1  0  0  0  0
  2  1  1  0  0  0  0
  2  8  2  0  0  0  0
  3  4  1  0  0  0  0
  3  2  1  0  0  0  0
  4  5  1  0  0  0  0
  5  8  2  0  0  0  0
  5  6  1  0  0  0  0
  6 11  1  0  0  0  0
  7  6  2  0  0  0  0
 10  3  1  0  0  0  0
M  RAD  1   3   2
M  END
