11
title
O 0.05520766 2.8080587 -0.3536134
C 0.017229203 1.4675794 -0.36032933
C -0.07777905 0.6385789 -1.4445435
O -0.08242945 -0.6384024 -0.9745346
C 0.009543453 -0.5207868 0.36437672
C 0.03199109 -1.7190083 1.2100749
O -0.027156284 -2.8510165 0.7950183
N 0.071924984 0.7200518 0.7816243
H 0.12406424 3.0879796 0.56762266
H -0.14418636 0.78131753 -2.5077078
H 0.110334754 -1.4680794 2.2862353
