title
 OpenBabel02282109573D

 15 15  0  0  0  0  0  0  0  0999 V2000
   -0.0172    2.8352   -0.4283 C   0  0  0  0  0  0  0  0  0  0  0  0
   -0.0564    1.3873   -0.4390 N   0  0  0  0  0  0  0  0  0  0  0  0
   -0.0248    0.5984   -1.5661 C   0  0  0  0  0  0  0  0  0  0  0  0
    0.0182   -0.7153   -1.1760 C   0  0  0  0  0  0  0  0  0  0  0  0
    0.0159   -0.7351    0.2559 C   0  0  0  0  0  0  0  0  0  0  0  0
   -0.0268    0.5879    0.6681 C   0  0  0  0  0  0  0  0  0  0  0  0
    0.0397   -1.8738    1.0936 C   0  0  0  0  0  0  0  0  0  0  0  0
    0.0618   -2.8528    1.7962 C   0  0  0  0  0  0  0  0  0  0  0  0
    1.0115    3.2131   -0.4423 H   0  0  0  0  0  0  0  0  0  0  0  0
   -0.5448    3.2230   -1.3028 H   0  0  0  0  0  0  0  0  0  0  0  0
   -0.5157    3.2089    0.4689 H   0  0  0  0  0  0  0  0  0  0  0  0
   -0.0370    1.0465   -2.5470 H   0  0  0  0  0  0  0  0  0  0  0  0
    0.0330   -1.5790   -1.8213 H   0  0  0  0  0  0  0  0  0  0  0  0
   -0.0389    1.0069    1.6612 H   0  0  0  0  0  0  0  0  0  0  0  0
    0.0805   -3.7129    2.4174 H   0  0  0  0  0  0  0  0  0  0  0  0
  1 11  1  0  0  0  0
  2  1  1  0  0  0  0
  2  6  1  0  0  0  0
  3  4  2  0  0  0  0
  3  2  1  0  0  0  0
  4  5  1  0  0  0  0
  5  6  2  0  0  0  0
  5  7  1  0  0  0  0
  6 14  1  0  0  0  0
  7  8  3  0  0  0  0
  8 15  1  0  0  0  0
  9  1  1  0  0  0  0
 10  1  1  0  0  0  0
 12  3  1  0  0  0  0
 13  4  1  0  0  0  0
M  END
