title
 OpenBabel02282109573D

 14 14  0  0  0  0  0  0  0  0999 V2000
   -0.0128    2.8514   -0.4000 C   0  0  0  0  0  0  0  0  0  0  0  0
   -0.0175    1.4018   -0.3865 N   0  0  0  0  0  0  0  0  0  0  0  0
   -0.0828    0.5726   -1.4718 C   0  0  0  0  0  0  0  0  0  0  0  0
   -0.0680   -0.6938   -1.1403 N   0  0  0  0  0  0  0  0  0  0  0  0
    0.0115   -0.7030    0.2430 C   0  0  0  0  0  0  0  0  0  0  0  0
    0.0433    0.5917    0.7184 C   0  0  0  0  0  0  0  0  0  0  0  0
    0.0512   -1.8954    1.0051 C   0  0  0  0  0  0  0  0  0  0  0  0
    0.0858   -2.9014    1.6655 C   0  0  0  0  0  0  0  0  0  0  0  0
    0.9058    3.2425    0.0475 H   0  0  0  0  0  0  0  0  0  0  0  0
   -0.0704    3.1949   -1.4344 H   0  0  0  0  0  0  0  0  0  0  0  0
   -0.8716    3.2493    0.1488 H   0  0  0  0  0  0  0  0  0  0  0  0
   -0.1393    0.9635   -2.4776 H   0  0  0  0  0  0  0  0  0  0  0  0
    0.1020    0.9878    1.7184 H   0  0  0  0  0  0  0  0  0  0  0  0
    0.1158   -3.7934    2.2401 H   0  0  0  0  0  0  0  0  0  0  0  0
  1  2  1  0  0  0  0
  1  9  1  0  0  0  0
  1 11  1  0  0  0  0
  2  6  1  0  0  0  0
  3  4  2  0  0  0  0
  3  2  1  0  0  0  0
  4  5  1  0  0  0  0
  5  6  2  0  0  0  0
  5  7  1  0  0  0  0
  6 13  1  0  0  0  0
  7  8  3  0  0  0  0
  8 14  1  0  0  0  0
 10  1  1  0  0  0  0
 12  3  1  0  0  0  0
M  END
