13
title
C -0.011115913 2.8628852 -0.4049789
N -0.024238432 1.4105667 -0.39158392
C -0.13830303 0.5824747 -1.4759458
N -0.11867106 -0.68400747 -1.1465238
C 0.015372706 -0.68648416 0.22731282
C 0.07515148 0.60391676 0.70843947
C 0.0783394 -1.880577 0.99384975
N 0.13211554 -2.838246 1.6420629
H 0.9276924 3.2447953 0.005277206
H -0.10826302 3.2056847 -1.4361986
H -0.84529984 3.2624028 0.17815454
H -0.23229116 0.9735166 -2.4784982
H 0.17645663 0.9956527 1.7066977
