title
 OpenBabel02282109573D

 13 13  0  0  0  0  0  0  0  0999 V2000
   -0.0111    2.8629   -0.4050 C   0  0  0  0  0  0  0  0  0  0  0  0
   -0.0242    1.4106   -0.3916 N   0  0  0  0  0  0  0  0  0  0  0  0
   -0.1383    0.5825   -1.4759 C   0  0  0  0  0  0  0  0  0  0  0  0
   -0.1187   -0.6840   -1.1465 N   0  0  0  0  0  0  0  0  0  0  0  0
    0.0154   -0.6865    0.2273 C   0  0  0  0  0  0  0  0  0  0  0  0
    0.0752    0.6039    0.7084 C   0  0  0  0  0  0  0  0  0  0  0  0
    0.0783   -1.8806    0.9938 C   0  0  0  0  0  0  0  0  0  0  0  0
    0.1321   -2.8382    1.6421 N   0  0  0  0  0  0  0  0  0  0  0  0
    0.9277    3.2448    0.0053 H   0  0  0  0  0  0  0  0  0  0  0  0
   -0.1083    3.2057   -1.4362 H   0  0  0  0  0  0  0  0  0  0  0  0
   -0.8453    3.2624    0.1782 H   0  0  0  0  0  0  0  0  0  0  0  0
   -0.2323    0.9735   -2.4785 H   0  0  0  0  0  0  0  0  0  0  0  0
    0.1765    0.9957    1.7067 H   0  0  0  0  0  0  0  0  0  0  0  0
  1  2  1  0  0  0  0
  1  9  1  0  0  0  0
  1 11  1  0  0  0  0
  2  6  1  0  0  0  0
  3  4  2  0  0  0  0
  3  2  1  0  0  0  0
  4  5  1  0  0  0  0
  5  6  2  0  0  0  0
  5  7  1  0  0  0  0
  6 13  1  0  0  0  0
  7  8  3  0  0  0  0
 10  1  1  0  0  0  0
 12  3  1  0  0  0  0
M  END
