title
 OpenBabel02282109573D

 15 15  0  0  0  0  0  0  0  0999 V2000
   -0.0360    2.9567   -0.3203 C   0  0  0  0  0  0  0  0  0  0  0  0
   -0.0474    1.5067   -0.3341 N   0  0  0  0  0  0  0  0  0  0  0  0
   -0.0107    0.7231   -1.4742 C   0  0  0  0  0  0  0  0  0  0  0  0
    0.0241   -0.5913   -1.0979 C   0  0  0  0  0  0  0  0  0  0  0  0
    0.0100   -0.6201    0.3315 C   0  0  0  0  0  0  0  0  0  0  0  0
    0.0276   -1.7885    1.1962 C   0  0  0  0  0  0  0  0  0  0  0  0
    0.0625   -2.9401    0.8153 O   0  0  0  0  0  0  0  0  0  0  0  0
   -0.0320    0.6991    0.7595 C   0  0  0  0  0  0  0  0  0  0  0  0
    0.9553    3.3497   -0.5699 H   0  0  0  0  0  0  0  0  0  0  0  0
   -0.7602    3.3458   -1.0410 H   0  0  0  0  0  0  0  0  0  0  0  0
   -0.3130    3.3098    0.6745 H   0  0  0  0  0  0  0  0  0  0  0  0
   -0.0149    1.1853   -2.4489 H   0  0  0  0  0  0  0  0  0  0  0  0
    0.0475   -1.4540   -1.7440 H   0  0  0  0  0  0  0  0  0  0  0  0
    0.0067   -1.5503    2.2855 H   0  0  0  0  0  0  0  0  0  0  0  0
   -0.0518    1.1116    1.7568 H   0  0  0  0  0  0  0  0  0  0  0  0
  1 11  1  0  0  0  0
  2  1  1  0  0  0  0
  2  8  1  0  0  0  0
  3  4  2  0  0  0  0
  3  2  1  0  0  0  0
  4  5  1  0  0  0  0
  5  8  2  0  0  0  0
  5  6  1  0  0  0  0
  6 14  1  0  0  0  0
  7  6  2  0  0  0  0
  8 15  1  0  0  0  0
  9  1  1  0  0  0  0
 10  1  1  0  0  0  0
 12  3  1  0  0  0  0
 13  4  1  0  0  0  0
M  END
