14
title
C -0.0029813414 2.9685 -0.262988
N -0.013951701 1.517006 -0.27167287
C -0.11829577 0.70298487 -1.3750025
N -0.09949706 -0.56534916 -1.0684187
C 0.023329455 -0.59973556 0.3069918
C 0.08647921 -1.8234732 1.1066409
O 0.040757596 -2.953323 0.68206614
C 0.07708033 0.68652636 0.80870014
H 0.9318331 3.347658 0.15949197
H -0.09275877 3.3271322 -1.2897223
H -0.84209657 3.3601484 0.31893674
H -0.2045006 1.1179752 -2.3695173
H 0.18558961 -1.6213098 2.1995409
H 0.1696829 1.0650668 1.814356
