title
 OpenBabel02282109573D

 15 15  0  0  0  0  0  0  0  0999 V2000
    1.6991    2.4742   -0.0203 C   0  0  0  0  0  0  0  0  0  0  0  0
    1.7245    1.0223    0.0229 N   0  0  0  0  0  0  0  0  0  0  0  0
    0.6207    0.4121    0.0507 C   0  0  0  0  0  0  0  0  0  0  0  0
    0.4494   -0.9700    0.0827 N   0  0  0  0  0  0  0  0  0  0  0  0
   -0.9144   -1.2555   -0.0229 C   0  0  0  0  0  0  0  0  0  0  0  0
   -1.3294   -2.5783   -0.1684 N   0  0  0  0  0  0  0  0  0  0  0  0
   -1.5661   -0.0849   -0.0029 C   0  0  0  0  0  0  0  0  0  0  0  0
   -0.6407    0.9628    0.0512 O   0  0  0  0  0  0  0  0  0  0  0  0
    2.6672    2.8366   -0.3778 H   0  0  0  0  0  0  0  0  0  0  0  0
    0.9154    2.8752   -0.6779 H   0  0  0  0  0  0  0  0  0  0  0  0
    1.5366    2.9044    0.9782 H   0  0  0  0  0  0  0  0  0  0  0  0
    1.1706   -1.5722   -0.2792 H   0  0  0  0  0  0  0  0  0  0  0  0
   -0.9994   -3.1731    0.5855 H   0  0  0  0  0  0  0  0  0  0  0  0
   -2.3364   -2.6527   -0.2347 H   0  0  0  0  0  0  0  0  0  0  0  0
   -2.6068    0.1821    0.0116 H   0  0  0  0  0  0  0  0  0  0  0  0
  1  2  1  0  0  0  0
  1 11  1  0  0  0  0
  2  3  2  0  0  0  0
  3  8  1  0  0  0  0
  3  4  1  0  0  0  0
  5  7  2  0  0  0  0
  5  4  1  0  0  0  0
  6  5  1  0  0  0  0
  6 13  1  0  0  0  0
  7 15  1  0  0  0  0
  7  8  1  0  0  0  0
  9  1  1  0  0  0  0
 10  1  1  0  0  0  0
 12  4  1  0  0  0  0
 14  6  1  0  0  0  0
M  END
