title
 OpenBabel02282109573D

 14 14  0  0  0  0  0  0  0  0999 V2000
    1.7388    2.4603    0.0251 C   0  0  0  0  0  0  0  0  0  0  0  0
    1.7474    1.0081   -0.0287 N   0  0  0  0  0  0  0  0  0  0  0  0
    0.6343    0.4143   -0.0282 C   0  0  0  0  0  0  0  0  0  0  0  0
    0.4354   -0.9579   -0.0727 N   0  0  0  0  0  0  0  0  0  0  0  0
   -0.9199   -1.2242    0.0079 C   0  0  0  0  0  0  0  0  0  0  0  0
   -1.3027   -2.5154    0.0116 O   0  0  0  0  0  0  0  0  0  0  0  0
   -1.5679   -0.0517    0.0516 C   0  0  0  0  0  0  0  0  0  0  0  0
   -0.6203    0.9803    0.0170 O   0  0  0  0  0  0  0  0  0  0  0  0
    2.7602    2.8155    0.1855 H   0  0  0  0  0  0  0  0  0  0  0  0
    1.3746    2.9058   -0.9119 H   0  0  0  0  0  0  0  0  0  0  0  0
    1.1085    2.8544    0.8350 H   0  0  0  0  0  0  0  0  0  0  0  0
    1.1789   -1.6268    0.0181 H   0  0  0  0  0  0  0  0  0  0  0  0
   -2.2624   -2.5595    0.0761 H   0  0  0  0  0  0  0  0  0  0  0  0
   -2.6045    0.2272    0.0796 H   0  0  0  0  0  0  0  0  0  0  0  0
  1  9  1  0  0  0  0
  1 11  1  0  0  0  0
  2  3  2  0  0  0  0
  2  1  1  0  0  0  0
  3  8  1  0  0  0  0
  4  3  1  0  0  0  0
  4  5  1  0  0  0  0
  4 12  1  0  0  0  0
  5  6  1  0  0  0  0
  5  7  2  0  0  0  0
  6 13  1  0  0  0  0
  7 14  1  0  0  0  0
  8  7  1  0  0  0  0
 10  1  1  0  0  0  0
M  END
