title
 OpenBabel02282109573D

 15 15  0  0  0  0  0  0  0  0999 V2000
    1.8644    2.1173   -0.0185 C   0  0  0  0  0  0  0  0  0  0  0  0
    1.9226    0.6675   -0.0051 N   0  0  0  0  0  0  0  0  0  0  0  0
    0.8422    0.0182    0.0391 C   0  0  0  0  0  0  0  0  0  0  0  0
    0.6895   -1.3542    0.0689 N   0  0  0  0  0  0  0  0  0  0  0  0
   -0.6836   -1.6594   -0.0955 C   0  0  0  0  0  0  0  0  0  0  0  0
   -1.3403   -0.4933   -0.0434 C   0  0  0  0  0  0  0  0  0  0  0  0
   -2.6738   -0.1256    0.0496 N   0  0  0  0  0  0  0  0  0  0  0  0
   -0.4452    0.5519    0.0624 O   0  0  0  0  0  0  0  0  0  0  0  0
    2.7886    2.5075   -0.4552 H   0  0  0  0  0  0  0  0  0  0  0  0
    1.0169    2.5167   -0.5930 H   0  0  0  0  0  0  0  0  0  0  0  0
    1.7889    2.5253    0.9996 H   0  0  0  0  0  0  0  0  0  0  0  0
    1.4351   -1.9302   -0.2835 H   0  0  0  0  0  0  0  0  0  0  0  0
   -1.0493   -2.6699   -0.1308 H   0  0  0  0  0  0  0  0  0  0  0  0
   -3.2990   -0.8920   -0.1621 H   0  0  0  0  0  0  0  0  0  0  0  0
   -2.8927    0.6756   -0.5324 H   0  0  0  0  0  0  0  0  0  0  0  0
  1  2  1  0  0  0  0
  1 11  1  0  0  0  0
  2  3  2  0  0  0  0
  3  8  1  0  0  0  0
  3  4  1  0  0  0  0
  5  6  2  0  0  0  0
  5  4  1  0  0  0  0
  6  7  1  0  0  0  0
  6  8  1  0  0  0  0
  9  1  1  0  0  0  0
 10  1  1  0  0  0  0
 12  4  1  0  0  0  0
 13  5  1  0  0  0  0
 14  7  1  0  0  0  0
 15  7  1  0  0  0  0
M  END
