title
 OpenBabel02282109573D

 14 14  0  0  0  0  0  0  0  0999 V2000
   -0.9793    2.0901   -1.6523 C   0  0  0  0  0  0  0  0  0  0  0  0
   -0.9962    0.6398   -1.6698 N   0  0  0  0  0  0  0  0  0  0  0  0
   -0.4716    0.0090   -0.7139 C   0  0  0  0  0  0  0  0  0  0  0  0
   -0.3971   -1.3596   -0.5480 N   0  0  0  0  0  0  0  0  0  0  0  0
    0.4404   -1.6475    0.5569 C   0  0  0  0  0  0  0  0  0  0  0  0
    0.7181   -0.4720    1.1228 C   0  0  0  0  0  0  0  0  0  0  0  0
    1.3479   -0.1489    2.2595 O   0  0  0  0  0  0  0  0  0  0  0  0
    0.1629    0.5654    0.4036 O   0  0  0  0  0  0  0  0  0  0  0  0
   -0.0765    2.5135   -1.1907 H   0  0  0  0  0  0  0  0  0  0  0  0
   -1.0442    2.4604   -2.6798 H   0  0  0  0  0  0  0  0  0  0  0  0
   -1.8456    2.4920   -1.1080 H   0  0  0  0  0  0  0  0  0  0  0  0
   -0.4843   -1.9534   -1.3550 H   0  0  0  0  0  0  0  0  0  0  0  0
    0.6748   -2.6476    0.8708 H   0  0  0  0  0  0  0  0  0  0  0  0
    1.6424    0.7676    2.1928 H   0  0  0  0  0  0  0  0  0  0  0  0
  1  9  1  0  0  0  0
  1 11  1  0  0  0  0
  2  1  1  0  0  0  0
  2  3  2  0  0  0  0
  3  4  1  0  0  0  0
  3  8  1  0  0  0  0
  4  5  1  0  0  0  0
  5 13  1  0  0  0  0
  5  6  2  0  0  0  0
  6  7  1  0  0  0  0
  8  6  1  0  0  0  0
 10  1  1  0  0  0  0
 12  4  1  0  0  0  0
 14  7  1  0  0  0  0
M  END
