14
title
C -0.9793275 2.0900881 -1.6523374
N -0.99621284 0.6398243 -1.6698322
C -0.4716075 0.0090131955 -0.71390444
N -0.39707923 -1.3595837 -0.5479778
C 0.440351 -1.647467 0.55690086
C 0.7181077 -0.4719803 1.1228396
O 1.3478503 -0.14889054 2.2594724
O 0.1629343 0.56544846 0.40360463
H -0.07645369 2.5135252 -1.1906992
H -1.0441662 2.4603775 -2.6797774
H -1.8455698 2.4920115 -1.1079801
H -0.4842503 -1.9534177 -1.3550395
H 0.6748172 -2.647641 0.870767
H 1.6424222 0.7676219 2.1927552
