15
title
C 1.735504 2.437636 -0.09635305
N 1.6516714 1.0003865 -0.27736506
C 0.5642389 0.41570568 -0.084382035
O -0.6471065 0.95127976 0.2976758
C -1.5381061 -0.10666961 0.3744312
C -0.91434467 -1.237537 0.057333928
C -1.329152 -2.6548734 -0.037007716
O 0.40782568 -0.93681914 -0.23515877
H 2.4980123 2.6638534 0.65780914
H 2.0676844 2.9018543 -1.0320529
H 0.79497933 2.911485 0.20986632
H -2.548947 0.120737605 0.6623956
H -1.1755079 -3.0420816 -1.0501472
H -0.7455827 -3.2808626 0.6467865
H -2.3867538 -2.753462 0.21706893
