title
 OpenBabel02282109573D

 14 14  0  0  0  0  0  0  0  0999 V2000
   -0.8878    2.4036   -1.5653 C   0  0  0  0  0  0  0  0  0  0  0  0
   -0.6993    0.9645   -1.5639 N   0  0  0  0  0  0  0  0  0  0  0  0
   -0.2492    0.4011   -0.5430 C   0  0  0  0  0  0  0  0  0  0  0  0
    0.1188    0.9761    0.6602 O   0  0  0  0  0  0  0  0  0  0  0  0
    0.5466   -0.0522    1.4762 C   0  0  0  0  0  0  0  0  0  0  0  0
    0.4586   -1.2080    0.8266 C   0  0  0  0  0  0  0  0  0  0  0  0
    0.7636   -2.5064    1.2042 N   0  0  0  0  0  0  0  0  0  0  0  0
   -0.0429   -0.9461   -0.4578 O   0  0  0  0  0  0  0  0  0  0  0  0
   -0.2128    2.8604   -2.2989 H   0  0  0  0  0  0  0  0  0  0  0  0
   -1.9092    2.6314   -1.8891 H   0  0  0  0  0  0  0  0  0  0  0  0
   -0.7162    2.8838   -0.5944 H   0  0  0  0  0  0  0  0  0  0  0  0
    0.8761    0.1984    2.4684 H   0  0  0  0  0  0  0  0  0  0  0  0
    1.4835   -2.9142    0.6148 H   0  0  0  0  0  0  0  0  0  0  0  0
   -0.0499   -3.1138    1.1657 H   0  0  0  0  0  0  0  0  0  0  0  0
  1  2  1  0  0  0  0
  1 11  1  0  0  0  0
  2  3  2  0  0  0  0
  3  8  1  0  0  0  0
  3  4  1  0  0  0  0
  4  5  1  0  0  0  0
  5 12  1  0  0  0  0
  6  7  1  0  0  0  0
  6  5  2  0  0  0  0
  8  6  1  0  0  0  0
  9  1  1  0  0  0  0
 10  1  1  0  0  0  0
 13  7  1  0  0  0  0
 14  7  1  0  0  0  0
M  END
