13
title
C -0.85587084 2.4211426 1.5771033
N -0.7000877 0.9773225 1.5516269
C -0.24231496 0.43151927 0.5258816
O 0.16300294 0.9905499 -0.65245384
C 0.57667834 -0.056485068 -1.4890327
C 0.42994842 -1.1918563 -0.8136756
O 0.6779991 -2.4657147 -1.1200345
O -0.07181969 -0.9377353 0.43917972
H -0.11483309 2.859874 2.2561224
H -0.75026405 2.9018645 0.59708804
H -1.8435682 2.6655426 1.9811966
H 0.92832345 0.18945365 -2.4719458
H 0.39115033 -3.0163991 -0.3814668
