title
 OpenBabel02282109573D

 16 16  0  0  0  0  0  0  0  0999 V2000
    0.0056    3.0466   -0.2997 C   0  0  0  0  0  0  0  0  0  0  0  0
   -0.0504    1.5542   -0.3449 C   0  0  0  0  0  0  0  0  0  0  0  0
   -0.2432    0.7372   -1.4302 C   0  0  0  0  0  0  0  0  0  0  0  0
   -0.2145   -0.5501   -0.9355 N   0  0  0  0  0  0  0  0  0  0  0  0
    0.0028   -0.4596    0.4024 C   0  0  0  0  0  0  0  0  0  0  0  0
    0.0619   -1.6763    1.2703 C   0  0  0  0  0  0  0  0  0  0  0  0
    0.2928   -2.7975    0.4236 O   0  0  0  0  0  0  0  0  0  0  0  0
    0.1052    0.7897    0.7958 N   0  0  0  0  0  0  0  0  0  0  0  0
    0.9639    3.3933    0.1023 H   0  0  0  0  0  0  0  0  0  0  0  0
   -0.1210    3.4756   -1.2976 H   0  0  0  0  0  0  0  0  0  0  0  0
   -0.7789    3.4530    0.3482 H   0  0  0  0  0  0  0  0  0  0  0  0
   -0.3857    0.9437   -2.4780 H   0  0  0  0  0  0  0  0  0  0  0  0
   -0.2781   -1.4167   -1.4425 H   0  0  0  0  0  0  0  0  0  0  0  0
    0.8598   -1.5464    2.0145 H   0  0  0  0  0  0  0  0  0  0  0  0
   -0.8844   -1.7891    1.8227 H   0  0  0  0  0  0  0  0  0  0  0  0
    0.1548   -3.5970    0.9383 H   0  0  0  0  0  0  0  0  0  0  0  0
  1  9  1  0  0  0  0
  1 11  1  0  0  0  0
  2  1  1  0  0  0  0
  2  8  1  0  0  0  0
  3  4  1  0  0  0  0
  3  2  2  0  0  0  0
  4  5  1  0  0  0  0
  5  8  2  0  0  0  0
  5  6  1  0  0  0  0
  6 15  1  0  0  0  0
  6 14  1  0  0  0  0
  7 16  1  0  0  0  0
  7  6  1  0  0  0  0
 10  1  1  0  0  0  0
 12  3  1  0  0  0  0
 13  4  1  0  0  0  0
M  END
