16
title
C 0.005613157 3.046579 -0.29968455
C -0.0503774 1.5541849 -0.34489137
C -0.24318843 0.7372137 -1.430199
N -0.21448086 -0.55008096 -0.9354994
C 0.00284245 -0.45959988 0.4024339
C 0.06188773 -1.6762818 1.2702973
O 0.29280126 -2.797484 0.42359838
N 0.10524699 0.789743 0.79584587
H 0.963879 3.3933182 0.102275506
H -0.12102827 3.4756107 -1.2975783
H -0.7789302 3.452971 0.34819743
H -0.3856511 0.94372183 -2.4779513
H -0.2780704 -1.416716 -1.442532
H 0.85981566 -1.5464233 2.0144825
H -0.8843944 -1.7891492 1.8226808
H 0.15477318 -3.5970407 0.9382882
