16
title
C -0.2191877 2.8544424 -0.43371528
C 0.082585946 1.3964252 -0.50926006
C 0.79169023 0.70251167 -1.4294313
O 0.7910157 -0.62165475 -1.0689996
C 0.06629468 -0.65900946 0.07586839
C -0.12831113 -1.992008 0.74312747
N -0.9172725 -1.9559693 1.9664713
N -0.3774503 0.49636152 0.4562244
H 0.17369756 3.2876577 0.49227706
H 0.2205406 3.3916504 -1.2779595
H -1.3000896 3.0305655 -0.43864048
H 1.3231684 0.9563649 -2.3303633
H -0.6003955 -2.6788046 0.029212702
H 0.8562076 -2.424921 0.96119404
H -0.48194867 -1.3067873 2.6166117
H -1.8217999 -1.5405362 1.7594186
