title
 OpenBabel02282109573D

 16 16  0  0  0  0  0  0  0  0999 V2000
   -0.2192    2.8544   -0.4337 C   0  0  0  0  0  0  0  0  0  0  0  0
    0.0826    1.3964   -0.5093 C   0  0  0  0  0  0  0  0  0  0  0  0
    0.7917    0.7025   -1.4294 C   0  0  0  0  0  0  0  0  0  0  0  0
    0.7910   -0.6217   -1.0690 O   0  0  0  0  0  0  0  0  0  0  0  0
    0.0663   -0.6590    0.0759 C   0  0  0  0  0  0  0  0  0  0  0  0
   -0.1283   -1.9920    0.7431 C   0  0  0  0  0  0  0  0  0  0  0  0
   -0.9173   -1.9560    1.9665 N   0  0  0  0  0  0  0  0  0  0  0  0
   -0.3775    0.4964    0.4562 N   0  0  0  0  0  0  0  0  0  0  0  0
    0.1737    3.2877    0.4923 H   0  0  0  0  0  0  0  0  0  0  0  0
    0.2205    3.3917   -1.2780 H   0  0  0  0  0  0  0  0  0  0  0  0
   -1.3001    3.0306   -0.4386 H   0  0  0  0  0  0  0  0  0  0  0  0
    1.3232    0.9564   -2.3304 H   0  0  0  0  0  0  0  0  0  0  0  0
   -0.6004   -2.6788    0.0292 H   0  0  0  0  0  0  0  0  0  0  0  0
    0.8562   -2.4249    0.9612 H   0  0  0  0  0  0  0  0  0  0  0  0
   -0.4819   -1.3068    2.6166 H   0  0  0  0  0  0  0  0  0  0  0  0
   -1.8218   -1.5405    1.7594 H   0  0  0  0  0  0  0  0  0  0  0  0
  1  9  1  0  0  0  0
  2  1  1  0  0  0  0
  2  8  1  0  0  0  0
  3  4  1  0  0  0  0
  3  2  2  0  0  0  0
  4  5  1  0  0  0  0
  5  8  2  0  0  0  0
  5  6  1  0  0  0  0
  6 14  1  0  0  0  0
  6  7  1  0  0  0  0
  7 15  1  0  0  0  0
 10  1  1  0  0  0  0
 11  1  1  0  0  0  0
 12  3  1  0  0  0  0
 13  6  1  0  0  0  0
 16  7  1  0  0  0  0
M  END
