15
title
C -0.23082599 2.846085 -0.40251023
C 0.00424597 1.3807014 -0.5387039
C 0.45389858 0.6652108 -1.5957735
O 0.50318164 -0.6615833 -1.2357538
C 0.07311577 -0.67370164 0.04096307
C -0.012884077 -1.9656588 0.7894932
O -0.48369703 -1.75461 2.0962548
N -0.23631456 0.490498 0.512347
H 0.3791092 3.265615 0.40435067
H 0.015582848 3.3708 -1.328878
H -1.2780105 3.0520291 -0.15744255
H 0.7625803 0.9017852 -2.5991237
H -0.67713475 -2.6550288 0.24511458
H 0.98118246 -2.4394288 0.80740905
H -0.6351369 -0.8034586 2.1856604
