title
 OpenBabel02282109573D

 19 19  0  0  0  0  0  0  0  0999 V2000
   -0.6789    2.0240    2.2169 C   0  0  0  0  0  0  0  0  0  0  0  0
   -0.9918    0.5515    1.8923 C   0  0  0  0  0  0  0  0  0  0  0  0
   -0.3236    0.0473    0.6519 C   0  0  0  0  0  0  0  0  0  0  0  0
   -0.8327   -0.2665   -0.5891 C   0  0  0  0  0  0  0  0  0  0  0  0
    0.2448   -0.6801   -1.4313 C   0  0  0  0  0  0  0  0  0  0  0  0
    0.1554   -1.1172   -2.8626 C   0  0  0  0  0  0  0  0  0  0  0  0
    1.3861   -0.6035   -0.6674 C   0  0  0  0  0  0  0  0  0  0  0  0
    1.0346   -0.1625    0.5876 N   0  0  0  0  0  0  0  0  0  0  0  0
    0.3940    2.1800    2.3724 H   0  0  0  0  0  0  0  0  0  0  0  0
   -0.9903    2.6756    1.3952 H   0  0  0  0  0  0  0  0  0  0  0  0
   -1.1974    2.3439    3.1265 H   0  0  0  0  0  0  0  0  0  0  0  0
   -0.7145   -0.0733    2.7531 H   0  0  0  0  0  0  0  0  0  0  0  0
   -2.0723    0.4295    1.7664 H   0  0  0  0  0  0  0  0  0  0  0  0
   -1.8755   -0.2075   -0.8668 H   0  0  0  0  0  0  0  0  0  0  0  0
   -0.2539   -0.3287   -3.5055 H   0  0  0  0  0  0  0  0  0  0  0  0
    1.1410   -1.3832   -3.2567 H   0  0  0  0  0  0  0  0  0  0  0  0
   -0.4939   -1.9929   -2.9815 H   0  0  0  0  0  0  0  0  0  0  0  0
    2.4121   -0.8297   -0.9124 H   0  0  0  0  0  0  0  0  0  0  0  0
    1.6740   -0.0256    1.3506 H   0  0  0  0  0  0  0  0  0  0  0  0
  1  9  1  0  0  0  0
  1 11  1  0  0  0  0
  2  1  1  0  0  0  0
  2 12  1  0  0  0  0
  3  2  1  0  0  0  0
  4  3  2  0  0  0  0
  5  7  2  0  0  0  0
  5  4  1  0  0  0  0
  6  5  1  0  0  0  0
  7  8  1  0  0  0  0
  8  3  1  0  0  0  0
  8 19  1  0  0  0  0
 10  1  1  0  0  0  0
 13  2  1  0  0  0  0
 14  4  1  0  0  0  0
 15  6  1  0  0  0  0
 16  6  1  0  0  0  0
 17  6  1  0  0  0  0
 18  7  1  0  0  0  0
M  END
