title
 OpenBabel02282109573D

 18 18  0  0  0  0  0  0  0  0999 V2000
    2.2017    2.0529    0.4509 C   0  0  0  0  0  0  0  0  0  0  0  0
    2.1139    0.5544    0.1127 C   0  0  0  0  0  0  0  0  0  0  0  0
    0.7153    0.0504    0.0103 C   0  0  0  0  0  0  0  0  0  0  0  0
   -0.0250   -0.4685   -1.0060 C   0  0  0  0  0  0  0  0  0  0  0  0
   -1.3310   -0.7617   -0.4750 C   0  0  0  0  0  0  0  0  0  0  0  0
   -2.5001   -1.3480   -1.2031 C   0  0  0  0  0  0  0  0  0  0  0  0
   -1.2727   -0.3910    0.8306 C   0  0  0  0  0  0  0  0  0  0  0  0
   -0.0415    0.1036    1.1454 O   0  0  0  0  0  0  0  0  0  0  0  0
    3.2453    2.3711    0.5339 H   0  0  0  0  0  0  0  0  0  0  0  0
    1.7192    2.6567   -0.3237 H   0  0  0  0  0  0  0  0  0  0  0  0
    1.7033    2.2642    1.4009 H   0  0  0  0  0  0  0  0  0  0  0  0
    2.6133    0.3532   -0.8404 H   0  0  0  0  0  0  0  0  0  0  0  0
    2.6546   -0.0193    0.8770 H   0  0  0  0  0  0  0  0  0  0  0  0
    0.3129   -0.6296   -2.0189 H   0  0  0  0  0  0  0  0  0  0  0  0
   -2.2638   -2.3361   -1.6143 H   0  0  0  0  0  0  0  0  0  0  0  0
   -3.3624   -1.4616   -0.5400 H   0  0  0  0  0  0  0  0  0  0  0  0
   -2.8083   -0.7165   -2.0444 H   0  0  0  0  0  0  0  0  0  0  0  0
   -1.9889   -0.4148    1.6360 H   0  0  0  0  0  0  0  0  0  0  0  0
  1  9  1  0  0  0  0
  1 11  1  0  0  0  0
  2  1  1  0  0  0  0
  2 13  1  0  0  0  0
  3  2  1  0  0  0  0
  3  8  1  0  0  0  0
  4  5  1  0  0  0  0
  4  3  2  0  0  0  0
  5  7  2  0  0  0  0
  6 16  1  0  0  0  0
  6  5  1  0  0  0  0
  7  8  1  0  0  0  0
  7 18  1  0  0  0  0
 10  1  1  0  0  0  0
 12  2  1  0  0  0  0
 14  4  1  0  0  0  0
 15  6  1  0  0  0  0
 17  6  1  0  0  0  0
M  END
