18
title
C -1.5950038 2.0137095 -1.6995461
C -1.1797981 0.5337638 -1.7956852
C -0.42639878 0.03729562 -0.6017422
C 0.91361666 -0.25026557 -0.43807095
C 1.116862 -0.6613632 0.91248566
N 2.3646595 -0.97189564 1.4934803
C -0.108998396 -0.61418945 1.539045
N -1.0346053 -0.1809329 0.60566574
H -0.7160944 2.6545506 -1.5832016
H -2.1358194 2.3288066 -2.597929
H -2.247002 2.1894777 -0.83744305
H -2.07557 -0.081440054 -1.9603661
H -0.5486668 0.3908288 -2.678648
H 1.6719894 -0.16764875 -1.2030462
H 2.9646845 -1.4723487 0.84915835
H 2.2668006 -1.529026 2.3332775
H -0.39751038 -0.8452466 2.5515287
H -2.0162914 -0.06655177 0.783758
