title
 OpenBabel02282109573D

 18 18  0  0  0  0  0  0  0  0999 V2000
   -1.5950    2.0137   -1.6995 C   0  0  0  0  0  0  0  0  0  0  0  0
   -1.1798    0.5338   -1.7957 C   0  0  0  0  0  0  0  0  0  0  0  0
   -0.4264    0.0373   -0.6017 C   0  0  0  0  0  0  0  0  0  0  0  0
    0.9136   -0.2503   -0.4381 C   0  0  0  0  0  0  0  0  0  0  0  0
    1.1169   -0.6614    0.9125 C   0  0  0  0  0  0  0  0  0  0  0  0
    2.3647   -0.9719    1.4935 N   0  0  0  0  0  0  0  0  0  0  0  0
   -0.1090   -0.6142    1.5390 C   0  0  0  0  0  0  0  0  0  0  0  0
   -1.0346   -0.1809    0.6057 N   0  0  0  0  0  0  0  0  0  0  0  0
   -0.7161    2.6546   -1.5832 H   0  0  0  0  0  0  0  0  0  0  0  0
   -2.1358    2.3288   -2.5979 H   0  0  0  0  0  0  0  0  0  0  0  0
   -2.2470    2.1895   -0.8374 H   0  0  0  0  0  0  0  0  0  0  0  0
   -2.0756   -0.0814   -1.9604 H   0  0  0  0  0  0  0  0  0  0  0  0
   -0.5487    0.3908   -2.6786 H   0  0  0  0  0  0  0  0  0  0  0  0
    1.6720   -0.1676   -1.2030 H   0  0  0  0  0  0  0  0  0  0  0  0
    2.9647   -1.4723    0.8492 H   0  0  0  0  0  0  0  0  0  0  0  0
    2.2668   -1.5290    2.3333 H   0  0  0  0  0  0  0  0  0  0  0  0
   -0.3975   -0.8452    2.5515 H   0  0  0  0  0  0  0  0  0  0  0  0
   -2.0163   -0.0666    0.7838 H   0  0  0  0  0  0  0  0  0  0  0  0
  1  9  1  0  0  0  0
  1 11  1  0  0  0  0
  2  1  1  0  0  0  0
  2  3  1  0  0  0  0
  3  4  2  0  0  0  0
  3  8  1  0  0  0  0
  4  5  1  0  0  0  0
  5  6  1  0  0  0  0
  5  7  2  0  0  0  0
  6 16  1  0  0  0  0
  7 17  1  0  0  0  0
  8 18  1  0  0  0  0
  8  7  1  0  0  0  0
 10  1  1  0  0  0  0
 12  2  1  0  0  0  0
 13  2  1  0  0  0  0
 14  4  1  0  0  0  0
 15  6  1  0  0  0  0
M  END
