17
title
C -0.76961297 2.0856261 -2.0923243
C -0.9835103 0.5779046 -1.8726611
C -0.34666213 0.064537056 -0.6267731
C -0.84367794 -0.4918428 0.512249
C 0.28106794 -0.7727749 1.3627663
N 0.22045429 -1.42381 2.6044235
C 1.3794378 -0.35981524 0.67044425
O 1.0065461 0.14783949 -0.5494431
H 0.29702076 2.320615 -2.1417155
H -1.2356513 2.4115505 -3.0272167
H -1.2040851 2.6652544 -1.2720736
H -2.0534565 0.3519404 -1.8218974
H -0.5880052 0.028651781 -2.7371745
H -1.8826674 -0.6923711 0.7263069
H -0.5803479 -1.1364331 3.1525922
H 1.0593445 -1.2955575 3.155592
H 2.4358323 -0.36568898 0.878757
