title
 OpenBabel02282109573D

 17 17  0  0  0  0  0  0  0  0999 V2000
   -0.7653    2.0166    2.2184 C   0  0  0  0  0  0  0  0  0  0  0  0
   -1.0289    0.5325    1.9026 C   0  0  0  0  0  0  0  0  0  0  0  0
   -0.3326    0.0413    0.6723 C   0  0  0  0  0  0  0  0  0  0  0  0
   -0.8235   -0.2465   -0.5873 C   0  0  0  0  0  0  0  0  0  0  0  0
    0.2787   -0.6444   -1.3950 C   0  0  0  0  0  0  0  0  0  0  0  0
    0.2634   -1.0237   -2.7082 O   0  0  0  0  0  0  0  0  0  0  0  0
    1.4137   -0.5931   -0.6216 C   0  0  0  0  0  0  0  0  0  0  0  0
    1.0192   -0.1718    0.6348 N   0  0  0  0  0  0  0  0  0  0  0  0
    0.3012    2.2065    2.3784 H   0  0  0  0  0  0  0  0  0  0  0  0
   -1.0920    2.6523    1.3902 H   0  0  0  0  0  0  0  0  0  0  0  0
   -1.2997    2.3259    3.1225 H   0  0  0  0  0  0  0  0  0  0  0  0
   -0.7376   -0.0777    2.7688 H   0  0  0  0  0  0  0  0  0  0  0  0
   -2.1041    0.3749    1.7705 H   0  0  0  0  0  0  0  0  0  0  0  0
   -1.8585   -0.1791   -0.8908 H   0  0  0  0  0  0  0  0  0  0  0  0
   -0.6434   -0.9779   -3.0230 H   0  0  0  0  0  0  0  0  0  0  0  0
    2.4390   -0.8225   -0.8552 H   0  0  0  0  0  0  0  0  0  0  0  0
    1.6398   -0.0505    1.4153 H   0  0  0  0  0  0  0  0  0  0  0  0
  1  9  1  0  0  0  0
  1 11  1  0  0  0  0
  2  1  1  0  0  0  0
  2 12  1  0  0  0  0
  3  2  1  0  0  0  0
  4  3  2  0  0  0  0
  5  7  2  0  0  0  0
  5  4  1  0  0  0  0
  6  5  1  0  0  0  0
  7  8  1  0  0  0  0
  8  3  1  0  0  0  0
  8 17  1  0  0  0  0
 10  1  1  0  0  0  0
 13  2  1  0  0  0  0
 14  4  1  0  0  0  0
 15  6  1  0  0  0  0
 16  7  1  0  0  0  0
M  END
