title
 OpenBabel02282109573D

 16 16  0  0  0  0  0  0  0  0999 V2000
    2.1637    2.1393    0.3652 C   0  0  0  0  0  0  0  0  0  0  0  0
    2.1141    0.6292    0.0746 C   0  0  0  0  0  0  0  0  0  0  0  0
    0.7286    0.0841    0.0101 C   0  0  0  0  0  0  0  0  0  0  0  0
   -0.0020   -0.4910   -0.9867 C   0  0  0  0  0  0  0  0  0  0  0  0
   -1.2841   -0.7960   -0.4194 C   0  0  0  0  0  0  0  0  0  0  0  0
   -2.3539   -1.3801   -1.0246 O   0  0  0  0  0  0  0  0  0  0  0  0
   -1.2442   -0.3861    0.8766 C   0  0  0  0  0  0  0  0  0  0  0  0
   -0.0131    0.1538    1.1451 O   0  0  0  0  0  0  0  0  0  0  0  0
    3.1991    2.4882    0.4240 H   0  0  0  0  0  0  0  0  0  0  0  0
    1.6547    2.7054   -0.4208 H   0  0  0  0  0  0  0  0  0  0  0  0
    1.6720    2.3657    1.3150 H   0  0  0  0  0  0  0  0  0  0  0  0
    2.6064    0.4117   -0.8788 H   0  0  0  0  0  0  0  0  0  0  0  0
    2.6801    0.0944    0.8485 H   0  0  0  0  0  0  0  0  0  0  0  0
    0.3279   -0.6773   -1.9981 H   0  0  0  0  0  0  0  0  0  0  0  0
   -2.1234   -1.5713   -1.9379 H   0  0  0  0  0  0  0  0  0  0  0  0
   -1.9539   -0.4053    1.6842 H   0  0  0  0  0  0  0  0  0  0  0  0
  1  9  1  0  0  0  0
  1 11  1  0  0  0  0
  2  1  1  0  0  0  0
  2 13  1  0  0  0  0
  3  2  1  0  0  0  0
  3  8  1  0  0  0  0
  4  5  1  0  0  0  0
  4  3  2  0  0  0  0
  5  7  2  0  0  0  0
  6  5  1  0  0  0  0
  7  8  1  0  0  0  0
  7 16  1  0  0  0  0
 10  1  1  0  0  0  0
 12  2  1  0  0  0  0
 14  4  1  0  0  0  0
 15  6  1  0  0  0  0
M  END
