16
title
C 2.1637487 2.1392627 0.36518267
C 2.1141446 0.6291605 0.07455115
C 0.72860813 0.0840614 0.010135015
C -0.0020177662 -0.49095616 -0.9867464
C -1.2841167 -0.79602957 -0.41935307
O -2.3538609 -1.3801014 -1.0246217
C -1.2442 -0.38610855 0.8765966
O -0.013078004 0.15375863 1.1451296
H 3.1991172 2.4881556 0.42401886
H 1.6547112 2.7053843 -0.42076868
H 1.6719553 2.3656778 1.3149613
H 2.6063712 0.41167068 -0.8787864
H 2.6801298 0.094381794 0.84852713
H 0.32792625 -0.6772703 -1.9980841
H -2.1233568 -1.5713409 -1.9378695
H -1.9539433 -0.40534797 1.6841906
