title
 OpenBabel02282109573D

 18 18  0  0  0  0  0  0  0  0999 V2000
   -0.9474    2.0059    1.9461 C   0  0  0  0  0  0  0  0  0  0  0  0
   -0.8119    0.4787    1.9470 C   0  0  0  0  0  0  0  0  0  0  0  0
   -0.1899   -0.0463    0.6883 C   0  0  0  0  0  0  0  0  0  0  0  0
   -0.3865    0.4150   -0.5281 N   0  0  0  0  0  0  0  0  0  0  0  0
    0.3540   -0.3871   -1.3740 C   0  0  0  0  0  0  0  0  0  0  0  0
    0.3772   -0.1560   -2.8500 C   0  0  0  0  0  0  0  0  0  0  0  0
    1.0067   -1.3483   -0.6481 C   0  0  0  0  0  0  0  0  0  0  0  0
    0.6530   -1.1200    0.6676 N   0  0  0  0  0  0  0  0  0  0  0  0
    0.0345    2.4866    1.9066 H   0  0  0  0  0  0  0  0  0  0  0  0
   -1.5111    2.3331    1.0700 H   0  0  0  0  0  0  0  0  0  0  0  0
   -1.4638    2.3488    2.8474 H   0  0  0  0  0  0  0  0  0  0  0  0
   -0.2170    0.1492    2.8082 H   0  0  0  0  0  0  0  0  0  0  0  0
   -1.8055    0.0274    2.0757 H   0  0  0  0  0  0  0  0  0  0  0  0
    0.7478    0.8474   -3.0867 H   0  0  0  0  0  0  0  0  0  0  0  0
    1.0196   -0.8843   -3.3529 H   0  0  0  0  0  0  0  0  0  0  0  0
   -0.6282   -0.2347   -3.2780 H   0  0  0  0  0  0  0  0  0  0  0  0
    1.6747   -2.1452   -0.9303 H   0  0  0  0  0  0  0  0  0  0  0  0
    0.9636   -1.6471    1.4662 H   0  0  0  0  0  0  0  0  0  0  0  0
  1  2  1  0  0  0  0
  1 11  1  0  0  0  0
  2 13  1  0  0  0  0
  2 12  1  0  0  0  0
  3  2  1  0  0  0  0
  4  3  2  0  0  0  0
  5  7  2  0  0  0  0
  5  4  1  0  0  0  0
  6  5  1  0  0  0  0
  7  8  1  0  0  0  0
  8  3  1  0  0  0  0
  8 18  1  0  0  0  0
  9  1  1  0  0  0  0
 10  1  1  0  0  0  0
 14  6  1  0  0  0  0
 15  6  1  0  0  0  0
 16  6  1  0  0  0  0
 17  7  1  0  0  0  0
M  END
