title
 OpenBabel02282109573D

 17 17  0  0  0  0  0  0  0  0999 V2000
    2.1643    2.0288    0.4369 C   0  0  0  0  0  0  0  0  0  0  0  0
    2.0583    0.5347    0.0865 C   0  0  0  0  0  0  0  0  0  0  0  0
    0.6531    0.0408    0.0460 C   0  0  0  0  0  0  0  0  0  0  0  0
   -0.0150   -0.4175   -0.9654 N   0  0  0  0  0  0  0  0  0  0  0  0
   -1.2789   -0.7255   -0.4589 C   0  0  0  0  0  0  0  0  0  0  0  0
   -2.3571   -1.2893   -1.3206 C   0  0  0  0  0  0  0  0  0  0  0  0
   -1.2913   -0.4230    0.8604 C   0  0  0  0  0  0  0  0  0  0  0  0
   -0.0594    0.0703    1.2028 O   0  0  0  0  0  0  0  0  0  0  0  0
    3.2122    2.3409    0.4645 H   0  0  0  0  0  0  0  0  0  0  0  0
    1.6447    2.6416   -0.3055 H   0  0  0  0  0  0  0  0  0  0  0  0
    1.7212    2.2326    1.4154 H   0  0  0  0  0  0  0  0  0  0  0  0
    2.4930    0.3361   -0.8959 H   0  0  0  0  0  0  0  0  0  0  0  0
    2.6238   -0.0529    0.8200 H   0  0  0  0  0  0  0  0  0  0  0  0
   -2.0446   -2.2399   -1.7655 H   0  0  0  0  0  0  0  0  0  0  0  0
   -3.2705   -1.4624   -0.7456 H   0  0  0  0  0  0  0  0  0  0  0  0
   -2.5933   -0.6094   -2.1460 H   0  0  0  0  0  0  0  0  0  0  0  0
   -2.0212   -0.4866    1.6490 H   0  0  0  0  0  0  0  0  0  0  0  0
  1  9  1  0  0  0  0
  1 11  1  0  0  0  0
  2  1  1  0  0  0  0
  2 13  1  0  0  0  0
  3  2  1  0  0  0  0
  3  8  1  0  0  0  0
  4  5  1  0  0  0  0
  4  3  2  0  0  0  0
  5  7  2  0  0  0  0
  6 15  1  0  0  0  0
  6  5  1  0  0  0  0
  7  8  1  0  0  0  0
  7 17  1  0  0  0  0
 10  1  1  0  0  0  0
 12  2  1  0  0  0  0
 14  6  1  0  0  0  0
 16  6  1  0  0  0  0
M  END
