16
title
C -0.74440694 2.059524 -2.0591962
C -0.98562455 0.5623039 -1.802131
C -0.28523755 0.055587277 -0.5881428
N -0.81222934 -0.42695734 0.49782643
C 0.26874346 -0.7376711 1.3113385
N 0.053417385 -1.3448359 2.5435436
C 1.4182326 -0.41559276 0.6618143
O 1.0620219 0.09846051 -0.57039696
H 0.32155436 2.2661002 -2.18723
H -1.2663505 2.380463 -2.9651995
H -1.1090493 2.6633363 -1.2229137
H -2.050237 0.3595663 -1.6640502
H -0.6531478 -0.014937654 -2.6737301
H -0.871974 -1.1420968 2.8971884
H 0.7597552 -1.1393201 3.2359169
H 2.4691725 -0.47662792 0.8779896
