16
title
C 2.2113502 1.9733891 -0.22744586
C 2.127554 0.44601798 -0.08887679
C 0.7194636 -0.06047664 -0.10423762
N -0.2614964 0.35418612 0.68245924
C -1.3553079 -0.3808629 0.3275928
O -2.5472124 -0.20795864 0.94169486
C -1.0660814 -1.2599854 -0.6825653
N 0.27943268 -1.0318487 -0.94385153
H 3.2485719 2.3133197 -0.15261588
H 1.8099047 2.3035944 -1.19038
H 1.6281109 2.454635 0.56107014
H 2.692346 -0.039970435 -0.8935061
H 2.6068113 0.14315078 0.8508053
H -2.4068048 0.48045695 1.6028537
H -1.6524147 -1.9865059 -1.2151763
H 0.8322723 -1.5077031 -1.6363924
