15
title
C 2.1199696 2.1164687 0.3515667
C 2.0533907 0.6076714 0.05869697
C 0.6627347 0.0734994 0.054984957
N 0.0013454277 -0.44587618 -0.93905073
C -1.2323492 -0.76240176 -0.40670776
O -2.1961553 -1.329867 -1.1554625
C -1.2733517 -0.41758496 0.9031562
O -0.040690392 0.12616374 1.2042527
H 3.1588984 2.4578855 0.3556857
H 1.5757173 2.6863325 -0.4071846
H 1.681218 2.3438904 1.3267312
H 2.4846153 0.38390884 -0.9198733
H 2.6423457 0.06437178 0.8077696
H -1.8280344 -1.436731 -2.0408335
H -1.9984028 -0.47405308 1.6929293
