17
title
C 1.6351564 2.4947033 0.25288957
N 1.7325343 1.1108334 -0.20142062
C 0.62817913 0.28848773 -0.0731131
C 0.48335406 -1.0540833 0.1274491
C -0.93255526 -1.3183444 0.056420352
C -1.6078584 -2.6448524 0.21114364
C -1.5242896 -0.11998511 -0.16850227
O -0.576793 0.87847483 -0.25192007
H 2.5771704 3.0011551 0.030337546
H 0.83827496 3.0006452 -0.2952086
H 1.4255197 2.592201 1.3289806
H 2.5734594 0.64586943 0.10845379
H 1.2726655 -1.7680669 0.30390638
H -1.3924308 -3.0935214 1.1879531
H -2.6935103 -2.5494404 0.1201067
H -1.270123 -3.3581545 -0.5496848
H -2.5461352 0.20056407 -0.2786426
