17
title
C -1.6878884 1.7023209 1.7908425
N -0.50050056 0.84291565 1.8858126
C -0.11110349 0.211694 0.68895626
C 0.82851523 0.53132856 -0.27100655
C 0.8105853 -0.5077119 -1.2503719
N 1.6760596 -0.59265256 -2.3616104
C -0.14675309 -1.4200858 -0.8654201
N -0.6993844 -0.9668354 0.32156911
H -1.5807781 2.5250628 1.0670041
H -2.5485947 1.0998504 1.4871526
H -1.9045812 2.1248436 2.7765813
H 0.27839202 1.36908 2.2616806
H 1.4531344 1.4124035 -0.27895615
H 1.81772 0.30935735 -2.800218
H 1.3297218 -1.2348043 -3.0638027
H -0.47898918 -2.3353605 -1.327055
H -1.3289965 -1.4799727 0.9125877
