title
 OpenBabel02282109573D

 17 17  0  0  0  0  0  0  0  0999 V2000
   -1.6879    1.7023    1.7908 C   0  0  0  0  0  0  0  0  0  0  0  0
   -0.5005    0.8429    1.8858 N   0  0  0  0  0  0  0  0  0  0  0  0
   -0.1111    0.2117    0.6890 C   0  0  0  0  0  0  0  0  0  0  0  0
    0.8285    0.5313   -0.2710 C   0  0  0  0  0  0  0  0  0  0  0  0
    0.8106   -0.5077   -1.2504 C   0  0  0  0  0  0  0  0  0  0  0  0
    1.6761   -0.5927   -2.3616 N   0  0  0  0  0  0  0  0  0  0  0  0
   -0.1468   -1.4201   -0.8654 C   0  0  0  0  0  0  0  0  0  0  0  0
   -0.6994   -0.9668    0.3216 N   0  0  0  0  0  0  0  0  0  0  0  0
   -1.5808    2.5251    1.0670 H   0  0  0  0  0  0  0  0  0  0  0  0
   -2.5486    1.0999    1.4872 H   0  0  0  0  0  0  0  0  0  0  0  0
   -1.9046    2.1248    2.7766 H   0  0  0  0  0  0  0  0  0  0  0  0
    0.2784    1.3691    2.2617 H   0  0  0  0  0  0  0  0  0  0  0  0
    1.4531    1.4124   -0.2790 H   0  0  0  0  0  0  0  0  0  0  0  0
    1.8177    0.3094   -2.8002 H   0  0  0  0  0  0  0  0  0  0  0  0
    1.3297   -1.2348   -3.0638 H   0  0  0  0  0  0  0  0  0  0  0  0
   -0.4790   -2.3354   -1.3271 H   0  0  0  0  0  0  0  0  0  0  0  0
   -1.3290   -1.4800    0.9126 H   0  0  0  0  0  0  0  0  0  0  0  0
  1  2  1  0  0  0  0
  1 11  1  0  0  0  0
  2 12  1  0  0  0  0
  3  2  1  0  0  0  0
  4  3  2  0  0  0  0
  5  7  2  0  0  0  0
  5  4  1  0  0  0  0
  6  5  1  0  0  0  0
  7  8  1  0  0  0  0
  8  3  1  0  0  0  0
  8 17  1  0  0  0  0
  9  1  1  0  0  0  0
 10  1  1  0  0  0  0
 13  4  1  0  0  0  0
 14  6  1  0  0  0  0
 15  6  1  0  0  0  0
 16  7  1  0  0  0  0
M  END
