16
title
C -1.0327811 2.473888 -1.3482502
N -0.6992937 1.0805092 -1.6236912
C -0.2489317 0.28552958 -0.5863906
C -0.3128823 -1.0606226 -0.3609465
C 0.4344445 -1.288921 0.84838814
N 0.56195635 -2.5315855 1.4873289
C 0.88612 -0.07504234 1.262251
O 0.45691007 0.9066799 0.3779401
H -0.15240663 2.986588 -0.9564355
H -1.3191769 2.9547193 -2.286432
H -1.8504212 2.5966637 -0.6220246
H -1.3914233 0.6034466 -2.182613
H -0.83007646 -1.7960588 -0.9566987
H 0.7003916 -3.2888954 0.8299977
H 1.311967 -2.545332 2.1665566
H 1.4527322 0.27218863 2.1076257
