title
 OpenBabel02282109573D

 16 16  0  0  0  0  0  0  0  0999 V2000
   -0.7561    1.7512    2.3154 C   0  0  0  0  0  0  0  0  0  0  0  0
   -1.4199    0.8682    1.3469 N   0  0  0  0  0  0  0  0  0  0  0  0
   -0.5664    0.2205    0.4332 C   0  0  0  0  0  0  0  0  0  0  0  0
   -0.1225    0.5541   -0.8340 C   0  0  0  0  0  0  0  0  0  0  0  0
    0.7092   -0.5149   -1.2754 C   0  0  0  0  0  0  0  0  0  0  0  0
    1.3694   -0.6238   -2.4677 O   0  0  0  0  0  0  0  0  0  0  0  0
    0.7644   -1.4596   -0.2784 C   0  0  0  0  0  0  0  0  0  0  0  0
   -0.0219   -0.9902    0.7584 N   0  0  0  0  0  0  0  0  0  0  0  0
   -0.0634    1.1642    2.9249 H   0  0  0  0  0  0  0  0  0  0  0  0
   -0.1850    2.5690    1.8495 H   0  0  0  0  0  0  0  0  0  0  0  0
   -1.5094    2.1818    2.9821 H   0  0  0  0  0  0  0  0  0  0  0  0
   -2.1362    1.3795    0.8463 H   0  0  0  0  0  0  0  0  0  0  0  0
   -0.3515    1.4646   -1.3688 H   0  0  0  0  0  0  0  0  0  0  0  0
    1.1840    0.1633   -2.9869 H   0  0  0  0  0  0  0  0  0  0  0  0
    1.2878   -2.3981   -0.2240 H   0  0  0  0  0  0  0  0  0  0  0  0
   -0.2662   -1.4997    1.5893 H   0  0  0  0  0  0  0  0  0  0  0  0
  1  9  1  0  0  0  0
  1 11  1  0  0  0  0
  2  1  1  0  0  0  0
  3  8  1  0  0  0  0
  3  2  1  0  0  0  0
  4  3  2  0  0  0  0
  5  4  1  0  0  0  0
  5  7  2  0  0  0  0
  6  5  1  0  0  0  0
  7 15  1  0  0  0  0
  7  8  1  0  0  0  0
  8 16  1  0  0  0  0
 10  1  1  0  0  0  0
 12  2  1  0  0  0  0
 13  4  1  0  0  0  0
 14  6  1  0  0  0  0
M  END
