15
title
C 1.6880972 2.4970214 0.09801505
N 1.766958 1.0789895 -0.23409009
C 0.6451612 0.28986096 -0.07911959
C 0.48148125 -1.052458 0.12931281
C -0.9398448 -1.2657871 0.09839793
O -1.600522 -2.4442906 0.26000226
C -1.53087 -0.063222945 -0.1136768
O -0.5431821 0.9061245 -0.22233936
H 2.647748 2.9620986 -0.1381238
H 0.9186113 2.9710927 -0.51402587
H 1.4500422 2.68935 1.1548147
H 2.5985596 0.62444735 0.11253221
H 1.2560345 -1.7879748 0.28156775
H -0.95221657 -3.1449506 0.37076098
H -2.546498 0.27550137 -0.19637915
