16
title
C 1.6448257 2.4717 0.18042238
N 1.6786684 1.0500505 -0.12233243
C 0.54992396 0.28637382 -0.046509698
N 0.47836512 -1.0055125 0.08203184
C -0.8933019 -1.2731643 0.027505161
C -1.4183377 -2.6640038 0.13409808
C -1.5658847 -0.111941256 -0.122392185
O -0.6363279 0.91919184 -0.1699304
H 2.6192245 2.9023004 -0.0594312
H 0.8928085 2.960221 -0.44251382
H 1.4120275 2.6890676 1.2328035
H 2.4980435 0.54299796 0.17483142
H -1.1104034 -3.1250823 1.0787823
H -2.5100796 -2.6787853 0.08225846
H -1.0252947 -3.2918556 -0.6728481
H -2.5988958 0.17637081 -0.19961892
