title
 OpenBabel02282109573D

 17 17  0  0  0  0  0  0  0  0999 V2000
   -0.6002    1.5281   -2.3503 C   0  0  0  0  0  0  0  0  0  0  0  0
   -0.7716    1.6593   -0.9503 O   0  0  0  0  0  0  0  0  0  0  0  0
   -0.2998    0.6230   -0.2217 C   0  0  0  0  0  0  0  0  0  0  0  0
    0.3250   -0.5604   -0.5391 C   0  0  0  0  0  0  0  0  0  0  0  0
    0.5773   -1.2399    0.7014 C   0  0  0  0  0  0  0  0  0  0  0  0
    1.2424   -2.5731    0.8614 C   0  0  0  0  0  0  0  0  0  0  0  0
    0.0968   -0.4423    1.7075 C   0  0  0  0  0  0  0  0  0  0  0  0
   -0.4398    0.6988    1.1339 N   0  0  0  0  0  0  0  0  0  0  0  0
   -1.1257    0.6431   -2.7312 H   0  0  0  0  0  0  0  0  0  0  0  0
   -1.0231    2.4271   -2.8011 H   0  0  0  0  0  0  0  0  0  0  0  0
    0.4626    1.4498   -2.6125 H   0  0  0  0  0  0  0  0  0  0  0  0
    0.5769   -0.9106   -1.5270 H   0  0  0  0  0  0  0  0  0  0  0  0
    0.6947   -3.3676    0.3400 H   0  0  0  0  0  0  0  0  0  0  0  0
    2.2618   -2.5718    0.4566 H   0  0  0  0  0  0  0  0  0  0  0  0
    1.3074   -2.8559    1.9164 H   0  0  0  0  0  0  0  0  0  0  0  0
    0.0877   -0.5819    2.7762 H   0  0  0  0  0  0  0  0  0  0  0  0
   -0.8678    1.4708    1.6131 H   0  0  0  0  0  0  0  0  0  0  0  0
  1  2  1  0  0  0  0
  2  3  1  0  0  0  0
  3  8  1  0  0  0  0
  4  3  2  0  0  0  0
  4  5  1  0  0  0  0
  5  6  1  0  0  0  0
  5  7  2  0  0  0  0
  6 15  1  0  0  0  0
  7 16  1  0  0  0  0
  8 17  1  0  0  0  0
  8  7  1  0  0  0  0
  9  1  1  0  0  0  0
 10  1  1  0  0  0  0
 11  1  1  0  0  0  0
 12  4  1  0  0  0  0
 13  6  1  0  0  0  0
 14  6  1  0  0  0  0
M  END
