title
 OpenBabel02282109573D

 16 16  0  0  0  0  0  0  0  0999 V2000
   -0.9018    2.3471   -1.4517 C   0  0  0  0  0  0  0  0  0  0  0  0
   -0.8834    0.9259   -1.5621 O   0  0  0  0  0  0  0  0  0  0  0  0
   -0.3141    0.2422   -0.5643 C   0  0  0  0  0  0  0  0  0  0  0  0
   -0.1539   -1.0983   -0.4002 C   0  0  0  0  0  0  0  0  0  0  0  0
    0.5274   -1.2552    0.8611 C   0  0  0  0  0  0  0  0  0  0  0  0
    0.9393   -2.5433    1.5022 C   0  0  0  0  0  0  0  0  0  0  0  0
    0.7183   -0.0031    1.3462 C   0  0  0  0  0  0  0  0  0  0  0  0
    0.2025    0.9352    0.4746 O   0  0  0  0  0  0  0  0  0  0  0  0
    0.1132    2.7547   -1.4022 H   0  0  0  0  0  0  0  0  0  0  0  0
   -1.4015    2.7059   -2.3520 H   0  0  0  0  0  0  0  0  0  0  0  0
   -1.4570    2.6693   -0.5647 H   0  0  0  0  0  0  0  0  0  0  0  0
   -0.4754   -1.8688   -1.0810 H   0  0  0  0  0  0  0  0  0  0  0  0
    1.6282   -3.1061    0.8621 H   0  0  0  0  0  0  0  0  0  0  0  0
    1.4396   -2.3668    2.4585 H   0  0  0  0  0  0  0  0  0  0  0  0
    0.0750   -3.1905    1.6903 H   0  0  0  0  0  0  0  0  0  0  0  0
    1.1724    0.3937    2.2379 H   0  0  0  0  0  0  0  0  0  0  0  0
  1  9  1  0  0  0  0
  1 11  1  0  0  0  0
  2  1  1  0  0  0  0
  2  3  1  0  0  0  0
  3  4  2  0  0  0  0
  3  8  1  0  0  0  0
  4  5  1  0  0  0  0
  5  7  2  0  0  0  0
  5  6  1  0  0  0  0
  6 15  1  0  0  0  0
  6 14  1  0  0  0  0
  7 16  1  0  0  0  0
  8  7  1  0  0  0  0
 10  1  1  0  0  0  0
 12  4  1  0  0  0  0
 13  6  1  0  0  0  0
M  END
