title
 OpenBabel02282109573D

 16 16  0  0  0  0  0  0  0  0999 V2000
   -1.5851    1.4100    1.9328 C   0  0  0  0  0  0  0  0  0  0  0  0
   -0.3956    1.6395    1.1991 O   0  0  0  0  0  0  0  0  0  0  0  0
   -0.0318    0.6321    0.3746 C   0  0  0  0  0  0  0  0  0  0  0  0
   -0.5727   -0.6039    0.0953 C   0  0  0  0  0  0  0  0  0  0  0  0
    0.2934   -1.2130   -0.8722 C   0  0  0  0  0  0  0  0  0  0  0  0
    0.0497   -2.4599   -1.4862 N   0  0  0  0  0  0  0  0  0  0  0  0
    1.3161   -0.3363   -1.1367 C   0  0  0  0  0  0  0  0  0  0  0  0
    1.0948    0.8045   -0.3655 N   0  0  0  0  0  0  0  0  0  0  0  0
   -2.4407    1.2608    1.2619 H   0  0  0  0  0  0  0  0  0  0  0  0
   -1.4855    0.5306    2.5821 H   0  0  0  0  0  0  0  0  0  0  0  0
   -1.7499    2.2986    2.5439 H   0  0  0  0  0  0  0  0  0  0  0  0
   -1.4775   -1.0241    0.5024 H   0  0  0  0  0  0  0  0  0  0  0  0
   -0.2748   -3.1503   -0.8194 H   0  0  0  0  0  0  0  0  0  0  0  0
    0.8778   -2.8249   -1.9408 H   0  0  0  0  0  0  0  0  0  0  0  0
    2.1608   -0.4047   -1.8011 H   0  0  0  0  0  0  0  0  0  0  0  0
    1.6782    1.6201   -0.3223 H   0  0  0  0  0  0  0  0  0  0  0  0
  1 11  1  0  0  0  0
  1 10  1  0  0  0  0
  2  1  1  0  0  0  0
  3  2  1  0  0  0  0
  4  3  2  0  0  0  0
  4 12  1  0  0  0  0
  5  4  1  0  0  0  0
  6  5  1  0  0  0  0
  6 13  1  0  0  0  0
  7  5  2  0  0  0  0
  7  8  1  0  0  0  0
  8 16  1  0  0  0  0
  8  3  1  0  0  0  0
  9  1  1  0  0  0  0
 14  6  1  0  0  0  0
 15  7  1  0  0  0  0
M  END
