15
title
C 1.6814526 2.3765352 0.020469844
O 1.7835815 0.9544473 0.023618551
C 0.6399411 0.26230896 0.008824898
C 0.44225547 -1.0831753 -0.035561327
C -0.9874239 -1.2562503 -0.019535175
N -1.6434832 -2.4890165 -0.13097428
C -1.5343142 -0.011156319 0.036378782
O -0.5203345 0.9407623 0.04764657
H 2.7076218 2.7451892 0.02341963
H 1.1596787 2.7346022 -0.8730091
H 1.1532996 2.7384014 0.90846556
H 1.2022096 -1.844783 -0.08751072
H -1.1701982 -3.2271929 0.37396803
H -2.6101785 -2.4495933 0.16469398
H -2.5376859 0.3746854 0.052815374
