15
title
C -1.5691322 1.4348254 1.9491409
O -0.36808148 1.6426779 1.2254497
C -0.023468537 0.63738304 0.39122072
C -0.60029316 -0.5782674 0.08468775
C 0.2643111 -1.1849289 -0.88237804
O 0.10042848 -2.402111 -1.481621
C 1.3144814 -0.34123427 -1.1286228
N 1.1181713 0.7833159 -0.3295388
H -2.4231555 1.3183271 1.270028
H -1.49568 0.5451132 2.5872285
H -1.7129612 2.3198712 2.5700321
H -1.5126562 -0.98601776 0.4896523
H -0.70688003 -2.798533 -1.1442716
H 2.1629908 -0.4342932 -1.7827158
H 1.7160472 1.5883965 -0.27844903
