16
title
C -0.92948353 1.9412216 1.7534262
O -0.9521375 0.5148517 1.6847447
C -0.3504676 -0.0018928226 0.6059146
N 0.24150203 0.63339186 -0.36992455
C 0.693558 -0.36672905 -1.2268364
C 1.4326711 -0.03273942 -2.479944
C 0.3563957 -1.5948739 -0.7362461
N -0.32196012 -1.350996 0.45537233
H 0.09946857 2.3116813 1.7791824
H -1.4361984 2.3789604 0.8884268
H -1.4521804 2.20193 2.6743765
H 2.3491447 0.5270187 -2.261984
H 1.7082312 -0.9395607 -3.025439
H 0.8254678 0.59393996 -3.1427534
H 0.5235884 -2.5948033 -1.0995209
H -0.7178099 -2.0236745 1.0885549
