title
 OpenBabel02282109573D

 16 16  0  0  0  0  0  0  0  0999 V2000
   -0.9295    1.9412    1.7534 C   0  0  0  0  0  0  0  0  0  0  0  0
   -0.9521    0.5149    1.6847 O   0  0  0  0  0  0  0  0  0  0  0  0
   -0.3505   -0.0019    0.6059 C   0  0  0  0  0  0  0  0  0  0  0  0
    0.2415    0.6334   -0.3699 N   0  0  0  0  0  0  0  0  0  0  0  0
    0.6936   -0.3667   -1.2268 C   0  0  0  0  0  0  0  0  0  0  0  0
    1.4327   -0.0327   -2.4799 C   0  0  0  0  0  0  0  0  0  0  0  0
    0.3564   -1.5949   -0.7362 C   0  0  0  0  0  0  0  0  0  0  0  0
   -0.3220   -1.3510    0.4554 N   0  0  0  0  0  0  0  0  0  0  0  0
    0.0995    2.3117    1.7792 H   0  0  0  0  0  0  0  0  0  0  0  0
   -1.4362    2.3790    0.8884 H   0  0  0  0  0  0  0  0  0  0  0  0
   -1.4522    2.2019    2.6744 H   0  0  0  0  0  0  0  0  0  0  0  0
    2.3491    0.5270   -2.2620 H   0  0  0  0  0  0  0  0  0  0  0  0
    1.7082   -0.9396   -3.0254 H   0  0  0  0  0  0  0  0  0  0  0  0
    0.8255    0.5939   -3.1428 H   0  0  0  0  0  0  0  0  0  0  0  0
    0.5236   -2.5948   -1.0995 H   0  0  0  0  0  0  0  0  0  0  0  0
   -0.7178   -2.0237    1.0886 H   0  0  0  0  0  0  0  0  0  0  0  0
  1  9  1  0  0  0  0
  1 11  1  0  0  0  0
  2  1  1  0  0  0  0
  3  2  1  0  0  0  0
  4  3  2  0  0  0  0
  5  7  2  0  0  0  0
  5  4  1  0  0  0  0
  6 12  1  0  0  0  0
  6  5  1  0  0  0  0
  7  8  1  0  0  0  0
  8  3  1  0  0  0  0
  8 16  1  0  0  0  0
 10  1  1  0  0  0  0
 13  6  1  0  0  0  0
 14  6  1  0  0  0  0
 15  7  1  0  0  0  0
M  END
