15
title
C 1.6644524 2.3349802 -0.0014447751
O 1.7233418 0.90735847 0.03719615
C 0.5725681 0.24966328 0.013773454
N 0.4369647 -1.0343229 0.04580763
C -0.948868 -1.222793 -0.0008514389
C -1.5460738 -2.58791 0.015904343
C -1.5588282 -0.018358897 -0.057885814
O -0.5746779 0.9596823 -0.049679887
H 2.7010908 2.669826 0.027275654
H 1.1836537 2.6838589 -0.92023027
H 1.1195966 2.7293963 0.8614929
H -1.2576915 -3.126608 0.92468655
H -2.637212 -2.5407507 -0.027457234
H -1.1899067 -3.1778069 -0.83520603
H -2.5753462 0.32923186 -0.10547581
