title
 OpenBabel02282109573D

 15 15  0  0  0  0  0  0  0  0999 V2000
   -1.0077    1.9454    1.7025 C   0  0  0  0  0  0  0  0  0  0  0  0
   -1.0011    0.5183    1.6611 O   0  0  0  0  0  0  0  0  0  0  0  0
   -0.3672   -0.0094    0.6063 C   0  0  0  0  0  0  0  0  0  0  0  0
    0.2237    0.6292   -0.3744 N   0  0  0  0  0  0  0  0  0  0  0  0
    0.7148   -0.3689   -1.1975 C   0  0  0  0  0  0  0  0  0  0  0  0
    1.4708   -0.0165   -2.3204 N   0  0  0  0  0  0  0  0  0  0  0  0
    0.4092   -1.6075   -0.7032 C   0  0  0  0  0  0  0  0  0  0  0  0
   -0.2993   -1.3520    0.4810 N   0  0  0  0  0  0  0  0  0  0  0  0
    0.0131    2.3374    1.7350 H   0  0  0  0  0  0  0  0  0  0  0  0
   -1.5123    2.3570    0.8233 H   0  0  0  0  0  0  0  0  0  0  0  0
   -1.5479    2.2130    2.6113 H   0  0  0  0  0  0  0  0  0  0  0  0
    1.2373    0.9194   -2.6267 H   0  0  0  0  0  0  0  0  0  0  0  0
    1.3723   -0.6676   -3.0879 H   0  0  0  0  0  0  0  0  0  0  0  0
    0.6185   -2.6075   -1.0393 H   0  0  0  0  0  0  0  0  0  0  0  0
   -0.6905   -2.0238    1.1173 H   0  0  0  0  0  0  0  0  0  0  0  0
  1  9  1  0  0  0  0
  1 11  1  0  0  0  0
  2  1  1  0  0  0  0
  3  2  1  0  0  0  0
  4  3  2  0  0  0  0
  5  7  2  0  0  0  0
  5  4  1  0  0  0  0
  6  5  1  0  0  0  0
  7  8  1  0  0  0  0
  8  3  1  0  0  0  0
  8 15  1  0  0  0  0
 10  1  1  0  0  0  0
 12  6  1  0  0  0  0
 13  6  1  0  0  0  0
 14  7  1  0  0  0  0
M  END
