title
 OpenBabel02282109573D

 14 14  0  0  0  0  0  0  0  0999 V2000
    1.6806    2.3307    0.0348 C   0  0  0  0  0  0  0  0  0  0  0  0
    1.7269    0.9020    0.0003 O   0  0  0  0  0  0  0  0  0  0  0  0
    0.5673    0.2597   -0.0010 C   0  0  0  0  0  0  0  0  0  0  0  0
    0.4290   -1.0270   -0.0351 N   0  0  0  0  0  0  0  0  0  0  0  0
   -0.9508   -1.2058   -0.0160 C   0  0  0  0  0  0  0  0  0  0  0  0
   -1.4667   -2.4912   -0.1090 N   0  0  0  0  0  0  0  0  0  0  0  0
   -1.5731   -0.0007    0.0337 C   0  0  0  0  0  0  0  0  0  0  0  0
   -0.5670    0.9732    0.0412 O   0  0  0  0  0  0  0  0  0  0  0  0
    2.7208    2.6555    0.0285 H   0  0  0  0  0  0  0  0  0  0  0  0
    1.1584    2.7271   -0.8409 H   0  0  0  0  0  0  0  0  0  0  0  0
    1.1822    2.6852    0.9418 H   0  0  0  0  0  0  0  0  0  0  0  0
   -0.8066   -3.1808    0.2241 H   0  0  0  0  0  0  0  0  0  0  0  0
   -2.3713   -2.6088    0.3247 H   0  0  0  0  0  0  0  0  0  0  0  0
   -2.5858    0.3557    0.0530 H   0  0  0  0  0  0  0  0  0  0  0  0
  1 11  1  0  0  0  0
  2  1  1  0  0  0  0
  3  2  1  0  0  0  0
  3  8  1  0  0  0  0
  4  5  1  0  0  0  0
  4  3  2  0  0  0  0
  5  7  2  0  0  0  0
  6  5  1  0  0  0  0
  6 12  1  0  0  0  0
  6 13  1  0  0  0  0
  7  8  1  0  0  0  0
  7 14  1  0  0  0  0
  9  1  1  0  0  0  0
 10  1  1  0  0  0  0
M  END
