14
title
C 1.6806419 2.3306746 0.03479282
O 1.7268845 0.9019946 0.00028112705
C 0.5673128 0.25971425 -0.0009757533
N 0.4290294 -1.0270084 -0.035144083
C -0.9508293 -1.2057661 -0.016030498
N -1.4666983 -2.4911578 -0.10896944
C -1.5731133 -0.0006834721 0.033662807
O -0.5669711 0.9732094 0.041195884
H 2.7207823 2.6555014 0.028501848
H 1.1583658 2.72714 -0.84088165
H 1.1821581 2.6851752 0.9417806
H -0.80658466 -3.1807823 0.22409901
H -2.3712862 -2.6087835 0.3247064
H -2.5857508 0.35574728 0.05299313
