title
 OpenBabel02282109573D

 14 14  0  0  0  0  0  0  0  0999 V2000
    1.9210    2.0194   -0.0062 C   0  0  0  0  0  0  0  0  0  0  0  0
    1.9288    0.5922    0.0437 O   0  0  0  0  0  0  0  0  0  0  0  0
    0.7192    0.0211    0.0232 C   0  0  0  0  0  0  0  0  0  0  0  0
   -0.4505    0.6163   -0.0364 N   0  0  0  0  0  0  0  0  0  0  0  0
   -1.3591   -0.4188   -0.0307 C   0  0  0  0  0  0  0  0  0  0  0  0
   -2.6871   -0.1698   -0.0837 O   0  0  0  0  0  0  0  0  0  0  0  0
   -0.7470   -1.6356    0.0320 C   0  0  0  0  0  0  0  0  0  0  0  0
    0.6216   -1.3248    0.0668 N   0  0  0  0  0  0  0  0  0  0  0  0
    2.9682    2.3224    0.0184 H   0  0  0  0  0  0  0  0  0  0  0  0
    1.4431    2.3726   -0.9248 H   0  0  0  0  0  0  0  0  0  0  0  0
    1.3834    2.4345    0.8514 H   0  0  0  0  0  0  0  0  0  0  0  0
   -2.7782    0.7894   -0.1200 H   0  0  0  0  0  0  0  0  0  0  0  0
   -1.1152   -2.6444    0.0548 H   0  0  0  0  0  0  0  0  0  0  0  0
    1.3921   -1.9678    0.1150 H   0  0  0  0  0  0  0  0  0  0  0  0
  1  9  1  0  0  0  0
  1  2  1  0  0  0  0
  1 11  1  0  0  0  0
  3  2  1  0  0  0  0
  3  8  1  0  0  0  0
  4  5  2  0  0  0  0
  4  3  2  0  0  0  0
  5  7  1  0  0  0  0
  6  5  1  0  0  0  0
  7 13  1  0  0  0  0
  7  8  1  0  0  0  0
  8 14  1  0  0  0  0
 10  1  1  0  0  0  0
 12  6  1  0  0  0  0
M  RAD  1   7   2
M  END
