title
 OpenBabel02282109573D

 13 13  0  0  0  0  0  0  0  0999 V2000
    1.7177    2.3188   -0.0705 C   0  0  0  0  0  0  0  0  0  0  0  0
    1.7449    0.8899    0.0035 O   0  0  0  0  0  0  0  0  0  0  0  0
    0.5796    0.2624    0.0029 C   0  0  0  0  0  0  0  0  0  0  0  0
    0.4228   -1.0237    0.0644 N   0  0  0  0  0  0  0  0  0  0  0  0
   -0.9535   -1.1740    0.0333 C   0  0  0  0  0  0  0  0  0  0  0  0
   -1.5132   -2.3951    0.0801 O   0  0  0  0  0  0  0  0  0  0  0  0
   -1.5690    0.0281   -0.0456 C   0  0  0  0  0  0  0  0  0  0  0  0
   -0.5475    0.9846   -0.0659 O   0  0  0  0  0  0  0  0  0  0  0  0
    2.7619    2.6295   -0.0571 H   0  0  0  0  0  0  0  0  0  0  0  0
    1.2376    2.6533   -0.9946 H   0  0  0  0  0  0  0  0  0  0  0  0
    1.1874    2.7447    0.7861 H   0  0  0  0  0  0  0  0  0  0  0  0
   -0.7864   -3.0276    0.1330 H   0  0  0  0  0  0  0  0  0  0  0  0
   -2.5787    0.3868   -0.0924 H   0  0  0  0  0  0  0  0  0  0  0  0
  1  9  1  0  0  0  0
  1  2  1  0  0  0  0
  1 11  1  0  0  0  0
  3  2  1  0  0  0  0
  3  4  2  0  0  0  0
  5  4  2  0  0  0  0
  5  6  1  0  0  0  0
  6 12  1  0  0  0  0
  7  5  1  0  0  0  0
  8  7  1  0  0  0  0
  8  3  1  0  0  0  0
 10  1  1  0  0  0  0
 13  7  1  0  0  0  0
M  RAD  1   7   2
M  END
