13
title
C 1.7177266 2.3188057 -0.07052123
O 1.744851 0.88985914 0.003539059
C 0.5795807 0.26238528 0.00287782
N 0.42278332 -1.0237327 0.06437197
C -0.9534934 -1.1740036 0.033325687
O -1.5131862 -2.3950727 0.08014292
C -1.5690281 0.02808884 -0.045609303
O -0.5475176 0.98458636 -0.065862335
H 2.7619112 2.6295116 -0.057050705
H 1.2375964 2.6533177 -0.9946382
H 1.1874441 2.744661 0.7861368
H -0.7863675 -3.0275586 0.13302624
H -2.5787065 0.38681087 -0.09242604
