title
 OpenBabel02282109573D

 16 16  0  0  0  0  0  0  0  0999 V2000
   -0.9501    2.8357    0.4908 N   0  0  0  0  0  0  0  0  0  0  0  0
   -0.6496    1.4900    0.1964 C   0  0  0  0  0  0  0  0  0  0  0  0
   -1.4313    0.5934   -0.5028 C   0  0  0  0  0  0  0  0  0  0  0  0
   -0.7989   -0.6328   -0.4598 N   0  0  0  0  0  0  0  0  0  0  0  0
    0.3801   -0.5292    0.2258 C   0  0  0  0  0  0  0  0  0  0  0  0
    1.2569   -1.7212    0.4209 C   0  0  0  0  0  0  0  0  0  0  0  0
    1.4300   -2.4756   -0.7802 O   0  0  0  0  0  0  0  0  0  0  0  0
    0.4993    0.7789    0.6509 C   0  0  0  0  0  0  0  0  0  0  0  0
   -0.1201    3.4155    0.5007 H   0  0  0  0  0  0  0  0  0  0  0  0
   -1.6107    3.2341   -0.1647 H   0  0  0  0  0  0  0  0  0  0  0  0
   -2.3685    0.7260   -1.0189 H   0  0  0  0  0  0  0  0  0  0  0  0
   -1.0853   -1.4624   -0.9496 H   0  0  0  0  0  0  0  0  0  0  0  0
    2.2173   -1.3958    0.8457 H   0  0  0  0  0  0  0  0  0  0  0  0
    0.8171   -2.4344    1.1292 H   0  0  0  0  0  0  0  0  0  0  0  0
    1.7871   -1.8722   -1.4413 H   0  0  0  0  0  0  0  0  0  0  0  0
    1.3093    1.1796    1.2428 H   0  0  0  0  0  0  0  0  0  0  0  0
  1  9  1  0  0  0  0
  2  1  1  0  0  0  0
  2  8  1  0  0  0  0
  3  4  1  0  0  0  0
  3  2  2  0  0  0  0
  4  5  1  0  0  0  0
  5  6  1  0  0  0  0
  5  8  2  0  0  0  0
  6 13  1  0  0  0  0
  6 14  1  0  0  0  0
  7  6  1  0  0  0  0
  8 16  1  0  0  0  0
 10  1  1  0  0  0  0
 11  3  1  0  0  0  0
 12  4  1  0  0  0  0
 15  7  1  0  0  0  0
M  END
