15
title
N -0.33243194 2.9276593 0.10586717
C -0.38470685 1.5303372 0.05539187
C -1.476187 0.69537693 0.12155566
N -0.93969274 -0.58424467 0.10586888
C 0.40327466 -0.46172163 0.02388804
C 1.3059107 -1.6529946 0.019440461
O 0.5202406 -2.787576 -0.33089465
N 0.77873677 0.80254894 -0.009282491
H 0.55229336 3.2591848 -0.25708356
H -1.0970571 3.3755379 -0.38145685
H -2.5358999 0.87486356 0.17366982
H -1.4294928 -1.4625714 0.09225448
H 2.1250932 -1.4799194 -0.6926759
H 1.7615985 -1.7829063 1.0139968
H 1.0299374 -3.57812 -0.13473596
