15
title
N -0.4930635 2.869004 0.0014961492
C -0.52838784 1.4697373 -0.06796103
C -1.5769169 0.66041064 -0.39244542
O -1.1695478 -0.6507722 -0.42779887
C 0.15016063 -0.6662835 -0.12507957
C 0.8323647 -1.9969078 -0.09587731
O 1.9497969 -2.0023108 0.7755388
C 0.6006694 0.59730995 0.10754735
H 0.13194807 3.2081833 0.7210379
H -1.406843 3.2832832 0.13062526
H -2.6135564 0.84008694 -0.62092984
H 0.091478065 -2.7703342 0.1605736
H 1.2330217 -2.2570436 -1.0834404
H 1.6394119 -1.706153 1.6381449
H 1.6132271 0.8787906 0.35126612
