14
title
N -0.3741123 2.730247 0.14250484
C -0.5440177 1.3656161 -0.04426151
C -1.5751278 0.6529611 -0.57000357
O -1.1880773 -0.6783329 -0.5937066
C 0.04694997 -0.67910516 -0.0795435
C 0.8108608 -1.9595622 0.043033738
O 2.0430865 -1.7500092 0.6855468
N 0.49042398 0.49016118 0.26607105
H 0.30582178 2.9298618 0.86351144
H -1.2321696 3.2400837 0.29736796
H -2.5548754 0.8793614 -0.94844204
H 0.2124257 -2.688949 0.6081987
H 0.9553713 -2.3862822 -0.96322805
H 2.1561055 -0.7928325 0.76182127
