title
 OpenBabel02282109573D

 14 14  0  0  0  0  0  0  0  0999 V2000
   -0.3741    2.7302    0.1425 N   0  0  0  0  0  0  0  0  0  0  0  0
   -0.5440    1.3656   -0.0443 C   0  0  0  0  0  0  0  0  0  0  0  0
   -1.5751    0.6530   -0.5700 C   0  0  0  0  0  0  0  0  0  0  0  0
   -1.1881   -0.6783   -0.5937 O   0  0  0  0  0  0  0  0  0  0  0  0
    0.0469   -0.6791   -0.0795 C   0  0  0  0  0  0  0  0  0  0  0  0
    0.8109   -1.9596    0.0430 C   0  0  0  0  0  0  0  0  0  0  0  0
    2.0431   -1.7500    0.6855 O   0  0  0  0  0  0  0  0  0  0  0  0
    0.4904    0.4902    0.2661 N   0  0  0  0  0  0  0  0  0  0  0  0
    0.3058    2.9299    0.8635 H   0  0  0  0  0  0  0  0  0  0  0  0
   -1.2322    3.2401    0.2974 H   0  0  0  0  0  0  0  0  0  0  0  0
   -2.5549    0.8794   -0.9484 H   0  0  0  0  0  0  0  0  0  0  0  0
    0.2124   -2.6889    0.6082 H   0  0  0  0  0  0  0  0  0  0  0  0
    0.9554   -2.3863   -0.9632 H   0  0  0  0  0  0  0  0  0  0  0  0
    2.1561   -0.7928    0.7618 H   0  0  0  0  0  0  0  0  0  0  0  0
  1 10  1  0  0  0  0
  1  9  1  0  0  0  0
  2  1  1  0  0  0  0
  2  8  1  0  0  0  0
  3  2  2  0  0  0  0
  4  3  1  0  0  0  0
  4  5  1  0  0  0  0
  5  6  1  0  0  0  0
  5  8  2  0  0  0  0
  6 12  1  0  0  0  0
  6  7  1  0  0  0  0
  7 14  1  0  0  0  0
 11  3  1  0  0  0  0
 13  6  1  0  0  0  0
M  END
