title
 OpenBabel02282109573D

 15 15  0  0  0  0  0  0  0  0999 V2000
   -0.8450    2.0001   -2.0079 N   0  0  0  0  0  0  0  0  0  0  0  0
   -1.1389    0.5956   -1.6883 C   0  0  0  0  0  0  0  0  0  0  0  0
   -0.3503    0.0235   -0.5524 C   0  0  0  0  0  0  0  0  0  0  0  0
   -0.7508   -0.2241    0.6595 N   0  0  0  0  0  0  0  0  0  0  0  0
    0.3813   -0.6726    1.3251 C   0  0  0  0  0  0  0  0  0  0  0  0
    0.2848   -1.0974    2.6445 N   0  0  0  0  0  0  0  0  0  0  0  0
    1.4330   -0.6651    0.4628 C   0  0  0  0  0  0  0  0  0  0  0  0
    0.9613   -0.2172   -0.7555 O   0  0  0  0  0  0  0  0  0  0  0  0
   -0.9994    2.5698   -1.1801 H   0  0  0  0  0  0  0  0  0  0  0  0
    0.1422    2.0929   -2.2313 H   0  0  0  0  0  0  0  0  0  0  0  0
   -2.1970    0.5044   -1.4320 H   0  0  0  0  0  0  0  0  0  0  0  0
   -0.9624   -0.0004   -2.5901 H   0  0  0  0  0  0  0  0  0  0  0  0
   -0.5036   -0.6732    3.1143 H   0  0  0  0  0  0  0  0  0  0  0  0
    1.1331   -0.9860    3.1814 H   0  0  0  0  0  0  0  0  0  0  0  0
    2.4735   -0.9290    0.5147 H   0  0  0  0  0  0  0  0  0  0  0  0
  1  2  1  0  0  0  0
  1  9  1  0  0  0  0
  2 11  1  0  0  0  0
  2  3  1  0  0  0  0
  3  4  2  0  0  0  0
  4  5  1  0  0  0  0
  5  6  1  0  0  0  0
  6 13  1  0  0  0  0
  6 14  1  0  0  0  0
  7 15  1  0  0  0  0
  7  5  2  0  0  0  0
  8  3  1  0  0  0  0
  8  7  1  0  0  0  0
 10  1  1  0  0  0  0
 12  2  1  0  0  0  0
M  END
