14
title
O 1.9248109 2.1002657 -0.29382366
C 1.9929616 0.71983093 0.042995706
C 0.5970688 0.1851021 0.028607769
N 0.24463806 -1.0887634 0.0284439
C -1.1214511 -1.0771494 0.051342078
O -1.8335321 -2.2264776 0.056662783
C -1.6162875 0.20200247 0.062468536
N -0.48057535 0.99913496 0.054536663
H 2.7741697 2.5025165 -0.09407522
H 2.6049604 0.14908695 -0.66999793
H 2.4386683 0.57767373 1.0402523
H -1.1852479 -2.9405375 0.038312487
H -2.6139903 0.6017583 0.06555755
H -0.42874864 2.0032825 0.021756137
