title
 OpenBabel02282109573D

 14 14  0  0  1  0  0  0  0  0999 V2000
    1.9248    2.1003   -0.2938 O   0  0  0  0  0  0  0  0  0  0  0  0
    1.9930    0.7198    0.0430 C   0  0  0  0  0  0  0  0  0  0  0  0
    0.5971    0.1851    0.0286 C   0  0  1  0  0  0  0  0  0  0  0  0
    0.2446   -1.0888    0.0284 N   0  0  0  0  0  0  0  0  0  0  0  0
   -1.1215   -1.0771    0.0513 C   0  0  0  0  0  0  0  0  0  0  0  0
   -1.8335   -2.2265    0.0567 O   0  0  0  0  0  0  0  0  0  0  0  0
   -1.6163    0.2020    0.0625 C   0  0  0  0  0  0  0  0  0  0  0  0
   -0.4806    0.9991    0.0545 N   0  0  0  0  0  0  0  0  0  0  0  0
    2.7742    2.5025   -0.0941 H   0  0  0  0  0  0  0  0  0  0  0  0
    2.6050    0.1491   -0.6700 H   0  0  0  0  0  0  0  0  0  0  0  0
    2.4387    0.5777    1.0403 H   0  0  0  0  0  0  0  0  0  0  0  0
   -1.1852   -2.9405    0.0383 H   0  0  0  0  0  0  0  0  0  0  0  0
   -2.6140    0.6018    0.0656 H   0  0  0  0  0  0  0  0  0  0  0  0
   -0.4287    2.0033    0.0218 H   0  0  0  0  0  0  0  0  0  0  0  0
  1  9  1  0  0  0  0
  1  2  1  0  0  0  0
  2 11  1  0  0  0  0
  3  2  1  1  0  0  0
  3  8  1  0  0  0  0
  4  3  1  0  0  0  0
  4  5  2  0  0  0  0
  5  6  1  0  0  0  0
  5  7  1  0  0  0  0
  7 13  1  0  0  0  0
  8  7  1  0  0  0  0
 10  2  1  0  0  0  0
 12  6  1  0  0  0  0
 14  8  1  0  0  0  0
M  RAD  2   3   2   7   2
M  END
