title
 OpenBabel02282109573D

 19 19  0  0  0  0  0  0  0  0999 V2000
   -0.7765    2.0730    2.1674 C   0  0  0  0  0  0  0  0  0  0  0  0
   -0.9705    0.5686    1.9115 C   0  0  0  0  0  0  0  0  0  0  0  0
   -0.2266    0.0674    0.7065 C   0  0  0  0  0  0  0  0  0  0  0  0
   -0.7784   -0.3433   -0.4878 C   0  0  0  0  0  0  0  0  0  0  0  0
    0.2309   -0.7283   -1.3380 N   0  0  0  0  0  0  0  0  0  0  0  0
    0.0591   -1.1335   -2.7156 C   0  0  0  0  0  0  0  0  0  0  0  0
    1.4332   -0.5576   -0.6992 C   0  0  0  0  0  0  0  0  0  0  0  0
    1.1869   -0.0710    0.5631 C   0  0  0  0  0  0  0  0  0  0  0  0
    0.2813    2.3130    2.3159 H   0  0  0  0  0  0  0  0  0  0  0  0
   -1.1307    2.6612    1.3149 H   0  0  0  0  0  0  0  0  0  0  0  0
   -1.3246    2.3966    3.0587 H   0  0  0  0  0  0  0  0  0  0  0  0
   -0.6518    0.0132    2.8034 H   0  0  0  0  0  0  0  0  0  0  0  0
   -2.0396    0.3577    1.7899 H   0  0  0  0  0  0  0  0  0  0  0  0
   -1.8100   -0.3981   -0.8012 H   0  0  0  0  0  0  0  0  0  0  0  0
    0.0062   -0.2730   -3.3936 H   0  0  0  0  0  0  0  0  0  0  0  0
    0.8985   -1.7636   -3.0191 H   0  0  0  0  0  0  0  0  0  0  0  0
   -0.8609   -1.7149   -2.8201 H   0  0  0  0  0  0  0  0  0  0  0  0
    2.3576   -0.8033   -1.1987 H   0  0  0  0  0  0  0  0  0  0  0  0
    1.9332    0.1423    1.3141 H   0  0  0  0  0  0  0  0  0  0  0  0
  1  9  1  0  0  0  0
  1 11  1  0  0  0  0
  2  1  1  0  0  0  0
  2 12  1  0  0  0  0
  3  2  1  0  0  0  0
  4  3  2  0  0  0  0
  5  7  1  0  0  0  0
  5  4  1  0  0  0  0
  6  5  1  0  0  0  0
  7  8  2  0  0  0  0
  8  3  1  0  0  0  0
  8 19  1  0  0  0  0
 10  1  1  0  0  0  0
 13  2  1  0  0  0  0
 14  4  1  0  0  0  0
 15  6  1  0  0  0  0
 16  6  1  0  0  0  0
 17  6  1  0  0  0  0
 18  7  1  0  0  0  0
M  END
