16
title
C -0.025917845 2.8075726 -0.63171536
N -0.025250394 1.3604378 -0.59669626
C -0.06367926 0.51679236 -1.6660317
N -0.048159905 -0.74687105 -1.3065149
C 0.0040130313 -0.72729427 0.06827124
C 0.036228158 -1.99151 0.8637516
O 0.084821545 -1.6517838 2.2417364
C 0.018784123 0.5628735 0.5291974
H 0.8881388 3.211885 -0.18537734
H -0.080430225 3.1377473 -1.6709725
H -0.8882369 3.2119758 -0.092474855
H -0.1026572 0.88830256 -2.6800785
H -0.8547748 -2.5956256 0.6274342
H 0.91136134 -2.5906532 0.563984
H 0.109447256 -2.4681954 2.7476313
H 0.055243045 0.97301096 1.5234462
