title
 OpenBabel02282109573D

 16 16  0  0  0  0  0  0  0  0999 V2000
   -0.0259    2.8076   -0.6317 C   0  0  0  0  0  0  0  0  0  0  0  0
   -0.0253    1.3604   -0.5967 N   0  0  0  0  0  0  0  0  0  0  0  0
   -0.0637    0.5168   -1.6660 C   0  0  0  0  0  0  0  0  0  0  0  0
   -0.0482   -0.7469   -1.3065 N   0  0  0  0  0  0  0  0  0  0  0  0
    0.0040   -0.7273    0.0683 C   0  0  0  0  0  0  0  0  0  0  0  0
    0.0362   -1.9915    0.8638 C   0  0  0  0  0  0  0  0  0  0  0  0
    0.0848   -1.6518    2.2417 O   0  0  0  0  0  0  0  0  0  0  0  0
    0.0188    0.5629    0.5292 C   0  0  0  0  0  0  0  0  0  0  0  0
    0.8881    3.2119   -0.1854 H   0  0  0  0  0  0  0  0  0  0  0  0
   -0.0804    3.1377   -1.6710 H   0  0  0  0  0  0  0  0  0  0  0  0
   -0.8882    3.2120   -0.0925 H   0  0  0  0  0  0  0  0  0  0  0  0
   -0.1027    0.8883   -2.6801 H   0  0  0  0  0  0  0  0  0  0  0  0
   -0.8548   -2.5956    0.6274 H   0  0  0  0  0  0  0  0  0  0  0  0
    0.9114   -2.5907    0.5640 H   0  0  0  0  0  0  0  0  0  0  0  0
    0.1094   -2.4682    2.7476 H   0  0  0  0  0  0  0  0  0  0  0  0
    0.0552    0.9730    1.5234 H   0  0  0  0  0  0  0  0  0  0  0  0
  1  2  1  0  0  0  0
  1  9  1  0  0  0  0
  1 11  1  0  0  0  0
  2  8  1  0  0  0  0
  3  4  2  0  0  0  0
  3  2  1  0  0  0  0
  4  5  1  0  0  0  0
  5  8  2  0  0  0  0
  5  6  1  0  0  0  0
  6  7  1  0  0  0  0
  7 15  1  0  0  0  0
  8 16  1  0  0  0  0
 10  1  1  0  0  0  0
 12  3  1  0  0  0  0
 13  6  1  0  0  0  0
 14  6  1  0  0  0  0
M  END
