18
title
C -0.7784061 2.4692001 1.663738
N -1.0965589 1.0695047 1.4401593
C -0.37108082 0.38505512 0.45446396
C -0.22038376 -0.98593956 0.3527292
N 0.516653 -1.2548132 -0.784371
C 0.84902376 -2.576454 -1.262101
C 0.82921535 -0.078005366 -1.4004682
C 0.3027305 0.96123207 -0.6627351
H 0.2872296 2.6600618 1.8742944
H -1.0552776 3.0606768 0.7844167
H -1.3706173 2.8385527 2.5052168
H -1.1430964 0.5492049 2.3047783
H -0.57858396 -1.7840993 0.9830322
H -0.042369775 -3.1215386 -1.5950943
H 1.5368649 -2.4901972 -2.1055655
H 1.3388594 -3.1622882 -0.47673905
H 1.4058152 -0.07136791 -2.312096
H 0.3977949 2.0097167 -0.89453423
