title
 OpenBabel02282109573D

 18 18  0  0  0  0  0  0  0  0999 V2000
   -0.7784    2.4692    1.6637 C   0  0  0  0  0  0  0  0  0  0  0  0
   -1.0966    1.0695    1.4402 N   0  0  0  0  0  0  0  0  0  0  0  0
   -0.3711    0.3851    0.4545 C   0  0  0  0  0  0  0  0  0  0  0  0
   -0.2204   -0.9859    0.3527 C   0  0  0  0  0  0  0  0  0  0  0  0
    0.5167   -1.2548   -0.7844 N   0  0  0  0  0  0  0  0  0  0  0  0
    0.8490   -2.5765   -1.2621 C   0  0  0  0  0  0  0  0  0  0  0  0
    0.8292   -0.0780   -1.4005 C   0  0  0  0  0  0  0  0  0  0  0  0
    0.3027    0.9612   -0.6627 C   0  0  0  0  0  0  0  0  0  0  0  0
    0.2872    2.6601    1.8743 H   0  0  0  0  0  0  0  0  0  0  0  0
   -1.0553    3.0607    0.7844 H   0  0  0  0  0  0  0  0  0  0  0  0
   -1.3706    2.8386    2.5052 H   0  0  0  0  0  0  0  0  0  0  0  0
   -1.1431    0.5492    2.3048 H   0  0  0  0  0  0  0  0  0  0  0  0
   -0.5786   -1.7841    0.9830 H   0  0  0  0  0  0  0  0  0  0  0  0
   -0.0424   -3.1215   -1.5951 H   0  0  0  0  0  0  0  0  0  0  0  0
    1.5369   -2.4902   -2.1056 H   0  0  0  0  0  0  0  0  0  0  0  0
    1.3389   -3.1623   -0.4767 H   0  0  0  0  0  0  0  0  0  0  0  0
    1.4058   -0.0714   -2.3121 H   0  0  0  0  0  0  0  0  0  0  0  0
    0.3978    2.0097   -0.8945 H   0  0  0  0  0  0  0  0  0  0  0  0
  1  9  1  0  0  0  0
  1 11  1  0  0  0  0
  2  1  1  0  0  0  0
  2 12  1  0  0  0  0
  3  2  1  0  0  0  0
  4  3  2  0  0  0  0
  4 13  1  0  0  0  0
  5  4  1  0  0  0  0
  6  5  1  0  0  0  0
  6 16  1  0  0  0  0
  7  5  1  0  0  0  0
  7  8  2  0  0  0  0
  8  3  1  0  0  0  0
 10  1  1  0  0  0  0
 14  6  1  0  0  0  0
 15  6  1  0  0  0  0
 17  7  1  0  0  0  0
 18  8  1  0  0  0  0
M  END
