title
 OpenBabel02282109573D

 17 17  0  0  0  0  0  0  0  0999 V2000
    2.0132    2.1307   -0.1938 C   0  0  0  0  0  0  0  0  0  0  0  0
    1.9530    0.7303    0.1709 N   0  0  0  0  0  0  0  0  0  0  0  0
    0.7319    0.0811    0.0720 C   0  0  0  0  0  0  0  0  0  0  0  0
   -0.5407    0.6104    0.0482 C   0  0  0  0  0  0  0  0  0  0  0  0
   -1.3886   -0.4902   -0.0023 N   0  0  0  0  0  0  0  0  0  0  0  0
   -2.8328   -0.4574   -0.0372 C   0  0  0  0  0  0  0  0  0  0  0  0
   -0.5967   -1.5896   -0.0173 C   0  0  0  0  0  0  0  0  0  0  0  0
    0.6853   -1.2910    0.0248 N   0  0  0  0  0  0  0  0  0  0  0  0
    3.0477    2.4765   -0.1318 H   0  0  0  0  0  0  0  0  0  0  0  0
    1.6305    2.3414   -1.2066 H   0  0  0  0  0  0  0  0  0  0  0  0
    1.4247    2.7259    0.5145 H   0  0  0  0  0  0  0  0  0  0  0  0
    2.7006    0.1620   -0.2008 H   0  0  0  0  0  0  0  0  0  0  0  0
   -0.9206    1.6167    0.0673 H   0  0  0  0  0  0  0  0  0  0  0  0
   -3.1925    0.0904   -0.9148 H   0  0  0  0  0  0  0  0  0  0  0  0
   -3.2105   -1.4807   -0.0878 H   0  0  0  0  0  0  0  0  0  0  0  0
   -3.2380    0.0194    0.8617 H   0  0  0  0  0  0  0  0  0  0  0  0
   -1.0094   -2.5872   -0.0617 H   0  0  0  0  0  0  0  0  0  0  0  0
  1  9  1  0  0  0  0
  1  2  1  0  0  0  0
  1 11  1  0  0  0  0
  3  2  1  0  0  0  0
  4 13  1  0  0  0  0
  4  3  2  0  0  0  0
  5  4  1  0  0  0  0
  6  5  1  0  0  0  0
  6 16  1  0  0  0  0
  7  5  1  0  0  0  0
  7  8  2  0  0  0  0
  8  3  1  0  0  0  0
 10  1  1  0  0  0  0
 12  2  1  0  0  0  0
 14  6  1  0  0  0  0
 15  6  1  0  0  0  0
 17  7  1  0  0  0  0
M  END
