title
 OpenBabel02282109573D

 17 17  0  0  0  0  0  0  0  0999 V2000
   -0.9356    2.3264    1.6276 C   0  0  0  0  0  0  0  0  0  0  0  0
   -0.9708    0.9172    1.5527 O   0  0  0  0  0  0  0  0  0  0  0  0
   -0.3101    0.3633    0.4991 C   0  0  0  0  0  0  0  0  0  0  0  0
   -0.2508   -0.9980    0.2843 C   0  0  0  0  0  0  0  0  0  0  0  0
    0.4791   -1.2047   -0.8668 N   0  0  0  0  0  0  0  0  0  0  0  0
    0.8303   -2.5013   -1.4012 C   0  0  0  0  0  0  0  0  0  0  0  0
    0.8814   -0.0006   -1.3689 C   0  0  0  0  0  0  0  0  0  0  0  0
    0.4087    1.0043   -0.5489 C   0  0  0  0  0  0  0  0  0  0  0  0
    0.0928    2.7020    1.7210 H   0  0  0  0  0  0  0  0  0  0  0  0
   -1.4002    2.7911    0.7470 H   0  0  0  0  0  0  0  0  0  0  0  0
   -1.5006    2.6059    2.5191 H   0  0  0  0  0  0  0  0  0  0  0  0
   -0.6652   -1.8158    0.8492 H   0  0  0  0  0  0  0  0  0  0  0  0
   -0.0549   -3.1418   -1.4642 H   0  0  0  0  0  0  0  0  0  0  0  0
    1.2368   -2.3760   -2.4067 H   0  0  0  0  0  0  0  0  0  0  0  0
    1.5809   -3.0052   -0.7809 H   0  0  0  0  0  0  0  0  0  0  0  0
    1.4730    0.0494   -2.2694 H   0  0  0  0  0  0  0  0  0  0  0  0
    0.5539    2.0615   -0.6980 H   0  0  0  0  0  0  0  0  0  0  0  0
  1  9  1  0  0  0  0
  1 11  1  0  0  0  0
  2  1  1  0  0  0  0
  3  2  1  0  0  0  0
  4  3  2  0  0  0  0
  4 12  1  0  0  0  0
  5  4  1  0  0  0  0
  6  5  1  0  0  0  0
  6 15  1  0  0  0  0
  7  5  1  0  0  0  0
  7  8  2  0  0  0  0
  8  3  1  0  0  0  0
 10  1  1  0  0  0  0
 13  6  1  0  0  0  0
 14  6  1  0  0  0  0
 16  7  1  0  0  0  0
 17  8  1  0  0  0  0
M  END
