title
 OpenBabel02282109573D

 16 16  0  0  0  0  0  0  0  0999 V2000
   -0.9288    2.3504   -1.4992 C   0  0  0  0  0  0  0  0  0  0  0  0
   -0.8848    0.9301   -1.5651 O   0  0  0  0  0  0  0  0  0  0  0  0
   -0.2952    0.3132   -0.5218 C   0  0  0  0  0  0  0  0  0  0  0  0
   -0.1465   -1.0475   -0.3849 C   0  0  0  0  0  0  0  0  0  0  0  0
    0.5068   -1.2075    0.8261 N   0  0  0  0  0  0  0  0  0  0  0  0
    0.8979   -2.4633    1.4286 C   0  0  0  0  0  0  0  0  0  0  0  0
    0.7076    0.0331    1.3333 C   0  0  0  0  0  0  0  0  0  0  0  0
    0.2346    0.9804    0.5437 N   0  0  0  0  0  0  0  0  0  0  0  0
    0.0778    2.7789   -1.4526 H   0  0  0  0  0  0  0  0  0  0  0  0
   -1.4312    2.6747   -2.4123 H   0  0  0  0  0  0  0  0  0  0  0  0
   -1.4886    2.6917   -0.6221 H   0  0  0  0  0  0  0  0  0  0  0  0
   -0.4306   -1.8789   -1.0054 H   0  0  0  0  0  0  0  0  0  0  0  0
    1.5926   -3.0079    0.7813 H   0  0  0  0  0  0  0  0  0  0  0  0
    1.3934   -2.2605    2.3801 H   0  0  0  0  0  0  0  0  0  0  0  0
    0.0244   -3.0956    1.6167 H   0  0  0  0  0  0  0  0  0  0  0  0
    1.2027    0.1899    2.2802 H   0  0  0  0  0  0  0  0  0  0  0  0
  1  9  1  0  0  0  0
  1 11  1  0  0  0  0
  2  1  1  0  0  0  0
  2  3  1  0  0  0  0
  3  4  1  0  0  0  0
  3  8  2  0  0  0  0
  4  5  1  0  0  0  0
  5  7  1  0  0  0  0
  5  6  1  0  0  0  0
  6 15  1  0  0  0  0
  6 14  1  0  0  0  0
  7 16  1  0  0  0  0
  8  7  1  0  0  0  0
 10  1  1  0  0  0  0
 12  4  1  0  0  0  0
 13  6  1  0  0  0  0
M  RAD  2   4   2   7   2
M  END
