17
title
C 0.36472836 2.8487453 -0.2740138
C -0.048265558 1.4297973 -0.48667854
C -0.65031534 0.81269217 -1.5620165
C -0.78266495 -0.5718668 -1.2553215
C -0.26688063 -0.7642103 0.005275339
C -0.18425106 -1.9663196 0.8804677
O 1.0574363 -1.9200854 1.5875657
N 0.1601011 0.4592796 0.46479306
H 1.4479268 2.9488864 -0.12750989
H 0.09474294 3.4480243 -1.1466225
H -0.12389068 3.2974148 0.60015815
H -0.955829 1.305472 -2.472989
H -1.2155943 -1.3373218 -1.8819038
H -1.0197147 -1.9886427 1.6011965
H -0.26888096 -2.869681 0.2590308
H 1.0321237 -2.5943213 2.2733698
H 0.68031925 0.5685249 1.319123
