16
title
C -0.28710774 2.8506908 0.103243016
C -0.5175165 1.3887836 0.20663376
C -1.598895 0.59823734 0.40975535
N -1.210705 -0.73716104 0.41646367
C 0.069764845 -0.7046515 0.22457036
C 1.0277616 -1.8445426 0.07924979
N 1.5471 -2.0592654 -1.2787148
O 0.5689789 0.55720586 0.085655004
H 0.40418255 3.204915 0.8761734
H 0.1385476 3.124599 -0.86872655
H -1.2341862 3.3816566 0.22282632
H -2.6267927 0.89262915 0.5528374
H 1.8827828 -1.6921548 0.7472295
H 0.5082625 -2.747627 0.40822104
H 0.7674066 -2.203051 -1.9151063
H 2.016247 -1.2155098 -1.5963994
