title
 OpenBabel02282109573D

 16 16  0  0  0  0  0  0  0  0999 V2000
    0.4481    2.8437   -0.2938 C   0  0  0  0  0  0  0  0  0  0  0  0
   -0.0127    1.4299   -0.4178 C   0  0  0  0  0  0  0  0  0  0  0  0
   -0.6794    0.9215   -1.4337 N   0  0  0  0  0  0  0  0  0  0  0  0
   -0.8709   -0.4064   -1.1260 C   0  0  0  0  0  0  0  0  0  0  0  0
   -0.3250   -0.7126    0.0935 C   0  0  0  0  0  0  0  0  0  0  0  0
   -0.2452   -1.9630    0.8989 C   0  0  0  0  0  0  0  0  0  0  0  0
    1.0848   -2.2575    1.3275 O   0  0  0  0  0  0  0  0  0  0  0  0
    0.2186    0.4797    0.5369 N   0  0  0  0  0  0  0  0  0  0  0  0
    1.5393    2.9127   -0.2138 H   0  0  0  0  0  0  0  0  0  0  0  0
    0.1327    3.3907   -1.1829 H   0  0  0  0  0  0  0  0  0  0  0  0
    0.0209    3.3369    0.5869 H   0  0  0  0  0  0  0  0  0  0  0  0
   -1.4002   -1.0690   -1.7950 H   0  0  0  0  0  0  0  0  0  0  0  0
   -0.8213   -1.8794    1.8286 H   0  0  0  0  0  0  0  0  0  0  0  0
   -0.6853   -2.7870    0.3198 H   0  0  0  0  0  0  0  0  0  0  0  0
    1.6284   -2.3295    0.5351 H   0  0  0  0  0  0  0  0  0  0  0  0
    0.7539    0.5858    1.3833 H   0  0  0  0  0  0  0  0  0  0  0  0
  1  9  1  0  0  0  0
  1 11  1  0  0  0  0
  2  1  1  0  0  0  0
  2  8  1  0  0  0  0
  3  4  1  0  0  0  0
  3  2  2  0  0  0  0
  4  5  2  0  0  0  0
  5  8  1  0  0  0  0
  5  6  1  0  0  0  0
  6  7  1  0  0  0  0
  6 13  1  0  0  0  0
  8 16  1  0  0  0  0
 10  1  1  0  0  0  0
 12  4  1  0  0  0  0
 14  6  1  0  0  0  0
 15  7  1  0  0  0  0
M  END
