title
 OpenBabel02282109573D

 15 15  0  0  0  0  0  0  0  0999 V2000
   -0.0706    2.8102   -0.3417 C   0  0  0  0  0  0  0  0  0  0  0  0
   -0.2209    1.3448   -0.5341 C   0  0  0  0  0  0  0  0  0  0  0  0
   -0.5231    0.6984   -1.6153 N   0  0  0  0  0  0  0  0  0  0  0  0
   -0.5178   -0.6390   -1.2365 C   0  0  0  0  0  0  0  0  0  0  0  0
   -0.2150   -0.7404    0.0786 C   0  0  0  0  0  0  0  0  0  0  0  0
   -0.0419   -1.8477    1.0561 C   0  0  0  0  0  0  0  0  0  0  0  0
    1.2995   -2.0041    1.5035 O   0  0  0  0  0  0  0  0  0  0  0  0
   -0.0217    0.5408    0.5459 O   0  0  0  0  0  0  0  0  0  0  0  0
    0.9415    3.0630   -0.0090 H   0  0  0  0  0  0  0  0  0  0  0  0
   -0.2692    3.3118   -1.2889 H   0  0  0  0  0  0  0  0  0  0  0  0
   -0.7692    3.1829    0.4146 H   0  0  0  0  0  0  0  0  0  0  0  0
   -0.7339   -1.4294   -1.9379 H   0  0  0  0  0  0  0  0  0  0  0  0
   -0.7246   -1.7038    1.9083 H   0  0  0  0  0  0  0  0  0  0  0  0
   -0.3168   -2.7873    0.5694 H   0  0  0  0  0  0  0  0  0  0  0  0
    1.5648   -1.1730    1.9112 H   0  0  0  0  0  0  0  0  0  0  0  0
  1  9  1  0  0  0  0
  1 11  1  0  0  0  0
  2  1  1  0  0  0  0
  2  8  1  0  0  0  0
  3  4  1  0  0  0  0
  3  2  2  0  0  0  0
  4  5  2  0  0  0  0
  5  8  1  0  0  0  0
  5  6  1  0  0  0  0
  6  7  1  0  0  0  0
  6 13  1  0  0  0  0
  7 15  1  0  0  0  0
 10  1  1  0  0  0  0
 12  4  1  0  0  0  0
 14  6  1  0  0  0  0
M  END
