title
 OpenBabel02282109573D

 19 19  0  0  0  0  0  0  0  0999 V2000
   -1.1709    2.1096   -1.7611 C   0  0  0  0  0  0  0  0  0  0  0  0
   -0.7902    0.6287   -1.9448 C   0  0  0  0  0  0  0  0  0  0  0  0
   -0.0295    0.0487   -0.7944 C   0  0  0  0  0  0  0  0  0  0  0  0
    1.2870   -0.3353   -0.6765 C   0  0  0  0  0  0  0  0  0  0  0  0
    1.4907   -0.7988    0.6552 C   0  0  0  0  0  0  0  0  0  0  0  0
    0.2947   -0.6903    1.3274 C   0  0  0  0  0  0  0  0  0  0  0  0
   -0.0805   -1.0299    2.7319 C   0  0  0  0  0  0  0  0  0  0  0  0
   -0.6176   -0.1725    0.4338 N   0  0  0  0  0  0  0  0  0  0  0  0
   -0.2765    2.7251   -1.6273 H   0  0  0  0  0  0  0  0  0  0  0  0
   -1.7211    2.4844   -2.6303 H   0  0  0  0  0  0  0  0  0  0  0  0
   -1.8043    2.2533   -0.8790 H   0  0  0  0  0  0  0  0  0  0  0  0
   -1.7025    0.0444   -2.1315 H   0  0  0  0  0  0  0  0  0  0  0  0
   -0.1742    0.5211   -2.8433 H   0  0  0  0  0  0  0  0  0  0  0  0
    2.0229   -0.2878   -1.4655 H   0  0  0  0  0  0  0  0  0  0  0  0
    2.4106   -1.1755    1.0772 H   0  0  0  0  0  0  0  0  0  0  0  0
   -0.4369   -0.1555    3.2918 H   0  0  0  0  0  0  0  0  0  0  0  0
   -0.8707   -1.7904    2.7807 H   0  0  0  0  0  0  0  0  0  0  0  0
    0.7889   -1.4263    3.2616 H   0  0  0  0  0  0  0  0  0  0  0  0
   -1.5844    0.0071    0.6451 H   0  0  0  0  0  0  0  0  0  0  0  0
  1  9  1  0  0  0  0
  1 11  1  0  0  0  0
  2  1  1  0  0  0  0
  2  3  1  0  0  0  0
  3  4  2  0  0  0  0
  3  8  1  0  0  0  0
  4  5  1  0  0  0  0
  5 15  1  0  0  0  0
  5  6  2  0  0  0  0
  6  7  1  0  0  0  0
  7 17  1  0  0  0  0
  7 18  1  0  0  0  0
  7 16  1  0  0  0  0
  8 19  1  0  0  0  0
  8  6  1  0  0  0  0
 10  1  1  0  0  0  0
 12  2  1  0  0  0  0
 13  2  1  0  0  0  0
 14  4  1  0  0  0  0
M  END
