19
title
C -1.1709445 2.1095848 -1.7611079
C -0.7901875 0.6287268 -1.9448286
C -0.029491503 0.04873441 -0.79438204
C 1.2870234 -0.33532566 -0.6765061
C 1.4906615 -0.79880726 0.6552225
C 0.2947419 -0.69033337 1.327429
C -0.0805303 -1.0299431 2.7319434
N -0.6176378 -0.17249419 0.43381912
H -0.2764739 2.7250793 -1.6273298
H -1.7210937 2.484388 -2.6303263
H -1.8042502 2.2532802 -0.87900144
H -1.7025402 0.044353113 -2.1314936
H -0.17417558 0.52106094 -2.8433056
H 2.022931 -0.28784078 -1.4654695
H 2.4105725 -1.1755303 1.0771623
H -0.43690765 -0.15547706 3.291814
H -0.8707457 -1.7904449 2.7807324
H 0.7888562 -1.4263033 3.2616484
H -1.5844262 0.007064328 0.6450675
