18
title
C -1.2097875 1.9826286 1.7463288
C -0.7544634 0.5261299 1.9438437
C 0.042057794 -0.0078546405 0.8037738
C 1.3232889 -0.44283527 0.671264
C 1.487335 -0.82513636 -0.7019796
C 0.2950048 -0.5959769 -1.3133467
C -0.19751032 -0.7765432 -2.7039294
O -0.59592664 -0.09683895 -0.40437192
H -0.3487495 2.650038 1.6434243
H -1.8185232 2.0776353 0.842949
H -1.807277 2.32171 2.5980973
H -0.14199169 0.44246787 2.8474329
H -1.6370038 -0.10733557 2.1046848
H 2.06243 -0.48794526 1.4562645
H 2.3756783 -1.2198108 -1.1706239
H -1.0445997 -1.4711998 -2.7464185
H -0.5322379 0.17146671 -3.1410942
H 0.60287035 -1.1767097 -3.3303676
