title
 OpenBabel02282109573D

 18 18  0  0  0  0  0  0  0  0999 V2000
    2.1352    2.1017   -0.0701 C   0  0  0  0  0  0  0  0  0  0  0  0
    2.0864    0.6159    0.3316 C   0  0  0  0  0  0  0  0  0  0  0  0
    0.7065    0.0415    0.3837 C   0  0  0  0  0  0  0  0  0  0  0  0
   -0.0575   -0.3895    1.4441 C   0  0  0  0  0  0  0  0  0  0  0  0
   -1.3109   -0.8435    0.9360 C   0  0  0  0  0  0  0  0  0  0  0  0
   -1.2840   -0.6682   -0.4289 C   0  0  0  0  0  0  0  0  0  0  0  0
   -2.2321   -0.8798   -1.4555 N   0  0  0  0  0  0  0  0  0  0  0  0
   -0.0607   -0.1307   -0.7518 N   0  0  0  0  0  0  0  0  0  0  0  0
    3.1659    2.4710   -0.0836 H   0  0  0  0  0  0  0  0  0  0  0  0
    1.7127    2.2615   -1.0681 H   0  0  0  0  0  0  0  0  0  0  0  0
    1.5593    2.7116    0.6323 H   0  0  0  0  0  0  0  0  0  0  0  0
    2.7144    0.0372   -0.3610 H   0  0  0  0  0  0  0  0  0  0  0  0
    2.5370    0.4934    1.3219 H   0  0  0  0  0  0  0  0  0  0  0  0
    0.2588   -0.3929    2.4768 H   0  0  0  0  0  0  0  0  0  0  0  0
   -2.1282   -1.2665    1.5006 H   0  0  0  0  0  0  0  0  0  0  0  0
   -3.1697   -0.8906   -1.0722 H   0  0  0  0  0  0  0  0  0  0  0  0
   -2.0914   -1.7679   -1.9303 H   0  0  0  0  0  0  0  0  0  0  0  0
    0.1850    0.1624   -1.6820 H   0  0  0  0  0  0  0  0  0  0  0  0
  1  2  1  0  0  0  0
  1 11  1  0  0  0  0
  2  3  1  0  0  0  0
  2 13  1  0  0  0  0
  3  4  2  0  0  0  0
  4 14  1  0  0  0  0
  5  4  1  0  0  0  0
  5 15  1  0  0  0  0
  6  5  2  0  0  0  0
  7 16  1  0  0  0  0
  7  6  1  0  0  0  0
  8  6  1  0  0  0  0
  8  3  1  0  0  0  0
  9  1  1  0  0  0  0
 10  1  1  0  0  0  0
 12  2  1  0  0  0  0
 17  7  1  0  0  0  0
 18  8  1  0  0  0  0
M  END
