17
title
C -1.1335337 2.0068758 1.786897
C -0.7707073 0.5197172 1.9468845
C 0.025628163 -0.028401148 0.81612515
C 1.2741746 -0.5413668 0.6894952
C 1.4520918 -0.908548 -0.6905422
C 0.28364158 -0.57773495 -1.3069727
N -0.14834027 -0.5978097 -2.6283271
O -0.5931746 -0.04464109 -0.42258143
H -0.23151843 2.6234841 1.7280766
H -1.7095584 2.1678505 0.8713268
H -1.7340211 2.354643 2.6333737
H -0.18804805 0.37228858 2.862275
H -1.6945096 -0.06255079 2.0700638
H 1.9916667 -0.6577138 1.4875611
H 2.3202655 -1.3538104 -1.149056
H 0.38143635 -1.2460192 -3.1948202
H -1.1396664 -0.7893888 -2.7080462
