title
 OpenBabel02282109573D

 17 17  0  0  0  0  0  0  0  0999 V2000
   -1.1335    2.0069    1.7869 C   0  0  0  0  0  0  0  0  0  0  0  0
   -0.7707    0.5197    1.9469 C   0  0  0  0  0  0  0  0  0  0  0  0
    0.0256   -0.0284    0.8161 C   0  0  0  0  0  0  0  0  0  0  0  0
    1.2742   -0.5414    0.6895 C   0  0  0  0  0  0  0  0  0  0  0  0
    1.4521   -0.9085   -0.6905 C   0  0  0  0  0  0  0  0  0  0  0  0
    0.2836   -0.5777   -1.3070 C   0  0  0  0  0  0  0  0  0  0  0  0
   -0.1483   -0.5978   -2.6283 N   0  0  0  0  0  0  0  0  0  0  0  0
   -0.5932   -0.0446   -0.4226 O   0  0  0  0  0  0  0  0  0  0  0  0
   -0.2315    2.6235    1.7281 H   0  0  0  0  0  0  0  0  0  0  0  0
   -1.7096    2.1679    0.8713 H   0  0  0  0  0  0  0  0  0  0  0  0
   -1.7340    2.3546    2.6334 H   0  0  0  0  0  0  0  0  0  0  0  0
   -0.1880    0.3723    2.8623 H   0  0  0  0  0  0  0  0  0  0  0  0
   -1.6945   -0.0626    2.0701 H   0  0  0  0  0  0  0  0  0  0  0  0
    1.9917   -0.6577    1.4876 H   0  0  0  0  0  0  0  0  0  0  0  0
    2.3203   -1.3538   -1.1491 H   0  0  0  0  0  0  0  0  0  0  0  0
    0.3814   -1.2460   -3.1948 H   0  0  0  0  0  0  0  0  0  0  0  0
   -1.1397   -0.7894   -2.7080 H   0  0  0  0  0  0  0  0  0  0  0  0
  1  2  1  0  0  0  0
  1 11  1  0  0  0  0
  2 13  1  0  0  0  0
  2 12  1  0  0  0  0
  3  2  1  0  0  0  0
  4  3  2  0  0  0  0
  4 14  1  0  0  0  0
  5  4  1  0  0  0  0
  6  5  2  0  0  0  0
  6  8  1  0  0  0  0
  7  6  1  0  0  0  0
  8  3  1  0  0  0  0
  9  1  1  0  0  0  0
 10  1  1  0  0  0  0
 15  5  1  0  0  0  0
 16  7  1  0  0  0  0
 17  7  1  0  0  0  0
M  END
