17
title
C 2.1767545 2.0681767 -0.04489207
C 2.0995264 0.58616173 0.36671308
C 0.7118462 0.032439213 0.40380564
C -0.074485816 -0.388472 1.4464273
C -1.3394656 -0.8131982 0.925219
C -1.271774 -0.63161933 -0.4332813
O -2.1413941 -0.85226357 -1.4546994
N -0.045345824 -0.12362768 -0.7516847
H 3.2133698 2.4205415 -0.050540682
H 1.7670555 2.2271628 -1.048339
H 1.6034124 2.6922686 0.6469393
H 2.7312589 -0.006147343 -0.31128705
H 2.5321264 0.46331662 1.3649365
H 0.22143169 -0.3950033 2.4849396
H -2.1804185 -1.2022179 1.4782072
H -2.9528527 -1.2111635 -1.0838944
H 0.2483259 0.0864131 -1.6899115
