17
title
C -0.9662573 2.0772855 -1.8257513
C -1.3046656 0.5896204 -1.6258429
C -0.6940929 0.00087755505 -0.4044137
C -1.1642339 -0.5431916 0.7431972
N -0.10091268 -0.92819875 1.5538602
C 0.9547075 -0.60605246 0.8770144
C 2.3830135 -0.7815117 1.246943
O 0.6795145 -0.034506086 -0.3274145
H 0.115005024 2.222002 -1.9005299
H -1.4256916 2.4574075 -2.7428842
H -1.3294328 2.676468 -0.9854868
H -2.3888338 0.45595938 -1.5517589
H -0.9798996 0.022686359 -2.508166
H -2.1896358 -0.68861943 1.0450454
H 2.9048016 -1.415298 0.5221448
H 2.905135 0.18062693 1.2780735
H 2.4371464 -1.247637 2.2309637
