16
title
C -1.0224967 2.071262 -1.8195978
C -1.2953417 0.5661966 -1.650081
C -0.69330025 -0.016458161 -0.423689
C -1.1535245 -0.6004166 0.70356166
N -0.09300907 -0.9689602 1.5341398
C 0.9513188 -0.5798692 0.873088
N 2.2679868 -0.62776905 1.2646829
O 0.696322 0.0038525993 -0.31907535
H 0.052355807 2.2679138 -1.8640721
H -1.4758935 2.4453726 -2.7424955
H -1.4333668 2.6385386 -0.9791943
H -2.3740056 0.38247463 -1.6042038
H -0.92715544 0.030790083 -2.5358262
H -2.1779406 -0.7935867 0.98171556
H 2.4221177 -1.2853525 2.014985
H 2.9278855 -0.7264994 0.5067481
