title
 OpenBabel02282109573D

 16 16  0  0  0  0  0  0  0  0999 V2000
   -1.0225    2.0713   -1.8196 C   0  0  0  0  0  0  0  0  0  0  0  0
   -1.2953    0.5662   -1.6501 C   0  0  0  0  0  0  0  0  0  0  0  0
   -0.6933   -0.0165   -0.4237 C   0  0  0  0  0  0  0  0  0  0  0  0
   -1.1535   -0.6004    0.7036 C   0  0  0  0  0  0  0  0  0  0  0  0
   -0.0930   -0.9690    1.5341 N   0  0  0  0  0  0  0  0  0  0  0  0
    0.9513   -0.5799    0.8731 C   0  0  0  0  0  0  0  0  0  0  0  0
    2.2680   -0.6278    1.2647 N   0  0  0  0  0  0  0  0  0  0  0  0
    0.6963    0.0039   -0.3191 O   0  0  0  0  0  0  0  0  0  0  0  0
    0.0524    2.2679   -1.8641 H   0  0  0  0  0  0  0  0  0  0  0  0
   -1.4759    2.4454   -2.7425 H   0  0  0  0  0  0  0  0  0  0  0  0
   -1.4334    2.6385   -0.9792 H   0  0  0  0  0  0  0  0  0  0  0  0
   -2.3740    0.3825   -1.6042 H   0  0  0  0  0  0  0  0  0  0  0  0
   -0.9272    0.0308   -2.5358 H   0  0  0  0  0  0  0  0  0  0  0  0
   -2.1779   -0.7936    0.9817 H   0  0  0  0  0  0  0  0  0  0  0  0
    2.4221   -1.2854    2.0150 H   0  0  0  0  0  0  0  0  0  0  0  0
    2.9279   -0.7265    0.5067 H   0  0  0  0  0  0  0  0  0  0  0  0
  1  2  1  0  0  0  0
  1 11  1  0  0  0  0
  2 12  1  0  0  0  0
  2  3  1  0  0  0  0
  3  8  1  0  0  0  0
  3  4  2  0  0  0  0
  4 14  1  0  0  0  0
  4  5  1  0  0  0  0
  6  7  1  0  0  0  0
  6  5  2  0  0  0  0
  7 15  1  0  0  0  0
  8  6  1  0  0  0  0
  9  1  1  0  0  0  0
 10  1  1  0  0  0  0
 13  2  1  0  0  0  0
 16  7  1  0  0  0  0
M  END
