title
 OpenBabel02282109573D

 16 16  0  0  0  0  0  0  0  0999 V2000
    2.1834    2.0905   -0.0447 C   0  0  0  0  0  0  0  0  0  0  0  0
    2.1089    0.6075    0.3624 C   0  0  0  0  0  0  0  0  0  0  0  0
    0.7267    0.0452    0.3690 C   0  0  0  0  0  0  0  0  0  0  0  0
   -0.0821   -0.4214    1.3652 C   0  0  0  0  0  0  0  0  0  0  0  0
   -1.3124   -0.8386    0.8728 N   0  0  0  0  0  0  0  0  0  0  0  0
   -1.2335   -0.6201   -0.4094 C   0  0  0  0  0  0  0  0  0  0  0  0
   -2.1804   -0.8632   -1.3337 O   0  0  0  0  0  0  0  0  0  0  0  0
   -0.0433   -0.0905   -0.7906 N   0  0  0  0  0  0  0  0  0  0  0  0
    3.2168    2.4498   -0.0205 H   0  0  0  0  0  0  0  0  0  0  0  0
    1.8019    2.2480   -1.0594 H   0  0  0  0  0  0  0  0  0  0  0  0
    1.5866    2.7089    0.6320 H   0  0  0  0  0  0  0  0  0  0  0  0
    2.7577    0.0189   -0.3017 H   0  0  0  0  0  0  0  0  0  0  0  0
    2.5188    0.4846    1.3702 H   0  0  0  0  0  0  0  0  0  0  0  0
    0.1466   -0.4863    2.4183 H   0  0  0  0  0  0  0  0  0  0  0  0
   -2.9312   -1.2341   -0.8533 H   0  0  0  0  0  0  0  0  0  0  0  0
    0.2218    0.1453   -1.7315 H   0  0  0  0  0  0  0  0  0  0  0  0
  1  9  1  0  0  0  0
  1  2  1  0  0  0  0
  1 11  1  0  0  0  0
  2  3  1  0  0  0  0
  2 13  1  0  0  0  0
  3  4  2  0  0  0  0
  4 14  1  0  0  0  0
  5  4  1  0  0  0  0
  6  5  2  0  0  0  0
  7 15  1  0  0  0  0
  7  6  1  0  0  0  0
  8  6  1  0  0  0  0
  8  3  1  0  0  0  0
 10  1  1  0  0  0  0
 12  2  1  0  0  0  0
 16  8  1  0  0  0  0
M  END
