title
 OpenBabel02282109573D

 15 15  0  0  0  0  0  0  0  0999 V2000
   -1.0853    2.1095   -1.7517 C   0  0  0  0  0  0  0  0  0  0  0  0
   -1.3276    0.5949   -1.6290 C   0  0  0  0  0  0  0  0  0  0  0  0
   -0.7036   -0.0143   -0.4268 C   0  0  0  0  0  0  0  0  0  0  0  0
   -1.1427   -0.6451    0.6842 C   0  0  0  0  0  0  0  0  0  0  0  0
   -0.0633   -1.0049    1.4989 N   0  0  0  0  0  0  0  0  0  0  0  0
    0.9538   -0.5698    0.8334 C   0  0  0  0  0  0  0  0  0  0  0  0
    2.2463   -0.6425    1.1468 O   0  0  0  0  0  0  0  0  0  0  0  0
    0.6868    0.0378   -0.3303 O   0  0  0  0  0  0  0  0  0  0  0  0
   -0.0152    2.3285   -1.8008 H   0  0  0  0  0  0  0  0  0  0  0  0
   -1.5555    2.5025   -2.6580 H   0  0  0  0  0  0  0  0  0  0  0  0
   -1.4995    2.6418   -0.8903 H   0  0  0  0  0  0  0  0  0  0  0  0
   -2.4017    0.3872   -1.5798 H   0  0  0  0  0  0  0  0  0  0  0  0
   -0.9550    0.0941   -2.5324 H   0  0  0  0  0  0  0  0  0  0  0  0
   -2.1590   -0.8733    0.9642 H   0  0  0  0  0  0  0  0  0  0  0  0
    2.2973   -1.0988    1.9963 H   0  0  0  0  0  0  0  0  0  0  0  0
  1  2  1  0  0  0  0
  1 11  1  0  0  0  0
  2 12  1  0  0  0  0
  2  3  1  0  0  0  0
  3  8  1  0  0  0  0
  3  4  2  0  0  0  0
  4 14  1  0  0  0  0
  4  5  1  0  0  0  0
  6  7  1  0  0  0  0
  6  5  2  0  0  0  0
  7 15  1  0  0  0  0
  8  6  1  0  0  0  0
  9  1  1  0  0  0  0
 10  1  1  0  0  0  0
 13  2  1  0  0  0  0
M  END
