15
title
C -1.0853485 2.1095276 -1.7517308
C -1.3275627 0.59491706 -1.6290088
C -0.703562 -0.014250848 -0.42680225
C -1.1427222 -0.6451337 0.6842068
N -0.063295595 -1.0048635 1.4988823
C 0.9538218 -0.56980115 0.83343846
O 2.2463222 -0.6424692 1.1467505
O 0.6867523 0.037805613 -0.33033666
H -0.015157693 2.3284538 -1.8007671
H -1.5554905 2.5025468 -2.6579666
H -1.4994994 2.6418443 -0.8903247
H -2.4016654 0.38716674 -1.5797993
H -0.9550026 0.09407311 -2.532416
H -2.158988 -0.87333614 0.9642337
H 2.2972796 -1.0988032 1.9963439
