title
 OpenBabel02282109573D

 17 17  0  0  0  0  0  0  0  0999 V2000
   -0.9326    1.9930   -1.8790 C   0  0  0  0  0  0  0  0  0  0  0  0
   -1.3155    0.5326   -1.5847 C   0  0  0  0  0  0  0  0  0  0  0  0
   -0.6734   -0.0064   -0.3532 C   0  0  0  0  0  0  0  0  0  0  0  0
   -1.2320   -0.4073    0.7442 N   0  0  0  0  0  0  0  0  0  0  0  0
   -0.1700   -0.7947    1.5551 C   0  0  0  0  0  0  0  0  0  0  0  0
    0.9998   -0.6052    0.8997 C   0  0  0  0  0  0  0  0  0  0  0  0
    2.4326   -0.8204    1.2184 C   0  0  0  0  0  0  0  0  0  0  0  0
    0.6868   -0.0950   -0.3370 O   0  0  0  0  0  0  0  0  0  0  0  0
    0.1486    2.0950   -2.0061 H   0  0  0  0  0  0  0  0  0  0  0  0
   -1.4182    2.3381   -2.7962 H   0  0  0  0  0  0  0  0  0  0  0  0
   -1.2418    2.6500   -1.0607 H   0  0  0  0  0  0  0  0  0  0  0  0
   -2.3950    0.4363   -1.4461 H   0  0  0  0  0  0  0  0  0  0  0  0
   -1.0383   -0.0961   -2.4400 H   0  0  0  0  0  0  0  0  0  0  0  0
   -0.3263   -1.1814    2.5499 H   0  0  0  0  0  0  0  0  0  0  0  0
    2.9000   -1.5240    0.5202 H   0  0  0  0  0  0  0  0  0  0  0  0
    3.0015    0.1151    1.1717 H   0  0  0  0  0  0  0  0  0  0  0  0
    2.5275   -1.2274    2.2277 H   0  0  0  0  0  0  0  0  0  0  0  0
  1  2  1  0  0  0  0
  1 11  1  0  0  0  0
  2 12  1  0  0  0  0
  2  3  1  0  0  0  0
  3  8  1  0  0  0  0
  3  4  2  0  0  0  0
  4  5  1  0  0  0  0
  5 14  1  0  0  0  0
  6  7  1  0  0  0  0
  6  5  2  0  0  0  0
  7 17  1  0  0  0  0
  8  6  1  0  0  0  0
  9  1  1  0  0  0  0
 10  1  1  0  0  0  0
 13  2  1  0  0  0  0
 15  7  1  0  0  0  0
 16  7  1  0  0  0  0
M  END
