17
title
C -0.93263745 1.9930391 -1.8789611
C -1.3155434 0.5326342 -1.5846514
C -0.6734282 -0.006430351 -0.3532147
N -1.231965 -0.40731236 0.74420357
C -0.17003748 -0.7947398 1.5550623
C 0.99975467 -0.60515743 0.89970136
C 2.4325874 -0.82040745 1.218359
O 0.6868292 -0.09499528 -0.33703813
H 0.14862314 2.0950396 -2.0060673
H -1.4182061 2.3381212 -2.7962265
H -1.2417508 2.6500099 -1.0606551
H -2.3949943 0.4362747 -1.4461021
H -1.0382609 -0.0960631 -2.439963
H -0.32628092 -1.181409 2.5499353
H 2.900038 -1.52403 0.5202136
H 3.0014846 0.115118004 1.1716967
H 2.5275397 -1.2273996 2.2276516
