16
title
C 2.1354737 2.0682561 -0.29942808
C 1.992103 0.7521701 0.4856996
C 0.61934996 0.16420776 0.43079224
N -0.24086164 0.10315318 1.4171436
C -1.3815775 -0.4955232 0.9097149
C -1.1894684 -0.79499817 -0.41065764
O -1.9292042 -1.3728389 -1.3888327
N 0.07949663 -0.37654924 -0.7188632
H 3.15266 2.462607 -0.2135155
H 1.9226655 1.9274355 -1.3647461
H 1.4409945 2.8225856 0.08136871
H 2.7295706 0.025974281 0.11775919
H 2.213998 0.921728 1.5423998
H -2.2547019 -0.67340684 1.5183406
H -2.7836254 -1.6151234 -1.0187733
H 0.5140281 -0.46949852 -1.621769
