title
 OpenBabel02282109573D

 16 16  0  0  0  0  0  0  0  0999 V2000
    2.1355    2.0683   -0.2994 C   0  0  0  0  0  0  0  0  0  0  0  0
    1.9921    0.7522    0.4857 C   0  0  0  0  0  0  0  0  0  0  0  0
    0.6193    0.1642    0.4308 C   0  0  0  0  0  0  0  0  0  0  0  0
   -0.2409    0.1032    1.4171 N   0  0  0  0  0  0  0  0  0  0  0  0
   -1.3816   -0.4955    0.9097 C   0  0  0  0  0  0  0  0  0  0  0  0
   -1.1895   -0.7950   -0.4107 C   0  0  0  0  0  0  0  0  0  0  0  0
   -1.9292   -1.3728   -1.3888 O   0  0  0  0  0  0  0  0  0  0  0  0
    0.0795   -0.3765   -0.7189 N   0  0  0  0  0  0  0  0  0  0  0  0
    3.1527    2.4626   -0.2135 H   0  0  0  0  0  0  0  0  0  0  0  0
    1.9227    1.9274   -1.3647 H   0  0  0  0  0  0  0  0  0  0  0  0
    1.4410    2.8226    0.0814 H   0  0  0  0  0  0  0  0  0  0  0  0
    2.7296    0.0260    0.1178 H   0  0  0  0  0  0  0  0  0  0  0  0
    2.2140    0.9217    1.5424 H   0  0  0  0  0  0  0  0  0  0  0  0
   -2.2547   -0.6734    1.5183 H   0  0  0  0  0  0  0  0  0  0  0  0
   -2.7836   -1.6151   -1.0188 H   0  0  0  0  0  0  0  0  0  0  0  0
    0.5140   -0.4695   -1.6218 H   0  0  0  0  0  0  0  0  0  0  0  0
  1  9  1  0  0  0  0
  1 11  1  0  0  0  0
  1  2  1  0  0  0  0
  2 13  1  0  0  0  0
  3  2  1  0  0  0  0
  3  4  2  0  0  0  0
  5  4  1  0  0  0  0
  5 14  1  0  0  0  0
  6  5  2  0  0  0  0
  7 15  1  0  0  0  0
  7  6  1  0  0  0  0
  8  6  1  0  0  0  0
  8  3  1  0  0  0  0
 10  1  1  0  0  0  0
 12  2  1  0  0  0  0
 16  8  1  0  0  0  0
M  END
