title
 OpenBabel02282109573D

 17 17  0  0  0  0  0  0  0  0999 V2000
   -1.1872    2.0674    1.4710 C   0  0  0  0  0  0  0  0  0  0  0  0
   -0.6809    0.7330    1.7842 N   0  0  0  0  0  0  0  0  0  0  0  0
   -0.3245   -0.0989    0.7361 C   0  0  0  0  0  0  0  0  0  0  0  0
   -0.4247   -1.4436    0.5324 C   0  0  0  0  0  0  0  0  0  0  0  0
    0.2463   -1.6959   -0.7145 C   0  0  0  0  0  0  0  0  0  0  0  0
    0.6882   -0.5036   -1.1845 C   0  0  0  0  0  0  0  0  0  0  0  0
    1.4140   -0.0706   -2.4048 C   0  0  0  0  0  0  0  0  0  0  0  0
    0.3426    0.4905   -0.2887 O   0  0  0  0  0  0  0  0  0  0  0  0
   -0.4321    2.6155    0.9047 H   0  0  0  0  0  0  0  0  0  0  0  0
   -2.1183    2.0595    0.8836 H   0  0  0  0  0  0  0  0  0  0  0  0
   -1.3659    2.6020    2.4070 H   0  0  0  0  0  0  0  0  0  0  0  0
   -1.2545    0.2411    2.4544 H   0  0  0  0  0  0  0  0  0  0  0  0
   -0.9108   -2.1585    1.1768 H   0  0  0  0  0  0  0  0  0  0  0  0
    0.3706   -2.6514   -1.2010 H   0  0  0  0  0  0  0  0  0  0  0  0
    0.8252    0.6352   -3.0038 H   0  0  0  0  0  0  0  0  0  0  0  0
    2.3642    0.4220   -2.1645 H   0  0  0  0  0  0  0  0  0  0  0  0
    1.6326   -0.9414   -3.0276 H   0  0  0  0  0  0  0  0  0  0  0  0
  1  2  1  0  0  0  0
  1 11  1  0  0  0  0
  2 12  1  0  0  0  0
  3  2  1  0  0  0  0
  4  3  2  0  0  0  0
  4 13  1  0  0  0  0
  5  4  1  0  0  0  0
  6  5  2  0  0  0  0
  6  8  1  0  0  0  0
  7 16  1  0  0  0  0
  7  6  1  0  0  0  0
  8  3  1  0  0  0  0
  9  1  1  0  0  0  0
 10  1  1  0  0  0  0
 14  5  1  0  0  0  0
 15  7  1  0  0  0  0
 17  7  1  0  0  0  0
M  END
