16
title
C 1.8120323 2.1548648 0.14149486
N 1.8745552 0.7761173 -0.33726323
C 0.808954 -0.06554386 -0.065546714
C 0.72733605 -1.395061 0.23391932
C -0.6759137 -1.6996562 0.26954338
C -1.349006 -0.5522007 0.01549581
N -2.7084684 -0.25073257 -0.040812407
O -0.4263116 0.47477514 -0.1974375
H 2.7013938 2.6864693 -0.20506202
H 0.93492186 2.6449752 -0.28504166
H 1.7533032 2.2392485 1.23767
H 2.7531672 0.32434082 -0.12641999
H 1.5530901 -2.068223 0.40073836
H -1.1341666 -2.6556377 0.4680529
H -2.967103 0.20188287 -0.9121094
H -3.0094929 0.35046434 0.72086656
