title
 OpenBabel02282109573D

 16 16  0  0  0  0  0  0  0  0999 V2000
    1.8120    2.1549    0.1415 C   0  0  0  0  0  0  0  0  0  0  0  0
    1.8746    0.7761   -0.3373 N   0  0  0  0  0  0  0  0  0  0  0  0
    0.8090   -0.0655   -0.0655 C   0  0  0  0  0  0  0  0  0  0  0  0
    0.7273   -1.3951    0.2339 C   0  0  0  0  0  0  0  0  0  0  0  0
   -0.6759   -1.6997    0.2695 C   0  0  0  0  0  0  0  0  0  0  0  0
   -1.3490   -0.5522    0.0155 C   0  0  0  0  0  0  0  0  0  0  0  0
   -2.7085   -0.2507   -0.0408 N   0  0  0  0  0  0  0  0  0  0  0  0
   -0.4263    0.4748   -0.1974 O   0  0  0  0  0  0  0  0  0  0  0  0
    2.7014    2.6865   -0.2051 H   0  0  0  0  0  0  0  0  0  0  0  0
    0.9349    2.6450   -0.2850 H   0  0  0  0  0  0  0  0  0  0  0  0
    1.7533    2.2392    1.2377 H   0  0  0  0  0  0  0  0  0  0  0  0
    2.7532    0.3243   -0.1264 H   0  0  0  0  0  0  0  0  0  0  0  0
    1.5531   -2.0682    0.4007 H   0  0  0  0  0  0  0  0  0  0  0  0
   -1.1342   -2.6556    0.4681 H   0  0  0  0  0  0  0  0  0  0  0  0
   -2.9671    0.2019   -0.9121 H   0  0  0  0  0  0  0  0  0  0  0  0
   -3.0095    0.3505    0.7209 H   0  0  0  0  0  0  0  0  0  0  0  0
  1 11  1  0  0  0  0
  2 12  1  0  0  0  0
  2  3  1  0  0  0  0
  2  1  1  0  0  0  0
  3  4  2  0  0  0  0
  4  5  1  0  0  0  0
  4 13  1  0  0  0  0
  5 14  1  0  0  0  0
  6  5  2  0  0  0  0
  7  6  1  0  0  0  0
  7 16  1  0  0  0  0
  8  3  1  0  0  0  0
  8  6  1  0  0  0  0
  9  1  1  0  0  0  0
 10  1  1  0  0  0  0
 15  7  1  0  0  0  0
M  END
