16
title
C -1.0975935 2.1216326 -1.5308112
N -0.65124905 0.75441813 -1.7988675
C -0.34156072 -0.056305945 -0.72515494
C -0.5362605 -1.366139 -0.41722456
N 0.12351233 -1.6486868 0.77830243
C 0.6573644 -0.5325289 1.1423717
C 1.4544226 -0.22144252 2.3555117
O 0.41954762 0.49804997 0.26295623
H -0.32341212 2.6487305 -0.9702623
H -1.2379646 2.6362195 -2.4840362
H -2.0354178 2.1727798 -0.95744586
H -1.2424053 0.26879427 -2.4589012
H -1.0893683 -2.1156468 -0.95915157
H 2.4497228 0.15529877 2.0958304
H 0.96496564 0.5413231 2.9714246
H 1.563182 -1.1331686 2.9437342
