title
 OpenBabel02282109573D

 15 15  0  0  0  0  0  0  0  0999 V2000
   -0.6169    1.9558    2.0213 C   0  0  0  0  0  0  0  0  0  0  0  0
   -1.2477    0.7379    1.5018 N   0  0  0  0  0  0  0  0  0  0  0  0
   -0.4929   -0.0328    0.6388 C   0  0  0  0  0  0  0  0  0  0  0  0
    0.0471   -1.2682    0.6997 C   0  0  0  0  0  0  0  0  0  0  0  0
    0.7560   -1.5607   -0.4625 N   0  0  0  0  0  0  0  0  0  0  0  0
    0.6086   -0.4887   -1.1820 C   0  0  0  0  0  0  0  0  0  0  0  0
    1.0520   -0.2817   -2.4661 N   0  0  0  0  0  0  0  0  0  0  0  0
   -0.1174    0.4948   -0.6227 O   0  0  0  0  0  0  0  0  0  0  0  0
    0.3030    1.6812    2.5450 H   0  0  0  0  0  0  0  0  0  0  0  0
   -0.3644    2.6917    1.2441 H   0  0  0  0  0  0  0  0  0  0  0  0
   -1.2927    2.4269    2.7408 H   0  0  0  0  0  0  0  0  0  0  0  0
   -2.1747    0.9322    1.1394 H   0  0  0  0  0  0  0  0  0  0  0  0
   -0.0280   -1.9729    1.5127 H   0  0  0  0  0  0  0  0  0  0  0  0
    1.7850   -0.9240   -2.7295 H   0  0  0  0  0  0  0  0  0  0  0  0
    1.2604    0.6800   -2.6916 H   0  0  0  0  0  0  0  0  0  0  0  0
  1  9  1  0  0  0  0
  1 11  1  0  0  0  0
  2  1  1  0  0  0  0
  3  4  2  0  0  0  0
  3  2  1  0  0  0  0
  4 13  1  0  0  0  0
  5  4  1  0  0  0  0
  6  8  1  0  0  0  0
  6  5  2  0  0  0  0
  7  6  1  0  0  0  0
  8  3  1  0  0  0  0
 10  1  1  0  0  0  0
 12  2  1  0  0  0  0
 14  7  1  0  0  0  0
 15  7  1  0  0  0  0
M  END
