title
 OpenBabel02282109573D

 14 14  0  0  0  0  0  0  0  0999 V2000
    2.0787    1.9705    0.3697 C   0  0  0  0  0  0  0  0  0  0  0  0
    1.9111    0.7506   -0.4284 N   0  0  0  0  0  0  0  0  0  0  0  0
    0.8048   -0.0250   -0.1529 C   0  0  0  0  0  0  0  0  0  0  0  0
    0.6200   -1.2731    0.3279 C   0  0  0  0  0  0  0  0  0  0  0  0
   -0.7400   -1.5699    0.4253 N   0  0  0  0  0  0  0  0  0  0  0  0
   -1.3037   -0.4844    0.0023 C   0  0  0  0  0  0  0  0  0  0  0  0
   -2.6070   -0.2312   -0.1100 O   0  0  0  0  0  0  0  0  0  0  0  0
   -0.4951    0.5069   -0.3699 O   0  0  0  0  0  0  0  0  0  0  0  0
    3.0272    2.4425    0.0992 H   0  0  0  0  0  0  0  0  0  0  0  0
    1.2700    2.7023    0.2342 H   0  0  0  0  0  0  0  0  0  0  0  0
    2.1216    1.6971    1.4275 H   0  0  0  0  0  0  0  0  0  0  0  0
    2.0184    0.9402   -1.4187 H   0  0  0  0  0  0  0  0  0  0  0  0
    1.3799   -1.9845    0.6092 H   0  0  0  0  0  0  0  0  0  0  0  0
   -3.0657   -1.0269    0.1900 H   0  0  0  0  0  0  0  0  0  0  0  0
  1 11  1  0  0  0  0
  2  3  1  0  0  0  0
  2  1  1  0  0  0  0
  3  4  2  0  0  0  0
  4  5  1  0  0  0  0
  4 13  1  0  0  0  0
  6  5  2  0  0  0  0
  7  6  1  0  0  0  0
  7 14  1  0  0  0  0
  8  3  1  0  0  0  0
  8  6  1  0  0  0  0
  9  1  1  0  0  0  0
 10  1  1  0  0  0  0
 12  2  1  0  0  0  0
M  END
