title
 OpenBabel02282109573D

 16 16  0  0  0  0  0  0  0  0999 V2000
   -1.0507    2.4130   -1.4786 C   0  0  0  0  0  0  0  0  0  0  0  0
   -0.8062    0.9795   -1.4820 N   0  0  0  0  0  0  0  0  0  0  0  0
   -0.2006    0.4215   -0.3929 C   0  0  0  0  0  0  0  0  0  0  0  0
    0.4415    1.0194    0.5636 N   0  0  0  0  0  0  0  0  0  0  0  0
    0.9037   -0.0393    1.3491 C   0  0  0  0  0  0  0  0  0  0  0  0
    0.5072   -1.2218    0.8335 C   0  0  0  0  0  0  0  0  0  0  0  0
    0.6636   -2.6493    1.1990 C   0  0  0  0  0  0  0  0  0  0  0  0
   -0.2224   -0.9312   -0.3164 O   0  0  0  0  0  0  0  0  0  0  0  0
   -0.1120    2.9319   -1.2755 H   0  0  0  0  0  0  0  0  0  0  0  0
   -1.4132    2.7102   -2.4650 H   0  0  0  0  0  0  0  0  0  0  0  0
   -1.7788    2.7242   -0.7169 H   0  0  0  0  0  0  0  0  0  0  0  0
   -1.5210    0.4011   -1.8962 H   0  0  0  0  0  0  0  0  0  0  0  0
    1.4881    0.1355    2.2392 H   0  0  0  0  0  0  0  0  0  0  0  0
   -0.3038   -3.1352    1.3743 H   0  0  0  0  0  0  0  0  0  0  0  0
    1.1781   -3.2180    0.4152 H   0  0  0  0  0  0  0  0  0  0  0  0
    1.2526   -2.7271    2.1161 H   0  0  0  0  0  0  0  0  0  0  0  0
  1  9  1  0  0  0  0
  1 11  1  0  0  0  0
  2  1  1  0  0  0  0
  2  3  1  0  0  0  0
  3  8  1  0  0  0  0
  3  4  2  0  0  0  0
  4  5  1  0  0  0  0
  5 13  1  0  0  0  0
  6  7  1  0  0  0  0
  6  5  2  0  0  0  0
  7 14  1  0  0  0  0
  7 16  1  0  0  0  0
  8  6  1  0  0  0  0
 10  1  1  0  0  0  0
 12  2  1  0  0  0  0
 15  7  1  0  0  0  0
M  END
