15
title
C 1.7878423 2.4419043 -0.118998736
N 1.6880134 1.0030628 0.06629152
C 0.45147806 0.42488015 0.029462935
N -0.7044901 1.0163423 0.11017263
C -1.6092625 -0.043274987 0.09838621
C -0.9664907 -1.2246315 -0.0012759443
N -1.3838375 -2.5466943 -0.06373692
O 0.41254598 -0.9216449 -0.04874484
H 2.8158827 2.751755 0.080880605
H 1.502134 2.7673006 -1.1287317
H 1.1239634 2.937278 0.59189266
H 2.4182513 0.44229037 -0.34490576
H -2.6741302 0.11724926 0.15748504
H -1.1390235 -3.0003426 -0.9383527
H -1.0234959 -3.1117456 0.69871753
