title
 OpenBabel02282109573D

 15 15  0  0  0  0  0  0  0  0999 V2000
   -0.8773    1.9899   -1.9172 C   0  0  0  0  0  0  0  0  0  0  0  0
   -1.3682    0.7213   -1.3841 N   0  0  0  0  0  0  0  0  0  0  0  0
   -0.5227   -0.0160   -0.5622 C   0  0  0  0  0  0  0  0  0  0  0  0
   -0.2889   -1.2977   -0.6567 N   0  0  0  0  0  0  0  0  0  0  0  0
    0.5238   -1.6143    0.4311 C   0  0  0  0  0  0  0  0  0  0  0  0
    0.7788   -0.4898    1.1550 C   0  0  0  0  0  0  0  0  0  0  0  0
    1.4986   -0.1873    2.2659 O   0  0  0  0  0  0  0  0  0  0  0  0
    0.1142    0.5423    0.5217 N   0  0  0  0  0  0  0  0  0  0  0  0
    0.0739    1.9049   -2.4643 H   0  0  0  0  0  0  0  0  0  0  0  0
   -1.6331    2.4037   -2.5889 H   0  0  0  0  0  0  0  0  0  0  0  0
   -0.7395    2.7143   -1.1074 H   0  0  0  0  0  0  0  0  0  0  0  0
   -1.7131    0.1048   -2.1090 H   0  0  0  0  0  0  0  0  0  0  0  0
    0.8777   -2.6189    0.6019 H   0  0  0  0  0  0  0  0  0  0  0  0
    1.9140   -0.9947    2.5835 H   0  0  0  0  0  0  0  0  0  0  0  0
    0.0347    1.4816    0.8714 H   0  0  0  0  0  0  0  0  0  0  0  0
  1  2  1  0  0  0  0
  1 11  1  0  0  0  0
  2  3  1  0  0  0  0
  3  8  1  0  0  0  0
  4  3  2  0  0  0  0
  4  5  1  0  0  0  0
  5 13  1  0  0  0  0
  5  6  2  0  0  0  0
  6  7  1  0  0  0  0
  7 14  1  0  0  0  0
  8 15  1  0  0  0  0
  8  6  1  0  0  0  0
  9  1  1  0  0  0  0
 10  1  1  0  0  0  0
 12  2  1  0  0  0  0
M  END
