title
 OpenBabel02282109573D

 16 16  0  0  0  0  0  0  0  0999 V2000
    1.7826    2.0104    0.0714 C   0  0  0  0  0  0  0  0  0  0  0  0
    1.9266    0.5951   -0.0078 O   0  0  0  0  0  0  0  0  0  0  0  0
    0.8055   -0.1353   -0.0175 C   0  0  0  0  0  0  0  0  0  0  0  0
    0.6349   -1.4824   -0.0636 C   0  0  0  0  0  0  0  0  0  0  0  0
   -0.7898   -1.6777   -0.0540 C   0  0  0  0  0  0  0  0  0  0  0  0
   -1.3733   -0.4543   -0.0030 C   0  0  0  0  0  0  0  0  0  0  0  0
   -2.7751    0.0322    0.0324 C   0  0  0  0  0  0  0  0  0  0  0  0
   -0.3833    0.5139    0.0199 O   0  0  0  0  0  0  0  0  0  0  0  0
    2.7969    2.4105    0.0717 H   0  0  0  0  0  0  0  0  0  0  0  0
    1.2291    2.4026   -0.7882 H   0  0  0  0  0  0  0  0  0  0  0  0
    1.2662    2.3069    0.9905 H   0  0  0  0  0  0  0  0  0  0  0  0
    1.4137   -2.2250   -0.0991 H   0  0  0  0  0  0  0  0  0  0  0  0
   -1.3113   -2.6224   -0.0816 H   0  0  0  0  0  0  0  0  0  0  0  0
   -2.9868    0.6111    0.9397 H   0  0  0  0  0  0  0  0  0  0  0  0
   -3.0094    0.6744   -0.8255 H   0  0  0  0  0  0  0  0  0  0  0  0
   -3.4563   -0.8218    0.0105 H   0  0  0  0  0  0  0  0  0  0  0  0
  1  9  1  0  0  0  0
  1 11  1  0  0  0  0
  2  1  1  0  0  0  0
  3  2  1  0  0  0  0
  3  8  1  0  0  0  0
  4  5  1  0  0  0  0
  4  3  2  0  0  0  0
  5  6  2  0  0  0  0
  6  8  1  0  0  0  0
  6  7  1  0  0  0  0
  7 14  1  0  0  0  0
 10  1  1  0  0  0  0
 12  4  1  0  0  0  0
 13  5  1  0  0  0  0
 15  7  1  0  0  0  0
 16  7  1  0  0  0  0
M  END
