16
title
C 1.7825669 2.010413 0.07138853
O 1.9266391 0.5951312 -0.0077658277
C 0.80554104 -0.13530277 -0.017519588
C 0.6348728 -1.4823719 -0.06363366
C -0.78984904 -1.6776515 -0.054040894
C -1.3732564 -0.4542877 -0.0029590896
C -2.7751212 0.032242373 0.032356568
O -0.38328794 0.5139335 0.019867301
H 2.7969353 2.4105282 0.07173715
H 1.2290987 2.4026294 -0.78819776
H 1.2662218 2.3068612 0.9904952
H 1.4136846 -2.2249916 -0.09914767
H -1.3113275 -2.6223614 -0.08164764
H -2.986784 0.61114746 0.93969536
H -3.0093508 0.67443657 -0.82548726
H -3.4562683 -0.82178754 0.010473821
