title
 OpenBabel02282109573D

 15 15  0  0  0  0  0  0  0  0999 V2000
    1.7854    2.0305   -0.0753 C   0  0  0  0  0  0  0  0  0  0  0  0
    1.9328    0.6145   -0.0331 O   0  0  0  0  0  0  0  0  0  0  0  0
    0.8120   -0.1174   -0.0018 C   0  0  0  0  0  0  0  0  0  0  0  0
    0.6556   -1.4678    0.0423 C   0  0  0  0  0  0  0  0  0  0  0  0
   -0.7649   -1.6798    0.0588 C   0  0  0  0  0  0  0  0  0  0  0  0
   -1.3680   -0.4670    0.0236 C   0  0  0  0  0  0  0  0  0  0  0  0
   -2.7043   -0.0781    0.0201 N   0  0  0  0  0  0  0  0  0  0  0  0
   -0.3772    0.5245   -0.0142 O   0  0  0  0  0  0  0  0  0  0  0  0
    2.7989    2.4325   -0.0953 H   0  0  0  0  0  0  0  0  0  0  0  0
    1.2428    2.3479   -0.9721 H   0  0  0  0  0  0  0  0  0  0  0  0
    1.2564    2.4023    0.8086 H   0  0  0  0  0  0  0  0  0  0  0  0
    1.4434   -2.2015    0.0603 H   0  0  0  0  0  0  0  0  0  0  0  0
   -1.2832   -2.6252    0.0924 H   0  0  0  0  0  0  0  0  0  0  0  0
   -2.9630    0.4382   -0.8150 H   0  0  0  0  0  0  0  0  0  0  0  0
   -2.9536    0.4856    0.8270 H   0  0  0  0  0  0  0  0  0  0  0  0
  1  2  1  0  0  0  0
  1 11  1  0  0  0  0
  2  3  1  0  0  0  0
  3  4  2  0  0  0  0
  4  5  1  0  0  0  0
  4 12  1  0  0  0  0
  5 13  1  0  0  0  0
  6  5  2  0  0  0  0
  7  6  1  0  0  0  0
  7 15  1  0  0  0  0
  8  3  1  0  0  0  0
  8  6  1  0  0  0  0
  9  1  1  0  0  0  0
 10  1  1  0  0  0  0
 14  7  1  0  0  0  0
M  END
