title
 OpenBabel02282109573D

 16 16  0  0  0  0  0  0  0  0999 V2000
   -1.5248    1.1307   -2.2987 C   0  0  0  0  0  0  0  0  0  0  0  0
   -0.4033    1.3240   -1.4499 O   0  0  0  0  0  0  0  0  0  0  0  0
   -0.2426    0.3645   -0.5173 C   0  0  0  0  0  0  0  0  0  0  0  0
   -0.9043   -0.7826   -0.1691 C   0  0  0  0  0  0  0  0  0  0  0  0
   -0.2577   -1.3792    0.9018 N   0  0  0  0  0  0  0  0  0  0  0  0
    0.7654   -0.6153    1.1930 C   0  0  0  0  0  0  0  0  0  0  0  0
    1.7612   -0.8476    2.2781 C   0  0  0  0  0  0  0  0  0  0  0  0
    0.8195    0.4722    0.3480 N   0  0  0  0  0  0  0  0  0  0  0  0
   -2.4567    1.1210   -1.7199 H   0  0  0  0  0  0  0  0  0  0  0  0
   -1.5340    1.9682   -2.9971 H   0  0  0  0  0  0  0  0  0  0  0  0
   -1.4384    0.1876   -2.8527 H   0  0  0  0  0  0  0  0  0  0  0  0
   -1.7884   -1.2131   -0.6094 H   0  0  0  0  0  0  0  0  0  0  0  0
    2.7804   -0.9535    1.8871 H   0  0  0  0  0  0  0  0  0  0  0  0
    1.7725   -0.0305    3.0096 H   0  0  0  0  0  0  0  0  0  0  0  0
    1.4947   -1.7694    2.7968 H   0  0  0  0  0  0  0  0  0  0  0  0
    1.4940    1.2188    0.3412 H   0  0  0  0  0  0  0  0  0  0  0  0
  1  9  1  0  0  0  0
  1  2  1  0  0  0  0
  2  3  1  0  0  0  0
  3  4  2  0  0  0  0
  3  8  1  0  0  0  0
  4  5  1  0  0  0  0
  5  6  2  0  0  0  0
  6  7  1  0  0  0  0
  7 15  1  0  0  0  0
  7 14  1  0  0  0  0
  8  6  1  0  0  0  0
 10  1  1  0  0  0  0
 11  1  1  0  0  0  0
 12  4  1  0  0  0  0
 13  7  1  0  0  0  0
 16  8  1  0  0  0  0
M  END
