16
title
C -1.5248034 1.1306614 -2.2987487
O -0.4032717 1.3240263 -1.4498763
C -0.2426437 0.36450896 -0.5173027
C -0.9043172 -0.78263825 -0.16910878
N -0.2576655 -1.3791642 0.9017759
C 0.7653748 -0.61526924 1.192974
C 1.7612045 -0.84756905 2.2780807
N 0.81945705 0.4721579 0.34802637
H -2.4567435 1.1210124 -1.7198708
H -1.5339624 1.9681879 -2.9971237
H -1.4383758 0.1875889 -2.8526843
H -1.7883765 -1.2131258 -0.6093984
H 2.780404 -0.953533 1.887108
H 1.7725041 -0.030513877 3.0096238
H 1.4946911 -1.7694069 2.7967842
H 1.4940112 1.2188258 0.341225
