title
 OpenBabel02282109573D

 15 15  0  0  0  0  0  0  0  0999 V2000
    1.8018    2.2906   -0.0334 C   0  0  0  0  0  0  0  0  0  0  0  0
    1.6939    0.8645   -0.1034 O   0  0  0  0  0  0  0  0  0  0  0  0
    0.4560    0.4023   -0.0183 C   0  0  0  0  0  0  0  0  0  0  0  0
   -0.6568    1.0464    0.1166 N   0  0  0  0  0  0  0  0  0  0  0  0
   -1.6085    0.0217    0.1448 C   0  0  0  0  0  0  0  0  0  0  0  0
   -1.0067   -1.1813    0.0248 C   0  0  0  0  0  0  0  0  0  0  0  0
   -1.4527   -2.5936   -0.0153 C   0  0  0  0  0  0  0  0  0  0  0  0
    0.3579   -0.9382   -0.0836 O   0  0  0  0  0  0  0  0  0  0  0  0
    2.8663    2.5089   -0.1151 H   0  0  0  0  0  0  0  0  0  0  0  0
    1.2486    2.7575   -0.8529 H   0  0  0  0  0  0  0  0  0  0  0  0
    1.4046    2.6588    0.9166 H   0  0  0  0  0  0  0  0  0  0  0  0
   -2.6606    0.2350    0.2509 H   0  0  0  0  0  0  0  0  0  0  0  0
   -1.1740   -3.0809   -0.9568 H   0  0  0  0  0  0  0  0  0  0  0  0
   -1.0162   -3.1814    0.8004 H   0  0  0  0  0  0  0  0  0  0  0  0
   -2.5404   -2.6345    0.0800 H   0  0  0  0  0  0  0  0  0  0  0  0
  1 11  1  0  0  0  0
  2  1  1  0  0  0  0
  2  3  1  0  0  0  0
  3  4  2  0  0  0  0
  4  5  1  0  0  0  0
  5 12  1  0  0  0  0
  6  5  2  0  0  0  0
  7  6  1  0  0  0  0
  7 15  1  0  0  0  0
  7 14  1  0  0  0  0
  8  3  1  0  0  0  0
  8  6  1  0  0  0  0
  9  1  1  0  0  0  0
 10  1  1  0  0  0  0
 13  7  1  0  0  0  0
M  END
