title
 OpenBabel02282109573D

 14 14  0  0  0  0  0  0  0  0999 V2000
   -0.9556    2.2573   -1.5941 C   0  0  0  0  0  0  0  0  0  0  0  0
   -0.8187    0.8337   -1.5226 O   0  0  0  0  0  0  0  0  0  0  0  0
   -0.2363    0.3903   -0.4180 C   0  0  0  0  0  0  0  0  0  0  0  0
    0.2187    1.0644    0.5904 N   0  0  0  0  0  0  0  0  0  0  0  0
    0.7114    0.0694    1.4363 C   0  0  0  0  0  0  0  0  0  0  0  0
    0.5269   -1.1515    0.8921 C   0  0  0  0  0  0  0  0  0  0  0  0
    0.8246   -2.4410    1.3052 N   0  0  0  0  0  0  0  0  0  0  0  0
   -0.1077   -0.9415   -0.3502 O   0  0  0  0  0  0  0  0  0  0  0  0
    0.0249    2.7396   -1.5558 H   0  0  0  0  0  0  0  0  0  0  0  0
   -1.4451    2.4572   -2.5471 H   0  0  0  0  0  0  0  0  0  0  0  0
   -1.5635    2.6266   -0.7636 H   0  0  0  0  0  0  0  0  0  0  0  0
    1.1679    0.3023    2.3849 H   0  0  0  0  0  0  0  0  0  0  0  0
    1.4695   -2.9174    0.6828 H   0  0  0  0  0  0  0  0  0  0  0  0
   -0.0002   -3.0221    1.4156 H   0  0  0  0  0  0  0  0  0  0  0  0
  1  9  1  0  0  0  0
  1  2  1  0  0  0  0
  1 11  1  0  0  0  0
  2  3  1  0  0  0  0
  3  8  1  0  0  0  0
  3  4  2  0  0  0  0
  4  5  1  0  0  0  0
  5 12  1  0  0  0  0
  6  7  1  0  0  0  0
  6  5  2  0  0  0  0
  7 14  1  0  0  0  0
  8  6  1  0  0  0  0
 10  1  1  0  0  0  0
 13  7  1  0  0  0  0
M  END
