title
 OpenBabel02282109573D

 14 14  0  0  0  0  0  0  0  0999 V2000
    1.7268    2.3987    0.1334 C   0  0  0  0  0  0  0  0  0  0  0  0
    1.7203    0.9717    0.0896 O   0  0  0  0  0  0  0  0  0  0  0  0
    0.4971    0.4265    0.0305 C   0  0  0  0  0  0  0  0  0  0  0  0
   -0.6570    1.0219    0.0091 N   0  0  0  0  0  0  0  0  0  0  0  0
   -1.5971   -0.0124   -0.0554 C   0  0  0  0  0  0  0  0  0  0  0  0
   -0.9572   -1.2140   -0.0706 C   0  0  0  0  0  0  0  0  0  0  0  0
   -1.3331   -2.5160   -0.1239 O   0  0  0  0  0  0  0  0  0  0  0  0
    0.3963   -0.9382   -0.0153 N   0  0  0  0  0  0  0  0  0  0  0  0
    2.7768    2.6898    0.1773 H   0  0  0  0  0  0  0  0  0  0  0  0
    1.2504    2.8157   -0.7590 H   0  0  0  0  0  0  0  0  0  0  0  0
    1.1912    2.7616    1.0157 H   0  0  0  0  0  0  0  0  0  0  0  0
   -2.6563    0.1877   -0.0859 H   0  0  0  0  0  0  0  0  0  0  0  0
   -2.2940   -2.5510   -0.1579 H   0  0  0  0  0  0  0  0  0  0  0  0
    1.1470   -1.6072   -0.0100 H   0  0  0  0  0  0  0  0  0  0  0  0
  1  9  1  0  0  0  0
  1 11  1  0  0  0  0
  2  1  1  0  0  0  0
  3  2  1  0  0  0  0
  4  3  2  0  0  0  0
  5  4  1  0  0  0  0
  6  5  2  0  0  0  0
  6  8  1  0  0  0  0
  7  6  1  0  0  0  0
  8 14  1  0  0  0  0
  8  3  1  0  0  0  0
 10  1  1  0  0  0  0
 12  5  1  0  0  0  0
 13  7  1  0  0  0  0
M  END
