title
 OpenBabel02282109573D

 16 16  0  0  0  0  0  0  0  0999 V2000
   -0.1910    2.7774   -0.4124 N   0  0  0  0  0  0  0  0  0  0  0  0
   -0.4599    1.4481   -0.0341 C   0  0  0  0  0  0  0  0  0  0  0  0
   -1.5730    0.8422    0.5099 C   0  0  0  0  0  0  0  0  0  0  0  0
   -1.2349   -0.5226    0.7447 C   0  0  0  0  0  0  0  0  0  0  0  0
    0.0653   -0.7164    0.3395 C   0  0  0  0  0  0  0  0  0  0  0  0
    0.9363   -1.9238    0.3367 C   0  0  0  0  0  0  0  0  0  0  0  0
    1.4730   -2.2252   -0.9547 O   0  0  0  0  0  0  0  0  0  0  0  0
    0.5273    0.5028   -0.1241 N   0  0  0  0  0  0  0  0  0  0  0  0
   -0.0679    2.8789   -1.4160 H   0  0  0  0  0  0  0  0  0  0  0  0
   -0.9508    3.3849   -0.1324 H   0  0  0  0  0  0  0  0  0  0  0  0
   -2.5216    1.3213    0.6989 H   0  0  0  0  0  0  0  0  0  0  0  0
   -1.8774   -1.2835    1.1627 H   0  0  0  0  0  0  0  0  0  0  0  0
    1.8209   -1.7911    0.9726 H   0  0  0  0  0  0  0  0  0  0  0  0
    0.3654   -2.7675    0.7508 H   0  0  0  0  0  0  0  0  0  0  0  0
    0.7248   -2.2795   -1.5596 H   0  0  0  0  0  0  0  0  0  0  0  0
    1.4565    0.6721   -0.4701 H   0  0  0  0  0  0  0  0  0  0  0  0
  1 10  1  0  0  0  0
  1  2  1  0  0  0  0
  2  3  2  0  0  0  0
  3 11  1  0  0  0  0
  3  4  1  0  0  0  0
  4 12  1  0  0  0  0
  5  4  2  0  0  0  0
  6  5  1  0  0  0  0
  6 14  1  0  0  0  0
  6 13  1  0  0  0  0
  7  6  1  0  0  0  0
  8  2  1  0  0  0  0
  8  5  1  0  0  0  0
  9  1  1  0  0  0  0
 15  7  1  0  0  0  0
 16  8  1  0  0  0  0
M  END
