16
title
N -0.19096059 2.7773666 -0.4124366
C -0.45990118 1.4480569 -0.034097534
C -1.5730069 0.84217334 0.5099443
C -1.2348841 -0.5226326 0.7447334
C 0.065315396 -0.71638465 0.33948708
C 0.9363145 -1.9237857 0.33665672
O 1.4729844 -2.225228 -0.95467454
N 0.5272961 0.50278926 -0.12406683
H -0.06785864 2.878866 -1.4159838
H -0.9507994 3.384942 -0.13238217
H -2.521626 1.3213178 0.69891006
H -1.8774084 -1.2835467 1.1627209
H 1.8208534 -1.7910852 0.97261655
H 0.36541817 -2.7675107 0.75079715
H 0.72484106 -2.2794585 -1.5595618
H 1.4565256 0.6721433 -0.4700835
