title
 OpenBabel02282109573D

 15 15  0  0  0  0  0  0  0  0999 V2000
   -0.3181    2.7215    0.1626 N   0  0  0  0  0  0  0  0  0  0  0  0
   -0.5856    1.3602    0.1716 C   0  0  0  0  0  0  0  0  0  0  0  0
   -1.7272    0.6256    0.3044 C   0  0  0  0  0  0  0  0  0  0  0  0
   -1.3003   -0.7451    0.3313 C   0  0  0  0  0  0  0  0  0  0  0  0
    0.0506   -0.7532    0.2181 C   0  0  0  0  0  0  0  0  0  0  0  0
    1.0963   -1.8036    0.1446 C   0  0  0  0  0  0  0  0  0  0  0  0
    1.6746   -1.9596   -1.1521 O   0  0  0  0  0  0  0  0  0  0  0  0
    0.5015    0.5559    0.1215 O   0  0  0  0  0  0  0  0  0  0  0  0
    0.4991    2.9569   -0.3860 H   0  0  0  0  0  0  0  0  0  0  0  0
   -1.1137    3.2742   -0.1248 H   0  0  0  0  0  0  0  0  0  0  0  0
   -2.7335    1.0055    0.3749 H   0  0  0  0  0  0  0  0  0  0  0  0
   -1.9298   -1.6175    0.4187 H   0  0  0  0  0  0  0  0  0  0  0  0
    1.8822   -1.6070    0.8911 H   0  0  0  0  0  0  0  0  0  0  0  0
    0.6401   -2.7660    0.3915 H   0  0  0  0  0  0  0  0  0  0  0  0
    2.0226   -1.0995   -1.4088 H   0  0  0  0  0  0  0  0  0  0  0  0
  1  2  1  0  0  0  0
  2  3  2  0  0  0  0
  3  4  1  0  0  0  0
  3 11  1  0  0  0  0
  4 12  1  0  0  0  0
  5  4  2  0  0  0  0
  6  5  1  0  0  0  0
  6 14  1  0  0  0  0
  6 13  1  0  0  0  0
  7  6  1  0  0  0  0
  8  2  1  0  0  0  0
  8  5  1  0  0  0  0
  9  1  1  0  0  0  0
 10  1  1  0  0  0  0
 15  7  1  0  0  0  0
M  END
