title
 OpenBabel02282109573D

 14 14  0  0  0  0  0  0  0  0999 V2000
   -0.3980    2.7490    0.1899 N   0  0  0  0  0  0  0  0  0  0  0  0
   -0.5784    1.3788    0.1623 C   0  0  0  0  0  0  0  0  0  0  0  0
   -1.6507    0.5407    0.2117 C   0  0  0  0  0  0  0  0  0  0  0  0
   -1.1847   -0.7685    0.2625 N   0  0  0  0  0  0  0  0  0  0  0  0
    0.1035   -0.6750    0.2380 C   0  0  0  0  0  0  0  0  0  0  0  0
    1.1149   -1.7666    0.1801 C   0  0  0  0  0  0  0  0  0  0  0  0
    1.5959   -2.0099   -1.1387 O   0  0  0  0  0  0  0  0  0  0  0  0
    0.5503    0.6253    0.1782 O   0  0  0  0  0  0  0  0  0  0  0  0
    0.4090    3.0558   -0.3383 H   0  0  0  0  0  0  0  0  0  0  0  0
   -1.2255    3.2613   -0.0813 H   0  0  0  0  0  0  0  0  0  0  0  0
   -2.7011    0.7805    0.2203 H   0  0  0  0  0  0  0  0  0  0  0  0
    1.9957   -1.4988    0.7703 H   0  0  0  0  0  0  0  0  0  0  0  0
    0.6583   -2.6614    0.6217 H   0  0  0  0  0  0  0  0  0  0  0  0
    0.8350   -2.2604   -1.6740 H   0  0  0  0  0  0  0  0  0  0  0  0
  2  8  1  0  0  0  0
  2  1  1  0  0  0  0
  2  3  2  0  0  0  0
  3 11  1  0  0  0  0
  3  4  1  0  0  0  0
  5  4  2  0  0  0  0
  6  5  1  0  0  0  0
  6 13  1  0  0  0  0
  6 12  1  0  0  0  0
  7  6  1  0  0  0  0
  8  5  1  0  0  0  0
  9  1  1  0  0  0  0
 10  1  1  0  0  0  0
 14  7  1  0  0  0  0
M  END
