14
title
N -0.3979772 2.748993 0.18994373
C -0.5784235 1.3788172 0.1623476
C -1.6507328 0.54068637 0.21171288
N -1.1847376 -0.76847315 0.2624793
C 0.1035365 -0.67504764 0.23801264
C 1.1149366 -1.7666392 0.1801397
O 1.5958996 -2.0098882 -1.1386667
O 0.5503094 0.62532693 0.17815475
H 0.4090399 3.0558012 -0.3382772
H -1.2254964 3.2612627 -0.081318654
H -2.7011294 0.7805345 0.22034994
H 1.9956939 -1.4987566 0.77031386
H 0.6583451 -2.6614246 0.62169677
H 0.8349798 -2.2604337 -1.6740397
