14
title
N -0.3317799 2.6896362 0.15145327
C -0.5358142 1.3342427 0.188478
N -1.6510903 0.7013476 0.3870736
C -1.2640781 -0.6369365 0.40114897
C 0.0679589 -0.7480772 0.21013305
C 1.0532299 -1.8515788 0.1026647
O 1.5785944 -2.0333827 -1.210133
O 0.5589714 0.55120146 0.071048886
H 0.4483258 2.9896572 -0.41413596
H -1.1799561 3.2093787 -0.018526735
H -1.9823259 -1.4286066 0.54764736
H 1.8687282 -1.7014989 0.82752115
H 0.5505042 -2.7869656 0.36309454
H 2.0080729 -1.2095131 -1.4623092
