15
title
O 2.4692793 1.1465677 -0.7917962
C 1.796116 1.1333115 0.47044143
C 0.42078573 0.5721029 0.38791028
C -0.8007378 1.0571393 0.78644997
C -1.7983377 0.082788154 0.47157165
C -1.1351545 -0.9656849 -0.12286549
O -1.5429943 -2.1489727 -0.646552
N 0.19637567 -0.6823995 -0.16461003
H 1.8989124 1.6219585 -1.4061766
H 2.446127 0.5290962 1.1160183
H 1.7391509 2.1365857 0.9168914
H -0.96637887 2.0074492 1.2719258
H -2.8593645 0.14547668 0.6572484
H -2.5002012 -2.1996825 -0.56747687
H 0.8909158 -1.24556 -0.625531
