14
title
O 2.0122876 2.1605806 0.3306787
C 2.0064821 0.78978026 -0.027971419
C 0.5879988 0.32815215 -0.04960773
C -0.59667104 0.99592197 -0.14993615
N -1.6705188 0.113591164 -0.14301755
C -1.1219705 -1.063749 -0.042268004
O -1.7495195 -2.2526536 0.0030859748
N 0.23443492 -1.0197158 0.019902132
H 2.8719552 2.5236523 0.09979122
H 2.4798295 0.6415409 -1.0142801
H 2.5869858 0.18246868 0.6904314
H -0.7425708 2.0614133 -0.21605414
H -2.6933959 -2.0571046 -0.05182407
H 0.84589654 -1.8119494 0.11985595
