title
 OpenBabel02282109573D

 14 14  0  0  0  0  0  0  0  0999 V2000
    2.2130    1.6794   -0.3655 O   0  0  0  0  0  0  0  0  0  0  0  0
    2.1072    0.3884    0.2313 C   0  0  0  0  0  0  0  0  0  0  0  0
    0.7414   -0.1962    0.0766 C   0  0  0  0  0  0  0  0  0  0  0  0
    0.4364   -1.4284   -0.2477 N   0  0  0  0  0  0  0  0  0  0  0  0
   -0.9448   -1.4981   -0.2411 C   0  0  0  0  0  0  0  0  0  0  0  0
   -1.4628   -0.2716    0.0850 C   0  0  0  0  0  0  0  0  0  0  0  0
   -2.7087    0.2401    0.2207 O   0  0  0  0  0  0  0  0  0  0  0  0
   -0.3921    0.5550    0.2934 N   0  0  0  0  0  0  0  0  0  0  0  0
    2.0620    1.5710   -1.3109 H   0  0  0  0  0  0  0  0  0  0  0  0
    2.8309   -0.3312   -0.1712 H   0  0  0  0  0  0  0  0  0  0  0  0
    2.3528    0.5492    1.2880 H   0  0  0  0  0  0  0  0  0  0  0  0
   -1.4743   -2.4088   -0.4750 H   0  0  0  0  0  0  0  0  0  0  0  0
   -3.3460   -0.4538    0.0254 H   0  0  0  0  0  0  0  0  0  0  0  0
   -0.4285    1.5402    0.4975 H   0  0  0  0  0  0  0  0  0  0  0  0
  1  2  1  0  0  0  0
  2 11  1  0  0  0  0
  3  2  1  0  0  0  0
  3  8  1  0  0  0  0
  4  5  1  0  0  0  0
  4  3  2  0  0  0  0
  5  6  2  0  0  0  0
  6  7  1  0  0  0  0
  6  8  1  0  0  0  0
  8 14  1  0  0  0  0
  9  1  1  0  0  0  0
 10  2  1  0  0  0  0
 12  5  1  0  0  0  0
 13  7  1  0  0  0  0
M  END
