15
title
C -1.0731473 1.9533463 1.9140229
C -0.8489917 0.43188527 1.9572561
C -0.07097489 -0.081405416 0.80094653
C 1.1093156 -0.7050632 0.6817954
N 1.3099723 -0.9298637 -0.6826039
C 0.24722207 -0.44073772 -1.4058437
O 0.048938274 -0.44232982 -2.5897322
O -0.6160109 0.091420606 -0.4623442
H -0.11990279 2.4897277 1.9396745
H -1.5978662 2.2402205 0.9990929
H -1.6732376 2.2769165 2.7692118
H -0.31616884 0.15027894 2.8717597
H -1.8219502 -0.07569213 1.9907144
H 1.8185422 -1.0085174 1.4321657
H 2.093253 -1.3807153 -1.1198399
