title
 OpenBabel02282109573D

 15 15  0  0  0  0  0  0  0  0999 V2000
   -1.0731    1.9533    1.9140 C   0  0  0  0  0  0  0  0  0  0  0  0
   -0.8490    0.4319    1.9573 C   0  0  0  0  0  0  0  0  0  0  0  0
   -0.0710   -0.0814    0.8009 C   0  0  0  0  0  0  0  0  0  0  0  0
    1.1093   -0.7051    0.6818 C   0  0  0  0  0  0  0  0  0  0  0  0
    1.3100   -0.9299   -0.6826 N   0  0  0  0  0  0  0  0  0  0  0  0
    0.2472   -0.4407   -1.4058 C   0  0  0  0  0  0  0  0  0  0  0  0
    0.0489   -0.4423   -2.5897 O   0  0  0  0  0  0  0  0  0  0  0  0
   -0.6160    0.0914   -0.4623 O   0  0  0  0  0  0  0  0  0  0  0  0
   -0.1199    2.4897    1.9397 H   0  0  0  0  0  0  0  0  0  0  0  0
   -1.5979    2.2402    0.9991 H   0  0  0  0  0  0  0  0  0  0  0  0
   -1.6732    2.2769    2.7692 H   0  0  0  0  0  0  0  0  0  0  0  0
   -0.3162    0.1503    2.8718 H   0  0  0  0  0  0  0  0  0  0  0  0
   -1.8220   -0.0757    1.9907 H   0  0  0  0  0  0  0  0  0  0  0  0
    1.8185   -1.0085    1.4322 H   0  0  0  0  0  0  0  0  0  0  0  0
    2.0933   -1.3807   -1.1198 H   0  0  0  0  0  0  0  0  0  0  0  0
  1  9  1  0  0  0  0
  1  2  1  0  0  0  0
  1 11  1  0  0  0  0
  2 13  1  0  0  0  0
  2 12  1  0  0  0  0
  3  2  1  0  0  0  0
  4  3  2  0  0  0  0
  4 14  1  0  0  0  0
  5  4  1  0  0  0  0
  6  5  1  0  0  0  0
  6  8  1  0  0  0  0
  7  6  2  0  0  0  0
  8  3  1  0  0  0  0
 10  1  1  0  0  0  0
 15  5  1  0  0  0  0
M  END
