15
title
C 2.1407619 2.1238651 -0.019956406
C 2.1115618 0.6123486 -0.3079634
C 0.7395142 0.029453713 -0.31182927
C 0.0180121 -0.5414824 -1.2865108
O -1.2210078 -0.9251749 -0.8128334
C -1.2995248 -0.58560246 0.5246234
O -2.2501903 -0.7869263 1.2289016
N -0.0877418 0.001964648 0.8184063
H 3.1689577 2.4962616 -0.030358877
H 1.5667077 2.6740727 -0.7708223
H 1.7136306 2.3555973 0.96107405
H 2.5643973 0.41177747 -1.2841051
H 2.7311409 0.088379525 0.43241975
H 0.22891599 -0.74557513 -2.3214617
H 0.12940222 0.3418791 1.7384162
