14
title
C 2.3495104 1.9865646 -0.710381
C 1.916392 0.9039512 0.28256577
C 0.5708615 0.35140225 -0.0146430945
C -0.35086113 0.57957995 -0.9486014
O -1.4390119 -0.24832872 -0.73043984
C -1.1599554 -1.0009588 0.37511662
O -1.8664964 -1.8237333 0.8600715
O 0.08134097 -0.6388106 0.8271112
H 3.3423562 2.3622098 -0.45244476
H 2.3928845 1.5934705 -1.7306725
H 1.6562657 2.833157 -0.7003901
H 2.6410162 0.07945004 0.28797963
H 1.9138205 1.3032067 1.3050407
H -0.40318948 1.2469134 -1.7893102
