14
title
C 2.0493279 2.0914185 0.33275396
N 1.8600713 0.87466997 -0.4674536
C 0.7746861 0.069367364 -0.14067033
C 0.66916597 -1.2027047 0.2764084
O -0.67168427 -1.5635617 0.34668487
C -1.4359717 -0.4803718 -0.019516833
O -2.6348186 -0.47182605 -0.07689618
N -0.5365522 0.5354542 -0.28732014
H 2.9046621 2.6426847 -0.06435901
H 1.1687982 2.7329214 0.2424352
H 2.2154615 1.8902495 1.4009819
H 2.7076633 0.32365146 -0.50725585
H 1.3936436 -1.9518511 0.5392761
H -0.8137603 1.3809841 -0.7548023
