13
title
C -1.2115965 1.9421798 1.569204
O -0.65302783 0.6407417 1.8081644
C -0.32796058 -0.054584943 0.72189826
C -0.5565367 -1.3300426 0.38748765
N 0.1341991 -1.5314871 -0.8215358
C 0.7486622 -0.37711534 -1.2274215
O 1.4040638 -0.13987973 -2.2039006
O 0.45815393 0.5580401 -0.23335779
H -0.503599 2.5768435 1.0302602
H -2.1433024 1.860146 0.99800414
H -1.4156353 2.3639 2.5534263
H -1.1136398 -2.099543 0.88901556
H 0.1746343 -2.3770041 -1.3614366
