title
 OpenBabel02282109573D

 13 13  0  0  0  0  0  0  0  0999 V2000
   -1.2116    1.9422    1.5692 C   0  0  0  0  0  0  0  0  0  0  0  0
   -0.6530    0.6407    1.8082 O   0  0  0  0  0  0  0  0  0  0  0  0
   -0.3280   -0.0546    0.7219 C   0  0  0  0  0  0  0  0  0  0  0  0
   -0.5565   -1.3300    0.3875 C   0  0  0  0  0  0  0  0  0  0  0  0
    0.1342   -1.5315   -0.8215 N   0  0  0  0  0  0  0  0  0  0  0  0
    0.7487   -0.3771   -1.2274 C   0  0  0  0  0  0  0  0  0  0  0  0
    1.4041   -0.1399   -2.2039 O   0  0  0  0  0  0  0  0  0  0  0  0
    0.4582    0.5580   -0.2334 O   0  0  0  0  0  0  0  0  0  0  0  0
   -0.5036    2.5768    1.0303 H   0  0  0  0  0  0  0  0  0  0  0  0
   -2.1433    1.8601    0.9980 H   0  0  0  0  0  0  0  0  0  0  0  0
   -1.4156    2.3639    2.5534 H   0  0  0  0  0  0  0  0  0  0  0  0
   -1.1136   -2.0995    0.8890 H   0  0  0  0  0  0  0  0  0  0  0  0
    0.1746   -2.3770   -1.3614 H   0  0  0  0  0  0  0  0  0  0  0  0
  1  2  1  0  0  0  0
  1 11  1  0  0  0  0
  3  2  1  0  0  0  0
  4  3  2  0  0  0  0
  4 12  1  0  0  0  0
  5  4  1  0  0  0  0
  6  5  1  0  0  0  0
  6  8  1  0  0  0  0
  7  6  2  0  0  0  0
  8  3  1  0  0  0  0
  9  1  1  0  0  0  0
 10  1  1  0  0  0  0
 13  5  1  0  0  0  0
M  END
