title
 OpenBabel02282109573D

 13 13  0  0  0  0  0  0  0  0999 V2000
    2.1391    1.9045    0.2173 C   0  0  0  0  0  0  0  0  0  0  0  0
    1.8033    0.7890   -0.6196 O   0  0  0  0  0  0  0  0  0  0  0  0
    0.7434    0.0720   -0.2152 C   0  0  0  0  0  0  0  0  0  0  0  0
    0.6630   -1.1558    0.3110 C   0  0  0  0  0  0  0  0  0  0  0  0
   -0.6695   -1.4901    0.4949 O   0  0  0  0  0  0  0  0  0  0  0  0
   -1.4568   -0.4406    0.0671 C   0  0  0  0  0  0  0  0  0  0  0  0
   -2.6560   -0.4391    0.0734 O   0  0  0  0  0  0  0  0  0  0  0  0
   -0.5736    0.5415   -0.3394 N   0  0  0  0  0  0  0  0  0  0  0  0
    3.0170    2.3693   -0.2325 H   0  0  0  0  0  0  0  0  0  0  0  0
    1.3212    2.6333    0.2588 H   0  0  0  0  0  0  0  0  0  0  0  0
    2.3729    1.5659    1.2326 H   0  0  0  0  0  0  0  0  0  0  0  0
    1.4043   -1.8812    0.5909 H   0  0  0  0  0  0  0  0  0  0  0  0
   -0.8720    1.3549   -0.8491 H   0  0  0  0  0  0  0  0  0  0  0  0
  1 10  1  0  0  0  0
  1 11  1  0  0  0  0
  2  3  1  0  0  0  0
  2  1  1  0  0  0  0
  3  4  2  0  0  0  0
  4  5  1  0  0  0  0
  4 12  1  0  0  0  0
  6  7  2  0  0  0  0
  6  5  1  0  0  0  0
  8  3  1  0  0  0  0
  8  6  1  0  0  0  0
  9  1  1  0  0  0  0
 13  8  1  0  0  0  0
M  END
