13
title
O 2.002716 2.1667085 -0.010017212
C 2.0183938 0.7546724 -0.015398761
C 0.6031001 0.2895231 -0.0045763343
C -0.5454903 0.9758979 0.0068501704
O -1.6179981 0.10433541 0.013709205
C -1.1337435 -1.1883426 0.005853214
O -1.8120644 -2.178354 0.009971728
N 0.24081558 -1.0601783 -0.005081341
H 2.911453 2.47963 -0.017249648
H 2.5320957 0.35427937 -0.9070957
H 2.5478399 0.34764916 0.86400855
H -0.75934345 2.0282283 0.011458076
H 0.848841 -1.8597744 -0.010735292
