12
title
O 2.512863 1.3372316 -0.9463606
C 1.9893401 0.6964389 0.1979237
C 0.60650027 0.19311085 -0.050996024
C -0.13153754 0.07343432 -1.1518465
O -1.3664933 -0.45041904 -0.80913734
C -1.3634919 -0.65407085 0.5418613
O -2.2554004 -1.0950203 1.1891615
O -0.14107524 -0.25352922 1.0245097
H 2.0259836 2.1584945 -1.0744642
H 2.662967 -0.13916674 0.42146963
H 1.984699 1.3443671 1.0877948
H 0.05116226 0.28409243 -2.1892943
