title
 OpenBabel02282109573D

 12 12  0  0  0  0  0  0  0  0999 V2000
    2.5129    1.3372   -0.9464 O   0  0  0  0  0  0  0  0  0  0  0  0
    1.9893    0.6964    0.1979 C   0  0  0  0  0  0  0  0  0  0  0  0
    0.6065    0.1931   -0.0510 C   0  0  0  0  0  0  0  0  0  0  0  0
   -0.1315    0.0734   -1.1518 C   0  0  0  0  0  0  0  0  0  0  0  0
   -1.3665   -0.4504   -0.8091 O   0  0  0  0  0  0  0  0  0  0  0  0
   -1.3635   -0.6541    0.5419 C   0  0  0  0  0  0  0  0  0  0  0  0
   -2.2554   -1.0950    1.1892 O   0  0  0  0  0  0  0  0  0  0  0  0
   -0.1411   -0.2535    1.0245 O   0  0  0  0  0  0  0  0  0  0  0  0
    2.0260    2.1585   -1.0745 H   0  0  0  0  0  0  0  0  0  0  0  0
    2.6630   -0.1392    0.4215 H   0  0  0  0  0  0  0  0  0  0  0  0
    1.9847    1.3444    1.0878 H   0  0  0  0  0  0  0  0  0  0  0  0
    0.0512    0.2841   -2.1893 H   0  0  0  0  0  0  0  0  0  0  0  0
  1  2  1  0  0  0  0
  2 10  1  0  0  0  0
  2 11  1  0  0  0  0
  3  2  1  0  0  0  0
  3  8  1  0  0  0  0
  4  5  1  0  0  0  0
  4  3  2  0  0  0  0
  5  6  1  0  0  0  0
  6  8  1  0  0  0  0
  6  7  2  0  0  0  0
  9  1  1  0  0  0  0
 12  4  1  0  0  0  0
M  END
