16
title
C -0.057832543 3.0219436 0.3162785
C -0.022245837 1.530121 0.29030335
N -0.05829562 0.77530587 -0.7877233
C -0.0029376172 -0.5275009 -0.3408413
C -0.022242436 -1.676583 -1.2946999
O 0.036565654 -2.8813052 -0.54491735
C 0.06744504 -0.563366 1.0239017
N 0.0536769 0.76125145 1.4169904
H 0.84223276 3.4457114 0.7770273
H -0.12192219 3.385373 -0.70997787
H -0.9232039 3.4019098 0.8718914
H -0.93565357 -1.6276472 -1.9097145
H 0.8293831 -1.5917051 -1.9893918
H 0.027799593 -3.6161218 -1.1638173
H 0.1230865 -1.377852 1.7241995
H 0.092659734 1.0958443 2.3647976
