title
 OpenBabel02282109573D

 15 15  0  0  0  0  0  0  0  0999 V2000
    0.2877    2.9943   -0.0400 C   0  0  0  0  0  0  0  0  0  0  0  0
    0.2135    1.5106   -0.0083 C   0  0  0  0  0  0  0  0  0  0  0  0
   -0.8264    0.7521   -0.1665 N   0  0  0  0  0  0  0  0  0  0  0  0
   -0.3398   -0.5460   -0.0427 C   0  0  0  0  0  0  0  0  0  0  0  0
   -1.2341   -1.7329   -0.1628 C   0  0  0  0  0  0  0  0  0  0  0  0
   -0.4454   -2.8984    0.0096 O   0  0  0  0  0  0  0  0  0  0  0  0
    0.9912   -0.4962    0.1876 C   0  0  0  0  0  0  0  0  0  0  0  0
    1.3626    0.8245    0.2125 O   0  0  0  0  0  0  0  0  0  0  0  0
    0.9641    3.3385   -0.8292 H   0  0  0  0  0  0  0  0  0  0  0  0
   -0.7091    3.3947   -0.2255 H   0  0  0  0  0  0  0  0  0  0  0  0
    0.6616    3.3909    0.9097 H   0  0  0  0  0  0  0  0  0  0  0  0
   -2.0327   -1.6637    0.5936 H   0  0  0  0  0  0  0  0  0  0  0  0
   -1.7295   -1.7161   -1.1471 H   0  0  0  0  0  0  0  0  0  0  0  0
   -1.0215   -3.6634   -0.0677 H   0  0  0  0  0  0  0  0  0  0  0  0
    1.7629   -1.2272    0.3439 H   0  0  0  0  0  0  0  0  0  0  0  0
  1  2  1  0  0  0  0
  1 11  1  0  0  0  0
  2  8  1  0  0  0  0
  3  4  1  0  0  0  0
  3  2  2  0  0  0  0
  4  7  2  0  0  0  0
  5  4  1  0  0  0  0
  5  6  1  0  0  0  0
  5 12  1  0  0  0  0
  7  8  1  0  0  0  0
  7 15  1  0  0  0  0
  9  1  1  0  0  0  0
 10  1  1  0  0  0  0
 13  5  1  0  0  0  0
 14  6  1  0  0  0  0
M  END
