15
title
C 0.28768268 2.9943326 -0.039993703
C 0.21347569 1.510562 -0.008251709
N -0.8263596 0.75207907 -0.16653167
C -0.33977342 -0.545986 -0.042746104
C -1.2340801 -1.7329357 -0.162794
O -0.44535196 -2.8983994 0.009615692
C 0.99120724 -0.49615866 0.1875595
O 1.3625742 0.8245388 0.21250723
H 0.9641458 3.338538 -0.82919276
H -0.7091369 3.3946726 -0.22548409
H 0.66159934 3.3908944 0.909662
H -2.0326717 -1.6637077 0.59355414
H -1.7295353 -1.7160566 -1.1470919
H -1.0215299 -3.6634393 -0.067713045
H 1.7628946 -1.2272084 0.3439494
