18
title
C -0.8540181 1.9622018 2.0593748
C -1.002799 0.4407919 1.9006132
C -0.24134234 -0.0990434 0.72976923
C 0.8069318 -0.9801701 0.71782804
N 1.1463355 -1.1346132 -0.6124711
C 0.30180815 -0.35065565 -1.346636
C 0.3594686 -0.2560021 -2.8351088
N -0.54359347 0.28399333 -0.5639751
H 0.18948868 2.2360933 2.246341
H -1.175068 2.47072 1.1463723
H -1.4589751 2.3322535 2.8933845
H -0.6679201 -0.06690055 2.812494
H -2.06619 0.19821218 1.7796662
H 1.3292013 -1.4999142 1.5041631
H 1.879927 -1.7211705 -0.97256255
H 0.1883699 -1.226814 -3.31495
H -0.41661462 0.4336404 -3.168982
H 1.3284672 0.11895296 -3.1849384
