title
 OpenBabel02282109573D

 18 18  0  0  0  0  0  0  0  0999 V2000
   -0.8540    1.9622    2.0594 C   0  0  0  0  0  0  0  0  0  0  0  0
   -1.0028    0.4408    1.9006 C   0  0  0  0  0  0  0  0  0  0  0  0
   -0.2413   -0.0990    0.7298 C   0  0  0  0  0  0  0  0  0  0  0  0
    0.8069   -0.9802    0.7178 C   0  0  0  0  0  0  0  0  0  0  0  0
    1.1463   -1.1346   -0.6125 N   0  0  0  0  0  0  0  0  0  0  0  0
    0.3018   -0.3507   -1.3466 C   0  0  0  0  0  0  0  0  0  0  0  0
    0.3595   -0.2560   -2.8351 C   0  0  0  0  0  0  0  0  0  0  0  0
   -0.5436    0.2840   -0.5640 N   0  0  0  0  0  0  0  0  0  0  0  0
    0.1895    2.2361    2.2463 H   0  0  0  0  0  0  0  0  0  0  0  0
   -1.1751    2.4707    1.1464 H   0  0  0  0  0  0  0  0  0  0  0  0
   -1.4590    2.3323    2.8934 H   0  0  0  0  0  0  0  0  0  0  0  0
   -0.6679   -0.0669    2.8125 H   0  0  0  0  0  0  0  0  0  0  0  0
   -2.0662    0.1982    1.7797 H   0  0  0  0  0  0  0  0  0  0  0  0
    1.3292   -1.4999    1.5042 H   0  0  0  0  0  0  0  0  0  0  0  0
    1.8799   -1.7212   -0.9726 H   0  0  0  0  0  0  0  0  0  0  0  0
    0.1884   -1.2268   -3.3150 H   0  0  0  0  0  0  0  0  0  0  0  0
   -0.4166    0.4336   -3.1690 H   0  0  0  0  0  0  0  0  0  0  0  0
    1.3285    0.1190   -3.1849 H   0  0  0  0  0  0  0  0  0  0  0  0
  1  9  1  0  0  0  0
  1 11  1  0  0  0  0
  2  1  1  0  0  0  0
  2 12  1  0  0  0  0
  3  2  1  0  0  0  0
  4  3  2  0  0  0  0
  4 14  1  0  0  0  0
  5  4  1  0  0  0  0
  6  5  1  0  0  0  0
  6  8  2  0  0  0  0
  7  6  1  0  0  0  0
  8  3  1  0  0  0  0
 10  1  1  0  0  0  0
 13  2  1  0  0  0  0
 15  5  1  0  0  0  0
 16  7  1  0  0  0  0
 17  7  1  0  0  0  0
 18  7  1  0  0  0  0
M  END
