title
 OpenBabel02282109573D

 17 17  0  0  0  0  0  0  0  0999 V2000
    2.2259    2.1292    0.0163 C   0  0  0  0  0  0  0  0  0  0  0  0
    2.1653    0.6157    0.2842 C   0  0  0  0  0  0  0  0  0  0  0  0
    0.7730    0.0555    0.2458 C   0  0  0  0  0  0  0  0  0  0  0  0
    0.0648   -0.4402    1.3106 C   0  0  0  0  0  0  0  0  0  0  0  0
   -1.1822   -0.8357    0.8520 N   0  0  0  0  0  0  0  0  0  0  0  0
   -1.2595   -0.5952   -0.4868 C   0  0  0  0  0  0  0  0  0  0  0  0
   -2.4158   -0.9272   -1.1184 O   0  0  0  0  0  0  0  0  0  0  0  0
   -0.0756   -0.0429   -0.9101 C   0  0  0  0  0  0  0  0  0  0  0  0
    3.2577    2.4949    0.0476 H   0  0  0  0  0  0  0  0  0  0  0  0
    1.8123    2.3723   -0.9677 H   0  0  0  0  0  0  0  0  0  0  0  0
    1.6443    2.6792    0.7628 H   0  0  0  0  0  0  0  0  0  0  0  0
    2.7958    0.1000   -0.4525 H   0  0  0  0  0  0  0  0  0  0  0  0
    2.6092    0.4038    1.2641 H   0  0  0  0  0  0  0  0  0  0  0  0
    0.3332   -0.5487    2.3488 H   0  0  0  0  0  0  0  0  0  0  0  0
   -1.9201   -1.2476    1.3952 H   0  0  0  0  0  0  0  0  0  0  0  0
   -2.3249   -0.6985   -2.0480 H   0  0  0  0  0  0  0  0  0  0  0  0
    0.1650    0.2537   -1.9201 H   0  0  0  0  0  0  0  0  0  0  0  0
  1  9  1  0  0  0  0
  1  2  1  0  0  0  0
  1 11  1  0  0  0  0
  2 13  1  0  0  0  0
  3  2  1  0  0  0  0
  3  4  2  0  0  0  0
  4 14  1  0  0  0  0
  5  4  1  0  0  0  0
  5 15  1  0  0  0  0
  6  5  1  0  0  0  0
  7  6  1  0  0  0  0
  8  6  2  0  0  0  0
  8  3  1  0  0  0  0
 10  1  1  0  0  0  0
 12  2  1  0  0  0  0
 16  7  1  0  0  0  0
 17  8  1  0  0  0  0
M  END
