title
 OpenBabel02282109573D

 16 16  0  0  0  0  0  0  0  0999 V2000
   -0.5164    1.4845    2.7531 C   0  0  0  0  0  0  0  0  0  0  0  0
   -1.2371    0.8963    1.5378 C   0  0  0  0  0  0  0  0  0  0  0  0
   -0.3214    0.2949    0.5176 C   0  0  0  0  0  0  0  0  0  0  0  0
    1.0416    0.2030    0.5254 C   0  0  0  0  0  0  0  0  0  0  0  0
    1.3806   -0.4456   -0.6623 N   0  0  0  0  0  0  0  0  0  0  0  0
    0.2136   -0.6988   -1.2999 C   0  0  0  0  0  0  0  0  0  0  0  0
    0.2239   -1.3255   -2.4897 O   0  0  0  0  0  0  0  0  0  0  0  0
   -0.8327   -0.2799   -0.6437 N   0  0  0  0  0  0  0  0  0  0  0  0
    0.0631    0.7187    3.2795 H   0  0  0  0  0  0  0  0  0  0  0  0
    0.1734    2.2820    2.4575 H   0  0  0  0  0  0  0  0  0  0  0  0
   -1.2323    1.9082    3.4631 H   0  0  0  0  0  0  0  0  0  0  0  0
   -1.9537    0.1311    1.8640 H   0  0  0  0  0  0  0  0  0  0  0  0
   -1.8444    1.6722    1.0534 H   0  0  0  0  0  0  0  0  0  0  0  0
    1.7931    0.5194    1.2275 H   0  0  0  0  0  0  0  0  0  0  0  0
    2.3000   -0.6837   -0.9912 H   0  0  0  0  0  0  0  0  0  0  0  0
   -0.7003   -1.4016   -2.7582 H   0  0  0  0  0  0  0  0  0  0  0  0
  1  9  1  0  0  0  0
  1 11  1  0  0  0  0
  2 12  1  0  0  0  0
  2  1  1  0  0  0  0
  3  4  2  0  0  0  0
  3  2  1  0  0  0  0
  4 14  1  0  0  0  0
  5  4  1  0  0  0  0
  6  5  1  0  0  0  0
  6  8  2  0  0  0  0
  7  6  1  0  0  0  0
  8  3  1  0  0  0  0
 10  1  1  0  0  0  0
 13  2  1  0  0  0  0
 15  5  1  0  0  0  0
 16  7  1  0  0  0  0
M  END
