16
title
C -0.5164312 1.484465 2.7531424
C -1.2370536 0.8962921 1.5377647
C -0.32138577 0.29491425 0.51764
C 1.0416212 0.20295812 0.5253891
N 1.3806357 -0.44560537 -0.66227055
C 0.2136295 -0.69883406 -1.2999003
O 0.223884 -1.3254926 -2.4897285
N -0.8327163 -0.27992114 -0.64365196
H 0.06314882 0.718676 3.279499
H 0.17340483 2.282033 2.4575443
H -1.2323068 1.9081589 3.463061
H -1.9536568 0.13112752 1.8639607
H -1.844366 1.6721884 1.0534465
H 1.7930882 0.5194082 1.2275436
H 2.300013 -0.6836585 -0.99121857
H -0.70028985 -1.4016218 -2.7581768
