18
title
C -1.0291777 2.1909282 -1.8910643
C -0.81412697 0.6718685 -1.9971632
C -0.1851807 0.0743225 -0.773257
C 1.050419 -0.48071286 -0.66771376
O 1.2899878 -0.908166 0.60493994
C 0.17772034 -0.6205074 1.3402519
C 0.20729008 -1.0030648 2.7765143
C -0.75098747 -0.020422544 0.54849243
H -0.07688127 2.7094722 -1.7432082
H -1.4966733 2.5847003 -2.7991786
H -1.676385 2.4401975 -1.0441717
H -1.7801713 0.18687621 -2.188829
H -0.18562463 0.45278963 -2.8679776
H 1.8467219 -0.64525527 -1.37551
H 1.0234814 -0.50228757 3.3098495
H -0.7344717 -0.7240624 3.2542455
H 0.34931138 -2.0825005 2.9030993
H -1.7288408 0.3140693 0.8613472
