17
title
C -2.2182956 1.187939 -1.9038208
C -0.75324357 0.7449842 -1.8894938
C -0.28373262 0.23982948 -0.56306326
C -0.9438176 0.11486375 0.6131599
O -0.076523036 -0.40057147 1.5426402
C 1.0885274 -0.5644716 0.86647725
C 2.248487 -1.1175712 1.6130257
N 1.0270557 -0.20477045 -0.37625095
H -2.3945181 2.0001621 -1.1907674
H -2.505429 1.5465499 -2.8959658
H -2.8858478 0.36052808 -1.6412007
H -0.58991444 -0.03958711 -2.6394234
H -0.105618805 1.5766501 -2.195347
H -1.9428684 0.32092074 0.95435095
H 2.0232995 -2.112494 2.0110023
H 3.1018755 -1.1882851 0.9384775
H 2.514005 -0.4769274 2.460388
