17
title
C 2.2195644 2.128485 -0.00070517673
C 2.1516 0.627015 0.3248861
C 0.76304543 0.06566408 0.2473365
C 0.019376885 -0.41986373 1.2711321
O -1.2147175 -0.8353883 0.8178611
C -1.2360195 -0.60626984 -0.51468307
N -2.438446 -0.8967904 -1.1459448
C -0.060745824 -0.05765572 -0.93259877
H 3.248997 2.4960456 0.05913861
H 1.8473707 2.3312962 -1.0098381
H 1.6078149 2.7059 0.6992014
H 2.80784 0.081810504 -0.36633405
H 2.5541015 0.45292163 1.3293357
H 0.19327964 -0.5483744 2.3258014
H -2.9176798 -1.6817276 -0.72269654
H -2.3306556 -1.039792 -2.1404898
H 0.19657041 0.22088045 -1.9424452
