title
 OpenBabel02282109573D

 17 17  0  0  0  0  0  0  0  0999 V2000
   -0.7916    2.4241    1.6786 C   0  0  0  0  0  0  0  0  0  0  0  0
   -1.0659    1.0288    1.4029 N   0  0  0  0  0  0  0  0  0  0  0  0
   -0.3326    0.4096    0.4003 C   0  0  0  0  0  0  0  0  0  0  0  0
    0.3630    0.9678   -0.6464 C   0  0  0  0  0  0  0  0  0  0  0  0
    0.8470   -0.1237   -1.3617 N   0  0  0  0  0  0  0  0  0  0  0  0
    0.4453   -1.2537   -0.7238 C   0  0  0  0  0  0  0  0  0  0  0  0
    0.7837   -2.6295   -1.1934 C   0  0  0  0  0  0  0  0  0  0  0  0
   -0.2701   -0.9638    0.3463 N   0  0  0  0  0  0  0  0  0  0  0  0
    0.2712    2.6339    1.8870 H   0  0  0  0  0  0  0  0  0  0  0  0
   -1.0888    3.0382    0.8202 H   0  0  0  0  0  0  0  0  0  0  0  0
   -1.3873    2.7480    2.5352 H   0  0  0  0  0  0  0  0  0  0  0  0
   -1.1307    0.4419    2.2224 H   0  0  0  0  0  0  0  0  0  0  0  0
    0.5499    1.9816   -0.9523 H   0  0  0  0  0  0  0  0  0  0  0  0
    1.4059   -0.0778   -2.1961 H   0  0  0  0  0  0  0  0  0  0  0  0
    1.8667   -2.7968   -1.2284 H   0  0  0  0  0  0  0  0  0  0  0  0
    0.3469   -3.3508   -0.5018 H   0  0  0  0  0  0  0  0  0  0  0  0
    0.3864   -2.8293   -2.1955 H   0  0  0  0  0  0  0  0  0  0  0  0
  1  9  1  0  0  0  0
  1 11  1  0  0  0  0
  2  1  1  0  0  0  0
  2 12  1  0  0  0  0
  3  2  1  0  0  0  0
  4  3  2  0  0  0  0
  5  6  1  0  0  0  0
  5  4  1  0  0  0  0
  6  8  2  0  0  0  0
  7  6  1  0  0  0  0
  7 16  1  0  0  0  0
  8  3  1  0  0  0  0
 10  1  1  0  0  0  0
 13  4  1  0  0  0  0
 14  5  1  0  0  0  0
 15  7  1  0  0  0  0
 17  7  1  0  0  0  0
M  END
