17
title
C 1.7819973 2.5273714 0.0549381
N 1.8109462 1.0991426 -0.1962615
C 0.6015661 0.4050461 -0.058435176
C -0.6684153 0.9345426 -0.0005335547
N -1.5599062 -0.13431133 0.032073863
C -0.86902523 -1.3123415 0.029604197
N -1.5720391 -2.529135 0.15036032
C 0.47510436 -1.022186 -0.041262485
H 2.7964668 2.9288075 -0.010904314
H 1.1775532 3.0230424 -0.71365196
H 1.3574303 2.797292 1.037266
H 2.5650303 0.63834846 0.29419726
H -1.0201633 1.9511275 -0.017855937
H -2.5356421 -0.06704224 0.26106524
H -2.0742757 -2.7672732 -0.700443
H -0.93185306 -3.2876303 0.35018465
H 1.2785196 -1.7393327 -0.12077164
