title
 OpenBabel02282109573D

 15 15  0  0  0  0  0  0  0  0999 V2000
   -0.7990    2.4374   -1.6863 C   0  0  0  0  0  0  0  0  0  0  0  0
   -1.0621    1.0380   -1.4204 N   0  0  0  0  0  0  0  0  0  0  0  0
   -0.3286    0.4249   -0.4161 C   0  0  0  0  0  0  0  0  0  0  0  0
    0.3815    0.9865    0.6137 C   0  0  0  0  0  0  0  0  0  0  0  0
    0.8583   -0.1118    1.3514 N   0  0  0  0  0  0  0  0  0  0  0  0
    0.4245   -1.2168    0.7154 C   0  0  0  0  0  0  0  0  0  0  0  0
    0.7396   -2.4360    1.1871 O   0  0  0  0  0  0  0  0  0  0  0  0
   -0.2911   -0.9588   -0.3492 N   0  0  0  0  0  0  0  0  0  0  0  0
    0.2622    2.6556   -1.8927 H   0  0  0  0  0  0  0  0  0  0  0  0
   -1.3976    2.7628   -2.5402 H   0  0  0  0  0  0  0  0  0  0  0  0
   -1.1004    3.0410   -0.8220 H   0  0  0  0  0  0  0  0  0  0  0  0
   -1.1192    0.4559   -2.2438 H   0  0  0  0  0  0  0  0  0  0  0  0
    0.5858    1.9999    0.9063 H   0  0  0  0  0  0  0  0  0  0  0  0
    1.4220   -0.0900    2.1825 H   0  0  0  0  0  0  0  0  0  0  0  0
    0.3195   -3.0692    0.5921 H   0  0  0  0  0  0  0  0  0  0  0  0
  1  2  1  0  0  0  0
  1 11  1  0  0  0  0
  2  3  1  0  0  0  0
  3  8  1  0  0  0  0
  3  4  2  0  0  0  0
  4 13  1  0  0  0  0
  4  5  1  0  0  0  0
  5 14  1  0  0  0  0
  6  7  1  0  0  0  0
  6  5  1  0  0  0  0
  8  6  2  0  0  0  0
  9  1  1  0  0  0  0
 10  1  1  0  0  0  0
 12  2  1  0  0  0  0
 15  7  1  0  0  0  0
M  END
