17
title
C 1.7263514 2.5531259 -0.09345724
N 1.8147875 1.1072222 -0.0037628643
C 0.61664605 0.39595956 -0.0029081635
C -0.6520729 0.86606777 0.17901047
O -1.54493 -0.17938346 0.17903604
C -0.8358371 -1.3184173 -0.01986108
C -1.6052372 -2.5900362 -0.06649789
C 0.48889562 -1.0316539 -0.13569494
H 2.732432 2.9763353 -0.1409155
H 1.1511645 2.9059813 -0.965683
H 1.2403775 2.9455552 0.8070216
H 2.4976368 0.71332985 -0.63541675
H -1.072742 1.8439332 0.33088964
H -2.3405175 -2.5853033 -0.87939024
H -0.92683387 -3.4314635 -0.22375354
H -2.1533184 -2.7610557 0.86705583
H 1.2880019 -1.7413242 -0.28803357
