title
 OpenBabel02282109573D

 17 17  0  0  0  0  0  0  0  0999 V2000
    1.7264    2.5531   -0.0935 C   0  0  0  0  0  0  0  0  0  0  0  0
    1.8148    1.1072   -0.0038 N   0  0  0  0  0  0  0  0  0  0  0  0
    0.6166    0.3960   -0.0029 C   0  0  0  0  0  0  0  0  0  0  0  0
   -0.6521    0.8661    0.1790 C   0  0  0  0  0  0  0  0  0  0  0  0
   -1.5449   -0.1794    0.1790 O   0  0  0  0  0  0  0  0  0  0  0  0
   -0.8358   -1.3184   -0.0199 C   0  0  0  0  0  0  0  0  0  0  0  0
   -1.6052   -2.5900   -0.0665 C   0  0  0  0  0  0  0  0  0  0  0  0
    0.4889   -1.0317   -0.1357 C   0  0  0  0  0  0  0  0  0  0  0  0
    2.7324    2.9763   -0.1409 H   0  0  0  0  0  0  0  0  0  0  0  0
    1.1512    2.9060   -0.9657 H   0  0  0  0  0  0  0  0  0  0  0  0
    1.2404    2.9456    0.8070 H   0  0  0  0  0  0  0  0  0  0  0  0
    2.4976    0.7133   -0.6354 H   0  0  0  0  0  0  0  0  0  0  0  0
   -1.0727    1.8439    0.3309 H   0  0  0  0  0  0  0  0  0  0  0  0
   -2.3405   -2.5853   -0.8794 H   0  0  0  0  0  0  0  0  0  0  0  0
   -0.9268   -3.4315   -0.2238 H   0  0  0  0  0  0  0  0  0  0  0  0
   -2.1533   -2.7611    0.8671 H   0  0  0  0  0  0  0  0  0  0  0  0
    1.2880   -1.7413   -0.2880 H   0  0  0  0  0  0  0  0  0  0  0  0
  1  2  1  0  0  0  0
  1 11  1  0  0  0  0
  2  3  1  0  0  0  0
  3  4  2  0  0  0  0
  4  5  1  0  0  0  0
  4 13  1  0  0  0  0
  6  5  1  0  0  0  0
  7  6  1  0  0  0  0
  7 16  1  0  0  0  0
  8  6  2  0  0  0  0
  8  3  1  0  0  0  0
  9  1  1  0  0  0  0
 10  1  1  0  0  0  0
 12  2  1  0  0  0  0
 14  7  1  0  0  0  0
 15  7  1  0  0  0  0
 17  8  1  0  0  0  0
M  END
