16
title
C 1.744584 2.549217 -0.020751985
N 1.8077604 1.1134026 0.18131526
C 0.61622953 0.40260968 0.060142584
C -0.65659404 0.8871245 0.022205116
O -1.5526624 -0.1743283 -0.031353362
C -0.82268643 -1.3048936 -0.04184098
N -1.5485413 -2.4812226 -0.17591372
C 0.5120442 -1.035638 0.014965672
H 2.7501795 2.970847 0.048113715
H 1.3031224 2.8380494 -0.9889929
H 1.1364833 3.0016046 0.77079844
H 2.5691774 0.67714995 -0.31927043
H -1.0965462 1.8665818 0.04277338
H -2.4786332 -2.4020538 0.21549134
H -1.0680153 -3.2839947 0.20603204
H 1.320647 -1.7489249 0.03391986
