15
title
C -0.85733616 2.4469225 1.6306765
N -1.0593662 1.0264804 1.4256859
C -0.33777198 0.40898457 0.42512658
C 0.3239042 0.93374085 -0.6387279
O 0.827451 -0.14851962 -1.3736846
C 0.43766955 -1.2240082 -0.67607
N 0.8637849 -2.4471548 -1.1306419
N -0.25577202 -0.9817802 0.39582685
H 0.19543876 2.7179527 1.8118377
H -1.1972871 2.998143 0.7463227
H -1.45835 2.77949 2.4797788
H -1.0896006 0.4690787 2.2670064
H 0.5212132 1.9118491 -1.032758
H 1.0182813 -2.492543 -2.1270733
H 0.31476763 -3.2138827 -0.77176404
