14
title
C 1.7940739 2.4977667 0.13418871
N 1.7415103 1.084949 -0.18265331
C 0.5340291 0.43482542 -0.06722126
C -0.73112595 0.92673177 0.008606413
O -1.5893987 -0.18414961 0.046877217
C -0.75418985 -1.2302364 0.00841295
O -1.2937843 -2.4473798 0.04488787
N 0.5056305 -0.9606558 -0.058341607
H 2.8211975 2.8534522 0.030477898
H 1.1747026 3.0581574 -0.57564807
H 1.4378192 2.7312152 1.150453
H 2.509733 0.5285064 0.16229258
H -1.1973552 1.8926206 0.027421203
H -2.2524219 -2.3507636 0.09657155
