17
title
C -0.96299195 2.358993 -1.5673561
O -0.90563965 0.94965655 -1.596323
C -0.3006566 0.372467 -0.5244577
C 0.26335564 0.9668076 0.58438075
N 0.7430253 -0.06035922 1.3791786
C 0.49421838 -1.275893 0.7979816
C 0.90536 -2.5596435 1.4405476
C -0.15694377 -1.0372138 -0.39287055
H 0.04363212 2.8004653 -1.5386621
H -1.4696187 2.6756692 -2.4809518
H -1.5277957 2.7191787 -0.6954174
H 0.36674324 1.9970033 0.8759769
H 1.2084291 0.07033297 2.2594907
H 0.43564335 -2.7008746 2.4222453
H 0.61054873 -3.4017994 0.8106564
H 1.9912317 -2.6207519 1.5870496
H -0.49710193 -1.7786992 -1.0985321
