16
title
C 1.9099317 2.0114617 -0.053305883
O 1.9651942 0.591237 -0.01716019
C 0.7746136 -0.04309681 0.00020376085
C 0.600433 -1.4038061 0.03430458
N -0.77782035 -1.5644287 0.040180672
C -1.3501248 -0.33283493 0.009861351
C -2.8252418 -0.10629901 0.0065017366
N -0.42488718 0.6127128 -0.014518546
H 2.9479175 2.349269 -0.06380639
H 1.3911514 2.3687081 -0.9492367
H 1.3944153 2.4139953 0.82515216
H 1.2878813 -2.2300837 0.053769264
H -1.2644835 -2.4443169 0.06280157
H -3.3046296 -0.51112914 0.9055848
H -3.0124156 0.96757644 -0.027237019
H -3.3092477 -0.5677841 -0.8622492
