16
title
C -0.9665093 2.3411815 -1.6087495
O -0.9161196 0.93100625 -1.6122468
C -0.31178135 0.37170312 -0.53091407
C 0.27962202 0.9847037 0.55074227
N 0.7766411 -0.03326867 1.3567592
C 0.49100012 -1.2505214 0.8043016
N 0.8393733 -2.4242182 1.5034369
C -0.17733939 -1.0404935 -0.38157758
H 0.042568136 2.7776453 -1.5984315
H -1.4810629 2.6434023 -2.522825
H -1.519947 2.7193582 -0.7373403
H 0.41499668 2.019581 0.809049
H 1.1039221 0.08159466 2.2996194
H 1.8365002 -2.6155956 1.4604093
H 0.35644108 -3.2242525 1.1138185
H -0.5062806 -1.7901299 -1.0834647
