title
 OpenBabel02282109573D

 15 15  0  0  0  0  0  0  0  0999 V2000
   -0.9377    2.3450   -1.6401 C   0  0  0  0  0  0  0  0  0  0  0  0
   -0.9554    0.9341   -1.6001 O   0  0  0  0  0  0  0  0  0  0  0  0
   -0.3183    0.3797   -0.5363 C   0  0  0  0  0  0  0  0  0  0  0  0
    0.3388    0.9959    0.5027 C   0  0  0  0  0  0  0  0  0  0  0  0
    0.8146   -0.0253    1.3265 N   0  0  0  0  0  0  0  0  0  0  0  0
    0.4600   -1.2290    0.8084 C   0  0  0  0  0  0  0  0  0  0  0  0
    0.8420   -2.3424    1.4843 O   0  0  0  0  0  0  0  0  0  0  0  0
   -0.2486   -1.0368   -0.3538 C   0  0  0  0  0  0  0  0  0  0  0  0
    0.0908    2.7300   -1.6908 H   0  0  0  0  0  0  0  0  0  0  0  0
   -1.4808    2.6440   -2.5384 H   0  0  0  0  0  0  0  0  0  0  0  0
   -1.4297    2.7756   -0.7563 H   0  0  0  0  0  0  0  0  0  0  0  0
    0.5153    2.0290    0.7395 H   0  0  0  0  0  0  0  0  0  0  0  0
    1.3392    0.0922    2.1744 H   0  0  0  0  0  0  0  0  0  0  0  0
    0.5228   -3.1108    1.0022 H   0  0  0  0  0  0  0  0  0  0  0  0
   -0.6689   -1.7893   -1.0010 H   0  0  0  0  0  0  0  0  0  0  0  0
  1  2  1  0  0  0  0
  1 11  1  0  0  0  0
  2  3  1  0  0  0  0
  3  8  1  0  0  0  0
  3  4  2  0  0  0  0
  4 12  1  0  0  0  0
  4  5  1  0  0  0  0
  5 13  1  0  0  0  0
  6  5  1  0  0  0  0
  6  7  1  0  0  0  0
  8  6  2  0  0  0  0
  9  1  1  0  0  0  0
 10  1  1  0  0  0  0
 14  7  1  0  0  0  0
 15  8  1  0  0  0  0
M  END
