15
title
C -0.93766725 2.3450098 -1.640052
O -0.955408 0.9340558 -1.6000624
C -0.31825674 0.37971783 -0.5363203
C 0.3387968 0.9958507 0.50272024
N 0.81463116 -0.025281606 1.3265215
C 0.46000952 -1.2290022 0.8084165
O 0.8420077 -2.3424306 1.4843248
C -0.24856983 -1.0368114 -0.35380733
H 0.09076245 2.7299623 -1.6907728
H -1.4808193 2.6439545 -2.5383852
H -1.4296631 2.775564 -0.75631434
H 0.5152673 2.0290036 0.7394556
H 1.3391693 0.09224433 2.1743927
H 0.5228388 -3.1108494 1.0021847
H -0.6689001 -1.7893138 -1.0009772
