14
title
C -1.0078634 2.0117867 -1.6482476
O -1.0593929 0.5916741 -1.6735348
C -0.4284657 -0.043489274 -0.6658063
C -0.35724488 -1.3990319 -0.5018494
N 0.39277527 -1.5605202 0.6727476
C 0.70355946 -0.3253507 1.1086445
O 1.4276433 -0.16424233 2.230314
N 0.23410818 0.6279582 0.34008908
H 0.023869127 2.3758366 -1.6996673
H -1.5634253 2.3451133 -2.5266795
H -1.4707783 2.412987 -0.74028385
H -0.74049836 -2.228605 -1.066458
H 0.65393823 -2.425021 1.1133995
H 1.5292037 0.78779906 2.3514068
