title
 OpenBabel02282109573D

 15 15  0  0  0  0  0  0  0  0999 V2000
    1.9333    2.0123   -0.1776 C   0  0  0  0  0  0  0  0  0  0  0  0
    1.9694    0.5957   -0.0241 O   0  0  0  0  0  0  0  0  0  0  0  0
    0.7810   -0.0260    0.0187 C   0  0  0  0  0  0  0  0  0  0  0  0
    0.5652   -1.3598    0.1581 C   0  0  0  0  0  0  0  0  0  0  0  0
   -0.8007   -1.5419    0.1499 O   0  0  0  0  0  0  0  0  0  0  0  0
   -1.3222   -0.3077    0.0062 C   0  0  0  0  0  0  0  0  0  0  0  0
   -2.8014   -0.1741   -0.0381 C   0  0  0  0  0  0  0  0  0  0  0  0
   -0.4287    0.6349   -0.0772 N   0  0  0  0  0  0  0  0  0  0  0  0
    2.9759    2.3333   -0.1910 H   0  0  0  0  0  0  0  0  0  0  0  0
    1.4415    2.2984   -1.1127 H   0  0  0  0  0  0  0  0  0  0  0  0
    1.4054    2.4889    0.6544 H   0  0  0  0  0  0  0  0  0  0  0  0
    1.1834   -2.2312    0.2647 H   0  0  0  0  0  0  0  0  0  0  0  0
   -3.2237   -0.7434   -0.8727 H   0  0  0  0  0  0  0  0  0  0  0  0
   -3.2589   -0.5514    0.8824 H   0  0  0  0  0  0  0  0  0  0  0  0
   -3.0600    0.8780   -0.1584 H   0  0  0  0  0  0  0  0  0  0  0  0
  1  2  1  0  0  0  0
  1 11  1  0  0  0  0
  2  3  1  0  0  0  0
  3  4  1  0  0  0  0
  4 12  1  0  0  0  0
  5  4  1  0  0  0  0
  6  5  1  0  0  0  0
  7  6  1  0  0  0  0
  7 14  1  0  0  0  0
  8  6  2  0  0  0  0
  8  3  2  0  0  0  0
  9  1  1  0  0  0  0
 10  1  1  0  0  0  0
 13  7  1  0  0  0  0
 15  7  1  0  0  0  0
M  RAD  1   4   2
M  END
