15
title
C 1.9333141 2.012263 -0.1776421
O 1.9694295 0.595738 -0.024142796
C 0.7810253 -0.02603769 0.018693095
C 0.56522775 -1.359849 0.1581374
O -0.80072534 -1.5419035 0.14990856
C -1.3221754 -0.30771953 0.0062059695
C -2.8013773 -0.1741252 -0.03809245
N -0.42866457 0.63492084 -0.07723584
H 2.9759195 2.3332565 -0.19101046
H 1.4414501 2.2983668 -1.1126896
H 1.4054364 2.4889333 0.6543615
H 1.1834114 -2.23118 0.26469633
H -3.2237096 -0.7434384 -0.87265843
H -3.2589488 -0.5513571 0.88241553
H -3.0599518 0.8780355 -0.15839617
