title
 OpenBabel02282109573D

 15 15  0  0  0  0  0  0  0  0999 V2000
   -1.0120    2.3634   -1.5368 C   0  0  0  0  0  0  0  0  0  0  0  0
   -0.9882    0.9483   -1.5648 O   0  0  0  0  0  0  0  0  0  0  0  0
   -0.3386    0.3696   -0.5308 C   0  0  0  0  0  0  0  0  0  0  0  0
    0.2919    0.9367    0.5345 C   0  0  0  0  0  0  0  0  0  0  0  0
    0.8102   -0.0742    1.3313 O   0  0  0  0  0  0  0  0  0  0  0  0
    0.4908   -1.2472    0.7480 C   0  0  0  0  0  0  0  0  0  0  0  0
    0.9957   -2.3766    1.3754 N   0  0  0  0  0  0  0  0  0  0  0  0
   -0.2174   -1.0561   -0.4006 C   0  0  0  0  0  0  0  0  0  0  0  0
    0.0059    2.7756   -1.5631 H   0  0  0  0  0  0  0  0  0  0  0  0
   -1.5602    2.6886   -2.4222 H   0  0  0  0  0  0  0  0  0  0  0  0
   -1.5196    2.7317   -0.6349 H   0  0  0  0  0  0  0  0  0  0  0  0
    0.4661    1.9394    0.8759 H   0  0  0  0  0  0  0  0  0  0  0  0
    1.0907   -2.2521    2.3753 H   0  0  0  0  0  0  0  0  0  0  0  0
    0.4686   -3.2125    1.1650 H   0  0  0  0  0  0  0  0  0  0  0  0
   -0.6051   -1.8017   -1.0743 H   0  0  0  0  0  0  0  0  0  0  0  0
  1 11  1  0  0  0  0
  2  1  1  0  0  0  0
  2  3  1  0  0  0  0
  3  8  1  0  0  0  0
  3  4  2  0  0  0  0
  4 12  1  0  0  0  0
  4  5  1  0  0  0  0
  6  5  1  0  0  0  0
  6  7  1  0  0  0  0
  7 13  1  0  0  0  0
  8  6  2  0  0  0  0
  9  1  1  0  0  0  0
 10  1  1  0  0  0  0
 14  7  1  0  0  0  0
 15  8  1  0  0  0  0
M  END
