15
title
C -1.0119933 2.3633845 -1.5367563
O -0.9881977 0.94833213 -1.5648192
C -0.338574 0.36955824 -0.53076404
C 0.2918666 0.9367118 0.5344669
O 0.81016916 -0.07422719 1.331254
C 0.49081224 -1.2472097 0.7480492
N 0.99571854 -2.3765547 1.3754077
C -0.21738034 -1.0560669 -0.40058702
H 0.005865698 2.7755587 -1.5630754
H -1.5602297 2.688602 -2.422163
H -1.5196475 2.7317398 -0.6348558
H 0.46610397 1.9393885 0.87591
H 1.0906712 -2.2520626 2.3753328
H 0.4686467 -3.21246 1.1650054
H -0.60506886 -1.8016847 -1.0743135
