14
title
C -1.0165238 1.9780513 1.699817
O -1.0272647 0.55351514 1.6979221
C -0.4058616 -0.045392238 0.6700974
C -0.27691773 -1.3791837 0.47104424
O 0.4368637 -1.5299712 -0.7205432
C 0.6708662 -0.27596322 -1.129019
N 1.4266993 -0.119673096 -2.262711
N 0.19850495 0.6614485 -0.35908085
H 0.0055961916 2.3684983 1.7296597
H -1.5183765 2.381339 0.8146101
H -1.5552932 2.2749496 2.6010041
H -0.5783803 -2.2737951 0.9801643
H 1.3587085 -0.8802887 -2.9227645
H 1.3295597 0.7924662 -2.6825845
