16
title
N 0.58670855 2.9527783 0.23456042
C 0.35456085 1.5618007 0.19740392
C -0.7896286 0.7973581 0.25821388
C -0.40603316 -0.5689618 0.08270428
C -1.3030634 -1.771857 0.09163401
O -0.7732209 -2.863071 -0.6514092
C 0.9608606 -0.58907074 -0.074817345
N 1.411271 0.7111234 -0.006074967
H -0.27677864 3.4596422 0.08335153
H 0.96610755 3.256091 1.1274267
H -1.789425 1.1700282 0.42669028
H -1.4395367 -2.1617343 1.1082895
H -2.305221 -1.4878509 -0.27004635
H -0.5317939 -2.5143595 -1.516461
H 1.6382126 -1.4152131 -0.21222706
H 2.3472877 1.023805 -0.19768952
