15
title
N 0.62354314 2.8624709 0.5073095
C 0.32359698 1.5306515 0.26173285
C -0.7962219 0.7709668 0.4303878
C -0.4149355 -0.57288104 0.07473458
C -1.2789552 -1.7985833 0.08553472
O -0.74026746 -2.8612816 -0.6851163
C 0.891645 -0.51602966 -0.28470892
O 1.3577608 0.7766458 -0.17374156
H 1.3437521 3.2197425 -0.10747654
H -0.19195971 3.4586422 0.4911028
H -1.7646792 1.1122482 0.7603044
H -1.3744502 -2.1961882 1.1033335
H -2.2984073 -1.5367119 -0.24288724
H -0.59762025 -2.5185688 -1.5741225
H 1.6087863 -1.2470896 -0.61223346
