title
 OpenBabel02282109573D

 14 14  0  0  0  0  0  0  0  0999 V2000
    0.2815    2.8613    0.1219 N   0  0  0  0  0  0  0  0  0  0  0  0
    0.2118    1.4935    0.0287 C   0  0  0  0  0  0  0  0  0  0  0  0
   -0.8514    0.7497    0.0085 N   0  0  0  0  0  0  0  0  0  0  0  0
   -0.3408   -0.5503   -0.0086 C   0  0  0  0  0  0  0  0  0  0  0  0
   -1.2464   -1.7337   -0.0307 C   0  0  0  0  0  0  0  0  0  0  0  0
   -0.4488   -2.9048   -0.0855 O   0  0  0  0  0  0  0  0  0  0  0  0
    1.0066   -0.5104   -0.0059 C   0  0  0  0  0  0  0  0  0  0  0  0
    1.3832    0.8263    0.0198 O   0  0  0  0  0  0  0  0  0  0  0  0
    1.1035    3.2705   -0.2977 H   0  0  0  0  0  0  0  0  0  0  0  0
   -0.5776    3.3159   -0.1492 H   0  0  0  0  0  0  0  0  0  0  0  0
   -1.8858   -1.7165    0.8669 H   0  0  0  0  0  0  0  0  0  0  0  0
   -1.9208   -1.6563   -0.8991 H   0  0  0  0  0  0  0  0  0  0  0  0
   -1.0354   -3.6656   -0.0708 H   0  0  0  0  0  0  0  0  0  0  0  0
    1.7968   -1.2369   -0.0232 H   0  0  0  0  0  0  0  0  0  0  0  0
  2  1  1  0  0  0  0
  3  2  2  0  0  0  0
  4  7  2  0  0  0  0
  4  3  1  0  0  0  0
  5  4  1  0  0  0  0
  5 11  1  0  0  0  0
  6 13  1  0  0  0  0
  6  5  1  0  0  0  0
  7  8  1  0  0  0  0
  8  2  1  0  0  0  0
  9  1  1  0  0  0  0
 10  1  1  0  0  0  0
 12  5  1  0  0  0  0
 14  7  1  0  0  0  0
M  END
