title
 OpenBabel02282109573D

 19 19  0  0  0  0  0  0  0  0999 V2000
   -0.9530    2.0649   -1.8858 C   0  0  0  0  0  0  0  0  0  0  0  0
   -0.8502    0.5365   -1.8903 C   0  0  0  0  0  0  0  0  0  0  0  0
   -0.1598    0.0012   -0.7304 N   0  0  0  0  0  0  0  0  0  0  0  0
    1.1945   -0.1954   -0.6253 C   0  0  0  0  0  0  0  0  0  0  0  0
    1.4742   -0.6125    0.6548 C   0  0  0  0  0  0  0  0  0  0  0  0
    0.2414   -0.6713    1.3705 C   0  0  0  0  0  0  0  0  0  0  0  0
    0.0418   -1.0893    2.7966 C   0  0  0  0  0  0  0  0  0  0  0  0
   -0.7394   -0.2819    0.4849 C   0  0  0  0  0  0  0  0  0  0  0  0
    0.0412    2.5208   -1.8762 H   0  0  0  0  0  0  0  0  0  0  0  0
   -1.4840    2.4134   -2.7775 H   0  0  0  0  0  0  0  0  0  0  0  0
   -1.4953    2.4151   -1.0029 H   0  0  0  0  0  0  0  0  0  0  0  0
   -1.8495    0.0901   -1.9247 H   0  0  0  0  0  0  0  0  0  0  0  0
   -0.3190    0.1953   -2.7847 H   0  0  0  0  0  0  0  0  0  0  0  0
    1.8396   -0.0251   -1.4735 H   0  0  0  0  0  0  0  0  0  0  0  0
    2.4517   -0.8667    1.0376 H   0  0  0  0  0  0  0  0  0  0  0  0
    0.6091   -0.4565    3.4897 H   0  0  0  0  0  0  0  0  0  0  0  0
   -1.0125   -1.0264    3.0828 H   0  0  0  0  0  0  0  0  0  0  0  0
    0.3681   -2.1220    2.9695 H   0  0  0  0  0  0  0  0  0  0  0  0
   -1.8066   -0.1883    0.6187 H   0  0  0  0  0  0  0  0  0  0  0  0
  1  9  1  0  0  0  0
  1 11  1  0  0  0  0
  2  1  1  0  0  0  0
  2  3  1  0  0  0  0
  3  4  1  0  0  0  0
  3  8  1  0  0  0  0
  4  5  2  0  0  0  0
  5 15  1  0  0  0  0
  5  6  1  0  0  0  0
  6  7  1  0  0  0  0
  7 18  1  0  0  0  0
  7 17  1  0  0  0  0
  7 16  1  0  0  0  0
  8 19  1  0  0  0  0
  8  6  2  0  0  0  0
 10  1  1  0  0  0  0
 12  2  1  0  0  0  0
 13  2  1  0  0  0  0
 14  4  1  0  0  0  0
M  END
