19
title
C -0.952998 2.0648987 -1.8858186
C -0.85020125 0.5365064 -1.8902605
N -0.15983734 0.001221179 -0.7303587
C 1.1945493 -0.19538277 -0.62528527
C 1.4742415 -0.61250013 0.65483546
C 0.2414464 -0.67129666 1.3704991
C 0.04180166 -1.089312 2.796644
C -0.7394371 -0.28188765 0.48492524
H 0.041178912 2.5208337 -1.87617
H -1.4839736 2.4134314 -2.7775226
H -1.4953296 2.4150627 -1.0028822
H -1.8495207 0.09006271 -1.9246949
H -0.31895438 0.1953013 -2.7847254
H 1.8395569 -0.025096893 -1.4734749
H 2.4517188 -0.8667043 1.0376189
H 0.60906726 -0.45654118 3.4896533
H -1.012471 -1.0263877 3.0828488
H 0.36808518 -2.1219757 2.9695098
H -1.8065939 -0.18826205 0.6186671
