18
title
C 2.0837502 2.0862641 0.13648124
C 2.0668943 0.55716056 0.23261505
N 0.731111 -0.0077785277 0.2320393
C -0.0063518835 -0.31801647 1.3394526
C -1.2622482 -0.71709365 0.9368677
C -1.2919134 -0.64455 -0.48538396
N -2.4132001 -0.9106813 -1.2986468
C -0.050742086 -0.20105767 -0.8934784
H 3.114153 2.4563909 0.13409273
H 1.5947844 2.4239013 -0.7816986
H 1.5572387 2.5332966 0.9846009
H 2.6250339 0.12091687 -0.603611
H 2.5649204 0.23017296 1.1508981
H 0.42256254 -0.23343778 2.3259022
H -2.0670607 -1.0373679 1.5814621
H -2.9717977 -1.671774 -0.93262553
H -2.151295 -1.1371325 -2.2499783
H 0.34263247 -0.0103678135 -1.8794925
