title
 OpenBabel02282109573D

 18 18  0  0  0  0  0  0  0  0999 V2000
    2.0838    2.0863    0.1365 C   0  0  0  0  0  0  0  0  0  0  0  0
    2.0669    0.5572    0.2326 C   0  0  0  0  0  0  0  0  0  0  0  0
    0.7311   -0.0078    0.2320 N   0  0  0  0  0  0  0  0  0  0  0  0
   -0.0064   -0.3180    1.3395 C   0  0  0  0  0  0  0  0  0  0  0  0
   -1.2622   -0.7171    0.9369 C   0  0  0  0  0  0  0  0  0  0  0  0
   -1.2919   -0.6445   -0.4854 C   0  0  0  0  0  0  0  0  0  0  0  0
   -2.4132   -0.9107   -1.2986 N   0  0  0  0  0  0  0  0  0  0  0  0
   -0.0507   -0.2011   -0.8935 C   0  0  0  0  0  0  0  0  0  0  0  0
    3.1142    2.4564    0.1341 H   0  0  0  0  0  0  0  0  0  0  0  0
    1.5948    2.4239   -0.7817 H   0  0  0  0  0  0  0  0  0  0  0  0
    1.5572    2.5333    0.9846 H   0  0  0  0  0  0  0  0  0  0  0  0
    2.6250    0.1209   -0.6036 H   0  0  0  0  0  0  0  0  0  0  0  0
    2.5649    0.2302    1.1509 H   0  0  0  0  0  0  0  0  0  0  0  0
    0.4226   -0.2334    2.3259 H   0  0  0  0  0  0  0  0  0  0  0  0
   -2.0671   -1.0374    1.5815 H   0  0  0  0  0  0  0  0  0  0  0  0
   -2.9718   -1.6718   -0.9326 H   0  0  0  0  0  0  0  0  0  0  0  0
   -2.1513   -1.1371   -2.2500 H   0  0  0  0  0  0  0  0  0  0  0  0
    0.3426   -0.0104   -1.8795 H   0  0  0  0  0  0  0  0  0  0  0  0
  1  2  1  0  0  0  0
  1 11  1  0  0  0  0
  2 13  1  0  0  0  0
  3  2  1  0  0  0  0
  3  4  1  0  0  0  0
  4 14  1  0  0  0  0
  5  4  2  0  0  0  0
  5 15  1  0  0  0  0
  6  5  1  0  0  0  0
  7 16  1  0  0  0  0
  7  6  1  0  0  0  0
  8  6  2  0  0  0  0
  8  3  1  0  0  0  0
  9  1  1  0  0  0  0
 10  1  1  0  0  0  0
 12  2  1  0  0  0  0
 17  7  1  0  0  0  0
 18  8  1  0  0  0  0
M  END
