title
 OpenBabel02282109573D

 17 17  0  0  0  0  0  0  0  0999 V2000
    2.1164    2.0666    0.1733 C   0  0  0  0  0  0  0  0  0  0  0  0
    2.0772    0.5389    0.2772 C   0  0  0  0  0  0  0  0  0  0  0  0
    0.7325   -0.0076    0.2499 N   0  0  0  0  0  0  0  0  0  0  0  0
   -0.0242   -0.3131    1.3451 C   0  0  0  0  0  0  0  0  0  0  0  0
   -1.2794   -0.7002    0.9226 C   0  0  0  0  0  0  0  0  0  0  0  0
   -1.2731   -0.6172   -0.4960 C   0  0  0  0  0  0  0  0  0  0  0  0
   -2.2881   -0.9145   -1.3617 O   0  0  0  0  0  0  0  0  0  0  0  0
   -0.0274   -0.1843   -0.8911 C   0  0  0  0  0  0  0  0  0  0  0  0
    3.1515    2.4222    0.1946 H   0  0  0  0  0  0  0  0  0  0  0  0
    1.6557    2.4058   -0.7588 H   0  0  0  0  0  0  0  0  0  0  0  0
    1.5756    2.5258    1.0058 H   0  0  0  0  0  0  0  0  0  0  0  0
    2.6467    0.0893   -0.5436 H   0  0  0  0  0  0  0  0  0  0  0  0
    2.5479    0.2096    1.2088 H   0  0  0  0  0  0  0  0  0  0  0  0
    0.3890   -0.2336    2.3384 H   0  0  0  0  0  0  0  0  0  0  0  0
   -2.0950   -1.0233    1.5527 H   0  0  0  0  0  0  0  0  0  0  0  0
   -3.0485   -1.1975   -0.8466 H   0  0  0  0  0  0  0  0  0  0  0  0
    0.3745   -0.0005   -1.8732 H   0  0  0  0  0  0  0  0  0  0  0  0
  1  9  1  0  0  0  0
  1  2  1  0  0  0  0
  1 11  1  0  0  0  0
  2 13  1  0  0  0  0
  3  2  1  0  0  0  0
  3  4  1  0  0  0  0
  4 14  1  0  0  0  0
  5  4  2  0  0  0  0
  5 15  1  0  0  0  0
  6  5  1  0  0  0  0
  7 16  1  0  0  0  0
  7  6  1  0  0  0  0
  8  6  2  0  0  0  0
  8  3  1  0  0  0  0
 10  1  1  0  0  0  0
 12  2  1  0  0  0  0
 17  8  1  0  0  0  0
M  END
