17
title
C 2.1163645 2.0666163 0.1732678
C 2.0772154 0.5389437 0.27720997
N 0.73252976 -0.0075671687 0.24992843
C -0.02418933 -0.31308222 1.3450676
C -1.2794269 -0.7002078 0.9226376
C -1.273094 -0.61724925 -0.49601793
O -2.2880757 -0.9144958 -1.3616525
C -0.027384855 -0.1842652 -0.89105123
H 3.15152 2.4221575 0.19462982
H 1.6557311 2.4058106 -0.7588131
H 1.5755812 2.5257535 1.0058496
H 2.6467066 0.08929819 -0.5436216
H 2.5479114 0.20957997 1.2087644
H 0.3890312 -0.2336064 2.338381
H -2.09504 -1.0232735 1.5526828
H -3.0484927 -1.1975499 -0.8465788
H 0.37454715 -0.0005052701 -1.8731991
