18
title
C -0.866668 2.1814218 -1.8152663
C -0.84430313 0.65215826 -1.874997
N -0.21092765 0.04357852 -0.71627
C 1.0409788 -0.49153864 -0.6558104
N 1.3461384 -0.9211252 0.5470255
C 0.23866327 -0.65294814 1.3246564
C 0.19585903 -1.0067853 2.7759805
C -0.73124516 -0.055057988 0.5593341
H 0.14928348 2.5818336 -1.7551249
H -1.3472103 2.5869868 -2.7108815
H -1.4223046 2.5322833 -0.94109946
H -1.863047 0.25894994 -1.9626925
H -0.2949807 0.31435183 -2.758856
H 1.6762964 -0.5423782 -1.5289025
H -0.75717354 -0.7142639 3.225585
H 0.32680064 -2.0842922 2.9238534
H 1.0007161 -0.5079067 3.3267508
H -1.7240133 0.29457048 0.792867
