17
title
C 2.1013525 2.1043406 0.06981909
C 2.066905 0.58745784 0.2732022
N 0.7259943 0.032536518 0.21524903
C -0.018301427 -0.4056384 1.2595768
N -1.2160523 -0.8145342 0.8900433
C -1.2570486 -0.6247691 -0.46785352
N -2.4273312 -0.9064654 -1.1797724
C -0.067979515 -0.097819254 -0.917707
H 3.1314545 2.4692318 0.1280565
H 1.696331 2.3792565 -0.90796643
H 1.5091248 2.6110399 0.8370046
H 2.685822 0.08874826 -0.4815381
H 2.4824948 0.32588503 1.2509617
H 0.36583418 -0.41249144 2.2693636
H -3.0180404 -1.5343583 -0.64951104
H -2.2578242 -1.2829427 -2.1027896
H 0.28343374 0.1872244 -1.8947678
