16
title
C 2.1442683 2.0728707 0.099321164
C 2.0802956 0.5587916 0.31257007
N 0.73000234 0.026688077 0.2313694
C -0.035711605 -0.40005693 1.264509
N -1.2370676 -0.7860781 0.8730084
C -1.2410072 -0.5938575 -0.47685727
O -2.3246036 -0.8901521 -1.2285025
C -0.04301508 -0.0899001 -0.91696644
H 3.1791015 2.4198818 0.17705005
H 1.7655822 2.3475173 -0.8889748
H 1.5452338 2.5955992 0.85032654
H 2.703977 0.042849697 -0.42596248
H 2.470325 0.29630435 1.3004369
H 0.33085695 -0.4137158 2.2802615
H -2.9885983 -1.2272818 -0.6149063
H 0.3227711 0.1760664 -1.8927485
