title
 OpenBabel02282109573D

 16 16  0  0  0  0  0  0  0  0999 V2000
    2.1443    2.0729    0.0993 C   0  0  0  0  0  0  0  0  0  0  0  0
    2.0803    0.5588    0.3126 C   0  0  0  0  0  0  0  0  0  0  0  0
    0.7300    0.0267    0.2314 N   0  0  0  0  0  0  0  0  0  0  0  0
   -0.0357   -0.4001    1.2645 C   0  0  0  0  0  0  0  0  0  0  0  0
   -1.2371   -0.7861    0.8730 N   0  0  0  0  0  0  0  0  0  0  0  0
   -1.2410   -0.5939   -0.4769 C   0  0  0  0  0  0  0  0  0  0  0  0
   -2.3246   -0.8902   -1.2285 O   0  0  0  0  0  0  0  0  0  0  0  0
   -0.0430   -0.0899   -0.9170 C   0  0  0  0  0  0  0  0  0  0  0  0
    3.1791    2.4199    0.1771 H   0  0  0  0  0  0  0  0  0  0  0  0
    1.7656    2.3475   -0.8890 H   0  0  0  0  0  0  0  0  0  0  0  0
    1.5452    2.5956    0.8503 H   0  0  0  0  0  0  0  0  0  0  0  0
    2.7040    0.0428   -0.4260 H   0  0  0  0  0  0  0  0  0  0  0  0
    2.4703    0.2963    1.3004 H   0  0  0  0  0  0  0  0  0  0  0  0
    0.3309   -0.4137    2.2803 H   0  0  0  0  0  0  0  0  0  0  0  0
   -2.9886   -1.2273   -0.6149 H   0  0  0  0  0  0  0  0  0  0  0  0
    0.3228    0.1761   -1.8927 H   0  0  0  0  0  0  0  0  0  0  0  0
  1  9  1  0  0  0  0
  1  2  1  0  0  0  0
  1 11  1  0  0  0  0
  2 13  1  0  0  0  0
  3  2  1  0  0  0  0
  3  4  1  0  0  0  0
  4 14  1  0  0  0  0
  5  4  1  0  0  0  0
  6  5  2  0  0  0  0
  7 15  1  0  0  0  0
  7  6  1  0  0  0  0
  8  6  1  0  0  0  0
  8  3  1  0  0  0  0
 10  1  1  0  0  0  0
 12  2  1  0  0  0  0
 16  8  1  0  0  0  0
M  RAD  2   4   2   8   2
M  END
