title
 OpenBabel02282109573D

 13 13  0  0  0  0  0  0  0  0999 V2000
    0.2486    2.1340    0.6043 N   0  0  0  0  0  0  0  0  0  0  0  0
    0.3228    0.9163    0.2330 C   0  0  0  0  0  0  0  0  0  0  0  0
    1.4798    0.2260   -0.1144 N   0  0  0  0  0  0  0  0  0  0  0  0
    1.5243   -1.1029   -0.5151 C   0  0  0  0  0  0  0  0  0  0  0  0
    0.3923   -1.8116   -0.5870 C   0  0  0  0  0  0  0  0  0  0  0  0
   -0.8136   -1.1996   -0.2570 N   0  0  0  0  0  0  0  0  0  0  0  0
   -0.9674    0.1114    0.1519 C   0  0  0  0  0  0  0  0  0  0  0  0
   -2.0511    0.5742    0.4223 O   0  0  0  0  0  0  0  0  0  0  0  0
    1.1698    2.5780    0.6233 H   0  0  0  0  0  0  0  0  0  0  0  0
    2.3437    0.7437   -0.0665 H   0  0  0  0  0  0  0  0  0  0  0  0
    2.4949   -1.5093   -0.7550 H   0  0  0  0  0  0  0  0  0  0  0  0
    0.3552   -2.8464   -0.8901 H   0  0  0  0  0  0  0  0  0  0  0  0
   -1.6768   -1.7207   -0.3062 H   0  0  0  0  0  0  0  0  0  0  0  0
  1  9  1  0  0  0  0
  2  1  2  0  0  0  0
  3 10  1  0  0  0  0
  3  2  1  0  0  0  0
  4  3  1  0  0  0  0
  5  4  2  0  0  0  0
  5  6  1  0  0  0  0
  6  7  1  0  0  0  0
  7  2  1  0  0  0  0
  7  8  2  0  0  0  0
 11  4  1  0  0  0  0
 12  5  1  0  0  0  0
 13  6  1  0  0  0  0
M  END
