title
 OpenBabel02282109573D

 13 13  0  0  0  0  0  0  0  0999 V2000
   -0.4457    2.1144   -0.6211 N   0  0  0  0  0  0  0  0  0  0  0  0
   -0.3611    0.9030   -0.2409 C   0  0  0  0  0  0  0  0  0  0  0  0
   -1.4857    0.2055    0.1474 N   0  0  0  0  0  0  0  0  0  0  0  0
   -1.4439   -1.1112    0.5696 C   0  0  0  0  0  0  0  0  0  0  0  0
   -0.2863   -1.7686    0.6159 C   0  0  0  0  0  0  0  0  0  0  0  0
    0.9035   -1.1740    0.2505 O   0  0  0  0  0  0  0  0  0  0  0  0
    0.9310    0.1254   -0.1756 C   0  0  0  0  0  0  0  0  0  0  0  0
    2.0095    0.6912   -0.5155 N   0  0  0  0  0  0  0  0  0  0  0  0
    0.4885    2.4451   -0.8633 H   0  0  0  0  0  0  0  0  0  0  0  0
   -2.3546    0.7145    0.1089 H   0  0  0  0  0  0  0  0  0  0  0  0
   -2.3785   -1.5717    0.8542 H   0  0  0  0  0  0  0  0  0  0  0  0
   -0.1568   -2.7916    0.9296 H   0  0  0  0  0  0  0  0  0  0  0  0
    2.8015    0.0544   -0.4233 H   0  0  0  0  0  0  0  0  0  0  0  0
  1  2  1  0  0  0  0
  2  7  2  0  0  0  0
  2  3  1  0  0  0  0
  3  4  1  0  0  0  0
  4  5  2  0  0  0  0
  4 11  1  0  0  0  0
  5 12  1  0  0  0  0
  6  5  1  0  0  0  0
  7  6  1  0  0  0  0
  8 13  1  0  0  0  0
  8  7  1  0  0  0  0
  9  1  1  0  0  0  0
 10  3  1  0  0  0  0
M  RAD  2   1   2   8   2
M  END
