13
title
N -0.44566476 2.1144347 -0.6211034
C -0.36113122 0.90301114 -0.240861
N -1.4856882 0.2055097 0.14735015
C -1.443949 -1.1112317 0.5695683
C -0.28632998 -1.7685782 0.61588657
O 0.9034948 -1.1739708 0.25053695
C 0.9310449 0.12544249 -0.17555247
N 2.0095167 0.6912269 -0.5154826
H 0.4884952 2.4451141 -0.8633216
H -2.3546324 0.71445566 0.108851604
H -2.3784997 -1.5716611 0.8542072
H -0.1567784 -2.7915716 0.92964095
H 2.8015082 0.054379456 -0.4232975
