12
title
N -0.45708954 2.1000211 -0.6334356
C -0.38453546 0.8896662 -0.2476343
N -1.5080572 0.17501815 0.1065356
C -1.449739 -1.1397132 0.52790546
C -0.2798131 -1.7728392 0.6069867
O 0.90849954 -1.152538 0.27642283
C 0.9337773 0.13957651 -0.14640093
O 1.9767196 0.65770465 -0.42855424
H 0.48490527 2.4314334 -0.8432665
H -2.387943 0.6638268 0.043015048
H -2.381898 -1.6206907 0.7853661
H -0.13778831 -2.7932258 0.9234237
