title
 OpenBabel02282109573D

 12 12  0  0  1  0  0  0  0  0999 V2000
   -0.4571    2.1000   -0.6334 N   0  0  0  0  0  0  0  0  0  0  0  0
   -0.3845    0.8897   -0.2476 C   0  0  2  0  0  0  0  0  0  0  0  0
   -1.5081    0.1750    0.1065 N   0  0  0  0  0  0  0  0  0  0  0  0
   -1.4497   -1.1397    0.5279 C   0  0  0  0  0  0  0  0  0  0  0  0
   -0.2798   -1.7728    0.6070 C   0  0  0  0  0  0  0  0  0  0  0  0
    0.9085   -1.1525    0.2764 O   0  0  0  0  0  0  0  0  0  0  0  0
    0.9338    0.1396   -0.1464 C   0  0  0  0  0  0  0  0  0  0  0  0
    1.9767    0.6577   -0.4286 O   0  0  0  0  0  0  0  0  0  0  0  0
    0.4849    2.4314   -0.8433 H   0  0  0  0  0  0  0  0  0  0  0  0
   -2.3879    0.6638    0.0430 H   0  0  0  0  0  0  0  0  0  0  0  0
   -2.3819   -1.6207    0.7854 H   0  0  0  0  0  0  0  0  0  0  0  0
   -0.1378   -2.7932    0.9234 H   0  0  0  0  0  0  0  0  0  0  0  0
  2  1  1  1  0  0  0
  2  7  1  0  0  0  0
  2  3  1  0  0  0  0
  3  4  1  0  0  0  0
  4  5  2  0  0  0  0
  4 11  1  0  0  0  0
  5 12  1  0  0  0  0
  6  5  1  0  0  0  0
  7  6  1  0  0  0  0
  8  7  2  0  0  0  0
  9  1  1  0  0  0  0
 10  3  1  0  0  0  0
M  RAD  2   1   2   2   2
M  END
