title
 OpenBabel02282109573D

 12 12  0  0  0  0  0  0  0  0999 V2000
    0.2953    2.0872    0.6588 N   0  0  0  0  0  0  0  0  0  0  0  0
    0.3094    0.8975    0.2446 C   0  0  0  0  0  0  0  0  0  0  0  0
    1.4706    0.3126   -0.2040 O   0  0  0  0  0  0  0  0  0  0  0  0
    1.4463   -0.9847   -0.6472 C   0  0  0  0  0  0  0  0  0  0  0  0
    0.3385   -1.7106   -0.6630 C   0  0  0  0  0  0  0  0  0  0  0  0
   -0.8693   -1.2206   -0.2373 O   0  0  0  0  0  0  0  0  0  0  0  0
   -0.9512    0.0716    0.2265 C   0  0  0  0  0  0  0  0  0  0  0  0
   -2.0444    0.5542    0.6251 N   0  0  0  0  0  0  0  0  0  0  0  0
    1.2327    2.4903    0.5993 H   0  0  0  0  0  0  0  0  0  0  0  0
    2.4125   -1.3373   -0.9741 H   0  0  0  0  0  0  0  0  0  0  0  0
    0.2827   -2.7329   -1.0045 H   0  0  0  0  0  0  0  0  0  0  0  0
   -2.7869   -0.1432    0.5415 H   0  0  0  0  0  0  0  0  0  0  0  0
  2  1  1  0  0  0  0
  3  2  1  0  0  0  0
  4  3  1  0  0  0  0
  5  4  2  0  0  0  0
  5  6  1  0  0  0  0
  6  7  1  0  0  0  0
  7  2  2  0  0  0  0
  7  8  1  0  0  0  0
  9  1  1  0  0  0  0
 10  4  1  0  0  0  0
 11  5  1  0  0  0  0
 12  8  1  0  0  0  0
M  RAD  2   1   2   8   2
M  END
