11
title
N 0.29910207 2.0716753 0.667567
C 0.33335456 0.884 0.249265
O 1.4988247 0.28608763 -0.16192885
C 1.4599769 -1.0089741 -0.6058555
C 0.33860216 -1.7128689 -0.6551798
O -0.8757081 -1.2017086 -0.26507175
C -0.9595469 0.08200455 0.19702332
O -2.0131037 0.52278763 0.53337455
H 1.2336482 2.485418 0.64782715
H 2.427557 -1.3823183 -0.904788
H 0.27465203 -2.7336946 -0.9995494
