title
 OpenBabel02282109573D

 11 11  0  0  0  0  0  0  0  0999 V2000
   -0.3454   -2.1458    0.1693 O   0  0  0  0  0  0  0  0  0  0  0  0
   -0.3488   -0.9428    0.0743 C   0  0  0  0  0  0  0  0  0  0  0  0
   -1.4949   -0.1858    0.0147 N   0  0  0  0  0  0  0  0  0  0  0  0
   -1.4999    1.1999   -0.0945 C   0  0  0  0  0  0  0  0  0  0  0  0
   -0.3469    1.8640   -0.1469 C   0  0  0  0  0  0  0  0  0  0  0  0
    0.8659    1.2285   -0.0969 O   0  0  0  0  0  0  0  0  0  0  0  0
    0.9620   -0.1381    0.0106 C   0  0  0  0  0  0  0  0  0  0  0  0
    2.0340   -0.6561    0.0516 O   0  0  0  0  0  0  0  0  0  0  0  0
   -2.3621   -0.7026    0.0557 H   0  0  0  0  0  0  0  0  0  0  0  0
   -2.4592    1.6937   -0.1333 H   0  0  0  0  0  0  0  0  0  0  0  0
   -0.2521    2.9353   -0.2313 H   0  0  0  0  0  0  0  0  0  0  0  0
  2  1  2  0  0  0  0
  3  9  1  0  0  0  0
  3  2  1  0  0  0  0
  4  3  1  0  0  0  0
  5  6  1  0  0  0  0
  5  4  2  0  0  0  0
  6  7  1  0  0  0  0
  7  8  2  0  0  0  0
  7  2  1  0  0  0  0
 10  4  1  0  0  0  0
 11  5  1  0  0  0  0
M  END
