11
title
O -0.34535286 -2.1458025 0.16933359
C -0.34882608 -0.9427647 0.07427344
N -1.494912 -0.18581708 0.014745068
C -1.4999115 1.1998537 -0.09447355
C -0.34686643 1.8640039 -0.1469117
O 0.8659164 1.2285402 -0.09691811
C 0.9620044 -0.13812728 0.010632987
O 2.0339713 -0.6561126 0.051615126
H -2.362108 -0.7026413 0.055679187
H -2.4592438 1.6937037 -0.13330974
H -0.25206497 2.935293 -0.23133051
