title
 OpenBabel02282109573D

 18 18  0  0  0  0  0  0  0  0999 V2000
   -0.0033    2.3191   -0.3559 C   0  0  0  0  0  0  0  0  0  0  0  0
   -0.0043    0.8105   -0.3420 C   0  0  0  0  0  0  0  0  0  0  0  0
   -0.0229    0.0979   -1.5422 C   0  0  0  0  0  0  0  0  0  0  0  0
   -0.0246   -1.2945   -1.5616 C   0  0  0  0  0  0  0  0  0  0  0  0
   -0.0072   -1.9960   -0.3615 C   0  0  0  0  0  0  0  0  0  0  0  0
    0.0114   -1.2959    0.8420 C   0  0  0  0  0  0  0  0  0  0  0  0
    0.0132    0.0997    0.8740 C   0  0  0  0  0  0  0  0  0  0  0  0
    0.0337    0.8278    2.1952 C   0  0  0  0  0  0  0  0  0  0  0  0
    0.8805    2.7303    0.1468 H   0  0  0  0  0  0  0  0  0  0  0  0
   -0.0130    2.7029   -1.3792 H   0  0  0  0  0  0  0  0  0  0  0  0
   -0.8769    2.7314    0.1636 H   0  0  0  0  0  0  0  0  0  0  0  0
   -0.0363    0.6478   -2.4790 H   0  0  0  0  0  0  0  0  0  0  0  0
   -0.0392   -1.8242   -2.5084 H   0  0  0  0  0  0  0  0  0  0  0  0
   -0.0082   -3.0811   -0.3584 H   0  0  0  0  0  0  0  0  0  0  0  0
    0.0249   -1.8424    1.7808 H   0  0  0  0  0  0  0  0  0  0  0  0
    0.9168    1.4711    2.2916 H   0  0  0  0  0  0  0  0  0  0  0  0
   -0.8405    1.4794    2.3144 H   0  0  0  0  0  0  0  0  0  0  0  0
    0.0413    0.1245    3.0317 H   0  0  0  0  0  0  0  0  0  0  0  0
  1  2  1  0  0  0  0
  1  9  1  0  0  0  0
  1 11  1  0  0  0  0
  2  7  2  0  0  0  0
  3  2  1  0  0  0  0
  4  3  2  0  0  0  0
  4  5  1  0  0  0  0
  5 14  1  0  0  0  0
  5  6  2  0  0  0  0
  6  7  1  0  0  0  0
  6 15  1  0  0  0  0
  7  8  1  0  0  0  0
  8 16  1  0  0  0  0
  8 17  1  0  0  0  0
  8 18  1  0  0  0  0
 10  1  1  0  0  0  0
 12  3  1  0  0  0  0
 13  4  1  0  0  0  0
M  END
