18
title
C -0.0033258384 2.3191438 -0.35594317
C -0.0042885793 0.81054664 -0.3420036
C -0.022925414 0.0978505 -1.5421593
C -0.024563603 -1.2945212 -1.5615726
C -0.0072409837 -1.996029 -0.36154354
C 0.011391669 -1.2958671 0.8419947
C 0.013164091 0.09970832 0.87398845
C 0.033657074 0.82783437 2.1951518
H 0.8804645 2.730309 0.14675874
H -0.013030178 2.7029235 -1.379224
H -0.8769249 2.7313714 0.16358823
H -0.03633089 0.6477582 -2.478955
H -0.039225157 -1.8242425 -2.5084069
H -0.008206273 -3.0810654 -0.35843176
H 0.024856338 -1.8423742 1.7807775
H 0.91679144 1.4710876 2.2915814
H -0.8405107 1.4793512 2.3144338
H 0.04134647 0.12450981 3.0316684
