title
 OpenBabel02282109573D

 17 17  0  0  0  0  0  0  0  0999 V2000
   -0.0369    2.3207   -0.3464 C   0  0  0  0  0  0  0  0  0  0  0  0
   -0.0327    0.8137   -0.3507 C   0  0  0  0  0  0  0  0  0  0  0  0
   -0.0875    0.0936   -1.5428 C   0  0  0  0  0  0  0  0  0  0  0  0
   -0.0695   -1.2989   -1.5646 C   0  0  0  0  0  0  0  0  0  0  0  0
    0.0052   -1.9918   -0.3600 C   0  0  0  0  0  0  0  0  0  0  0  0
    0.0553   -1.2975    0.8428 C   0  0  0  0  0  0  0  0  0  0  0  0
    0.0383    0.1022    0.8647 C   0  0  0  0  0  0  0  0  0  0  0  0
    0.1548    0.7910    2.0777 N   0  0  0  0  0  0  0  0  0  0  0  0
    0.8380    2.7248    0.1777 H   0  0  0  0  0  0  0  0  0  0  0  0
   -0.0318    2.7159   -1.3651 H   0  0  0  0  0  0  0  0  0  0  0  0
   -0.9254    2.7314    0.1546 H   0  0  0  0  0  0  0  0  0  0  0  0
   -0.1432    0.6446   -2.4776 H   0  0  0  0  0  0  0  0  0  0  0  0
   -0.1112   -1.8319   -2.5078 H   0  0  0  0  0  0  0  0  0  0  0  0
    0.0201   -3.0770   -0.3515 H   0  0  0  0  0  0  0  0  0  0  0  0
    0.1112   -1.8398    1.7829 H   0  0  0  0  0  0  0  0  0  0  0  0
   -0.0874    0.2405    2.8891 H   0  0  0  0  0  0  0  0  0  0  0  0
   -0.3013    1.6914    2.1028 H   0  0  0  0  0  0  0  0  0  0  0  0
  1 11  1  0  0  0  0
  1  9  1  0  0  0  0
  2  1  1  0  0  0  0
  2  7  2  0  0  0  0
  3  2  1  0  0  0  0
  4  3  2  0  0  0  0
  4  5  1  0  0  0  0
  5 14  1  0  0  0  0
  5  6  2  0  0  0  0
  6  7  1  0  0  0  0
  6 15  1  0  0  0  0
  7  8  1  0  0  0  0
  8 17  1  0  0  0  0
  8 16  1  0  0  0  0
 10  1  1  0  0  0  0
 12  3  1  0  0  0  0
 13  4  1  0  0  0  0
M  END
