17
title
C -0.03685623 2.320676 -0.34642026
C -0.032700963 0.8136964 -0.35067374
C -0.08747302 0.09359443 -1.5428195
C -0.069474325 -1.2989211 -1.5645677
C 0.005245099 -1.9918394 -0.3600385
C 0.055321697 -1.2975469 0.8428002
C 0.038312685 0.10216999 0.86471957
N 0.15484186 0.79103345 2.077722
H 0.8379889 2.7247794 0.17772
H -0.03182089 2.7158844 -1.3650973
H -0.9254471 2.7313507 0.15462373
H -0.14315173 0.6446402 -2.4776337
H -0.11115407 -1.8319063 -2.5077846
H 0.02007777 -3.0769575 -0.35154635
H 0.11123004 -1.8398247 1.7829236
H -0.08735265 0.24046773 2.8891315
H -0.3012881 1.6914454 2.1027966
