16
title
C -0.051266722 2.3284051 -0.3745513
C -0.009994415 0.8242546 -0.38524652
C -0.0018383552 0.08764343 -1.5600345
C 0.015988136 -1.3073165 -1.5234487
C 0.028056363 -1.9167614 -0.27796388
N 0.03070993 -1.2441804 0.87608886
C 0.008450827 0.09045999 0.82463956
N -0.051635917 0.7426319 2.0463264
H 0.8530558 2.7625592 0.074727416
H -0.13076401 2.7264538 -1.389341
H -0.90486664 2.7011077 0.20452386
H -0.015217902 0.6102749 -2.5126605
H 0.020402612 -1.8971696 -2.4321163
H 0.04110041 -3.0010781 -0.1924674
H 0.18221758 0.1397985 2.822037
H 0.37121204 1.6562595 2.097177
