title
 OpenBabel02282109573D

 16 16  0  0  0  0  0  0  0  0999 V2000
   -0.0513    2.3284   -0.3746 C   0  0  0  0  0  0  0  0  0  0  0  0
   -0.0100    0.8243   -0.3852 C   0  0  0  0  0  0  0  0  0  0  0  0
   -0.0018    0.0876   -1.5600 C   0  0  0  0  0  0  0  0  0  0  0  0
    0.0160   -1.3073   -1.5234 C   0  0  0  0  0  0  0  0  0  0  0  0
    0.0281   -1.9168   -0.2780 C   0  0  0  0  0  0  0  0  0  0  0  0
    0.0307   -1.2442    0.8761 N   0  0  0  0  0  0  0  0  0  0  0  0
    0.0085    0.0905    0.8246 C   0  0  0  0  0  0  0  0  0  0  0  0
   -0.0516    0.7426    2.0463 N   0  0  0  0  0  0  0  0  0  0  0  0
    0.8531    2.7626    0.0747 H   0  0  0  0  0  0  0  0  0  0  0  0
   -0.1308    2.7265   -1.3893 H   0  0  0  0  0  0  0  0  0  0  0  0
   -0.9049    2.7011    0.2045 H   0  0  0  0  0  0  0  0  0  0  0  0
   -0.0152    0.6103   -2.5127 H   0  0  0  0  0  0  0  0  0  0  0  0
    0.0204   -1.8972   -2.4321 H   0  0  0  0  0  0  0  0  0  0  0  0
    0.0411   -3.0011   -0.1925 H   0  0  0  0  0  0  0  0  0  0  0  0
    0.1822    0.1398    2.8220 H   0  0  0  0  0  0  0  0  0  0  0  0
    0.3712    1.6563    2.0972 H   0  0  0  0  0  0  0  0  0  0  0  0
  1  9  1  0  0  0  0
  1 11  1  0  0  0  0
  2  1  1  0  0  0  0
  2  7  2  0  0  0  0
  3  4  2  0  0  0  0
  3  2  1  0  0  0  0
  4  5  1  0  0  0  0
  5 14  1  0  0  0  0
  5  6  2  0  0  0  0
  7  6  1  0  0  0  0
  7  8  1  0  0  0  0
  8 16  1  0  0  0  0
  8 15  1  0  0  0  0
 10  1  1  0  0  0  0
 12  3  1  0  0  0  0
 13  4  1  0  0  0  0
M  END
