title
 OpenBabel02282109573D

 16 16  0  0  0  0  0  0  0  0999 V2000
   -0.0369    2.3432   -0.3464 C   0  0  0  0  0  0  0  0  0  0  0  0
   -0.0332    0.8387   -0.3515 C   0  0  0  0  0  0  0  0  0  0  0  0
   -0.0872    0.1014   -1.5310 C   0  0  0  0  0  0  0  0  0  0  0  0
   -0.0657   -1.2890   -1.4921 C   0  0  0  0  0  0  0  0  0  0  0  0
    0.0036   -1.9795   -0.3515 N   0  0  0  0  0  0  0  0  0  0  0  0
    0.0497   -1.2831    0.7808 C   0  0  0  0  0  0  0  0  0  0  0  0
    0.0379    0.1165    0.8534 C   0  0  0  0  0  0  0  0  0  0  0  0
    0.1581    0.7689    2.0824 N   0  0  0  0  0  0  0  0  0  0  0  0
    0.8330    2.7399    0.1905 H   0  0  0  0  0  0  0  0  0  0  0  0
   -0.0220    2.7413   -1.3635 H   0  0  0  0  0  0  0  0  0  0  0  0
   -0.9300    2.7473    0.1502 H   0  0  0  0  0  0  0  0  0  0  0  0
   -0.1430    0.6163   -2.4854 H   0  0  0  0  0  0  0  0  0  0  0  0
   -0.1057   -1.8690   -2.4102 H   0  0  0  0  0  0  0  0  0  0  0  0
    0.1037   -1.8604    1.7041 H   0  0  0  0  0  0  0  0  0  0  0  0
   -0.0527    0.1871    2.8812 H   0  0  0  0  0  0  0  0  0  0  0  0
   -0.3168    1.6579    2.1457 H   0  0  0  0  0  0  0  0  0  0  0  0
  1 11  1  0  0  0  0
  1  9  1  0  0  0  0
  2  1  1  0  0  0  0
  2  7  2  0  0  0  0
  3  4  2  0  0  0  0
  3  2  1  0  0  0  0
  4  5  1  0  0  0  0
  5  6  2  0  0  0  0
  6  7  1  0  0  0  0
  6 14  1  0  0  0  0
  7  8  1  0  0  0  0
  8 16  1  0  0  0  0
  8 15  1  0  0  0  0
 10  1  1  0  0  0  0
 12  3  1  0  0  0  0
 13  4  1  0  0  0  0
M  END
