title
 OpenBabel02282109573D

 15 15  0  0  0  0  0  0  0  0999 V2000
   -0.0121    2.3295   -0.2959 C   0  0  0  0  0  0  0  0  0  0  0  0
   -0.0172    0.8236   -0.3155 C   0  0  0  0  0  0  0  0  0  0  0  0
   -0.0921    0.1007   -1.5059 C   0  0  0  0  0  0  0  0  0  0  0  0
   -0.1015   -1.2294   -1.6035 N   0  0  0  0  0  0  0  0  0  0  0  0
   -0.0328   -1.9104   -0.4549 C   0  0  0  0  0  0  0  0  0  0  0  0
    0.0454   -1.3160    0.7965 C   0  0  0  0  0  0  0  0  0  0  0  0
    0.0534    0.0752    0.8684 C   0  0  0  0  0  0  0  0  0  0  0  0
    0.1302    0.6490    2.0956 O   0  0  0  0  0  0  0  0  0  0  0  0
    0.9042    2.7355    0.1535 H   0  0  0  0  0  0  0  0  0  0  0  0
   -0.0748    2.7278   -1.3114 H   0  0  0  0  0  0  0  0  0  0  0  0
   -0.8631    2.7400    0.2643 H   0  0  0  0  0  0  0  0  0  0  0  0
   -0.1483    0.6492   -2.4456 H   0  0  0  0  0  0  0  0  0  0  0  0
   -0.0407   -2.9947   -0.5378 H   0  0  0  0  0  0  0  0  0  0  0  0
    0.0996   -1.9030    1.7056 H   0  0  0  0  0  0  0  0  0  0  0  0
    0.1273    1.6075    2.0035 H   0  0  0  0  0  0  0  0  0  0  0  0
  1  9  1  0  0  0  0
  1 11  1  0  0  0  0
  2  1  1  0  0  0  0
  2  7  2  0  0  0  0
  3  2  1  0  0  0  0
  4  3  2  0  0  0  0
  4  5  1  0  0  0  0
  5  6  2  0  0  0  0
  6  7  1  0  0  0  0
  6 14  1  0  0  0  0
  7  8  1  0  0  0  0
 10  1  1  0  0  0  0
 12  3  1  0  0  0  0
 13  5  1  0  0  0  0
 15  8  1  0  0  0  0
M  END
