title
 OpenBabel02282109573D

 16 16  0  0  0  0  0  0  0  0999 V2000
    0.0002    2.3274   -0.3630 C   0  0  0  0  0  0  0  0  0  0  0  0
   -0.0036    0.8236   -0.3386 C   0  0  0  0  0  0  0  0  0  0  0  0
   -0.0270    0.0750   -1.5110 C   0  0  0  0  0  0  0  0  0  0  0  0
   -0.0315   -1.2602   -1.5395 N   0  0  0  0  0  0  0  0  0  0  0  0
   -0.0118   -1.8519   -0.3475 C   0  0  0  0  0  0  0  0  0  0  0  0
    0.0116   -1.2554    0.8446 N   0  0  0  0  0  0  0  0  0  0  0  0
    0.0157    0.0829    0.8564 C   0  0  0  0  0  0  0  0  0  0  0  0
    0.0420    0.7537    2.2024 C   0  0  0  0  0  0  0  0  0  0  0  0
    0.8897    2.7380    0.1287 H   0  0  0  0  0  0  0  0  0  0  0  0
   -0.0160    2.7004   -1.3907 H   0  0  0  0  0  0  0  0  0  0  0  0
   -0.8699    2.7429    0.1582 H   0  0  0  0  0  0  0  0  0  0  0  0
   -0.0429    0.5793   -2.4766 H   0  0  0  0  0  0  0  0  0  0  0  0
   -0.0149   -2.9395   -0.3427 H   0  0  0  0  0  0  0  0  0  0  0  0
    0.9246    1.3952    2.3084 H   0  0  0  0  0  0  0  0  0  0  0  0
   -0.8343    1.3977    2.3412 H   0  0  0  0  0  0  0  0  0  0  0  0
    0.0554   -0.0024    2.9876 H   0  0  0  0  0  0  0  0  0  0  0  0
  1  2  1  0  0  0  0
  1  9  1  0  0  0  0
  1 11  1  0  0  0  0
  2  7  1  0  0  0  0
  3  2  2  0  0  0  0
  4  3  1  0  0  0  0
  4  5  2  0  0  0  0
  5 13  1  0  0  0  0
  5  6  1  0  0  0  0
  6  7  2  0  0  0  0
  7  8  1  0  0  0  0
  8 14  1  0  0  0  0
  8 15  1  0  0  0  0
  8 16  1  0  0  0  0
 10  1  1  0  0  0  0
 12  3  1  0  0  0  0
M  END
