title
 OpenBabel02282109573D

 15 15  0  0  0  0  0  0  0  0999 V2000
   -0.0499    2.3352   -0.3587 C   0  0  0  0  0  0  0  0  0  0  0  0
   -0.0116    0.8331   -0.3513 C   0  0  0  0  0  0  0  0  0  0  0  0
    0.0019    0.0756   -1.5091 C   0  0  0  0  0  0  0  0  0  0  0  0
    0.0235   -1.2654   -1.5374 N   0  0  0  0  0  0  0  0  0  0  0  0
    0.0323   -1.8468   -0.3416 C   0  0  0  0  0  0  0  0  0  0  0  0
    0.0278   -1.2517    0.8496 N   0  0  0  0  0  0  0  0  0  0  0  0
    0.0031    0.0869    0.8494 C   0  0  0  0  0  0  0  0  0  0  0  0
   -0.0502    0.6974    2.0745 N   0  0  0  0  0  0  0  0  0  0  0  0
    0.8398    2.7719    0.1154 H   0  0  0  0  0  0  0  0  0  0  0  0
   -0.0928    2.7179   -1.3818 H   0  0  0  0  0  0  0  0  0  0  0  0
   -0.9245    2.7193    0.1805 H   0  0  0  0  0  0  0  0  0  0  0  0
   -0.0071    0.5772   -2.4762 H   0  0  0  0  0  0  0  0  0  0  0  0
    0.0492   -2.9346   -0.3292 H   0  0  0  0  0  0  0  0  0  0  0  0
    0.1558    0.0983    2.8589 H   0  0  0  0  0  0  0  0  0  0  0  0
    0.2528    1.6533    2.1543 H   0  0  0  0  0  0  0  0  0  0  0  0
  1  2  1  0  0  0  0
  1  9  1  0  0  0  0
  1 11  1  0  0  0  0
  2  7  1  0  0  0  0
  3  2  2  0  0  0  0
  4  3  1  0  0  0  0
  4  5  2  0  0  0  0
  5 13  1  0  0  0  0
  5  6  1  0  0  0  0
  7  6  2  0  0  0  0
  7  8  1  0  0  0  0
  8 15  1  0  0  0  0
  8 14  1  0  0  0  0
 10  1  1  0  0  0  0
 12  3  1  0  0  0  0
M  END
