15
title
C -0.04987266 2.3351784 -0.35872048
C -0.011613629 0.8331448 -0.3512791
C 0.0019021034 0.07557934 -1.5090636
N 0.02350391 -1.2653697 -1.537415
C 0.03228173 -1.8467515 -0.34160814
N 0.027762339 -1.2517369 0.8496343
C 0.003102483 0.08689844 0.84937847
N -0.050170977 0.69738066 2.0744743
H 0.8397689 2.7718523 0.115358055
H -0.092821755 2.7179086 -1.3817931
H -0.92451936 2.7193325 0.18053493
H -0.0070708115 0.5771565 -2.4762251
H 0.049162813 -2.9346406 -0.32916182
H 0.15579283 0.098287694 2.8588996
H 0.25282666 1.6532562 2.1543305
