16
title
C -0.042147316 2.2802525 -0.36228955
C -0.032437425 0.7741081 -0.34095508
N -0.0912267 0.14463882 -1.5150565
C -0.0731831 -1.1908598 -1.5392394
C 0.002650912 -1.9631491 -0.3866822
C 0.05890765 -1.3190231 0.8421942
C 0.04362932 0.07626669 0.8857722
N 0.16260013 0.76672447 2.0928977
H 0.8370071 2.6951911 0.14592567
H -0.049771696 2.624512 -1.3968716
H -0.92889893 2.6920767 0.14039695
H -0.12112922 -1.6557417 -2.5203054
H 0.0137068955 -3.045969 -0.44670507
H 0.11698401 -1.8878272 1.7662938
H -0.0863943 0.22888069 2.910766
H -0.26592833 1.6803817 2.1093175
