title
 OpenBabel02282109573D

 15 15  0  0  0  0  0  0  0  0999 V2000
   -0.0413    2.3001   -0.3647 C   0  0  0  0  0  0  0  0  0  0  0  0
   -0.0316    0.7973   -0.3389 C   0  0  0  0  0  0  0  0  0  0  0  0
   -0.0897    0.1490   -1.5035 N   0  0  0  0  0  0  0  0  0  0  0  0
   -0.0699   -1.1837   -1.4722 C   0  0  0  0  0  0  0  0  0  0  0  0
   -0.0011   -1.9483   -0.3839 N   0  0  0  0  0  0  0  0  0  0  0  0
    0.0514   -1.3018    0.7787 C   0  0  0  0  0  0  0  0  0  0  0  0
    0.0430    0.0914    0.8784 C   0  0  0  0  0  0  0  0  0  0  0  0
    0.1666    0.7441    2.1016 N   0  0  0  0  0  0  0  0  0  0  0  0
    0.8339    2.7101    0.1536 H   0  0  0  0  0  0  0  0  0  0  0  0
   -0.0415    2.6464   -1.3985 H   0  0  0  0  0  0  0  0  0  0  0  0
   -0.9314    2.7068    0.1349 H   0  0  0  0  0  0  0  0  0  0  0  0
   -0.1151   -1.6947   -2.4301 H   0  0  0  0  0  0  0  0  0  0  0  0
    0.1058   -1.9119    1.6806 H   0  0  0  0  0  0  0  0  0  0  0  0
   -0.0538    0.1757    2.9073 H   0  0  0  0  0  0  0  0  0  0  0  0
   -0.2750    1.6502    2.1565 H   0  0  0  0  0  0  0  0  0  0  0  0
  1  2  1  0  0  0  0
  1 11  1  0  0  0  0
  1  9  1  0  0  0  0
  2  7  2  0  0  0  0
  3  4  2  0  0  0  0
  3  2  1  0  0  0  0
  4  5  1  0  0  0  0
  5  6  2  0  0  0  0
  6  7  1  0  0  0  0
  6 13  1  0  0  0  0
  7  8  1  0  0  0  0
  8 15  1  0  0  0  0
  8 14  1  0  0  0  0
 10  1  1  0  0  0  0
 12  4  1  0  0  0  0
M  END
