title
 OpenBabel02282109573D

 16 16  0  0  0  0  0  0  0  0999 V2000
   -0.3251    2.2001    0.0822 N   0  0  0  0  0  0  0  0  0  0  0  0
   -0.3634    0.7930    0.0226 C   0  0  0  0  0  0  0  0  0  0  0  0
   -1.5517    0.0670    0.0573 C   0  0  0  0  0  0  0  0  0  0  0  0
   -1.5414   -1.3269    0.0331 C   0  0  0  0  0  0  0  0  0  0  0  0
   -0.3307   -2.0067   -0.0393 C   0  0  0  0  0  0  0  0  0  0  0  0
    0.8649   -1.2900   -0.0596 C   0  0  0  0  0  0  0  0  0  0  0  0
    0.8663    0.1025   -0.0209 C   0  0  0  0  0  0  0  0  0  0  0  0
    2.0480    0.8677   -0.0765 N   0  0  0  0  0  0  0  0  0  0  0  0
    0.3443    2.5898   -0.5734 H   0  0  0  0  0  0  0  0  0  0  0  0
   -1.2324    2.6237   -0.0625 H   0  0  0  0  0  0  0  0  0  0  0  0
   -2.4953    0.6050    0.0951 H   0  0  0  0  0  0  0  0  0  0  0  0
   -2.4784   -1.8723    0.0579 H   0  0  0  0  0  0  0  0  0  0  0  0
   -0.3086   -3.0906   -0.0672 H   0  0  0  0  0  0  0  0  0  0  0  0
    1.8155   -1.8155   -0.0973 H   0  0  0  0  0  0  0  0  0  0  0  0
    2.8816    0.3131    0.0682 H   0  0  0  0  0  0  0  0  0  0  0  0
    2.0312    1.6404    0.5812 H   0  0  0  0  0  0  0  0  0  0  0  0
  2  3  1  0  0  0  0
  2  1  1  0  0  0  0
  3 11  1  0  0  0  0
  4  3  2  0  0  0  0
  4 12  1  0  0  0  0
  5  4  1  0  0  0  0
  6  5  2  0  0  0  0
  6  7  1  0  0  0  0
  7  2  2  0  0  0  0
  8  7  1  0  0  0  0
  8 15  1  0  0  0  0
  8 16  1  0  0  0  0
  9  1  1  0  0  0  0
 10  1  1  0  0  0  0
 13  5  1  0  0  0  0
 14  6  1  0  0  0  0
M  END
