16
title
N -0.32510468 2.200147 0.08223078
C -0.36337996 0.7929845 0.022590829
C -1.5517367 0.06696753 0.057329874
C -1.5413625 -1.3269241 0.03309587
C -0.33073384 -2.006659 -0.039334886
C 0.8649152 -1.2899735 -0.05962494
C 0.8662793 0.10250889 -0.02091528
N 2.047992 0.86773264 -0.076484226
H 0.34434623 2.5898166 -0.5733686
H -1.2323804 2.6237142 -0.06252092
H -2.4953249 0.6050004 0.09505709
H -2.478414 -1.8722811 0.05787642
H -0.30864626 -3.0905561 -0.06716354
H 1.8155022 -1.8155429 -0.097331904
H 2.8816435 0.313108 0.068171784
H 2.0311654 1.6404212 0.5811506
