15
title
N -0.39104107 2.1915467 -0.06918703
C -0.38592365 0.79755193 0.007922699
C -1.5584267 0.043849375 0.08462612
C -1.5214801 -1.349373 0.1019869
C -0.30376193 -2.0164747 0.04345841
C 0.87842023 -1.2777752 -0.029995319
C 0.84085405 0.10921701 -0.04659712
O 1.9655045 0.89487565 -0.10771975
H 0.48617738 2.6126833 0.20129552
H -1.1787196 2.631523 0.38368765
H -2.5107718 0.5646496 0.1270866
H -2.4493148 -1.90771 0.16203976
H -0.26326784 -3.0996222 0.055749606
H 1.840665 -1.7828006 -0.07117292
H 2.743465 0.32906526 -0.11075443
