title
 OpenBabel02282109573D

 15 15  0  0  0  0  0  0  0  0999 V2000
   -0.3910    2.1915   -0.0692 N   0  0  0  0  0  0  0  0  0  0  0  0
   -0.3859    0.7976    0.0079 C   0  0  0  0  0  0  0  0  0  0  0  0
   -1.5584    0.0438    0.0846 C   0  0  0  0  0  0  0  0  0  0  0  0
   -1.5215   -1.3494    0.1020 C   0  0  0  0  0  0  0  0  0  0  0  0
   -0.3038   -2.0165    0.0435 C   0  0  0  0  0  0  0  0  0  0  0  0
    0.8784   -1.2778   -0.0300 C   0  0  0  0  0  0  0  0  0  0  0  0
    0.8409    0.1092   -0.0466 C   0  0  0  0  0  0  0  0  0  0  0  0
    1.9655    0.8949   -0.1077 O   0  0  0  0  0  0  0  0  0  0  0  0
    0.4862    2.6127    0.2013 H   0  0  0  0  0  0  0  0  0  0  0  0
   -1.1787    2.6315    0.3837 H   0  0  0  0  0  0  0  0  0  0  0  0
   -2.5108    0.5646    0.1271 H   0  0  0  0  0  0  0  0  0  0  0  0
   -2.4493   -1.9077    0.1620 H   0  0  0  0  0  0  0  0  0  0  0  0
   -0.2633   -3.0996    0.0557 H   0  0  0  0  0  0  0  0  0  0  0  0
    1.8407   -1.7828   -0.0712 H   0  0  0  0  0  0  0  0  0  0  0  0
    2.7435    0.3291   -0.1108 H   0  0  0  0  0  0  0  0  0  0  0  0
  1  2  1  0  0  0  0
  1  9  1  0  0  0  0
  1 10  1  0  0  0  0
  2  3  2  0  0  0  0
  3  4  1  0  0  0  0
  3 11  1  0  0  0  0
  4 12  1  0  0  0  0
  5 13  1  0  0  0  0
  5  4  2  0  0  0  0
  6  5  1  0  0  0  0
  7  6  2  0  0  0  0
  7  2  1  0  0  0  0
  8  7  1  0  0  0  0
 14  6  1  0  0  0  0
 15  8  1  0  0  0  0
M  END
