14
title
N -0.37063298 2.1937902 -0.07144837
C -0.35240236 0.8029254 0.007513492
C -1.5123539 0.029320773 0.09246145
N -1.5399884 -1.3052197 0.11145974
C -0.37156066 -1.9418287 0.04669518
C 0.85342765 -1.281749 -0.0331745
C 0.86573684 0.10535496 -0.051734157
O 1.998705 0.86215967 -0.11718795
H 0.49328354 2.6306686 0.2160101
H -1.1765437 2.627095 0.35543704
H -2.4756 0.53540397 0.146456
H -0.40456772 -3.0278857 0.060650468
H 1.7835382 -1.8418927 -0.07690108
H 2.7682934 0.2839136 -0.13356361
