title
 OpenBabel02282109573D

 14 14  0  0  0  0  0  0  0  0999 V2000
   -0.3308    2.2166    0.0926 N   0  0  0  0  0  0  0  0  0  0  0  0
   -0.3650    0.8117    0.0262 C   0  0  0  0  0  0  0  0  0  0  0  0
   -1.5163    0.0456    0.0728 C   0  0  0  0  0  0  0  0  0  0  0  0
   -1.5117   -1.2964    0.0487 N   0  0  0  0  0  0  0  0  0  0  0  0
   -0.3146   -1.8613   -0.0406 C   0  0  0  0  0  0  0  0  0  0  0  0
    0.8691   -1.2409   -0.0762 N   0  0  0  0  0  0  0  0  0  0  0  0
    0.8488    0.0885   -0.0307 C   0  0  0  0  0  0  0  0  0  0  0  0
    2.0469    0.7713   -0.0873 N   0  0  0  0  0  0  0  0  0  0  0  0
    0.2466    2.6233   -0.6363 H   0  0  0  0  0  0  0  0  0  0  0  0
   -1.2544    2.6309    0.0571 H   0  0  0  0  0  0  0  0  0  0  0  0
   -2.4903    0.5309    0.1325 H   0  0  0  0  0  0  0  0  0  0  0  0
   -0.2856   -2.9473   -0.0805 H   0  0  0  0  0  0  0  0  0  0  0  0
    2.8491    0.1754    0.0633 H   0  0  0  0  0  0  0  0  0  0  0  0
    2.0695    1.6322    0.4428 H   0  0  0  0  0  0  0  0  0  0  0  0
  2  3  2  0  0  0  0
  2  1  1  0  0  0  0
  3 11  1  0  0  0  0
  4  3  1  0  0  0  0
  5  4  2  0  0  0  0
  6  5  1  0  0  0  0
  6  7  2  0  0  0  0
  7  2  1  0  0  0  0
  8  7  1  0  0  0  0
  8 13  1  0  0  0  0
  8 14  1  0  0  0  0
  9  1  1  0  0  0  0
 10  1  1  0  0  0  0
 12  5  1  0  0  0  0
M  END
