title
 OpenBabel02282109573D

 12 12  0  0  0  0  0  0  0  0999 V2000
    0.0021    2.1497   -0.4323 O   0  0  0  0  0  0  0  0  0  0  0  0
   -0.0139    0.7956   -0.3816 C   0  0  0  0  0  0  0  0  0  0  0  0
   -0.1016    0.0218   -1.5261 C   0  0  0  0  0  0  0  0  0  0  0  0
   -0.1190   -1.3197   -1.4896 N   0  0  0  0  0  0  0  0  0  0  0  0
   -0.0470   -1.8769   -0.2891 C   0  0  0  0  0  0  0  0  0  0  0  0
    0.0410   -1.2327    0.8835 N   0  0  0  0  0  0  0  0  0  0  0  0
    0.0564    0.0834    0.8258 C   0  0  0  0  0  0  0  0  0  0  0  0
    0.1438    0.8051    1.9652 O   0  0  0  0  0  0  0  0  0  0  0  0
    0.0704    2.4831    0.4710 H   0  0  0  0  0  0  0  0  0  0  0  0
   -0.1594    0.5039   -2.4984 H   0  0  0  0  0  0  0  0  0  0  0  0
   -0.0598   -2.9618   -0.2421 H   0  0  0  0  0  0  0  0  0  0  0  0
    0.1841    0.1736    2.6970 H   0  0  0  0  0  0  0  0  0  0  0  0
  1  2  1  0  0  0  0
  1  9  1  0  0  0  0
  2  7  1  0  0  0  0
  3  4  1  0  0  0  0
  3  2  2  0  0  0  0
  4  5  2  0  0  0  0
  5 11  1  0  0  0  0
  5  6  1  0  0  0  0
  7  6  2  0  0  0  0
  7  8  1  0  0  0  0
  8 12  1  0  0  0  0
 10  3  1  0  0  0  0
M  END
