15
title
C -0.38671842 2.3607788 0.07182071
C -0.40538222 0.8622706 0.054995555
C -1.5308264 0.118412964 0.16790561
C -1.4784733 -1.3184956 0.14411823
C -0.2797235 -1.9055785 0.0066012177
O 0.8695603 -1.2050046 -0.10943014
C 0.8839814 0.19043094 -0.09382389
N 1.9855969 0.8154553 -0.20605558
H 0.24320547 2.730807 0.88742536
H 0.054622956 2.752756 -0.8503886
H -1.3961538 2.7638035 0.18651834
H -2.491915 0.61114764 0.2786161
H -2.3717048 -1.9217395 0.23353699
H -0.09890639 -2.9727085 -0.026334256
H 2.7637553 0.16248906 -0.29894125
