title
 OpenBabel02282109573D

 15 15  0  0  0  0  0  0  0  0999 V2000
   -0.3867    2.3608    0.0718 C   0  0  0  0  0  0  0  0  0  0  0  0
   -0.4054    0.8623    0.0550 C   0  0  0  0  0  0  0  0  0  0  0  0
   -1.5308    0.1184    0.1679 C   0  0  0  0  0  0  0  0  0  0  0  0
   -1.4785   -1.3185    0.1441 C   0  0  0  0  0  0  0  0  0  0  0  0
   -0.2797   -1.9056    0.0066 C   0  0  0  0  0  0  0  0  0  0  0  0
    0.8696   -1.2050   -0.1094 O   0  0  0  0  0  0  0  0  0  0  0  0
    0.8840    0.1904   -0.0938 C   0  0  0  0  0  0  0  0  0  0  0  0
    1.9856    0.8155   -0.2061 N   0  0  0  0  0  0  0  0  0  0  0  0
    0.2432    2.7308    0.8874 H   0  0  0  0  0  0  0  0  0  0  0  0
    0.0546    2.7528   -0.8504 H   0  0  0  0  0  0  0  0  0  0  0  0
   -1.3962    2.7638    0.1865 H   0  0  0  0  0  0  0  0  0  0  0  0
   -2.4919    0.6111    0.2786 H   0  0  0  0  0  0  0  0  0  0  0  0
   -2.3717   -1.9217    0.2335 H   0  0  0  0  0  0  0  0  0  0  0  0
   -0.0989   -2.9727   -0.0263 H   0  0  0  0  0  0  0  0  0  0  0  0
    2.7638    0.1625   -0.2989 H   0  0  0  0  0  0  0  0  0  0  0  0
  1 11  1  0  0  0  0
  1  9  1  0  0  0  0
  2  1  1  0  0  0  0
  2  3  2  0  0  0  0
  3 12  1  0  0  0  0
  4  3  1  0  0  0  0
  4 13  1  0  0  0  0
  5  4  2  0  0  0  0
  6  7  1  0  0  0  0
  6  5  1  0  0  0  0
  7  2  1  0  0  0  0
  8  7  2  0  0  0  0
 10  1  1  0  0  0  0
 14  5  1  0  0  0  0
 15  8  1  0  0  0  0
M  END
