title
 OpenBabel02282109573D

 14 14  0  0  0  0  0  0  0  0999 V2000
   -0.3839    2.3580   -0.0692 C   0  0  0  0  0  0  0  0  0  0  0  0
   -0.4113    0.8582   -0.0636 C   0  0  0  0  0  0  0  0  0  0  0  0
   -1.5339    0.1094   -0.2171 C   0  0  0  0  0  0  0  0  0  0  0  0
   -1.4821   -1.3197   -0.2009 C   0  0  0  0  0  0  0  0  0  0  0  0
   -0.2822   -1.9060   -0.0282 C   0  0  0  0  0  0  0  0  0  0  0  0
    0.8535   -1.2063    0.1274 O   0  0  0  0  0  0  0  0  0  0  0  0
    0.8770    0.1967    0.1227 C   0  0  0  0  0  0  0  0  0  0  0  0
    1.9427    0.7349    0.2707 O   0  0  0  0  0  0  0  0  0  0  0  0
    0.2714    2.7316   -0.8632 H   0  0  0  0  0  0  0  0  0  0  0  0
   -1.3858    2.7692   -0.2142 H   0  0  0  0  0  0  0  0  0  0  0  0
    0.0259    2.7427    0.8706 H   0  0  0  0  0  0  0  0  0  0  0  0
   -2.4919    0.6028   -0.3554 H   0  0  0  0  0  0  0  0  0  0  0  0
   -2.3710   -1.9236   -0.3221 H   0  0  0  0  0  0  0  0  0  0  0  0
   -0.1060   -2.9745    0.0032 H   0  0  0  0  0  0  0  0  0  0  0  0
  1  2  1  0  0  0  0
  1 11  1  0  0  0  0
  2  7  1  0  0  0  0
  3  4  1  0  0  0  0
  3  2  2  0  0  0  0
  4  5  2  0  0  0  0
  5 14  1  0  0  0  0
  5  6  1  0  0  0  0
  7  6  1  0  0  0  0
  7  8  2  0  0  0  0
  9  1  1  0  0  0  0
 10  1  1  0  0  0  0
 12  3  1  0  0  0  0
 13  4  1  0  0  0  0
M  END
