title
 OpenBabel02282109573D

 13 13  0  0  0  0  0  0  0  0999 V2000
   -0.0537    2.3700   -0.3291 C   0  0  0  0  0  0  0  0  0  0  0  0
   -0.0322    0.8718   -0.3639 C   0  0  0  0  0  0  0  0  0  0  0  0
   -0.0781    0.1288   -1.4972 C   0  0  0  0  0  0  0  0  0  0  0  0
   -0.0580   -1.2525   -1.5278 N   0  0  0  0  0  0  0  0  0  0  0  0
    0.0083   -1.8295   -0.3877 C   0  0  0  0  0  0  0  0  0  0  0  0
    0.0600   -1.2304    0.8090 O   0  0  0  0  0  0  0  0  0  0  0  0
    0.0436    0.1789    0.9136 C   0  0  0  0  0  0  0  0  0  0  0  0
    0.0926    0.6592    2.0105 O   0  0  0  0  0  0  0  0  0  0  0  0
    0.8440    2.7600    0.1618 H   0  0  0  0  0  0  0  0  0  0  0  0
   -0.1127    2.7843   -1.3383 H   0  0  0  0  0  0  0  0  0  0  0  0
   -0.9071    2.7328    0.2531 H   0  0  0  0  0  0  0  0  0  0  0  0
   -0.1351    0.6096   -2.4700 H   0  0  0  0  0  0  0  0  0  0  0  0
    0.0309   -2.9111   -0.2947 H   0  0  0  0  0  0  0  0  0  0  0  0
  1  9  1  0  0  0  0
  1 11  1  0  0  0  0
  2  1  1  0  0  0  0
  2  7  1  0  0  0  0
  3  2  2  0  0  0  0
  4  3  1  0  0  0  0
  4  5  2  0  0  0  0
  5 13  1  0  0  0  0
  5  6  1  0  0  0  0
  6  7  1  0  0  0  0
  7  8  2  0  0  0  0
 10  1  1  0  0  0  0
 12  3  1  0  0  0  0
M  END
