13
title
C -0.05367694 2.3699563 -0.32911432
C -0.03216638 0.8718318 -0.36393014
C -0.07805816 0.12875417 -1.4971737
N -0.05804687 -1.2525202 -1.5278324
C 0.008297807 -1.8294569 -0.38773748
O 0.059975117 -1.2303869 0.80898315
C 0.043608904 0.17888865 0.9135662
O 0.092559114 0.6592235 2.0105042
H 0.8440412 2.7600465 0.1617898
H -0.11267229 2.7843351 -1.3383101
H -0.9071353 2.7328002 0.25309312
H -0.13510506 0.6096254 -2.469987
H 0.030947456 -2.9111295 -0.29472736
