14
title
C 0.09754251 2.3293974 -0.34429923
C 0.01283815 0.8355415 -0.3831636
N -0.11687673 0.21881354 -1.5100816
C -0.19085653 -1.1671536 -1.4922199
C -0.13151346 -1.8650651 -0.35042942
O 0.004373244 -1.2541163 0.85262793
C 0.084792145 0.12674826 0.9128843
N 0.21222953 0.7336211 2.019573
H 1.0339648 2.6472278 0.1256727
H 0.03223549 2.7247424 -1.3583243
H -0.7057517 2.7420216 0.27474672
H -0.2994329 -1.6665795 -2.446339
H -0.1824489 -2.9422934 -0.25943354
H 0.2426551 0.07362998 2.797926
