13
title
C -0.05358493 2.3256776 -0.35393867
C -0.030042883 0.8293668 -0.39730412
N -0.06522787 0.1956601 -1.5253083
C -0.041085705 -1.1832669 -1.5020953
C 0.017268388 -1.8702481 -0.34804508
O 0.055312816 -1.2449193 0.84668
C 0.035024825 0.14104472 0.91323763
O 0.06930174 0.6732404 1.9888258
H 0.8378489 2.7082772 0.15479554
H -0.10281051 2.722151 -1.368296
H -0.91155994 2.6786916 0.22834505
H -0.07118085 -1.6958628 -2.4550943
H 0.03914955 -2.9488513 -0.25414443
