title
 OpenBabel02282109573D

 13 13  0  0  0  0  0  0  0  0999 V2000
   -0.0536    2.3257   -0.3539 C   0  0  0  0  0  0  0  0  0  0  0  0
   -0.0300    0.8294   -0.3973 C   0  0  0  0  0  0  0  0  0  0  0  0
   -0.0652    0.1957   -1.5253 N   0  0  0  0  0  0  0  0  0  0  0  0
   -0.0411   -1.1833   -1.5021 C   0  0  0  0  0  0  0  0  0  0  0  0
    0.0173   -1.8702   -0.3480 C   0  0  0  0  0  0  0  0  0  0  0  0
    0.0553   -1.2449    0.8467 O   0  0  0  0  0  0  0  0  0  0  0  0
    0.0350    0.1410    0.9132 C   0  0  0  0  0  0  0  0  0  0  0  0
    0.0693    0.6732    1.9888 O   0  0  0  0  0  0  0  0  0  0  0  0
    0.8378    2.7083    0.1548 H   0  0  0  0  0  0  0  0  0  0  0  0
   -0.1028    2.7222   -1.3683 H   0  0  0  0  0  0  0  0  0  0  0  0
   -0.9116    2.6787    0.2283 H   0  0  0  0  0  0  0  0  0  0  0  0
   -0.0712   -1.6959   -2.4551 H   0  0  0  0  0  0  0  0  0  0  0  0
    0.0391   -2.9489   -0.2541 H   0  0  0  0  0  0  0  0  0  0  0  0
  1  9  1  0  0  0  0
  1 11  1  0  0  0  0
  2  1  1  0  0  0  0
  2  7  1  0  0  0  0
  3  4  1  0  0  0  0
  3  2  2  0  0  0  0
  4  5  2  0  0  0  0
  5 13  1  0  0  0  0
  5  6  1  0  0  0  0
  6  7  1  0  0  0  0
  7  8  2  0  0  0  0
 10  1  1  0  0  0  0
 12  4  1  0  0  0  0
M  END
