14
title
N -0.33798718 2.210822 0.11443485
C -0.41257688 0.8387264 0.02717863
C -1.5603117 0.08955766 0.0026031795
C -1.5070248 -1.3326869 -0.028827727
C -0.30233353 -1.9559836 -0.03810671
N 0.8450397 -1.1995552 -0.024164319
C 0.89919186 0.18275584 -0.0026359411
O 1.9654471 0.79335016 -0.018047014
H 0.5827955 2.5644302 -0.11048851
H -1.1099312 2.745203 -0.25010777
H -2.5262272 0.5860578 0.013709546
H -2.418044 -1.9161487 -0.041824695
H -0.16688912 -3.0286415 -0.057171572
H 1.7503027 -1.647433 -0.047950953
