13
title
N -0.34725222 2.216785 0.11412311
C -0.4287788 0.8468312 0.026049545
C -1.5699766 0.09923612 0.0024701583
C -1.4838226 -1.3265977 -0.025677681
C -0.27413726 -1.9135389 -0.032944124
O 0.8748342 -1.1889138 -0.023943752
C 0.8814573 0.18184853 -0.005108683
O 1.938089 0.7704478 -0.023845837
H 0.56511384 2.5836964 -0.11743069
H -1.1316255 2.755318 -0.2158809
H -2.542107 0.5818119 0.0125272535
H -2.3763146 -1.9384177 -0.038119778
H -0.07585457 -2.9760492 -0.04885387
