title
 OpenBabel02282109573D

 13 13  0  0  0  0  0  0  0  0999 V2000
   -0.3264    2.2149    0.1165 N   0  0  0  0  0  0  0  0  0  0  0  0
   -0.3824    0.8429    0.0273 C   0  0  0  0  0  0  0  0  0  0  0  0
   -1.5152    0.0729   -0.0023 C   0  0  0  0  0  0  0  0  0  0  0  0
   -1.5142   -1.2992   -0.0310 N   0  0  0  0  0  0  0  0  0  0  0  0
   -0.3643   -1.8844   -0.0365 C   0  0  0  0  0  0  0  0  0  0  0  0
    0.8226   -1.2026   -0.0231 N   0  0  0  0  0  0  0  0  0  0  0  0
    0.9226    0.1836   -0.0013 C   0  0  0  0  0  0  0  0  0  0  0  0
    1.9986    0.7649   -0.0165 O   0  0  0  0  0  0  0  0  0  0  0  0
    0.5821    2.5899   -0.1205 H   0  0  0  0  0  0  0  0  0  0  0  0
   -1.1129    2.7380   -0.2336 H   0  0  0  0  0  0  0  0  0  0  0  0
   -2.4965    0.5403    0.0005 H   0  0  0  0  0  0  0  0  0  0  0  0
   -0.2909   -2.9673   -0.0533 H   0  0  0  0  0  0  0  0  0  0  0  0
    1.7028   -1.7007   -0.0448 H   0  0  0  0  0  0  0  0  0  0  0  0
  2  1  1  0  0  0  0
  3 11  1  0  0  0  0
  3  2  2  0  0  0  0
  4  3  1  0  0  0  0
  5  4  2  0  0  0  0
  5  6  1  0  0  0  0
  6  7  1  0  0  0  0
  7  2  1  0  0  0  0
  8  7  2  0  0  0  0
  9  1  1  0  0  0  0
 10  1  1  0  0  0  0
 12  5  1  0  0  0  0
 13  6  1  0  0  0  0
M  END
