title
 OpenBabel02282109573D

 12 12  0  0  0  0  0  0  0  0999 V2000
   -0.3351    2.2212    0.1184 N   0  0  0  0  0  0  0  0  0  0  0  0
   -0.3994    0.8520    0.0274 C   0  0  0  0  0  0  0  0  0  0  0  0
   -1.5254    0.0834   -0.0014 C   0  0  0  0  0  0  0  0  0  0  0  0
   -1.4877   -1.2948   -0.0275 N   0  0  0  0  0  0  0  0  0  0  0  0
   -0.3386   -1.8460   -0.0324 C   0  0  0  0  0  0  0  0  0  0  0  0
    0.8521   -1.1949   -0.0244 O   0  0  0  0  0  0  0  0  0  0  0  0
    0.9038    0.1837   -0.0044 C   0  0  0  0  0  0  0  0  0  0  0  0
    1.9712    0.7425   -0.0243 O   0  0  0  0  0  0  0  0  0  0  0  0
    0.5661    2.6076   -0.1230 H   0  0  0  0  0  0  0  0  0  0  0  0
   -1.1327    2.7505   -0.1951 H   0  0  0  0  0  0  0  0  0  0  0  0
   -2.5147    0.5307    0.0011 H   0  0  0  0  0  0  0  0  0  0  0  0
   -0.1997   -2.9204   -0.0456 H   0  0  0  0  0  0  0  0  0  0  0  0
  2  1  1  0  0  0  0
  3 11  1  0  0  0  0
  3  2  2  0  0  0  0
  4  3  1  0  0  0  0
  5  4  2  0  0  0  0
  5  6  1  0  0  0  0
  6  7  1  0  0  0  0
  7  2  1  0  0  0  0
  8  7  2  0  0  0  0
  9  1  1  0  0  0  0
 10  1  1  0  0  0  0
 12  5  1  0  0  0  0
M  END
