title
 OpenBabel02282109573D

 13 13  0  0  0  0  0  0  0  0999 V2000
   -0.3430    2.1498    0.0794 N   0  0  0  0  0  0  0  0  0  0  0  0
   -0.4030    0.7984    0.0222 C   0  0  0  0  0  0  0  0  0  0  0  0
   -1.5389    0.1555    0.0094 N   0  0  0  0  0  0  0  0  0  0  0  0
   -1.4989   -1.2150   -0.0115 C   0  0  0  0  0  0  0  0  0  0  0  0
   -0.3436   -1.9190   -0.0270 C   0  0  0  0  0  0  0  0  0  0  0  0
    0.8499   -1.2215   -0.0264 N   0  0  0  0  0  0  0  0  0  0  0  0
    0.9335    0.1488   -0.0076 C   0  0  0  0  0  0  0  0  0  0  0  0
    1.9906    0.7671   -0.0228 O   0  0  0  0  0  0  0  0  0  0  0  0
    0.5614    2.5705   -0.0595 H   0  0  0  0  0  0  0  0  0  0  0  0
   -1.1836    2.6839   -0.0554 H   0  0  0  0  0  0  0  0  0  0  0  0
   -2.4543   -1.7258   -0.0152 H   0  0  0  0  0  0  0  0  0  0  0  0
   -0.2799   -2.9978   -0.0422 H   0  0  0  0  0  0  0  0  0  0  0  0
    1.7344   -1.7094   -0.0491 H   0  0  0  0  0  0  0  0  0  0  0  0
  2  1  1  0  0  0  0
  3  2  2  0  0  0  0
  4  3  1  0  0  0  0
  5  6  1  0  0  0  0
  5  4  2  0  0  0  0
  6  7  1  0  0  0  0
  7  2  1  0  0  0  0
  8  7  2  0  0  0  0
  9  1  1  0  0  0  0
 10  1  1  0  0  0  0
 11  4  1  0  0  0  0
 12  5  1  0  0  0  0
 13  6  1  0  0  0  0
M  END
