12
title
N -0.36039743 2.1501048 -0.13194193
C -0.42495582 0.80482244 -0.044319782
N -1.5527763 0.16283996 0.030371541
C -1.4712564 -1.2089442 0.12928598
C -0.30558652 -1.8734473 0.14696503
O 0.8874908 -1.2055584 0.063057445
C 0.91361254 0.1469673 -0.038019653
O 1.9588268 0.7438761 -0.11860514
H 0.54268926 2.5791996 -0.23905194
H -1.2065489 2.687962 -0.19611718
H -2.4077559 -1.7497357 0.19450906
H -0.17045343 -2.942328 0.22313243
