title
 OpenBabel02282109573D

 12 12  0  0  0  0  0  0  0  0999 V2000
   -0.3604    2.1501   -0.1319 N   0  0  0  0  0  0  0  0  0  0  0  0
   -0.4250    0.8048   -0.0443 C   0  0  0  0  0  0  0  0  0  0  0  0
   -1.5528    0.1628    0.0304 N   0  0  0  0  0  0  0  0  0  0  0  0
   -1.4713   -1.2089    0.1293 C   0  0  0  0  0  0  0  0  0  0  0  0
   -0.3056   -1.8734    0.1470 C   0  0  0  0  0  0  0  0  0  0  0  0
    0.8875   -1.2056    0.0631 O   0  0  0  0  0  0  0  0  0  0  0  0
    0.9136    0.1470   -0.0380 C   0  0  0  0  0  0  0  0  0  0  0  0
    1.9588    0.7439   -0.1186 O   0  0  0  0  0  0  0  0  0  0  0  0
    0.5427    2.5792   -0.2391 H   0  0  0  0  0  0  0  0  0  0  0  0
   -1.2065    2.6880   -0.1961 H   0  0  0  0  0  0  0  0  0  0  0  0
   -2.4078   -1.7497    0.1945 H   0  0  0  0  0  0  0  0  0  0  0  0
   -0.1705   -2.9423    0.2231 H   0  0  0  0  0  0  0  0  0  0  0  0
  1  2  1  0  0  0  0
  2  7  1  0  0  0  0
  2  3  2  0  0  0  0
  3  4  1  0  0  0  0
  4  5  2  0  0  0  0
  4 11  1  0  0  0  0
  5 12  1  0  0  0  0
  6  5  1  0  0  0  0
  7  6  1  0  0  0  0
  8  7  2  0  0  0  0
  9  1  1  0  0  0  0
 10  1  1  0  0  0  0
M  END
