12
title
O -0.35865864 2.1670911 0.013726
C -0.41933408 0.82493734 0.007105723
C -1.5716144 0.1091053 0.01029214
C -1.4908717 -1.3200086 0.0021830527
C -0.2849247 -1.9160014 -0.008490235
O 0.8749186 -1.2073327 -0.0117243985
C 0.881181 0.15869176 -0.0039655087
O 1.9287035 0.76979065 -0.008421052
H 0.59144 2.3804467 0.0093671465
H -2.529711 0.6154158 0.018761458
H -2.3858855 -1.9279622 0.004345848
H -0.098924704 -2.9807646 -0.015485981
