12
title
O 0.28104192 2.1347122 0.19025204
C 0.3642554 0.80872655 0.05766319
N 1.5046484 0.22974649 -0.061854627
C 1.5038489 -1.1525446 -0.19514784
C 0.36837924 -1.8600863 -0.20000763
O -0.8489641 -1.2572602 -0.07388951
C -0.9406408 0.11107258 0.063227125
N -2.0477836 0.71095973 0.18293488
H 1.1923459 2.4639738 0.1711421
H 2.4661858 -1.636896 -0.2955983
H 0.28368223 -2.933077 -0.29878527
H -2.8216655 0.044666328 0.16187587
