title
 OpenBabel02282109573D

 12 12  0  0  0  0  0  0  0  0999 V2000
    0.2810    2.1347    0.1903 O   0  0  0  0  0  0  0  0  0  0  0  0
    0.3643    0.8087    0.0577 C   0  0  0  0  0  0  0  0  0  0  0  0
    1.5046    0.2297   -0.0619 N   0  0  0  0  0  0  0  0  0  0  0  0
    1.5038   -1.1525   -0.1951 C   0  0  0  0  0  0  0  0  0  0  0  0
    0.3684   -1.8601   -0.2000 C   0  0  0  0  0  0  0  0  0  0  0  0
   -0.8490   -1.2573   -0.0739 O   0  0  0  0  0  0  0  0  0  0  0  0
   -0.9406    0.1111    0.0632 C   0  0  0  0  0  0  0  0  0  0  0  0
   -2.0478    0.7110    0.1829 N   0  0  0  0  0  0  0  0  0  0  0  0
    1.1923    2.4640    0.1711 H   0  0  0  0  0  0  0  0  0  0  0  0
    2.4662   -1.6369   -0.2956 H   0  0  0  0  0  0  0  0  0  0  0  0
    0.2837   -2.9331   -0.2988 H   0  0  0  0  0  0  0  0  0  0  0  0
   -2.8217    0.0447    0.1619 H   0  0  0  0  0  0  0  0  0  0  0  0
  2  7  1  0  0  0  0
  2  1  1  0  0  0  0
  3  2  2  0  0  0  0
  4  3  1  0  0  0  0
  5  4  2  0  0  0  0
  5  6  1  0  0  0  0
  6  7  1  0  0  0  0
  7  8  2  0  0  0  0
  9  1  1  0  0  0  0
 10  4  1  0  0  0  0
 11  5  1  0  0  0  0
 12  8  1  0  0  0  0
M  END
