11
title
O 0.29320246 2.1296828 0.18872213
C 0.37987787 0.80296725 0.062154893
N 1.5182588 0.21154664 -0.031061515
C 1.5102493 -1.1644591 -0.15907115
C 0.36500093 -1.8623806 -0.18583237
O -0.84270036 -1.2465335 -0.088015
C -0.9419403 0.12064604 0.04278912
O -2.0141623 0.6446115 0.12744261
H 1.2016147 2.4669118 0.18975995
H 2.4698017 -1.6584283 -0.23722251
H 0.27407086 -2.9353921 -0.28283086
