title
 OpenBabel02282109573D

 14 14  0  0  0  0  0  0  0  0999 V2000
   -0.3453    2.3478   -0.0694 C   0  0  0  0  0  0  0  0  0  0  0  0
   -0.3640    0.8508   -0.0593 C   0  0  0  0  0  0  0  0  0  0  0  0
   -1.4886    0.1223   -0.2142 C   0  0  0  0  0  0  0  0  0  0  0  0
   -1.4292   -1.2553   -0.1939 N   0  0  0  0  0  0  0  0  0  0  0  0
   -0.2260   -1.8711   -0.0163 C   0  0  0  0  0  0  0  0  0  0  0  0
    0.8967   -1.2657    0.1393 N   0  0  0  0  0  0  0  0  0  0  0  0
    0.9241    0.1474    0.1310 C   0  0  0  0  0  0  0  0  0  0  0  0
    1.9678    0.7560    0.2751 O   0  0  0  0  0  0  0  0  0  0  0  0
    0.3166    2.7143   -0.8607 H   0  0  0  0  0  0  0  0  0  0  0  0
   -1.3445    2.7673   -0.2163 H   0  0  0  0  0  0  0  0  0  0  0  0
    0.0684    2.7291    0.8699 H   0  0  0  0  0  0  0  0  0  0  0  0
   -2.4725    0.5538   -0.3588 H   0  0  0  0  0  0  0  0  0  0  0  0
   -2.2649   -1.8047   -0.3106 H   0  0  0  0  0  0  0  0  0  0  0  0
   -0.2651   -2.9599   -0.0129 H   0  0  0  0  0  0  0  0  0  0  0  0
  1  2  1  0  0  0  0
  1 11  1  0  0  0  0
  2  7  1  0  0  0  0
  3  4  1  0  0  0  0
  3  2  2  0  0  0  0
  4  5  1  0  0  0  0
  5 14  1  0  0  0  0
  5  6  2  0  0  0  0
  7  6  1  0  0  0  0
  7  8  2  0  0  0  0
  9  1  1  0  0  0  0
 10  1  1  0  0  0  0
 12  3  1  0  0  0  0
 13  4  1  0  0  0  0
M  END
