14
title
C -0.34525555 2.347819 -0.0693545
C -0.36403933 0.85080826 -0.059315294
C -1.4885535 0.12226962 -0.21421722
N -1.4292299 -1.2552853 -0.19385126
C -0.22602014 -1.8711109 -0.016320242
N 0.8967254 -1.2656841 0.13933241
C 0.92408776 0.14739168 0.13101125
O 1.9677757 0.7560256 0.27508247
H 0.31658804 2.7143013 -0.86074
H -1.3445344 2.7673333 -0.21629371
H 0.06837699 2.729059 0.86991376
H -2.4724798 0.55378693 -0.3587869
H -2.2649093 -1.804712 -0.31062004
H -0.2651305 -2.9599037 -0.012894298
