14
title
C -0.047943197 2.355607 -0.28671345
C -0.025299242 0.85708815 -0.30501875
C -0.058868665 0.14866704 -1.4483064
O -0.040352315 -1.2070485 -1.5161072
C 0.015701514 -1.8953062 -0.35609147
C 0.053738825 -1.3108989 0.8521053
C 0.036222026 0.14599782 0.98726374
O 0.06901534 0.7331285 2.0609949
H 0.8425454 2.7423465 0.21901213
H -0.09504591 2.775174 -1.2950011
H -0.9065234 2.7149813 0.28944197
H -0.10441061 0.5814688 -2.4405189
H 0.025411043 -2.963261 -0.53567153
H 0.098238 -1.9171015 1.7484481
