title
 OpenBabel02282109573D

 13 13  0  0  0  0  0  0  0  0999 V2000
   -0.0509    2.3614   -0.3018 C   0  0  0  0  0  0  0  0  0  0  0  0
   -0.0277    0.8646   -0.3299 C   0  0  0  0  0  0  0  0  0  0  0  0
   -0.0625    0.1503   -1.4643 C   0  0  0  0  0  0  0  0  0  0  0  0
   -0.0409   -1.2125   -1.4828 O   0  0  0  0  0  0  0  0  0  0  0  0
    0.0186   -1.8280   -0.2789 C   0  0  0  0  0  0  0  0  0  0  0  0
    0.0565   -1.2813    0.8665 N   0  0  0  0  0  0  0  0  0  0  0  0
    0.0368    0.1356    0.9529 C   0  0  0  0  0  0  0  0  0  0  0  0
    0.0715    0.6986    2.0250 O   0  0  0  0  0  0  0  0  0  0  0  0
    0.8418    2.7449    0.2022 H   0  0  0  0  0  0  0  0  0  0  0  0
   -0.1017    2.7851   -1.3082 H   0  0  0  0  0  0  0  0  0  0  0  0
   -0.9082    2.7162    0.2788 H   0  0  0  0  0  0  0  0  0  0  0  0
   -0.1104    0.5582   -2.4666 H   0  0  0  0  0  0  0  0  0  0  0  0
    0.0309   -2.9068   -0.4089 H   0  0  0  0  0  0  0  0  0  0  0  0
  1  9  1  0  0  0  0
  1 11  1  0  0  0  0
  2  1  1  0  0  0  0
  2  7  1  0  0  0  0
  3  2  2  0  0  0  0
  4  3  1  0  0  0  0
  4  5  1  0  0  0  0
  5  6  2  0  0  0  0
  6  7  1  0  0  0  0
  7  8  2  0  0  0  0
 10  1  1  0  0  0  0
 12  3  1  0  0  0  0
 13  5  1  0  0  0  0
M  END
