14
title
N -0.29191753 2.2090447 0.1217509
C -0.36072943 0.83392215 0.030397814
C -1.5091087 0.10171331 0.008887413
N -1.4630243 -1.2771561 -0.029810535
C -0.28538874 -1.9483747 -0.04425926
C 0.902047 -1.2804229 -0.030483466
C 0.95828205 0.1613335 -0.0030490838
O 1.9923381 0.8374494 -0.01723371
H 0.65063304 2.5228488 -0.08624571
H -1.0240619 2.7448967 -0.31699738
H -2.4992595 0.5397159 0.026174337
H -2.3276725 -1.7899439 -0.042649966
H -0.3575826 -3.0289218 -0.070943944
H 1.8357929 -1.8277991 -0.054559443
