13
title
N -0.27996793 2.2156534 0.11955949
C -0.34214196 0.8424384 0.028610472
C -1.4765309 0.10338141 0.0018587882
O -1.4783806 -1.2605481 -0.032847147
C -0.30625343 -1.9052687 -0.037659667
C 0.8899937 -1.281462 -0.021910187
C 0.97439414 0.16423424 -0.0013736704
O 2.0138018 0.81939334 -0.019082904
H 0.65147865 2.549926 -0.09900176
H -1.0308613 2.7504811 -0.28686148
H -2.483868 0.49733734 0.009454717
H -0.4451262 -2.9792023 -0.05964422
H 1.80504 -1.8598697 -0.03796967
