title
 OpenBabel02282109573D

 13 13  0  0  0  0  0  0  0  0999 V2000
   -0.2800    2.2157    0.1196 N   0  0  0  0  0  0  0  0  0  0  0  0
   -0.3421    0.8424    0.0286 C   0  0  0  0  0  0  0  0  0  0  0  0
   -1.4765    0.1034    0.0019 C   0  0  0  0  0  0  0  0  0  0  0  0
   -1.4784   -1.2605   -0.0328 O   0  0  0  0  0  0  0  0  0  0  0  0
   -0.3063   -1.9053   -0.0377 C   0  0  0  0  0  0  0  0  0  0  0  0
    0.8900   -1.2815   -0.0219 C   0  0  0  0  0  0  0  0  0  0  0  0
    0.9744    0.1642   -0.0014 C   0  0  0  0  0  0  0  0  0  0  0  0
    2.0138    0.8194   -0.0191 O   0  0  0  0  0  0  0  0  0  0  0  0
    0.6515    2.5499   -0.0990 H   0  0  0  0  0  0  0  0  0  0  0  0
   -1.0309    2.7505   -0.2869 H   0  0  0  0  0  0  0  0  0  0  0  0
   -2.4839    0.4973    0.0095 H   0  0  0  0  0  0  0  0  0  0  0  0
   -0.4451   -2.9792   -0.0596 H   0  0  0  0  0  0  0  0  0  0  0  0
    1.8050   -1.8599   -0.0380 H   0  0  0  0  0  0  0  0  0  0  0  0
  2  1  1  0  0  0  0
  3 11  1  0  0  0  0
  3  2  2  0  0  0  0
  4  3  1  0  0  0  0
  5  4  1  0  0  0  0
  5  6  2  0  0  0  0
  6  7  1  0  0  0  0
  7  2  1  0  0  0  0
  8  7  2  0  0  0  0
  9  1  1  0  0  0  0
 10  1  1  0  0  0  0
 12  5  1  0  0  0  0
 13  6  1  0  0  0  0
M  END
