title
 OpenBabel02282109573D

 13 13  0  0  0  0  0  0  0  0999 V2000
   -0.2780    2.2334   -0.0390 N   0  0  0  0  0  0  0  0  0  0  0  0
   -0.3470    0.8601   -0.0256 C   0  0  0  0  0  0  0  0  0  0  0  0
   -1.4771    0.1268    0.0386 C   0  0  0  0  0  0  0  0  0  0  0  0
   -1.4452   -1.2492    0.1133 O   0  0  0  0  0  0  0  0  0  0  0  0
   -0.2384   -1.8288    0.1212 C   0  0  0  0  0  0  0  0  0  0  0  0
    0.8978   -1.2526    0.0502 N   0  0  0  0  0  0  0  0  0  0  0  0
    0.9424    0.1446   -0.0483 C   0  0  0  0  0  0  0  0  0  0  0  0
    2.0221    0.8216   -0.1659 N   0  0  0  0  0  0  0  0  0  0  0  0
    0.6324    2.5638   -0.3335 H   0  0  0  0  0  0  0  0  0  0  0  0
   -1.0653    2.7402   -0.4115 H   0  0  0  0  0  0  0  0  0  0  0  0
   -2.4887    0.5058    0.0495 H   0  0  0  0  0  0  0  0  0  0  0  0
   -0.3267   -2.9085    0.1966 H   0  0  0  0  0  0  0  0  0  0  0  0
    2.8237    0.1901   -0.1749 H   0  0  0  0  0  0  0  0  0  0  0  0
  1  2  1  0  0  0  0
  2  3  2  0  0  0  0
  3 11  1  0  0  0  0
  3  4  1  0  0  0  0
  4  5  1  0  0  0  0
  5 12  1  0  0  0  0
  6  5  2  0  0  0  0
  7  2  1  0  0  0  0
  7  6  2  0  0  0  0
  8  7  1  0  0  0  0
  9  1  1  0  0  0  0
 10  1  1  0  0  0  0
 13  8  1  0  0  0  0
M  RAD  1   8   2
M  END
