title
 OpenBabel02282109573D

 13 13  0  0  0  0  0  0  0  0999 V2000
    0.2278    2.1854    0.0114 O   0  0  0  0  0  0  0  0  0  0  0  0
    0.3101    0.8323    0.0030 C   0  0  0  0  0  0  0  0  0  0  0  0
    1.4845    0.1495   -0.0083 C   0  0  0  0  0  0  0  0  0  0  0  0
    1.5065   -1.2288   -0.0165 N   0  0  0  0  0  0  0  0  0  0  0  0
    0.3493   -1.9446   -0.0136 C   0  0  0  0  0  0  0  0  0  0  0  0
   -0.8569   -1.3227   -0.0025 C   0  0  0  0  0  0  0  0  0  0  0  0
   -0.9924    0.1278    0.0069 C   0  0  0  0  0  0  0  0  0  0  0  0
   -2.0610    0.7263    0.0170 O   0  0  0  0  0  0  0  0  0  0  0  0
    1.1131    2.5657    0.0081 H   0  0  0  0  0  0  0  0  0  0  0  0
    2.4528    0.6377   -0.0114 H   0  0  0  0  0  0  0  0  0  0  0  0
    2.3920   -1.7042   -0.0247 H   0  0  0  0  0  0  0  0  0  0  0  0
    0.4630   -3.0220   -0.0206 H   0  0  0  0  0  0  0  0  0  0  0  0
   -1.7692   -1.9060   -0.0003 H   0  0  0  0  0  0  0  0  0  0  0  0
  2  7  1  0  0  0  0
  2  1  1  0  0  0  0
  3  2  2  0  0  0  0
  4  5  1  0  0  0  0
  4  3  1  0  0  0  0
  5  6  2  0  0  0  0
  6 13  1  0  0  0  0
  6  7  1  0  0  0  0
  7  8  2  0  0  0  0
  9  1  1  0  0  0  0
 10  3  1  0  0  0  0
 11  4  1  0  0  0  0
 12  5  1  0  0  0  0
M  END
