title
 OpenBabel02282109573D

 12 12  0  0  0  0  0  0  0  0999 V2000
   -0.3020    2.1536    0.0128 O   0  0  0  0  0  0  0  0  0  0  0  0
   -0.3769    0.8185    0.0065 C   0  0  0  0  0  0  0  0  0  0  0  0
   -1.5305    0.1147    0.0101 C   0  0  0  0  0  0  0  0  0  0  0  0
   -1.4335   -1.2684    0.0025 N   0  0  0  0  0  0  0  0  0  0  0  0
   -0.2265   -1.8769   -0.0081 C   0  0  0  0  0  0  0  0  0  0  0  0
    0.9181   -1.2660   -0.0122 N   0  0  0  0  0  0  0  0  0  0  0  0
    0.9221    0.1185   -0.0051 C   0  0  0  0  0  0  0  0  0  0  0  0
    1.9391    0.8063   -0.0080 O   0  0  0  0  0  0  0  0  0  0  0  0
    0.6665    2.3142    0.0076 H   0  0  0  0  0  0  0  0  0  0  0  0
   -2.5202    0.5488    0.0185 H   0  0  0  0  0  0  0  0  0  0  0  0
   -2.2724   -1.8264    0.0049 H   0  0  0  0  0  0  0  0  0  0  0  0
   -0.2561   -2.9643   -0.0135 H   0  0  0  0  0  0  0  0  0  0  0  0
  2  3  2  0  0  0  0
  2  1  1  0  0  0  0
  3 10  1  0  0  0  0
  4 11  1  0  0  0  0
  4  3  1  0  0  0  0
  5  4  1  0  0  0  0
  6  5  2  0  0  0  0
  6  7  1  0  0  0  0
  7  2  1  0  0  0  0
  8  7  2  0  0  0  0
  9  1  1  0  0  0  0
 12  5  1  0  0  0  0
M  END
