12
title
O -0.30202925 2.1535566 0.012835023
C -0.3769339 0.8184526 0.006513446
C -1.5304816 0.11467056 0.01012655
N -1.4335417 -1.2683793 0.0024954283
C -0.22648135 -1.8769277 -0.008126489
N 0.91810274 -1.2660102 -0.012156242
C 0.9220685 0.11849682 -0.0051308265
O 1.9391463 0.80632174 -0.008021737
H 0.66651064 2.3141558 0.0076299654
H -2.520218 0.5488407 0.018502885
H -2.272357 -1.8263639 0.0048836283
H -0.25608847 -2.9643404 -0.01347492
