title
 OpenBabel02282109573D

 12 12  0  0  0  0  0  0  0  0999 V2000
    0.2234    2.1883    0.0104 O   0  0  0  0  0  0  0  0  0  0  0  0
    0.2955    0.8379    0.0027 C   0  0  0  0  0  0  0  0  0  0  0  0
    1.4534    0.1428   -0.0082 C   0  0  0  0  0  0  0  0  0  0  0  0
    1.5178   -1.2165   -0.0159 O   0  0  0  0  0  0  0  0  0  0  0  0
    0.3608   -1.9019   -0.0124 C   0  0  0  0  0  0  0  0  0  0  0  0
   -0.8506   -1.3183   -0.0018 C   0  0  0  0  0  0  0  0  0  0  0  0
   -1.0077    0.1340    0.0069 C   0  0  0  0  0  0  0  0  0  0  0  0
   -2.0778    0.7189    0.0167 O   0  0  0  0  0  0  0  0  0  0  0  0
    1.1105    2.5659    0.0069 H   0  0  0  0  0  0  0  0  0  0  0  0
    2.4419    0.5867   -0.0119 H   0  0  0  0  0  0  0  0  0  0  0  0
    0.5381   -2.9702   -0.0193 H   0  0  0  0  0  0  0  0  0  0  0  0
   -1.7454   -1.9282    0.0004 H   0  0  0  0  0  0  0  0  0  0  0  0
  2  7  1  0  0  0  0
  2  1  1  0  0  0  0
  3  2  2  0  0  0  0
  4  5  1  0  0  0  0
  4  3  1  0  0  0  0
  5  6  2  0  0  0  0
  6 12  1  0  0  0  0
  6  7  1  0  0  0  0
  7  8  2  0  0  0  0
  9  1  1  0  0  0  0
 10  3  1  0  0  0  0
 11  5  1  0  0  0  0
M  END
