title
 OpenBabel02282109573D

 14 14  0  0  0  0  0  0  0  0999 V2000
   -0.0599    2.2577   -0.2807 C   0  0  0  0  0  0  0  0  0  0  0  0
   -0.0430    0.7993   -0.3179 N   0  0  0  0  0  0  0  0  0  0  0  0
   -0.1497    0.1026   -1.4842 C   0  0  0  0  0  0  0  0  0  0  0  0
   -0.1304   -1.2575   -1.4826 C   0  0  0  0  0  0  0  0  0  0  0  0
   -0.0046   -1.9731   -0.3245 N   0  0  0  0  0  0  0  0  0  0  0  0
    0.0976   -1.3148    0.7907 C   0  0  0  0  0  0  0  0  0  0  0  0
    0.0899    0.1411    0.9198 C   0  0  0  0  0  0  0  0  0  0  0  0
    0.1849    0.7734    1.9596 O   0  0  0  0  0  0  0  0  0  0  0  0
    0.8656    2.6277    0.1667 H   0  0  0  0  0  0  0  0  0  0  0  0
   -0.1668    2.6413   -1.2957 H   0  0  0  0  0  0  0  0  0  0  0  0
   -0.8887    2.6029    0.3420 H   0  0  0  0  0  0  0  0  0  0  0  0
   -0.2485    0.6887   -2.3904 H   0  0  0  0  0  0  0  0  0  0  0  0
   -0.2148   -1.8153   -2.4064 H   0  0  0  0  0  0  0  0  0  0  0  0
    0.1984   -1.8673    1.7218 H   0  0  0  0  0  0  0  0  0  0  0  0
  1  9  1  0  0  0  0
  1 11  1  0  0  0  0
  2  1  1  0  0  0  0
  2  7  1  0  0  0  0
  3  4  2  0  0  0  0
  3  2  1  0  0  0  0
  4  5  1  0  0  0  0
  5  6  2  0  0  0  0
  6  7  1  0  0  0  0
  6 14  1  0  0  0  0
  7  8  2  0  0  0  0
 10  1  1  0  0  0  0
 12  3  1  0  0  0  0
 13  4  1  0  0  0  0
M  END
