14
title
C -0.040704384 2.2297575 -0.27311984
N -0.038457777 0.7703136 -0.2952349
C -0.17785336 0.075271025 -1.4512779
N -0.18716678 -1.2181653 -1.5587646
C -0.041022684 -1.9089411 -0.38390124
C 0.1065439 -1.3235244 0.83363867
C 0.117437735 0.1146573 0.9610839
O 0.23942538 0.7767973 1.9761778
H 0.8978721 2.5957863 0.14838311
H -0.16564602 2.602997 -1.2904419
H -0.8535898 2.5898764 0.3610057
H -0.28990534 0.6812783 -2.347678
H -0.04940944 -2.991217 -0.48070884
H 0.21993835 -1.8999718 1.7428433
