title
 OpenBabel02282109573D

 14 14  0  0  0  0  0  0  0  0999 V2000
   -0.0407    2.2298   -0.2731 C   0  0  0  0  0  0  0  0  0  0  0  0
   -0.0385    0.7703   -0.2952 N   0  0  0  0  0  0  0  0  0  0  0  0
   -0.1779    0.0753   -1.4513 C   0  0  0  0  0  0  0  0  0  0  0  0
   -0.1872   -1.2182   -1.5588 N   0  0  0  0  0  0  0  0  0  0  0  0
   -0.0410   -1.9089   -0.3839 C   0  0  0  0  0  0  0  0  0  0  0  0
    0.1065   -1.3235    0.8336 C   0  0  0  0  0  0  0  0  0  0  0  0
    0.1174    0.1147    0.9611 C   0  0  0  0  0  0  0  0  0  0  0  0
    0.2394    0.7768    1.9762 O   0  0  0  0  0  0  0  0  0  0  0  0
    0.8979    2.5958    0.1484 H   0  0  0  0  0  0  0  0  0  0  0  0
   -0.1656    2.6030   -1.2904 H   0  0  0  0  0  0  0  0  0  0  0  0
   -0.8536    2.5899    0.3610 H   0  0  0  0  0  0  0  0  0  0  0  0
   -0.2899    0.6813   -2.3477 H   0  0  0  0  0  0  0  0  0  0  0  0
   -0.0494   -2.9912   -0.4807 H   0  0  0  0  0  0  0  0  0  0  0  0
    0.2199   -1.9000    1.7428 H   0  0  0  0  0  0  0  0  0  0  0  0
  1  9  1  0  0  0  0
  1 11  1  0  0  0  0
  2  1  1  0  0  0  0
  2  7  1  0  0  0  0
  3  2  1  0  0  0  0
  4  3  2  0  0  0  0
  4  5  1  0  0  0  0
  5  6  2  0  0  0  0
  6  7  1  0  0  0  0
  6 14  1  0  0  0  0
  7  8  2  0  0  0  0
 10  1  1  0  0  0  0
 12  3  1  0  0  0  0
 13  5  1  0  0  0  0
M  END
