title
 OpenBabel02282109573D

 13 13  0  0  0  0  0  0  0  0999 V2000
   -0.0616    2.2337   -0.2899 C   0  0  0  0  0  0  0  0  0  0  0  0
   -0.0428    0.7754   -0.3209 N   0  0  0  0  0  0  0  0  0  0  0  0
   -0.1453    0.0756   -1.4638 C   0  0  0  0  0  0  0  0  0  0  0  0
   -0.1338   -1.2252   -1.5321 N   0  0  0  0  0  0  0  0  0  0  0  0
   -0.0040   -1.8380   -0.3165 C   0  0  0  0  0  0  0  0  0  0  0  0
    0.1037   -1.2853    0.8561 N   0  0  0  0  0  0  0  0  0  0  0  0
    0.0911    0.0934    0.9359 C   0  0  0  0  0  0  0  0  0  0  0  0
    0.1811    0.7469    1.9481 O   0  0  0  0  0  0  0  0  0  0  0  0
    0.8633    2.6048    0.1559 H   0  0  0  0  0  0  0  0  0  0  0  0
   -0.1670    2.6119   -1.3081 H   0  0  0  0  0  0  0  0  0  0  0  0
   -0.8935    2.5786    0.3276 H   0  0  0  0  0  0  0  0  0  0  0  0
   -0.2449    0.6596   -2.3772 H   0  0  0  0  0  0  0  0  0  0  0  0
    0.0076   -2.9263   -0.3512 H   0  0  0  0  0  0  0  0  0  0  0  0
  1  9  1  0  0  0  0
  1 11  1  0  0  0  0
  2  1  1  0  0  0  0
  2  7  1  0  0  0  0
  3  2  1  0  0  0  0
  4  3  1  0  0  0  0
  4  5  2  0  0  0  0
  5  6  1  0  0  0  0
  6  7  1  0  0  0  0
  7  8  2  0  0  0  0
 10  1  1  0  0  0  0
 12  3  1  0  0  0  0
 13  5  1  0  0  0  0
M  RAD  2   3   2   6   2
M  END
