13
title
N 0.021757334 2.35527 0.55616987
C -0.0021911517 1.212845 -0.0063142036
C -1.280855 0.525853 -0.24521784
C -1.4914954 -0.7959421 -0.08299658
N -0.6126857 -1.7602612 0.37697467
C 0.66611075 -1.6682631 0.28621435
C 1.4484258 -0.618882 -0.37618244
N 1.155805 0.6141708 -0.54849553
H 0.9829373 2.7063847 0.5797321
H -2.120035 1.1637834 -0.50563645
H -2.4956129 -1.183016 -0.23692854
H 1.243107 -2.515151 0.6648487
H 2.4045746 -0.9552545 -0.7888686
