title
 OpenBabel02282109573D

 13 13  0  0  0  0  0  0  0  0999 V2000
   -0.0815    2.2102   -0.7714 N   0  0  0  0  0  0  0  0  0  0  0  0
    0.0173    1.1698   -0.0478 C   0  0  0  0  0  0  0  0  0  0  0  0
   -1.2263    0.4904    0.4273 C   0  0  0  0  0  0  0  0  0  0  0  0
   -1.5118   -0.7387    0.2224 N   0  0  0  0  0  0  0  0  0  0  0  0
   -0.6522   -1.6490   -0.3408 C   0  0  0  0  0  0  0  0  0  0  0  0
    0.7036   -1.6650   -0.2394 C   0  0  0  0  0  0  0  0  0  0  0  0
    1.4929   -0.6132    0.3495 C   0  0  0  0  0  0  0  0  0  0  0  0
    1.2013    0.6390    0.4638 N   0  0  0  0  0  0  0  0  0  0  0  0
    0.8525    2.5655   -0.9966 H   0  0  0  0  0  0  0  0  0  0  0  0
   -1.9404    1.0982    0.9839 H   0  0  0  0  0  0  0  0  0  0  0  0
   -1.1564   -2.5014   -0.7894 H   0  0  0  0  0  0  0  0  0  0  0  0
    1.2272   -2.5710   -0.5306 H   0  0  0  0  0  0  0  0  0  0  0  0
    2.4689   -0.9056    0.7432 H   0  0  0  0  0  0  0  0  0  0  0  0
  1  2  1  0  0  0  0
  2  3  1  0  0  0  0
  2  8  2  0  0  0  0
  3 10  1  0  0  0  0
  4  3  2  0  0  0  0
  5  6  2  0  0  0  0
  5  4  1  0  0  0  0
  6  7  1  0  0  0  0
  7  8  1  0  0  0  0
  7 13  1  0  0  0  0
  9  1  1  0  0  0  0
 11  5  1  0  0  0  0
 12  6  1  0  0  0  0
M  RAD  2   1   2   7   2
M  END
