title
 OpenBabel02282109573D

 13 13  0  0  0  0  0  0  0  0999 V2000
   -0.0933    2.3798   -0.6359 N   0  0  0  0  0  0  0  0  0  0  0  0
   -0.0180    1.2143   -0.1146 C   0  0  0  0  0  0  0  0  0  0  0  0
    1.2369    0.5553    0.3232 C   0  0  0  0  0  0  0  0  0  0  0  0
    1.5518   -0.6877    0.2807 N   0  0  0  0  0  0  0  0  0  0  0  0
    0.7130   -1.6899   -0.1387 C   0  0  0  0  0  0  0  0  0  0  0  0
   -0.6476   -1.7085   -0.1654 C   0  0  0  0  0  0  0  0  0  0  0  0
   -1.5342   -0.7353    0.2224 N   0  0  0  0  0  0  0  0  0  0  0  0
   -1.2698    0.5193    0.2696 C   0  0  0  0  0  0  0  0  0  0  0  0
    0.8422    2.7698   -0.7870 H   0  0  0  0  0  0  0  0  0  0  0  0
    1.9868    1.2385    0.7329 H   0  0  0  0  0  0  0  0  0  0  0  0
    1.2274   -2.6168   -0.3796 H   0  0  0  0  0  0  0  0  0  0  0  0
   -1.1236   -2.6499   -0.4294 H   0  0  0  0  0  0  0  0  0  0  0  0
   -2.0544    1.1842    0.6347 H   0  0  0  0  0  0  0  0  0  0  0  0
  1  2  1  0  0  0  0
  2  8  1  0  0  0  0
  2  3  2  0  0  0  0
  3 10  1  0  0  0  0
  4  3  1  0  0  0  0
  5  4  1  0  0  0  0
  6  5  2  0  0  0  0
  6  7  1  0  0  0  0
  7  8  2  0  0  0  0
  8 13  1  0  0  0  0
  9  1  1  0  0  0  0
 11  5  1  0  0  0  0
 12  6  1  0  0  0  0
M  RAD  2   1   2   4   2
M  END
