title
 OpenBabel02282109573D

 12 12  0  0  0  0  0  0  0  0999 V2000
   -0.1527    2.2184    0.7492 N   0  0  0  0  0  0  0  0  0  0  0  0
   -0.0136    1.1768    0.0382 C   0  0  0  0  0  0  0  0  0  0  0  0
   -1.2176    0.4612   -0.4895 C   0  0  0  0  0  0  0  0  0  0  0  0
   -1.4531   -0.7743   -0.2592 N   0  0  0  0  0  0  0  0  0  0  0  0
   -0.5581   -1.5795    0.4078 C   0  0  0  0  0  0  0  0  0  0  0  0
    0.7287   -1.6132    0.3012 N   0  0  0  0  0  0  0  0  0  0  0  0
    1.4234   -0.6255   -0.3625 C   0  0  0  0  0  0  0  0  0  0  0  0
    1.1783    0.6358   -0.4508 N   0  0  0  0  0  0  0  0  0  0  0  0
    0.7655    2.5840    1.0170 H   0  0  0  0  0  0  0  0  0  0  0  0
   -1.9198    1.0198   -1.1099 H   0  0  0  0  0  0  0  0  0  0  0  0
   -1.0297   -2.3592    1.0050 H   0  0  0  0  0  0  0  0  0  0  0  0
    2.3577   -0.9734   -0.8030 H   0  0  0  0  0  0  0  0  0  0  0  0
  1  9  1  0  0  0  0
  2  1  1  0  0  0  0
  3  4  1  0  0  0  0
  3  2  1  0  0  0  0
  4  5  2  0  0  0  0
  5 11  1  0  0  0  0
  6  5  1  0  0  0  0
  7  6  2  0  0  0  0
  8  7  1  0  0  0  0
  8  2  2  0  0  0  0
 10  3  1  0  0  0  0
 12  7  1  0  0  0  0
M  RAD  2   1   2   3   2
M  END
