title
 OpenBabel02282109573D

 13 13  0  0  0  0  0  0  0  0999 V2000
   -0.0723    2.0950   -0.7836 N   0  0  0  0  0  0  0  0  0  0  0  0
   -0.0296    1.1188    0.0204 C   0  0  0  0  0  0  0  0  0  0  0  0
    1.1573    0.6044    0.5863 N   0  0  0  0  0  0  0  0  0  0  0  0
    1.4954   -0.6040    0.3174 C   0  0  0  0  0  0  0  0  0  0  0  0
    0.7217   -1.6118   -0.3920 C   0  0  0  0  0  0  0  0  0  0  0  0
   -0.6305   -1.6426   -0.4313 C   0  0  0  0  0  0  0  0  0  0  0  0
   -1.4852   -0.6715    0.2372 C   0  0  0  0  0  0  0  0  0  0  0  0
   -1.2219    0.5514    0.5093 N   0  0  0  0  0  0  0  0  0  0  0  0
    0.8769    2.4143   -0.9856 H   0  0  0  0  0  0  0  0  0  0  0  0
    2.4694   -0.9303    0.6902 H   0  0  0  0  0  0  0  0  0  0  0  0
    1.2791   -2.4542   -0.7930 H   0  0  0  0  0  0  0  0  0  0  0  0
   -1.1250   -2.5089   -0.8630 H   0  0  0  0  0  0  0  0  0  0  0  0
   -2.4539   -1.0477    0.5753 H   0  0  0  0  0  0  0  0  0  0  0  0
  1  2  1  0  0  0  0
  2  8  2  0  0  0  0
  2  3  2  0  0  0  0
  4  3  1  0  0  0  0
  4 10  1  0  0  0  0
  5  4  1  0  0  0  0
  6  5  2  0  0  0  0
  6  7  1  0  0  0  0
  7  8  1  0  0  0  0
  7 13  1  0  0  0  0
  9  1  1  0  0  0  0
 11  5  1  0  0  0  0
 12  6  1  0  0  0  0
M  RAD  3   1   2   4   2   7   2
M  END
