13
title
N -0.07231227 2.095002 -0.7835926
C -0.02955514 1.1187807 0.020361556
N 1.1572782 0.6043636 0.5863222
C 1.495406 -0.60399723 0.3174116
C 0.72169816 -1.6117758 -0.39201802
C -0.63050896 -1.6426069 -0.4313168
C -1.4851872 -0.6715286 0.23720993
N -1.2218897 0.551442 0.50926423
H 0.87690544 2.4143205 -0.9855998
H 2.4693913 -0.93032515 0.6902164
H 1.2790892 -2.4542377 -0.79304516
H -1.1249733 -2.5088835 -0.863018
H -2.45392 -1.0476679 0.5753102
