12
title
N -0.1762329 2.140658 0.67143553
C -0.05901818 1.1249593 -0.070671454
N -1.214973 0.4968885 -0.5981849
C -1.4284966 -0.72215724 -0.28436014
C -0.536068 -1.5763828 0.51778215
N 0.7489227 -1.5402426 0.51691514
C 1.445873 -0.6206062 -0.2660861
N 1.1527642 0.5900501 -0.5567109
H 0.7491592 2.4931958 0.92129534
H -2.3489225 -1.188152 -0.6455399
H -1.0090119 -2.3618543 1.1122724
H 2.399019 -1.0114323 -0.6216001
