12
title
O -0.028097022 -2.1446164 -0.86501545
C -0.0031096744 -1.1857936 -0.1298703
C -1.2512686 -0.5918614 0.42206335
C -1.5058527 0.72957 0.3445427
C -0.57643354 1.7240778 -0.15918282
N 0.7147634 1.7009236 -0.17426282
C 1.4304154 0.63534576 0.3434983
N 1.1793196 -0.61993366 0.34493917
H -2.014813 -1.2889879 0.75588953
H -2.4985688 1.0956312 0.59496915
H -1.0322672 2.6391592 -0.54452837
H 2.3859906 0.94686085 0.768146
