12
title
O 0.024138989 -2.354512 -0.60441834
C 0.014262493 -1.2147325 -0.1753891
C -1.2639463 -0.55093044 0.19678457
N -1.5646265 0.6991829 0.25688407
C -0.7063981 1.735853 0.018787637
C 0.6589994 1.7545011 0.0007267819
N 1.5512079 0.74172467 0.21562445
C 1.2832892 -0.5161533 0.16302742
H -2.0548503 -1.2653588 0.4360148
H -1.2067857 2.6949003 -0.09433526
H 1.1298499 2.7268126 -0.12522951
H 2.099467 -1.2086381 0.38094172
