title
 OpenBabel02282109573D

 12 12  0  0  0  0  0  0  0  0999 V2000
    0.0121   -1.8890   -1.0260 O   0  0  0  0  0  0  0  0  0  0  0  0
    0.0133   -1.0966   -0.1242 C   0  0  0  0  0  0  0  0  0  0  0  0
   -1.1669   -0.6560    0.5009 N   0  0  0  0  0  0  0  0  0  0  0  0
   -1.4974    0.5782    0.3797 C   0  0  0  0  0  0  0  0  0  0  0  0
   -0.7031    1.6540   -0.1912 C   0  0  0  0  0  0  0  0  0  0  0  0
    0.6524    1.6725   -0.2092 C   0  0  0  0  0  0  0  0  0  0  0  0
    1.4907    0.6190    0.3399 C   0  0  0  0  0  0  0  0  0  0  0  0
    1.1972   -0.6238    0.4694 N   0  0  0  0  0  0  0  0  0  0  0  0
   -2.4723    0.8668    0.7800 H   0  0  0  0  0  0  0  0  0  0  0  0
   -1.2426    2.5482   -0.4916 H   0  0  0  0  0  0  0  0  0  0  0  0
    1.1592    2.5810   -0.5236 H   0  0  0  0  0  0  0  0  0  0  0  0
    2.4676    0.9342    0.7143 H   0  0  0  0  0  0  0  0  0  0  0  0
  1  2  2  0  0  0  0
  2  8  1  0  0  0  0
  2  3  2  0  0  0  0
  4  3  1  0  0  0  0
  4  9  1  0  0  0  0
  5  4  1  0  0  0  0
  6  5  2  0  0  0  0
  6  7  1  0  0  0  0
  7  8  2  0  0  0  0
  7 12  1  0  0  0  0
 10  5  1  0  0  0  0
 11  6  1  0  0  0  0
M  RAD  1   4   2
M  END
