12
title
O 0.012104905 -1.8890282 -1.0260437
C 0.013297594 -1.0965546 -0.12416358
N -1.1668917 -0.65601414 0.50087583
C -1.4974275 0.5782357 0.37966824
C -0.7030949 1.6539756 -0.19120875
C 0.65242434 1.6724612 -0.20924461
C 1.4906846 0.61897975 0.33990383
N 1.1972363 -0.6237717 0.46942857
H -2.4722922 0.8668104 0.78001523
H -1.2426397 2.5482392 -0.49161223
H 1.1592082 2.5809946 -0.52356213
H 2.4676025 0.93416363 0.71433717
