title
 OpenBabel02282109573D

 11 11  0  0  0  0  0  0  0  0999 V2000
   -0.0916   -1.9494   -0.9309 O   0  0  0  0  0  0  0  0  0  0  0  0
   -0.0114   -1.1112   -0.0789 C   0  0  0  0  0  0  0  0  0  0  0  0
   -1.1504   -0.6133    0.6051 N   0  0  0  0  0  0  0  0  0  0  0  0
   -1.4385    0.6222    0.4389 C   0  0  0  0  0  0  0  0  0  0  0  0
   -0.6135    1.6045   -0.2831 C   0  0  0  0  0  0  0  0  0  0  0  0
    0.6726    1.6206   -0.3395 N   0  0  0  0  0  0  0  0  0  0  0  0
    1.4393    0.6405    0.2870 C   0  0  0  0  0  0  0  0  0  0  0  0
    1.1975   -0.6075    0.4291 N   0  0  0  0  0  0  0  0  0  0  0  0
   -2.3647    0.9981    0.8813 H   0  0  0  0  0  0  0  0  0  0  0  0
   -1.1387    2.4408   -0.7502 H   0  0  0  0  0  0  0  0  0  0  0  0
    2.3919    1.0225    0.6530 H   0  0  0  0  0  0  0  0  0  0  0  0
  1  2  2  0  0  0  0
  2  8  1  0  0  0  0
  2  3  2  0  0  0  0
  4  3  1  0  0  0  0
  4  9  1  0  0  0  0
  5  4  1  0  0  0  0
  6  5  1  0  0  0  0
  6  7  2  0  0  0  0
  7  8  1  0  0  0  0
  7 11  1  0  0  0  0
 10  5  1  0  0  0  0
M  RAD  3   4   2   5   2   8   2
M  END
