title
 OpenBabel02282109573D

 17 17  0  0  0  0  0  0  0  0999 V2000
   -0.1205    2.5223    0.6105 C   0  0  0  0  0  0  0  0  0  0  0  0
   -0.0443    1.0352    0.4920 C   0  0  0  0  0  0  0  0  0  0  0  0
   -0.0241    0.2083   -0.6188 C   0  0  0  0  0  0  0  0  0  0  0  0
   -0.0750    0.5895   -2.0670 C   0  0  0  0  0  0  0  0  0  0  0  0
    0.0571   -1.1315   -0.1284 C   0  0  0  0  0  0  0  0  0  0  0  0
    0.1018   -2.2757   -0.8769 O   0  0  0  0  0  0  0  0  0  0  0  0
    0.0844   -1.0975    1.2425 C   0  0  0  0  0  0  0  0  0  0  0  0
    0.0215    0.2352    1.6030 N   0  0  0  0  0  0  0  0  0  0  0  0
    0.7533    2.9415    1.1259 H   0  0  0  0  0  0  0  0  0  0  0  0
   -0.1654    2.9837   -0.3783 H   0  0  0  0  0  0  0  0  0  0  0  0
   -1.0115    2.8482    1.1625 H   0  0  0  0  0  0  0  0  0  0  0  0
    0.8158    0.2539   -2.6158 H   0  0  0  0  0  0  0  0  0  0  0  0
   -0.9484    0.1615   -2.5782 H   0  0  0  0  0  0  0  0  0  0  0  0
   -0.1345    1.6733   -2.1967 H   0  0  0  0  0  0  0  0  0  0  0  0
    0.0689   -2.0283   -1.8055 H   0  0  0  0  0  0  0  0  0  0  0  0
    0.1417   -1.8885    1.9701 H   0  0  0  0  0  0  0  0  0  0  0  0
    0.0238    0.5710    2.5492 H   0  0  0  0  0  0  0  0  0  0  0  0
  1  9  1  0  0  0  0
  1 11  1  0  0  0  0
  2  1  1  0  0  0  0
  2  8  1  0  0  0  0
  3  5  1  0  0  0  0
  3  2  2  0  0  0  0
  4  3  1  0  0  0  0
  5  7  2  0  0  0  0
  6  5  1  0  0  0  0
  7  8  1  0  0  0  0
  7 16  1  0  0  0  0
  8 17  1  0  0  0  0
 10  1  1  0  0  0  0
 12  4  1  0  0  0  0
 13  4  1  0  0  0  0
 14  4  1  0  0  0  0
 15  6  1  0  0  0  0
M  END
