17
title
C -0.12048231 2.5223439 0.61053836
C -0.04431908 1.03515 0.4920381
C -0.024115313 0.20833309 -0.6187535
C -0.07498516 0.5895183 -2.0670483
C 0.05712302 -1.131519 -0.12835461
O 0.1017947 -2.2757046 -0.87693995
C 0.08436785 -1.0975424 1.24246
N 0.021529676 0.23515059 1.6030291
H 0.7532659 2.9414842 1.125915
H -0.16537343 2.9836688 -0.3782981
H -1.0114694 2.8482206 1.1625153
H 0.81584597 0.25394875 -2.6158178
H -0.94840586 0.16152544 -2.5782151
H -0.13451369 1.6733432 -2.1967351
H 0.0689226 -2.0283492 -1.8054599
H 0.1416613 -1.8884801 1.9701197
H 0.02381553 0.5709536 2.549244
