title
 OpenBabel02282109573D

 15 15  0  0  0  0  0  0  0  0999 V2000
    0.1167    2.1675    0.1229 C   0  0  0  0  0  0  0  0  0  0  0  0
    0.0265    0.6781    0.0341 C   0  0  0  0  0  0  0  0  0  0  0  0
   -0.0593   -0.0839   -1.0935 C   0  0  0  0  0  0  0  0  0  0  0  0
   -0.1072    0.2902   -2.4392 N   0  0  0  0  0  0  0  0  0  0  0  0
   -0.0929   -1.4100   -0.7814 O   0  0  0  0  0  0  0  0  0  0  0  0
   -0.0225   -1.5093    0.5865 C   0  0  0  0  0  0  0  0  0  0  0  0
    0.0382   -0.2628    1.1234 C   0  0  0  0  0  0  0  0  0  0  0  0
    0.1190    0.0238    2.4517 O   0  0  0  0  0  0  0  0  0  0  0  0
    0.9538    2.4875    0.7573 H   0  0  0  0  0  0  0  0  0  0  0  0
    0.2765    2.5898   -0.8724 H   0  0  0  0  0  0  0  0  0  0  0  0
   -0.7947    2.6211    0.5340 H   0  0  0  0  0  0  0  0  0  0  0  0
   -1.0573    0.3886   -2.7849 H   0  0  0  0  0  0  0  0  0  0  0  0
    0.3676   -0.3889   -3.0243 H   0  0  0  0  0  0  0  0  0  0  0  0
   -0.0052   -2.5005    1.0030 H   0  0  0  0  0  0  0  0  0  0  0  0
    0.1480    0.9796    2.5557 H   0  0  0  0  0  0  0  0  0  0  0  0
  1 11  1  0  0  0  0
  1  9  1  0  0  0  0
  2  1  1  0  0  0  0
  2  7  1  0  0  0  0
  3  5  1  0  0  0  0
  3  2  2  0  0  0  0
  4  3  1  0  0  0  0
  5  6  1  0  0  0  0
  6 14  1  0  0  0  0
  6  7  2  0  0  0  0
  7  8  1  0  0  0  0
  8 15  1  0  0  0  0
 10  1  1  0  0  0  0
 12  4  1  0  0  0  0
 13  4  1  0  0  0  0
M  END
