16
title
C 0.010789938 2.5033119 0.6834313
C -0.013922237 1.0196475 0.5455754
C 0.0436522 0.21538326 -0.56910276
O 0.14120702 0.618945 -1.8646215
C -0.01526056 -1.1474428 -0.16017646
N 0.026199378 -2.2002141 -1.1256511
C -0.10904815 -1.1500747 1.2168949
N -0.10728475 0.15654477 1.6273562
H 0.8652624 2.857678 1.275227
H 0.08898328 2.952827 -0.3091957
H -0.89907795 2.898309 1.154641
H 0.15681344 -0.20372304 -2.3767142
H -0.80800813 -2.7773361 -1.0966384
H 0.82040024 -2.8159707 -0.9846947
H -0.17567037 -1.9626462 1.9226259
H -0.16479541 0.4570385 2.5837429
