title
 OpenBabel02282109573D

 15 15  0  0  0  0  0  0  0  0999 V2000
   -0.0837    2.5216    0.6036 C   0  0  0  0  0  0  0  0  0  0  0  0
   -0.0210    1.0345    0.5253 C   0  0  0  0  0  0  0  0  0  0  0  0
   -0.0136    0.2005   -0.5740 C   0  0  0  0  0  0  0  0  0  0  0  0
   -0.1178    0.5407   -1.9107 O   0  0  0  0  0  0  0  0  0  0  0  0
    0.0390   -1.1467   -0.1203 C   0  0  0  0  0  0  0  0  0  0  0  0
    0.0512   -2.2457   -0.9247 O   0  0  0  0  0  0  0  0  0  0  0  0
    0.0740   -1.1184    1.2518 C   0  0  0  0  0  0  0  0  0  0  0  0
    0.0438    0.2151    1.6243 N   0  0  0  0  0  0  0  0  0  0  0  0
    0.8374    2.9652    1.0037 H   0  0  0  0  0  0  0  0  0  0  0  0
   -0.2407    2.9266   -0.3993 H   0  0  0  0  0  0  0  0  0  0  0  0
   -0.9132    2.8675    1.2326 H   0  0  0  0  0  0  0  0  0  0  0  0
    0.7427    0.8360   -2.2269 H   0  0  0  0  0  0  0  0  0  0  0  0
   -0.0799   -1.9201   -1.8238 H   0  0  0  0  0  0  0  0  0  0  0  0
    0.1163   -1.9125    1.9767 H   0  0  0  0  0  0  0  0  0  0  0  0
    0.0485    0.5384    2.5746 H   0  0  0  0  0  0  0  0  0  0  0  0
  1  9  1  0  0  0  0
  1 11  1  0  0  0  0
  2  1  1  0  0  0  0
  2  8  1  0  0  0  0
  3  5  1  0  0  0  0
  3  2  2  0  0  0  0
  4  3  1  0  0  0  0
  5  7  2  0  0  0  0
  6  5  1  0  0  0  0
  7  8  1  0  0  0  0
  7 14  1  0  0  0  0
  8 15  1  0  0  0  0
 10  1  1  0  0  0  0
 12  4  1  0  0  0  0
 13  6  1  0  0  0  0
M  END
