16
title
C 0.0370351 2.1582754 0.0115185
C -0.007249774 0.66168475 0.008621005
C -0.038201112 -0.17927362 -1.081789
O -0.06556654 0.056177128 -2.421127
N -0.024273261 -1.4721175 -0.6658946
C -0.005400942 -1.5019253 0.72768736
C 0.013465836 -0.19933827 1.1596681
N 0.1363744 0.27526453 2.4843519
H 0.7793042 2.527068 0.7288478
H 0.3198725 2.5606723 -0.96945614
H -0.92406124 2.621302 0.2761404
H -0.110318474 1.0076734 -2.5556736
H -0.06551415 -2.2648263 -1.2800193
H 0.011669724 -2.4343812 1.2660441
H 0.02064669 -0.46905518 3.1614897
H -0.5444831 0.99731356 2.692989
