15
title
C 0.045002926 2.1636684 0.049752317
C 0.017704036 0.66694653 0.00934161
C -0.02750677 -0.15603618 -1.0966669
O -0.05879189 0.09949566 -2.4316933
N -0.051315214 -1.4537132 -0.70099705
C -0.017185874 -1.5164163 0.69157916
C 0.025642063 -0.22285877 1.1359905
O 0.05880936 0.14336379 2.4529703
H 1.0000538 2.5665367 0.4141365
H -0.11719998 2.5990472 -0.9433443
H -0.7469907 2.5745857 0.69049424
H 0.038412217 1.0475984 -2.5609312
H -0.07267965 -2.235457 -1.3302222
H -0.030015722 -2.4526606 1.2200005
H 0.12101512 1.1014601 2.499756
