19
title
C -0.015511403 2.536309 -0.5533039
C -0.0030325388 1.0380824 -0.54532427
C 0.01534445 0.21140486 -1.6419097
N 0.021599965 -1.0878476 -1.1955326
C 0.0074130017 -1.1153005 0.18104383
C 0.010719569 -2.4111366 0.924491
C -0.008115873 0.19544655 0.6170061
C -0.026984572 0.6836073 2.0342941
H 0.8551804 2.9571438 -0.034528702
H -0.007605929 2.925733 -1.5757753
H -0.9042578 2.9424105 -0.05375102
H 0.024365267 0.44109714 -2.6959941
H 0.034346256 -1.9018513 -1.7840935
H 0.9022588 -3.012821 0.70467836
H -0.00295536 -2.2334757 2.001772
H -0.8647551 -3.0286376 0.68487614
H 0.84535694 1.3094846 2.2616704
H -0.9140632 1.2950363 2.2432055
H -0.027712008 -0.14253002 2.750995
