title
 OpenBabel02282109573D

 18 18  0  0  0  0  0  0  0  0999 V2000
   -0.0063    2.5489   -0.5111 C   0  0  0  0  0  0  0  0  0  0  0  0
   -0.0017    1.0515   -0.5393 C   0  0  0  0  0  0  0  0  0  0  0  0
    0.0002    0.2411   -1.6493 C   0  0  0  0  0  0  0  0  0  0  0  0
    0.0085   -1.0676   -1.2256 N   0  0  0  0  0  0  0  0  0  0  0  0
   -0.0014   -1.1231    0.1480 C   0  0  0  0  0  0  0  0  0  0  0  0
   -0.0079   -2.4009    0.9146 C   0  0  0  0  0  0  0  0  0  0  0  0
   -0.0017    0.1806    0.6011 C   0  0  0  0  0  0  0  0  0  0  0  0
   -0.0095    0.5369    1.9848 N   0  0  0  0  0  0  0  0  0  0  0  0
    0.8344    2.9485    0.0698 H   0  0  0  0  0  0  0  0  0  0  0  0
    0.0648    2.9634   -1.5209 H   0  0  0  0  0  0  0  0  0  0  0  0
   -0.9213    2.9532   -0.0584 H   0  0  0  0  0  0  0  0  0  0  0  0
   -0.0031    0.4874   -2.6997 H   0  0  0  0  0  0  0  0  0  0  0  0
    0.0085   -1.8695   -1.8304 H   0  0  0  0  0  0  0  0  0  0  0  0
    0.9328   -2.9590    0.8181 H   0  0  0  0  0  0  0  0  0  0  0  0
   -0.1530   -2.1681    1.9720 H   0  0  0  0  0  0  0  0  0  0  0  0
   -0.8174   -3.0700    0.5968 H   0  0  0  0  0  0  0  0  0  0  0  0
    0.9139    0.8225    2.2995 H   0  0  0  0  0  0  0  0  0  0  0  0
   -0.6214    1.3304    2.1479 H   0  0  0  0  0  0  0  0  0  0  0  0
  1 11  1  0  0  0  0
  1  9  1  0  0  0  0
  2  1  1  0  0  0  0
  2  7  1  0  0  0  0
  3  4  1  0  0  0  0
  3  2  2  0  0  0  0
  4  5  1  0  0  0  0
  5  7  2  0  0  0  0
  5  6  1  0  0  0  0
  6 15  1  0  0  0  0
  7  8  1  0  0  0  0
  8 18  1  0  0  0  0
  8 17  1  0  0  0  0
 10  1  1  0  0  0  0
 12  3  1  0  0  0  0
 13  4  1  0  0  0  0
 14  6  1  0  0  0  0
 16  6  1  0  0  0  0
M  END
