title
 OpenBabel02282109573D

 17 17  0  0  0  0  0  0  0  0999 V2000
   -0.0240    2.5449   -0.5196 C   0  0  0  0  0  0  0  0  0  0  0  0
   -0.0235    1.0472   -0.5492 C   0  0  0  0  0  0  0  0  0  0  0  0
   -0.0676    0.2237   -1.6537 C   0  0  0  0  0  0  0  0  0  0  0  0
   -0.0488   -1.0759   -1.2242 N   0  0  0  0  0  0  0  0  0  0  0  0
    0.0076   -1.1287    0.1565 C   0  0  0  0  0  0  0  0  0  0  0  0
    0.0406   -2.4016    0.9307 C   0  0  0  0  0  0  0  0  0  0  0  0
    0.0236    0.1799    0.5836 C   0  0  0  0  0  0  0  0  0  0  0  0
    0.0771    0.5458    1.9039 O   0  0  0  0  0  0  0  0  0  0  0  0
    0.8779    2.9530   -0.0434 H   0  0  0  0  0  0  0  0  0  0  0  0
   -0.0640    2.9556   -1.5323 H   0  0  0  0  0  0  0  0  0  0  0  0
   -0.8870    2.9512    0.0255 H   0  0  0  0  0  0  0  0  0  0  0  0
   -0.1106    0.4688   -2.7032 H   0  0  0  0  0  0  0  0  0  0  0  0
   -0.0723   -1.8822   -1.8221 H   0  0  0  0  0  0  0  0  0  0  0  0
    0.9174   -3.0176    0.6907 H   0  0  0  0  0  0  0  0  0  0  0  0
    0.0821   -2.1707    1.9975 H   0  0  0  0  0  0  0  0  0  0  0  0
   -0.8497   -3.0212    0.7600 H   0  0  0  0  0  0  0  0  0  0  0  0
    0.0773    1.5056    1.9507 H   0  0  0  0  0  0  0  0  0  0  0  0
  1  9  1  0  0  0  0
  1 11  1  0  0  0  0
  2  1  1  0  0  0  0
  2  7  1  0  0  0  0
  3  4  1  0  0  0  0
  3  2  2  0  0  0  0
  4  5  1  0  0  0  0
  5  7  2  0  0  0  0
  5  6  1  0  0  0  0
  6 15  1  0  0  0  0
  7  8  1  0  0  0  0
  8 17  1  0  0  0  0
 10  1  1  0  0  0  0
 12  3  1  0  0  0  0
 13  4  1  0  0  0  0
 14  6  1  0  0  0  0
 16  6  1  0  0  0  0
M  END
