title
 OpenBabel02282109573D

 16 16  0  0  0  0  0  0  0  0999 V2000
   -0.0355    2.5609   -0.4895 C   0  0  0  0  0  0  0  0  0  0  0  0
   -0.0246    1.0634   -0.5320 C   0  0  0  0  0  0  0  0  0  0  0  0
   -0.0508    0.2509   -1.6494 C   0  0  0  0  0  0  0  0  0  0  0  0
   -0.0267   -1.0509   -1.2376 N   0  0  0  0  0  0  0  0  0  0  0  0
    0.0137   -1.1158    0.1418 C   0  0  0  0  0  0  0  0  0  0  0  0
    0.0431   -2.3696    0.7924 N   0  0  0  0  0  0  0  0  0  0  0  0
    0.0156    0.1870    0.5915 C   0  0  0  0  0  0  0  0  0  0  0  0
    0.0513    0.5251    1.9198 O   0  0  0  0  0  0  0  0  0  0  0  0
    0.8642    2.9721   -0.0116 H   0  0  0  0  0  0  0  0  0  0  0  0
   -0.0801    2.9789   -1.4991 H   0  0  0  0  0  0  0  0  0  0  0  0
   -0.9010    2.9564    0.0595 H   0  0  0  0  0  0  0  0  0  0  0  0
   -0.0841    0.5118   -2.6952 H   0  0  0  0  0  0  0  0  0  0  0  0
   -0.0367   -1.8688   -1.8208 H   0  0  0  0  0  0  0  0  0  0  0  0
   -0.7519   -2.4802    1.4148 H   0  0  0  0  0  0  0  0  0  0  0  0
    0.8743   -2.4662    1.3682 H   0  0  0  0  0  0  0  0  0  0  0  0
    0.0467    1.4843    1.9857 H   0  0  0  0  0  0  0  0  0  0  0  0
  1  9  1  0  0  0  0
  1 11  1  0  0  0  0
  2  1  1  0  0  0  0
  2  7  1  0  0  0  0
  3  4  1  0  0  0  0
  3  2  2  0  0  0  0
  4  5  1  0  0  0  0
  5  7  2  0  0  0  0
  5  6  1  0  0  0  0
  6 15  1  0  0  0  0
  6 14  1  0  0  0  0
  7  8  1  0  0  0  0
  8 16  1  0  0  0  0
 10  1  1  0  0  0  0
 12  3  1  0  0  0  0
 13  4  1  0  0  0  0
M  END
