16
title
C -0.035525307 2.560927 -0.48948154
C -0.024633318 1.06335 -0.53196853
C -0.050805718 0.25086945 -1.6493777
N -0.026748432 -1.0508541 -1.237627
C 0.013699227 -1.1157876 0.14184372
N 0.043141518 -2.3695567 0.7924094
C 0.015626365 0.1869601 0.59149647
O 0.051261287 0.5250601 1.9198264
H 0.8642197 2.9720845 -0.011612726
H -0.08011478 2.97894 -1.4990904
H -0.90103257 2.9564228 0.059539724
H -0.08407593 0.5117829 -2.695193
H -0.036739137 -1.8688213 -1.8207529
H -0.7519017 -2.4802346 1.4148469
H 0.8743293 -2.466192 1.3682126
H 0.04667985 1.4843274 1.9856609
