title
 OpenBabel02282109573D

 16 16  0  0  0  0  0  0  0  0999 V2000
   -0.1675    2.5712   -0.5053 C   0  0  0  0  0  0  0  0  0  0  0  0
   -0.0922    1.0764   -0.5376 C   0  0  0  0  0  0  0  0  0  0  0  0
   -0.1261    0.2724   -1.6491 C   0  0  0  0  0  0  0  0  0  0  0  0
   -0.0295   -1.0518   -1.2362 N   0  0  0  0  0  0  0  0  0  0  0  0
    0.0641   -1.0805    0.1198 C   0  0  0  0  0  0  0  0  0  0  0  0
    0.1700   -2.2490    0.7880 O   0  0  0  0  0  0  0  0  0  0  0  0
    0.0302    0.2056    0.6016 C   0  0  0  0  0  0  0  0  0  0  0  0
    0.1121    0.4634    2.0045 N   0  0  0  0  0  0  0  0  0  0  0  0
    0.7240    3.0173   -0.0459 H   0  0  0  0  0  0  0  0  0  0  0  0
   -0.2574    2.9834   -1.5144 H   0  0  0  0  0  0  0  0  0  0  0  0
   -1.0298    2.9264    0.0733 H   0  0  0  0  0  0  0  0  0  0  0  0
   -0.2098    0.5178   -2.6951 H   0  0  0  0  0  0  0  0  0  0  0  0
   -0.0273   -1.8632   -1.8277 H   0  0  0  0  0  0  0  0  0  0  0  0
    0.2197   -1.9893    1.7205 H   0  0  0  0  0  0  0  0  0  0  0  0
   -0.7071    0.9561    2.3486 H   0  0  0  0  0  0  0  0  0  0  0  0
    0.9155    1.0397    2.2385 H   0  0  0  0  0  0  0  0  0  0  0  0
  1  9  1  0  0  0  0
  1 11  1  0  0  0  0
  2  1  1  0  0  0  0
  2  7  1  0  0  0  0
  3  4  1  0  0  0  0
  3  2  2  0  0  0  0
  4  5  1  0  0  0  0
  5  7  2  0  0  0  0
  5  6  1  0  0  0  0
  6 14  1  0  0  0  0
  7  8  1  0  0  0  0
  8 16  1  0  0  0  0
  8 15  1  0  0  0  0
 10  1  1  0  0  0  0
 12  3  1  0  0  0  0
 13  4  1  0  0  0  0
M  END
