15
title
C -0.1058172 2.5654938 -0.52654827
C -0.055053547 1.0698301 -0.5542031
C -0.08013433 0.25020194 -1.6572527
N -0.02085949 -1.0663604 -1.2275429
C 0.049011085 -1.0880998 0.13386677
O 0.100334466 -2.2684872 0.7988107
C 0.03276201 0.20760083 0.5858705
O 0.0149814 0.53605205 1.9295691
H 0.8191635 3.0059714 -0.1313502
H -0.2544326 2.9713507 -1.5311447
H -0.92411864 2.9281673 0.1063919
H -0.13265797 0.48692906 -2.7070045
H -0.047414944 -1.8858193 -1.8072186
H 0.09262304 -2.0480442 1.7382461
H 0.80375785 1.04974 2.1339116
