title
 OpenBabel02282109573D

 15 15  0  0  0  0  0  0  0  0999 V2000
   -0.1058    2.5655   -0.5265 C   0  0  0  0  0  0  0  0  0  0  0  0
   -0.0551    1.0698   -0.5542 C   0  0  0  0  0  0  0  0  0  0  0  0
   -0.0801    0.2502   -1.6573 C   0  0  0  0  0  0  0  0  0  0  0  0
   -0.0209   -1.0664   -1.2275 N   0  0  0  0  0  0  0  0  0  0  0  0
    0.0490   -1.0881    0.1339 C   0  0  0  0  0  0  0  0  0  0  0  0
    0.1003   -2.2685    0.7988 O   0  0  0  0  0  0  0  0  0  0  0  0
    0.0328    0.2076    0.5859 C   0  0  0  0  0  0  0  0  0  0  0  0
    0.0150    0.5361    1.9296 O   0  0  0  0  0  0  0  0  0  0  0  0
    0.8192    3.0060   -0.1314 H   0  0  0  0  0  0  0  0  0  0  0  0
   -0.2544    2.9714   -1.5311 H   0  0  0  0  0  0  0  0  0  0  0  0
   -0.9241    2.9282    0.1064 H   0  0  0  0  0  0  0  0  0  0  0  0
   -0.1327    0.4869   -2.7070 H   0  0  0  0  0  0  0  0  0  0  0  0
   -0.0474   -1.8858   -1.8072 H   0  0  0  0  0  0  0  0  0  0  0  0
    0.0926   -2.0480    1.7382 H   0  0  0  0  0  0  0  0  0  0  0  0
    0.8038    1.0497    2.1339 H   0  0  0  0  0  0  0  0  0  0  0  0
  1  9  1  0  0  0  0
  1 11  1  0  0  0  0
  2  1  1  0  0  0  0
  2  7  1  0  0  0  0
  3  4  1  0  0  0  0
  3  2  2  0  0  0  0
  4  5  1  0  0  0  0
  5  7  2  0  0  0  0
  5  6  1  0  0  0  0
  6 14  1  0  0  0  0
  7  8  1  0  0  0  0
  8 15  1  0  0  0  0
 10  1  1  0  0  0  0
 12  3  1  0  0  0  0
 13  4  1  0  0  0  0
M  END
