18
title
C -0.045806523 2.5430954 -0.56058145
C -0.0043380978 1.0475192 -0.5322453
C 0.07064663 0.20163389 -1.5902216
O 0.08795937 -1.0954679 -1.1770958
C 0.02191466 -1.0822467 0.18772064
C 0.027816363 -2.4118178 0.8541924
C -0.036688875 0.20243092 0.6416086
C -0.118249685 0.67880726 2.0588095
H 0.7972842 2.9823217 -0.013730962
H -0.0077959793 2.9201338 -1.5864244
H -0.96073025 2.9318974 -0.097421095
H 0.11737972 0.35684243 -2.6561253
H -0.82302815 -3.0250382 0.53508127
H 0.93956685 -2.9742298 0.62128246
H -0.028492367 -2.2937648 1.938335
H 0.7347407 1.3168762 2.3202984
H -1.0231867 1.2734358 2.2335672
H -0.13250741 -0.15478991 2.7659605
