17
title
C -0.06506382 2.5510118 -0.5459295
C -0.03308727 1.0553513 -0.5273578
C -0.04387632 0.22195178 -1.594969
O -0.005723335 -1.0900048 -1.1815568
C 0.022064399 -1.0677947 0.17153141
N 0.13913392 -2.3145134 0.7793572
C 0.0042557456 0.21057147 0.6491784
C 0.023029026 0.65551114 2.078625
H 0.82291365 2.9806812 -0.066896
H -0.108073555 2.932372 -1.5699309
H -0.93663985 2.9436834 -0.008148111
H -0.07849304 0.37318444 -2.6604636
H -0.40617442 -3.0247679 0.3050873
H -0.105245136 -2.2856982 1.7602216
H 0.99697703 1.0620915 2.3806121
H -0.72125214 1.4380141 2.2671978
H -0.20222947 -0.17030436 2.7627454
