title
 OpenBabel02282109573D

 15 15  0  0  0  0  0  0  0  0999 V2000
   -0.0963    2.5581   -0.5283 C   0  0  0  0  0  0  0  0  0  0  0  0
   -0.0433    1.0642   -0.5415 C   0  0  0  0  0  0  0  0  0  0  0  0
   -0.0648    0.2276   -1.6093 C   0  0  0  0  0  0  0  0  0  0  0  0
   -0.0101   -1.0866   -1.2026 O   0  0  0  0  0  0  0  0  0  0  0  0
    0.0426   -1.0807    0.1492 C   0  0  0  0  0  0  0  0  0  0  0  0
    0.1648   -2.3083    0.7890 N   0  0  0  0  0  0  0  0  0  0  0  0
    0.0253    0.2011    0.6116 C   0  0  0  0  0  0  0  0  0  0  0  0
   -0.0245    0.5571    1.9418 O   0  0  0  0  0  0  0  0  0  0  0  0
    0.8240    2.9952   -0.1209 H   0  0  0  0  0  0  0  0  0  0  0  0
   -0.2317    2.9580   -1.5365 H   0  0  0  0  0  0  0  0  0  0  0  0
   -0.9224    2.9190    0.0946 H   0  0  0  0  0  0  0  0  0  0  0  0
   -0.1201    0.3813   -2.6735 H   0  0  0  0  0  0  0  0  0  0  0  0
   -0.4907   -2.9983    0.4386 H   0  0  0  0  0  0  0  0  0  0  0  0
    0.0400   -2.1922    1.7875 H   0  0  0  0  0  0  0  0  0  0  0  0
    0.7857    1.0250    2.1716 H   0  0  0  0  0  0  0  0  0  0  0  0
  1  9  1  0  0  0  0
  1 11  1  0  0  0  0
  2  1  1  0  0  0  0
  2  7  1  0  0  0  0
  3  4  1  0  0  0  0
  3  2  2  0  0  0  0
  4  5  1  0  0  0  0
  5  7  2  0  0  0  0
  5  6  1  0  0  0  0
  6 14  1  0  0  0  0
  7  8  1  0  0  0  0
  8 15  1  0  0  0  0
 10  1  1  0  0  0  0
 12  3  1  0  0  0  0
 13  6  1  0  0  0  0
M  END
