title
 OpenBabel02282109573D

 14 14  0  0  0  0  0  0  0  0999 V2000
    0.1168    2.0569   -0.0779 N   0  0  0  0  0  0  0  0  0  0  0  0
    0.0020    0.6398   -0.0230 C   0  0  0  0  0  0  0  0  0  0  0  0
   -1.1038   -0.1835    0.0443 C   0  0  0  0  0  0  0  0  0  0  0  0
   -2.4347    0.0833    0.0806 O   0  0  0  0  0  0  0  0  0  0  0  0
   -0.6889   -1.4731    0.0763 N   0  0  0  0  0  0  0  0  0  0  0  0
    0.7103   -1.5251    0.0306 C   0  0  0  0  0  0  0  0  0  0  0  0
    1.1418   -0.2282   -0.0309 C   0  0  0  0  0  0  0  0  0  0  0  0
    2.4216    0.2207   -0.0909 O   0  0  0  0  0  0  0  0  0  0  0  0
   -0.2356    2.5363    0.7430 H   0  0  0  0  0  0  0  0  0  0  0  0
   -0.2913    2.4770   -0.9055 H   0  0  0  0  0  0  0  0  0  0  0  0
   -2.5374    1.0405    0.0476 H   0  0  0  0  0  0  0  0  0  0  0  0
   -1.3055   -2.2635    0.1264 H   0  0  0  0  0  0  0  0  0  0  0  0
    1.2392   -2.4608    0.0461 H   0  0  0  0  0  0  0  0  0  0  0  0
    2.3475    1.1858   -0.1230 H   0  0  0  0  0  0  0  0  0  0  0  0
  1  2  1  0  0  0  0
  1  9  1  0  0  0  0
  2  3  2  0  0  0  0
  3  5  1  0  0  0  0
  3  4  1  0  0  0  0
  5 12  1  0  0  0  0
  6 13  1  0  0  0  0
  6  5  1  0  0  0  0
  7  2  1  0  0  0  0
  7  6  2  0  0  0  0
  8  7  1  0  0  0  0
 10  1  1  0  0  0  0
 11  4  1  0  0  0  0
 14  8  1  0  0  0  0
M  END
