title
 OpenBabel02282109573D

 15 15  0  0  0  0  0  0  0  0999 V2000
   -0.3810    2.4519    0.0069 N   0  0  0  0  0  0  0  0  0  0  0  0
   -0.5399    1.0315    0.0199 C   0  0  0  0  0  0  0  0  0  0  0  0
   -1.6603    0.2215    0.0732 C   0  0  0  0  0  0  0  0  0  0  0  0
   -1.2262   -1.0734    0.0591 N   0  0  0  0  0  0  0  0  0  0  0  0
    0.1567   -1.1317   -0.0023 C   0  0  0  0  0  0  0  0  0  0  0  0
    0.8053   -2.3864   -0.0261 N   0  0  0  0  0  0  0  0  0  0  0  0
    0.5939    0.1745   -0.0272 C   0  0  0  0  0  0  0  0  0  0  0  0
    1.8841    0.6027   -0.0866 O   0  0  0  0  0  0  0  0  0  0  0  0
   -0.7663    2.8858    0.8396 H   0  0  0  0  0  0  0  0  0  0  0  0
   -0.8398    2.8791   -0.7911 H   0  0  0  0  0  0  0  0  0  0  0  0
   -2.7093    0.4670    0.1189 H   0  0  0  0  0  0  0  0  0  0  0  0
   -1.7986   -1.8988    0.0881 H   0  0  0  0  0  0  0  0  0  0  0  0
    1.4393   -2.4901    0.7605 H   0  0  0  0  0  0  0  0  0  0  0  0
    1.3665   -2.4969   -0.8654 H   0  0  0  0  0  0  0  0  0  0  0  0
    1.8201    1.5699   -0.0879 H   0  0  0  0  0  0  0  0  0  0  0  0
  1  2  1  0  0  0  0
  1  9  1  0  0  0  0
  2  3  2  0  0  0  0
  3 11  1  0  0  0  0
  4  3  1  0  0  0  0
  4 12  1  0  0  0  0
  5  4  1  0  0  0  0
  6  5  1  0  0  0  0
  6 13  1  0  0  0  0
  7  5  2  0  0  0  0
  7  2  1  0  0  0  0
  8  7  1  0  0  0  0
 10  1  1  0  0  0  0
 14  6  1  0  0  0  0
 15  8  1  0  0  0  0
M  END
