title
 OpenBabel02282109573D

 15 15  0  0  0  0  0  0  0  0999 V2000
   -0.5653    2.4245    0.1255 N   0  0  0  0  0  0  0  0  0  0  0  0
   -0.5794    1.0235    0.0200 C   0  0  0  0  0  0  0  0  0  0  0  0
   -1.6194    0.1453   -0.0269 C   0  0  0  0  0  0  0  0  0  0  0  0
   -1.1604   -1.1434   -0.0584 O   0  0  0  0  0  0  0  0  0  0  0  0
    0.2130   -1.0781   -0.0218 C   0  0  0  0  0  0  0  0  0  0  0  0
    0.9796   -2.2461   -0.0549 N   0  0  0  0  0  0  0  0  0  0  0  0
    0.6151    0.2221    0.0251 C   0  0  0  0  0  0  0  0  0  0  0  0
    1.9221    0.7386   -0.0010 N   0  0  0  0  0  0  0  0  0  0  0  0
    0.1389    2.8276   -0.4839 H   0  0  0  0  0  0  0  0  0  0  0  0
   -1.4624    2.8412   -0.0897 H   0  0  0  0  0  0  0  0  0  0  0  0
   -2.6893    0.2711   -0.0314 H   0  0  0  0  0  0  0  0  0  0  0  0
    0.7444   -2.8817    0.7017 H   0  0  0  0  0  0  0  0  0  0  0  0
    0.8763   -2.7576   -0.9271 H   0  0  0  0  0  0  0  0  0  0  0  0
    2.5970   -0.0153    0.0721 H   0  0  0  0  0  0  0  0  0  0  0  0
    2.0788    1.3933    0.7590 H   0  0  0  0  0  0  0  0  0  0  0  0
  2  7  1  0  0  0  0
  2  1  1  0  0  0  0
  3  2  2  0  0  0  0
  4  3  1  0  0  0  0
  4  5  1  0  0  0  0
  5  7  2  0  0  0  0
  6  5  1  0  0  0  0
  6 12  1  0  0  0  0
  8  7  1  0  0  0  0
  8 14  1  0  0  0  0
  8 15  1  0  0  0  0
  9  1  1  0  0  0  0
 10  1  1  0  0  0  0
 11  3  1  0  0  0  0
 13  6  1  0  0  0  0
M  END
