15
title
N -0.56525004 2.4244618 0.12553674
C -0.5793501 1.0234613 0.019981442
C -1.6193829 0.14534758 -0.026882278
O -1.160421 -1.1433625 -0.05838976
C 0.21296899 -1.0780964 -0.021756647
N 0.97957486 -2.2461135 -0.054928884
C 0.61508757 0.22213475 0.025148712
N 1.9221257 0.73855245 -0.0009599465
H 0.13889627 2.8276298 -0.4838933
H -1.4623934 2.841168 -0.08968848
H -2.6892748 0.2710614 -0.031354405
H 0.7444369 -2.8817253 0.7017122
H 0.87634903 -2.7575502 -0.9270835
H 2.5970135 -0.015330629 0.07206968
H 2.0788097 1.3933326 0.7589953
