14
title
N -0.50736445 2.4384124 -0.04469135
C -0.56485236 1.0409074 0.013946062
C -1.6282572 0.19446565 0.03722324
O -1.1802174 -1.1212416 0.0153079685
C 0.16549139 -1.0865934 -0.009895774
N 0.8347451 -2.3011343 -0.08728332
C 0.6060055 0.20285119 -0.016398812
O 1.9175968 0.6247178 0.041532446
H 0.30264673 2.7919343 0.451095
H -1.3422465 2.8875062 0.30815014
H -2.6954613 0.32286963 0.05717287
H 0.43331692 -3.004709 0.5220947
H 1.817925 -2.1788776 0.12166224
H 2.1703622 0.96460414 -0.8248483
