13
title
O -0.018012386 2.391479 -0.54729795
C -0.031944733 1.0284234 -0.5635758
C -0.10688065 0.22003268 -1.6673398
N -0.07286106 -1.0981911 -1.205
C 0.0071589765 -1.1098052 0.15072328
O 0.027035836 -2.2870386 0.8225993
C 0.05301899 0.19227396 0.5914998
O 0.08568577 0.6150045 1.9100014
H -0.15328416 2.6591578 0.3691796
H -0.16754717 0.44919506 -2.7159247
H -0.16746876 -1.9216226 -1.7711443
H -0.06728871 -2.075709 1.7587274
H 1.001964 0.78702 2.1572394
