title
 OpenBabel02282109573D

 13 13  0  0  0  0  0  0  0  0999 V2000
   -0.0180    2.3915   -0.5473 O   0  0  0  0  0  0  0  0  0  0  0  0
   -0.0319    1.0284   -0.5636 C   0  0  0  0  0  0  0  0  0  0  0  0
   -0.1069    0.2200   -1.6673 C   0  0  0  0  0  0  0  0  0  0  0  0
   -0.0729   -1.0982   -1.2050 N   0  0  0  0  0  0  0  0  0  0  0  0
    0.0072   -1.1098    0.1507 C   0  0  0  0  0  0  0  0  0  0  0  0
    0.0270   -2.2870    0.8226 O   0  0  0  0  0  0  0  0  0  0  0  0
    0.0530    0.1923    0.5915 C   0  0  0  0  0  0  0  0  0  0  0  0
    0.0857    0.6150    1.9100 O   0  0  0  0  0  0  0  0  0  0  0  0
   -0.1533    2.6592    0.3692 H   0  0  0  0  0  0  0  0  0  0  0  0
   -0.1675    0.4492   -2.7159 H   0  0  0  0  0  0  0  0  0  0  0  0
   -0.1675   -1.9216   -1.7711 H   0  0  0  0  0  0  0  0  0  0  0  0
   -0.0673   -2.0757    1.7587 H   0  0  0  0  0  0  0  0  0  0  0  0
    1.0020    0.7870    2.1572 H   0  0  0  0  0  0  0  0  0  0  0  0
  1  9  1  0  0  0  0
  2  1  1  0  0  0  0
  2  7  1  0  0  0  0
  3  4  1  0  0  0  0
  3  2  2  0  0  0  0
  4  5  1  0  0  0  0
  5  7  2  0  0  0  0
  5  6  1  0  0  0  0
  6 12  1  0  0  0  0
  7  8  1  0  0  0  0
  8 13  1  0  0  0  0
 10  3  1  0  0  0  0
 11  4  1  0  0  0  0
M  END
