title
 OpenBabel02282109573D

 15 15  0  0  0  0  0  0  0  0999 V2000
   -0.0862    2.0299   -0.0194 C   0  0  0  0  0  0  0  0  0  0  0  0
    0.0113    0.5892    0.0011 N   0  0  0  0  0  0  0  0  0  0  0  0
   -0.0000   -0.1792   -1.1671 C   0  0  0  0  0  0  0  0  0  0  0  0
   -0.0353    0.2272   -2.3159 O   0  0  0  0  0  0  0  0  0  0  0  0
    0.0302   -1.4772   -0.7049 N   0  0  0  0  0  0  0  0  0  0  0  0
    0.0650   -1.5184    0.6983 C   0  0  0  0  0  0  0  0  0  0  0  0
    0.0439   -0.2359    1.1252 C   0  0  0  0  0  0  0  0  0  0  0  0
   -0.0487    0.3275    2.4040 N   0  0  0  0  0  0  0  0  0  0  0  0
    0.8508    2.5094    0.2894 H   0  0  0  0  0  0  0  0  0  0  0  0
   -0.2990    2.3165   -1.0509 H   0  0  0  0  0  0  0  0  0  0  0  0
   -0.8902    2.3714    0.6387 H   0  0  0  0  0  0  0  0  0  0  0  0
    0.0094   -2.2630   -1.3286 H   0  0  0  0  0  0  0  0  0  0  0  0
    0.0988   -2.4404    1.2506 H   0  0  0  0  0  0  0  0  0  0  0  0
   -0.1164   -0.3895    3.1154 H   0  0  0  0  0  0  0  0  0  0  0  0
    0.7382    0.9301    2.6265 H   0  0  0  0  0  0  0  0  0  0  0  0
  1  2  1  0  0  0  0
  1  9  1  0  0  0  0
  1 11  1  0  0  0  0
  2  7  1  0  0  0  0
  3  5  1  0  0  0  0
  3  2  1  0  0  0  0
  4  3  2  0  0  0  0
  5  6  1  0  0  0  0
  6  7  2  0  0  0  0
  6 13  1  0  0  0  0
  7  8  1  0  0  0  0
  8 15  1  0  0  0  0
  8 14  1  0  0  0  0
 10  1  1  0  0  0  0
 12  5  1  0  0  0  0
M  END
