14
title
C -0.021640427 2.0340748 0.019158678
N -0.006110805 0.5885871 0.0044964463
C -0.041242715 -0.16389418 -1.1781073
O -0.086511314 0.26363343 -2.3177595
N -0.012346061 -1.46781 -0.73760855
C 0.04135393 -1.5370878 0.66937864
C 0.0430676 -0.2574854 1.0987486
O 0.08165477 0.31600153 2.3229759
H 0.8791946 2.4355052 0.49309152
H -0.059113566 2.3521612 -1.0240597
H -0.8984026 2.4161744 0.5508234
H -0.022450665 -2.2441716 -1.3732475
H 0.06951189 -2.4666653 1.2079253
H 0.1081727 -0.37636578 2.9911025
