title
 OpenBabel02282109573D

 14 14  0  0  0  0  0  0  0  0999 V2000
   -0.0216    2.0341    0.0192 C   0  0  0  0  0  0  0  0  0  0  0  0
   -0.0061    0.5886    0.0045 N   0  0  0  0  0  0  0  0  0  0  0  0
   -0.0412   -0.1639   -1.1781 C   0  0  0  0  0  0  0  0  0  0  0  0
   -0.0865    0.2636   -2.3178 O   0  0  0  0  0  0  0  0  0  0  0  0
   -0.0123   -1.4678   -0.7376 N   0  0  0  0  0  0  0  0  0  0  0  0
    0.0414   -1.5371    0.6694 C   0  0  0  0  0  0  0  0  0  0  0  0
    0.0431   -0.2575    1.0987 C   0  0  0  0  0  0  0  0  0  0  0  0
    0.0817    0.3160    2.3230 O   0  0  0  0  0  0  0  0  0  0  0  0
    0.8792    2.4355    0.4931 H   0  0  0  0  0  0  0  0  0  0  0  0
   -0.0591    2.3522   -1.0241 H   0  0  0  0  0  0  0  0  0  0  0  0
   -0.8984    2.4162    0.5508 H   0  0  0  0  0  0  0  0  0  0  0  0
   -0.0225   -2.2442   -1.3732 H   0  0  0  0  0  0  0  0  0  0  0  0
    0.0695   -2.4667    1.2079 H   0  0  0  0  0  0  0  0  0  0  0  0
    0.1082   -0.3764    2.9911 H   0  0  0  0  0  0  0  0  0  0  0  0
  1  9  1  0  0  0  0
  1 11  1  0  0  0  0
  2  1  1  0  0  0  0
  2  7  1  0  0  0  0
  3  5  1  0  0  0  0
  3  2  1  0  0  0  0
  4  3  2  0  0  0  0
  5  6  1  0  0  0  0
  6  7  2  0  0  0  0
  6 13  1  0  0  0  0
  7  8  1  0  0  0  0
  8 14  1  0  0  0  0
 10  1  1  0  0  0  0
 12  5  1  0  0  0  0
M  END
