title
 OpenBabel02282109573D

 15 15  0  0  0  0  0  0  0  0999 V2000
   -0.0258    2.0546    0.0014 C   0  0  0  0  0  0  0  0  0  0  0  0
   -0.0070    0.6086    0.0189 N   0  0  0  0  0  0  0  0  0  0  0  0
   -0.0281   -0.1448   -1.1379 C   0  0  0  0  0  0  0  0  0  0  0  0
   -0.0629    0.2234   -2.2834 O   0  0  0  0  0  0  0  0  0  0  0  0
   -0.0012   -1.4611   -0.7354 O   0  0  0  0  0  0  0  0  0  0  0  0
    0.0355   -1.4880    0.6441 C   0  0  0  0  0  0  0  0  0  0  0  0
    0.0329   -0.2409    1.1347 C   0  0  0  0  0  0  0  0  0  0  0  0
    0.0636    0.2566    2.5359 C   0  0  0  0  0  0  0  0  0  0  0  0
    0.8725    2.4716    0.4685 H   0  0  0  0  0  0  0  0  0  0  0  0
   -0.0574    2.3580   -1.0461 H   0  0  0  0  0  0  0  0  0  0  0  0
   -0.9083    2.4490    0.5158 H   0  0  0  0  0  0  0  0  0  0  0  0
    0.0600   -2.4557    1.1129 H   0  0  0  0  0  0  0  0  0  0  0  0
    0.0924   -0.5877    3.2283 H   0  0  0  0  0  0  0  0  0  0  0  0
    0.9446    0.8805    2.7272 H   0  0  0  0  0  0  0  0  0  0  0  0
   -0.8213    0.8584    2.7737 H   0  0  0  0  0  0  0  0  0  0  0  0
  1  2  1  0  0  0  0
  1  9  1  0  0  0  0
  1 11  1  0  0  0  0
  2  7  1  0  0  0  0
  3  5  1  0  0  0  0
  3  2  1  0  0  0  0
  4  3  2  0  0  0  0
  5  6  1  0  0  0  0
  6 12  1  0  0  0  0
  6  7  2  0  0  0  0
  7  8  1  0  0  0  0
  8 14  1  0  0  0  0
  8 15  1  0  0  0  0
  8 13  1  0  0  0  0
 10  1  1  0  0  0  0
M  END
