title
 OpenBabel02282109573D

 14 14  0  0  0  0  0  0  0  0999 V2000
   -0.1060    2.0498   -0.0085 C   0  0  0  0  0  0  0  0  0  0  0  0
    0.0056    0.6084    0.0076 N   0  0  0  0  0  0  0  0  0  0  0  0
    0.0133   -0.1617   -1.1420 C   0  0  0  0  0  0  0  0  0  0  0  0
   -0.0102    0.2032   -2.2892 O   0  0  0  0  0  0  0  0  0  0  0  0
    0.0477   -1.4673   -0.7300 O   0  0  0  0  0  0  0  0  0  0  0  0
    0.0746   -1.4896    0.6606 C   0  0  0  0  0  0  0  0  0  0  0  0
    0.0350   -0.2303    1.1250 C   0  0  0  0  0  0  0  0  0  0  0  0
   -0.0801    0.3071    2.4068 N   0  0  0  0  0  0  0  0  0  0  0  0
    0.8284    2.5346    0.2981 H   0  0  0  0  0  0  0  0  0  0  0  0
   -0.3279    2.3412   -1.0363 H   0  0  0  0  0  0  0  0  0  0  0  0
   -0.9113    2.3778    0.6545 H   0  0  0  0  0  0  0  0  0  0  0  0
    0.1001   -2.4522    1.1369 H   0  0  0  0  0  0  0  0  0  0  0  0
   -0.1195   -0.4167    3.1130 H   0  0  0  0  0  0  0  0  0  0  0  0
    0.6686    0.9530    2.6362 H   0  0  0  0  0  0  0  0  0  0  0  0
  1  2  1  0  0  0  0
  1  9  1  0  0  0  0
  1 11  1  0  0  0  0
  2  7  1  0  0  0  0
  3  5  1  0  0  0  0
  3  2  1  0  0  0  0
  4  3  2  0  0  0  0
  5  6  1  0  0  0  0
  6  7  2  0  0  0  0
  6 12  1  0  0  0  0
  7  8  1  0  0  0  0
  8 14  1  0  0  0  0
  8 13  1  0  0  0  0
 10  1  1  0  0  0  0
M  END
