title
 OpenBabel02282109573D

 18 18  0  0  0  0  0  0  0  0999 V2000
   -0.0222    1.9891   -0.0080 C   0  0  0  0  0  0  0  0  0  0  0  0
    0.0003    0.5427   -0.0131 N   0  0  0  0  0  0  0  0  0  0  0  0
    0.0060   -0.2635   -1.1371 C   0  0  0  0  0  0  0  0  0  0  0  0
    0.0227    0.3009   -2.5187 C   0  0  0  0  0  0  0  0  0  0  0  0
   -0.0045   -1.5713   -0.7087 C   0  0  0  0  0  0  0  0  0  0  0  0
    0.0034   -1.5684    0.7134 C   0  0  0  0  0  0  0  0  0  0  0  0
    0.0093   -0.2529    1.1184 C   0  0  0  0  0  0  0  0  0  0  0  0
   -0.0392    0.3513    2.3966 N   0  0  0  0  0  0  0  0  0  0  0  0
    0.9497    2.4156   -0.2861 H   0  0  0  0  0  0  0  0  0  0  0  0
   -0.7739    2.3644   -0.7085 H   0  0  0  0  0  0  0  0  0  0  0  0
   -0.2779    2.3196    0.9997 H   0  0  0  0  0  0  0  0  0  0  0  0
    0.8982    0.9372   -2.7036 H   0  0  0  0  0  0  0  0  0  0  0  0
    0.0501   -0.5155   -3.2444 H   0  0  0  0  0  0  0  0  0  0  0  0
   -0.8654    0.9074   -2.7412 H   0  0  0  0  0  0  0  0  0  0  0  0
   -0.0075   -2.4368   -1.3547 H   0  0  0  0  0  0  0  0  0  0  0  0
    0.0119   -2.4265    1.3687 H   0  0  0  0  0  0  0  0  0  0  0  0
   -0.5053   -0.2588    3.0571 H   0  0  0  0  0  0  0  0  0  0  0  0
    0.8861    0.5492    2.7680 H   0  0  0  0  0  0  0  0  0  0  0  0
  1 11  1  0  0  0  0
  2  1  1  0  0  0  0
  2  7  1  0  0  0  0
  3  5  2  0  0  0  0
  3  2  1  0  0  0  0
  4  3  1  0  0  0  0
  5  6  1  0  0  0  0
  6  7  2  0  0  0  0
  6 16  1  0  0  0  0
  7  8  1  0  0  0  0
  8 18  1  0  0  0  0
  8 17  1  0  0  0  0
  9  1  1  0  0  0  0
 10  1  1  0  0  0  0
 12  4  1  0  0  0  0
 13  4  1  0  0  0  0
 14  4  1  0  0  0  0
 15  5  1  0  0  0  0
M  END
