17
title
C 0.00075905205 1.9911777 -0.015280492
N 0.00016190295 0.5437676 -0.019419724
C -0.028979516 -0.27589124 -1.1462677
C -0.0633298 0.28899902 -2.5259547
C -0.018793857 -1.575095 -0.70688415
C 0.017054262 -1.5705525 0.7223769
C 0.027420273 -0.25066727 1.0962628
O 0.058127325 0.3661667 2.3100696
H 0.8744689 2.3874958 -0.54387265
H -0.9019143 2.388478 -0.49202234
H 0.03107833 2.337256 1.0174344
H 0.8142943 0.90900165 -2.7537193
H -0.08289833 -0.5284554 -3.250702
H -0.9496966 0.9114287 -2.7087724
H -0.035356194 -2.447248 -1.3432451
H 0.032992166 -2.4230735 1.3836836
H 0.07706431 -0.31582224 2.9873557
