title
 OpenBabel02282109573D

 17 17  0  0  0  0  0  0  0  0999 V2000
   -0.1220    1.9872    0.0118 C   0  0  0  0  0  0  0  0  0  0  0  0
   -0.0050    0.5456    0.0031 N   0  0  0  0  0  0  0  0  0  0  0  0
    0.0244   -0.2519   -1.1261 C   0  0  0  0  0  0  0  0  0  0  0  0
   -0.0565    0.3526   -2.4017 N   0  0  0  0  0  0  0  0  0  0  0  0
    0.0520   -1.5661   -0.7219 C   0  0  0  0  0  0  0  0  0  0  0  0
    0.0602   -1.5739    0.7041 C   0  0  0  0  0  0  0  0  0  0  0  0
    0.0373   -0.2642    1.1227 C   0  0  0  0  0  0  0  0  0  0  0  0
   -0.0296    0.3260    2.4058 N   0  0  0  0  0  0  0  0  0  0  0  0
    0.8576    2.4834    0.0118 H   0  0  0  0  0  0  0  0  0  0  0  0
   -0.6655    2.2996   -0.8817 H   0  0  0  0  0  0  0  0  0  0  0  0
   -0.6604    2.2895    0.9119 H   0  0  0  0  0  0  0  0  0  0  0  0
    0.8477    0.6733   -2.7395 H   0  0  0  0  0  0  0  0  0  0  0  0
   -0.4138   -0.3106   -3.0785 H   0  0  0  0  0  0  0  0  0  0  0  0
    0.0804   -2.4241   -1.3768 H   0  0  0  0  0  0  0  0  0  0  0  0
    0.0961   -2.4390    1.3493 H   0  0  0  0  0  0  0  0  0  0  0  0
   -0.3716   -0.3473    3.0805 H   0  0  0  0  0  0  0  0  0  0  0  0
    0.8767    0.6506    2.7337 H   0  0  0  0  0  0  0  0  0  0  0  0
  1  9  1  0  0  0  0
  1 11  1  0  0  0  0
  2  1  1  0  0  0  0
  2  7  1  0  0  0  0
  3  5  2  0  0  0  0
  3  2  1  0  0  0  0
  4  3  1  0  0  0  0
  5  6  1  0  0  0  0
  6  7  2  0  0  0  0
  6 15  1  0  0  0  0
  7  8  1  0  0  0  0
  8 17  1  0  0  0  0
  8 16  1  0  0  0  0
 10  1  1  0  0  0  0
 12  4  1  0  0  0  0
 13  4  1  0  0  0  0
 14  5  1  0  0  0  0
M  END
