16
title
C -0.105469815 1.9909058 0.03272529
N -0.025252739 0.5458701 0.00069594034
C -0.03976214 -0.26102093 -1.1398134
N -0.1609094 0.34883848 -2.4103281
C 0.042413123 -1.5670468 -0.72507274
C 0.11123535 -1.5779411 0.70245624
C 0.07231671 -0.2623723 1.0959305
O 0.11170791 0.3443779 2.3143892
H 0.83451027 2.435209 0.37762278
H -0.31524244 2.3297741 -0.98187065
H -0.9049994 2.3157692 0.7044246
H 0.70433986 0.31607822 -2.9403126
H -0.8783618 -0.09763643 -2.9693272
H 0.053628035 -2.4299989 -1.3739041
H 0.18472862 -2.4379566 1.3502314
H 0.17325336 -0.3416855 2.9853864
