title
 OpenBabel02282109573D

 16 16  0  0  0  0  0  0  0  0999 V2000
   -0.1055    1.9909    0.0327 C   0  0  0  0  0  0  0  0  0  0  0  0
   -0.0253    0.5459    0.0007 N   0  0  0  0  0  0  0  0  0  0  0  0
   -0.0398   -0.2610   -1.1398 C   0  0  0  0  0  0  0  0  0  0  0  0
   -0.1609    0.3488   -2.4103 N   0  0  0  0  0  0  0  0  0  0  0  0
    0.0424   -1.5670   -0.7251 C   0  0  0  0  0  0  0  0  0  0  0  0
    0.1112   -1.5779    0.7025 C   0  0  0  0  0  0  0  0  0  0  0  0
    0.0723   -0.2624    1.0959 C   0  0  0  0  0  0  0  0  0  0  0  0
    0.1117    0.3444    2.3144 O   0  0  0  0  0  0  0  0  0  0  0  0
    0.8345    2.4352    0.3776 H   0  0  0  0  0  0  0  0  0  0  0  0
   -0.3152    2.3298   -0.9819 H   0  0  0  0  0  0  0  0  0  0  0  0
   -0.9050    2.3158    0.7044 H   0  0  0  0  0  0  0  0  0  0  0  0
    0.7043    0.3161   -2.9403 H   0  0  0  0  0  0  0  0  0  0  0  0
   -0.8784   -0.0976   -2.9693 H   0  0  0  0  0  0  0  0  0  0  0  0
    0.0536   -2.4300   -1.3739 H   0  0  0  0  0  0  0  0  0  0  0  0
    0.1847   -2.4380    1.3502 H   0  0  0  0  0  0  0  0  0  0  0  0
    0.1733   -0.3417    2.9854 H   0  0  0  0  0  0  0  0  0  0  0  0
  1  9  1  0  0  0  0
  1 11  1  0  0  0  0
  2  1  1  0  0  0  0
  2  7  1  0  0  0  0
  3  5  2  0  0  0  0
  3  2  1  0  0  0  0
  4  3  1  0  0  0  0
  5  6  1  0  0  0  0
  6  7  2  0  0  0  0
  6 15  1  0  0  0  0
  7  8  1  0  0  0  0
  8 16  1  0  0  0  0
 10  1  1  0  0  0  0
 12  4  1  0  0  0  0
 13  4  1  0  0  0  0
 14  5  1  0  0  0  0
M  END
