title
 OpenBabel02282109573D

 14 14  0  0  0  0  0  0  0  0999 V2000
   -0.1083    2.0260    0.0189 C   0  0  0  0  0  0  0  0  0  0  0  0
   -0.0250    0.5796   -0.0011 N   0  0  0  0  0  0  0  0  0  0  0  0
   -0.0801   -0.2436   -1.1154 C   0  0  0  0  0  0  0  0  0  0  0  0
   -0.2100    0.3606   -2.3246 O   0  0  0  0  0  0  0  0  0  0  0  0
    0.0206   -1.5263   -0.6705 C   0  0  0  0  0  0  0  0  0  0  0  0
    0.1368   -1.5278    0.7227 N   0  0  0  0  0  0  0  0  0  0  0  0
    0.1015   -0.2746    1.0586 C   0  0  0  0  0  0  0  0  0  0  0  0
    0.1783    0.2369    2.3044 O   0  0  0  0  0  0  0  0  0  0  0  0
    0.2111    2.3754    1.0008 H   0  0  0  0  0  0  0  0  0  0  0  0
    0.5461    2.4479   -0.7475 H   0  0  0  0  0  0  0  0  0  0  0  0
   -1.1312    2.3694   -0.1673 H   0  0  0  0  0  0  0  0  0  0  0  0
   -0.1888   -0.3186   -3.0055 H   0  0  0  0  0  0  0  0  0  0  0  0
    0.0201   -2.4413   -1.2408 H   0  0  0  0  0  0  0  0  0  0  0  0
    0.2833   -0.5207    2.8933 H   0  0  0  0  0  0  0  0  0  0  0  0
  1  9  1  0  0  0  0
  2  1  1  0  0  0  0
  2  7  1  0  0  0  0
  3  5  2  0  0  0  0
  3  2  1  0  0  0  0
  4  3  1  0  0  0  0
  5  6  1  0  0  0  0
  6  7  2  0  0  0  0
  7  8  1  0  0  0  0
  8 14  1  0  0  0  0
 10  1  1  0  0  0  0
 11  1  1  0  0  0  0
 12  4  1  0  0  0  0
 13  5  1  0  0  0  0
M  END
