14
title
C -0.10827193 2.0260024 0.018934652
N -0.025046712 0.57959926 -0.0010758827
C -0.08011465 -0.24358186 -1.1153663
O -0.21003167 0.3606403 -2.3246279
C 0.02056543 -1.5262731 -0.6705411
N 0.13677377 -1.5278279 0.7227395
C 0.101506695 -0.27458313 1.058596
O 0.1783456 0.23688766 2.3044422
H 0.21113642 2.3753965 1.0008328
H 0.5460819 2.4479291 -0.7474541
H -1.1312172 2.3693647 -0.16732246
H -0.18881327 -0.31856045 -3.0055032
H 0.020055631 -2.441332 -1.2408402
H 0.28331974 -0.5206758 2.8933463
