19
title
C -0.03515304 2.407819 -0.5193664
N -0.008805018 0.96252346 -0.53265804
C 0.023722338 0.18165927 -1.6621224
C 0.0412212 -1.1340165 -1.2745788
C 0.018598078 -1.1662216 0.15148792
C 0.02747549 -2.404685 0.99796593
C -0.012196355 0.14727627 0.5852047
C -0.04507333 0.7258166 1.9618977
H 0.836504 2.8212202 0.00051376317
H -0.024094455 2.7713609 -1.5484176
H -0.93841916 2.7892299 -0.029851047
H 0.031240812 0.6365513 -2.6403456
H 0.0673555 -1.9888232 -1.9340878
H 0.9225118 -3.0123878 0.81752896
H 0.0053366143 -2.170995 2.0662293
H -0.8379459 -3.044971 0.7881745
H 0.82270813 1.3658049 2.1694832
H -0.94149965 1.3342448 2.1405995
H -0.04290931 -0.07284113 2.7063155
