title
 OpenBabel02282109573D

 19 19  0  0  0  0  0  0  0  0999 V2000
   -0.0352    2.4078   -0.5194 C   0  0  0  0  0  0  0  0  0  0  0  0
   -0.0088    0.9625   -0.5327 N   0  0  0  0  0  0  0  0  0  0  0  0
    0.0237    0.1817   -1.6621 C   0  0  0  0  0  0  0  0  0  0  0  0
    0.0412   -1.1340   -1.2746 C   0  0  0  0  0  0  0  0  0  0  0  0
    0.0186   -1.1662    0.1515 C   0  0  0  0  0  0  0  0  0  0  0  0
    0.0275   -2.4047    0.9980 C   0  0  0  0  0  0  0  0  0  0  0  0
   -0.0122    0.1473    0.5852 C   0  0  0  0  0  0  0  0  0  0  0  0
   -0.0451    0.7258    1.9619 C   0  0  0  0  0  0  0  0  0  0  0  0
    0.8365    2.8212    0.0005 H   0  0  0  0  0  0  0  0  0  0  0  0
   -0.0241    2.7714   -1.5484 H   0  0  0  0  0  0  0  0  0  0  0  0
   -0.9384    2.7892   -0.0299 H   0  0  0  0  0  0  0  0  0  0  0  0
    0.0312    0.6366   -2.6403 H   0  0  0  0  0  0  0  0  0  0  0  0
    0.0674   -1.9888   -1.9341 H   0  0  0  0  0  0  0  0  0  0  0  0
    0.9225   -3.0124    0.8175 H   0  0  0  0  0  0  0  0  0  0  0  0
    0.0053   -2.1710    2.0662 H   0  0  0  0  0  0  0  0  0  0  0  0
   -0.8379   -3.0450    0.7882 H   0  0  0  0  0  0  0  0  0  0  0  0
    0.8227    1.3658    2.1695 H   0  0  0  0  0  0  0  0  0  0  0  0
   -0.9415    1.3342    2.1406 H   0  0  0  0  0  0  0  0  0  0  0  0
   -0.0429   -0.0728    2.7063 H   0  0  0  0  0  0  0  0  0  0  0  0
  1 11  1  0  0  0  0
  1  9  1  0  0  0  0
  2  1  1  0  0  0  0
  2  7  1  0  0  0  0
  3  4  2  0  0  0  0
  3  2  1  0  0  0  0
  4  5  1  0  0  0  0
  5  7  2  0  0  0  0
  5  6  1  0  0  0  0
  6 15  1  0  0  0  0
  7  8  1  0  0  0  0
  8 18  1  0  0  0  0
  8 17  1  0  0  0  0
  8 19  1  0  0  0  0
 10  1  1  0  0  0  0
 12  3  1  0  0  0  0
 13  4  1  0  0  0  0
 14  6  1  0  0  0  0
 16  6  1  0  0  0  0
M  END
