title
 OpenBabel02282109573D

 17 17  0  0  0  0  0  0  0  0999 V2000
   -0.0794    2.4184   -0.5556 C   0  0  0  0  0  0  0  0  0  0  0  0
   -0.0396    0.9741   -0.5541 N   0  0  0  0  0  0  0  0  0  0  0  0
   -0.0428    0.1813   -1.6687 C   0  0  0  0  0  0  0  0  0  0  0  0
    0.0027   -1.1375   -1.2718 C   0  0  0  0  0  0  0  0  0  0  0  0
    0.0346   -1.1276    0.1478 C   0  0  0  0  0  0  0  0  0  0  0  0
    0.0835   -2.1979    1.0022 O   0  0  0  0  0  0  0  0  0  0  0  0
    0.0082    0.1805    0.5831 C   0  0  0  0  0  0  0  0  0  0  0  0
    0.0246    0.7235    1.9710 C   0  0  0  0  0  0  0  0  0  0  0  0
    0.8085    2.8438   -0.0745 H   0  0  0  0  0  0  0  0  0  0  0  0
   -0.1132    2.7698   -1.5884 H   0  0  0  0  0  0  0  0  0  0  0  0
   -0.9660    2.7948   -0.0332 H   0  0  0  0  0  0  0  0  0  0  0  0
   -0.0773    0.6186   -2.6541 H   0  0  0  0  0  0  0  0  0  0  0  0
    0.0119   -2.0009   -1.9205 H   0  0  0  0  0  0  0  0  0  0  0  0
    0.0942   -3.0021    0.4771 H   0  0  0  0  0  0  0  0  0  0  0  0
    0.8957    1.3625    2.1684 H   0  0  0  0  0  0  0  0  0  0  0  0
   -0.8697    1.3152    2.2078 H   0  0  0  0  0  0  0  0  0  0  0  0
    0.0627   -0.1114    2.6743 H   0  0  0  0  0  0  0  0  0  0  0  0
  1  2  1  0  0  0  0
  1  9  1  0  0  0  0
  1 11  1  0  0  0  0
  2  7  1  0  0  0  0
  3  4  2  0  0  0  0
  3  2  1  0  0  0  0
  4  5  1  0  0  0  0
  5  7  2  0  0  0  0
  5  6  1  0  0  0  0
  7  8  1  0  0  0  0
  8 15  1  0  0  0  0
  8 16  1  0  0  0  0
  8 17  1  0  0  0  0
 10  1  1  0  0  0  0
 12  3  1  0  0  0  0
 13  4  1  0  0  0  0
 14  6  1  0  0  0  0
M  END
