17
title
C -0.07938918 2.4183617 -0.55560386
N -0.039555926 0.97414404 -0.5541288
C -0.04283521 0.18132277 -1.668698
C 0.0026884389 -1.1375164 -1.2717712
C 0.03455677 -1.1275953 0.14780445
O 0.08349392 -2.19789 1.0021975
C 0.008154322 0.18046768 0.58305305
C 0.024603637 0.72351223 1.9709964
H 0.80846304 2.8437574 -0.07449376
H -0.11316079 2.769786 -1.5884407
H -0.96597975 2.7947853 -0.033156563
H -0.07726018 0.6185593 -2.6540647
H 0.011881181 -2.0008802 -1.9205353
H 0.09415676 -3.002145 0.4770884
H 0.8956802 1.3625175 2.1683834
H -0.86973625 1.3152441 2.2077558
H 0.06265204 -0.111393616 2.6743019
