title
 OpenBabel02282109573D

 15 15  0  0  0  0  0  0  0  0999 V2000
   -0.2210    2.4115   -0.5360 C   0  0  0  0  0  0  0  0  0  0  0  0
   -0.0389    0.9765   -0.5612 N   0  0  0  0  0  0  0  0  0  0  0  0
    0.0781    0.1802   -1.6869 C   0  0  0  0  0  0  0  0  0  0  0  0
    0.1698   -1.1323   -1.2896 C   0  0  0  0  0  0  0  0  0  0  0  0
    0.0860   -1.1402    0.1331 C   0  0  0  0  0  0  0  0  0  0  0  0
    0.1980   -2.1861    1.0293 O   0  0  0  0  0  0  0  0  0  0  0  0
   -0.0470    0.1654    0.5394 C   0  0  0  0  0  0  0  0  0  0  0  0
   -0.1532    0.7064    1.7806 O   0  0  0  0  0  0  0  0  0  0  0  0
    0.1718    2.8352   -1.4625 H   0  0  0  0  0  0  0  0  0  0  0  0
   -1.2777    2.6885   -0.4410 H   0  0  0  0  0  0  0  0  0  0  0  0
    0.3243    2.8402    0.3077 H   0  0  0  0  0  0  0  0  0  0  0  0
    0.0898    0.6279   -2.6670 H   0  0  0  0  0  0  0  0  0  0  0  0
    0.2974   -1.9882   -1.9342 H   0  0  0  0  0  0  0  0  0  0  0  0
   -0.4886   -2.8327    0.8365 H   0  0  0  0  0  0  0  0  0  0  0  0
   -0.0732   -0.0287    2.4005 H   0  0  0  0  0  0  0  0  0  0  0  0
  1 10  1  0  0  0  0
  1 11  1  0  0  0  0
  2  1  1  0  0  0  0
  2  7  1  0  0  0  0
  3  4  2  0  0  0  0
  3  2  1  0  0  0  0
  4  5  1  0  0  0  0
  5  7  2  0  0  0  0
  5  6  1  0  0  0  0
  7  8  1  0  0  0  0
  8 15  1  0  0  0  0
  9  1  1  0  0  0  0
 12  3  1  0  0  0  0
 13  4  1  0  0  0  0
 14  6  1  0  0  0  0
M  END
