18
title
C -0.036204364 2.42366 -0.5133386
N -0.0066827713 0.9777601 -0.49894702
C 0.03982405 0.15666474 -1.5867081
N 0.05700555 -1.1105542 -1.2540332
C 0.019934906 -1.1287968 0.12575413
C 0.026412105 -2.423365 0.8740214
C -0.020049382 0.15598907 0.61981726
C -0.06900285 0.70331645 2.0063655
H 0.8298301 2.8445907 0.008269974
H -0.015179916 2.7666132 -1.5495818
H -0.94589674 2.8078547 -0.039916895
H 0.05893868 0.5522496 -2.5925102
H 0.9258937 -3.0052814 0.644609
H -0.0067101335 -2.2668812 1.9556825
H -0.8339332 -3.0421147 0.5960423
H 0.7951089 1.3400168 2.2361698
H -0.9698115 1.3036127 2.1882265
H -0.0717863 -0.114483945 2.7298627
