17
title
C 0.03859307 2.4286773 -0.5383178
N 0.012040612 0.9838593 -0.5104859
C -0.033269893 0.15601395 -1.5869082
N -0.040601194 -1.1141276 -1.2410511
C -0.0081220865 -1.1102307 0.13041767
N -0.058247745 -2.3113768 0.86060137
C 0.015057812 0.17561977 0.62348086
C 0.021572836 0.69801164 2.0183492
H 0.9412356 2.8181577 -0.05563519
H 0.029962618 2.7617517 -1.5779989
H -0.8349866 2.8526847 -0.031748153
H -0.0562259 0.53740627 -2.5974119
H -0.031632435 -3.0921192 0.21526054
H 0.71059626 -2.4054031 1.5136454
H 0.9823584 1.1407874 2.315517
H -0.7493762 1.4614505 2.1823096
H -0.18878576 -0.12512149 2.7066555
