title
 OpenBabel02282109573D

 16 16  0  0  1  0  0  0  0  0999 V2000
   -0.0793    2.4335   -0.5465 C   0  0  0  0  0  0  0  0  0  0  0  0
   -0.0380    0.9885   -0.5153 N   0  0  0  0  0  0  0  0  0  0  0  0
   -0.0324    0.1582   -1.5889 C   0  0  0  0  0  0  0  0  0  0  0  0
    0.0104   -1.1126   -1.2357 N   0  0  0  0  0  0  0  0  0  0  0  0
    0.0337   -1.0900    0.1267 C   0  0  0  0  0  0  0  0  0  0  0  0
    0.0795   -2.2316    0.8563 O   0  0  0  0  0  0  0  0  0  0  0  0
    0.0054    0.1892    0.6266 C   0  0  2  0  0  0  0  0  0  0  0  0
    0.0148    0.7107    2.0209 C   0  0  0  0  0  0  0  0  0  0  0  0
    0.8084    2.8650   -0.0722 H   0  0  0  0  0  0  0  0  0  0  0  0
   -0.1122    2.7630   -1.5868 H   0  0  0  0  0  0  0  0  0  0  0  0
   -0.9675    2.8146   -0.0320 H   0  0  0  0  0  0  0  0  0  0  0  0
   -0.0611    0.5327   -2.6014 H   0  0  0  0  0  0  0  0  0  0  0  0
    0.0891   -2.9546    0.2180 H   0  0  0  0  0  0  0  0  0  0  0  0
    0.8851    1.3460    2.2316 H   0  0  0  0  0  0  0  0  0  0  0  0
   -0.8819    1.2965    2.2620 H   0  0  0  0  0  0  0  0  0  0  0  0
    0.0504   -0.1351    2.7113 H   0  0  0  0  0  0  0  0  0  0  0  0
  1  2  1  0  0  0  0
  1  9  1  0  0  0  0
  1 11  1  0  0  0  0
  2  7  1  0  0  0  0
  3  4  1  0  0  0  0
  3  2  1  0  0  0  0
  4  5  2  0  0  0  0
  5  7  1  0  0  0  0
  5  6  1  0  0  0  0
  7  8  1  1  0  0  0
  8 14  1  0  0  0  0
  8 15  1  0  0  0  0
  8 16  1  0  0  0  0
 10  1  1  0  0  0  0
 12  3  1  0  0  0  0
 13  6  1  0  0  0  0
M  RAD  2   3   2   7   2
M  END
