16
title
C -0.0792701 2.4334617 -0.5465494
N -0.03795856 0.9885246 -0.5153238
C -0.032439865 0.15824105 -1.588914
N 0.010350836 -1.1125568 -1.2356758
C 0.033701256 -1.0900484 0.12668538
O 0.079477236 -2.2315688 0.85626674
C 0.0054160743 0.18915655 0.62661755
C 0.014841134 0.7106516 2.0208535
H 0.80835015 2.8649566 -0.07220134
H -0.11220052 2.7629569 -1.5868285
H -0.96749556 2.8146012 -0.032038096
H -0.06105544 0.5326674 -2.6014302
H 0.08907747 -2.9546301 0.21801752
H 0.8850771 1.3460354 2.2316027
H -0.8818665 1.2964823 2.2620022
H 0.050429024 -0.13507031 2.7113304
