14
title
C -0.1399233 2.4212973 -0.55425984
N -0.09560793 0.9748129 -0.53675175
C -0.20274746 0.11734944 -1.5956392
N -0.118717626 -1.1430904 -1.2180773
C 0.049017623 -1.105354 0.1337374
O 0.17829093 -2.2191403 0.9074921
C 0.06719756 0.1875335 0.5825313
O 0.20249009 0.7740668 1.802336
H 0.7911121 2.8446875 -0.16604851
H -0.27821022 2.752349 -1.5848902
H -0.9697795 2.7934098 0.05374183
H -0.33928686 0.4733216 -2.6047885
H 0.1249135 -2.972022 0.3077751
H 0.304089 0.06961291 2.451241
