title
 OpenBabel02282109573D

 13 13  0  0  0  0  0  0  0  0999 V2000
   -1.5728   -2.7956    0.2436 C   0  0  0  0  0  0  0  0  0  0  0  0
   -1.5676   -1.6048    0.0897 C   0  0  0  0  0  0  0  0  0  0  0  0
   -1.5600   -0.1535   -0.0935 C   0  0  0  0  0  0  0  0  0  0  0  0
   -0.1893    0.4371   -0.1680 C   0  0  0  0  0  0  0  0  0  0  0  0
    0.5096    1.1048   -1.1173 C   0  0  0  0  0  0  0  0  0  0  0  0
    1.7649    1.4399   -0.6211 N   0  0  0  0  0  0  0  0  0  0  0  0
    1.7601    0.9651    0.5796 C   0  0  0  0  0  0  0  0  0  0  0  0
    0.6131    0.3424    0.9385 O   0  0  0  0  0  0  0  0  0  0  0  0
   -1.5752   -3.8488    0.3789 H   0  0  0  0  0  0  0  0  0  0  0  0
   -2.0854    0.1081   -1.0190 H   0  0  0  0  0  0  0  0  0  0  0  0
   -2.1226    0.3187    0.7234 H   0  0  0  0  0  0  0  0  0  0  0  0
    0.2050    1.3668   -2.1182 H   0  0  0  0  0  0  0  0  0  0  0  0
    2.5425    1.0024    1.3212 H   0  0  0  0  0  0  0  0  0  0  0  0
  1  9  1  0  0  0  0
  2  1  3  0  0  0  0
  3  2  1  0  0  0  0
  3 11  1  0  0  0  0
  4  3  1  0  0  0  0
  4  8  1  0  0  0  0
  5  6  1  0  0  0  0
  5  4  2  0  0  0  0
  6  7  2  0  0  0  0
  7  8  1  0  0  0  0
  7 13  1  0  0  0  0
 10  3  1  0  0  0  0
 12  5  1  0  0  0  0
M  END
