14
title
N -1.7283653 -2.4189668 -0.9425321
C -1.63491 -1.4594806 -0.3052465
C -1.4880472 -0.21250962 0.45058718
C -0.10150284 0.36028612 0.36102188
C 0.63706166 1.0532607 1.2931865
C 1.8627894 1.426874 0.675059
C 1.835702 0.94621956 -0.61261266
N 0.63551 0.308172 -0.796648
H -2.2470076 0.48996603 0.077164784
H -1.7342023 -0.40257478 1.5000259
H 0.32713002 1.271541 2.3040438
H 2.6703515 1.9812268 1.1272098
H 2.5646052 0.99336374 -1.4052695
H 0.36583632 -0.19975375 -1.6227493
