title
 OpenBabel02282109573D

 13 13  0  0  0  0  0  0  0  0999 V2000
   -1.6714   -2.5371   -0.8046 N   0  0  0  0  0  0  0  0  0  0  0  0
   -1.6099   -1.5317   -0.2386 C   0  0  0  0  0  0  0  0  0  0  0  0
   -1.5039   -0.2291    0.4253 C   0  0  0  0  0  0  0  0  0  0  0  0
   -0.1308    0.3654    0.3175 C   0  0  0  0  0  0  0  0  0  0  0  0
    0.6296    1.0794    1.2068 C   0  0  0  0  0  0  0  0  0  0  0  0
    1.8167    1.4682    0.6325 N   0  0  0  0  0  0  0  0  0  0  0  0
    1.7816    0.9918   -0.5898 C   0  0  0  0  0  0  0  0  0  0  0  0
    0.6204    0.3216   -0.8386 N   0  0  0  0  0  0  0  0  0  0  0  0
   -2.2675    0.4293   -0.0122 H   0  0  0  0  0  0  0  0  0  0  0  0
   -1.7636   -0.3438    1.4824 H   0  0  0  0  0  0  0  0  0  0  0  0
    0.3845    1.3356    2.2269 H   0  0  0  0  0  0  0  0  0  0  0  0
    2.5572    1.0926   -1.3341 H   0  0  0  0  0  0  0  0  0  0  0  0
    0.3819   -0.1821   -1.6782 H   0  0  0  0  0  0  0  0  0  0  0  0
  1  2  3  0  0  0  0
  2  3  1  0  0  0  0
  3 10  1  0  0  0  0
  4  3  1  0  0  0  0
  4  5  2  0  0  0  0
  5 11  1  0  0  0  0
  6  5  1  0  0  0  0
  7  6  2  0  0  0  0
  8  7  1  0  0  0  0
  8  4  1  0  0  0  0
  9  3  1  0  0  0  0
 12  7  1  0  0  0  0
 13  8  1  0  0  0  0
M  END
