12
title
N -1.5785382 -2.7026637 0.4254778
C -1.561861 -1.5727046 0.18846478
C -1.5439094 -0.13552052 -0.10984901
C -0.16707522 0.43198937 -0.20794034
C 0.56195813 0.9928872 -1.2020725
N 1.8040813 1.3688298 -0.70549226
C 1.7629083 1.0198511 0.53712624
O 0.600462 0.4449106 0.9256026
H -2.0600986 0.03344279 -1.0600187
H -2.12204 0.3838622 0.6644893
H 0.28819245 1.1527575 -2.2329435
H 2.5250974 1.1271173 1.2925936
