title
 OpenBabel02282109573D

 12 12  0  0  0  0  0  0  0  0999 V2000
   -1.6103   -2.6563    0.3792 N   0  0  0  0  0  0  0  0  0  0  0  0
   -1.5585   -1.5301    0.1305 C   0  0  0  0  0  0  0  0  0  0  0  0
   -1.5023   -0.0993   -0.1807 C   0  0  0  0  0  0  0  0  0  0  0  0
   -0.1098    0.4488   -0.1949 C   0  0  0  0  0  0  0  0  0  0  0  0
    0.4899    1.0466   -1.1722 N   0  0  0  0  0  0  0  0  0  0  0  0
    1.7398    1.3741   -0.6578 C   0  0  0  0  0  0  0  0  0  0  0  0
    1.8174    0.9422    0.6215 C   0  0  0  0  0  0  0  0  0  0  0  0
    0.6280    0.3444    0.9352 O   0  0  0  0  0  0  0  0  0  0  0  0
   -1.9338    0.0779   -1.1690 H   0  0  0  0  0  0  0  0  0  0  0  0
   -2.1172    0.4387    0.5512 H   0  0  0  0  0  0  0  0  0  0  0  0
    2.4798    1.8897   -1.2480 H   0  0  0  0  0  0  0  0  0  0  0  0
    2.5639    0.9628    1.3961 H   0  0  0  0  0  0  0  0  0  0  0  0
  2  1  3  0  0  0  0
  3  2  1  0  0  0  0
  3 10  1  0  0  0  0
  4  3  1  0  0  0  0
  4  8  1  0  0  0  0
  5  6  1  0  0  0  0
  5  4  2  0  0  0  0
  6  7  2  0  0  0  0
  7  8  1  0  0  0  0
  7 12  1  0  0  0  0
  9  3  1  0  0  0  0
 11  6  1  0  0  0  0
M  END
