title
 OpenBabel02282109573D

 15 15  0  0  0  0  0  0  0  0999 V2000
   -1.8981   -2.5066    0.9223 C   0  0  0  0  0  0  0  0  0  0  0  0
   -1.6752   -1.5545    0.2234 C   0  0  0  0  0  0  0  0  0  0  0  0
   -1.4017   -0.3975   -0.6240 C   0  0  0  0  0  0  0  0  0  0  0  0
   -0.0920    0.2917   -0.3262 C   0  0  0  0  0  0  0  0  0  0  0  0
    0.8303   -0.0573    0.6324 C   0  0  0  0  0  0  0  0  0  0  0  0
    1.8716    0.8340    0.5609 N   0  0  0  0  0  0  0  0  0  0  0  0
    1.6316    1.7505   -0.4300 C   0  0  0  0  0  0  0  0  0  0  0  0
    0.4199    1.4408   -0.9997 C   0  0  0  0  0  0  0  0  0  0  0  0
   -2.1046   -3.3491    1.5342 H   0  0  0  0  0  0  0  0  0  0  0  0
   -1.4236   -0.7173   -1.6755 H   0  0  0  0  0  0  0  0  0  0  0  0
   -2.2304    0.3177   -0.5227 H   0  0  0  0  0  0  0  0  0  0  0  0
    0.8208   -0.8619    1.3485 H   0  0  0  0  0  0  0  0  0  0  0  0
    2.6864    0.8156    1.1477 H   0  0  0  0  0  0  0  0  0  0  0  0
    2.3362    2.5380   -0.6442 H   0  0  0  0  0  0  0  0  0  0  0  0
   -0.0531    1.9750   -1.8104 H   0  0  0  0  0  0  0  0  0  0  0  0
  1  9  1  0  0  0  0
  2  1  3  0  0  0  0
  3 11  1  0  0  0  0
  3  4  1  0  0  0  0
  3  2  1  0  0  0  0
  4  5  2  0  0  0  0
  5 12  1  0  0  0  0
  6  5  1  0  0  0  0
  6 13  1  0  0  0  0
  7  6  1  0  0  0  0
  8  7  2  0  0  0  0
  8  4  1  0  0  0  0
 10  3  1  0  0  0  0
 14  7  1  0  0  0  0
 15  8  1  0  0  0  0
M  END
