15
title
C -1.8981261 -2.5065796 0.9222751
C -1.6752266 -1.5544598 0.2233641
C -1.4017439 -0.39754176 -0.62395537
C -0.09202529 0.2916999 -0.32623327
C 0.8303275 -0.057252772 0.63240397
N 1.8716004 0.8340026 0.5608571
C 1.6316469 1.7504908 -0.42995808
C 0.41986156 1.4408022 -0.99974006
H -2.1045902 -3.349123 1.5342064
H -1.4236224 -0.7172523 -1.6754544
H -2.230351 0.3176577 -0.5226715
H 0.8207612 -0.8619372 1.3485245
H 2.6864188 0.81555855 1.1477365
H 2.3361976 2.5379612 -0.64417726
H -0.053103697 1.974974 -1.8103681
