title
 OpenBabel02282109573D

 14 14  0  0  0  0  0  0  0  0999 V2000
   -1.6750   -2.8038   -0.3780 C   0  0  0  0  0  0  0  0  0  0  0  0
   -1.6252   -1.6414   -0.0784 C   0  0  0  0  0  0  0  0  0  0  0  0
   -1.5601   -0.2230    0.2707 C   0  0  0  0  0  0  0  0  0  0  0  0
   -0.1818    0.3696    0.1281 C   0  0  0  0  0  0  0  0  0  0  0  0
    0.5177    1.0463    1.0768 C   0  0  0  0  0  0  0  0  0  0  0  0
    1.7179    1.4608    0.5908 O   0  0  0  0  0  0  0  0  0  0  0  0
    1.7853    1.0350   -0.6985 C   0  0  0  0  0  0  0  0  0  0  0  0
    0.6572    0.3633   -1.0394 C   0  0  0  0  0  0  0  0  0  0  0  0
   -1.7187   -3.8330   -0.6349 H   0  0  0  0  0  0  0  0  0  0  0  0
   -2.2693    0.3281   -0.3627 H   0  0  0  0  0  0  0  0  0  0  0  0
   -1.9097   -0.0841    1.3008 H   0  0  0  0  0  0  0  0  0  0  0  0
    0.3092    1.3054    2.1020 H   0  0  0  0  0  0  0  0  0  0  0  0
    2.6905    1.2856   -1.2264 H   0  0  0  0  0  0  0  0  0  0  0  0
    0.4388   -0.0949   -1.9912 H   0  0  0  0  0  0  0  0  0  0  0  0
  1  2  3  0  0  0  0
  2  3  1  0  0  0  0
  3 11  1  0  0  0  0
  4  3  1  0  0  0  0
  4  5  2  0  0  0  0
  5 12  1  0  0  0  0
  6  5  1  0  0  0  0
  7  6  1  0  0  0  0
  8  7  2  0  0  0  0
  8  4  1  0  0  0  0
  9  1  1  0  0  0  0
 10  3  1  0  0  0  0
 13  7  1  0  0  0  0
 14  8  1  0  0  0  0
M  END
