title
 OpenBabel02282109573D

 14 14  0  0  0  0  0  0  0  0999 V2000
   -1.7224   -2.6575   -0.5405 N   0  0  0  0  0  0  0  0  0  0  0  0
   -1.6464   -1.5530   -0.2096 C   0  0  0  0  0  0  0  0  0  0  0  0
   -1.5502   -0.1473    0.2011 C   0  0  0  0  0  0  0  0  0  0  0  0
   -0.1478    0.3989    0.1367 C   0  0  0  0  0  0  0  0  0  0  0  0
    0.5873    0.8539    1.2079 C   0  0  0  0  0  0  0  0  0  0  0  0
    1.7990    1.2818    0.7328 N   0  0  0  0  0  0  0  0  0  0  0  0
    1.8542    1.1057   -0.6262 C   0  0  0  0  0  0  0  0  0  0  0  0
    0.6597    0.5593   -1.0275 C   0  0  0  0  0  0  0  0  0  0  0  0
   -2.2291    0.4317   -0.4379 H   0  0  0  0  0  0  0  0  0  0  0  0
   -1.9419   -0.0639    1.2207 H   0  0  0  0  0  0  0  0  0  0  0  0
    0.3454    0.9053    2.2576 H   0  0  0  0  0  0  0  0  0  0  0  0
    2.5368    1.6646    1.2972 H   0  0  0  0  0  0  0  0  0  0  0  0
    2.7323    1.3806   -1.1877 H   0  0  0  0  0  0  0  0  0  0  0  0
    0.3902    0.2928   -2.0380 H   0  0  0  0  0  0  0  0  0  0  0  0
  1  2  3  0  0  0  0
  2  3  1  0  0  0  0
  3 10  1  0  0  0  0
  4  3  1  0  0  0  0
  4  5  2  0  0  0  0
  5 11  1  0  0  0  0
  6  5  1  0  0  0  0
  6 12  1  0  0  0  0
  7  6  1  0  0  0  0
  8  7  2  0  0  0  0
  8  4  1  0  0  0  0
  9  3  1  0  0  0  0
 13  7  1  0  0  0  0
 14  8  1  0  0  0  0
M  END
