title
 OpenBabel02282109573D

 15 15  0  0  0  0  0  0  0  0999 V2000
   -1.5575   -2.7656   -0.0013 C   0  0  0  0  0  0  0  0  0  0  0  0
   -1.5309   -1.5650    0.0059 C   0  0  0  0  0  0  0  0  0  0  0  0
   -1.5069   -0.1015    0.0145 C   0  0  0  0  0  0  0  0  0  0  0  0
   -0.1698    0.4680    0.0046 N   0  0  0  0  0  0  0  0  0  0  0  0
    0.5948    0.7218    1.1187 C   0  0  0  0  0  0  0  0  0  0  0  0
    1.8243    1.1716    0.7004 C   0  0  0  0  0  0  0  0  0  0  0  0
    1.8090    1.1828   -0.7227 C   0  0  0  0  0  0  0  0  0  0  0  0
    0.5707    0.7394   -1.1214 C   0  0  0  0  0  0  0  0  0  0  0  0
   -1.5738   -3.8275   -0.0077 H   0  0  0  0  0  0  0  0  0  0  0  0
   -2.0497    0.2837   -0.8558 H   0  0  0  0  0  0  0  0  0  0  0  0
   -2.0325    0.2731    0.8999 H   0  0  0  0  0  0  0  0  0  0  0  0
    0.1933    0.5579    2.1063 H   0  0  0  0  0  0  0  0  0  0  0  0
    2.6382    1.4715    1.3424 H   0  0  0  0  0  0  0  0  0  0  0  0
    2.6090    1.4929   -1.3773 H   0  0  0  0  0  0  0  0  0  0  0  0
    0.1480    0.5911   -2.1026 H   0  0  0  0  0  0  0  0  0  0  0  0
  1  2  3  0  0  0  0
  2  3  1  0  0  0  0
  3 11  1  0  0  0  0
  4  3  1  0  0  0  0
  4  5  1  0  0  0  0
  5 12  1  0  0  0  0
  6  5  2  0  0  0  0
  6 13  1  0  0  0  0
  7  6  1  0  0  0  0
  8  7  2  0  0  0  0
  8  4  1  0  0  0  0
  9  1  1  0  0  0  0
 10  3  1  0  0  0  0
 14  7  1  0  0  0  0
 15  8  1  0  0  0  0
M  END
