14
title
C -1.5784061 -2.7903173 0.29646665
C -1.5327399 -1.6102811 0.080373175
C -1.4916269 -0.17095053 -0.16653773
N -0.15351734 0.39616632 -0.07640389
C 0.6586226 0.42959237 1.0379642
C 1.7988065 1.0739224 0.6386536
N 1.7133278 1.4380023 -0.68588006
C 0.53571475 1.0155687 -1.0802562
H -1.61316 -3.8360546 0.48006722
H -1.8715955 0.049217694 -1.1695997
H -2.15416 0.34406543 0.5402361
H 0.35129574 -0.008876808 1.9727931
H 2.6754923 1.296696 1.227669
H 0.11707344 1.1241581 -2.070536
