14
title
N -1.5491258 -2.6997602 -0.0018133024
C -1.5181208 -1.5454271 0.0054042074
C -1.4911282 -0.072152145 0.014755582
N -0.15793006 0.48231447 0.0048364154
C 0.6107252 0.727296 1.1216955
C 1.8421181 1.163695 0.70088744
C 1.8268079 1.174992 -0.7231752
C 0.5865813 0.74510396 -1.1242687
H -2.042519 0.29283464 -0.85751784
H -2.0248554 0.28133774 0.9026306
H 0.20795508 0.5685886 2.1095314
H 2.659894 1.454888 1.341656
H 2.6306524 1.4764711 -1.3766872
H 0.1626255 0.6020087 -2.105604
