13
title
N -1.5921599 -2.702062 0.32351634
C -1.5386782 -1.5657278 0.12655848
C -1.4872364 -0.11530912 -0.11131666
N -0.14516304 0.42406833 -0.06451905
C 0.6533911 0.5660573 1.0544738
C 1.8219266 1.1107754 0.59764034
N 1.7683594 1.3077081 -0.764487
C 0.58461976 0.88365877 -1.1284357
H -1.9125987 0.097498536 -1.0963565
H -2.1224875 0.38323557 0.6290887
H 0.31569278 0.26536167 2.032526
H 2.6977222 1.3756231 1.1698157
H 0.1849822 0.8819119 -2.1324704
