14
title
N 2.2176282 0.50969553 -1.0286205
C 2.2411695 -0.38644767 -0.12934549
N 1.09532 -0.8956228 0.45295385
C -0.17863794 -0.3912872 0.21029745
C -1.2109306 -0.8372168 -0.55240303
C -2.2750473 0.10475669 -0.38194135
C -1.8025417 1.0507934 0.4718236
O -0.53190273 0.76706403 0.8488456
H 3.1626945 0.7197531 -1.3405796
H 3.1393597 -0.87078446 0.2747556
H 1.2240783 -1.4942493 1.253495
H -1.2027779 -1.722849 -1.1671507
H -3.2522516 0.08066223 -0.8377157
H -2.2250829 1.9494694 0.8903159
