13
title
N 2.2860744 0.61455804 -0.800611
C 2.2633827 -0.38400236 -0.018225823
N 1.0829567 -0.9377523 0.44514263
C -0.1697411 -0.41204923 0.17279682
C -1.2242572 -0.8280518 -0.56834155
N -2.2622347 0.0851519 -0.45186898
C -1.7857566 0.99718016 0.3333591
O -0.5308396 0.7766232 0.76991326
H 3.2442608 0.85549134 -1.0416458
H 3.135231 -0.9252929 0.369131
H 1.1548102 -1.6674861 1.135473
H -1.3040354 -1.7140887 -1.1772825
H -2.2654366 1.902803 0.6710245
