title
 OpenBabel02282109573D

 13 13  0  0  0  0  0  0  0  0999 V2000
    2.2861    0.6146   -0.8006 N   0  0  0  0  0  0  0  0  0  0  0  0
    2.2634   -0.3840   -0.0182 C   0  0  0  0  0  0  0  0  0  0  0  0
    1.0830   -0.9378    0.4451 N   0  0  0  0  0  0  0  0  0  0  0  0
   -0.1697   -0.4120    0.1728 C   0  0  0  0  0  0  0  0  0  0  0  0
   -1.2243   -0.8281   -0.5683 C   0  0  0  0  0  0  0  0  0  0  0  0
   -2.2622    0.0852   -0.4519 N   0  0  0  0  0  0  0  0  0  0  0  0
   -1.7858    0.9972    0.3334 C   0  0  0  0  0  0  0  0  0  0  0  0
   -0.5308    0.7766    0.7699 O   0  0  0  0  0  0  0  0  0  0  0  0
    3.2443    0.8555   -1.0416 H   0  0  0  0  0  0  0  0  0  0  0  0
    3.1352   -0.9253    0.3691 H   0  0  0  0  0  0  0  0  0  0  0  0
    1.1548   -1.6675    1.1355 H   0  0  0  0  0  0  0  0  0  0  0  0
   -1.3040   -1.7141   -1.1773 H   0  0  0  0  0  0  0  0  0  0  0  0
   -2.2654    1.9028    0.6710 H   0  0  0  0  0  0  0  0  0  0  0  0
  1  2  2  0  0  0  0
  2 10  1  0  0  0  0
  2  3  1  0  0  0  0
  3 11  1  0  0  0  0
  4  3  1  0  0  0  0
  4  8  1  0  0  0  0
  5  6  1  0  0  0  0
  5  4  2  0  0  0  0
  6  7  2  0  0  0  0
  7 13  1  0  0  0  0
  7  8  1  0  0  0  0
  9  1  1  0  0  0  0
 12  5  1  0  0  0  0
M  END
