14
title
N 0.4169483 3.216079 -0.017062284
C 0.20615806 2.027358 -0.3710853
O 0.39938533 1.0234138 0.5301798
C -0.022984913 -0.22456971 0.17768309
C -1.175177 -0.69575566 -0.4029073
C -1.0328916 -2.1150367 -0.47512317
C 0.18283524 -2.4470708 0.067694776
N 0.79851484 -1.2784144 0.4610094
H 0.25662616 3.8452253 -0.8010397
H -0.12006455 1.6557821 -1.348824
H -2.0223396 -0.103788406 -0.70960313
H -1.7566345 -2.808491 -0.8741252
H 0.66143227 -3.4006793 0.21618153
H 1.7014446 -1.187616 0.8935834
