13
title
N 0.46694526 3.2220635 0.04299664
C 0.2468942 2.0447562 -0.33652088
O 0.43229902 1.0203644 0.54945904
C -0.007605563 -0.210184 0.17855212
C -1.1310962 -0.6883184 -0.44118315
N -1.0559872 -2.0629861 -0.5324712
C 0.07870095 -2.3993483 0.02858336
N 0.7658994 -1.3040713 0.4776948
H 0.31496733 3.871804 -0.7256757
H -0.077941544 1.692126 -1.3214725
H -1.981814 -0.13511552 -0.8059305
H 0.45771226 -3.4027982 0.14863402
H 1.6567479 -1.2749938 0.9458158
