title
 OpenBabel02282109573D

 13 13  0  0  0  0  0  0  0  0999 V2000
    0.4669    3.2221    0.0430 N   0  0  0  0  0  0  0  0  0  0  0  0
    0.2469    2.0448   -0.3365 C   0  0  0  0  0  0  0  0  0  0  0  0
    0.4323    1.0204    0.5495 O   0  0  0  0  0  0  0  0  0  0  0  0
   -0.0076   -0.2102    0.1786 C   0  0  0  0  0  0  0  0  0  0  0  0
   -1.1311   -0.6883   -0.4412 C   0  0  0  0  0  0  0  0  0  0  0  0
   -1.0560   -2.0630   -0.5325 N   0  0  0  0  0  0  0  0  0  0  0  0
    0.0787   -2.3993    0.0286 C   0  0  0  0  0  0  0  0  0  0  0  0
    0.7659   -1.3041    0.4777 N   0  0  0  0  0  0  0  0  0  0  0  0
    0.3150    3.8718   -0.7257 H   0  0  0  0  0  0  0  0  0  0  0  0
   -0.0779    1.6921   -1.3215 H   0  0  0  0  0  0  0  0  0  0  0  0
   -1.9818   -0.1351   -0.8059 H   0  0  0  0  0  0  0  0  0  0  0  0
    0.4577   -3.4028    0.1486 H   0  0  0  0  0  0  0  0  0  0  0  0
    1.6567   -1.2750    0.9458 H   0  0  0  0  0  0  0  0  0  0  0  0
  2  1  2  0  0  0  0
  2  3  1  0  0  0  0
  4  8  1  0  0  0  0
  4  3  1  0  0  0  0
  5  4  2  0  0  0  0
  6  5  1  0  0  0  0
  6  7  2  0  0  0  0
  7 12  1  0  0  0  0
  7  8  1  0  0  0  0
  8 13  1  0  0  0  0
  9  1  1  0  0  0  0
 10  2  1  0  0  0  0
 11  5  1  0  0  0  0
M  END
