title
 OpenBabel02282109573D

 12 12  0  0  0  0  0  0  0  0999 V2000
    0.7901    3.1036    0.1780 N   0  0  0  0  0  0  0  0  0  0  0  0
    0.6797    1.9065   -0.1792 C   0  0  0  0  0  0  0  0  0  0  0  0
   -0.3241    1.1490    0.3768 O   0  0  0  0  0  0  0  0  0  0  0  0
   -0.3634   -0.1592    0.0790 C   0  0  0  0  0  0  0  0  0  0  0  0
   -1.3679   -0.9895   -0.2824 C   0  0  0  0  0  0  0  0  0  0  0  0
   -0.8583   -2.2823   -0.3652 N   0  0  0  0  0  0  0  0  0  0  0  0
    0.3893   -2.1625   -0.0640 C   0  0  0  0  0  0  0  0  0  0  0  0
    0.7804   -0.8906    0.2309 O   0  0  0  0  0  0  0  0  0  0  0  0
    1.5574    3.5511   -0.3193 H   0  0  0  0  0  0  0  0  0  0  0  0
    1.2843    1.3491   -0.9000 H   0  0  0  0  0  0  0  0  0  0  0  0
   -2.3996   -0.7546   -0.4814 H   0  0  0  0  0  0  0  0  0  0  0  0
    1.1539   -2.9214   -0.0222 H   0  0  0  0  0  0  0  0  0  0  0  0
  2  1  2  0  0  0  0
  2  3  1  0  0  0  0
  4  8  1  0  0  0  0
  4  3  1  0  0  0  0
  5  4  2  0  0  0  0
  6  5  1  0  0  0  0
  6  7  2  0  0  0  0
  7 12  1  0  0  0  0
  7  8  1  0  0  0  0
  9  1  1  0  0  0  0
 10  2  1  0  0  0  0
 11  5  1  0  0  0  0
M  END
