title
 OpenBabel02282109573D

 13 13  0  0  0  0  0  0  0  0999 V2000
    0.6275    3.1552    0.0096 N   0  0  0  0  0  0  0  0  0  0  0  0
    0.7718    1.9058    0.0030 C   0  0  0  0  0  0  0  0  0  0  0  0
   -0.3592    1.1320    0.0077 O   0  0  0  0  0  0  0  0  0  0  0  0
   -0.1996   -0.2115    0.0005 C   0  0  0  0  0  0  0  0  0  0  0  0
    0.9050   -0.9043   -0.0104 N   0  0  0  0  0  0  0  0  0  0  0  0
    0.4825   -2.2244   -0.0134 C   0  0  0  0  0  0  0  0  0  0  0  0
   -0.8792   -2.2998   -0.0040 C   0  0  0  0  0  0  0  0  0  0  0  0
   -1.3153   -0.9816    0.0050 N   0  0  0  0  0  0  0  0  0  0  0  0
    1.5408    3.6055    0.0048 H   0  0  0  0  0  0  0  0  0  0  0  0
    1.6869    1.3124   -0.0065 H   0  0  0  0  0  0  0  0  0  0  0  0
    1.1954   -3.0338   -0.0220 H   0  0  0  0  0  0  0  0  0  0  0  0
   -1.5689   -3.1260   -0.0028 H   0  0  0  0  0  0  0  0  0  0  0  0
   -2.2628   -0.6439    0.0133 H   0  0  0  0  0  0  0  0  0  0  0  0
  2  3  1  0  0  0  0
  2  1  2  0  0  0  0
  4  8  1  0  0  0  0
  4  3  1  0  0  0  0
  5  4  2  0  0  0  0
  6  5  1  0  0  0  0
  6  7  2  0  0  0  0
  7 12  1  0  0  0  0
  7  8  1  0  0  0  0
  8 13  1  0  0  0  0
  9  1  1  0  0  0  0
 10  2  1  0  0  0  0
 11  6  1  0  0  0  0
M  END
