15
title
O -1.5023177 -1.203866 2.0203328
C -0.8222524 -1.6415279 1.1255968
C 0.5988209 -1.1772527 0.84829414
C 0.5391165 -0.07936006 -0.17213932
C 1.0765481 0.035696693 -1.4363084
C 0.6878581 1.3009408 -1.9566953
C -0.08293786 1.9187 -0.9990726
N -0.16735551 1.0752313 0.077842794
H -1.2297751 -2.375018 0.39561424
H 1.0405952 -0.8360439 1.7918097
H 1.1971716 -2.0016825 0.45054808
H 1.6915187 -0.7057119 -1.9238296
H 0.9486011 1.7114518 -2.9198482
H -0.57360435 2.878617 -0.9925383
H -0.70156926 1.2387083 0.91525155
