title
 OpenBabel02282109573D

 14 14  0  0  0  0  0  0  0  0999 V2000
   -1.4059   -2.1463    1.8818 O   0  0  0  0  0  0  0  0  0  0  0  0
   -0.7867   -1.7400    0.9355 C   0  0  0  0  0  0  0  0  0  0  0  0
    0.4439   -0.8413    1.0379 C   0  0  0  0  0  0  0  0  0  0  0  0
    0.3921    0.2936    0.0742 C   0  0  0  0  0  0  0  0  0  0  0  0
    0.0384    1.6036    0.1835 C   0  0  0  0  0  0  0  0  0  0  0  0
    0.1581    2.1687   -1.1284 C   0  0  0  0  0  0  0  0  0  0  0  0
    0.5682    1.1584   -1.9361 C   0  0  0  0  0  0  0  0  0  0  0  0
    0.7150    0.0086   -1.2222 O   0  0  0  0  0  0  0  0  0  0  0  0
   -1.0759   -1.9987   -0.1072 H   0  0  0  0  0  0  0  0  0  0  0  0
    0.5237   -0.4809    2.0656 H   0  0  0  0  0  0  0  0  0  0  0  0
    1.3227   -1.4655    0.8236 H   0  0  0  0  0  0  0  0  0  0  0  0
   -0.2667    2.1065    1.0878 H   0  0  0  0  0  0  0  0  0  0  0  0
   -0.0333    3.1887   -1.4220 H   0  0  0  0  0  0  0  0  0  0  0  0
    0.7974    1.0880   -2.9864 H   0  0  0  0  0  0  0  0  0  0  0  0
  2  3  1  0  0  0  0
  2  1  2  0  0  0  0
  3 10  1  0  0  0  0
  4  5  2  0  0  0  0
  4  3  1  0  0  0  0
  5 12  1  0  0  0  0
  6  5  1  0  0  0  0
  7  8  1  0  0  0  0
  7  6  2  0  0  0  0
  8  4  1  0  0  0  0
  9  2  1  0  0  0  0
 11  3  1  0  0  0  0
 13  6  1  0  0  0  0
 14  7  1  0  0  0  0
M  END
