14
title
O -1.4059458 -2.14633 1.8817761
C -0.7866631 -1.7400392 0.93553174
C 0.4438752 -0.84134215 1.0378915
C 0.3921008 0.29358488 0.07421037
C 0.038388252 1.6035883 0.18347022
C 0.15808797 2.1687033 -1.1283983
C 0.5682299 1.1584339 -1.9361259
O 0.71495664 0.008575019 -1.2221612
H -1.0759314 -1.9986733 -0.107228674
H 0.52369714 -0.48086756 2.0655634
H 1.3226597 -1.4654552 0.82364154
H -0.26668638 2.1065285 1.0878098
H -0.033297718 3.1886914 -1.4220442
H 0.79737043 1.08799 -2.9864025
