title
 OpenBabel02282109573D

 14 14  0  0  0  0  0  0  0  0999 V2000
   -1.5788   -1.0374    1.6727 O   0  0  0  0  0  0  0  0  0  0  0  0
   -0.6558   -1.7713    1.4113 C   0  0  0  0  0  0  0  0  0  0  0  0
    0.5371   -1.4276    0.5492 C   0  0  0  0  0  0  0  0  0  0  0  0
    0.4799   -0.1560   -0.2344 C   0  0  0  0  0  0  0  0  0  0  0  0
    1.2176    0.2890   -1.3048 C   0  0  0  0  0  0  0  0  0  0  0  0
    0.8279    1.5528   -1.6772 N   0  0  0  0  0  0  0  0  0  0  0  0
   -0.1382    1.8727   -0.8448 C   0  0  0  0  0  0  0  0  0  0  0  0
   -0.3824    0.8810    0.0538 N   0  0  0  0  0  0  0  0  0  0  0  0
   -0.6123   -2.7941    1.8441 H   0  0  0  0  0  0  0  0  0  0  0  0
    1.3923   -1.4421    1.2484 H   0  0  0  0  0  0  0  0  0  0  0  0
    0.7215   -2.2837   -0.1133 H   0  0  0  0  0  0  0  0  0  0  0  0
    2.0094   -0.2314   -1.8237 H   0  0  0  0  0  0  0  0  0  0  0  0
   -0.6940    2.7983   -0.8452 H   0  0  0  0  0  0  0  0  0  0  0  0
   -1.1134    0.8154    0.7459 H   0  0  0  0  0  0  0  0  0  0  0  0
  2  1  2  0  0  0  0
  2  9  1  0  0  0  0
  3 10  1  0  0  0  0
  3  2  1  0  0  0  0
  4  8  1  0  0  0  0
  4  3  1  0  0  0  0
  5  4  2  0  0  0  0
  6  5  1  0  0  0  0
  6  7  2  0  0  0  0
  7  8  1  0  0  0  0
  8 14  1  0  0  0  0
 11  3  1  0  0  0  0
 12  5  1  0  0  0  0
 13  7  1  0  0  0  0
M  END
