13
title
O -1.3925747 -2.230974 1.8504838
C -0.7900922 -1.7745672 0.91748583
C 0.41619027 -0.8450477 1.0557129
C 0.38354063 0.2847511 0.09047729
C 0.11395062 1.6116534 0.16874033
N 0.20999455 2.1825912 -1.0951035
C 0.52047634 1.1928078 -1.8630927
O 0.6462753 0.0022064727 -1.2285044
H -1.0698133 -2.0100017 -0.1328637
H 0.45296884 -0.4753295 2.082574
H 1.3145527 -1.4549848 0.8834486
H -0.13611853 2.196716 1.0394739
H 0.6911645 1.1941556 -2.928067
