title
 OpenBabel02282109573D

 13 13  0  0  0  0  0  0  0  0999 V2000
   -1.7152    1.4184    1.3890 O   0  0  0  0  0  0  0  0  0  0  0  0
   -2.0947    0.8861    0.3710 C   0  0  0  0  0  0  0  0  0  0  0  0
   -1.3142    0.1185   -0.4519 N   0  0  0  0  0  0  0  0  0  0  0  0
    0.0288   -0.1640   -0.2428 C   0  0  0  0  0  0  0  0  0  0  0  0
    0.9344    0.1679    0.7165 C   0  0  0  0  0  0  0  0  0  0  0  0
    2.1562   -0.4697    0.3108 C   0  0  0  0  0  0  0  0  0  0  0  0
    1.8951   -1.1266   -0.8448 C   0  0  0  0  0  0  0  0  0  0  0  0
    0.5815   -0.9470   -1.2010 O   0  0  0  0  0  0  0  0  0  0  0  0
   -3.1287    0.9609   -0.0139 H   0  0  0  0  0  0  0  0  0  0  0  0
   -1.7289   -0.2815   -1.2801 H   0  0  0  0  0  0  0  0  0  0  0  0
    0.7432    0.7786    1.5801 H   0  0  0  0  0  0  0  0  0  0  0  0
    3.1039   -0.4350    0.8250 H   0  0  0  0  0  0  0  0  0  0  0  0
    2.4749   -1.7353   -1.5167 H   0  0  0  0  0  0  0  0  0  0  0  0
  2  1  2  0  0  0  0
  3  4  1  0  0  0  0
  3  2  1  0  0  0  0
  4  5  2  0  0  0  0
  5 11  1  0  0  0  0
  6  5  1  0  0  0  0
  6 12  1  0  0  0  0
  7  6  2  0  0  0  0
  8  7  1  0  0  0  0
  8  4  1  0  0  0  0
  9  2  1  0  0  0  0
 10  3  1  0  0  0  0
 13  7  1  0  0  0  0
M  END
