13
title
O -2.348459 -0.8059807 0.014517696
C -2.2040424 0.4033186 0.021659117
N -1.0020864 1.0425485 0.01573005
C 0.24371193 0.41946277 0.0008254193
N 1.3850253 1.064998 -0.00379471
C 2.338943 0.067201644 -0.019013725
C 1.7522101 -1.168713 -0.023532417
N 0.39099383 -0.9284991 -0.010486943
H -3.0507572 1.1107513 0.034164824
H -0.9699074 2.051138 0.022890419
H 3.3913326 0.30399415 -0.025905497
H 2.1508589 -2.168679 -0.034455758
H -0.3913586 -1.5672491 -0.008198318
