13
title
O -0.3300867 -3.1537519 -0.21635486
C -0.15713054 -1.9976679 -0.43495232
O -0.24827766 -1.0550054 0.55315197
C 0.061623696 0.23637658 0.21851447
C 1.1869045 0.80547553 -0.32305202
C 0.9247078 2.2059743 -0.404627
C -0.33524632 2.429599 0.09271963
N -0.8611073 1.2136415 0.46731985
H 0.092764325 -1.5441494 -1.409774
H 2.0901635 0.28681523 -0.6015916
H 1.5977784 2.9601505 -0.78120196
H -0.90000576 3.338268 0.21937716
H -1.7636554 1.0490535 0.8787122
