title
 OpenBabel02282109573D

 12 12  0  0  0  0  0  0  0  0999 V2000
   -0.7572   -3.0367   -0.0902 O   0  0  0  0  0  0  0  0  0  0  0  0
   -0.5765   -1.8884   -0.3294 C   0  0  0  0  0  0  0  0  0  0  0  0
    0.2618   -1.1164    0.4409 O   0  0  0  0  0  0  0  0  0  0  0  0
    0.3451    0.2025    0.1402 C   0  0  0  0  0  0  0  0  0  0  0  0
    1.3852    0.9737   -0.2596 C   0  0  0  0  0  0  0  0  0  0  0  0
    0.8606    2.3092   -0.3222 C   0  0  0  0  0  0  0  0  0  0  0  0
   -0.4446    2.2295    0.0383 C   0  0  0  0  0  0  0  0  0  0  0  0
   -0.7782    0.9357    0.3317 O   0  0  0  0  0  0  0  0  0  0  0  0
   -1.0257   -1.3141   -1.1567 H   0  0  0  0  0  0  0  0  0  0  0  0
    2.3851    0.6362   -0.4756 H   0  0  0  0  0  0  0  0  0  0  0  0
    1.3940    3.2035   -0.6028 H   0  0  0  0  0  0  0  0  0  0  0  0
   -1.2422    2.9462    0.1338 H   0  0  0  0  0  0  0  0  0  0  0  0
  2  1  2  0  0  0  0
  2  3  1  0  0  0  0
  4  8  1  0  0  0  0
  4  3  1  0  0  0  0
  5  4  2  0  0  0  0
  6  5  1  0  0  0  0
  6  7  2  0  0  0  0
  7 12  1  0  0  0  0
  7  8  1  0  0  0  0
  9  2  1  0  0  0  0
 10  5  1  0  0  0  0
 11  6  1  0  0  0  0
M  END
