12
title
O -0.7572289 -3.036726 -0.090151414
C -0.57654643 -1.8883893 -0.32943407
O 0.26181626 -1.1163906 0.4409104
C 0.34507138 0.20247729 0.14021665
C 1.3852297 0.97368866 -0.25961304
C 0.8605557 2.309156 -0.32223216
C -0.44461882 2.2295127 0.03829387
O -0.77822137 0.9357305 0.33174342
H -1.0256612 -1.3141241 -1.1567367
H 2.3851426 0.63618356 -0.47557294
H 1.3939825 3.2035089 -0.60277086
H -1.2422488 2.946186 0.13382077
