12
title
O -0.36152193 -3.168363 -0.16505508
C -0.18859597 -2.0183828 -0.40542516
O -0.25427145 -1.0599539 0.5763273
C 0.052947536 0.22054435 0.22057079
C 1.1368135 0.8091068 -0.37135547
N 0.9262053 2.1677024 -0.4683965
C -0.25246692 2.3873675 0.061033808
N -0.8376641 1.230264 0.49462172
H 0.03947659 -1.5764966 -1.3905805
H 2.0467749 0.34199858 -0.7135622
H -0.73355883 3.3478854 0.16636819
H -1.7304021 1.115298 0.9459867
