title
 OpenBabel02282109573D

 12 12  0  0  0  0  0  0  0  0999 V2000
   -0.3615   -3.1684   -0.1651 O   0  0  0  0  0  0  0  0  0  0  0  0
   -0.1886   -2.0184   -0.4054 C   0  0  0  0  0  0  0  0  0  0  0  0
   -0.2543   -1.0600    0.5763 O   0  0  0  0  0  0  0  0  0  0  0  0
    0.0529    0.2205    0.2206 C   0  0  0  0  0  0  0  0  0  0  0  0
    1.1368    0.8091   -0.3714 C   0  0  0  0  0  0  0  0  0  0  0  0
    0.9262    2.1677   -0.4684 N   0  0  0  0  0  0  0  0  0  0  0  0
   -0.2525    2.3874    0.0610 C   0  0  0  0  0  0  0  0  0  0  0  0
   -0.8377    1.2303    0.4946 N   0  0  0  0  0  0  0  0  0  0  0  0
    0.0395   -1.5765   -1.3906 H   0  0  0  0  0  0  0  0  0  0  0  0
    2.0468    0.3420   -0.7136 H   0  0  0  0  0  0  0  0  0  0  0  0
   -0.7336    3.3479    0.1664 H   0  0  0  0  0  0  0  0  0  0  0  0
   -1.7304    1.1153    0.9460 H   0  0  0  0  0  0  0  0  0  0  0  0
  2  1  2  0  0  0  0
  2  3  1  0  0  0  0
  4  8  1  0  0  0  0
  4  3  1  0  0  0  0
  5  4  2  0  0  0  0
  6  5  1  0  0  0  0
  6  7  2  0  0  0  0
  7 11  1  0  0  0  0
  7  8  1  0  0  0  0
  8 12  1  0  0  0  0
  9  2  1  0  0  0  0
 10  5  1  0  0  0  0
M  END
