title
 OpenBabel02282109573D

 11 11  0  0  0  0  0  0  0  0999 V2000
   -0.4890   -3.1403   -0.0604 O   0  0  0  0  0  0  0  0  0  0  0  0
   -0.3191   -2.0037   -0.3476 C   0  0  0  0  0  0  0  0  0  0  0  0
   -0.1400   -1.0341    0.6207 O   0  0  0  0  0  0  0  0  0  0  0  0
    0.1393    0.2155    0.2010 C   0  0  0  0  0  0  0  0  0  0  0  0
    1.1515    0.7927   -0.4888 C   0  0  0  0  0  0  0  0  0  0  0  0
    0.8876    2.1547   -0.5913 N   0  0  0  0  0  0  0  0  0  0  0  0
   -0.2324    2.3138    0.0300 C   0  0  0  0  0  0  0  0  0  0  0  0
   -0.7648    1.1731    0.5417 O   0  0  0  0  0  0  0  0  0  0  0  0
   -0.2721   -1.5737   -1.3625 H   0  0  0  0  0  0  0  0  0  0  0  0
    2.0406    0.3401   -0.8956 H   0  0  0  0  0  0  0  0  0  0  0  0
   -0.7886    3.2219    0.1987 H   0  0  0  0  0  0  0  0  0  0  0  0
  2  1  2  0  0  0  0
  2  3  1  0  0  0  0
  4  8  1  0  0  0  0
  4  3  1  0  0  0  0
  5  4  2  0  0  0  0
  6  5  1  0  0  0  0
  6  7  2  0  0  0  0
  7 11  1  0  0  0  0
  7  8  1  0  0  0  0
  9  2  1  0  0  0  0
 10  5  1  0  0  0  0
M  END
