11
title
O -0.48903543 -3.1403468 -0.060417898
C -0.31912452 -2.0037234 -0.34764805
O -0.14004175 -1.0340841 0.6206801
C 0.13931547 0.2154813 0.2009712
C 1.1514739 0.7926874 -0.48875213
N 0.8876294 2.1547277 -0.5913398
C -0.23237346 2.3138092 0.029956331
O -0.764779 1.1730502 0.5417483
H -0.27214694 -1.5736707 -1.3625154
H 2.0406 0.34014463 -0.8955505
H -0.78864056 3.2218816 0.19870447
