12
title
O -0.6638581 -3.0888565 -0.010957492
C -0.74217683 -1.9059178 -0.101416945
O 0.36569327 -1.1147777 0.109134994
C 0.20447898 0.23327623 0.050989643
N -0.9011391 0.9201263 0.114252575
C -0.49109244 2.2397246 0.017573474
C 0.86668354 2.3198118 -0.09392909
N 1.3111317 1.0060412 -0.07328054
H -1.6329644 -1.3128008 -0.34601054
H -1.2072951 3.0456572 0.042635523
H 1.5485158 3.1485925 -0.17608145
H 2.2586415 0.6737274 -0.13745567
