title
 OpenBabel02282109573D

 12 12  0  0  0  0  0  0  0  0999 V2000
   -0.6639   -3.0889   -0.0110 O   0  0  0  0  0  0  0  0  0  0  0  0
   -0.7422   -1.9059   -0.1014 C   0  0  0  0  0  0  0  0  0  0  0  0
    0.3657   -1.1148    0.1091 O   0  0  0  0  0  0  0  0  0  0  0  0
    0.2045    0.2333    0.0510 C   0  0  0  0  0  0  0  0  0  0  0  0
   -0.9011    0.9201    0.1143 N   0  0  0  0  0  0  0  0  0  0  0  0
   -0.4911    2.2397    0.0176 C   0  0  0  0  0  0  0  0  0  0  0  0
    0.8667    2.3198   -0.0939 C   0  0  0  0  0  0  0  0  0  0  0  0
    1.3111    1.0060   -0.0733 N   0  0  0  0  0  0  0  0  0  0  0  0
   -1.6330   -1.3128   -0.3460 H   0  0  0  0  0  0  0  0  0  0  0  0
   -1.2073    3.0457    0.0426 H   0  0  0  0  0  0  0  0  0  0  0  0
    1.5485    3.1486   -0.1761 H   0  0  0  0  0  0  0  0  0  0  0  0
    2.2586    0.6737   -0.1375 H   0  0  0  0  0  0  0  0  0  0  0  0
  2  1  2  0  0  0  0
  2  3  1  0  0  0  0
  4  3  1  0  0  0  0
  4  5  2  0  0  0  0
  6 10  1  0  0  0  0
  6  5  1  0  0  0  0
  7  8  1  0  0  0  0
  7  6  2  0  0  0  0
  8  4  1  0  0  0  0
  9  2  1  0  0  0  0
 11  7  1  0  0  0  0
 12  8  1  0  0  0  0
M  END
