11
title
O -0.65282565 -3.079198 0.0065986025
C -0.7484562 -1.9019988 -0.09820424
O 0.36075813 -1.0914863 0.09216874
C 0.17474657 0.2374682 0.049187142
N -0.9170392 0.91970724 0.13815442
C -0.47382408 2.2396986 0.031719316
C 0.86852974 2.2528098 -0.104938135
O 1.3035873 0.94286054 -0.097873345
H -1.6464292 -1.3200847 -0.34340513
H -1.1615698 3.068689 0.07046587
H 1.629109 3.0061328 -0.20449767
