title
 OpenBabel02282109573D

 11 11  0  0  0  0  0  0  0  0999 V2000
   -0.6528   -3.0792    0.0066 O   0  0  0  0  0  0  0  0  0  0  0  0
   -0.7485   -1.9020   -0.0982 C   0  0  0  0  0  0  0  0  0  0  0  0
    0.3608   -1.0915    0.0922 O   0  0  0  0  0  0  0  0  0  0  0  0
    0.1747    0.2375    0.0492 C   0  0  0  0  0  0  0  0  0  0  0  0
   -0.9170    0.9197    0.1382 N   0  0  0  0  0  0  0  0  0  0  0  0
   -0.4738    2.2397    0.0317 C   0  0  0  0  0  0  0  0  0  0  0  0
    0.8685    2.2528   -0.1049 C   0  0  0  0  0  0  0  0  0  0  0  0
    1.3036    0.9429   -0.0979 O   0  0  0  0  0  0  0  0  0  0  0  0
   -1.6464   -1.3201   -0.3434 H   0  0  0  0  0  0  0  0  0  0  0  0
   -1.1616    3.0687    0.0705 H   0  0  0  0  0  0  0  0  0  0  0  0
    1.6291    3.0061   -0.2045 H   0  0  0  0  0  0  0  0  0  0  0  0
  2  1  2  0  0  0  0
  2  3  1  0  0  0  0
  4  3  1  0  0  0  0
  4  5  2  0  0  0  0
  6 10  1  0  0  0  0
  6  5  1  0  0  0  0
  7  8  1  0  0  0  0
  7  6  2  0  0  0  0
  8  4  1  0  0  0  0
  9  2  1  0  0  0  0
 11  7  1  0  0  0  0
M  END
