14
title
N 2.468766 0.84434 -0.021408357
C 2.3210795 -0.42363155 -0.024154125
N 1.0946926 -1.0308244 -0.014533445
C -0.14470825 -0.39187634 2.9942772e-05
C -0.43003997 0.9438004 0.007236452
O -1.7859792 1.1188115 0.02133276
C -2.3552086 -0.107189655 0.023004204
C -1.4072675 -1.0784255 0.010314138
H 3.4575002 1.0814418 -0.03010608
H 3.133434 -1.1598356 -0.034287415
H 1.081818 -2.0358717 -0.016619299
H 0.18503347 1.8218999 0.003974597
H -3.4322984 -0.13020486 0.03369072
H -1.5718848 -2.145162 0.008412869
