title
 OpenBabel02282109573D

 13 13  0  0  0  0  0  0  0  0999 V2000
    2.4661    0.8334   -0.0206 N   0  0  0  0  0  0  0  0  0  0  0  0
    2.3025   -0.4326   -0.0234 C   0  0  0  0  0  0  0  0  0  0  0  0
    1.0627   -1.0116   -0.0138 N   0  0  0  0  0  0  0  0  0  0  0  0
   -0.1450   -0.3344    0.0002 C   0  0  0  0  0  0  0  0  0  0  0  0
   -0.4377    0.9935    0.0075 C   0  0  0  0  0  0  0  0  0  0  0  0
   -1.8117    1.0936    0.0211 O   0  0  0  0  0  0  0  0  0  0  0  0
   -2.2504   -0.1749    0.0210 C   0  0  0  0  0  0  0  0  0  0  0  0
   -1.3191   -1.0741    0.0089 N   0  0  0  0  0  0  0  0  0  0  0  0
    3.4575    1.0595   -0.0291 H   0  0  0  0  0  0  0  0  0  0  0  0
    3.1014   -1.1822   -0.0336 H   0  0  0  0  0  0  0  0  0  0  0  0
    0.9879   -2.0153   -0.0164 H   0  0  0  0  0  0  0  0  0  0  0  0
    0.1418    1.8944    0.0051 H   0  0  0  0  0  0  0  0  0  0  0  0
   -3.3180   -0.3274    0.0308 H   0  0  0  0  0  0  0  0  0  0  0  0
  2  1  2  0  0  0  0
  2  3  1  0  0  0  0
  3  4  1  0  0  0  0
  4  5  2  0  0  0  0
  4  8  1  0  0  0  0
  5  6  1  0  0  0  0
  7  6  1  0  0  0  0
  7 13  1  0  0  0  0
  8  7  2  0  0  0  0
  9  1  1  0  0  0  0
 10  2  1  0  0  0  0
 11  3  1  0  0  0  0
 12  5  1  0  0  0  0
M  END
