14
title
N 0.70206004 3.1815186 0.073155686
C 0.595638 1.9697253 -0.25709864
O -0.30794564 1.1797994 0.37261057
C -0.24294165 -0.17264743 0.1406887
C 0.87459236 -0.97836846 0.18152753
N 0.44171295 -2.2581089 -0.07357429
C -0.9144063 -2.2703612 -0.26080054
C -1.3758929 -0.98042864 -0.13556643
H 1.3953485 3.638868 -0.5153599
H 1.155187 1.4341928 -1.0342355
H 1.9066311 -0.7548422 0.39196786
H 1.0365785 -3.0666273 -0.104833
H -1.4386823 -3.1883829 -0.47023723
H -2.3945355 -0.64067906 -0.22850917
