13
title
N 0.65174794 3.1744554 0.011356186
C 0.7555081 1.9175805 0.004030619
O -0.38714767 1.1784253 0.00883245
C -0.29535925 -0.17948522 0.0012281918
C -1.3762219 -1.0217441 0.0039368775
N -0.81404316 -2.285264 -0.0060090115
C 0.53320926 -2.1378994 -0.014151039
N 0.88257176 -0.8666104 -0.009882341
H 1.5816174 3.5897439 0.006223688
H 1.6608664 1.3095546 -0.0062155174
H -2.4369142 -0.84752977 0.011685219
H -1.3199308 -3.1545863 -0.006988272
H 1.2124155 -2.9762554 -0.022827726
