title
 OpenBabel02282109573D

 12 12  0  0  0  0  0  0  0  0999 V2000
    0.6893    3.1807    0.0117 N   0  0  0  0  0  0  0  0  0  0  0  0
    0.7867    1.9258    0.0038 C   0  0  0  0  0  0  0  0  0  0  0  0
   -0.3685    1.1954    0.0090 O   0  0  0  0  0  0  0  0  0  0  0  0
   -0.2981   -0.1548    0.0014 C   0  0  0  0  0  0  0  0  0  0  0  0
   -1.3579   -1.0017    0.0042 C   0  0  0  0  0  0  0  0  0  0  0  0
   -0.8439   -2.2751   -0.0058 O   0  0  0  0  0  0  0  0  0  0  0  0
    0.4877   -2.1080   -0.0142 C   0  0  0  0  0  0  0  0  0  0  0  0
    0.8807   -0.8726   -0.0104 N   0  0  0  0  0  0  0  0  0  0  0  0
    1.6192    3.5957    0.0068 H   0  0  0  0  0  0  0  0  0  0  0  0
    1.6857    1.3090   -0.0065 H   0  0  0  0  0  0  0  0  0  0  0  0
   -2.4260   -0.8915    0.0121 H   0  0  0  0  0  0  0  0  0  0  0  0
    1.0969   -2.9976   -0.0230 H   0  0  0  0  0  0  0  0  0  0  0  0
  2  3  1  0  0  0  0
  2  1  2  0  0  0  0
  4  5  1  0  0  0  0
  4  3  1  0  0  0  0
  5 11  1  0  0  0  0
  6  5  1  0  0  0  0
  7  8  2  0  0  0  0
  7  6  1  0  0  0  0
  8  4  2  0  0  0  0
  9  1  1  0  0  0  0
 10  2  1  0  0  0  0
 12  7  1  0  0  0  0
M  RAD  1   5   2
M  END
