14
title
O -1.3764884 -1.9456946 2.1015325
C -0.8534525 -1.6675766 1.0541071
C 0.50222284 -0.98642087 0.9221222
C 0.45350704 0.1444267 -0.05840048
C 0.4294344 1.4939393 0.18854532
N 0.34401903 2.0908437 -1.0499223
C 0.31472167 1.0945686 -1.977652
N 0.3775452 -0.090300195 -1.4163536
H -1.3390483 -1.8935854 0.07957021
H 0.8255822 -0.6604196 1.9134642
H 1.2087729 -1.7448621 0.5581579
H 0.46771666 2.0677018 1.0993762
H 0.3202847 3.0800796 -1.2319754
H 0.2517886 1.2933911 -3.037021
