14
title
O -1.0415883 -2.7467175 1.3050092
C -0.9442337 -1.5503117 1.2396516
C 0.3780302 -0.7952153 1.1804804
C 0.37141243 0.2595896 0.113198794
C 0.89249945 0.159167 -1.1409916
O 0.6735133 1.296802 -1.8495508
C -0.008777833 2.143265 -1.0359699
C -0.22425929 1.5683119 0.17445484
H -1.8451778 -0.89553434 1.2154921
H 0.52771115 -0.33008677 2.165267
H 1.178151 -1.5252017 1.0344563
H 1.4333447 -0.61922985 -1.6539613
H -0.2567856 3.1022346 -1.4596974
H -0.73201835 2.013737 1.0162885
