title
 OpenBabel02282109573D

 14 14  0  0  0  0  0  0  0  0999 V2000
   -2.4780   -0.7413    0.0168 O   0  0  0  0  0  0  0  0  0  0  0  0
   -2.2737    0.4552    0.0238 C   0  0  0  0  0  0  0  0  0  0  0  0
   -1.0481    1.0475    0.0169 N   0  0  0  0  0  0  0  0  0  0  0  0
    0.1895    0.3855    0.0010 C   0  0  0  0  0  0  0  0  0  0  0  0
    0.4147   -0.9756   -0.0123 C   0  0  0  0  0  0  0  0  0  0  0  0
    1.7784   -1.1497   -0.0250 N   0  0  0  0  0  0  0  0  0  0  0  0
    2.4158    0.0597   -0.0202 C   0  0  0  0  0  0  0  0  0  0  0  0
    1.4538    1.0426   -0.0042 C   0  0  0  0  0  0  0  0  0  0  0  0
   -3.0855    1.2087    0.0368 H   0  0  0  0  0  0  0  0  0  0  0  0
   -1.0244    2.0549    0.0241 H   0  0  0  0  0  0  0  0  0  0  0  0
   -0.2783   -1.7956   -0.0131 H   0  0  0  0  0  0  0  0  0  0  0  0
    2.2351   -2.0440   -0.0360 H   0  0  0  0  0  0  0  0  0  0  0  0
    3.4912    0.1273   -0.0286 H   0  0  0  0  0  0  0  0  0  0  0  0
    1.6291    2.1078    0.0032 H   0  0  0  0  0  0  0  0  0  0  0  0
  1  2  2  0  0  0  0
  2  9  1  0  0  0  0
  3  2  1  0  0  0  0
  3 10  1  0  0  0  0
  4  3  1  0  0  0  0
  5  4  2  0  0  0  0
  6  7  1  0  0  0  0
  6  5  1  0  0  0  0
  7  8  2  0  0  0  0
  8  4  1  0  0  0  0
  8 14  1  0  0  0  0
 11  5  1  0  0  0  0
 12  6  1  0  0  0  0
 13  7  1  0  0  0  0
M  END
