title
 OpenBabel02282109573D

 12 12  0  0  0  0  0  0  0  0999 V2000
   -2.4569   -0.7353    0.0164 O   0  0  0  0  0  0  0  0  0  0  0  0
   -2.2653    0.4611    0.0240 C   0  0  0  0  0  0  0  0  0  0  0  0
   -1.0307    1.0440    0.0171 N   0  0  0  0  0  0  0  0  0  0  0  0
    0.1679    0.3407    0.0011 C   0  0  0  0  0  0  0  0  0  0  0  0
    0.4173   -0.9948   -0.0118 C   0  0  0  0  0  0  0  0  0  0  0  0
    1.7847   -1.1377   -0.0250 O   0  0  0  0  0  0  0  0  0  0  0  0
    2.2644    0.1167   -0.0192 C   0  0  0  0  0  0  0  0  0  0  0  0
    1.3606    1.0445   -0.0036 N   0  0  0  0  0  0  0  0  0  0  0  0
   -3.0757    1.2127    0.0373 H   0  0  0  0  0  0  0  0  0  0  0  0
   -0.9496    2.0496    0.0246 H   0  0  0  0  0  0  0  0  0  0  0  0
   -0.1871   -1.8800   -0.0135 H   0  0  0  0  0  0  0  0  0  0  0  0
    3.3361    0.2349   -0.0277 H   0  0  0  0  0  0  0  0  0  0  0  0
  1  2  2  0  0  0  0
  2  9  1  0  0  0  0
  3  2  1  0  0  0  0
  3 10  1  0  0  0  0
  4  3  1  0  0  0  0
  5  4  2  0  0  0  0
  6  7  1  0  0  0  0
  6  5  1  0  0  0  0
  7  8  2  0  0  0  0
  8  4  1  0  0  0  0
 11  5  1  0  0  0  0
 12  7  1  0  0  0  0
M  END
