title
 OpenBabel02282109573D

 13 13  0  0  0  0  0  0  0  0999 V2000
   -0.3106   -3.1763   -0.2382 O   0  0  0  0  0  0  0  0  0  0  0  0
   -0.1931   -2.0057   -0.4297 C   0  0  0  0  0  0  0  0  0  0  0  0
   -0.2301   -1.0993    0.5807 O   0  0  0  0  0  0  0  0  0  0  0  0
   -0.0122    0.2251    0.2509 C   0  0  0  0  0  0  0  0  0  0  0  0
   -0.9155    1.2358    0.4793 C   0  0  0  0  0  0  0  0  0  0  0  0
   -0.3083    2.3985    0.0775 N   0  0  0  0  0  0  0  0  0  0  0  0
    0.9484    2.1395   -0.3996 C   0  0  0  0  0  0  0  0  0  0  0  0
    1.1707    0.7843   -0.3026 C   0  0  0  0  0  0  0  0  0  0  0  0
   -0.0469   -1.5264   -1.4146 H   0  0  0  0  0  0  0  0  0  0  0  0
   -1.9083    1.2149    0.8949 H   0  0  0  0  0  0  0  0  0  0  0  0
   -0.7276    3.3098    0.1322 H   0  0  0  0  0  0  0  0  0  0  0  0
    1.5811    2.9325   -0.7631 H   0  0  0  0  0  0  0  0  0  0  0  0
    2.0706    0.2563   -0.5750 H   0  0  0  0  0  0  0  0  0  0  0  0
  2  1  2  0  0  0  0
  2  3  1  0  0  0  0
  4  5  2  0  0  0  0
  4  3  1  0  0  0  0
  5 10  1  0  0  0  0
  6 11  1  0  0  0  0
  6  5  1  0  0  0  0
  7  8  2  0  0  0  0
  7  6  1  0  0  0  0
  8  4  1  0  0  0  0
  9  2  1  0  0  0  0
 12  7  1  0  0  0  0
 13  8  1  0  0  0  0
M  END
