title
 OpenBabel02282109573D

 15 15  0  0  0  0  0  0  0  0999 V2000
   -1.2503   -2.2729    1.9145 O   0  0  0  0  0  0  0  0  0  0  0  0
   -0.9202   -1.5582    1.0079 C   0  0  0  0  0  0  0  0  0  0  0  0
    0.4061   -0.7944    0.9839 C   0  0  0  0  0  0  0  0  0  0  0  0
    0.4482    0.2312   -0.0277 N   0  0  0  0  0  0  0  0  0  0  0  0
    0.9148    0.0714   -1.3121 C   0  0  0  0  0  0  0  0  0  0  0  0
    0.6733    1.2339   -2.0058 C   0  0  0  0  0  0  0  0  0  0  0  0
    0.0266    2.1320   -1.1129 C   0  0  0  0  0  0  0  0  0  0  0  0
   -0.1041    1.4861    0.0939 C   0  0  0  0  0  0  0  0  0  0  0  0
   -1.5531   -1.4015    0.1058 H   0  0  0  0  0  0  0  0  0  0  0  0
    0.5814   -0.3671    1.9760 H   0  0  0  0  0  0  0  0  0  0  0  0
    1.2094   -1.5178    0.8020 H   0  0  0  0  0  0  0  0  0  0  0  0
    1.3856   -0.8519   -1.6115 H   0  0  0  0  0  0  0  0  0  0  0  0
    0.9420    1.4229   -3.0336 H   0  0  0  0  0  0  0  0  0  0  0  0
   -0.2954    3.1394   -1.3274 H   0  0  0  0  0  0  0  0  0  0  0  0
   -0.5294    1.8078    1.0317 H   0  0  0  0  0  0  0  0  0  0  0  0
  2  1  2  0  0  0  0
  3  2  1  0  0  0  0
  3 10  1  0  0  0  0
  4  8  1  0  0  0  0
  4  3  1  0  0  0  0
  5  4  1  0  0  0  0
  6  5  2  0  0  0  0
  6  7  1  0  0  0  0
  7  8  2  0  0  0  0
  8 15  1  0  0  0  0
  9  2  1  0  0  0  0
 11  3  1  0  0  0  0
 12  5  1  0  0  0  0
 13  6  1  0  0  0  0
 14  7  1  0  0  0  0
M  END
