15
title
O -1.2502506 -2.2729337 1.9144589
C -0.92015535 -1.5581716 1.0078931
C 0.4061426 -0.7944462 0.98386925
N 0.44820273 0.23115523 -0.027715871
C 0.9148183 0.07137568 -1.3120974
C 0.67327046 1.2338921 -2.005768
C 0.02659078 2.1319876 -1.1129478
C -0.10405742 1.486107 0.09389847
H -1.5530736 -1.4015086 0.10576718
H 0.58139765 -0.36708847 1.9759986
H 1.2093842 -1.5177621 0.8020404
H 1.3856089 -0.85190123 -1.6115478
H 0.9419966 1.4229156 -3.0336022
H -0.29537135 3.1393561 -1.327448
H -0.52935946 1.8078004 1.0316597
