title
 OpenBabel02282109573D

 15 15  0  0  0  0  0  0  0  0999 V2000
   -0.1052    3.7747    0.0206 C   0  0  0  0  0  0  0  0  0  0  0  0
   -0.0324    2.3224    0.0125 C   0  0  0  0  0  0  0  0  0  0  0  0
    0.0399    1.1166    0.0058 C   0  0  0  0  0  0  0  0  0  0  0  0
    0.1106   -0.2906   -0.0022 C   0  0  0  0  0  0  0  0  0  0  0  0
    1.1954   -1.1559   -0.0131 C   0  0  0  0  0  0  0  0  0  0  0  0
    0.6935   -2.4798   -0.0173 C   0  0  0  0  0  0  0  0  0  0  0  0
   -0.6833   -2.3999   -0.0088 C   0  0  0  0  0  0  0  0  0  0  0  0
   -1.0261   -1.0779    0.0003 N   0  0  0  0  0  0  0  0  0  0  0  0
    0.8981    4.2150    0.0133 H   0  0  0  0  0  0  0  0  0  0  0  0
   -0.6387    4.1577   -0.8572 H   0  0  0  0  0  0  0  0  0  0  0  0
   -0.6219    4.1488    0.9122 H   0  0  0  0  0  0  0  0  0  0  0  0
    2.2293   -0.8488   -0.0175 H   0  0  0  0  0  0  0  0  0  0  0  0
    1.2726   -3.3902   -0.0255 H   0  0  0  0  0  0  0  0  0  0  0  0
   -1.4381   -3.1698   -0.0086 H   0  0  0  0  0  0  0  0  0  0  0  0
   -1.9616   -0.7104    0.0077 H   0  0  0  0  0  0  0  0  0  0  0  0
  1 11  1  0  0  0  0
  2  1  1  0  0  0  0
  3  2  3  0  0  0  0
  4  8  1  0  0  0  0
  4  3  1  0  0  0  0
  5  4  2  0  0  0  0
  6  5  1  0  0  0  0
  6  7  2  0  0  0  0
  7 14  1  0  0  0  0
  7  8  1  0  0  0  0
  8 15  1  0  0  0  0
  9  1  1  0  0  0  0
 10  1  1  0  0  0  0
 12  5  1  0  0  0  0
 13  6  1  0  0  0  0
M  END
