14
title
C -0.09060337 3.7953682 0.020196997
C -0.035535835 2.3424764 0.012320527
C 0.02026538 1.1362253 0.005755921
C 0.087388806 -0.2690861 -0.0019170763
C 1.144575 -1.1591921 -0.012909085
N 0.69967335 -2.4536495 -0.016900241
C -0.61351025 -2.3712192 -0.008543765
N -1.0385553 -1.0803776 0.000648491
H 0.91820824 4.222422 0.0127572175
H -0.6198681 4.1824985 -0.8580139
H -0.603075 4.1736016 0.91214144
H 2.1960487 -0.91743535 -0.018006109
H -1.300692 -3.2041593 -0.0086953975
H -1.9893091 -0.7505519 0.008062911
