title
 OpenBabel02282109573D

 14 14  0  0  0  0  0  0  0  0999 V2000
   -0.0858    3.7552    0.0199 C   0  0  0  0  0  0  0  0  0  0  0  0
   -0.0301    2.3028    0.0120 C   0  0  0  0  0  0  0  0  0  0  0  0
    0.0328    1.0982    0.0054 C   0  0  0  0  0  0  0  0  0  0  0  0
    0.0864   -0.3138   -0.0022 C   0  0  0  0  0  0  0  0  0  0  0  0
    1.1690   -1.0775   -0.0134 N   0  0  0  0  0  0  0  0  0  0  0  0
    0.7109   -2.3669   -0.0169 C   0  0  0  0  0  0  0  0  0  0  0  0
   -0.6619   -2.3995   -0.0079 C   0  0  0  0  0  0  0  0  0  0  0  0
   -1.0507   -1.0848    0.0015 N   0  0  0  0  0  0  0  0  0  0  0  0
    0.9232    4.1815    0.0143 H   0  0  0  0  0  0  0  0  0  0  0  0
   -0.6144    4.1406   -0.8593 H   0  0  0  0  0  0  0  0  0  0  0  0
   -0.6009    4.1316    0.9109 H   0  0  0  0  0  0  0  0  0  0  0  0
    1.3925   -3.2039   -0.0258 H   0  0  0  0  0  0  0  0  0  0  0  0
   -1.3747   -3.2071   -0.0072 H   0  0  0  0  0  0  0  0  0  0  0  0
   -1.9936   -0.7336    0.0096 H   0  0  0  0  0  0  0  0  0  0  0  0
  1 11  1  0  0  0  0
  2  1  1  0  0  0  0
  3  2  3  0  0  0  0
  4  8  1  0  0  0  0
  4  3  1  0  0  0  0
  5  4  2  0  0  0  0
  6  5  1  0  0  0  0
  6  7  2  0  0  0  0
  7 13  1  0  0  0  0
  7  8  1  0  0  0  0
  8 14  1  0  0  0  0
  9  1  1  0  0  0  0
 10  1  1  0  0  0  0
 12  6  1  0  0  0  0
M  END
