15
title
C -0.05560279 3.810822 0.020128427
C -0.030159693 2.3563483 0.012426477
C -0.005556494 1.149574 0.006064232
C 0.0006140582 -0.2661751 -0.0013767777
C 1.1185391 -1.0846605 -0.012268005
N 0.6906789 -2.38245 -0.016499195
C -0.68272454 -2.425651 -0.008602029
C -1.1417731 -1.1338878 0.0008954641
H 0.9588461 4.2255573 0.012540011
H -0.5793459 4.2096405 -0.8566883
H -0.5624507 4.2006226 0.9108247
H 2.1662078 -0.8331979 -0.017168056
H 1.293983 -3.185752 -0.024290618
H -1.2092181 -3.3662224 -0.010383273
H -2.1727972 -0.818039 0.0086782025
