14
title
C -0.0811155 3.7903564 0.0040108976
C -0.035908863 2.3368106 -0.0008199917
C -0.006287023 1.1311588 -0.0029836718
C 0.030142073 -0.2842524 -0.0059130318
C 1.1188941 -1.0922673 -0.25612283
N 0.6554544 -2.3793044 -0.14320548
C -0.67270863 -2.3061519 0.1656079
N -1.0859275 -1.0678267 0.2569095
H 0.6258506 4.2116294 0.72804433
H 0.16763696 4.2034206 -0.9803993
H -1.0809634 4.1503286 0.2704485
H 2.1436124 -0.865211 -0.4955063
H 1.1980556 -3.217616 -0.26619646
H -1.2788343 -3.1881218 0.31013215
