title
 OpenBabel02282109573D

 14 14  0  0  0  0  0  0  0  0999 V2000
   -0.0570    3.8274    0.0207 C   0  0  0  0  0  0  0  0  0  0  0  0
   -0.0334    2.3730    0.0129 C   0  0  0  0  0  0  0  0  0  0  0  0
   -0.0081    1.1669    0.0064 C   0  0  0  0  0  0  0  0  0  0  0  0
   -0.0046   -0.2474   -0.0013 C   0  0  0  0  0  0  0  0  0  0  0  0
    1.0852   -1.0750   -0.0121 C   0  0  0  0  0  0  0  0  0  0  0  0
    0.7038   -2.3740   -0.0170 O   0  0  0  0  0  0  0  0  0  0  0  0
   -0.6576   -2.3907   -0.0090 C   0  0  0  0  0  0  0  0  0  0  0  0
   -1.1496   -1.1291    0.0010 C   0  0  0  0  0  0  0  0  0  0  0  0
    0.9582    4.2393    0.0130 H   0  0  0  0  0  0  0  0  0  0  0  0
   -0.5813    4.2234   -0.8566 H   0  0  0  0  0  0  0  0  0  0  0  0
   -0.5643    4.2143    0.9118 H   0  0  0  0  0  0  0  0  0  0  0  0
    2.1455   -0.8869   -0.0173 H   0  0  0  0  0  0  0  0  0  0  0  0
   -1.1124   -3.3672   -0.0117 H   0  0  0  0  0  0  0  0  0  0  0  0
   -2.1858   -0.8319    0.0089 H   0  0  0  0  0  0  0  0  0  0  0  0
  1 11  1  0  0  0  0
  2  1  1  0  0  0  0
  3  2  3  0  0  0  0
  4  8  1  0  0  0  0
  4  3  1  0  0  0  0
  5  4  2  0  0  0  0
  6  5  1  0  0  0  0
  6  7  1  0  0  0  0
  7  8  2  0  0  0  0
  8 14  1  0  0  0  0
  9  1  1  0  0  0  0
 10  1  1  0  0  0  0
 12  5  1  0  0  0  0
 13  7  1  0  0  0  0
M  END
