title
 OpenBabel02282109573D

 13 13  0  0  0  0  0  0  0  0999 V2000
   -0.0820    3.8074    0.0350 C   0  0  0  0  0  0  0  0  0  0  0  0
   -0.0374    2.3545    0.0180 C   0  0  0  0  0  0  0  0  0  0  0  0
   -0.0067    1.1493    0.0057 C   0  0  0  0  0  0  0  0  0  0  0  0
    0.0299   -0.2631   -0.0090 C   0  0  0  0  0  0  0  0  0  0  0  0
    1.0787   -1.0847   -0.2953 C   0  0  0  0  0  0  0  0  0  0  0  0
    0.6567   -2.3751   -0.1856 O   0  0  0  0  0  0  0  0  0  0  0  0
   -0.6471   -2.2708    0.1673 C   0  0  0  0  0  0  0  0  0  0  0  0
   -1.0833   -1.0644    0.2893 N   0  0  0  0  0  0  0  0  0  0  0  0
    0.6275    4.2196    0.7612 H   0  0  0  0  0  0  0  0  0  0  0  0
    0.1661    4.2254   -0.9470 H   0  0  0  0  0  0  0  0  0  0  0  0
   -1.0813    4.1645    0.3061 H   0  0  0  0  0  0  0  0  0  0  0  0
    2.1058   -0.9265   -0.5725 H   0  0  0  0  0  0  0  0  0  0  0  0
   -1.1847   -3.1951    0.3096 H   0  0  0  0  0  0  0  0  0  0  0  0
  1 11  1  0  0  0  0
  1  9  1  0  0  0  0
  2  1  1  0  0  0  0
  3  2  3  0  0  0  0
  4  3  1  0  0  0  0
  4  8  1  0  0  0  0
  5  6  1  0  0  0  0
  5  4  2  0  0  0  0
  6  7  1  0  0  0  0
  7  8  2  0  0  0  0
  7 13  1  0  0  0  0
 10  1  1  0  0  0  0
 12  5  1  0  0  0  0
M  END
