14
title
N 0.7363778 3.184184 -0.17854965
C 0.6880859 1.8213482 -0.22750469
N -0.26375064 1.1642883 0.32430065
C -0.33285233 -0.19431633 0.20358594
C -1.2398107 -1.0788096 0.7165921
C -0.83336097 -2.3810706 0.28422838
C 0.2868384 -2.2032595 -0.46098298
O 0.6124394 -0.8796045 -0.5249706
H 1.6174082 3.6407714 -0.3425872
H 0.11044559 3.6356404 0.47144833
H 1.4951446 1.3616525 -0.8037473
H -2.088057 -0.81573576 1.3270602
H -1.3146739 -3.3223095 0.49960756
H 0.9440499 -2.8716106 -0.99228686
