13
title
N -0.83733726 3.1763659 0.18811505
C -0.7492839 1.8208128 0.23908535
N 0.22397707 1.1901296 -0.3092408
C 0.3273271 -0.1619297 -0.19586295
C 1.2415845 -1.0467612 -0.68270934
N 0.9037745 -2.3358016 -0.2910635
C -0.17511024 -2.1845202 0.40105554
O -0.6039053 -0.90263283 0.5160621
H -0.21066786 3.6601677 -0.43650904
H -1.713841 3.6216903 0.3962365
H -1.5471239 1.3369844 0.808598
H 2.1106093 -0.8351439 -1.2832334
H -0.769184 -2.9390874 0.89274204
