title
 OpenBabel02282109573D

 13 13  0  0  0  0  0  0  0  0999 V2000
    0.7315    3.1839   -0.0222 N   0  0  0  0  0  0  0  0  0  0  0  0
    0.7621    1.8359    0.0027 C   0  0  0  0  0  0  0  0  0  0  0  0
   -0.3187    1.1378    0.0001 N   0  0  0  0  0  0  0  0  0  0  0  0
   -0.1749   -0.2222   -0.0005 C   0  0  0  0  0  0  0  0  0  0  0  0
    0.8944   -0.9738   -0.0152 N   0  0  0  0  0  0  0  0  0  0  0  0
    0.4048   -2.2696   -0.0054 C   0  0  0  0  0  0  0  0  0  0  0  0
   -0.9476   -2.2386    0.0140 C   0  0  0  0  0  0  0  0  0  0  0  0
   -1.3357   -0.9262    0.0171 O   0  0  0  0  0  0  0  0  0  0  0  0
    1.5727    3.7224    0.0714 H   0  0  0  0  0  0  0  0  0  0  0  0
   -0.1572    3.6557    0.0220 H   0  0  0  0  0  0  0  0  0  0  0  0
    1.7611    1.3918    0.0113 H   0  0  0  0  0  0  0  0  0  0  0  0
    1.0608   -3.1261   -0.0138 H   0  0  0  0  0  0  0  0  0  0  0  0
   -1.7322   -2.9745    0.0260 H   0  0  0  0  0  0  0  0  0  0  0  0
  1  2  1  0  0  0  0
  1 10  1  0  0  0  0
  1  9  1  0  0  0  0
  2 11  1  0  0  0  0
  3  2  2  0  0  0  0
  4  3  1  0  0  0  0
  4  8  1  0  0  0  0
  5  6  1  0  0  0  0
  5  4  2  0  0  0  0
  6  7  2  0  0  0  0
  7  8  1  0  0  0  0
  7 13  1  0  0  0  0
 12  6  1  0  0  0  0
M  END
