16
title
C 1.4875884 2.4379628 0.956164
C 1.479321 0.94218546 1.2917901
N 0.13052571 0.39553896 1.2734684
C -0.2744633 -0.20869605 0.24228652
N -1.5207967 -0.7777422 0.053708155
C -1.5718104 -1.3999866 -1.1904205
C -0.39012933 -1.1851946 -1.7761523
O 0.42512774 -0.44969216 -0.93252724
H 2.4967842 2.852937 1.0525031
H 1.1448761 2.6074843 -0.06969646
H 0.8216648 2.9854314 1.6298758
H 2.1539552 0.4104286 0.6059434
H 1.8784192 0.803519 2.3039107
H -2.2025087 -0.82304114 0.78834766
H -2.4452455 -1.9205283 -1.5426949
H 0.018913144 -1.4534832 -2.7335007
