title
 OpenBabel02282109573D

 16 16  0  0  0  0  0  0  0  0999 V2000
    1.4876    2.4380    0.9562 C   0  0  0  0  0  0  0  0  0  0  0  0
    1.4793    0.9422    1.2918 C   0  0  0  0  0  0  0  0  0  0  0  0
    0.1305    0.3955    1.2735 N   0  0  0  0  0  0  0  0  0  0  0  0
   -0.2745   -0.2087    0.2423 C   0  0  0  0  0  0  0  0  0  0  0  0
   -1.5208   -0.7777    0.0537 N   0  0  0  0  0  0  0  0  0  0  0  0
   -1.5718   -1.4000   -1.1904 C   0  0  0  0  0  0  0  0  0  0  0  0
   -0.3901   -1.1852   -1.7762 C   0  0  0  0  0  0  0  0  0  0  0  0
    0.4251   -0.4497   -0.9325 O   0  0  0  0  0  0  0  0  0  0  0  0
    2.4968    2.8529    1.0525 H   0  0  0  0  0  0  0  0  0  0  0  0
    1.1449    2.6075   -0.0697 H   0  0  0  0  0  0  0  0  0  0  0  0
    0.8217    2.9854    1.6299 H   0  0  0  0  0  0  0  0  0  0  0  0
    2.1540    0.4104    0.6059 H   0  0  0  0  0  0  0  0  0  0  0  0
    1.8784    0.8035    2.3039 H   0  0  0  0  0  0  0  0  0  0  0  0
   -2.2025   -0.8230    0.7883 H   0  0  0  0  0  0  0  0  0  0  0  0
   -2.4452   -1.9205   -1.5427 H   0  0  0  0  0  0  0  0  0  0  0  0
    0.0189   -1.4535   -2.7335 H   0  0  0  0  0  0  0  0  0  0  0  0
  1  9  1  0  0  0  0
  1  2  1  0  0  0  0
  1 11  1  0  0  0  0
  2 13  1  0  0  0  0
  3  2  1  0  0  0  0
  4  3  2  0  0  0  0
  5  4  1  0  0  0  0
  5 14  1  0  0  0  0
  6  5  1  0  0  0  0
  7  6  2  0  0  0  0
  7  8  1  0  0  0  0
  8  4  1  0  0  0  0
 10  1  1  0  0  0  0
 12  2  1  0  0  0  0
 15  6  1  0  0  0  0
 16  7  1  0  0  0  0
M  END
