title
 OpenBabel02282109573D

 15 15  0  0  0  0  0  0  0  0999 V2000
    1.7077    2.5669    1.2805 C   0  0  0  0  0  0  0  0  0  0  0  0
    1.4555    1.0740    1.0761 C   0  0  0  0  0  0  0  0  0  0  0  0
    0.0391    0.8307    0.8351 N   0  0  0  0  0  0  0  0  0  0  0  0
   -0.3072   -0.0876    0.0634 C   0  0  0  0  0  0  0  0  0  0  0  0
    0.4933   -0.9690   -0.6384 O   0  0  0  0  0  0  0  0  0  0  0  0
   -0.3555   -1.7833   -1.3646 C   0  0  0  0  0  0  0  0  0  0  0  0
   -1.6099   -1.4284   -1.1147 C   0  0  0  0  0  0  0  0  0  0  0  0
   -1.6169   -0.3757   -0.2243 O   0  0  0  0  0  0  0  0  0  0  0  0
    2.7622    2.7527    1.5089 H   0  0  0  0  0  0  0  0  0  0  0  0
    1.4456    3.1311    0.3802 H   0  0  0  0  0  0  0  0  0  0  0  0
    1.0985    2.9484    2.1047 H   0  0  0  0  0  0  0  0  0  0  0  0
    2.0857    0.6938    0.2600 H   0  0  0  0  0  0  0  0  0  0  0  0
    1.7543    0.5293    1.9828 H   0  0  0  0  0  0  0  0  0  0  0  0
    0.0935   -2.5388   -1.9841 H   0  0  0  0  0  0  0  0  0  0  0  0
   -2.5636   -1.7884   -1.4563 H   0  0  0  0  0  0  0  0  0  0  0  0
  1  9  1  0  0  0  0
  1 11  1  0  0  0  0
  2  1  1  0  0  0  0
  2 13  1  0  0  0  0
  3  2  1  0  0  0  0
  4  3  2  0  0  0  0
  5  4  1  0  0  0  0
  6  7  2  0  0  0  0
  6  5  1  0  0  0  0
  7  8  1  0  0  0  0
  8  4  1  0  0  0  0
 10  1  1  0  0  0  0
 12  2  1  0  0  0  0
 14  6  1  0  0  0  0
 15  7  1  0  0  0  0
M  END
