18
title
C -0.4897404 3.256097 -1.0162653
C -0.12159724 1.7773424 -1.0677207
N -0.51471496 1.0997666 0.17998308
C -0.18269658 -0.26618928 0.26711267
C -0.8685663 -1.4255023 -0.02970689
C -0.019973522 -2.5212135 0.30112988
C 1.160198 -2.0019956 0.7768132
N 1.0502465 -0.63247186 0.7542637
H -0.013015515 3.7453372 -0.16191602
H -0.1760053 3.7649777 -1.9324467
H -1.5735697 3.3896437 -0.91849774
H -0.57510394 1.3031166 -1.9539284
H 0.9627915 1.6647999 -1.1773051
H -1.5093098 1.2211449 0.33393162
H -1.8638824 -1.4766946 -0.44492203
H -0.24859837 -3.5703168 0.19135433
H 2.060242 -2.4824376 1.1245013
H 1.719256 0.024885476 1.1159195
