17
title
C 1.3455672 3.1361077 0.025498062
C 1.1750001 1.6574891 -0.304166
N -0.1378517 1.1847287 0.1446809
C -0.44736156 -0.15734844 0.016992465
C -1.6019999 -0.8269635 -0.27386636
C -1.2880958 -2.2221494 -0.13526282
C 0.018229982 -2.2953615 0.21052875
O 0.54806155 -1.029681 0.3119474
H 2.332958 3.4864755 -0.28804842
H 0.5980537 3.747806 -0.49336404
H 1.2376106 3.3087726 1.1000347
H 1.3234589 1.4897099 -1.3836648
H 1.9331901 1.0658531 0.21493445
H -0.89515555 1.7649841 -0.19085672
H -2.5468097 -0.38873532 -0.5524894
H -1.9564866 -3.0556056 -0.28657958
H 0.70646906 -3.0999377 0.40283334
