title
 OpenBabel02282109573D

 16 16  0  0  0  0  0  0  0  0999 V2000
    1.3532    3.1549    0.0623 C   0  0  0  0  0  0  0  0  0  0  0  0
    1.1834    1.6840   -0.2987 C   0  0  0  0  0  0  0  0  0  0  0  0
   -0.1269    1.1974    0.1502 N   0  0  0  0  0  0  0  0  0  0  0  0
   -0.4280   -0.1402    0.0090 C   0  0  0  0  0  0  0  0  0  0  0  0
   -1.5411   -0.8480   -0.3309 C   0  0  0  0  0  0  0  0  0  0  0  0
   -1.2729   -2.2072   -0.1813 N   0  0  0  0  0  0  0  0  0  0  0  0
   -0.0491   -2.2554    0.2118 C   0  0  0  0  0  0  0  0  0  0  0  0
    0.5441   -1.0315    0.3592 O   0  0  0  0  0  0  0  0  0  0  0  0
    2.3373    3.5133   -0.2521 H   0  0  0  0  0  0  0  0  0  0  0  0
    0.6006    3.7763   -0.4370 H   0  0  0  0  0  0  0  0  0  0  0  0
    1.2545    3.3035    1.1412 H   0  0  0  0  0  0  0  0  0  0  0  0
    1.3209    1.5393   -1.3825 H   0  0  0  0  0  0  0  0  0  0  0  0
    1.9458    1.0820    0.2023 H   0  0  0  0  0  0  0  0  0  0  0  0
   -0.8896    1.7789   -0.1714 H   0  0  0  0  0  0  0  0  0  0  0  0
   -2.4999   -0.4856   -0.6634 H   0  0  0  0  0  0  0  0  0  0  0  0
    0.5675   -3.1134    0.4239 H   0  0  0  0  0  0  0  0  0  0  0  0
  1 11  1  0  0  0  0
  2  1  1  0  0  0  0
  2  3  1  0  0  0  0
  2 13  1  0  0  0  0
  4  3  1  0  0  0  0
  4  8  1  0  0  0  0
  5  6  1  0  0  0  0
  5  4  2  0  0  0  0
  6  7  2  0  0  0  0
  7  8  1  0  0  0  0
  7 16  1  0  0  0  0
  9  1  1  0  0  0  0
 10  1  1  0  0  0  0
 12  2  1  0  0  0  0
 14  3  1  0  0  0  0
 15  5  1  0  0  0  0
M  END
