16
title
C 1.1376566 3.124524 0.0067208093
C 1.1575953 1.6081533 -0.0013024913
O -0.2068413 1.1625323 0.008240822
C -0.4310666 -0.15397291 0.0026658324
C -1.6038771 -0.8454302 0.0069248136
C -1.2236533 -2.2306035 -0.0026718397
C 0.1300333 -2.2705965 -0.011911779
O 0.6348704 -0.9883347 -0.008725682
H 2.1617234 3.5093274 -0.0001072325
H 0.616052 3.509607 -0.8736525
H 0.63134515 3.5004075 0.8999054
H 1.6626955 1.2179221 -0.8927009
H 1.6780641 1.2087853 0.87710136
H -2.5940475 -0.42285877 0.01565149
H -1.8859746 -3.082409 -0.0026318582
H 0.8659257 -3.0552964 -0.020938184
