title
 OpenBabel02282109573D

 16 16  0  0  0  0  0  0  0  0999 V2000
    0.9224    3.2573    0.1184 C   0  0  0  0  0  0  0  0  0  0  0  0
    0.3302    1.9887   -0.4640 C   0  0  0  0  0  0  0  0  0  0  0  0
    0.4720    0.9480    0.5050 O   0  0  0  0  0  0  0  0  0  0  0  0
   -0.0132   -0.2476    0.1227 C   0  0  0  0  0  0  0  0  0  0  0  0
   -0.6312   -0.7417   -0.9985 C   0  0  0  0  0  0  0  0  0  0  0  0
   -0.9121   -2.0852   -0.8186 N   0  0  0  0  0  0  0  0  0  0  0  0
   -0.4752   -2.3871    0.3752 C   0  0  0  0  0  0  0  0  0  0  0  0
    0.0858   -1.2999    0.9993 N   0  0  0  0  0  0  0  0  0  0  0  0
    0.8297    4.0764   -0.6005 H   0  0  0  0  0  0  0  0  0  0  0  0
    0.4012    3.5416    1.0367 H   0  0  0  0  0  0  0  0  0  0  0  0
    1.9819    3.1186    0.3507 H   0  0  0  0  0  0  0  0  0  0  0  0
   -0.7348    2.1166   -0.7016 H   0  0  0  0  0  0  0  0  0  0  0  0
    0.8465    1.6933   -1.3877 H   0  0  0  0  0  0  0  0  0  0  0  0
   -0.8879   -0.2258   -1.9088 H   0  0  0  0  0  0  0  0  0  0  0  0
   -0.5276   -3.3547    0.8508 H   0  0  0  0  0  0  0  0  0  0  0  0
    0.4961   -1.2519    1.9167 H   0  0  0  0  0  0  0  0  0  0  0  0
  1 11  1  0  0  0  0
  1 10  1  0  0  0  0
  2  1  1  0  0  0  0
  2  3  1  0  0  0  0
  4  3  1  0  0  0  0
  4  8  1  0  0  0  0
  5  6  1  0  0  0  0
  5  4  2  0  0  0  0
  6  7  2  0  0  0  0
  7 15  1  0  0  0  0
  7  8  1  0  0  0  0
  8 16  1  0  0  0  0
  9  1  1  0  0  0  0
 12  2  1  0  0  0  0
 13  2  1  0  0  0  0
 14  5  1  0  0  0  0
M  END
