15
title
C 1.1223049 3.1598475 0.025994446
C 1.107543 1.6675327 -0.23715208
O -0.15717746 1.1551076 0.23589647
C -0.38280037 -0.14069188 0.041935448
C -1.4645793 -0.83625007 -0.38610455
N -1.1834085 -2.197844 -0.29797366
C 0.02210615 -2.251774 0.15411223
O 0.59123 -1.0380833 0.3973893
H 2.0689204 3.5881248 -0.3160041
H 0.30444762 3.655315 -0.5039384
H 1.0155163 3.3632026 1.0949607
H 1.1995895 1.4450393 -1.3079008
H 1.9214913 1.1594691 0.29054427
H -2.4093506 -0.4592607 -0.73894966
H 0.6337674 -3.1175926 0.35109553
