17
title
C 0.15439056 3.241368 -0.45144692
O 0.1912028 1.8405606 -0.59051037
C 0.11946641 1.163008 0.6549313
C 0.070089266 -0.30390722 0.39869687
C 0.6059074 -1.3763254 1.0768454
C 0.17521398 -2.560573 0.41465962
C -0.603482 -2.1736083 -0.65123934
N -0.67335546 -0.8042229 -0.64070344
H 0.19506405 3.6711814 -1.4551637
H -0.7692163 3.579334 0.0452449
H 1.0113682 3.615721 0.12992272
H 0.9886631 1.4002848 1.2883109
H -0.77769136 1.5103759 1.2004448
H 1.2306229 -1.3156385 1.955357
H 0.41438532 -3.5767946 0.6876759
H -1.0990458 -2.7499938 -1.4158136
H -1.0871327 -0.22158413 -1.3480053
