title
 OpenBabel02282109573D

 16 16  0  0  0  0  0  0  0  0999 V2000
    0.7482    3.2508   -0.0376 C   0  0  0  0  0  0  0  0  0  0  0  0
    0.7980    1.8471   -0.1328 O   0  0  0  0  0  0  0  0  0  0  0  0
   -0.4556    1.2428    0.0700 C   0  0  0  0  0  0  0  0  0  0  0  0
   -0.2730   -0.2390    0.0409 C   0  0  0  0  0  0  0  0  0  0  0  0
    0.8395   -1.0339    0.1316 C   0  0  0  0  0  0  0  0  0  0  0  0
    0.4956   -2.3676    0.0744 N   0  0  0  0  0  0  0  0  0  0  0  0
   -0.8089   -2.3838   -0.0469 C   0  0  0  0  0  0  0  0  0  0  0  0
   -1.3290   -1.1199   -0.0740 N   0  0  0  0  0  0  0  0  0  0  0  0
    1.7615    3.6228   -0.2037 H   0  0  0  0  0  0  0  0  0  0  0  0
    0.0795    3.6881   -0.7961 H   0  0  0  0  0  0  0  0  0  0  0  0
    0.4043    3.5814    0.9553 H   0  0  0  0  0  0  0  0  0  0  0  0
   -0.8841    1.5697    1.0366 H   0  0  0  0  0  0  0  0  0  0  0  0
   -1.1743    1.5613   -0.7092 H   0  0  0  0  0  0  0  0  0  0  0  0
    1.8640   -0.7129    0.2270 H   0  0  0  0  0  0  0  0  0  0  0  0
   -1.4329   -3.2621   -0.1204 H   0  0  0  0  0  0  0  0  0  0  0  0
   -2.3008   -0.8770   -0.1713 H   0  0  0  0  0  0  0  0  0  0  0  0
  1 11  1  0  0  0  0
  2  1  1  0  0  0  0
  2  3  1  0  0  0  0
  3 12  1  0  0  0  0
  4  3  1  0  0  0  0
  4  5  2  0  0  0  0
  5 14  1  0  0  0  0
  6  5  1  0  0  0  0
  7  6  2  0  0  0  0
  8  7  1  0  0  0  0
  8  4  1  0  0  0  0
  9  1  1  0  0  0  0
 10  1  1  0  0  0  0
 13  3  1  0  0  0  0
 15  7  1  0  0  0  0
 16  8  1  0  0  0  0
M  END
