15
title
C -0.15214908 3.259742 -0.6864947
O 0.055116232 1.8681587 -0.7666253
C -0.30895475 1.1960095 0.4123403
C -0.046392772 -0.2550573 0.20653929
C 0.43623376 -1.0031464 -0.81302583
N 0.45929337 -2.3418136 -0.4267047
C -0.00030929293 -2.3298717 0.7781007
O -0.33394367 -1.0993636 1.2446924
H 0.4455552 3.714478 0.118767455
H 0.15642864 3.6878486 -1.6424838
H -1.2113069 3.5039442 -0.51036453
H 0.26693857 1.5694304 1.2783258
H -1.3748448 1.3611168 0.6524544
H 0.7648687 -0.67873615 -1.7856249
H -0.15151793 -3.1579142 1.4522858
