title
 OpenBabel02282109573D

 15 15  0  0  0  0  0  0  0  0999 V2000
   -0.1521    3.2597   -0.6865 C   0  0  0  0  0  0  0  0  0  0  0  0
    0.0551    1.8682   -0.7666 O   0  0  0  0  0  0  0  0  0  0  0  0
   -0.3090    1.1960    0.4123 C   0  0  0  0  0  0  0  0  0  0  0  0
   -0.0464   -0.2551    0.2065 C   0  0  0  0  0  0  0  0  0  0  0  0
    0.4362   -1.0031   -0.8130 C   0  0  0  0  0  0  0  0  0  0  0  0
    0.4593   -2.3418   -0.4267 N   0  0  0  0  0  0  0  0  0  0  0  0
   -0.0003   -2.3299    0.7781 C   0  0  0  0  0  0  0  0  0  0  0  0
   -0.3339   -1.0994    1.2447 O   0  0  0  0  0  0  0  0  0  0  0  0
    0.4456    3.7145    0.1188 H   0  0  0  0  0  0  0  0  0  0  0  0
    0.1564    3.6878   -1.6425 H   0  0  0  0  0  0  0  0  0  0  0  0
   -1.2113    3.5039   -0.5104 H   0  0  0  0  0  0  0  0  0  0  0  0
    0.2669    1.5694    1.2783 H   0  0  0  0  0  0  0  0  0  0  0  0
   -1.3748    1.3611    0.6525 H   0  0  0  0  0  0  0  0  0  0  0  0
    0.7649   -0.6787   -1.7856 H   0  0  0  0  0  0  0  0  0  0  0  0
   -0.1515   -3.1579    1.4523 H   0  0  0  0  0  0  0  0  0  0  0  0
  1 11  1  0  0  0  0
  1  9  1  0  0  0  0
  2  1  1  0  0  0  0
  2  3  1  0  0  0  0
  3 13  1  0  0  0  0
  3 12  1  0  0  0  0
  4  3  1  0  0  0  0
  4  8  1  0  0  0  0
  5  6  1  0  0  0  0
  5  4  2  0  0  0  0
  6  7  2  0  0  0  0
  7  8  1  0  0  0  0
  7 15  1  0  0  0  0
 10  1  1  0  0  0  0
 14  5  1  0  0  0  0
M  END
