title
 OpenBabel02282109573D

 16 16  0  0  0  0  0  0  0  0999 V2000
    0.8092    3.1554   -0.0128 C   0  0  0  0  0  0  0  0  0  0  0  0
    0.7745    1.7502   -0.1140 O   0  0  0  0  0  0  0  0  0  0  0  0
   -0.5227    1.2165    0.0647 C   0  0  0  0  0  0  0  0  0  0  0  0
   -0.4204   -0.2750    0.0139 C   0  0  0  0  0  0  0  0  0  0  0  0
   -1.4152   -1.1240   -0.1160 N   0  0  0  0  0  0  0  0  0  0  0  0
   -0.8329   -2.3715   -0.0719 C   0  0  0  0  0  0  0  0  0  0  0  0
    0.5242   -2.2672    0.0817 C   0  0  0  0  0  0  0  0  0  0  0  0
    0.7740   -0.9139    0.1413 N   0  0  0  0  0  0  0  0  0  0  0  0
    1.8458    3.4675   -0.1587 H   0  0  0  0  0  0  0  0  0  0  0  0
    0.1817    3.6321   -0.7809 H   0  0  0  0  0  0  0  0  0  0  0  0
    0.4669    3.5001    0.9752 H   0  0  0  0  0  0  0  0  0  0  0  0
   -0.9398    1.5423    1.0333 H   0  0  0  0  0  0  0  0  0  0  0  0
   -1.2150    1.5668   -0.7161 H   0  0  0  0  0  0  0  0  0  0  0  0
   -1.4244   -3.2703   -0.1576 H   0  0  0  0  0  0  0  0  0  0  0  0
    1.3130   -2.9978    0.1452 H   0  0  0  0  0  0  0  0  0  0  0  0
    1.6612   -0.4453    0.2163 H   0  0  0  0  0  0  0  0  0  0  0  0
  1 11  1  0  0  0  0
  2  1  1  0  0  0  0
  2  3  1  0  0  0  0
  3 12  1  0  0  0  0
  4  3  1  0  0  0  0
  4  8  1  0  0  0  0
  5  6  1  0  0  0  0
  5  4  2  0  0  0  0
  6  7  2  0  0  0  0
  7  8  1  0  0  0  0
  7 15  1  0  0  0  0
  8 16  1  0  0  0  0
  9  1  1  0  0  0  0
 10  1  1  0  0  0  0
 13  3  1  0  0  0  0
 14  6  1  0  0  0  0
M  END
