16
title
C 0.8092478 3.155425 -0.012792632
O 0.77450347 1.7501711 -0.11399477
C -0.5226591 1.216514 0.06466801
C -0.4203691 -0.27504557 0.013903042
N -1.4151837 -1.1239849 -0.11596187
C -0.83286566 -2.3715134 -0.071929865
C 0.5241692 -2.2672424 0.08169521
N 0.7739877 -0.9138693 0.14132686
H 1.8458314 3.4675348 -0.15871401
H 0.1817237 3.6321497 -0.7809172
H 0.4668618 3.5001354 0.9751532
H -0.9398069 1.542274 1.0333081
H -1.2150298 1.5667812 -0.7160515
H -1.4243819 -3.2702909 -0.1575511
H 1.3129896 -2.9977517 0.14522687
H 1.6612355 -0.4452564 0.21625084
