15
title
C 0.7665958 3.1697779 -0.1368058
O 0.80124784 1.7611269 -0.109236844
C -0.45471042 1.1994741 0.20822923
C -0.34884566 -0.28540877 0.18220599
N -0.52227074 -1.1158485 1.1620345
C -0.3242386 -2.3683078 0.59552866
C -0.0351107 -2.2164996 -0.7176453
O -0.05259471 -0.8819177 -1.0002996
H 1.7707789 3.5122712 -0.395795
H 0.05548246 3.5456553 -0.8895432
H 0.48666063 3.5912623 0.8413194
H -0.7895791 1.4895531 1.2141571
H -1.2176491 1.5357829 -0.5147058
H -0.40215236 -3.2745392 1.1744248
H 0.19350262 -2.8798387 -1.5337715
