title
 OpenBabel02282109573D

 15 15  0  0  0  0  0  0  0  0999 V2000
    0.7666    3.1698   -0.1368 C   0  0  0  0  0  0  0  0  0  0  0  0
    0.8012    1.7611   -0.1092 O   0  0  0  0  0  0  0  0  0  0  0  0
   -0.4547    1.1995    0.2082 C   0  0  0  0  0  0  0  0  0  0  0  0
   -0.3488   -0.2854    0.1822 C   0  0  0  0  0  0  0  0  0  0  0  0
   -0.5223   -1.1158    1.1620 N   0  0  0  0  0  0  0  0  0  0  0  0
   -0.3242   -2.3683    0.5955 C   0  0  0  0  0  0  0  0  0  0  0  0
   -0.0351   -2.2165   -0.7176 C   0  0  0  0  0  0  0  0  0  0  0  0
   -0.0526   -0.8819   -1.0003 O   0  0  0  0  0  0  0  0  0  0  0  0
    1.7708    3.5123   -0.3958 H   0  0  0  0  0  0  0  0  0  0  0  0
    0.0555    3.5457   -0.8895 H   0  0  0  0  0  0  0  0  0  0  0  0
    0.4867    3.5913    0.8413 H   0  0  0  0  0  0  0  0  0  0  0  0
   -0.7896    1.4896    1.2142 H   0  0  0  0  0  0  0  0  0  0  0  0
   -1.2176    1.5358   -0.5147 H   0  0  0  0  0  0  0  0  0  0  0  0
   -0.4022   -3.2745    1.1744 H   0  0  0  0  0  0  0  0  0  0  0  0
    0.1935   -2.8798   -1.5338 H   0  0  0  0  0  0  0  0  0  0  0  0
  1  2  1  0  0  0  0
  1 11  1  0  0  0  0
  2  3  1  0  0  0  0
  3 12  1  0  0  0  0
  4  3  1  0  0  0  0
  4  5  2  0  0  0  0
  6  5  1  0  0  0  0
  6 14  1  0  0  0  0
  7  6  2  0  0  0  0
  8  7  1  0  0  0  0
  8  4  1  0  0  0  0
  9  1  1  0  0  0  0
 10  1  1  0  0  0  0
 13  3  1  0  0  0  0
 15  7  1  0  0  0  0
M  END
