17
title
O 0.9171794 3.2154958 0.10396504
C 1.0319571 1.802131 0.063567884
C -0.3772823 1.2260267 -0.10992071
C -0.40462807 -0.26822647 -0.13850349
C -0.45558956 -1.1575123 -1.1910908
C -0.41704062 -2.4758103 -0.6566142
C -0.34315565 -2.3597333 0.7108134
N -0.3326532 -1.020398 1.0133821
H 1.8015382 3.5887787 0.15879743
H 1.6649492 1.4675336 -0.7721708
H 1.4827925 1.4096339 0.98989606
H -1.0078752 1.6174155 0.69886553
H -0.7946573 1.6138407 -1.0438918
H -0.5176113 -0.88385713 -2.233861
H -0.4474143 -3.4007761 -1.2117085
H -0.30518213 -3.1055171 1.4884615
H -0.30410793 -0.63933 1.9432032
