title
 OpenBabel02282109573D

 17 17  0  0  0  0  0  0  0  0999 V2000
    0.9172    3.2155    0.1040 O   0  0  0  0  0  0  0  0  0  0  0  0
    1.0320    1.8021    0.0636 C   0  0  0  0  0  0  0  0  0  0  0  0
   -0.3773    1.2260   -0.1099 C   0  0  0  0  0  0  0  0  0  0  0  0
   -0.4046   -0.2682   -0.1385 C   0  0  0  0  0  0  0  0  0  0  0  0
   -0.4556   -1.1575   -1.1911 C   0  0  0  0  0  0  0  0  0  0  0  0
   -0.4170   -2.4758   -0.6566 C   0  0  0  0  0  0  0  0  0  0  0  0
   -0.3432   -2.3597    0.7108 C   0  0  0  0  0  0  0  0  0  0  0  0
   -0.3327   -1.0204    1.0134 N   0  0  0  0  0  0  0  0  0  0  0  0
    1.8015    3.5888    0.1588 H   0  0  0  0  0  0  0  0  0  0  0  0
    1.6649    1.4675   -0.7722 H   0  0  0  0  0  0  0  0  0  0  0  0
    1.4828    1.4096    0.9899 H   0  0  0  0  0  0  0  0  0  0  0  0
   -1.0079    1.6174    0.6989 H   0  0  0  0  0  0  0  0  0  0  0  0
   -0.7947    1.6138   -1.0439 H   0  0  0  0  0  0  0  0  0  0  0  0
   -0.5176   -0.8839   -2.2339 H   0  0  0  0  0  0  0  0  0  0  0  0
   -0.4474   -3.4008   -1.2117 H   0  0  0  0  0  0  0  0  0  0  0  0
   -0.3052   -3.1055    1.4885 H   0  0  0  0  0  0  0  0  0  0  0  0
   -0.3041   -0.6393    1.9432 H   0  0  0  0  0  0  0  0  0  0  0  0
  1  9  1  0  0  0  0
  2  1  1  0  0  0  0
  2 11  1  0  0  0  0
  3  2  1  0  0  0  0
  3 12  1  0  0  0  0
  4  3  1  0  0  0  0
  4  8  1  0  0  0  0
  5  6  1  0  0  0  0
  5  4  2  0  0  0  0
  6  7  2  0  0  0  0
  7  8  1  0  0  0  0
  7 16  1  0  0  0  0
  8 17  1  0  0  0  0
 10  2  1  0  0  0  0
 13  3  1  0  0  0  0
 14  5  1  0  0  0  0
 15  6  1  0  0  0  0
M  END
