16
title
O 0.9047663 3.1915262 -0.1425861
C 1.019075 1.7781109 -0.11205601
C -0.37895364 1.2142739 0.15845044
C -0.4103244 -0.2726101 0.20515174
C -0.6524691 -1.1783711 1.1920004
C -0.52180976 -2.478347 0.6006453
C -0.20798214 -2.2652009 -0.7018999
O -0.13514109 -0.9312622 -0.961508
H 1.7712737 3.559407 -0.3380129
H 1.3937368 1.3806027 -1.0668421
H 1.7076812 1.4436439 0.67958766
H -0.7406035 1.6051822 1.1139827
H -1.0541204 1.5900505 -0.6199481
H -0.8980784 -0.94798845 2.2170675
H -0.6482709 -3.4347818 1.0831062
H -0.01474072 -2.9153697 -1.5390458
