title
 OpenBabel02282109573D

 16 16  0  0  0  0  0  0  0  0999 V2000
    0.9048    3.1915   -0.1426 O   0  0  0  0  0  0  0  0  0  0  0  0
    1.0191    1.7781   -0.1121 C   0  0  0  0  0  0  0  0  0  0  0  0
   -0.3790    1.2143    0.1585 C   0  0  0  0  0  0  0  0  0  0  0  0
   -0.4103   -0.2726    0.2052 C   0  0  0  0  0  0  0  0  0  0  0  0
   -0.6525   -1.1784    1.1920 C   0  0  0  0  0  0  0  0  0  0  0  0
   -0.5218   -2.4783    0.6006 C   0  0  0  0  0  0  0  0  0  0  0  0
   -0.2080   -2.2652   -0.7019 C   0  0  0  0  0  0  0  0  0  0  0  0
   -0.1351   -0.9313   -0.9615 O   0  0  0  0  0  0  0  0  0  0  0  0
    1.7713    3.5594   -0.3380 H   0  0  0  0  0  0  0  0  0  0  0  0
    1.3937    1.3806   -1.0668 H   0  0  0  0  0  0  0  0  0  0  0  0
    1.7077    1.4436    0.6796 H   0  0  0  0  0  0  0  0  0  0  0  0
   -0.7406    1.6052    1.1140 H   0  0  0  0  0  0  0  0  0  0  0  0
   -1.0541    1.5901   -0.6199 H   0  0  0  0  0  0  0  0  0  0  0  0
   -0.8981   -0.9480    2.2171 H   0  0  0  0  0  0  0  0  0  0  0  0
   -0.6483   -3.4348    1.0831 H   0  0  0  0  0  0  0  0  0  0  0  0
   -0.0147   -2.9154   -1.5390 H   0  0  0  0  0  0  0  0  0  0  0  0
  1  2  1  0  0  0  0
  2  3  1  0  0  0  0
  2 11  1  0  0  0  0
  3  4  1  0  0  0  0
  3 12  1  0  0  0  0
  4  5  2  0  0  0  0
  5 14  1  0  0  0  0
  6 15  1  0  0  0  0
  6  5  1  0  0  0  0
  7  6  2  0  0  0  0
  8  7  1  0  0  0  0
  8  4  1  0  0  0  0
  9  1  1  0  0  0  0
 10  2  1  0  0  0  0
 13  3  1  0  0  0  0
 16  7  1  0  0  0  0
M  END
