15
title
O 0.9411433 3.2016666 -0.12086414
C 1.0477403 1.7888789 -0.10170053
C -0.3588285 1.2359242 0.14932628
C -0.40703103 -0.24788311 0.18616466
C -0.6728176 -1.1803563 1.1342535
N -0.5604296 -2.4549212 0.58801895
C -0.23591456 -2.2365546 -0.6421146
O -0.12021825 -0.92919636 -0.97420734
H 1.8130791 3.568578 -0.29285908
H 1.4298187 1.3968091 -1.0560431
H 1.724546 1.4419253 0.694523
H -0.7269765 1.6218919 1.1044942
H -1.0236539 1.6229666 -0.6321132
H -0.9402777 -1.0279393 2.1679325
H -0.04928634 -2.9538336 -1.4258841
