title
 OpenBabel02282109573D

 19 19  0  0  0  0  0  0  0  0999 V2000
   -0.5405    3.4089   -0.9427 C   0  0  0  0  0  0  0  0  0  0  0  0
   -0.4672    1.8804   -0.9601 C   0  0  0  0  0  0  0  0  0  0  0  0
    0.0686    1.2888    0.3573 C   0  0  0  0  0  0  0  0  0  0  0  0
    0.1567   -0.2102    0.3533 C   0  0  0  0  0  0  0  0  0  0  0  0
   -0.6574   -1.0816    1.0433 C   0  0  0  0  0  0  0  0  0  0  0  0
   -0.2639   -2.3644    0.7504 N   0  0  0  0  0  0  0  0  0  0  0  0
    0.7961   -2.3339   -0.1185 C   0  0  0  0  0  0  0  0  0  0  0  0
    1.0791   -1.0153   -0.3838 C   0  0  0  0  0  0  0  0  0  0  0  0
    0.4479    3.8518   -0.7747 H   0  0  0  0  0  0  0  0  0  0  0  0
   -0.9244    3.8025   -1.8893 H   0  0  0  0  0  0  0  0  0  0  0  0
   -1.1995    3.7655   -0.1427 H   0  0  0  0  0  0  0  0  0  0  0  0
   -1.4605    1.4594   -1.1588 H   0  0  0  0  0  0  0  0  0  0  0  0
    0.1717    1.5487   -1.7878 H   0  0  0  0  0  0  0  0  0  0  0  0
    1.0582    1.7217    0.5591 H   0  0  0  0  0  0  0  0  0  0  0  0
   -0.5773    1.6140    1.1828 H   0  0  0  0  0  0  0  0  0  0  0  0
   -1.4780   -0.8906    1.7171 H   0  0  0  0  0  0  0  0  0  0  0  0
   -0.6804   -3.1971    1.1268 H   0  0  0  0  0  0  0  0  0  0  0  0
    1.2565   -3.2446   -0.4667 H   0  0  0  0  0  0  0  0  0  0  0  0
    1.8650   -0.6573   -1.0325 H   0  0  0  0  0  0  0  0  0  0  0  0
  1  9  1  0  0  0  0
  1 11  1  0  0  0  0
  2  1  1  0  0  0  0
  2  3  1  0  0  0  0
  3 14  1  0  0  0  0
  3 15  1  0  0  0  0
  4  3  1  0  0  0  0
  4  5  2  0  0  0  0
  5 16  1  0  0  0  0
  6  5  1  0  0  0  0
  6 17  1  0  0  0  0
  7  6  1  0  0  0  0
  8  7  2  0  0  0  0
  8  4  1  0  0  0  0
 10  1  1  0  0  0  0
 12  2  1  0  0  0  0
 13  2  1  0  0  0  0
 18  7  1  0  0  0  0
 19  8  1  0  0  0  0
M  END
