19
title
C -0.54052985 3.4089394 -0.9426588
C -0.46722305 1.8803575 -0.9601244
C 0.068610296 1.2888067 0.35725668
C 0.15674065 -0.2102138 0.35327747
C -0.6574356 -1.0816146 1.043252
N -0.26394492 -2.3643744 0.7503884
C 0.79613507 -2.3338993 -0.118499205
C 1.0791463 -1.0153474 -0.383792
H 0.4479108 3.8517838 -0.77467376
H -0.92442584 3.8024993 -1.8892573
H -1.1995358 3.7654881 -0.14266197
H -1.4605438 1.45944 -1.1587662
H 0.17173146 1.5486587 -1.787835
H 1.0582197 1.7217153 0.5590526
H -0.57728136 1.6140445 1.1827649
H -1.4779952 -0.89063203 1.7170521
H -0.68041885 -3.1970904 1.1267508
H 1.2564929 -3.2446191 -0.46670336
H 1.8649739 -0.65733874 -1.0324562
