title
 OpenBabel02282109573D

 18 18  0  0  0  0  0  0  0  0999 V2000
   -0.6128    3.3750   -0.8959 C   0  0  0  0  0  0  0  0  0  0  0  0
   -0.4451    1.8549   -0.9447 C   0  0  0  0  0  0  0  0  0  0  0  0
    0.0912    1.2693    0.3736 C   0  0  0  0  0  0  0  0  0  0  0  0
    0.1962   -0.2237    0.3528 C   0  0  0  0  0  0  0  0  0  0  0  0
    1.3188   -1.0089    0.4226 C   0  0  0  0  0  0  0  0  0  0  0  0
    0.8689   -2.3110    0.3479 N   0  0  0  0  0  0  0  0  0  0  0  0
   -0.4874   -2.2586    0.2380 C   0  0  0  0  0  0  0  0  0  0  0  0
   -0.9261   -1.0224    0.2371 N   0  0  0  0  0  0  0  0  0  0  0  0
    0.3412    3.8761   -0.6945 H   0  0  0  0  0  0  0  0  0  0  0  0
   -0.9982    3.7643   -1.8436 H   0  0  0  0  0  0  0  0  0  0  0  0
   -1.3124    3.6707   -0.1059 H   0  0  0  0  0  0  0  0  0  0  0  0
   -1.4042    1.3760   -1.1700 H   0  0  0  0  0  0  0  0  0  0  0  0
    0.2353    1.5797   -1.7604 H   0  0  0  0  0  0  0  0  0  0  0  0
    1.0748    1.6998    0.5981 H   0  0  0  0  0  0  0  0  0  0  0  0
   -0.5771    1.5716    1.1907 H   0  0  0  0  0  0  0  0  0  0  0  0
    2.3657   -0.7727    0.5180 H   0  0  0  0  0  0  0  0  0  0  0  0
    1.4369   -3.1404    0.3779 H   0  0  0  0  0  0  0  0  0  0  0  0
   -1.0944   -3.1490    0.1654 H   0  0  0  0  0  0  0  0  0  0  0  0
  1  9  1  0  0  0  0
  1 11  1  0  0  0  0
  2  1  1  0  0  0  0
  2  3  1  0  0  0  0
  3 14  1  0  0  0  0
  3 15  1  0  0  0  0
  4  3  1  0  0  0  0
  4  5  2  0  0  0  0
  5 16  1  0  0  0  0
  6 17  1  0  0  0  0
  6  5  1  0  0  0  0
  7  6  1  0  0  0  0
  8  7  2  0  0  0  0
  8  4  1  0  0  0  0
 10  1  1  0  0  0  0
 12  2  1  0  0  0  0
 13  2  1  0  0  0  0
 18  7  1  0  0  0  0
M  END
