17
title
C -0.5925119 3.3685815 0.9900895
C -0.6688532 1.8457297 0.86392325
C 0.23875113 1.2960417 -0.25120494
C 0.21680607 -0.19495565 -0.34043428
C -0.22182356 -1.0048797 -1.3347952
O -0.044167023 -2.306895 -0.94696826
C 0.50140077 -2.2088554 0.28434548
N 0.6822788 -1.0009766 0.7027509
H 0.42804238 3.696287 1.2175117
H -0.8980588 3.86227 0.060474854
H -1.2446654 3.7333612 1.7895576
H -0.38208684 1.373889 1.8100486
H -1.7030262 1.537642 0.6664203
H -0.05799715 1.720384 -1.2176752
H 1.2692446 1.6259235 -0.06568964
H -0.65204597 -0.8487745 -2.3088648
H 0.73117393 -3.1348784 0.78799534
