18
title
C -0.725555 3.2187712 -1.1140989
C -0.72683126 1.6955727 -1.0373799
N 0.14995852 1.2277304 0.023433054
C 0.2008479 -0.15248483 0.26074156
C -0.2560918 -1.1661402 -0.55967987
N 0.06458542 -2.3662972 0.047621094
C 0.6978879 -2.1320786 1.2339125
C 0.8034396 -0.77045697 1.3986826
H 0.28831223 3.5980465 -1.2720084
H -1.3592521 3.5658035 -1.9352036
H -1.1125622 3.6609297 -0.18832335
H -1.7608289 1.323465 -0.9170924
H -0.3588167 1.2801628 -1.9847313
H 0.020349292 1.7524723 0.87900394
H -0.766427 -1.140448 -1.506891
H -0.14861104 -3.272369 -0.32708338
H 1.0258902 -2.9441361 1.8627508
H 1.2657799 -0.26233798 2.2314496
