17
title
C 1.0916928 3.2132018 0.0066758464
C 1.1558038 1.6965466 -0.000809705
O -0.17115441 1.1964163 0.0065635913
C -0.2919307 -0.15652946 0.001378355
C 0.69556785 -1.121936 -0.010387106
N 0.05335864 -2.3453345 -0.01105529
C -1.3009729 -2.1647701 -9.2209455e-05
C -1.554215 -0.8128766 0.007846132
H 2.1013396 3.6347635 0.0011324094
H 0.55717534 3.5798433 -0.87408423
H 0.57031244 3.5716765 0.89860064
H 1.6854904 1.3294839 -0.8935998
H 1.6984353 1.321249 0.88070875
H 1.7689596 -1.0530082 -0.018186197
H 0.5191908 -3.2341428 -0.01853252
H -1.9754355 -3.005764 0.0012217754
H -2.5189204 -0.3317906 0.017237347
