16
title
C -0.6186196 3.1388044 1.0316359
C -0.6126791 1.6213373 1.0518854
O 0.060754523 1.1810291 -0.13067281
C 0.16838388 -0.15163206 -0.29462886
C 0.77819157 -0.7731135 -1.3587371
N 0.63897896 -2.1237707 -1.0869983
C -0.02534093 -2.241762 0.08747506
N -0.32665622 -1.0623667 0.5965868
H 0.40237424 3.53114 1.0185715
H -1.1407751 3.513444 0.14646715
H -1.126 3.5230844 1.9216259
H -0.09551342 1.2323517 1.9370723
H -1.6308398 1.2147343 1.0693388
H 1.27219 -0.40023395 -2.2376955
H 0.9733864 -2.877518 -1.6624912
H -0.26447904 -3.1975186 0.52791697
