15
title
C 1.128935 3.1843503 0.007301023
C 1.1876016 1.6687391 -0.0009864247
O -0.1655447 1.1893423 0.006919209
C -0.3328472 -0.13957404 0.0017599387
C -1.5156803 -0.81267905 0.0072743697
O -1.2114332 -2.1545022 -0.0014303133
C 0.12888984 -2.2004347 -0.011500587
N 0.71478707 -1.0434184 -0.010342263
H 2.142803 3.5954945 0.0014997355
H 0.5986557 3.5574894 -0.87332094
H 0.61250037 3.5483496 0.89989346
H 1.704149 1.289258 -0.88997555
H 1.7177284 1.280095 0.87595457
H -2.5533638 -0.5376024 0.016264068
H 0.58793753 -3.1763058 -0.019576088
