title
 OpenBabel02282109573D

 16 16  0  0  0  0  0  0  0  0999 V2000
    0.5917    3.2701   -0.3574 C   0  0  0  0  0  0  0  0  0  0  0  0
    0.5308    1.8722   -0.5018 O   0  0  0  0  0  0  0  0  0  0  0  0
   -0.2044    1.2470    0.5259 C   0  0  0  0  0  0  0  0  0  0  0  0
   -0.2143   -0.2289    0.2912 C   0  0  0  0  0  0  0  0  0  0  0  0
    0.3797   -0.8959   -0.7329 C   0  0  0  0  0  0  0  0  0  0  0  0
    0.1615   -2.2358   -0.6247 O   0  0  0  0  0  0  0  0  0  0  0  0
   -0.5869   -2.4235    0.4918 C   0  0  0  0  0  0  0  0  0  0  0  0
   -0.8498   -1.2365    1.0958 C   0  0  0  0  0  0  0  0  0  0  0  0
    1.1767    3.6596   -1.1939 H   0  0  0  0  0  0  0  0  0  0  0  0
   -0.4101    3.7279   -0.3802 H   0  0  0  0  0  0  0  0  0  0  0  0
    1.0804    3.5631    0.5855 H   0  0  0  0  0  0  0  0  0  0  0  0
    0.2396    1.4779    1.5113 H   0  0  0  0  0  0  0  0  0  0  0  0
   -1.2370    1.6400    0.5537 H   0  0  0  0  0  0  0  0  0  0  0  0
    0.9644   -0.5722   -1.5755 H   0  0  0  0  0  0  0  0  0  0  0  0
   -0.8465   -3.4446    0.7176 H   0  0  0  0  0  0  0  0  0  0  0  0
   -1.4221   -1.0884    1.9987 H   0  0  0  0  0  0  0  0  0  0  0  0
  1 11  1  0  0  0  0
  2  1  1  0  0  0  0
  2  3  1  0  0  0  0
  3 13  1  0  0  0  0
  3 12  1  0  0  0  0
  4  3  1  0  0  0  0
  4  8  1  0  0  0  0
  5  6  1  0  0  0  0
  5  4  2  0  0  0  0
  6  7  1  0  0  0  0
  7 15  1  0  0  0  0
  7  8  2  0  0  0  0
  8 16  1  0  0  0  0
  9  1  1  0  0  0  0
 10  1  1  0  0  0  0
 14  5  1  0  0  0  0
M  END
