16
title
C 0.591745 3.2701013 -0.3574304
O 0.5307621 1.8721836 -0.5017792
C -0.20438637 1.2469789 0.5258651
C -0.21432169 -0.22893824 0.29123834
C 0.37967542 -0.895929 -0.7328676
O 0.16150193 -2.2358403 -0.6246943
C -0.586852 -2.4235148 0.4918312
C -0.849829 -1.2365204 1.0957793
H 1.1767263 3.6596258 -1.1938795
H -0.41012567 3.727874 -0.38021484
H 1.080416 3.5631464 0.5855148
H 0.23961805 1.4778547 1.5112652
H -1.2369539 1.6399958 0.55374324
H 0.9644179 -0.57224 -1.5755087
H -0.846502 -3.4445705 0.7175942
H -1.4221457 -1.0884312 1.9987469
