title
 OpenBabel02282109573D

 15 15  0  0  0  0  0  0  0  0999 V2000
   -0.4443    3.2387   -0.6635 C   0  0  0  0  0  0  0  0  0  0  0  0
   -0.4436    1.8312   -0.6995 O   0  0  0  0  0  0  0  0  0  0  0  0
    0.2161    1.2567    0.4042 C   0  0  0  0  0  0  0  0  0  0  0  0
    0.1621   -0.2275    0.2691 C   0  0  0  0  0  0  0  0  0  0  0  0
   -0.3967   -0.9818   -0.7059 C   0  0  0  0  0  0  0  0  0  0  0  0
   -0.1891   -2.2993   -0.3898 O   0  0  0  0  0  0  0  0  0  0  0  0
    0.4924   -2.2581    0.7741 C   0  0  0  0  0  0  0  0  0  0  0  0
    0.7340   -1.0691    1.2196 N   0  0  0  0  0  0  0  0  0  0  0  0
    0.5783    3.6475   -0.6744 H   0  0  0  0  0  0  0  0  0  0  0  0
   -0.9741    3.5872   -1.5529 H   0  0  0  0  0  0  0  0  0  0  0  0
   -0.9581    3.6235    0.2314 H   0  0  0  0  0  0  0  0  0  0  0  0
    1.2668    1.5911    0.4565 H   0  0  0  0  0  0  0  0  0  0  0  0
   -0.2561    1.5648    1.3533 H   0  0  0  0  0  0  0  0  0  0  0  0
   -0.9324   -0.7728   -1.6134 H   0  0  0  0  0  0  0  0  0  0  0  0
    0.7654   -3.2051    1.2124 H   0  0  0  0  0  0  0  0  0  0  0  0
  1 11  1  0  0  0  0
  2  1  1  0  0  0  0
  2  3  1  0  0  0  0
  3 12  1  0  0  0  0
  3 13  1  0  0  0  0
  4  3  1  0  0  0  0
  4  8  1  0  0  0  0
  5  6  1  0  0  0  0
  5  4  2  0  0  0  0
  6  7  1  0  0  0  0
  7 15  1  0  0  0  0
  7  8  2  0  0  0  0
  9  1  1  0  0  0  0
 10  1  1  0  0  0  0
 14  5  1  0  0  0  0
M  END
