15
title
C -0.44429272 3.2386682 -0.6634688
O -0.4435784 1.8312373 -0.6995013
C 0.21607138 1.2567259 0.4041831
C 0.16209675 -0.22746651 0.26910037
C -0.39667332 -0.9818203 -0.70591706
O -0.18909852 -2.2993362 -0.3897706
C 0.4924204 -2.2581112 0.7740938
N 0.733966 -1.0690781 1.2195543
H 0.5783224 3.6474795 -0.67443126
H -0.97413576 3.5871682 -1.5529073
H -0.95814943 3.6235268 0.23141994
H 1.2668321 1.5910803 0.45654935
H -0.25611082 1.5647968 1.3532622
H -0.9323769 -0.77276963 -1.6133871
H 0.7654396 -3.205138 1.212399
