title
 OpenBabel02282109573D

 15 15  0  0  0  0  0  0  0  0999 V2000
    1.1122    3.2178    0.0953 O   0  0  0  0  0  0  0  0  0  0  0  0
    1.0575    1.8032    0.1495 C   0  0  0  0  0  0  0  0  0  0  0  0
   -0.3679    1.2634   -0.0634 C   0  0  0  0  0  0  0  0  0  0  0  0
   -0.4246   -0.2273   -0.0167 C   0  0  0  0  0  0  0  0  0  0  0  0
   -0.9885   -1.0533    0.8985 C   0  0  0  0  0  0  0  0  0  0  0  0
   -0.7559   -2.3474    0.5169 O   0  0  0  0  0  0  0  0  0  0  0  0
   -0.0486   -2.2302   -0.6273 C   0  0  0  0  0  0  0  0  0  0  0  0
    0.1825   -1.0154   -0.9990 N   0  0  0  0  0  0  0  0  0  0  0  0
    0.9309    3.4853   -0.8113 H   0  0  0  0  0  0  0  0  0  0  0  0
    1.7364    1.3374   -0.5786 H   0  0  0  0  0  0  0  0  0  0  0  0
    1.4092    1.5260    1.1487 H   0  0  0  0  0  0  0  0  0  0  0  0
   -1.0292    1.6925    0.6957 H   0  0  0  0  0  0  0  0  0  0  0  0
   -0.7301    1.6057   -1.0419 H   0  0  0  0  0  0  0  0  0  0  0  0
   -1.5523   -0.9131    1.8044 H   0  0  0  0  0  0  0  0  0  0  0  0
    0.2462   -3.1480   -1.1116 H   0  0  0  0  0  0  0  0  0  0  0  0
  1  2  1  0  0  0  0
  2 11  1  0  0  0  0
  3  4  1  0  0  0  0
  3  2  1  0  0  0  0
  3 12  1  0  0  0  0
  4  5  2  0  0  0  0
  5 14  1  0  0  0  0
  6  5  1  0  0  0  0
  7  6  1  0  0  0  0
  8  7  2  0  0  0  0
  8  4  1  0  0  0  0
  9  1  1  0  0  0  0
 10  2  1  0  0  0  0
 13  3  1  0  0  0  0
 15  7  1  0  0  0  0
M  END
