18
title
C -0.5619185 3.3052738 0.989942
C -0.48375806 1.7769552 0.9876544
C 0.11325431 1.2315679 -0.31561902
N 0.19259048 -0.21980062 -0.35031334
C 1.1066118 -1.0148711 0.30875942
C 0.7500524 -2.3064091 0.021641167
N -0.35770035 -2.3326051 -0.79252493
C -0.6622034 -1.0699592 -0.990409
H 0.43006974 3.7559328 0.8747889
H -1.190081 3.6737154 0.17136422
H -0.98762876 3.6748025 1.9269167
H 0.12392068 1.4292856 1.8310088
H -1.4812803 1.3441107 1.1254076
H -0.49515203 1.5475819 -1.169376
H 1.1180111 1.6407338 -0.47189525
H 1.9049438 -0.5902536 0.8953375
H 1.2308378 -3.2160985 0.34838757
H -1.4816674 -0.7005782 -1.5903853
