16
title
O 0.9464528 3.1542783 -0.008896579
C 1.0543573 1.7448525 -0.06929466
C -0.3680979 1.1957098 0.055670097
N -0.40864813 -0.25298163 0.008277907
C -0.31293392 -1.0478745 -1.1157728
C -0.33752728 -2.3391685 -0.6594423
N -0.44281757 -2.3658452 0.71170586
C -0.4797685 -1.1042857 1.0741253
H 1.8279315 3.531623 -0.07730562
H 1.4967575 1.4055566 -1.0184045
H 1.6716156 1.3401853 0.74722904
H -0.7993525 1.5259577 1.004408
H -0.98771036 1.607125 -0.7466304
H -0.2500769 -0.6219442 -2.10387
H -0.29313517 -3.2489295 -1.2388114
H -0.5661199 -0.7351515 2.086122
