14
title
C 1.2141402 2.1989837 -0.0012651915
C 1.2251472 0.68924713 -0.007519017
O 2.2464786 0.02346246 -0.018533215
C -0.07956479 0.010064407 0.00064005796
N -1.2905179 0.54661804 0.012765699
C -2.154677 -0.5086828 0.01578526
C -1.4610633 -1.7030382 0.0053993734
N -0.14435254 -1.3542027 -0.004048666
H 2.2397063 2.5688107 -0.009324139
H 0.666269 2.575395 -0.8706269
H 0.6828419 2.5681212 0.88142323
H -3.2247634 -0.36658356 0.025162838
H -1.786368 -2.73029 0.004072599
H 0.671171 -1.9467864 -0.013064573
