title
 OpenBabel02282109573D

 14 14  0  0  0  0  0  0  0  0999 V2000
    1.2141    2.1990   -0.0013 C   0  0  0  0  0  0  0  0  0  0  0  0
    1.2251    0.6892   -0.0075 C   0  0  0  0  0  0  0  0  0  0  0  0
    2.2465    0.0235   -0.0185 O   0  0  0  0  0  0  0  0  0  0  0  0
   -0.0796    0.0101    0.0006 C   0  0  0  0  0  0  0  0  0  0  0  0
   -1.2905    0.5466    0.0128 N   0  0  0  0  0  0  0  0  0  0  0  0
   -2.1547   -0.5087    0.0158 C   0  0  0  0  0  0  0  0  0  0  0  0
   -1.4611   -1.7030    0.0054 C   0  0  0  0  0  0  0  0  0  0  0  0
   -0.1444   -1.3542   -0.0040 N   0  0  0  0  0  0  0  0  0  0  0  0
    2.2397    2.5688   -0.0093 H   0  0  0  0  0  0  0  0  0  0  0  0
    0.6663    2.5754   -0.8706 H   0  0  0  0  0  0  0  0  0  0  0  0
    0.6828    2.5681    0.8814 H   0  0  0  0  0  0  0  0  0  0  0  0
   -3.2248   -0.3666    0.0252 H   0  0  0  0  0  0  0  0  0  0  0  0
   -1.7864   -2.7303    0.0041 H   0  0  0  0  0  0  0  0  0  0  0  0
    0.6712   -1.9468   -0.0131 H   0  0  0  0  0  0  0  0  0  0  0  0
  1 11  1  0  0  0  0
  2  1  1  0  0  0  0
  2  4  1  0  0  0  0
  3  2  2  0  0  0  0
  4  5  2  0  0  0  0
  5  6  1  0  0  0  0
  6 12  1  0  0  0  0
  7  6  2  0  0  0  0
  8  4  1  0  0  0  0
  8  7  1  0  0  0  0
  9  1  1  0  0  0  0
 10  1  1  0  0  0  0
 13  7  1  0  0  0  0
 14  8  1  0  0  0  0
M  END
