title
 OpenBabel02282109573D

 13 13  0  0  0  0  0  0  0  0999 V2000
   -0.0138    2.1729    1.2265 C   0  0  0  0  0  0  0  0  0  0  0  0
   -0.0222    0.6607    1.2462 C   0  0  0  0  0  0  0  0  0  0  0  0
   -0.0434   -0.0016    2.2590 O   0  0  0  0  0  0  0  0  0  0  0  0
    0.0011    0.0076   -0.0876 C   0  0  0  0  0  0  0  0  0  0  0  0
    0.0249    0.5785   -1.2590 N   0  0  0  0  0  0  0  0  0  0  0  0
    0.0390   -0.4678   -2.1576 C   0  0  0  0  0  0  0  0  0  0  0  0
    0.0226   -1.6386   -1.4658 C   0  0  0  0  0  0  0  0  0  0  0  0
   -0.0016   -1.3491   -0.1435 O   0  0  0  0  0  0  0  0  0  0  0  0
    0.8815    2.5406    0.7155 H   0  0  0  0  0  0  0  0  0  0  0  0
   -0.8713    2.5514    0.6620 H   0  0  0  0  0  0  0  0  0  0  0  0
   -0.0418    2.5409    2.2523 H   0  0  0  0  0  0  0  0  0  0  0  0
    0.0595   -0.3097   -3.2240 H   0  0  0  0  0  0  0  0  0  0  0  0
    0.0247   -2.6810   -1.7349 H   0  0  0  0  0  0  0  0  0  0  0  0
  1  2  1  0  0  0  0
  1 11  1  0  0  0  0
  2  3  2  0  0  0  0
  4  2  1  0  0  0  0
  5  4  2  0  0  0  0
  6  7  2  0  0  0  0
  6  5  1  0  0  0  0
  7  8  1  0  0  0  0
  8  4  1  0  0  0  0
  9  1  1  0  0  0  0
 10  1  1  0  0  0  0
 12  6  1  0  0  0  0
 13  7  1  0  0  0  0
M  END
