title
 OpenBabel02282109573D

 14 14  0  0  0  0  0  0  0  0999 V2000
    1.0968    2.0399    0.0956 N   0  0  0  0  0  0  0  0  0  0  0  0
    1.2512    0.6671   -0.0914 C   0  0  0  0  0  0  0  0  0  0  0  0
    2.3306    0.1681   -0.3467 O   0  0  0  0  0  0  0  0  0  0  0  0
    0.0108   -0.1131   -0.0044 C   0  0  0  0  0  0  0  0  0  0  0  0
   -0.1485   -1.4764    0.1583 C   0  0  0  0  0  0  0  0  0  0  0  0
   -1.5366   -1.7458    0.1997 C   0  0  0  0  0  0  0  0  0  0  0  0
   -2.1940   -0.5413    0.0489 C   0  0  0  0  0  0  0  0  0  0  0  0
   -1.2536    0.4440   -0.0532 N   0  0  0  0  0  0  0  0  0  0  0  0
    1.9807    2.5266    0.1573 H   0  0  0  0  0  0  0  0  0  0  0  0
    0.4203    2.3367    0.7841 H   0  0  0  0  0  0  0  0  0  0  0  0
    0.6644   -2.1784    0.2543 H   0  0  0  0  0  0  0  0  0  0  0  0
   -2.0066   -2.7086    0.3270 H   0  0  0  0  0  0  0  0  0  0  0  0
   -3.2468   -0.3119    0.0009 H   0  0  0  0  0  0  0  0  0  0  0  0
   -1.4402    1.3967   -0.3164 H   0  0  0  0  0  0  0  0  0  0  0  0
  1  9  1  0  0  0  0
  1 10  1  0  0  0  0
  2  4  1  0  0  0  0
  2  1  1  0  0  0  0
  3  2  2  0  0  0  0
  4  5  2  0  0  0  0
  5  6  1  0  0  0  0
  5 11  1  0  0  0  0
  6 12  1  0  0  0  0
  7  6  2  0  0  0  0
  8  4  1  0  0  0  0
  8  7  1  0  0  0  0
 13  7  1  0  0  0  0
 14  8  1  0  0  0  0
M  END
