13
title
N 1.0790346 2.0044465 0.0008941817
C 1.2632604 0.6531315 -0.005805371
O 2.3589323 0.119381055 -0.014598054
C 0.022920072 -0.14533056 -0.0006433387
C -0.16620511 -1.4948862 -0.0033103812
C -1.5780805 -1.7044318 0.0041755424
C -2.1432679 -0.4662569 0.011274682
O -1.1874644 0.49545562 0.008869981
H 1.8927253 2.5951357 -0.005728292
H 0.16150421 2.4136176 0.0039966335
H 0.61959296 -2.232343 -0.010198425
H -2.1023228 -2.6469247 0.0043767807
H -3.1620345 -0.11463304 0.018230285
