12
title
N 1.1364477 2.0233784 -0.0014926966
C 1.2414707 0.66912204 -0.007919851
O 2.2821043 0.04431 -0.018301396
C -0.09512791 0.0039305342 0.0006626087
N -1.2667359 0.56962305 0.0122961905
C -2.1611185 -0.484984 0.015806686
C -1.4614791 -1.6480682 0.005788267
O -0.13663325 -1.3452001 -0.0038486773
H 1.9778306 2.5737393 -0.006013926
H 0.23219863 2.4651728 0.007480688
H -3.2284255 -0.3328373 0.025087334
H -1.717858 -2.6933553 0.00404531
