14
title
C 1.1694671 2.201622 -0.0014250994
C 1.2662807 0.6911407 -0.007955829
O 2.3313673 0.10242505 -0.019321013
C -0.00551496 -0.058615077 -0.00016829917
C -0.13761996 -1.4300933 -0.0040087127
N -1.4836428 -1.6637414 0.00622092
C -2.1124983 -0.44560415 0.015913568
N -1.2523885 0.5391147 0.012399897
H 2.172678 2.6288207 -0.00861882
H 0.6013991 2.5493536 -0.87014896
H 0.6168398 2.5427158 0.87980837
H 0.5969064 -2.216817 -0.012939828
H -1.9294069 -2.5667338 0.0066015497
H -3.1886845 -0.35598844 0.025140624
