title
 OpenBabel02282109573D

 14 14  0  0  0  0  0  0  0  0999 V2000
    1.1695    2.2016   -0.0014 C   0  0  0  0  0  0  0  0  0  0  0  0
    1.2663    0.6911   -0.0080 C   0  0  0  0  0  0  0  0  0  0  0  0
    2.3314    0.1024   -0.0193 O   0  0  0  0  0  0  0  0  0  0  0  0
   -0.0055   -0.0586   -0.0002 C   0  0  0  0  0  0  0  0  0  0  0  0
   -0.1376   -1.4301   -0.0040 C   0  0  0  0  0  0  0  0  0  0  0  0
   -1.4836   -1.6637    0.0062 N   0  0  0  0  0  0  0  0  0  0  0  0
   -2.1125   -0.4456    0.0159 C   0  0  0  0  0  0  0  0  0  0  0  0
   -1.2524    0.5391    0.0124 N   0  0  0  0  0  0  0  0  0  0  0  0
    2.1727    2.6288   -0.0086 H   0  0  0  0  0  0  0  0  0  0  0  0
    0.6014    2.5494   -0.8701 H   0  0  0  0  0  0  0  0  0  0  0  0
    0.6168    2.5427    0.8798 H   0  0  0  0  0  0  0  0  0  0  0  0
    0.5969   -2.2168   -0.0129 H   0  0  0  0  0  0  0  0  0  0  0  0
   -1.9294   -2.5667    0.0066 H   0  0  0  0  0  0  0  0  0  0  0  0
   -3.1887   -0.3560    0.0251 H   0  0  0  0  0  0  0  0  0  0  0  0
  1 11  1  0  0  0  0
  2  1  1  0  0  0  0
  2  4  1  0  0  0  0
  3  2  2  0  0  0  0
  4  8  1  0  0  0  0
  5  4  2  0  0  0  0
  5  6  1  0  0  0  0
  6 13  1  0  0  0  0
  6  7  1  0  0  0  0
  7 14  1  0  0  0  0
  8  7  2  0  0  0  0
  9  1  1  0  0  0  0
 10  1  1  0  0  0  0
 12  5  1  0  0  0  0
M  END
