title
 OpenBabel02282109573D

 13 13  0  0  0  0  0  0  0  0999 V2000
   -0.0204    2.1898    1.2281 C   0  0  0  0  0  0  0  0  0  0  0  0
   -0.0216    0.6793    1.2959 C   0  0  0  0  0  0  0  0  0  0  0  0
   -0.0389    0.0619    2.3417 O   0  0  0  0  0  0  0  0  0  0  0  0
   -0.0001   -0.0470    0.0057 C   0  0  0  0  0  0  0  0  0  0  0  0
    0.0031   -1.3960   -0.1769 C   0  0  0  0  0  0  0  0  0  0  0  0
    0.0252   -1.6428   -1.5102 O   0  0  0  0  0  0  0  0  0  0  0  0
    0.0346   -0.4096   -2.0837 C   0  0  0  0  0  0  0  0  0  0  0  0
    0.0204    0.5696   -1.2463 N   0  0  0  0  0  0  0  0  0  0  0  0
    0.8663    2.5439    0.6920 H   0  0  0  0  0  0  0  0  0  0  0  0
   -0.8848    2.5443    0.6573 H   0  0  0  0  0  0  0  0  0  0  0  0
   -0.0400    2.5973    2.2390 H   0  0  0  0  0  0  0  0  0  0  0  0
   -0.0077   -2.2426    0.4863 H   0  0  0  0  0  0  0  0  0  0  0  0
    0.0524   -0.3794   -3.1616 H   0  0  0  0  0  0  0  0  0  0  0  0
  1  2  1  0  0  0  0
  1 11  1  0  0  0  0
  2  3  2  0  0  0  0
  4  2  1  0  0  0  0
  5  4  2  0  0  0  0
  5 12  1  0  0  0  0
  6  5  1  0  0  0  0
  7  6  1  0  0  0  0
  7  8  2  0  0  0  0
  8  4  1  0  0  0  0
  9  1  1  0  0  0  0
 10  1  1  0  0  0  0
 13  7  1  0  0  0  0
M  END
