14
title
C 1.1372652 2.161386 -0.0016936065
C 1.230637 0.6523099 -0.008106793
O 2.2693057 0.041798312 -0.019547207
N -0.0015926673 -0.041385632 -0.00011699561
C -0.13047901 -1.4269491 -0.0043853605
C -1.4682798 -1.6691457 0.0064652525
N -2.1878107 -0.48119667 0.01721827
C -1.2917004 0.46293044 0.012884276
H 2.1497118 2.562655 -0.00906794
H 0.59431785 2.5238173 -0.87987036
H 0.60980827 2.517236 0.88853234
H 0.74215794 -2.0554092 -0.014413034
H -1.9712806 -2.6237361 0.007275548
H -1.4929852 1.5225776 0.018630946
