title
 OpenBabel02282109573D

 14 14  0  0  0  0  0  0  0  0999 V2000
    1.1373    2.1614   -0.0017 C   0  0  0  0  0  0  0  0  0  0  0  0
    1.2306    0.6523   -0.0081 C   0  0  0  0  0  0  0  0  0  0  0  0
    2.2693    0.0418   -0.0195 O   0  0  0  0  0  0  0  0  0  0  0  0
   -0.0016   -0.0414   -0.0001 N   0  0  0  0  0  0  0  0  0  0  0  0
   -0.1305   -1.4269   -0.0044 C   0  0  0  0  0  0  0  0  0  0  0  0
   -1.4683   -1.6691    0.0065 C   0  0  0  0  0  0  0  0  0  0  0  0
   -2.1878   -0.4812    0.0172 N   0  0  0  0  0  0  0  0  0  0  0  0
   -1.2917    0.4629    0.0129 C   0  0  0  0  0  0  0  0  0  0  0  0
    2.1497    2.5627   -0.0091 H   0  0  0  0  0  0  0  0  0  0  0  0
    0.5943    2.5238   -0.8799 H   0  0  0  0  0  0  0  0  0  0  0  0
    0.6098    2.5172    0.8885 H   0  0  0  0  0  0  0  0  0  0  0  0
    0.7422   -2.0554   -0.0144 H   0  0  0  0  0  0  0  0  0  0  0  0
   -1.9713   -2.6237    0.0073 H   0  0  0  0  0  0  0  0  0  0  0  0
   -1.4930    1.5226    0.0186 H   0  0  0  0  0  0  0  0  0  0  0  0
  1 11  1  0  0  0  0
  2  1  1  0  0  0  0
  2  4  1  0  0  0  0
  3  2  2  0  0  0  0
  4  8  1  0  0  0  0
  5  4  1  0  0  0  0
  5  6  2  0  0  0  0
  6 13  1  0  0  0  0
  6  7  1  0  0  0  0
  8  7  2  0  0  0  0
  8 14  1  0  0  0  0
  9  1  1  0  0  0  0
 10  1  1  0  0  0  0
 12  5  1  0  0  0  0
M  END
