title
 OpenBabel02282109573D

 14 14  0  0  0  0  0  0  0  0999 V2000
    1.1041    2.0142    0.0523 N   0  0  0  0  0  0  0  0  0  0  0  0
    1.1998    0.6503   -0.0715 C   0  0  0  0  0  0  0  0  0  0  0  0
    2.2385    0.0567   -0.2476 O   0  0  0  0  0  0  0  0  0  0  0  0
   -0.0410   -0.0243   -0.0119 N   0  0  0  0  0  0  0  0  0  0  0  0
   -1.3243    0.5077   -0.0521 C   0  0  0  0  0  0  0  0  0  0  0  0
   -2.2127   -0.5255    0.0502 C   0  0  0  0  0  0  0  0  0  0  0  0
   -1.4564   -1.7358    0.1605 C   0  0  0  0  0  0  0  0  0  0  0  0
   -0.1333   -1.4010    0.1136 C   0  0  0  0  0  0  0  0  0  0  0  0
    1.9960    2.4741    0.1459 H   0  0  0  0  0  0  0  0  0  0  0  0
    0.3476    2.4089    0.5868 H   0  0  0  0  0  0  0  0  0  0  0  0
   -1.4871    1.5597   -0.2150 H   0  0  0  0  0  0  0  0  0  0  0  0
   -3.2881   -0.4339    0.0361 H   0  0  0  0  0  0  0  0  0  0  0  0
   -1.8502   -2.7353    0.2619 H   0  0  0  0  0  0  0  0  0  0  0  0
    0.7697   -1.9845    0.1615 H   0  0  0  0  0  0  0  0  0  0  0  0
  1  9  1  0  0  0  0
  1 10  1  0  0  0  0
  2  4  1  0  0  0  0
  2  1  1  0  0  0  0
  3  2  2  0  0  0  0
  4  8  1  0  0  0  0
  5  4  1  0  0  0  0
  5  6  2  0  0  0  0
  6  7  1  0  0  0  0
  7 13  1  0  0  0  0
  8  7  2  0  0  0  0
  8 14  1  0  0  0  0
 11  5  1  0  0  0  0
 12  6  1  0  0  0  0
M  END
