title
 OpenBabel02282109573D

 13 13  0  0  0  0  0  0  0  0999 V2000
    1.1118    2.0131    0.0611 N   0  0  0  0  0  0  0  0  0  0  0  0
    1.2229    0.6547   -0.0615 C   0  0  0  0  0  0  0  0  0  0  0  0
    2.2599    0.0634   -0.2404 O   0  0  0  0  0  0  0  0  0  0  0  0
   -0.0188   -0.0323    0.0027 N   0  0  0  0  0  0  0  0  0  0  0  0
   -0.1318   -1.4096    0.1271 C   0  0  0  0  0  0  0  0  0  0  0  0
   -1.4691   -1.6666    0.1433 C   0  0  0  0  0  0  0  0  0  0  0  0
   -2.1980   -0.4952    0.0195 N   0  0  0  0  0  0  0  0  0  0  0  0
   -1.3099    0.4561   -0.0623 C   0  0  0  0  0  0  0  0  0  0  0  0
    1.9932    2.4967    0.1310 H   0  0  0  0  0  0  0  0  0  0  0  0
    0.3405    2.4145    0.5681 H   0  0  0  0  0  0  0  0  0  0  0  0
    0.7486   -2.0243    0.1901 H   0  0  0  0  0  0  0  0  0  0  0  0
   -1.9609   -2.6225    0.2344 H   0  0  0  0  0  0  0  0  0  0  0  0
   -1.5232    1.5034   -0.2118 H   0  0  0  0  0  0  0  0  0  0  0  0
  1  9  1  0  0  0  0
  1 10  1  0  0  0  0
  2  4  1  0  0  0  0
  2  1  1  0  0  0  0
  3  2  2  0  0  0  0
  4  5  1  0  0  0  0
  5  6  2  0  0  0  0
  5 11  1  0  0  0  0
  6 12  1  0  0  0  0
  7  6  1  0  0  0  0
  8  4  1  0  0  0  0
  8  7  2  0  0  0  0
 13  8  1  0  0  0  0
M  END
