13
title
N 1.1118311 2.0131316 0.061052483
C 1.2228621 0.6546984 -0.06147604
O 2.259879 0.06338468 -0.24040297
N -0.018840192 -0.032319754 0.002736817
C -0.13179779 -1.4095691 0.1271064
C -1.4690702 -1.6665586 0.14326215
N -2.197985 -0.49515024 0.019475305
C -1.3098679 0.45608425 -0.062285464
H 1.9931718 2.4967349 0.13098292
H 0.34048635 2.4144893 0.5681024
H 0.7485631 -2.0242739 0.19010556
H -1.9609191 -2.6225204 0.23437655
H -1.5231864 1.5034328 -0.2118386
