title
 OpenBabel02282109573D

 19 19  0  0  0  0  0  0  0  0999 V2000
    1.4690    2.0218   -0.0475 C   0  0  0  0  0  0  0  0  0  0  0  0
    1.3825    0.4963   -0.1819 C   0  0  0  0  0  0  0  0  0  0  0  0
    2.2424   -0.1957    0.8966 C   0  0  0  0  0  0  0  0  0  0  0  0
   -0.0428    0.0173   -0.1462 C   0  0  0  0  0  0  0  0  0  0  0  0
   -1.2158    0.6281    0.2458 C   0  0  0  0  0  0  0  0  0  0  0  0
   -2.2751   -0.3118    0.0938 C   0  0  0  0  0  0  0  0  0  0  0  0
   -1.7244   -1.4736   -0.3887 C   0  0  0  0  0  0  0  0  0  0  0  0
   -0.3738   -1.2641   -0.5284 N   0  0  0  0  0  0  0  0  0  0  0  0
    2.5082    2.3552   -0.1271 H   0  0  0  0  0  0  0  0  0  0  0  0
    0.8858    2.5235   -0.8247 H   0  0  0  0  0  0  0  0  0  0  0  0
    1.0884    2.3501    0.9257 H   0  0  0  0  0  0  0  0  0  0  0  0
    1.8059    0.2258   -1.1615 H   0  0  0  0  0  0  0  0  0  0  0  0
    2.2092   -1.2858    0.8023 H   0  0  0  0  0  0  0  0  0  0  0  0
    3.2895    0.1167    0.8205 H   0  0  0  0  0  0  0  0  0  0  0  0
    1.8792    0.0602    1.8973 H   0  0  0  0  0  0  0  0  0  0  0  0
   -1.3069    1.6424    0.6020 H   0  0  0  0  0  0  0  0  0  0  0  0
   -3.3197   -0.1486    0.3100 H   0  0  0  0  0  0  0  0  0  0  0  0
   -2.1696   -2.4209   -0.6472 H   0  0  0  0  0  0  0  0  0  0  0  0
    0.2808   -1.9428   -0.8766 H   0  0  0  0  0  0  0  0  0  0  0  0
  1 11  1  0  0  0  0
  2  4  1  0  0  0  0
  2  1  1  0  0  0  0
  2  3  1  0  0  0  0
  3 15  1  0  0  0  0
  4  5  2  0  0  0  0
  5 16  1  0  0  0  0
  6  5  1  0  0  0  0
  6 17  1  0  0  0  0
  7  6  2  0  0  0  0
  8  7  1  0  0  0  0
  8  4  1  0  0  0  0
  9  1  1  0  0  0  0
 10  1  1  0  0  0  0
 12  2  1  0  0  0  0
 13  3  1  0  0  0  0
 14  3  1  0  0  0  0
 18  7  1  0  0  0  0
 19  8  1  0  0  0  0
M  END
