19
title
C 1.4689744 2.0218365 -0.047509514
C 1.3825164 0.4963264 -0.1818569
C 2.2423568 -0.19566022 0.89655435
C -0.042753957 0.017300084 -0.14621511
C -1.2157936 0.6280899 0.24576963
C -2.2750957 -0.3118455 0.09375576
C -1.7243578 -1.4735793 -0.38872826
N -0.37383166 -1.2640992 -0.52836365
H 2.5081868 2.3552065 -0.12711395
H 0.88576704 2.5234587 -0.8246622
H 1.0884194 2.3500679 0.9256567
H 1.8059044 0.22576828 -1.1615301
H 2.209228 -1.2858026 0.8022572
H 3.2895305 0.11671589 0.82045275
H 1.8791574 0.060221866 1.897333
H -1.306917 1.6423901 0.60202813
H -3.3197358 -0.14857201 0.3099983
H -2.1696486 -2.4208767 -0.64719373
H 0.28081235 -1.9427662 -0.87663037
