title
 OpenBabel02282109573D

 17 17  0  0  0  0  0  0  0  0999 V2000
   -0.7060    2.0069   -1.2494 C   0  0  0  0  0  0  0  0  0  0  0  0
   -0.8446    0.4917   -1.0682 C   0  0  0  0  0  0  0  0  0  0  0  0
   -0.3995   -0.2811   -2.3263 C   0  0  0  0  0  0  0  0  0  0  0  0
   -0.0849    0.0273    0.1355 C   0  0  0  0  0  0  0  0  0  0  0  0
    0.7505    0.6803    0.8814 N   0  0  0  0  0  0  0  0  0  0  0  0
    1.1640   -0.2387    1.8397 C   0  0  0  0  0  0  0  0  0  0  0  0
    0.5443   -1.4183    1.6163 C   0  0  0  0  0  0  0  0  0  0  0  0
   -0.2635   -1.2662    0.5236 O   0  0  0  0  0  0  0  0  0  0  0  0
    0.3386    2.2833   -1.4167 H   0  0  0  0  0  0  0  0  0  0  0  0
   -1.2946    2.3356   -2.1110 H   0  0  0  0  0  0  0  0  0  0  0  0
   -1.0509    2.5463   -0.3640 H   0  0  0  0  0  0  0  0  0  0  0  0
   -1.9018    0.2511   -0.8901 H   0  0  0  0  0  0  0  0  0  0  0  0
    0.6489   -0.0678   -2.5593 H   0  0  0  0  0  0  0  0  0  0  0  0
   -0.5060   -1.3600   -2.1872 H   0  0  0  0  0  0  0  0  0  0  0  0
   -1.0067    0.0167   -3.1865 H   0  0  0  0  0  0  0  0  0  0  0  0
    1.8706    0.0225    2.6113 H   0  0  0  0  0  0  0  0  0  0  0  0
    0.5470   -2.3875    2.0841 H   0  0  0  0  0  0  0  0  0  0  0  0
  1  2  1  0  0  0  0
  1 11  1  0  0  0  0
  2 12  1  0  0  0  0
  2  4  1  0  0  0  0
  3 14  1  0  0  0  0
  3  2  1  0  0  0  0
  4  8  1  0  0  0  0
  4  5  2  0  0  0  0
  5  6  1  0  0  0  0
  6 16  1  0  0  0  0
  7  6  2  0  0  0  0
  7 17  1  0  0  0  0
  8  7  1  0  0  0  0
  9  1  1  0  0  0  0
 10  1  1  0  0  0  0
 13  3  1  0  0  0  0
 15  3  1  0  0  0  0
M  END
