title
 OpenBabel02282109573D

 16 16  0  0  1  0  0  0  0  0999 V2000
    1.3516    1.9820    0.0289 C   0  0  0  0  0  0  0  0  0  0  0  0
    1.3721    0.4649   -0.1960 C   0  0  1  0  0  0  0  0  0  0  0  0
    2.1318   -0.1940    0.8184 O   0  0  0  0  0  0  0  0  0  0  0  0
   -0.0023   -0.1138   -0.3122 C   0  0  0  0  0  0  0  0  0  0  0  0
   -0.6686   -0.7981   -1.2794 C   0  0  0  0  0  0  0  0  0  0  0  0
   -1.9705   -1.0906   -0.7528 C   0  0  0  0  0  0  0  0  0  0  0  0
   -1.9948   -0.5667    0.4983 C   0  0  0  0  0  0  0  0  0  0  0  0
   -0.8079    0.0360    0.7839 O   0  0  0  0  0  0  0  0  0  0  0  0
    2.3749    2.3523    0.1309 H   0  0  0  0  0  0  0  0  0  0  0  0
    0.8680    2.4960   -0.8076 H   0  0  0  0  0  0  0  0  0  0  0  0
    0.7976    2.2263    0.9411 H   0  0  0  0  0  0  0  0  0  0  0  0
    1.8962    0.2438   -1.1315 H   0  0  0  0  0  0  0  0  0  0  0  0
    1.6265   -0.1305    1.6366 H   0  0  0  0  0  0  0  0  0  0  0  0
   -0.2798   -1.0666   -2.2494 H   0  0  0  0  0  0  0  0  0  0  0  0
   -2.7718   -1.6219   -1.2419 H   0  0  0  0  0  0  0  0  0  0  0  0
   -2.7359   -0.5339    1.2797 H   0  0  0  0  0  0  0  0  0  0  0  0
  1  9  1  0  0  0  0
  1 11  1  0  0  0  0
  2 12  1  6  0  0  0
  2  1  1  0  0  0  0
  2  3  1  0  0  0  0
  3 13  1  0  0  0  0
  4  2  1  0  0  0  0
  4  8  1  0  0  0  0
  5  6  1  0  0  0  0
  5  4  2  0  0  0  0
  6  7  2  0  0  0  0
  7  8  1  0  0  0  0
  7 16  1  0  0  0  0
 10  1  1  0  0  0  0
 14  5  1  0  0  0  0
 15  6  1  0  0  0  0
M  END
