title
 OpenBabel02282109573D

 15 15  0  0  1  0  0  0  0  0999 V2000
   -0.7152    1.9589    1.2184 C   0  0  0  0  0  0  0  0  0  0  0  0
   -0.4946    0.4448    1.3188 C   0  0  1  0  0  0  0  0  0  0  0  0
   -1.7256   -0.2483    1.5150 O   0  0  0  0  0  0  0  0  0  0  0  0
    0.2583   -0.1001    0.1484 C   0  0  0  0  0  0  0  0  0  0  0  0
    1.4279   -0.7576   -0.0365 C   0  0  0  0  0  0  0  0  0  0  0  0
    1.6047   -1.0309   -1.3897 N   0  0  0  0  0  0  0  0  0  0  0  0
    0.5496   -0.5395   -1.9468 C   0  0  0  0  0  0  0  0  0  0  0  0
   -0.3209    0.0483   -1.0914 O   0  0  0  0  0  0  0  0  0  0  0  0
    0.2390    2.4932    1.1815 H   0  0  0  0  0  0  0  0  0  0  0  0
   -1.2761    2.2068    0.3112 H   0  0  0  0  0  0  0  0  0  0  0  0
   -1.2830    2.3039    2.0861 H   0  0  0  0  0  0  0  0  0  0  0  0
    0.0994    0.2232    2.2115 H   0  0  0  0  0  0  0  0  0  0  0  0
   -2.2547   -0.1282    0.7183 H   0  0  0  0  0  0  0  0  0  0  0  0
    2.1553   -1.0553    0.7018 H   0  0  0  0  0  0  0  0  0  0  0  0
    0.2778   -0.5393   -2.9907 H   0  0  0  0  0  0  0  0  0  0  0  0
  1  2  1  0  0  0  0
  1 11  1  0  0  0  0
  2  3  1  0  0  0  0
  2 12  1  1  0  0  0
  4  2  1  0  0  0  0
  5  4  2  0  0  0  0
  5 14  1  0  0  0  0
  6  5  1  0  0  0  0
  7  6  2  0  0  0  0
  7  8  1  0  0  0  0
  8  4  1  0  0  0  0
  9  1  1  0  0  0  0
 10  1  1  0  0  0  0
 13  3  1  0  0  0  0
 15  7  1  0  0  0  0
M  END
