16
title
C 1.4978588 1.7882706 -0.6844306
C 1.3930712 0.41547507 -0.0074924063
O 1.7643492 0.521558 1.3478768
C 0.004841083 -0.16510192 -0.09197605
N -0.69608843 -0.50044 0.9681956
C -1.8920923 -0.99310505 0.4937883
C -1.9097189 -0.95445836 -0.8723358
N -0.6879016 -0.42127135 -1.2360481
H 2.5105417 2.178526 -0.5541676
H 1.2917616 1.7259196 -1.7592212
H 0.7924289 2.4891202 -0.22962616
H 2.0896933 -0.27253613 -0.518427
H 1.0196371 0.16623208 1.8583357
H -2.6626441 -1.3443614 1.1622775
H -2.646693 -1.2427243 -1.6030086
H -0.3707404 -0.25569347 -2.176327
