18
title
C 1.2133673 1.9459697 0.53752375
N 1.1244526 0.7551077 -0.3071905
C 2.377186 0.018373493 -0.3513871
C -0.005818254 -0.0482676 -0.07991061
C -0.16297328 -1.3202745 0.4306659
C -1.5542227 -1.6332515 0.372545
C -2.2030747 -0.5490492 -0.16055164
N -1.2538246 0.41193825 -0.43307573
H 1.9826857 2.6169593 0.14170712
H 0.26099467 2.480806 0.5364211
H 1.4666346 1.7052771 1.5847992
H 2.683671 -0.3766113 0.63364226
H 2.284316 -0.82071155 -1.0445061
H 3.1722128 0.68172467 -0.70686555
H 0.62422824 -1.948403 0.8162084
H -2.01994 -2.5504582 0.6991333
H -3.2461905 -0.37060922 -0.36452335
H -1.4127539 1.2691641 -0.9328735
