title
 OpenBabel02282109573D

 18 18  0  0  0  0  0  0  0  0999 V2000
    1.2134    1.9460    0.5375 C   0  0  0  0  0  0  0  0  0  0  0  0
    1.1245    0.7551   -0.3072 N   0  0  0  0  0  0  0  0  0  0  0  0
    2.3772    0.0184   -0.3514 C   0  0  0  0  0  0  0  0  0  0  0  0
   -0.0058   -0.0483   -0.0799 C   0  0  0  0  0  0  0  0  0  0  0  0
   -0.1630   -1.3203    0.4307 C   0  0  0  0  0  0  0  0  0  0  0  0
   -1.5542   -1.6333    0.3725 C   0  0  0  0  0  0  0  0  0  0  0  0
   -2.2031   -0.5490   -0.1606 C   0  0  0  0  0  0  0  0  0  0  0  0
   -1.2538    0.4119   -0.4331 N   0  0  0  0  0  0  0  0  0  0  0  0
    1.9827    2.6170    0.1417 H   0  0  0  0  0  0  0  0  0  0  0  0
    0.2610    2.4808    0.5364 H   0  0  0  0  0  0  0  0  0  0  0  0
    1.4666    1.7053    1.5848 H   0  0  0  0  0  0  0  0  0  0  0  0
    2.6837   -0.3766    0.6336 H   0  0  0  0  0  0  0  0  0  0  0  0
    2.2843   -0.8207   -1.0445 H   0  0  0  0  0  0  0  0  0  0  0  0
    3.1722    0.6817   -0.7069 H   0  0  0  0  0  0  0  0  0  0  0  0
    0.6242   -1.9484    0.8162 H   0  0  0  0  0  0  0  0  0  0  0  0
   -2.0199   -2.5505    0.6991 H   0  0  0  0  0  0  0  0  0  0  0  0
   -3.2462   -0.3706   -0.3645 H   0  0  0  0  0  0  0  0  0  0  0  0
   -1.4128    1.2692   -0.9329 H   0  0  0  0  0  0  0  0  0  0  0  0
  1 11  1  0  0  0  0
  2  4  1  0  0  0  0
  2  1  1  0  0  0  0
  3  2  1  0  0  0  0
  3 12  1  0  0  0  0
  4  5  2  0  0  0  0
  5 15  1  0  0  0  0
  6  5  1  0  0  0  0
  6 16  1  0  0  0  0
  7  6  2  0  0  0  0
  8  7  1  0  0  0  0
  8  4  1  0  0  0  0
  9  1  1  0  0  0  0
 10  1  1  0  0  0  0
 13  3  1  0  0  0  0
 14  3  1  0  0  0  0
 17  7  1  0  0  0  0
 18  8  1  0  0  0  0
M  END
