title
 OpenBabel02282109573D

 19 19  0  0  0  0  0  0  0  0999 V2000
    1.5873    1.7938   -0.5791 C   0  0  0  0  0  0  0  0  0  0  0  0
    1.4763    0.3397   -0.0800 C   0  0  0  0  0  0  0  0  0  0  0  0
    2.1203    0.1932    1.3048 C   0  0  0  0  0  0  0  0  0  0  0  0
    0.0459   -0.1400   -0.1106 C   0  0  0  0  0  0  0  0  0  0  0  0
   -0.7740   -0.4169    0.9628 C   0  0  0  0  0  0  0  0  0  0  0  0
   -2.0008   -0.8036    0.4803 N   0  0  0  0  0  0  0  0  0  0  0  0
   -1.9855   -0.7842   -0.8900 C   0  0  0  0  0  0  0  0  0  0  0  0
   -0.7343   -0.3770   -1.2851 C   0  0  0  0  0  0  0  0  0  0  0  0
    2.6339    2.1158   -0.6217 H   0  0  0  0  0  0  0  0  0  0  0  0
    1.1565    1.9048   -1.5785 H   0  0  0  0  0  0  0  0  0  0  0  0
    1.0484    2.4725    0.0913 H   0  0  0  0  0  0  0  0  0  0  0  0
    2.0498   -0.2862   -0.7790 H   0  0  0  0  0  0  0  0  0  0  0  0
    2.0735   -0.8408    1.6600 H   0  0  0  0  0  0  0  0  0  0  0  0
    3.1717    0.4968    1.2770 H   0  0  0  0  0  0  0  0  0  0  0  0
    1.6159    0.8275    2.0432 H   0  0  0  0  0  0  0  0  0  0  0  0
   -0.5881   -0.3763    2.0235 H   0  0  0  0  0  0  0  0  0  0  0  0
   -2.7845   -1.0735    1.0473 H   0  0  0  0  0  0  0  0  0  0  0  0
   -2.8567   -1.0626   -1.4611 H   0  0  0  0  0  0  0  0  0  0  0  0
   -0.4017   -0.2633   -2.3063 H   0  0  0  0  0  0  0  0  0  0  0  0
  1  2  1  0  0  0  0
  1 11  1  0  0  0  0
  2  3  1  0  0  0  0
  3 13  1  0  0  0  0
  3 15  1  0  0  0  0
  4  2  1  0  0  0  0
  4  5  2  0  0  0  0
  5 16  1  0  0  0  0
  6  5  1  0  0  0  0
  6 17  1  0  0  0  0
  7  6  1  0  0  0  0
  8  7  2  0  0  0  0
  8  4  1  0  0  0  0
  9  1  1  0  0  0  0
 10  1  1  0  0  0  0
 12  2  1  0  0  0  0
 14  3  1  0  0  0  0
 18  7  1  0  0  0  0
 19  8  1  0  0  0  0
M  END
