18
title
C 1.4849143 1.8779423 -0.39136365
C 1.4422165 0.36288944 -0.120911285
C 2.2102187 -0.00026286798 1.1552325
C 0.02245493 -0.13198878 -0.09262931
C -0.673325 -0.7359027 0.924983
N -1.9359702 -0.97567993 0.4226625
C -1.9508661 -0.51489586 -0.8582797
N -0.7937612 -0.0022572095 -1.2012194
H 2.517276 2.2228293 -0.5137662
H 0.9253144 2.1197748 -1.2979097
H 1.0374938 2.432545 0.44141883
H 1.9364675 -0.13145085 -0.968924
H 1.7652082 0.4819355 2.0335858
H 2.215137 -1.0812814 1.3284502
H 3.2496772 0.3349193 1.0876606
H -0.40330845 -1.014028 1.9293422
H -2.6975126 -1.4138942 0.91217947
H -2.8274012 -0.5831436 -1.4856875
