title
 OpenBabel02282109573D

 18 18  0  0  0  0  0  0  0  0999 V2000
    1.4849    1.8779   -0.3914 C   0  0  0  0  0  0  0  0  0  0  0  0
    1.4422    0.3629   -0.1209 C   0  0  0  0  0  0  0  0  0  0  0  0
    2.2102   -0.0003    1.1552 C   0  0  0  0  0  0  0  0  0  0  0  0
    0.0225   -0.1320   -0.0926 C   0  0  0  0  0  0  0  0  0  0  0  0
   -0.6733   -0.7359    0.9250 C   0  0  0  0  0  0  0  0  0  0  0  0
   -1.9360   -0.9757    0.4227 N   0  0  0  0  0  0  0  0  0  0  0  0
   -1.9509   -0.5149   -0.8583 C   0  0  0  0  0  0  0  0  0  0  0  0
   -0.7938   -0.0023   -1.2012 N   0  0  0  0  0  0  0  0  0  0  0  0
    2.5173    2.2228   -0.5138 H   0  0  0  0  0  0  0  0  0  0  0  0
    0.9253    2.1198   -1.2979 H   0  0  0  0  0  0  0  0  0  0  0  0
    1.0375    2.4325    0.4414 H   0  0  0  0  0  0  0  0  0  0  0  0
    1.9365   -0.1315   -0.9689 H   0  0  0  0  0  0  0  0  0  0  0  0
    1.7652    0.4819    2.0336 H   0  0  0  0  0  0  0  0  0  0  0  0
    2.2151   -1.0813    1.3285 H   0  0  0  0  0  0  0  0  0  0  0  0
    3.2497    0.3349    1.0877 H   0  0  0  0  0  0  0  0  0  0  0  0
   -0.4033   -1.0140    1.9293 H   0  0  0  0  0  0  0  0  0  0  0  0
   -2.6975   -1.4139    0.9122 H   0  0  0  0  0  0  0  0  0  0  0  0
   -2.8274   -0.5831   -1.4857 H   0  0  0  0  0  0  0  0  0  0  0  0
  1  2  1  0  0  0  0
  1 11  1  0  0  0  0
  2  4  1  0  0  0  0
  2  3  1  0  0  0  0
  3 14  1  0  0  0  0
  3 13  1  0  0  0  0
  4  5  2  0  0  0  0
  5 16  1  0  0  0  0
  6 17  1  0  0  0  0
  6  5  1  0  0  0  0
  7  6  1  0  0  0  0
  8  7  2  0  0  0  0
  8  4  1  0  0  0  0
  9  1  1  0  0  0  0
 10  1  1  0  0  0  0
 12  2  1  0  0  0  0
 15  3  1  0  0  0  0
 18  7  1  0  0  0  0
M  END
