18
title
C 1.5290282 1.8610437 -0.58827657
C 1.4752389 0.40493393 -0.086935446
C 2.1177087 0.2816848 1.3007828
C 0.06566543 -0.12685265 -0.11732881
C -0.7143592 -0.51654583 0.9284294
O -1.9400884 -0.9305586 0.50152504
C -1.9445177 -0.80387706 -0.8501913
C -0.7550332 -0.32007176 -1.2864039
H 2.5629554 2.220055 -0.6271523
H 1.0998617 1.9561219 -1.5900432
H 0.9637539 2.5196886 0.07986793
H 2.070289 -0.2014577 -0.7849676
H 1.5823896 0.89157236 2.0375183
H 2.1148698 -0.75451857 1.6524656
H 3.1550534 0.62920666 1.2770238
H -0.5555555 -0.56530803 1.9923551
H -2.855373 -1.098088 -1.3452396
H -0.4803142 -0.12540396 -2.3119814
