title
 OpenBabel02282109573D

 17 17  0  0  0  0  0  0  0  0999 V2000
   -0.4787    2.0028   -1.4227 C   0  0  0  0  0  0  0  0  0  0  0  0
   -0.8750    0.5586   -1.0932 C   0  0  0  0  0  0  0  0  0  0  0  0
   -0.6968   -0.3697   -2.3087 C   0  0  0  0  0  0  0  0  0  0  0  0
   -0.1270    0.0260    0.0935 C   0  0  0  0  0  0  0  0  0  0  0  0
    0.8805    0.5694    0.8211 C   0  0  0  0  0  0  0  0  0  0  0  0
    1.2326   -0.3156    1.8069 O   0  0  0  0  0  0  0  0  0  0  0  0
    0.4031   -1.3635    1.6166 C   0  0  0  0  0  0  0  0  0  0  0  0
   -0.4193   -1.2314    0.6308 N   0  0  0  0  0  0  0  0  0  0  0  0
    0.5786    2.0661   -1.7051 H   0  0  0  0  0  0  0  0  0  0  0  0
   -1.0676    2.3788   -2.2643 H   0  0  0  0  0  0  0  0  0  0  0  0
   -0.6434    2.6702   -0.5708 H   0  0  0  0  0  0  0  0  0  0  0  0
   -1.9410    0.5461   -0.8268 H   0  0  0  0  0  0  0  0  0  0  0  0
    0.3462   -0.3727   -2.6442 H   0  0  0  0  0  0  0  0  0  0  0  0
   -0.9745   -1.3954   -2.0547 H   0  0  0  0  0  0  0  0  0  0  0  0
   -1.3216   -0.0352   -3.1430 H   0  0  0  0  0  0  0  0  0  0  0  0
    1.4285    1.4944    0.7948 H   0  0  0  0  0  0  0  0  0  0  0  0
    0.5062   -2.1941    2.2975 H   0  0  0  0  0  0  0  0  0  0  0  0
  1  2  1  0  0  0  0
  1 11  1  0  0  0  0
  2 12  1  0  0  0  0
  2  4  1  0  0  0  0
  3 14  1  0  0  0  0
  3  2  1  0  0  0  0
  4  8  1  0  0  0  0
  4  5  2  0  0  0  0
  5  6  1  0  0  0  0
  7  6  1  0  0  0  0
  7 17  1  0  0  0  0
  8  7  2  0  0  0  0
  9  1  1  0  0  0  0
 10  1  1  0  0  0  0
 13  3  1  0  0  0  0
 15  3  1  0  0  0  0
 16  5  1  0  0  0  0
M  END
