17
title
C 1.6440487 1.7348198 -0.69139594
C 1.4385984 0.38772434 0.008404759
O 1.8333207 0.4569129 1.3797697
C 0.03088619 -0.13639547 -0.12197395
C -0.640342 -0.84290826 0.85414916
N -1.8832881 -1.1623172 0.3701441
C -2.024566 -0.6758059 -0.90354204
C -0.8557017 -0.03375571 -1.2372588
H 2.6706705 2.0781345 -0.53804684
H 1.4615362 1.6569611 -1.7677671
H 0.95757014 2.4883974 -0.28882486
H 2.1427784 -0.33436182 -0.4266166
H 1.1919158 1.0245118 1.8231345
H -0.32078633 -1.1480417 1.8365296
H -2.586508 -1.6698934 0.8770701
H -2.9382818 -0.8198887 -1.4575104
H -0.6569593 0.45583883 -2.1781418
