title
 OpenBabel02282109573D

 16 16  0  0  1  0  0  0  0  0999 V2000
    1.4389    1.9292   -0.3824 C   0  0  0  0  0  0  0  0  0  0  0  0
    1.4224    0.4168   -0.1163 C   0  0  1  0  0  0  0  0  0  0  0  0
    1.9755    0.1256    1.1602 O   0  0  0  0  0  0  0  0  0  0  0  0
    0.0322   -0.1499   -0.2141 C   0  0  0  0  0  0  0  0  0  0  0  0
   -0.6027   -0.8108   -1.2310 C   0  0  0  0  0  0  0  0  0  0  0  0
   -1.8718   -1.0789   -0.7590 N   0  0  0  0  0  0  0  0  0  0  0  0
   -1.9456   -0.5846    0.5063 C   0  0  0  0  0  0  0  0  0  0  0  0
   -0.8184   -0.0158    0.8648 N   0  0  0  0  0  0  0  0  0  0  0  0
    2.4521    2.3171   -0.2447 H   0  0  0  0  0  0  0  0  0  0  0  0
    1.1081    2.1549   -1.4019 H   0  0  0  0  0  0  0  0  0  0  0  0
    0.7697    2.4402    0.3169 H   0  0  0  0  0  0  0  0  0  0  0  0
    2.0652   -0.0810   -0.8528 H   0  0  0  0  0  0  0  0  0  0  0  0
    1.2412    0.1961    1.7845 H   0  0  0  0  0  0  0  0  0  0  0  0
   -0.2848   -1.1119   -2.2151 H   0  0  0  0  0  0  0  0  0  0  0  0
   -2.5998   -1.5662   -1.2539 H   0  0  0  0  0  0  0  0  0  0  0  0
   -2.8361   -0.6712    1.1107 H   0  0  0  0  0  0  0  0  0  0  0  0
  1  9  1  0  0  0  0
  1  2  1  0  0  0  0
  1 11  1  0  0  0  0
  2 12  1  6  0  0  0
  2  3  1  0  0  0  0
  3 13  1  0  0  0  0
  4  2  1  0  0  0  0
  4  8  1  0  0  0  0
  5  6  1  0  0  0  0
  5  4  2  0  0  0  0
  6  7  1  0  0  0  0
  7  8  2  0  0  0  0
  7 16  1  0  0  0  0
 10  1  1  0  0  0  0
 14  5  1  0  0  0  0
 15  6  1  0  0  0  0
M  END
