title
 OpenBabel02282109573D

 16 16  0  0  1  0  0  0  0  0999 V2000
    1.6204    1.7847   -0.6517 C   0  0  0  0  0  0  0  0  0  0  0  0
    1.4532    0.3909   -0.0380 C   0  0  1  0  0  0  0  0  0  0  0  0
    1.9134    0.3598    1.3105 O   0  0  0  0  0  0  0  0  0  0  0  0
    0.0412   -0.1258   -0.1368 C   0  0  0  0  0  0  0  0  0  0  0  0
   -0.6375   -0.7824    0.8439 C   0  0  0  0  0  0  0  0  0  0  0  0
   -1.8896   -1.1165    0.4292 O   0  0  0  0  0  0  0  0  0  0  0  0
   -2.0120   -0.6684   -0.8464 C   0  0  0  0  0  0  0  0  0  0  0  0
   -0.8703   -0.0545   -1.2489 C   0  0  0  0  0  0  0  0  0  0  0  0
    2.6549    2.1177   -0.5341 H   0  0  0  0  0  0  0  0  0  0  0  0
    1.3747    1.7833   -1.7182 H   0  0  0  0  0  0  0  0  0  0  0  0
    0.9600    2.5066   -0.1575 H   0  0  0  0  0  0  0  0  0  0  0  0
    2.1264   -0.2996   -0.5629 H   0  0  0  0  0  0  0  0  0  0  0  0
    1.3567    0.9657    1.8136 H   0  0  0  0  0  0  0  0  0  0  0  0
   -0.3704   -1.0866    1.8411 H   0  0  0  0  0  0  0  0  0  0  0  0
   -2.9606   -0.8578   -1.3213 H   0  0  0  0  0  0  0  0  0  0  0  0
   -0.6933    0.3936   -2.2141 H   0  0  0  0  0  0  0  0  0  0  0  0
  1  9  1  0  0  0  0
  1 11  1  0  0  0  0
  1  2  1  0  0  0  0
  2 12  1  6  0  0  0
  2  3  1  0  0  0  0
  3 13  1  0  0  0  0
  4  2  1  0  0  0  0
  4  5  2  0  0  0  0
  5 14  1  0  0  0  0
  6  5  1  0  0  0  0
  7  6  1  0  0  0  0
  8  7  2  0  0  0  0
  8  4  1  0  0  0  0
 10  1  1  0  0  0  0
 15  7  1  0  0  0  0
 16  8  1  0  0  0  0
M  END
