16
title
C 1.6203778 1.7846867 -0.6516925
C 1.4531728 0.39085594 -0.037982035
O 1.9134339 0.3598385 1.3105482
C 0.041190255 -0.12577835 -0.13682748
C -0.63745034 -0.7824167 0.84386885
O -1.8896216 -1.1165203 0.42915192
C -2.0120277 -0.6683929 -0.846365
C -0.8703097 -0.054524124 -1.2488707
H 2.6548727 2.1176882 -0.5340829
H 1.3747191 1.7833008 -1.7181518
H 0.96002036 2.5066016 -0.15754814
H 2.1263947 -0.29963645 -0.56285375
H 1.3566862 0.9657136 1.8136241
H -0.37035167 -1.0866439 1.8410697
H -2.9606137 -0.85782135 -1.3212767
H -0.6932713 0.39361075 -2.2141318
