15
title
C -0.45808887 1.9200801 1.4453108
C -0.56474817 0.39372295 1.332708
O -1.9227403 -0.024698416 1.2825
C 0.17675027 -0.12605722 0.13452166
C 1.3357867 -0.8129423 0.0116890045
O 1.5590717 -1.0445137 -1.3209219
C 0.49956217 -0.48106927 -1.9370346
N -0.35072 0.078407995 -1.1421552
H 0.5809218 2.2330785 1.5912334
H -0.8328025 2.3936954 0.5323721
H -1.0559676 2.2674766 2.2920003
H -0.14542925 -0.064941235 2.235234
H -2.228455 0.15100595 0.38376218
H 2.0728548 -1.1949754 0.69616354
H 0.46685532 -0.5537722 -3.012832
