title
 OpenBabel02282109573D

 17 17  0  0  0  0  0  0  0  0999 V2000
    1.2079    2.1112    0.1911 C   0  0  0  0  0  0  0  0  0  0  0  0
    1.1807    0.7431   -0.3011 N   0  0  0  0  0  0  0  0  0  0  0  0
    2.3976   -0.0050   -0.0533 C   0  0  0  0  0  0  0  0  0  0  0  0
   -0.0019    0.0290   -0.1031 C   0  0  0  0  0  0  0  0  0  0  0  0
   -0.1405   -1.3039    0.1783 C   0  0  0  0  0  0  0  0  0  0  0  0
   -1.4662   -1.6468    0.2230 O   0  0  0  0  0  0  0  0  0  0  0  0
   -2.1707   -0.5185   -0.0118 C   0  0  0  0  0  0  0  0  0  0  0  0
   -1.3461    0.5392   -0.2178 C   0  0  0  0  0  0  0  0  0  0  0  0
    2.1067    2.6087   -0.1852 H   0  0  0  0  0  0  0  0  0  0  0  0
    0.3427    2.6652   -0.1790 H   0  0  0  0  0  0  0  0  0  0  0  0
    1.2123    2.1773    1.2929 H   0  0  0  0  0  0  0  0  0  0  0  0
    2.5159   -0.3041    1.0037 H   0  0  0  0  0  0  0  0  0  0  0  0
    2.4028   -0.9120   -0.6659 H   0  0  0  0  0  0  0  0  0  0  0  0
    3.2615    0.6021   -0.3368 H   0  0  0  0  0  0  0  0  0  0  0  0
    0.5549   -2.1052    0.3518 H   0  0  0  0  0  0  0  0  0  0  0  0
   -3.2436   -0.6213   -0.0029 H   0  0  0  0  0  0  0  0  0  0  0  0
   -1.6504    1.5499   -0.4357 H   0  0  0  0  0  0  0  0  0  0  0  0
  1 11  1  0  0  0  0
  2  4  1  0  0  0  0
  2  3  1  0  0  0  0
  2  1  1  0  0  0  0
  3 12  1  0  0  0  0
  4  5  2  0  0  0  0
  5  6  1  0  0  0  0
  5 15  1  0  0  0  0
  7 16  1  0  0  0  0
  7  6  1  0  0  0  0
  8  4  1  0  0  0  0
  8  7  2  0  0  0  0
  9  1  1  0  0  0  0
 10  1  1  0  0  0  0
 13  3  1  0  0  0  0
 14  3  1  0  0  0  0
 17  8  1  0  0  0  0
M  END
