title
 OpenBabel02282109573D

 18 18  0  0  0  0  0  0  0  0999 V2000
    1.3897    1.9610   -0.2034 C   0  0  0  0  0  0  0  0  0  0  0  0
    1.3835    0.4289   -0.1452 C   0  0  0  0  0  0  0  0  0  0  0  0
    2.1654   -0.1126    1.0574 C   0  0  0  0  0  0  0  0  0  0  0  0
    0.0135   -0.0948   -0.1635 N   0  0  0  0  0  0  0  0  0  0  0  0
   -0.5428   -0.8924   -1.1409 C   0  0  0  0  0  0  0  0  0  0  0  0
   -1.8309   -1.1328   -0.7412 C   0  0  0  0  0  0  0  0  0  0  0  0
   -2.0881   -0.5067    0.4546 N   0  0  0  0  0  0  0  0  0  0  0  0
   -0.9654    0.1028    0.7685 C   0  0  0  0  0  0  0  0  0  0  0  0
    2.4167    2.3313   -0.2757 H   0  0  0  0  0  0  0  0  0  0  0  0
    0.8290    2.3197   -1.0705 H   0  0  0  0  0  0  0  0  0  0  0  0
    0.9396    2.3919    0.6963 H   0  0  0  0  0  0  0  0  0  0  0  0
    1.8487    0.0467   -1.0596 H   0  0  0  0  0  0  0  0  0  0  0  0
    1.7394    0.2469    1.9992 H   0  0  0  0  0  0  0  0  0  0  0  0
    2.1503   -1.2055    1.0714 H   0  0  0  0  0  0  0  0  0  0  0  0
    3.2066    0.2203    1.0109 H   0  0  0  0  0  0  0  0  0  0  0  0
    0.0252   -1.2012   -2.0033 H   0  0  0  0  0  0  0  0  0  0  0  0
   -2.5845   -1.7190   -1.2449 H   0  0  0  0  0  0  0  0  0  0  0  0
   -0.8034    0.6982    1.6544 H   0  0  0  0  0  0  0  0  0  0  0  0
  1  2  1  0  0  0  0
  1 11  1  0  0  0  0
  2  3  1  0  0  0  0
  3 14  1  0  0  0  0
  3 13  1  0  0  0  0
  4  2  1  0  0  0  0
  4  8  1  0  0  0  0
  5  6  2  0  0  0  0
  5  4  1  0  0  0  0
  6  7  1  0  0  0  0
  7  8  2  0  0  0  0
  8 18  1  0  0  0  0
  9  1  1  0  0  0  0
 10  1  1  0  0  0  0
 12  2  1  0  0  0  0
 15  3  1  0  0  0  0
 16  5  1  0  0  0  0
 17  6  1  0  0  0  0
M  END
