17
title
C -0.56357074 2.8855526 0.1708276
C -0.2746917 1.4141517 0.09686155
C -0.2536919 0.65596926 -1.0677375
N 0.047264017 -0.6193552 -0.67510843
C 0.30955768 -2.0431302 -0.9250062
C 0.5136058 -2.1823192 0.63467485
C 0.21476448 -0.69182074 0.6716691
C 0.024500554 0.5579673 1.2132869
H 0.2753712 3.4451594 0.60168767
H -0.7576949 3.2988346 -0.82345986
H -1.4412993 3.0986464 0.7927847
H -0.42738488 0.93996334 -2.0930948
H -0.5437621 -2.5885546 -1.3393329
H 1.1978722 -2.23326 -1.5349755
H -0.21097407 -2.8357446 1.1284316
H 1.5216035 -2.483415 0.9330801
H 0.08131633 0.85866344 2.2481592
