title
 OpenBabel02282109573D

 16 17  0  0  0  0  0  0  0  0999 V2000
   -0.6371    2.8070    0.2164 C   0  0  0  0  0  0  0  0  0  0  0  0
   -0.3179    1.3553    0.0532 C   0  0  0  0  0  0  0  0  0  0  0  0
   -0.4008    0.6020   -1.1075 C   0  0  0  0  0  0  0  0  0  0  0  0
    0.0276   -0.6460   -0.7122 N   0  0  0  0  0  0  0  0  0  0  0  0
    0.2775   -2.0960   -0.8299 C   0  0  0  0  0  0  0  0  0  0  0  0
    0.6472   -2.0627    0.7082 C   0  0  0  0  0  0  0  0  0  0  0  0
    0.3107   -0.5844    0.6025 C   0  0  0  0  0  0  0  0  0  0  0  0
    0.1257    0.5970    1.1357 N   0  0  0  0  0  0  0  0  0  0  0  0
    0.2455    3.3735    0.5334 H   0  0  0  0  0  0  0  0  0  0  0  0
   -0.9996    3.2378   -0.7211 H   0  0  0  0  0  0  0  0  0  0  0  0
   -1.4058    2.9564    0.9822 H   0  0  0  0  0  0  0  0  0  0  0  0
   -0.6932    0.8576   -2.1115 H   0  0  0  0  0  0  0  0  0  0  0  0
   -0.6132   -2.6779   -1.0810 H   0  0  0  0  0  0  0  0  0  0  0  0
    1.0939   -2.3510   -1.5105 H   0  0  0  0  0  0  0  0  0  0  0  0
   -0.0099   -2.6604    1.3445 H   0  0  0  0  0  0  0  0  0  0  0  0
    1.6877   -2.3085    0.9334 H   0  0  0  0  0  0  0  0  0  0  0  0
  1  9  1  0  0  0  0
  1 11  1  0  0  0  0
  2  1  1  0  0  0  0
  2  8  1  0  0  0  0
  3  4  1  0  0  0  0
  3  2  2  0  0  0  0
  4  7  1  0  0  0  0
  5  4  1  0  0  0  0
  5  6  1  0  0  0  0
  6 16  1  0  0  0  0
  6 15  1  0  0  0  0
  7  6  1  0  0  0  0
  7  8  2  0  0  0  0
 10  1  1  0  0  0  0
 12  3  1  0  0  0  0
 13  5  1  0  0  0  0
 14  5  1  0  0  0  0
M  END
