16
title
C -0.6370758 2.8070085 0.21642767
C -0.31788033 1.3552991 0.05317364
C -0.40084985 0.60201836 -1.1074724
N 0.027614217 -0.6459893 -0.71220154
C 0.27747303 -2.095973 -0.82987225
C 0.6471502 -2.0627189 0.7082417
C 0.3107038 -0.5843781 0.6025208
N 0.12567945 0.59698945 1.1356517
H 0.24553837 3.3735087 0.5333586
H -0.9995979 3.237808 -0.7210798
H -1.4058334 2.9564292 0.9822312
H -0.6931561 0.8576419 -2.1115057
H -0.61322784 -2.6778822 -1.0809517
H 1.0939114 -2.3510292 -1.5104839
H -0.009910423 -2.6603746 1.344504
H 1.6877193 -2.3084896 0.9334015
