title
 OpenBabel02282109573D

 15 16  0  0  0  0  0  0  0  0999 V2000
   -0.4059    2.7345    0.0654 O   0  0  0  0  0  0  0  0  0  0  0  0
   -0.2075    1.3827    0.0625 C   0  0  0  0  0  0  0  0  0  0  0  0
   -0.2668    0.6126   -1.0895 C   0  0  0  0  0  0  0  0  0  0  0  0
   -0.1399   -0.6858   -0.6490 N   0  0  0  0  0  0  0  0  0  0  0  0
    0.3855   -2.0402   -0.8985 C   0  0  0  0  0  0  0  0  0  0  0  0
    0.5248   -2.1800    0.6650 C   0  0  0  0  0  0  0  0  0  0  0  0
    0.0771   -0.7293    0.6935 C   0  0  0  0  0  0  0  0  0  0  0  0
    0.0420    0.5495    1.2038 C   0  0  0  0  0  0  0  0  0  0  0  0
   -0.3222    3.0500    0.9693 H   0  0  0  0  0  0  0  0  0  0  0  0
   -0.4880    0.8918   -2.1051 H   0  0  0  0  0  0  0  0  0  0  0  0
   -0.3202   -2.7089   -1.3998 H   0  0  0  0  0  0  0  0  0  0  0  0
    1.3424   -2.0481   -1.4293 H   0  0  0  0  0  0  0  0  0  0  0  0
   -0.1464   -2.9093    1.1270 H   0  0  0  0  0  0  0  0  0  0  0  0
    1.5457   -2.3724    1.0050 H   0  0  0  0  0  0  0  0  0  0  0  0
    0.1620    0.8762    2.2257 H   0  0  0  0  0  0  0  0  0  0  0  0
  1  9  1  0  0  0  0
  2  1  1  0  0  0  0
  2  8  1  0  0  0  0
  3  4  1  0  0  0  0
  3  2  2  0  0  0  0
  4  7  1  0  0  0  0
  5  4  1  0  0  0  0
  5  6  1  0  0  0  0
  6  7  1  0  0  0  0
  6 14  1  0  0  0  0
  6 13  1  0  0  0  0
  7  8  2  0  0  0  0
  8 15  1  0  0  0  0
 10  3  1  0  0  0  0
 11  5  1  0  0  0  0
 12  5  1  0  0  0  0
M  END
