title
 OpenBabel02282109573D

 14 15  0  0  1  0  0  0  0  0999 V2000
   -0.4101    2.6664    0.1277 O   0  0  0  0  0  0  0  0  0  0  0  0
   -0.2247    1.3330    0.0202 C   0  0  0  0  0  0  0  0  0  0  0  0
   -0.3498    0.5859   -1.1384 C   0  0  0  0  0  0  0  0  0  0  0  0
   -0.1724   -0.7091   -0.6737 N   0  0  1  0  0  0  0  0  0  0  0  0
    0.3580   -2.0818   -0.8330 C   0  0  0  0  0  0  0  0  0  0  0  0
    0.5960   -2.0777    0.7284 C   0  0  0  0  0  0  0  0  0  0  0  0
    0.1163   -0.6417    0.6388 C   0  0  1  0  0  0  0  0  0  0  0  0
    0.0984    0.5787    1.1300 N   0  0  0  0  0  0  0  0  0  0  0  0
   -0.2499    2.8836    1.0541 H   0  0  0  0  0  0  0  0  0  0  0  0
   -0.6384    0.8530   -2.1385 H   0  0  0  0  0  0  0  0  0  0  0  0
   -0.3711   -2.7961   -1.2232 H   0  0  0  0  0  0  0  0  0  0  0  0
    1.2783   -2.1257   -1.4213 H   0  0  0  0  0  0  0  0  0  0  0  0
   -0.0278   -2.7697    1.2994 H   0  0  0  0  0  0  0  0  0  0  0  0
    1.6407   -2.2085    1.0201 H   0  0  0  0  0  0  0  0  0  0  0  0
  1  9  1  0  0  0  0
  2  1  1  0  0  0  0
  2  8  2  0  0  0  0
  3  2  1  0  0  0  0
  4  3  1  6  0  0  0
  5  4  1  0  0  0  0
  5  6  1  0  0  0  0
  6 14  1  0  0  0  0
  6 13  1  0  0  0  0
  7  4  1  6  0  0  0
  7  6  1  0  0  0  0
  7  8  1  0  0  0  0
 10  3  1  0  0  0  0
 11  5  1  0  0  0  0
 12  5  1  0  0  0  0
M  RAD  2   3   2   7   2
M  END
