title
 OpenBabel02282109573D

 14 14  0  0  0  0  0  0  0  0999 V2000
    0.0435   -3.2014   -0.0182 C   0  0  0  0  0  0  0  0  0  0  0  0
    0.0270   -1.9971   -0.0110 C   0  0  0  0  0  0  0  0  0  0  0  0
    0.0077   -0.5722   -0.0031 C   0  0  0  0  0  0  0  0  0  0  0  0
   -1.2115    0.1244    0.0168 C   0  0  0  0  0  0  0  0  0  0  0  0
   -1.2262    1.5138    0.0245 C   0  0  0  0  0  0  0  0  0  0  0  0
   -0.0302    2.2294    0.0125 C   0  0  0  0  0  0  0  0  0  0  0  0
    1.1847    1.5466   -0.0073 C   0  0  0  0  0  0  0  0  0  0  0  0
    1.2076    0.1573   -0.0151 C   0  0  0  0  0  0  0  0  0  0  0  0
    0.0582   -4.2629   -0.0246 H   0  0  0  0  0  0  0  0  0  0  0  0
   -2.1390   -0.4365    0.0260 H   0  0  0  0  0  0  0  0  0  0  0  0
   -2.1749    2.0399    0.0399 H   0  0  0  0  0  0  0  0  0  0  0  0
   -0.0449    3.3140    0.0185 H   0  0  0  0  0  0  0  0  0  0  0  0
    2.1189    2.0983   -0.0167 H   0  0  0  0  0  0  0  0  0  0  0  0
    2.1500   -0.3781   -0.0305 H   0  0  0  0  0  0  0  0  0  0  0  0
  1  2  3  0  0  0  0
  2  3  1  0  0  0  0
  3  4  2  0  0  0  0
  4  5  1  0  0  0  0
  4 10  1  0  0  0  0
  5 11  1  0  0  0  0
  6 12  1  0  0  0  0
  6  5  2  0  0  0  0
  7  6  1  0  0  0  0
  8  7  2  0  0  0  0
  8  3  1  0  0  0  0
  9  1  1  0  0  0  0
 13  7  1  0  0  0  0
 14  8  1  0  0  0  0
M  END
