13
title
C 0.043698322 -3.221174 -0.017585497
C 0.027359009 -2.017493 -0.011050228
C 0.008050175 -0.59372985 -0.0032543805
C -1.1995125 0.11754083 0.016852614
C -1.158964 1.5064447 0.023651553
N -0.030134711 2.2217982 0.01215245
C 1.117677 1.5374889 -0.0070078857
C 1.1958768 0.15020418 -0.015400702
H 0.058148082 -4.283181 -0.023320595
H -2.1459255 -0.4096272 0.026873337
H -2.0857906 2.074992 0.039199967
H 2.0287423 2.1310976 -0.016197687
H 2.1562364 -0.35096312 -0.031052358
