title
 OpenBabel02282109573D

 12 12  0  0  0  0  0  0  0  0999 V2000
    0.0458   -3.1662   -0.0173 C   0  0  0  0  0  0  0  0  0  0  0  0
    0.0686   -1.9632   -0.0112 C   0  0  0  0  0  0  0  0  0  0  0  0
    0.0472   -0.5363   -0.0035 C   0  0  0  0  0  0  0  0  0  0  0  0
   -1.1773    0.1535    0.0167 C   0  0  0  0  0  0  0  0  0  0  0  0
   -1.2452    1.4813    0.0246 N   0  0  0  0  0  0  0  0  0  0  0  0
   -0.0797    2.1320    0.0123 C   0  0  0  0  0  0  0  0  0  0  0  0
    1.1387    1.4551   -0.0077 C   0  0  0  0  0  0  0  0  0  0  0  0
    1.2161    0.1269   -0.0157 N   0  0  0  0  0  0  0  0  0  0  0  0
    0.0412   -4.2285   -0.0229 H   0  0  0  0  0  0  0  0  0  0  0  0
   -2.1135   -0.3973    0.0264 H   0  0  0  0  0  0  0  0  0  0  0  0
   -0.1171    3.2179    0.0185 H   0  0  0  0  0  0  0  0  0  0  0  0
    2.0787    2.0010   -0.0175 H   0  0  0  0  0  0  0  0  0  0  0  0
  1  2  3  0  0  0  0
  2  3  1  0  0  0  0
  3  4  2  0  0  0  0
  4  5  1  0  0  0  0
  4 10  1  0  0  0  0
  6 11  1  0  0  0  0
  6  5  2  0  0  0  0
  7  6  1  0  0  0  0
  8  7  2  0  0  0  0
  8  3  1  0  0  0  0
  9  1  1  0  0  0  0
 12  7  1  0  0  0  0
M  END
