title
 OpenBabel02282109573D

 12 12  0  0  0  0  0  0  0  0999 V2000
    0.0425   -3.1318   -0.0172 C   0  0  0  0  0  0  0  0  0  0  0  0
    0.0262   -1.9297   -0.0106 C   0  0  0  0  0  0  0  0  0  0  0  0
    0.0067   -0.4966   -0.0028 C   0  0  0  0  0  0  0  0  0  0  0  0
   -1.1993    0.0930    0.0166 N   0  0  0  0  0  0  0  0  0  0  0  0
   -1.2003    1.4248    0.0237 C   0  0  0  0  0  0  0  0  0  0  0  0
   -0.0295    2.1751    0.0120 C   0  0  0  0  0  0  0  0  0  0  0  0
    1.1612    1.4570   -0.0078 C   0  0  0  0  0  0  0  0  0  0  0  0
    1.1964    0.1257   -0.0154 N   0  0  0  0  0  0  0  0  0  0  0  0
    0.0569   -4.1939   -0.0230 H   0  0  0  0  0  0  0  0  0  0  0  0
   -2.1761    1.9053    0.0393 H   0  0  0  0  0  0  0  0  0  0  0  0
   -0.0442    3.2581    0.0179 H   0  0  0  0  0  0  0  0  0  0  0  0
    2.1236    1.9639   -0.0180 H   0  0  0  0  0  0  0  0  0  0  0  0
  1  2  3  0  0  0  0
  2  3  1  0  0  0  0
  3  4  2  0  0  0  0
  4  5  1  0  0  0  0
  5 10  1  0  0  0  0
  6 11  1  0  0  0  0
  6  5  2  0  0  0  0
  7  6  1  0  0  0  0
  8  7  2  0  0  0  0
  8  3  1  0  0  0  0
  9  1  1  0  0  0  0
 12  7  1  0  0  0  0
M  END
