12
title
C 0.042484127 -3.1317987 -0.01719644
C 0.02619241 -1.9297376 -0.0106086675
C 0.0067419196 -0.49655762 -0.002760712
N -1.1993296 0.09297809 0.016578114
C -1.2002944 1.4247929 0.023685297
C -0.029516796 2.1751232 0.011966623
C 1.1611896 1.4570154 -0.007828559
N 1.1963679 0.12566718 -0.015392621
H 0.05688752 -4.193906 -0.023018306
H -2.1761038 1.90528 0.039337996
H -0.044214524 3.2581096 0.017926913
H 2.1235988 1.9639491 -0.018041769
