12
title
C 0.045169413 -3.1839015 -0.017622896
C 0.011352268 -1.981485 -0.010607862
C 0.009965726 -0.5526958 -0.0030713796
N -1.1786282 0.077052906 0.016184274
C -1.1369706 1.4069568 0.022692682
N -0.05440821 2.1891599 0.01236328
C 1.1169587 1.5476559 -0.0067036254
C 1.211976 0.16351564 -0.01532201
H 0.05877471 -4.246233 -0.023744473
H -2.0984967 1.9147955 0.03824259
H 2.0112393 2.16652 -0.01536665
H 2.1672494 -0.3457964 -0.030785762
