11
title
C 0.04261476 -3.147504 -0.017984686
C 0.026132034 -1.9456605 -0.010834753
C 0.0068971687 -0.51541257 -0.0022872686
N -1.1917247 0.08848227 0.0167558
C -1.1365763 1.4175154 0.022911774
N -0.029148467 2.162035 0.011867117
C 1.0979154 1.4477578 -0.0071685
N 1.1888188 0.120700724 -0.015254134
H 0.0579864 -4.2100596 -0.02428603
H -2.0870905 1.946278 0.03848353
H 2.0338497 2.0020514 -0.016902195
