13
title
N 0.042535577 -3.1366243 -0.01648625
C 0.026862834 -1.9789742 -0.010372624
C 0.00744783 -0.5484444 -0.0028722382
C -1.2158241 0.13562748 0.017099075
C -1.2286619 1.5248911 0.024307529
C -0.030351076 2.2368124 0.011740789
C 1.1868354 1.557842 -0.00812595
C 1.2117031 0.16874263 -0.015497773
H -2.141715 -0.42729357 0.026745068
H -2.1758797 2.0525882 0.039764594
H -0.045069944 3.3213952 0.017434333
H 2.1193826 2.111182 -0.017908731
H 2.1525273 -0.3687139 -0.030918056
