title
 OpenBabel02282109573D

 13 13  0  0  0  0  0  0  0  0999 V2000
    0.0425   -3.1366   -0.0165 N   0  0  0  0  0  0  0  0  0  0  0  0
    0.0269   -1.9790   -0.0104 C   0  0  0  0  0  0  0  0  0  0  0  0
    0.0074   -0.5484   -0.0029 C   0  0  0  0  0  0  0  0  0  0  0  0
   -1.2158    0.1356    0.0171 C   0  0  0  0  0  0  0  0  0  0  0  0
   -1.2287    1.5249    0.0243 C   0  0  0  0  0  0  0  0  0  0  0  0
   -0.0304    2.2368    0.0117 C   0  0  0  0  0  0  0  0  0  0  0  0
    1.1868    1.5578   -0.0081 C   0  0  0  0  0  0  0  0  0  0  0  0
    1.2117    0.1687   -0.0155 C   0  0  0  0  0  0  0  0  0  0  0  0
   -2.1417   -0.4273    0.0267 H   0  0  0  0  0  0  0  0  0  0  0  0
   -2.1759    2.0526    0.0398 H   0  0  0  0  0  0  0  0  0  0  0  0
   -0.0451    3.3214    0.0174 H   0  0  0  0  0  0  0  0  0  0  0  0
    2.1194    2.1112   -0.0179 H   0  0  0  0  0  0  0  0  0  0  0  0
    2.1525   -0.3687   -0.0309 H   0  0  0  0  0  0  0  0  0  0  0  0
  1  2  3  0  0  0  0
  2  3  1  0  0  0  0
  3  4  2  0  0  0  0
  4  5  1  0  0  0  0
  4  9  1  0  0  0  0
  5 10  1  0  0  0  0
  6 11  1  0  0  0  0
  6  5  2  0  0  0  0
  7  6  1  0  0  0  0
  8  7  2  0  0  0  0
  8  3  1  0  0  0  0
 12  7  1  0  0  0  0
 13  8  1  0  0  0  0
M  END
