title
 OpenBabel02282109573D

 12 12  0  0  0  0  0  0  0  0999 V2000
    0.0454   -3.1369   -0.0168 N   0  0  0  0  0  0  0  0  0  0  0  0
    0.0462   -1.9793   -0.0108 C   0  0  0  0  0  0  0  0  0  0  0  0
    0.0428   -0.5507   -0.0034 C   0  0  0  0  0  0  0  0  0  0  0  0
   -1.1692    0.1563    0.0163 C   0  0  0  0  0  0  0  0  0  0  0  0
   -1.2415    1.4840    0.0241 N   0  0  0  0  0  0  0  0  0  0  0  0
   -0.0919    2.1658    0.0124 C   0  0  0  0  0  0  0  0  0  0  0  0
    1.1646    1.5633   -0.0073 C   0  0  0  0  0  0  0  0  0  0  0  0
    1.2375    0.1785   -0.0154 C   0  0  0  0  0  0  0  0  0  0  0  0
   -2.1095   -0.3878    0.0259 H   0  0  0  0  0  0  0  0  0  0  0  0
   -0.1802    3.2492    0.0191 H   0  0  0  0  0  0  0  0  0  0  0  0
    2.0634    2.1687   -0.0161 H   0  0  0  0  0  0  0  0  0  0  0  0
    2.1902   -0.3380   -0.0307 H   0  0  0  0  0  0  0  0  0  0  0  0
  1  2  3  0  0  0  0
  2  3  1  0  0  0  0
  3  4  2  0  0  0  0
  4  5  1  0  0  0  0
  4  9  1  0  0  0  0
  6 10  1  0  0  0  0
  6  5  2  0  0  0  0
  7  6  1  0  0  0  0
  8  7  2  0  0  0  0
  8  3  1  0  0  0  0
 11  7  1  0  0  0  0
 12  8  1  0  0  0  0
M  END
