11
title
N 0.032904454 -3.1057124 -0.016765716
C 0.060719226 -1.9495553 -0.010820212
C 0.0412648 -0.51195455 -0.003171648
C -1.1817582 0.16998278 0.017005086
N -1.2385862 1.5000194 0.02465301
C -0.070002824 2.141738 0.012055941
C 1.1489993 1.4604021 -0.008060957
N 1.2157205 0.13264547 -0.015837023
H -2.1205173 -0.37596145 0.026977621
H -0.10128927 3.2277884 0.018089928
H 2.0915773 2.0005593 -0.018106982
