title
 OpenBabel02282109573D

 11 11  0  0  0  0  0  0  0  0999 V2000
    0.0429   -3.1405   -0.0169 N   0  0  0  0  0  0  0  0  0  0  0  0
    0.0268   -1.9832   -0.0106 C   0  0  0  0  0  0  0  0  0  0  0  0
    0.0075   -0.5572   -0.0030 C   0  0  0  0  0  0  0  0  0  0  0  0
   -1.1925    0.1649    0.0167 C   0  0  0  0  0  0  0  0  0  0  0  0
   -1.2158    1.4939    0.0238 N   0  0  0  0  0  0  0  0  0  0  0  0
   -0.0286    2.1047    0.0112 C   0  0  0  0  0  0  0  0  0  0  0  0
    1.1748    1.5264   -0.0077 N   0  0  0  0  0  0  0  0  0  0  0  0
    1.1874    0.1973   -0.0147 C   0  0  0  0  0  0  0  0  0  0  0  0
   -2.1480   -0.3525    0.0267 H   0  0  0  0  0  0  0  0  0  0  0  0
   -0.0433    3.1914    0.0171 H   0  0  0  0  0  0  0  0  0  0  0  0
    2.1567   -0.2938   -0.0301 H   0  0  0  0  0  0  0  0  0  0  0  0
  1  2  3  0  0  0  0
  2  3  1  0  0  0  0
  3  4  2  0  0  0  0
  4  5  1  0  0  0  0
  4  9  1  0  0  0  0
  6 10  1  0  0  0  0
  6  5  2  0  0  0  0
  7  6  1  0  0  0  0
  8  7  2  0  0  0  0
  8  3  1  0  0  0  0
 11  8  1  0  0  0  0
M  END
