title
 OpenBabel02282109573D

 12 12  0  0  0  0  0  0  0  0999 V2000
    0.0593   -3.1042   -0.0174 N   0  0  0  0  0  0  0  0  0  0  0  0
    0.0143   -1.9485   -0.0101 C   0  0  0  0  0  0  0  0  0  0  0  0
    0.0066   -0.5076   -0.0026 C   0  0  0  0  0  0  0  0  0  0  0  0
   -1.1935    0.0893    0.0165 N   0  0  0  0  0  0  0  0  0  0  0  0
   -1.2075    1.4206    0.0236 C   0  0  0  0  0  0  0  0  0  0  0  0
   -0.0555    2.2076    0.0122 C   0  0  0  0  0  0  0  0  0  0  0  0
    1.1818    1.5744   -0.0076 C   0  0  0  0  0  0  0  0  0  0  0  0
    1.2206    0.1851   -0.0153 C   0  0  0  0  0  0  0  0  0  0  0  0
   -2.1902    1.8846    0.0392 H   0  0  0  0  0  0  0  0  0  0  0  0
   -0.1343    3.2887    0.0189 H   0  0  0  0  0  0  0  0  0  0  0  0
    2.1017    2.1487   -0.0169 H   0  0  0  0  0  0  0  0  0  0  0  0
    2.1568   -0.3595   -0.0306 H   0  0  0  0  0  0  0  0  0  0  0  0
  1  2  3  0  0  0  0
  2  3  1  0  0  0  0
  3  4  2  0  0  0  0
  4  5  1  0  0  0  0
  5  9  1  0  0  0  0
  6 10  1  0  0  0  0
  6  5  2  0  0  0  0
  7  6  1  0  0  0  0
  8  7  2  0  0  0  0
  8  3  1  0  0  0  0
 11  7  1  0  0  0  0
 12  8  1  0  0  0  0
M  END
