11
title
N 0.041816257 -3.0725226 -0.016920803
C 0.025974633 -1.9171612 -0.01045849
C 0.00635608 -0.4701095 -0.002320593
N -1.199689 0.103535965 0.016710058
C -1.2032039 1.4370724 0.023659436
C -0.02963795 2.1836426 0.011814868
C 1.1637412 1.469345 -0.007910173
N 1.1963943 0.13620599 -0.0152481515
H -2.1786013 1.9164959 0.039210346
H -0.0443261 3.2666132 0.01763028
H 2.125775 1.975185 -0.018200194
