11
title
N 0.052089974 -3.1054087 -0.017819772
C -0.007851917 -1.9504762 -0.009641923
C -0.027736783 -0.512919 -0.002111728
N -1.2189718 0.099524885 0.016837843
C -1.188207 1.4287363 0.023301482
C 0.011790594 2.1428447 0.011031321
N 1.1973864 1.5330249 -0.007846666
C 1.1765563 0.20207563 -0.014423581
H -2.1451464 1.9428121 0.038653966
H 0.013949789 3.229319 0.01656844
H 2.1297038 -0.31817314 -0.02972085
