title
 OpenBabel02282109573D

 11 11  0  0  0  0  0  0  0  0999 V2000
    0.0547   -3.1228   -0.0182 N   0  0  0  0  0  0  0  0  0  0  0  0
    0.0136   -1.9675   -0.0100 C   0  0  0  0  0  0  0  0  0  0  0  0
    0.0110   -0.5263   -0.0027 C   0  0  0  0  0  0  0  0  0  0  0  0
   -1.1802    0.0858    0.0163 N   0  0  0  0  0  0  0  0  0  0  0  0
   -1.1446    1.4167    0.0228 C   0  0  0  0  0  0  0  0  0  0  0  0
   -0.0599    2.1964    0.0123 N   0  0  0  0  0  0  0  0  0  0  0  0
    1.1140    1.5636   -0.0066 C   0  0  0  0  0  0  0  0  0  0  0  0
    1.2148    0.1768   -0.0151 C   0  0  0  0  0  0  0  0  0  0  0  0
   -2.1064    1.9224    0.0382 H   0  0  0  0  0  0  0  0  0  0  0  0
    2.0051    2.1862   -0.0152 H   0  0  0  0  0  0  0  0  0  0  0  0
    2.1696   -0.3331   -0.0304 H   0  0  0  0  0  0  0  0  0  0  0  0
  1  2  3  0  0  0  0
  2  3  1  0  0  0  0
  3  4  1  0  0  0  0
  4  5  2  0  0  0  0
  5  9  1  0  0  0  0
  6  5  1  0  0  0  0
  7  6  2  0  0  0  0
  8  7  1  0  0  0  0
  8  3  2  0  0  0  0
 10  7  1  0  0  0  0
 11  8  1  0  0  0  0
M  END
