title
 OpenBabel02282109573D

 10 10  0  0  0  0  0  0  0  0999 V2000
    0.0420   -3.0894   -0.0167 N   0  0  0  0  0  0  0  0  0  0  0  0
    0.0262   -1.9344   -0.0104 C   0  0  0  0  0  0  0  0  0  0  0  0
    0.0066   -0.4879   -0.0025 C   0  0  0  0  0  0  0  0  0  0  0  0
   -1.1921    0.0988    0.0167 N   0  0  0  0  0  0  0  0  0  0  0  0
   -1.1396    1.4310    0.0229 C   0  0  0  0  0  0  0  0  0  0  0  0
   -0.0294    2.1698    0.0117 N   0  0  0  0  0  0  0  0  0  0  0  0
    1.1003    1.4616   -0.0074 C   0  0  0  0  0  0  0  0  0  0  0  0
    1.1890    0.1313   -0.0154 N   0  0  0  0  0  0  0  0  0  0  0  0
   -2.0896    1.9591    0.0385 H   0  0  0  0  0  0  0  0  0  0  0  0
    2.0356    2.0154   -0.0172 H   0  0  0  0  0  0  0  0  0  0  0  0
  1  2  3  0  0  0  0
  2  3  1  0  0  0  0
  3  4  2  0  0  0  0
  4  5  2  0  0  0  0
  5  9  1  0  0  0  0
  6  5  1  0  0  0  0
  7  6  2  0  0  0  0
  8  7  1  0  0  0  0
  8  3  1  0  0  0  0
 10  7  1  0  0  0  0
M  RAD  1   8   2
M  END
