title
 OpenBabel02282109573D

 13 13  0  0  0  0  0  0  0  0999 V2000
   -1.8753   -2.1364    0.0026 O   0  0  0  0  0  0  0  0  0  0  0  0
   -1.8078   -0.9316    0.0121 C   0  0  0  0  0  0  0  0  0  0  0  0
   -0.5351   -0.1642    0.0045 C   0  0  0  0  0  0  0  0  0  0  0  0
    0.6979   -0.8195   -0.0147 C   0  0  0  0  0  0  0  0  0  0  0  0
    1.8538   -0.0494   -0.0210 C   0  0  0  0  0  0  0  0  0  0  0  0
    1.8539    1.2894   -0.0095 N   0  0  0  0  0  0  0  0  0  0  0  0
    0.6704    1.9060    0.0088 C   0  0  0  0  0  0  0  0  0  0  0  0
   -0.5473    1.2295    0.0165 C   0  0  0  0  0  0  0  0  0  0  0  0
   -2.7244   -0.3011    0.0275 H   0  0  0  0  0  0  0  0  0  0  0  0
    0.7321   -1.9026   -0.0243 H   0  0  0  0  0  0  0  0  0  0  0  0
    2.8309   -0.5256   -0.0358 H   0  0  0  0  0  0  0  0  0  0  0  0
    0.6956    2.9928    0.0179 H   0  0  0  0  0  0  0  0  0  0  0  0
   -1.4850    1.7769    0.0316 H   0  0  0  0  0  0  0  0  0  0  0  0
  1  2  2  0  0  0  0
  2  9  1  0  0  0  0
  3  2  1  0  0  0  0
  3  8  2  0  0  0  0
  4  3  1  0  0  0  0
  5  4  2  0  0  0  0
  5  6  1  0  0  0  0
  6  7  2  0  0  0  0
  7  8  1  0  0  0  0
  7 12  1  0  0  0  0
  8 13  1  0  0  0  0
 10  4  1  0  0  0  0
 11  5  1  0  0  0  0
M  END
