13
title
O -2.5874772 -1.0398971 0.242256
C -1.4612293 -1.3315322 -0.08248269
C -0.30987656 -0.38564715 -0.04792351
N 0.865507 -0.89178205 -0.44618878
C 1.919176 -0.07681296 -0.42948374
C 1.8522183 1.2562878 -0.022598106
C 0.6255666 1.7707312 0.3889898
C -0.48190427 0.932945 0.3769771
H -1.1837144 -2.3446805 -0.43973687
H 2.8643894 -0.5040165 -0.75571924
H 2.744821 1.8719368 -0.030473748
H 0.5371951 2.802701 0.7117149
H -1.4677486 1.2623692 0.6830123
