title
 OpenBabel02282109573D

 12 12  0  0  0  0  0  0  0  0999 V2000
   -1.8408   -2.0875    0.0030 O   0  0  0  0  0  0  0  0  0  0  0  0
   -1.7443   -0.8897    0.0116 C   0  0  0  0  0  0  0  0  0  0  0  0
   -0.4399   -0.1368    0.0035 C   0  0  0  0  0  0  0  0  0  0  0  0
    0.6992   -0.8342   -0.0146 N   0  0  0  0  0  0  0  0  0  0  0  0
    1.8206   -0.1159   -0.0208 C   0  0  0  0  0  0  0  0  0  0  0  0
    1.8135    1.2771   -0.0091 C   0  0  0  0  0  0  0  0  0  0  0  0
    0.5681    1.8944    0.0095 C   0  0  0  0  0  0  0  0  0  0  0  0
   -0.5674    1.1947    0.0159 N   0  0  0  0  0  0  0  0  0  0  0  0
   -2.6215   -0.2104    0.0268 H   0  0  0  0  0  0  0  0  0  0  0  0
    2.7550   -0.6725   -0.0356 H   0  0  0  0  0  0  0  0  0  0  0  0
    2.7325    1.8508   -0.0143 H   0  0  0  0  0  0  0  0  0  0  0  0
    0.4751    2.9780    0.0194 H   0  0  0  0  0  0  0  0  0  0  0  0
  1  2  2  0  0  0  0
  2  9  1  0  0  0  0
  3  2  1  0  0  0  0
  3  8  1  0  0  0  0
  4  3  2  0  0  0  0
  5  4  1  0  0  0  0
  5  6  2  0  0  0  0
  6  7  1  0  0  0  0
  7  8  2  0  0  0  0
  7 12  1  0  0  0  0
 10  5  1  0  0  0  0
 11  6  1  0  0  0  0
M  END
