title
 OpenBabel02282109573D

 12 12  0  0  0  0  0  0  0  0999 V2000
   -1.8418   -2.1314    0.0031 O   0  0  0  0  0  0  0  0  0  0  0  0
   -1.7541   -0.9317    0.0114 C   0  0  0  0  0  0  0  0  0  0  0  0
   -0.4703   -0.1677    0.0037 C   0  0  0  0  0  0  0  0  0  0  0  0
    0.6869   -0.8458   -0.0145 N   0  0  0  0  0  0  0  0  0  0  0  0
    1.7922   -0.1125   -0.0205 C   0  0  0  0  0  0  0  0  0  0  0  0
    1.7575    1.2873   -0.0086 C   0  0  0  0  0  0  0  0  0  0  0  0
    0.6132    1.9680    0.0094 N   0  0  0  0  0  0  0  0  0  0  0  0
   -0.4986    1.2279    0.0154 C   0  0  0  0  0  0  0  0  0  0  0  0
   -2.6571   -0.2806    0.0263 H   0  0  0  0  0  0  0  0  0  0  0  0
    2.7410   -0.6431   -0.0352 H   0  0  0  0  0  0  0  0  0  0  0  0
    2.6777    1.8659   -0.0138 H   0  0  0  0  0  0  0  0  0  0  0  0
   -1.4457    1.7631    0.0299 H   0  0  0  0  0  0  0  0  0  0  0  0
  1  2  2  0  0  0  0
  2  9  1  0  0  0  0
  3  2  1  0  0  0  0
  3  8  2  0  0  0  0
  4  3  1  0  0  0  0
  5  4  2  0  0  0  0
  5  6  1  0  0  0  0
  6  7  2  0  0  0  0
  7  8  1  0  0  0  0
  8 12  1  0  0  0  0
 10  5  1  0  0  0  0
 11  6  1  0  0  0  0
M  END
