12
title
O -1.8417637 -2.1313553 0.0030607453
C -1.7541072 -0.93172705 0.011437753
C -0.47026658 -0.16770807 0.0036609762
N 0.68685687 -0.8458235 -0.014493649
C 1.7922074 -0.112466246 -0.020530183
C 1.75747 1.2873489 -0.00864298
N 0.6132153 1.9679769 0.009363881
C -0.4985807 1.2279109 0.015368195
H -2.6570745 -0.28056553 0.026317226
H 2.7409995 -0.6431217 -0.035186898
H 2.6777189 1.8658859 -0.013754866
H -1.445674 1.763075 0.029910684
