title
 OpenBabel02282109573D

 12 12  0  0  0  0  0  0  0  0999 V2000
   -2.5943   -1.0624    0.2445 O   0  0  0  0  0  0  0  0  0  0  0  0
   -1.4728   -1.3539   -0.0890 C   0  0  0  0  0  0  0  0  0  0  0  0
   -0.3241   -0.3954   -0.0491 C   0  0  0  0  0  0  0  0  0  0  0  0
    0.8583   -0.8752   -0.4533 N   0  0  0  0  0  0  0  0  0  0  0  0
    1.8777   -0.0181   -0.4159 C   0  0  0  0  0  0  0  0  0  0  0  0
    1.8398    1.2571   -0.0207 N   0  0  0  0  0  0  0  0  0  0  0  0
    0.6494    1.7141    0.3784 C   0  0  0  0  0  0  0  0  0  0  0  0
   -0.4885    0.9166    0.3852 C   0  0  0  0  0  0  0  0  0  0  0  0
   -1.1936   -2.3622   -0.4560 H   0  0  0  0  0  0  0  0  0  0  0  0
    2.8436   -0.3957   -0.7421 H   0  0  0  0  0  0  0  0  0  0  0  0
    0.6111    2.7516    0.7015 H   0  0  0  0  0  0  0  0  0  0  0  0
   -1.4589    1.2741    0.7062 H   0  0  0  0  0  0  0  0  0  0  0  0
  2  3  1  0  0  0  0
  2  1  2  0  0  0  0
  3  8  2  0  0  0  0
  4  5  2  0  0  0  0
  4  3  1  0  0  0  0
  5  6  1  0  0  0  0
  6  7  2  0  0  0  0
  7  8  1  0  0  0  0
  7 11  1  0  0  0  0
  8 12  1  0  0  0  0
  9  2  1  0  0  0  0
 10  5  1  0  0  0  0
M  END
