12
title
O -2.594254 -1.0623801 0.24446683
C -1.4728025 -1.3539113 -0.08903416
C -0.32409805 -0.39541087 -0.04912469
N 0.8583264 -0.87515855 -0.45333102
C 1.8776959 -0.018094404 -0.41586274
N 1.8398329 1.2570554 -0.020706702
C 0.64943284 1.7141308 0.37835592
C -0.48846954 0.91664207 0.38524824
H -1.1936309 -2.3621914 -0.4559552
H 2.8435953 -0.39567026 -0.7420515
H 0.61105865 2.7516353 0.7014991
H -1.4588506 1.2741016 0.70615655
