title
 OpenBabel02282109573D

 11 11  0  0  0  0  0  0  0  0999 V2000
   -1.8444   -2.1004    0.0024 O   0  0  0  0  0  0  0  0  0  0  0  0
   -1.7627   -0.9031    0.0113 C   0  0  0  0  0  0  0  0  0  0  0  0
   -0.4548   -0.1455    0.0036 C   0  0  0  0  0  0  0  0  0  0  0  0
    0.6901   -0.8297   -0.0144 N   0  0  0  0  0  0  0  0  0  0  0  0
    1.7803   -0.0651   -0.0198 C   0  0  0  0  0  0  0  0  0  0  0  0
    1.8018    1.2703   -0.0086 N   0  0  0  0  0  0  0  0  0  0  0  0
    0.5955    1.8368    0.0091 C   0  0  0  0  0  0  0  0  0  0  0  0
   -0.5681    1.1860    0.0159 N   0  0  0  0  0  0  0  0  0  0  0  0
   -2.6429   -0.2293    0.0262 H   0  0  0  0  0  0  0  0  0  0  0  0
    2.7412   -0.5743   -0.0347 H   0  0  0  0  0  0  0  0  0  0  0  0
    0.5574    2.9236    0.0187 H   0  0  0  0  0  0  0  0  0  0  0  0
  1  2  2  0  0  0  0
  2  9  1  0  0  0  0
  3  2  1  0  0  0  0
  3  8  1  0  0  0  0
  4  3  2  0  0  0  0
  5  4  2  0  0  0  0
  5  6  1  0  0  0  0
  6  7  2  0  0  0  0
  7  8  1  0  0  0  0
  7 11  1  0  0  0  0
 10  5  1  0  0  0  0
M  RAD  1   8   2
M  END
