15
title
C -1.127643 2.2240412 1.5006689
N -1.0453682 0.7741198 1.484523
C -0.37799087 0.20937245 0.54167235
C 0.3414468 0.84964067 -0.564856
C 0.99713427 0.117878 -1.4780573
O 1.0599847 -1.23547 -1.4724885
C 0.40560666 -1.8780301 -0.4615664
C -0.27797064 -1.246701 0.4999929
H -0.14132084 2.704766 1.5925288
H -1.6067351 2.632817 0.597485
H -1.7263614 2.5385168 2.3596714
H 0.35729912 1.9265587 -0.6661667
H 1.5465095 0.5267031 -2.3172097
H 0.5176905 -2.9505286 -0.5489213
H -0.77524525 -1.8175845 1.2742414
