14
title
C -0.68267465 2.2297518 1.6862297
N -0.630959 0.7823017 1.6485851
C -0.22645552 0.18310788 0.59818745
C -0.17039843 -1.2761152 0.5504183
C 0.25470203 -1.8928645 -0.5534865
O 0.6505048 -1.2017537 -1.6712285
C 0.5799432 0.15323332 -1.5773622
N 0.19562475 0.8446693 -0.5888278
H -0.06207604 2.5835369 2.5189621
H -0.3571132 2.7216303 0.7637612
H -1.7098157 2.5402951 1.914724
H -0.47759056 -1.841963 1.4200691
H 0.3368615 -2.9613688 -0.6993415
H 0.912189 0.60781705 -2.5070853
