title
 OpenBabel02282109573D

 13 13  0  0  0  0  0  0  0  0999 V2000
   -1.1199    2.2028    1.4197 C   0  0  0  0  0  0  0  0  0  0  0  0
   -1.0809    0.7581    1.3565 N   0  0  0  0  0  0  0  0  0  0  0  0
   -0.3798    0.1761    0.4760 C   0  0  0  0  0  0  0  0  0  0  0  0
    0.4062    0.8546   -0.4978 N   0  0  0  0  0  0  0  0  0  0  0  0
    1.0612    0.1576   -1.3224 C   0  0  0  0  0  0  0  0  0  0  0  0
    1.0955   -1.2078   -1.3795 O   0  0  0  0  0  0  0  0  0  0  0  0
    0.3219   -1.8192   -0.4205 C   0  0  0  0  0  0  0  0  0  0  0  0
   -0.3762   -1.2404    0.4567 N   0  0  0  0  0  0  0  0  0  0  0  0
   -0.5106    2.7123    0.6658 H   0  0  0  0  0  0  0  0  0  0  0  0
   -2.1625    2.5280    1.3202 H   0  0  0  0  0  0  0  0  0  0  0  0
   -0.7941    2.5168    2.4187 H   0  0  0  0  0  0  0  0  0  0  0  0
    1.6866    0.5911   -2.0983 H   0  0  0  0  0  0  0  0  0  0  0  0
    0.3848   -2.8993   -0.5102 H   0  0  0  0  0  0  0  0  0  0  0  0
  1 11  1  0  0  0  0
  2  1  1  0  0  0  0
  3  2  1  0  0  0  0
  4  3  2  0  0  0  0
  5  4  2  0  0  0  0
  6  5  1  0  0  0  0
  6  7  1  0  0  0  0
  7  8  2  0  0  0  0
  8  3  2  0  0  0  0
  9  1  1  0  0  0  0
 10  1  1  0  0  0  0
 12  5  1  0  0  0  0
 13  7  1  0  0  0  0
M  RAD  1   2   2
M  END
