13
title
C -1.1199138 2.2028294 1.4197242
N -1.0809093 0.75812083 1.356457
C -0.37977782 0.17607363 0.47597605
N 0.40623137 0.8545887 -0.49777174
C 1.0612168 0.15756948 -1.3224288
O 1.0954618 -1.2077979 -1.3795248
C 0.3218958 -1.8191504 -0.42045677
N -0.37616155 -1.2403646 0.4567268
H -0.5106386 2.7122555 0.66584885
H -2.1625247 2.5279524 1.3201689
H -0.79406697 2.5167708 2.418674
H 1.6866112 0.5910966 -2.0982783
H 0.38482925 -2.8992994 -0.51020086
