15
title
C -0.89126426 2.2023075 1.5397464
N -0.8878911 0.7542339 1.5550587
C -0.3309433 0.13681969 0.58175516
N 0.29143643 0.76074165 -0.5248724
C 0.8740803 0.0676051 -1.5425817
N 0.9306649 -1.21834 -1.6238343
C 0.3395704 -1.9013674 -0.5713314
C -0.263067 -1.3066416 0.48301053
H 0.1240028 2.637007 1.5463024
H -1.4220237 2.6242645 0.66793615
H -1.4014068 2.5731094 2.432253
H 0.30228007 1.7683886 -0.55842865
H 1.3139873 0.6796621 -2.3273318
H 0.38993847 -2.9832888 -0.6444744
H -0.7143252 -1.8733871 1.2871596
