14
title
C -0.8456281 2.1682737 1.4605675
N -0.85448664 0.71862006 1.4961063
C -0.31634066 0.074295804 0.5565448
O 0.28907254 0.8027822 -0.5208053
C 0.86643344 0.14389472 -1.5292612
C 0.90868324 -1.1994087 -1.5850333
C 0.2906901 -1.8917774 -0.48597974
N -0.2807351 -1.3048862 0.5130385
H 0.17475405 2.5752368 1.4405345
H -1.3626916 2.5629168 0.57504684
H -1.350437 2.54815 2.3515415
H 1.2829868 0.815958 -2.272918
H 1.3793284 -1.718361 -2.4074755
H 0.29290453 -2.9817886 -0.47479028
