title
 OpenBabel02282109573D

 14 14  0  0  0  0  0  0  0  0999 V2000
   -1.2637    2.1892   -1.2094 C   0  0  0  0  0  0  0  0  0  0  0  0
   -1.2420    0.7370   -1.2099 N   0  0  0  0  0  0  0  0  0  0  0  0
   -0.4435    0.1371   -0.4336 C   0  0  0  0  0  0  0  0  0  0  0  0
    0.4132    0.8316    0.4196 O   0  0  0  0  0  0  0  0  0  0  0  0
    1.2451    0.1273    1.2260 C   0  0  0  0  0  0  0  0  0  0  0  0
    1.2742   -1.2129    1.2337 C   0  0  0  0  0  0  0  0  0  0  0  0
    0.4469   -1.9711    0.4090 N   0  0  0  0  0  0  0  0  0  0  0  0
   -0.3493   -1.3202   -0.3634 C   0  0  0  0  0  0  0  0  0  0  0  0
   -0.2849    2.6130   -1.4722 H   0  0  0  0  0  0  0  0  0  0  0  0
   -1.9997    2.5369   -1.9371 H   0  0  0  0  0  0  0  0  0  0  0  0
   -1.5301    2.5930   -0.2231 H   0  0  0  0  0  0  0  0  0  0  0  0
    1.8607    0.7718    1.8410 H   0  0  0  0  0  0  0  0  0  0  0  0
    1.9478   -1.7517    1.8872 H   0  0  0  0  0  0  0  0  0  0  0  0
   -1.0173   -1.8626   -1.0281 H   0  0  0  0  0  0  0  0  0  0  0  0
  1 11  1  0  0  0  0
  2  1  1  0  0  0  0
  2  3  1  0  0  0  0
  3  8  2  0  0  0  0
  3  4  1  0  0  0  0
  4  5  1  0  0  0  0
  5  6  2  0  0  0  0
  5 12  1  0  0  0  0
  6 13  1  0  0  0  0
  7  6  1  0  0  0  0
  8  7  1  0  0  0  0
  9  1  1  0  0  0  0
 10  1  1  0  0  0  0
 14  8  1  0  0  0  0
M  RAD  2   2   2   7   2
M  END
