title
 OpenBabel02282109573D

 17 17  0  0  0  0  0  0  0  0999 V2000
   -1.1225    2.0589   -1.7175 C   0  0  0  0  0  0  0  0  0  0  0  0
   -1.0120    0.5241   -1.7185 C   0  0  0  0  0  0  0  0  0  0  0  0
   -0.3124   -0.0127   -0.4930 C   0  0  0  0  0  0  0  0  0  0  0  0
    1.0588   -0.2868   -0.5016 C   0  0  0  0  0  0  0  0  0  0  0  0
    1.7524   -0.7337    0.5471 N   0  0  0  0  0  0  0  0  0  0  0  0
    1.0801   -0.9330    1.6835 C   0  0  0  0  0  0  0  0  0  0  0  0
   -0.2865   -0.7014    1.8132 C   0  0  0  0  0  0  0  0  0  0  0  0
   -0.9883   -0.2353    0.7079 C   0  0  0  0  0  0  0  0  0  0  0  0
   -0.1314    2.5219   -1.6831 H   0  0  0  0  0  0  0  0  0  0  0  0
   -1.6341    2.4140   -2.6175 H   0  0  0  0  0  0  0  0  0  0  0  0
   -1.6835    2.4124   -0.8463 H   0  0  0  0  0  0  0  0  0  0  0  0
   -2.0161    0.0891   -1.7860 H   0  0  0  0  0  0  0  0  0  0  0  0
   -0.4714    0.2011   -2.6154 H   0  0  0  0  0  0  0  0  0  0  0  0
    1.6273   -0.1385   -1.4191 H   0  0  0  0  0  0  0  0  0  0  0  0
    1.6602   -1.2982    2.5277 H   0  0  0  0  0  0  0  0  0  0  0  0
   -0.7866   -0.8874    2.7574 H   0  0  0  0  0  0  0  0  0  0  0  0
   -2.0569   -0.0490    0.7729 H   0  0  0  0  0  0  0  0  0  0  0  0
  1  9  1  0  0  0  0
  1 11  1  0  0  0  0
  2  1  1  0  0  0  0
  2  3  1  0  0  0  0
  3  8  1  0  0  0  0
  4  3  2  0  0  0  0
  4  5  1  0  0  0  0
  5  6  2  0  0  0  0
  6  7  1  0  0  0  0
  6 15  1  0  0  0  0
  7 16  1  0  0  0  0
  8 17  1  0  0  0  0
  8  7  2  0  0  0  0
 10  1  1  0  0  0  0
 12  2  1  0  0  0  0
 13  2  1  0  0  0  0
 14  4  1  0  0  0  0
M  END
