17
title
C -1.1224768 2.0589197 -1.7174798
C -1.0120109 0.52409035 -1.7184564
C -0.31237483 -0.012727887 -0.49296984
C 1.0588408 -0.28683683 -0.5016136
N 1.7523615 -0.7336889 0.5471225
C 1.0801384 -0.9329544 1.6834521
C -0.28645384 -0.70144457 1.8131614
C -0.9882852 -0.23531756 0.70786524
H -0.13137752 2.5219107 -1.6831113
H -1.6340666 2.4139712 -2.6174529
H -1.6834556 2.4124048 -0.84632635
H -2.0160654 0.089087814 -1.7859982
H -0.47143996 0.20108151 -2.615355
H 1.6272602 -0.13848671 -1.4190595
H 1.6601956 -1.2981988 2.5277228
H -0.7866321 -0.88741213 2.7574315
H -2.0569282 -0.04899928 0.7728522
