title
 OpenBabel02282109573D

 16 16  0  0  0  0  0  0  0  0999 V2000
    2.0182    2.0937   -0.0087 C   0  0  0  0  0  0  0  0  0  0  0  0
    1.9889    0.5551   -0.0156 C   0  0  0  0  0  0  0  0  0  0  0  0
    0.5879   -0.0012   -0.0054 C   0  0  0  0  0  0  0  0  0  0  0  0
   -0.1050   -0.2712    1.1754 C   0  0  0  0  0  0  0  0  0  0  0  0
   -1.3557   -0.7344    1.2021 N   0  0  0  0  0  0  0  0  0  0  0  0
   -1.9261   -0.9341    0.0133 C   0  0  0  0  0  0  0  0  0  0  0  0
   -1.3757   -0.7281   -1.1839 N   0  0  0  0  0  0  0  0  0  0  0  0
   -0.1247   -0.2650   -1.1757 C   0  0  0  0  0  0  0  0  0  0  0  0
    3.0485    2.4617   -0.0165 H   0  0  0  0  0  0  0  0  0  0  0  0
    1.5045    2.4998   -0.8857 H   0  0  0  0  0  0  0  0  0  0  0  0
    1.5208    2.4917    0.8813 H   0  0  0  0  0  0  0  0  0  0  0  0
    2.5189    0.1854   -0.9009 H   0  0  0  0  0  0  0  0  0  0  0  0
    2.5351    0.1772    0.8562 H   0  0  0  0  0  0  0  0  0  0  0  0
    0.3731   -0.1120    2.1416 H   0  0  0  0  0  0  0  0  0  0  0  0
   -2.9473   -1.3079    0.0209 H   0  0  0  0  0  0  0  0  0  0  0  0
    0.3371   -0.1007   -2.1490 H   0  0  0  0  0  0  0  0  0  0  0  0
  1 11  1  0  0  0  0
  2  1  1  0  0  0  0
  2  3  1  0  0  0  0
  2 13  1  0  0  0  0
  3  4  2  0  0  0  0
  4  5  1  0  0  0  0
  4 14  1  0  0  0  0
  6 15  1  0  0  0  0
  6  5  2  0  0  0  0
  7  8  2  0  0  0  0
  7  6  1  0  0  0  0
  8  3  1  0  0  0  0
  9  1  1  0  0  0  0
 10  1  1  0  0  0  0
 12  2  1  0  0  0  0
 16  8  1  0  0  0  0
M  END
