16
title
C 2.0182161 2.0936992 -0.008729544
C 1.9889411 0.55507505 -0.015641911
C 0.5879456 -0.0011663579 -0.0053962693
C -0.10501586 -0.27120072 1.1753663
N -1.3556927 -0.7343922 1.2020942
C -1.9261416 -0.93413967 0.01326749
N -1.3757416 -0.7281211 -1.1838802
C -0.12474452 -0.2650274 -1.1757338
H 3.0484695 2.461747 -0.016487202
H 1.504543 2.4998462 -0.8856878
H 1.5208251 2.4916523 0.8812841
H 2.5189407 0.18535833 -0.90090835
H 2.5351264 0.17716883 0.8562318
H 0.37311995 -0.111957446 2.1415715
H -2.9472938 -1.3079166 0.020868568
H 0.3370993 -0.10066606 -2.1489797
