17
title
C -1.2063618 2.0123534 -1.6369073
C -0.9087693 0.5078984 -1.7409612
C -0.2420482 -0.030250395 -0.49684623
N 1.010402 0.39160836 -0.265232
C 1.6298599 -0.0458168 0.83128726
C 1.0540245 -0.9169127 1.7526373
C -0.24353123 -1.354214 1.5125736
C -0.90017325 -0.9046984 0.37233123
H -0.28427458 2.5642626 -1.4367235
H -1.6423811 2.3893323 -2.5669918
H -1.9093692 2.2200997 -0.8234297
H -1.8332269 -0.046992563 -1.9335288
H -0.24122441 0.33363518 -2.5923538
H 2.6447465 0.31673175 0.98175204
H 1.609345 -1.239519 2.626059
H -0.73625535 -2.0349743 2.1994586
H -1.912638 -1.2263098 0.15210399
