16
title
C 1.9324663 2.0489688 -0.007920384
C 1.9283239 0.510155 -0.015435849
C 0.5246589 -0.035612755 -0.005080514
N -0.042839058 -0.24445611 1.1916087
C -1.2963449 -0.69861495 1.1875508
C -1.9973058 -0.94820714 0.013945511
C -1.316029 -0.69338894 -1.1700532
N -0.06270588 -0.23919606 -1.1930362
H 2.9570513 2.431991 -0.015316313
H 1.4143057 2.4418805 -0.88804466
H 1.4303303 2.433102 0.8852622
H 2.4374926 0.14417744 -0.9112081
H 2.453982 0.1356703 0.86722994
H -1.7522131 -0.86953104 2.1609313
H -3.01437 -1.3207214 0.021603508
H -1.7880853 -0.8599621 -2.136445
