title
 OpenBabel02282109573D

 16 16  0  0  0  0  0  0  0  0999 V2000
   -0.8786    1.9999    1.8671 C   0  0  0  0  0  0  0  0  0  0  0  0
   -1.0732    0.4870    1.6717 C   0  0  0  0  0  0  0  0  0  0  0  0
   -0.3137   -0.0319    0.4776 C   0  0  0  0  0  0  0  0  0  0  0  0
   -0.7329    0.3750   -0.7306 N   0  0  0  0  0  0  0  0  0  0  0  0
   -0.0530   -0.0711   -1.7844 C   0  0  0  0  0  0  0  0  0  0  0  0
    1.0060   -0.8836   -1.7829 N   0  0  0  0  0  0  0  0  0  0  0  0
    1.4144   -1.2822   -0.5757 C   0  0  0  0  0  0  0  0  0  0  0  0
    0.7856   -0.8826    0.5963 C   0  0  0  0  0  0  0  0  0  0  0  0
    0.1700    2.2400    2.0706 H   0  0  0  0  0  0  0  0  0  0  0  0
   -1.1821    2.5382    0.9658 H   0  0  0  0  0  0  0  0  0  0  0  0
   -1.4789    2.3607    2.7071 H   0  0  0  0  0  0  0  0  0  0  0  0
   -0.7622   -0.0556    2.5704 H   0  0  0  0  0  0  0  0  0  0  0  0
   -2.1377    0.2801    1.5142 H   0  0  0  0  0  0  0  0  0  0  0  0
   -0.4020    0.2630   -2.7592 H   0  0  0  0  0  0  0  0  0  0  0  0
    2.2757   -1.9465   -0.5490 H   0  0  0  0  0  0  0  0  0  0  0  0
    1.1349   -1.2209    1.5653 H   0  0  0  0  0  0  0  0  0  0  0  0
  1  9  1  0  0  0  0
  1 11  1  0  0  0  0
  2  1  1  0  0  0  0
  2 12  1  0  0  0  0
  3  8  2  0  0  0  0
  3  2  1  0  0  0  0
  4  3  1  0  0  0  0
  5  6  1  0  0  0  0
  5  4  2  0  0  0  0
  6  7  2  0  0  0  0
  7 15  1  0  0  0  0
  7  8  1  0  0  0  0
  8 16  1  0  0  0  0
 10  1  1  0  0  0  0
 13  2  1  0  0  0  0
 14  5  1  0  0  0  0
M  END
