17
title
C -0.8414816 2.2340765 1.6415801
N -0.9908592 0.8082304 1.4421246
C -0.30922356 0.13519302 0.43726993
C 0.2952818 0.8074639 -0.63652
C 0.9299814 0.08974268 -1.6474975
C 0.98838204 -1.2994782 -1.6154763
C 0.39505377 -1.971546 -0.54591286
C -0.24420334 -1.2698535 0.46478546
H 0.20645551 2.553408 1.7573888
H -1.2705061 2.7911017 0.8009962
H -1.391465 2.523173 2.5399942
H -1.108056 0.27472618 2.2885823
H 0.27011588 1.8891816 -0.68557036
H 1.3887335 0.63263834 -2.468206
H 1.4872483 -1.850396 -2.4045677
H 0.43047705 -3.0554733 -0.49748218
H -0.70732147 -1.8040394 1.2902288
