title
 OpenBabel02282109573D

 16 16  0  0  0  0  0  0  0  0999 V2000
   -0.8788    2.2399   -1.5939 C   0  0  0  0  0  0  0  0  0  0  0  0
   -1.0141    0.8065   -1.4294 N   0  0  0  0  0  0  0  0  0  0  0  0
   -0.3223    0.1139   -0.4508 C   0  0  0  0  0  0  0  0  0  0  0  0
    0.3059    0.7548    0.6327 C   0  0  0  0  0  0  0  0  0  0  0  0
    0.9414    0.1105    1.6116 N   0  0  0  0  0  0  0  0  0  0  0  0
    0.9944   -1.2205    1.5631 C   0  0  0  0  0  0  0  0  0  0  0  0
    0.4147   -1.9573    0.5309 C   0  0  0  0  0  0  0  0  0  0  0  0
   -0.2484   -1.2875   -0.4832 C   0  0  0  0  0  0  0  0  0  0  0  0
    0.1640    2.5678   -1.7250 H   0  0  0  0  0  0  0  0  0  0  0  0
   -1.4510    2.5473   -2.4717 H   0  0  0  0  0  0  0  0  0  0  0  0
   -1.2920    2.7698   -0.7288 H   0  0  0  0  0  0  0  0  0  0  0  0
   -1.1533    0.2922   -2.2845 H   0  0  0  0  0  0  0  0  0  0  0  0
    0.2904    1.8379    0.7095 H   0  0  0  0  0  0  0  0  0  0  0  0
    1.5208   -1.7168    2.3739 H   0  0  0  0  0  0  0  0  0  0  0  0
    0.4832   -3.0399    0.5238 H   0  0  0  0  0  0  0  0  0  0  0  0
   -0.7138   -1.8337   -1.2994 H   0  0  0  0  0  0  0  0  0  0  0  0
  1  2  1  0  0  0  0
  1 11  1  0  0  0  0
  2  3  1  0  0  0  0
  3  4  1  0  0  0  0
  4 13  1  0  0  0  0
  4  5  2  0  0  0  0
  6  5  1  0  0  0  0
  6 14  1  0  0  0  0
  7  6  2  0  0  0  0
  8  3  2  0  0  0  0
  8  7  1  0  0  0  0
  9  1  1  0  0  0  0
 10  1  1  0  0  0  0
 12  2  1  0  0  0  0
 15  7  1  0  0  0  0
 16  8  1  0  0  0  0
M  END
