title
 OpenBabel02282109573D

 15 15  0  0  0  0  0  0  0  0999 V2000
    1.7766    2.2902   -0.0843 C   0  0  0  0  0  0  0  0  0  0  0  0
    1.7204    0.8567    0.1220 N   0  0  0  0  0  0  0  0  0  0  0  0
    0.5359    0.1559    0.0426 C   0  0  0  0  0  0  0  0  0  0  0  0
   -0.7317    0.7573    0.0542 C   0  0  0  0  0  0  0  0  0  0  0  0
   -1.8610    0.0491    0.0211 N   0  0  0  0  0  0  0  0  0  0  0  0
   -1.7413   -1.2745   -0.0330 C   0  0  0  0  0  0  0  0  0  0  0  0
   -0.5947   -1.9616   -0.0627 N   0  0  0  0  0  0  0  0  0  0  0  0
    0.5221   -1.2484   -0.0252 C   0  0  0  0  0  0  0  0  0  0  0  0
    2.8191    2.6110   -0.0388 H   0  0  0  0  0  0  0  0  0  0  0  0
    1.3563    2.6063   -1.0512 H   0  0  0  0  0  0  0  0  0  0  0  0
    1.2341    2.8164    0.7088 H   0  0  0  0  0  0  0  0  0  0  0  0
    2.5367    0.3443   -0.1723 H   0  0  0  0  0  0  0  0  0  0  0  0
   -0.8384    1.8378    0.0926 H   0  0  0  0  0  0  0  0  0  0  0  0
   -2.6601   -1.8532   -0.0598 H   0  0  0  0  0  0  0  0  0  0  0  0
    1.4629   -1.7996   -0.0490 H   0  0  0  0  0  0  0  0  0  0  0  0
  1  9  1  0  0  0  0
  1  2  1  0  0  0  0
  1 11  1  0  0  0  0
  3  4  2  0  0  0  0
  3  2  1  0  0  0  0
  4 13  1  0  0  0  0
  5  4  1  0  0  0  0
  6  5  2  0  0  0  0
  7  6  1  0  0  0  0
  7  8  2  0  0  0  0
  8  3  1  0  0  0  0
 10  1  1  0  0  0  0
 12  2  1  0  0  0  0
 14  6  1  0  0  0  0
 15  8  1  0  0  0  0
M  END
