15
title
C -0.89896476 2.2189033 -1.5903089
N -0.9429021 0.7864102 -1.410494
C -0.28575236 0.11474591 -0.420154
N -0.27902174 -1.2242484 -0.5106515
C 0.33781195 -1.8849202 0.4669169
C 0.95423007 -1.2425584 1.5346553
N 0.95890844 0.09237861 1.6253238
C 0.34936464 0.7679942 0.6616699
H 0.1234517 2.6002107 -1.7265744
H -1.4803988 2.4788518 -2.4766212
H -1.3444078 2.7425246 -0.7358206
H -1.2364211 0.20609963 -2.1794326
H 0.34176528 -2.9701607 0.39247355
H 1.4520968 -1.8004171 2.321424
H 0.3569696 1.8511835 0.7369351
