title
 OpenBabel02282109573D

 15 15  0  0  0  0  0  0  0  0999 V2000
    1.8024    2.2787   -0.0062 C   0  0  0  0  0  0  0  0  0  0  0  0
    1.6735    0.8412   -0.0106 N   0  0  0  0  0  0  0  0  0  0  0  0
    0.4983    0.1637   -0.0034 C   0  0  0  0  0  0  0  0  0  0  0  0
    0.5925   -1.1802   -0.0081 N   0  0  0  0  0  0  0  0  0  0  0  0
   -0.5507   -1.8553   -0.0014 C   0  0  0  0  0  0  0  0  0  0  0  0
   -1.7934   -1.3691    0.0095 N   0  0  0  0  0  0  0  0  0  0  0  0
   -1.8655   -0.0304    0.0140 C   0  0  0  0  0  0  0  0  0  0  0  0
   -0.7594    0.7978    0.0080 C   0  0  0  0  0  0  0  0  0  0  0  0
    2.8627    2.5363   -0.0147 H   0  0  0  0  0  0  0  0  0  0  0  0
    1.3360    2.7354   -0.8890 H   0  0  0  0  0  0  0  0  0  0  0  0
    1.3517    2.7289    0.8881 H   0  0  0  0  0  0  0  0  0  0  0  0
    2.4967    0.2618   -0.0175 H   0  0  0  0  0  0  0  0  0  0  0  0
   -0.4592   -2.9400   -0.0051 H   0  0  0  0  0  0  0  0  0  0  0  0
   -2.8658    0.3981    0.0229 H   0  0  0  0  0  0  0  0  0  0  0  0
   -0.8634    1.8750    0.0121 H   0  0  0  0  0  0  0  0  0  0  0  0
  1 11  1  0  0  0  0
  2  1  1  0  0  0  0
  2  3  1  0  0  0  0
  3  8  2  0  0  0  0
  4  3  1  0  0  0  0
  4  5  2  0  0  0  0
  5  6  1  0  0  0  0
  6  7  2  0  0  0  0
  7 14  1  0  0  0  0
  8 15  1  0  0  0  0
  8  7  1  0  0  0  0
  9  1  1  0  0  0  0
 10  1  1  0  0  0  0
 12  2  1  0  0  0  0
 13  5  1  0  0  0  0
M  END
