14
title
C 1.709312 2.2678857 -0.005095402
N 1.6407895 0.8198074 -0.009894363
C 0.49053764 0.12102311 -0.003354678
N -0.66999435 0.8051434 0.0073961793
C -1.7505143 0.033946503 0.012983537
N -1.7848654 -1.2997841 0.009109064
C -0.5670743 -1.8582 -0.001574955
N 0.59504294 -1.2277669 -0.008247677
H 2.7598875 2.562983 -0.014530581
H 1.2123592 2.692253 -0.88299716
H 1.2300347 2.6859574 0.88562745
H 2.4838116 0.27077013 -0.017038625
H -2.7101383 0.5485279 0.021621035
H -0.52944636 -2.94636 -0.0051899822
