title
 OpenBabel02282109573D

 16 16  0  0  0  0  0  0  0  0999 V2000
   -0.9746    2.0906   -1.5907 C   0  0  0  0  0  0  0  0  0  0  0  0
   -0.9029    0.6807   -1.5165 O   0  0  0  0  0  0  0  0  0  0  0  0
   -0.2661    0.1246   -0.4495 C   0  0  0  0  0  0  0  0  0  0  0  0
    0.3265    0.8501    0.5866 C   0  0  0  0  0  0  0  0  0  0  0  0
    0.9529    0.1684    1.6315 C   0  0  0  0  0  0  0  0  0  0  0  0
    0.9956   -1.2201    1.6561 C   0  0  0  0  0  0  0  0  0  0  0  0
    0.4005   -1.9373    0.6162 C   0  0  0  0  0  0  0  0  0  0  0  0
   -0.2255   -1.2748   -0.4289 C   0  0  0  0  0  0  0  0  0  0  0  0
    0.0230    2.5464   -1.6393 H   0  0  0  0  0  0  0  0  0  0  0  0
   -1.5174    2.3196   -2.5094 H   0  0  0  0  0  0  0  0  0  0  0  0
   -1.5177    2.5156   -0.7365 H   0  0  0  0  0  0  0  0  0  0  0  0
    0.3070    1.9323    0.5910 H   0  0  0  0  0  0  0  0  0  0  0  0
    1.4106    0.7407    2.4322 H   0  0  0  0  0  0  0  0  0  0  0  0
    1.4844   -1.7405    2.4720 H   0  0  0  0  0  0  0  0  0  0  0  0
    0.4246   -3.0223    0.6195 H   0  0  0  0  0  0  0  0  0  0  0  0
   -0.6928   -1.8147   -1.2447 H   0  0  0  0  0  0  0  0  0  0  0  0
  1  2  1  0  0  0  0
  1 11  1  0  0  0  0
  2  3  1  0  0  0  0
  3  8  2  0  0  0  0
  3  4  1  0  0  0  0
  4 12  1  0  0  0  0
  4  5  2  0  0  0  0
  5  6  1  0  0  0  0
  5 13  1  0  0  0  0
  6 14  1  0  0  0  0
  7 15  1  0  0  0  0
  7  6  2  0  0  0  0
  8  7  1  0  0  0  0
  9  1  1  0  0  0  0
 10  1  1  0  0  0  0
 16  8  1  0  0  0  0
M  END
