16
title
C -0.97455794 2.0905974 -1.590725
O -0.9029396 0.6807052 -1.5165386
C -0.26608393 0.12460221 -0.44948062
C 0.32650825 0.8501253 0.58663315
C 0.95289725 0.16835304 1.6315383
C 0.9955614 -1.2201173 1.656128
C 0.40053055 -1.9372706 0.61615914
C -0.22554152 -1.2748268 -0.42889354
H 0.023034591 2.5463865 -1.6393447
H -1.5174198 2.3196106 -2.5093653
H -1.5177172 2.5156393 -0.7365457
H 0.30704007 1.9322567 0.5910179
H 1.4105643 0.7407261 2.4321578
H 1.4844166 -1.740469 2.4720118
H 0.42455944 -3.022261 0.6194865
H -0.69279283 -1.8146834 -1.2447412
