title
 OpenBabel02282109573D

 15 15  0  0  0  0  0  0  0  0999 V2000
   -0.9466    2.0885    1.6405 C   0  0  0  0  0  0  0  0  0  0  0  0
   -0.8825    0.6744    1.5483 O   0  0  0  0  0  0  0  0  0  0  0  0
   -0.2695    0.1303    0.4740 C   0  0  0  0  0  0  0  0  0  0  0  0
    0.3163    0.8493   -0.5697 C   0  0  0  0  0  0  0  0  0  0  0  0
    0.9098    0.1313   -1.6072 C   0  0  0  0  0  0  0  0  0  0  0  0
    0.9616   -1.1979   -1.6802 N   0  0  0  0  0  0  0  0  0  0  0  0
    0.3930   -1.8672   -0.6675 C   0  0  0  0  0  0  0  0  0  0  0  0
   -0.2259   -1.2670    0.4163 C   0  0  0  0  0  0  0  0  0  0  0  0
    0.0547    2.5345    1.6803 H   0  0  0  0  0  0  0  0  0  0  0  0
   -1.5003    2.5215    0.7986 H   0  0  0  0  0  0  0  0  0  0  0  0
   -1.4752    2.3060    2.5695 H   0  0  0  0  0  0  0  0  0  0  0  0
    0.3212    1.9309   -0.5932 H   0  0  0  0  0  0  0  0  0  0  0  0
    1.3713    0.6751   -2.4290 H   0  0  0  0  0  0  0  0  0  0  0  0
    0.4359   -2.9522   -0.7283 H   0  0  0  0  0  0  0  0  0  0  0  0
   -0.6725   -1.8507    1.2125 H   0  0  0  0  0  0  0  0  0  0  0  0
  1  9  1  0  0  0  0
  1 11  1  0  0  0  0
  2  1  1  0  0  0  0
  3  2  1  0  0  0  0
  4  3  2  0  0  0  0
  5  4  1  0  0  0  0
  6  5  2  0  0  0  0
  6  7  1  0  0  0  0
  7  8  2  0  0  0  0
  8  3  1  0  0  0  0
  8 15  1  0  0  0  0
 10  1  1  0  0  0  0
 12  4  1  0  0  0  0
 13  5  1  0  0  0  0
 14  7  1  0  0  0  0
M  END
