15
title
C 1.830568 2.1077278 -0.0076050586
O 1.7639743 0.6920143 -0.011478269
C 0.53861034 0.10874528 -0.0038210268
C -0.6810689 0.7941255 0.007702371
N -1.865804 0.17474067 0.014932068
C -1.8805466 -1.1564784 0.010939799
C -0.7180376 -1.9286549 -0.00041341895
C 0.5097133 -1.2886815 -0.007912504
H 2.891941 2.3600423 -0.0149941705
H 1.3505179 2.5371232 -0.89596164
H 1.3642737 2.5315883 0.8906802
H -0.71233916 1.8788567 0.011280509
H -2.8588583 -1.6299856 0.017030675
H -0.7779641 -3.0116255 -0.0032931317
H 1.4468321 -1.8341911 -0.016828109
