14
title
C -0.9708075 2.1007366 -1.5828626
O -0.9020688 0.68442816 -1.5149032
C -0.26948518 0.13257182 -0.4550778
C 0.33484542 0.81880206 0.5984046
N 0.9369911 0.17317063 1.6030705
C 0.9328003 -1.1543516 1.5509918
N 0.38610458 -1.9124181 0.5933055
C -0.20944275 -1.265643 -0.40006784
H 0.029312123 2.5492618 -1.629757
H -1.5136155 2.3327637 -2.4997444
H -1.5125568 2.5178313 -0.72487086
H 0.34154296 1.903333 0.6465575
H 1.4218599 -1.6792045 2.3668883
H -0.66467977 -1.8510408 -1.1959623
