15
title
C 1.7350919 2.1177258 -0.0062675066
O 1.7171673 0.6918871 -0.010698922
C 0.5100657 0.09276535 -0.003506976
N -0.5882062 0.83478856 0.0073043946
C -1.7665943 0.19458194 0.01408593
C -1.8944753 -1.1843821 0.010441417
C -0.7227663 -1.9492455 -0.0010137724
C 0.5027424 -1.3120027 -0.0081785545
H 2.7902842 2.3950763 -0.013727797
H 1.229826 2.5226097 -0.88787436
H 1.2438973 2.516911 0.8858366
H -2.6479876 0.83154297 0.022909941
H -2.8736122 -1.647795 0.016319456
H -0.771752 -3.033346 -0.0042816456
H 1.4413171 -1.8521142 -0.017126855
