14
title
C -0.92412186 2.113305 -1.503048
O -0.878317 0.68588406 -1.4721336
C -0.2544407 0.11683324 -0.42924666
N 0.28913155 0.86123705 0.5197588
C 0.889143 0.1977031 1.5191022
C 0.94020593 -1.1848717 1.5610665
N 0.38622275 -1.9358628 0.5941454
C -0.20753571 -1.2924601 -0.39516425
H 0.08343282 2.5380547 -1.5275543
H -1.4655824 2.3669317 -2.4149408
H -1.4465805 2.508466 -0.6272383
H 1.3387599 0.80084836 2.30363
H 1.4296772 -1.7073 2.3768635
H -0.66528076 -1.8708379 -1.1926974
