title
 OpenBabel02282109573D

 14 14  0  0  0  0  0  0  0  0999 V2000
   -0.9241    2.1133   -1.5030 C   0  0  0  0  0  0  0  0  0  0  0  0
   -0.8783    0.6859   -1.4721 O   0  0  0  0  0  0  0  0  0  0  0  0
   -0.2544    0.1168   -0.4292 C   0  0  0  0  0  0  0  0  0  0  0  0
    0.2891    0.8612    0.5198 N   0  0  0  0  0  0  0  0  0  0  0  0
    0.8891    0.1977    1.5191 C   0  0  0  0  0  0  0  0  0  0  0  0
    0.9402   -1.1849    1.5611 C   0  0  0  0  0  0  0  0  0  0  0  0
    0.3862   -1.9359    0.5941 N   0  0  0  0  0  0  0  0  0  0  0  0
   -0.2075   -1.2925   -0.3952 C   0  0  0  0  0  0  0  0  0  0  0  0
    0.0834    2.5381   -1.5276 H   0  0  0  0  0  0  0  0  0  0  0  0
   -1.4656    2.3669   -2.4149 H   0  0  0  0  0  0  0  0  0  0  0  0
   -1.4466    2.5085   -0.6272 H   0  0  0  0  0  0  0  0  0  0  0  0
    1.3388    0.8008    2.3036 H   0  0  0  0  0  0  0  0  0  0  0  0
    1.4297   -1.7073    2.3769 H   0  0  0  0  0  0  0  0  0  0  0  0
   -0.6653   -1.8708   -1.1927 H   0  0  0  0  0  0  0  0  0  0  0  0
  1  2  1  0  0  0  0
  1 11  1  0  0  0  0
  2  3  1  0  0  0  0
  3  8  1  0  0  0  0
  3  4  2  0  0  0  0
  4  5  1  0  0  0  0
  5  6  2  0  0  0  0
  5 12  1  0  0  0  0
  6 13  1  0  0  0  0
  7  6  1  0  0  0  0
  8  7  2  0  0  0  0
  9  1  1  0  0  0  0
 10  1  1  0  0  0  0
 14  8  1  0  0  0  0
M  END
