13
title
C -0.8883044 2.0654397 1.5386031
O -0.84505355 0.63491094 1.4807687
C -0.24833646 0.07831477 0.43526712
N 0.28388867 0.8555093 -0.5119428
C 0.8551046 0.18115331 -1.5089538
N 0.9312188 -1.141882 -1.6253624
C 0.35885665 -1.7987629 -0.6081583
N -0.24210665 -1.2604172 0.44291845
H 0.12021943 2.4854968 1.5567319
H -1.4254488 2.474225 0.6793898
H -1.4152725 2.297373 2.4640756
H 1.3016545 0.7757061 -2.3034544
H 0.38957497 -2.8855567 -0.6477992
