16
title
O 2.1091294 1.56939 0.79472893
C 1.8787441 0.6773626 -0.28310332
C 0.4812403 0.10985794 -0.18985598
C -0.20926806 0.089537136 1.0225005
C -1.48265 -0.47070804 1.0971404
C -2.0772355 -1.0212073 -0.035117377
C -1.3923557 -1.0030184 -1.248668
C -0.12373373 -0.43662545 -1.324127
H 3.0445995 1.7895049 0.80464333
H 2.001334 1.1838123 -1.2540383
H 2.6070607 -0.15112808 -0.26497313
H 0.25597396 0.5241169 1.8985184
H -2.0116096 -0.47595802 2.0449188
H -3.069116 -1.4568535 0.025019115
H -1.8494804 -1.4228092 -2.1389186
H 0.40151218 -0.41573545 -2.2754164
