15
title
O 2.2251892 1.3609004 0.90455335
C 1.8492999 0.7862588 -0.3310991
C 0.47943312 0.16374686 -0.21169606
C -0.24539822 0.19301248 0.9761619
C -1.5040996 -0.40371305 1.0081687
N -2.0730703 -1.0108049 -0.035361674
C -1.3677337 -1.0329297 -1.1713701
C -0.10584468 -0.46866733 -1.3098887
H 3.0980465 1.7498069 0.80329216
H 1.8272204 1.5409449 -1.1346275
H 2.5655107 0.009841805 -0.6471666
H 0.16641694 0.6717518 1.8547451
H -2.0853012 -0.39071035 1.9277909
H -1.8379397 -1.5293924 -2.0173094
H 0.411529 -0.52328736 -2.2634337
