14
title
O 2.0576394 1.6565787 0.708265
C 1.8981196 0.64898485 -0.27407232
C 0.5024964 0.088318415 -0.18047982
C -0.26239556 0.17031612 0.9822662
N -1.4873229 -0.3538117 1.0767696
C -1.9468066 -0.96808076 -0.013137505
N -1.3200909 -1.1022227 -1.1836869
C -0.10130542 -0.5658864 -1.2517691
H 2.9856226 1.9056093 0.73787284
H 2.065036 1.0422636 -1.2897869
H 2.6264694 -0.16555317 -0.12592152
H 0.12666006 0.6832826 1.8560544
H -2.941037 -1.4029633 0.05644267
H 0.4159984 -0.6597272 -2.2064092
