title
 OpenBabel02282109573D

 15 15  0  0  0  0  0  0  0  0999 V2000
    1.9384    1.9129   -0.0100 O   0  0  0  0  0  0  0  0  0  0  0  0
    1.9128    0.4972   -0.0149 C   0  0  0  0  0  0  0  0  0  0  0  0
    0.4832    0.0090   -0.0042 C   0  0  0  0  0  0  0  0  0  0  0  0
    0.3424   -1.3221   -0.0061 N   0  0  0  0  0  0  0  0  0  0  0  0
   -0.8964   -1.8146    0.0029 C   0  0  0  0  0  0  0  0  0  0  0  0
   -2.0427   -1.0234    0.0142 C   0  0  0  0  0  0  0  0  0  0  0  0
   -1.8840    0.3578    0.0161 C   0  0  0  0  0  0  0  0  0  0  0  0
   -0.5981    0.8887    0.0067 C   0  0  0  0  0  0  0  0  0  0  0  0
    2.8564    2.1959   -0.0176 H   0  0  0  0  0  0  0  0  0  0  0  0
    2.4121    0.0821   -0.9043 H   0  0  0  0  0  0  0  0  0  0  0  0
    2.4276    0.0756    0.8625 H   0  0  0  0  0  0  0  0  0  0  0  0
   -0.9789   -2.8994    0.0011 H   0  0  0  0  0  0  0  0  0  0  0  0
   -3.0254   -1.4813    0.0212 H   0  0  0  0  0  0  0  0  0  0  0  0
   -2.7482    1.0145    0.0247 H   0  0  0  0  0  0  0  0  0  0  0  0
   -0.4192    1.9556    0.0078 H   0  0  0  0  0  0  0  0  0  0  0  0
  2  1  1  0  0  0  0
  2  3  1  0  0  0  0
  2 11  1  0  0  0  0
  3  8  1  0  0  0  0
  4  3  2  0  0  0  0
  4  5  1  0  0  0  0
  5  6  2  0  0  0  0
  6  7  1  0  0  0  0
  6 13  1  0  0  0  0
  7 14  1  0  0  0  0
  8 15  1  0  0  0  0
  8  7  2  0  0  0  0
  9  1  1  0  0  0  0
 10  2  1  0  0  0  0
 12  5  1  0  0  0  0
M  END
