14
title
O 2.2274475 1.3633819 0.7599207
C 1.804239 0.6681513 -0.38034275
C 0.4142712 0.08927472 -0.2346156
N -0.19998685 0.31408742 0.92837656
C -1.4281265 -0.19210376 1.0700933
C -2.0426843 -0.9183949 0.061388113
C -1.3088652 -1.0917443 -1.1101816
N -0.08395246 -0.59511256 -1.270032
H 1.4944226 1.3008275 1.3910699
H 1.8049629 1.324645 -1.2646177
H 2.4916732 -0.15963157 -0.61462396
H -1.9245211 -0.0063799797 2.0196154
H -3.0381467 -1.3284278 0.17786534
H -1.7189022 -1.6496161 -1.9493604
