14
title
O 1.9311881 1.8950744 -0.009769495
C 1.9257398 0.48085114 -0.014976221
C 0.5017312 -0.016703272 -0.004366662
N 0.34484774 -1.3438184 -0.0063776164
C -0.90856534 -1.7948915 0.0027717932
C -2.0028436 -0.93332326 0.013898931
N -1.853346 0.39173913 0.015985738
C -0.59785444 0.84559804 0.0068126754
H 2.8442748 2.193799 -0.016560396
H 2.428418 0.069955 -0.90460306
H 2.4439008 0.06328235 0.86255085
H -1.0461756 -2.8734217 0.0012270681
H -3.0188005 -1.319681 0.021269344
H -0.4513517 1.9193481 0.008327829
