title
 OpenBabel02282109573D

 14 14  0  0  0  0  0  0  0  0999 V2000
    1.9312    1.8951   -0.0098 O   0  0  0  0  0  0  0  0  0  0  0  0
    1.9257    0.4809   -0.0150 C   0  0  0  0  0  0  0  0  0  0  0  0
    0.5017   -0.0167   -0.0044 C   0  0  0  0  0  0  0  0  0  0  0  0
    0.3448   -1.3438   -0.0064 N   0  0  0  0  0  0  0  0  0  0  0  0
   -0.9086   -1.7949    0.0028 C   0  0  0  0  0  0  0  0  0  0  0  0
   -2.0028   -0.9333    0.0139 C   0  0  0  0  0  0  0  0  0  0  0  0
   -1.8533    0.3917    0.0160 N   0  0  0  0  0  0  0  0  0  0  0  0
   -0.5979    0.8456    0.0068 C   0  0  0  0  0  0  0  0  0  0  0  0
    2.8443    2.1938   -0.0166 H   0  0  0  0  0  0  0  0  0  0  0  0
    2.4284    0.0700   -0.9046 H   0  0  0  0  0  0  0  0  0  0  0  0
    2.4439    0.0633    0.8626 H   0  0  0  0  0  0  0  0  0  0  0  0
   -1.0462   -2.8734    0.0012 H   0  0  0  0  0  0  0  0  0  0  0  0
   -3.0188   -1.3197    0.0213 H   0  0  0  0  0  0  0  0  0  0  0  0
   -0.4514    1.9193    0.0083 H   0  0  0  0  0  0  0  0  0  0  0  0
  2  1  1  0  0  0  0
  2  3  1  0  0  0  0
  2 11  1  0  0  0  0
  3  8  1  0  0  0  0
  4  3  2  0  0  0  0
  4  5  1  0  0  0  0
  5  6  2  0  0  0  0
  6  7  1  0  0  0  0
  6 13  1  0  0  0  0
  8 14  1  0  0  0  0
  8  7  2  0  0  0  0
  9  1  1  0  0  0  0
 10  2  1  0  0  0  0
 12  5  1  0  0  0  0
M  END
