title
 OpenBabel02282109573D

 13 13  0  0  0  0  0  0  0  0999 V2000
    2.1275    1.4791    0.8185 O   0  0  0  0  0  0  0  0  0  0  0  0
    1.7794    0.7519   -0.3307 C   0  0  0  0  0  0  0  0  0  0  0  0
    0.4144    0.1269   -0.1780 C   0  0  0  0  0  0  0  0  0  0  0  0
   -0.2787    0.3090    0.9444 N   0  0  0  0  0  0  0  0  0  0  0  0
   -1.4692   -0.2921    0.9605 C   0  0  0  0  0  0  0  0  0  0  0  0
   -1.9949   -1.0283   -0.0171 N   0  0  0  0  0  0  0  0  0  0  0  0
   -1.2046   -1.1364   -1.0887 C   0  0  0  0  0  0  0  0  0  0  0  0
   -0.0028   -0.5902   -1.2317 N   0  0  0  0  0  0  0  0  0  0  0  0
    3.0000    1.8563    0.6742 H   0  0  0  0  0  0  0  0  0  0  0  0
    1.7466    1.3771   -1.2382 H   0  0  0  0  0  0  0  0  0  0  0  0
    2.4849   -0.0670   -0.5479 H   0  0  0  0  0  0  0  0  0  0  0  0
   -2.0675   -0.1677    1.8609 H   0  0  0  0  0  0  0  0  0  0  0  0
   -1.5814   -1.7271   -1.9213 H   0  0  0  0  0  0  0  0  0  0  0  0
  2  3  1  0  0  0  0
  2  1  1  0  0  0  0
  3  4  2  0  0  0  0
  4  5  2  0  0  0  0
  5 12  1  0  0  0  0
  6  5  1  0  0  0  0
  7  6  2  0  0  0  0
  8  7  1  0  0  0  0
  8  3  1  0  0  0  0
  9  1  1  0  0  0  0
 10  2  1  0  0  0  0
 11  2  1  0  0  0  0
 13  7  1  0  0  0  0
M  RAD  1   8   2
M  END
