13
title
O 2.1275141 1.4790683 0.8185086
C 1.7794358 0.7518721 -0.3306796
C 0.4144267 0.12687957 -0.17802492
N -0.27867743 0.30900478 0.9443586
C -1.4691815 -0.2921013 0.9605175
N -1.9949498 -1.0283204 -0.017074492
C -1.2045777 -1.1364157 -1.0886971
N -0.0027564412 -0.5901788 -1.2317078
H 3.0000238 1.8563043 0.6741605
H 1.746585 1.3770593 -1.2381514
H 2.4848943 -0.06704309 -0.54787433
H -2.0675364 -0.1676803 1.8608651
H -1.581382 -1.7271081 -1.9212646
