12
title
O -1.4099778 -2.24569 -0.0012876239
C -1.3602093 -1.0417364 0.007212476
N -0.16753383 -0.32988316 -0.00071808003
C 1.1248317 -0.8777937 -0.019318538
C 1.9909358 0.14803736 -0.021053258
N 1.2582896 1.3369533 -0.003820258
C -0.10024984 1.0879232 0.009343768
O -1.022877 1.8702725 0.025694542
H -2.2284288 -0.36562067 0.02215165
H 1.2674422 -1.9431049 -0.02908203
H 3.0672705 0.14671008 -0.033015374
H 1.6269667 2.2717671 -0.00059904746
