11
title
O -1.8267716 -1.7033058 0.0068263668
C -1.7236369 -0.511172 0.014248738
N -0.51814544 0.19950633 0.006789177
C -0.40639436 1.6014853 0.016209232
C 0.89564586 1.8839278 0.004649295
O 1.6409385 0.72674876 -0.011778837
C 0.7831187 -0.356487 -0.011142453
O 1.130105 -1.4936696 -0.023087876
H -2.5809534 0.18882303 0.029077062
H -1.2706928 2.2430227 0.03014472
H 1.4413433 2.8110385 0.0059370804
