title
 OpenBabel02282109573D

 15 15  0  0  0  0  0  0  0  0999 V2000
    0.0217    2.2320    0.8387 C   0  0  0  0  0  0  0  0  0  0  0  0
    0.0397    0.7422    0.7284 C   0  0  0  0  0  0  0  0  0  0  0  0
   -0.0251   -0.1108   -0.3716 C   0  0  0  0  0  0  0  0  0  0  0  0
   -0.1334    0.2775   -1.7677 C   0  0  0  0  0  0  0  0  0  0  0  0
   -0.1873   -0.4970   -2.7015 O   0  0  0  0  0  0  0  0  0  0  0  0
    0.0344   -1.4561    0.1197 C   0  0  0  0  0  0  0  0  0  0  0  0
    0.1319   -1.3882    1.4785 C   0  0  0  0  0  0  0  0  0  0  0  0
    0.1341   -0.0507    1.8341 N   0  0  0  0  0  0  0  0  0  0  0  0
    0.9376    2.6139    1.3058 H   0  0  0  0  0  0  0  0  0  0  0  0
   -0.0619    2.6920   -0.1467 H   0  0  0  0  0  0  0  0  0  0  0  0
   -0.8254    2.5825    1.4407 H   0  0  0  0  0  0  0  0  0  0  0  0
   -0.1663    1.3762   -1.9499 H   0  0  0  0  0  0  0  0  0  0  0  0
    0.0056   -2.3435   -0.4915 H   0  0  0  0  0  0  0  0  0  0  0  0
    0.2001   -2.1571    2.2310 H   0  0  0  0  0  0  0  0  0  0  0  0
    0.1966    0.2931    2.7778 H   0  0  0  0  0  0  0  0  0  0  0  0
  1  9  1  0  0  0  0
  1 11  1  0  0  0  0
  2  1  1  0  0  0  0
  2  8  1  0  0  0  0
  3  6  1  0  0  0  0
  3  2  2  0  0  0  0
  4  3  1  0  0  0  0
  5  4  2  0  0  0  0
  6  7  2  0  0  0  0
  7  8  1  0  0  0  0
  7 14  1  0  0  0  0
  8 15  1  0  0  0  0
 10  1  1  0  0  0  0
 12  4  1  0  0  0  0
 13  6  1  0  0  0  0
M  END
