15
title
C 0.021723596 2.232013 0.83872366
C 0.039696768 0.7422319 0.72835565
C -0.025117079 -0.11082361 -0.37163815
C -0.13341127 0.277546 -1.767724
O -0.187345 -0.49699154 -2.701502
C 0.0343852 -1.4561018 0.119666554
C 0.1319003 -1.3881544 1.47851
N 0.13406284 -0.05069516 1.8341392
H 0.9375902 2.6139479 1.3057767
H -0.061893255 2.6920373 -0.14674534
H -0.825351 2.582506 1.4407235
H -0.1662883 1.3761777 -1.9499154
H 0.005613014 -2.3435206 -0.49145195
H 0.20009789 -2.1570823 2.2309568
H 0.19656457 0.29313788 2.7778497
