title
 OpenBabel02282109573D

 14 14  0  0  0  0  0  0  0  0999 V2000
    0.0148    2.2473    0.8497 C   0  0  0  0  0  0  0  0  0  0  0  0
    0.0302    0.7599    0.7331 C   0  0  0  0  0  0  0  0  0  0  0  0
   -0.0179   -0.1119   -0.3448 C   0  0  0  0  0  0  0  0  0  0  0  0
   -0.1031    0.2581   -1.7562 C   0  0  0  0  0  0  0  0  0  0  0  0
   -0.1443   -0.5118   -2.6874 O   0  0  0  0  0  0  0  0  0  0  0  0
    0.0261   -1.4271    0.0907 N   0  0  0  0  0  0  0  0  0  0  0  0
    0.0986   -1.3577    1.3883 C   0  0  0  0  0  0  0  0  0  0  0  0
    0.1046   -0.0567    1.8317 N   0  0  0  0  0  0  0  0  0  0  0  0
    0.9223    2.6219    1.3378 H   0  0  0  0  0  0  0  0  0  0  0  0
   -0.0467    2.7107   -0.1356 H   0  0  0  0  0  0  0  0  0  0  0  0
   -0.8437    2.5960    1.4358 H   0  0  0  0  0  0  0  0  0  0  0  0
   -0.1292    1.3591   -1.9289 H   0  0  0  0  0  0  0  0  0  0  0  0
    0.1496   -2.1930    2.0716 H   0  0  0  0  0  0  0  0  0  0  0  0
    0.1538    0.2486    2.7907 H   0  0  0  0  0  0  0  0  0  0  0  0
  1  9  1  0  0  0  0
  1 11  1  0  0  0  0
  2  1  1  0  0  0  0
  2  8  1  0  0  0  0
  3  6  1  0  0  0  0
  3  2  2  0  0  0  0
  4  3  1  0  0  0  0
  5  4  2  0  0  0  0
  6  7  2  0  0  0  0
  7  8  1  0  0  0  0
  7 13  1  0  0  0  0
  8 14  1  0  0  0  0
 10  1  1  0  0  0  0
 12  4  1  0  0  0  0
M  END
