14
title
C 0.014797196 2.2473352 0.84972215
C 0.03023182 0.7599185 0.7331485
C -0.017885087 -0.1118881 -0.34475046
C -0.103135526 0.25808454 -1.7562035
O -0.14428876 -0.5118075 -2.687361
N 0.026060114 -1.4270719 0.0906588
C 0.09858027 -1.3576659 1.3883133
N 0.1045504 -0.05667596 1.8317276
H 0.9222545 2.621903 1.3378382
H -0.046686586 2.7106953 -0.13564377
H -0.84370095 2.5959947 1.4358082
H -0.12923601 1.3591329 -1.9289161
H 0.14963546 -2.192957 2.0715804
H 0.15378706 0.24858896 2.7906547
