13
title
C 0.84416664 2.2330282 0.07689474
C 0.68833214 0.7578048 0.06742624
C -0.364709 -0.11205681 -0.036871996
C -1.7826504 0.22200964 -0.18440424
O -2.6818306 -0.5786147 -0.27383804
N 0.11810514 -1.4228554 0.018945808
C 1.3871751 -1.2834773 0.14864868
O 1.8202823 0.010871098 0.18705146
H 1.4863906 2.5632336 -0.7466608
H -0.12614468 2.7212226 -0.025124222
H 1.3056852 2.5710135 1.0109628
H -1.9832462 1.3169723 -0.2095864
H 2.1480122 -2.0438967 0.2303439
