title
 OpenBabel02282109573D

 14 14  0  0  0  0  0  0  0  0999 V2000
    0.8164    2.1178    0.1399 N   0  0  0  0  0  0  0  0  0  0  0  0
    0.7188    0.7341    0.0250 C   0  0  0  0  0  0  0  0  0  0  0  0
   -0.3832   -0.1237    0.0040 C   0  0  0  0  0  0  0  0  0  0  0  0
   -1.7719    0.2678   -0.0256 C   0  0  0  0  0  0  0  0  0  0  0  0
   -2.7224   -0.4897   -0.0476 O   0  0  0  0  0  0  0  0  0  0  0  0
    0.1371   -1.4653   -0.0252 C   0  0  0  0  0  0  0  0  0  0  0  0
    1.4939   -1.3844   -0.0342 C   0  0  0  0  0  0  0  0  0  0  0  0
    1.8411   -0.0344   -0.0031 N   0  0  0  0  0  0  0  0  0  0  0  0
    1.4212    2.5463   -0.5513 H   0  0  0  0  0  0  0  0  0  0  0  0
   -0.0872    2.5707    0.1283 H   0  0  0  0  0  0  0  0  0  0  0  0
   -1.9442    1.3736   -0.0342 H   0  0  0  0  0  0  0  0  0  0  0  0
   -0.4645   -2.3592   -0.0536 H   0  0  0  0  0  0  0  0  0  0  0  0
    2.2593   -2.1421   -0.0660 H   0  0  0  0  0  0  0  0  0  0  0  0
    2.7756    0.3238    0.0974 H   0  0  0  0  0  0  0  0  0  0  0  0
  2  1  1  0  0  0  0
  3  2  2  0  0  0  0
  4  3  1  0  0  0  0
  5  4  2  0  0  0  0
  6  3  1  0  0  0  0
  7  6  2  0  0  0  0
  7  8  1  0  0  0  0
  8  2  1  0  0  0  0
  8 14  1  0  0  0  0
  9  1  1  0  0  0  0
 10  1  1  0  0  0  0
 11  4  1  0  0  0  0
 12  6  1  0  0  0  0
 13  7  1  0  0  0  0
M  END
