13
title
N 0.81967205 2.1332521 0.1421533
C 0.72073054 0.7550897 0.024003578
C -0.35643414 -0.12670267 -0.0034531143
C -1.7587467 0.24150616 -0.023378422
O -2.7060456 -0.51170236 -0.04225657
N 0.112167984 -1.4362596 -0.033511143
C 1.4055365 -1.3494049 -0.03363158
N 1.8367386 -0.03435737 0.0007389986
H 1.4554846 2.5659714 -0.5171363
H -0.07934585 2.5938518 0.11072477
H -1.9223944 1.3498417 -0.026630685
H 2.1059034 -2.1709166 -0.06647243
H 2.7869656 0.28884175 0.0847099
