13
title
O 0.060880646 2.0283215 0.8866922
C 0.021299772 0.6926984 0.7259699
C -0.0043575317 -0.13220084 -0.39731193
C 0.007054452 0.3094015 -1.7687943
O -0.015087398 -0.40254927 -2.7520602
C -0.04345405 -1.4822768 0.10389565
C -0.040475026 -1.4250478 1.4623353
N -0.00025770432 -0.08044809 1.8351998
H 0.07228804 2.4480937 0.01922916
H 0.039741315 1.4248879 -1.8933418
H -0.07015249 -2.367047 -0.5110897
H -0.062471922 -2.1959457 2.2142284
H 0.011479333 0.28090927 2.7740073
