title
 OpenBabel02282109573D

 15 15  0  0  0  0  0  0  0  0999 V2000
   -0.0085    2.0675    0.7725 C   0  0  0  0  0  0  0  0  0  0  0  0
    0.0075    0.5801    0.6752 C   0  0  0  0  0  0  0  0  0  0  0  0
   -0.0069   -0.2469   -0.4421 C   0  0  0  0  0  0  0  0  0  0  0  0
    0.0218   -1.6021    0.0280 C   0  0  0  0  0  0  0  0  0  0  0  0
    0.0518   -1.5600    1.3953 C   0  0  0  0  0  0  0  0  0  0  0  0
    0.0427   -0.2357    1.7737 N   0  0  0  0  0  0  0  0  0  0  0  0
   -0.0432    0.1874   -1.7870 C   0  0  0  0  0  0  0  0  0  0  0  0
   -0.0738    0.5536   -2.9355 C   0  0  0  0  0  0  0  0  0  0  0  0
    0.8887    2.4589    1.2682 H   0  0  0  0  0  0  0  0  0  0  0  0
   -0.0486    2.4924   -0.2324 H   0  0  0  0  0  0  0  0  0  0  0  0
   -0.8791    2.4355    1.3294 H   0  0  0  0  0  0  0  0  0  0  0  0
    0.0194   -2.4855   -0.5901 H   0  0  0  0  0  0  0  0  0  0  0  0
    0.0783   -2.3476    2.1304 H   0  0  0  0  0  0  0  0  0  0  0  0
    0.0597    0.0919    2.7240 H   0  0  0  0  0  0  0  0  0  0  0  0
   -0.1003    0.8731   -3.9470 H   0  0  0  0  0  0  0  0  0  0  0  0
  1  9  1  0  0  0  0
  1 11  1  0  0  0  0
  2  1  1  0  0  0  0
  2  6  1  0  0  0  0
  3  4  1  0  0  0  0
  3  2  2  0  0  0  0
  4  5  2  0  0  0  0
  5  6  1  0  0  0  0
  5 13  1  0  0  0  0
  6 14  1  0  0  0  0
  7  3  1  0  0  0  0
  8  7  3  0  0  0  0
 10  1  1  0  0  0  0
 12  4  1  0  0  0  0
 15  8  1  0  0  0  0
M  END
