14
title
C -0.007419653 2.0719345 0.7673247
C 0.009692304 0.58340883 0.6820016
C -0.0074562635 -0.2573229 -0.4244842
C 0.022415021 -1.6101667 0.046754118
C 0.05668658 -1.5544626 1.4125346
N 0.048579153 -0.22592986 1.7804928
C -0.047730908 0.17619887 -1.7711425
N -0.08084323 0.5399156 -2.8715136
H 0.88753986 2.4618397 1.2664891
H -0.042740747 2.4963992 -0.2379055
H -0.8812199 2.4384449 1.3189062
H 0.018339558 -2.4969473 -0.56560737
H 0.08589091 -2.3358202 2.153931
H 0.068489775 0.10812617 2.7290895
