14
title
C 0.76223373 2.0595417 0.06571477
C 0.6301698 0.58204263 0.047188498
C -0.45706668 -0.252655 -0.033142712
C 0.06965652 -1.5974257 -0.0055073597
C 1.4127345 -1.4713774 0.0879084
O 1.7680914 -0.15415803 0.12086767
C -1.812328 0.13817036 -0.12401149
C -2.9702647 0.46184492 -0.2016506
H 1.3661132 2.4180276 -0.77558106
H -0.22929856 2.5113974 -0.00045501374
H 1.2434217 2.4068832 0.9870039
H -0.50053835 -2.5109859 -0.050676245
H 2.2261329 -2.1754901 0.13949609
H -3.990058 0.7485368 -0.26998374
