title
 OpenBabel02282109573D

 14 14  0  0  0  0  0  0  0  0999 V2000
   -0.0096    2.0938    0.7840 C   0  0  0  0  0  0  0  0  0  0  0  0
    0.0074    0.6088    0.6834 C   0  0  0  0  0  0  0  0  0  0  0  0
   -0.0062   -0.2379   -0.4095 C   0  0  0  0  0  0  0  0  0  0  0  0
    0.0208   -1.5643   -0.0004 N   0  0  0  0  0  0  0  0  0  0  0  0
    0.0498   -1.5191    1.3048 C   0  0  0  0  0  0  0  0  0  0  0  0
    0.0432   -0.2324    1.7709 N   0  0  0  0  0  0  0  0  0  0  0  0
   -0.0423    0.1495   -1.7706 C   0  0  0  0  0  0  0  0  0  0  0  0
   -0.0732    0.5013   -2.9222 C   0  0  0  0  0  0  0  0  0  0  0  0
    0.8842    2.4832    1.2863 H   0  0  0  0  0  0  0  0  0  0  0  0
   -0.0428    2.5192   -0.2211 H   0  0  0  0  0  0  0  0  0  0  0  0
   -0.8846    2.4595    1.3349 H   0  0  0  0  0  0  0  0  0  0  0  0
    0.0761   -2.3706    1.9684 H   0  0  0  0  0  0  0  0  0  0  0  0
    0.0613    0.0544    2.7357 H   0  0  0  0  0  0  0  0  0  0  0  0
   -0.1003    0.7978   -3.9410 H   0  0  0  0  0  0  0  0  0  0  0  0
  1  9  1  0  0  0  0
  1 11  1  0  0  0  0
  2  1  1  0  0  0  0
  2  6  1  0  0  0  0
  3  4  1  0  0  0  0
  3  2  2  0  0  0  0
  4  5  2  0  0  0  0
  5  6  1  0  0  0  0
  5 12  1  0  0  0  0
  6 13  1  0  0  0  0
  7  3  1  0  0  0  0
  8  7  3  0  0  0  0
 10  1  1  0  0  0  0
 14  8  1  0  0  0  0
M  END
