14
title
C -0.009636129 2.0938244 0.7839527
C 0.007404802 0.6088432 0.6834049
C -0.0061817523 -0.23787297 -0.4094784
N 0.02079056 -1.5643164 -0.0004485628
C 0.049773864 -1.5190698 1.3048435
N 0.043206535 -0.23237427 1.7708682
C -0.042300355 0.14947547 -1.7705915
C -0.07317913 0.50127554 -2.92222
H 0.88420224 2.4831529 1.2862847
H -0.042829875 2.5191767 -0.22111546
H -0.8846036 2.459479 1.3348858
H 0.07607626 -2.3706272 1.9684331
H 0.061294783 0.054439347 2.7356787
H -0.10025848 0.79780436 -3.9410427
