13
title
C 0.7952546 2.0816479 0.07908981
C 0.6427831 0.60881585 0.05285409
C -0.42887497 -0.23501441 -0.03341156
N 0.030144049 -1.5597267 -0.014316431
C 1.3084323 -1.444377 0.07916509
O 1.7650869 -0.16669211 0.12562394
C -1.7958266 0.112020135 -0.12833437
C -2.955269 0.4256377 -0.20854795
H 1.4052457 2.435614 -0.7593711
H -0.19080405 2.5454228 0.012314144
H 1.2773134 2.4174426 1.0038836
H 2.0514374 -2.225011 0.124613576
H -3.9807677 0.6918105 -0.2796124
