title
 OpenBabel02282109573D

 13 13  0  0  0  0  0  0  0  0999 V2000
    0.7953    2.0816    0.0791 C   0  0  0  0  0  0  0  0  0  0  0  0
    0.6428    0.6088    0.0529 C   0  0  0  0  0  0  0  0  0  0  0  0
   -0.4289   -0.2350   -0.0334 C   0  0  0  0  0  0  0  0  0  0  0  0
    0.0301   -1.5597   -0.0143 N   0  0  0  0  0  0  0  0  0  0  0  0
    1.3084   -1.4444    0.0792 C   0  0  0  0  0  0  0  0  0  0  0  0
    1.7651   -0.1667    0.1256 O   0  0  0  0  0  0  0  0  0  0  0  0
   -1.7958    0.1120   -0.1283 C   0  0  0  0  0  0  0  0  0  0  0  0
   -2.9553    0.4256   -0.2085 C   0  0  0  0  0  0  0  0  0  0  0  0
    1.4052    2.4356   -0.7594 H   0  0  0  0  0  0  0  0  0  0  0  0
   -0.1908    2.5454    0.0123 H   0  0  0  0  0  0  0  0  0  0  0  0
    1.2773    2.4174    1.0039 H   0  0  0  0  0  0  0  0  0  0  0  0
    2.0514   -2.2250    0.1246 H   0  0  0  0  0  0  0  0  0  0  0  0
   -3.9808    0.6918   -0.2796 H   0  0  0  0  0  0  0  0  0  0  0  0
  1 11  1  0  0  0  0
  2  1  1  0  0  0  0
  2  6  1  0  0  0  0
  3  4  1  0  0  0  0
  3  2  2  0  0  0  0
  4  5  2  0  0  0  0
  5 12  1  0  0  0  0
  5  6  1  0  0  0  0
  7  3  1  0  0  0  0
  8  7  3  0  0  0  0
  9  1  1  0  0  0  0
 10  1  1  0  0  0  0
 13  8  1  0  0  0  0
M  END
