title
 OpenBabel02282109573D

 12 12  0  0  0  0  0  0  0  0999 V2000
    0.7978    2.0800    0.1196 C   0  0  0  0  0  0  0  0  0  0  0  0
    0.6501    0.6072    0.0871 C   0  0  0  0  0  0  0  0  0  0  0  0
   -0.4093   -0.2442   -0.0535 C   0  0  0  0  0  0  0  0  0  0  0  0
    0.0394   -1.5659   -0.0103 N   0  0  0  0  0  0  0  0  0  0  0  0
    1.3109   -1.4498    0.1495 C   0  0  0  0  0  0  0  0  0  0  0  0
    1.7613   -0.1683    0.2183 O   0  0  0  0  0  0  0  0  0  0  0  0
   -1.7721    0.1118   -0.2201 C   0  0  0  0  0  0  0  0  0  0  0  0
   -2.8742    0.4395   -0.3544 N   0  0  0  0  0  0  0  0  0  0  0  0
    1.4525    2.4281   -0.6863 H   0  0  0  0  0  0  0  0  0  0  0  0
   -0.1811    2.5484    0.0015 H   0  0  0  0  0  0  0  0  0  0  0  0
    1.2328    2.4115    1.0684 H   0  0  0  0  0  0  0  0  0  0  0  0
    2.0518   -2.2287    0.2345 H   0  0  0  0  0  0  0  0  0  0  0  0
  1 11  1  0  0  0  0
  2  1  1  0  0  0  0
  2  6  1  0  0  0  0
  3  4  1  0  0  0  0
  3  2  2  0  0  0  0
  4  5  2  0  0  0  0
  5  6  1  0  0  0  0
  5 12  1  0  0  0  0
  7  3  1  0  0  0  0
  8  7  3  0  0  0  0
  9  1  1  0  0  0  0
 10  1  1  0  0  0  0
M  END
