title
 OpenBabel02282109573D

 14 14  0  0  0  0  0  0  0  0999 V2000
    0.7181    1.9666    0.1260 N   0  0  0  0  0  0  0  0  0  0  0  0
    0.6491    0.5754    0.0151 C   0  0  0  0  0  0  0  0  0  0  0  0
   -0.4497   -0.2761   -0.0074 C   0  0  0  0  0  0  0  0  0  0  0  0
    0.0689   -1.6175   -0.0351 C   0  0  0  0  0  0  0  0  0  0  0  0
    1.4318   -1.5361   -0.0406 C   0  0  0  0  0  0  0  0  0  0  0  0
    1.7756   -0.1937   -0.0079 N   0  0  0  0  0  0  0  0  0  0  0  0
   -1.7931    0.1540   -0.0107 C   0  0  0  0  0  0  0  0  0  0  0  0
   -2.9334    0.5497   -0.0155 C   0  0  0  0  0  0  0  0  0  0  0  0
    1.1894    2.4061   -0.6585 H   0  0  0  0  0  0  0  0  0  0  0  0
   -0.2177    2.3509    0.1951 H   0  0  0  0  0  0  0  0  0  0  0  0
   -0.5213   -2.5193   -0.0650 H   0  0  0  0  0  0  0  0  0  0  0  0
    2.1915   -2.2991   -0.0725 H   0  0  0  0  0  0  0  0  0  0  0  0
    2.7071    0.1695    0.0961 H   0  0  0  0  0  0  0  0  0  0  0  0
   -3.9409    0.8828   -0.0145 H   0  0  0  0  0  0  0  0  0  0  0  0
  1 10  1  0  0  0  0
  2  1  1  0  0  0  0
  3  2  2  0  0  0  0
  4  3  1  0  0  0  0
  5  4  2  0  0  0  0
  5  6  1  0  0  0  0
  6  2  1  0  0  0  0
  6 13  1  0  0  0  0
  7  3  1  0  0  0  0
  8 14  1  0  0  0  0
  8  7  3  0  0  0  0
  9  1  1  0  0  0  0
 11  4  1  0  0  0  0
 12  5  1  0  0  0  0
M  END
