title
 OpenBabel02282109573D

 13 13  0  0  0  0  0  0  0  0999 V2000
    0.7391    1.9551    0.1374 N   0  0  0  0  0  0  0  0  0  0  0  0
    0.6638    0.5720    0.0222 C   0  0  0  0  0  0  0  0  0  0  0  0
   -0.4376   -0.2781   -0.0058 C   0  0  0  0  0  0  0  0  0  0  0  0
    0.0651   -1.6247   -0.0339 C   0  0  0  0  0  0  0  0  0  0  0  0
    1.4259   -1.5499   -0.0347 C   0  0  0  0  0  0  0  0  0  0  0  0
    1.7797   -0.2075    0.0015 N   0  0  0  0  0  0  0  0  0  0  0  0
   -1.7755    0.1676   -0.0244 C   0  0  0  0  0  0  0  0  0  0  0  0
   -2.8631    0.5730   -0.0407 N   0  0  0  0  0  0  0  0  0  0  0  0
    1.2979    2.3991   -0.5825 H   0  0  0  0  0  0  0  0  0  0  0  0
   -0.1828    2.3741    0.1564 H   0  0  0  0  0  0  0  0  0  0  0  0
   -0.5327   -2.5210   -0.0662 H   0  0  0  0  0  0  0  0  0  0  0  0
    2.1809   -2.3173   -0.0645 H   0  0  0  0  0  0  0  0  0  0  0  0
    2.7157    0.1456    0.1037 H   0  0  0  0  0  0  0  0  0  0  0  0
  1 10  1  0  0  0  0
  2  1  1  0  0  0  0
  3  2  2  0  0  0  0
  4  3  1  0  0  0  0
  5  4  2  0  0  0  0
  5  6  1  0  0  0  0
  6  2  1  0  0  0  0
  6 13  1  0  0  0  0
  7  3  1  0  0  0  0
  8  7  3  0  0  0  0
  9  1  1  0  0  0  0
 11  4  1  0  0  0  0
 12  5  1  0  0  0  0
M  END
