12
title
N 0.74343663 1.920292 0.15522766
C 0.6320435 0.5652114 0.031333167
C -0.4602163 -0.2766418 -0.013179016
C 0.08662151 -1.6150582 -0.0601713
C 1.427104 -1.4812014 -0.048823595
O 1.7726073 -0.14117074 0.009308034
C -1.8049424 0.14239934 -0.02263343
N -2.9015315 0.522067 -0.03483228
H 1.5901692 2.322733 -0.21905833
H -0.09287353 2.4375985 -0.07247961
H -0.4765289 -2.5330086 -0.10246261
H 2.255506 -2.1665337 -0.07460976
