title
 OpenBabel02282109573D

 13 13  0  0  0  0  0  0  0  0999 V2000
    0.7429    1.9881    0.1390 N   0  0  0  0  0  0  0  0  0  0  0  0
    0.6610    0.6028    0.0178 C   0  0  0  0  0  0  0  0  0  0  0  0
   -0.4188   -0.2619   -0.0173 C   0  0  0  0  0  0  0  0  0  0  0  0
    0.0302   -1.5784   -0.0461 N   0  0  0  0  0  0  0  0  0  0  0  0
    1.3311   -1.5040   -0.0381 C   0  0  0  0  0  0  0  0  0  0  0  0
    1.7720   -0.2003    0.0025 N   0  0  0  0  0  0  0  0  0  0  0  0
   -1.7769    0.1246   -0.0175 C   0  0  0  0  0  0  0  0  0  0  0  0
   -2.9205    0.5074   -0.0206 C   0  0  0  0  0  0  0  0  0  0  0  0
    1.2421    2.4325   -0.6249 H   0  0  0  0  0  0  0  0  0  0  0  0
   -0.1881    2.3854    0.1958 H   0  0  0  0  0  0  0  0  0  0  0  0
    2.0173   -2.3367   -0.0727 H   0  0  0  0  0  0  0  0  0  0  0  0
    2.7229    0.1165    0.0944 H   0  0  0  0  0  0  0  0  0  0  0  0
   -3.9345    0.8210   -0.0185 H   0  0  0  0  0  0  0  0  0  0  0  0
  1 10  1  0  0  0  0
  2  1  1  0  0  0  0
  3  2  2  0  0  0  0
  4  5  2  0  0  0  0
  4  3  1  0  0  0  0
  5  6  1  0  0  0  0
  6  2  1  0  0  0  0
  6 12  1  0  0  0  0
  7  3  1  0  0  0  0
  8 13  1  0  0  0  0
  8  7  3  0  0  0  0
  9  1  1  0  0  0  0
 11  5  1  0  0  0  0
M  END
