12
title
N 0.7590201 1.9762851 0.15091838
C 0.6745424 0.5998847 0.025367633
C -0.40597317 -0.26611796 -0.015513892
N 0.029469756 -1.5838491 -0.045850374
C 1.3285307 -1.515757 -0.033971492
N 1.7765853 -0.21125892 0.010730478
C -1.762148 0.13342562 -0.029843459
N -2.8510733 0.5322968 -0.04420877
H 1.3556532 2.4253864 -0.5339373
H -0.15681228 2.4084878 0.14770103
H 2.011099 -2.351115 -0.06579857
H 2.7309022 0.09728051 0.10022031
