title
 OpenBabel02282109573D

 11 11  0  0  0  0  0  0  0  0999 V2000
    0.7724    1.9462   -0.1511 N   0  0  0  0  0  0  0  0  0  0  0  0
    0.6435    0.5965   -0.0356 C   0  0  0  0  0  0  0  0  0  0  0  0
   -0.4309   -0.2603    0.0181 C   0  0  0  0  0  0  0  0  0  0  0  0
    0.0521   -1.5744    0.0479 N   0  0  0  0  0  0  0  0  0  0  0  0
    1.3263   -1.4507    0.0191 C   0  0  0  0  0  0  0  0  0  0  0  0
    1.7709   -0.1458   -0.0341 O   0  0  0  0  0  0  0  0  0  0  0  0
   -1.7928    0.1055    0.0487 C   0  0  0  0  0  0  0  0  0  0  0  0
   -2.8927    0.4720    0.0767 N   0  0  0  0  0  0  0  0  0  0  0  0
    1.6262    2.3440    0.2112 H   0  0  0  0  0  0  0  0  0  0  0  0
   -0.0582    2.4772    0.0653 H   0  0  0  0  0  0  0  0  0  0  0  0
    2.0895   -2.2108    0.0337 H   0  0  0  0  0  0  0  0  0  0  0  0
  1  2  1  0  0  0  0
  1 10  1  0  0  0  0
  1  9  1  0  0  0  0
  2  6  1  0  0  0  0
  2  3  2  0  0  0  0
  3  4  1  0  0  0  0
  3  7  1  0  0  0  0
  5 11  1  0  0  0  0
  5  4  2  0  0  0  0
  6  5  1  0  0  0  0
  7  8  3  0  0  0  0
M  END
