11
title
N 0.772398 1.9462035 -0.15110877
C 0.6435156 0.59652394 -0.035638858
C -0.43093655 -0.26028964 0.018133229
N 0.052093834 -1.5743876 0.04785265
C 1.3262571 -1.4507043 0.019090138
O 1.7709087 -0.14579536 -0.03405462
C -1.7928176 0.105495855 0.048696928
N -2.8926697 0.4720498 0.076717675
H 1.6262288 2.3439941 0.21120155
H -0.05824098 2.47723 0.06526584
H 2.0895193 -2.2107685 0.03368471
