13
title
O 0.05751507 1.8777549 0.75115556
C 0.01977225 0.53616565 0.64374447
C -0.01168011 -0.29075944 -0.4688847
C -0.044753175 -1.63713 0.04153645
C -0.032155376 -1.5690222 1.4047666
N 0.0075519946 -0.22663032 1.7644671
C -0.008830954 0.18955107 -1.7937387
C -0.0046018506 0.6560611 -2.907434
H 0.060263604 2.2340732 -0.14711004
H -0.07410825 -2.5341334 -0.5558139
H -0.04737192 -2.3382015 2.1580362
H 0.024865102 0.14239962 2.6992505
H -0.0014154495 1.0445544 -3.8950636
