14
title
C -0.012080609 2.1357684 0.7954884
C 0.007980528 0.6415888 0.7556072
C -0.0061492254 -0.14937691 -0.36690724
O 0.02047413 -1.4766573 -0.01195883
C 0.051501267 -1.5177356 1.3387566
C 0.04566794 -0.26388392 1.8637825
C -0.041462783 0.1688373 -1.7348087
C -0.0719137 0.4647058 -2.9028764
H 0.8761397 2.532986 1.2996348
H -0.0420191 2.5501788 -0.21498144
H -0.88601774 2.5081866 1.3417447
H 0.07517106 -2.5031626 1.774994
H 0.065610304 -0.0059861946 2.9115326
H -0.09860218 0.72128475 -3.932788
