title
 OpenBabel02282109573D

 14 14  0  0  0  0  0  0  0  0999 V2000
   -0.0121    2.1358    0.7955 C   0  0  0  0  0  0  0  0  0  0  0  0
    0.0080    0.6416    0.7556 C   0  0  0  0  0  0  0  0  0  0  0  0
   -0.0061   -0.1494   -0.3669 C   0  0  0  0  0  0  0  0  0  0  0  0
    0.0205   -1.4767   -0.0120 O   0  0  0  0  0  0  0  0  0  0  0  0
    0.0515   -1.5177    1.3388 C   0  0  0  0  0  0  0  0  0  0  0  0
    0.0457   -0.2639    1.8638 C   0  0  0  0  0  0  0  0  0  0  0  0
   -0.0415    0.1688   -1.7348 C   0  0  0  0  0  0  0  0  0  0  0  0
   -0.0719    0.4647   -2.9029 C   0  0  0  0  0  0  0  0  0  0  0  0
    0.8761    2.5330    1.2996 H   0  0  0  0  0  0  0  0  0  0  0  0
   -0.0420    2.5502   -0.2150 H   0  0  0  0  0  0  0  0  0  0  0  0
   -0.8860    2.5082    1.3417 H   0  0  0  0  0  0  0  0  0  0  0  0
    0.0752   -2.5032    1.7750 H   0  0  0  0  0  0  0  0  0  0  0  0
    0.0656   -0.0060    2.9115 H   0  0  0  0  0  0  0  0  0  0  0  0
   -0.0986    0.7213   -3.9328 H   0  0  0  0  0  0  0  0  0  0  0  0
  1  9  1  0  0  0  0
  1 11  1  0  0  0  0
  2  1  1  0  0  0  0
  2  6  1  0  0  0  0
  3  4  1  0  0  0  0
  3  2  2  0  0  0  0
  4  5  1  0  0  0  0
  5 12  1  0  0  0  0
  5  6  2  0  0  0  0
  6 13  1  0  0  0  0
  7  3  1  0  0  0  0
  8  7  3  0  0  0  0
 10  1  1  0  0  0  0
 14  8  1  0  0  0  0
M  END
