title
 OpenBabel02282109573D

 13 13  0  0  0  0  0  0  0  0999 V2000
   -0.0093    2.1362    0.7999 C   0  0  0  0  0  0  0  0  0  0  0  0
    0.0108    0.6421    0.7640 C   0  0  0  0  0  0  0  0  0  0  0  0
   -0.0068   -0.1587   -0.3498 C   0  0  0  0  0  0  0  0  0  0  0  0
    0.0207   -1.4823   -0.0005 O   0  0  0  0  0  0  0  0  0  0  0  0
    0.0564   -1.5180    1.3484 C   0  0  0  0  0  0  0  0  0  0  0  0
    0.0523   -0.2624    1.8720 C   0  0  0  0  0  0  0  0  0  0  0  0
   -0.0469    0.1636   -1.7219 C   0  0  0  0  0  0  0  0  0  0  0  0
   -0.0803    0.4674   -2.8401 N   0  0  0  0  0  0  0  0  0  0  0  0
    0.8803    2.5287    1.3038 H   0  0  0  0  0  0  0  0  0  0  0  0
   -0.0414    2.5540   -0.2089 H   0  0  0  0  0  0  0  0  0  0  0  0
   -0.8824    2.5039    1.3495 H   0  0  0  0  0  0  0  0  0  0  0  0
    0.0816   -2.5022    1.7875 H   0  0  0  0  0  0  0  0  0  0  0  0
    0.0758   -0.0023    2.9188 H   0  0  0  0  0  0  0  0  0  0  0  0
  1  9  1  0  0  0  0
  1 11  1  0  0  0  0
  2  1  1  0  0  0  0
  2  6  1  0  0  0  0
  3  4  1  0  0  0  0
  3  2  2  0  0  0  0
  4  5  1  0  0  0  0
  5 12  1  0  0  0  0
  5  6  2  0  0  0  0
  6 13  1  0  0  0  0
  7  3  1  0  0  0  0
  8  7  3  0  0  0  0
 10  1  1  0  0  0  0
M  END
