13
title
C -0.009345825 2.1362438 0.7998964
C 0.010780932 0.64208907 0.7640378
C -0.0067608776 -0.15869623 -0.34977853
O 0.020718852 -1.4823096 -0.00048459624
C 0.0563756 -1.5180416 1.3484129
C 0.052266046 -0.2623604 1.8720022
C -0.046856016 0.16362676 -1.7219127
N -0.080277175 0.46742585 -2.8401384
H 0.8803179 2.5287478 1.3037906
H -0.041368704 2.5539825 -0.208923
H -0.8824204 2.5039206 1.3494656
H 0.08161696 -2.502155 1.7874812
H 0.075765096 -0.0022887022 2.9188118
