13
title
C -0.008957251 2.1037996 0.8511293
C 0.011101069 0.62044233 0.72997516
C -0.0090809865 -0.15097247 -0.4000411
O 0.02327118 -1.4737959 -0.0009492766
C 0.06089706 -1.4111991 1.3418314
N 0.056081362 -0.21597295 1.8370821
C -0.053070396 0.14450918 -1.7700067
C -0.09098737 0.42328903 -2.9415126
H 0.8819969 2.4611335 1.3779917
H -0.04442802 2.572639 -0.13460799
H -0.8794179 2.4332163 1.4280729
H 0.09093694 -2.35194 1.8697094
H -0.12416901 0.66564876 -3.9749506
