12
title
C -0.009311824 2.1054282 0.85503554
C 0.011152195 0.6227948 0.73867947
C -0.008390276 -0.16006733 -0.3824689
O 0.024124142 -1.4782935 0.012166536
C 0.06145369 -1.4099723 1.3542507
N 0.05625285 -0.21207847 1.8448167
C -0.052588664 0.13811307 -1.7574568
N -0.08931303 0.42076638 -2.8807094
H 0.8821524 2.458788 1.3828495
H -0.04564105 2.5771751 -0.12906495
H -0.87934744 2.43041 1.4343208
H 0.091749765 -2.3490021 1.8850365
