title
 OpenBabel02282109573D

 14 14  0  0  0  0  0  0  0  0999 V2000
    0.7203    2.0188    0.1411 N   0  0  0  0  0  0  0  0  0  0  0  0
    0.7295    0.6279    0.0240 C   0  0  0  0  0  0  0  0  0  0  0  0
   -0.3976   -0.1935   -0.0073 C   0  0  0  0  0  0  0  0  0  0  0  0
    0.0625   -1.5069   -0.0452 N   0  0  0  0  0  0  0  0  0  0  0  0
    1.4207   -1.5189   -0.0500 C   0  0  0  0  0  0  0  0  0  0  0  0
    1.8712   -0.2148   -0.0061 C   0  0  0  0  0  0  0  0  0  0  0  0
   -1.7562    0.1505   -0.0049 C   0  0  0  0  0  0  0  0  0  0  0  0
   -2.9218    0.4689   -0.0151 C   0  0  0  0  0  0  0  0  0  0  0  0
    1.4671    2.4706   -0.3691 H   0  0  0  0  0  0  0  0  0  0  0  0
   -0.1719    2.4253   -0.1100 H   0  0  0  0  0  0  0  0  0  0  0  0
   -0.5381   -2.3110   -0.0743 H   0  0  0  0  0  0  0  0  0  0  0  0
    1.9700   -2.4462   -0.0822 H   0  0  0  0  0  0  0  0  0  0  0  0
    2.9027    0.1016    0.0135 H   0  0  0  0  0  0  0  0  0  0  0  0
   -3.9461    0.7463   -0.0020 H   0  0  0  0  0  0  0  0  0  0  0  0
  2  1  1  0  0  0  0
  3  7  1  0  0  0  0
  3  2  2  0  0  0  0
  4  3  1  0  0  0  0
  5  4  1  0  0  0  0
  5  6  2  0  0  0  0
  6 13  1  0  0  0  0
  6  2  1  0  0  0  0
  8  7  3  0  0  0  0
  8 14  1  0  0  0  0
  9  1  1  0  0  0  0
 10  1  1  0  0  0  0
 11  4  1  0  0  0  0
 12  5  1  0  0  0  0
M  END
