title
 OpenBabel02282109573D

 13 13  0  0  0  0  0  0  0  0999 V2000
    0.7261    2.0170    0.1400 N   0  0  0  0  0  0  0  0  0  0  0  0
    0.7369    0.6348    0.0237 C   0  0  0  0  0  0  0  0  0  0  0  0
   -0.3833   -0.1982   -0.0048 C   0  0  0  0  0  0  0  0  0  0  0  0
    0.0772   -1.5114   -0.0450 N   0  0  0  0  0  0  0  0  0  0  0  0
    1.4324   -1.5120   -0.0511 C   0  0  0  0  0  0  0  0  0  0  0  0
    1.8794   -0.2064   -0.0085 C   0  0  0  0  0  0  0  0  0  0  0  0
   -1.7435    0.1425   -0.0063 C   0  0  0  0  0  0  0  0  0  0  0  0
   -2.8643    0.4508   -0.0139 N   0  0  0  0  0  0  0  0  0  0  0  0
    1.5085    2.4787   -0.3005 H   0  0  0  0  0  0  0  0  0  0  0  0
   -0.1494    2.4512   -0.1186 H   0  0  0  0  0  0  0  0  0  0  0  0
   -0.5177   -2.3204   -0.0726 H   0  0  0  0  0  0  0  0  0  0  0  0
    1.9878   -2.4357   -0.0831 H   0  0  0  0  0  0  0  0  0  0  0  0
    2.9097    0.1130    0.0084 H   0  0  0  0  0  0  0  0  0  0  0  0
  2  1  1  0  0  0  0
  3  2  2  0  0  0  0
  4  3  1  0  0  0  0
  5  4  1  0  0  0  0
  5  6  2  0  0  0  0
  6 13  1  0  0  0  0
  6  2  1  0  0  0  0
  7  3  1  0  0  0  0
  8  7  3  0  0  0  0
  9  1  1  0  0  0  0
 10  1  1  0  0  0  0
 11  4  1  0  0  0  0
 12  5  1  0  0  0  0
M  END
