title
 OpenBabel02282109573D

 12 12  0  0  0  0  0  0  0  0999 V2000
    0.7735    1.9826    0.1294 N   0  0  0  0  0  0  0  0  0  0  0  0
    0.7116    0.6159    0.0247 C   0  0  0  0  0  0  0  0  0  0  0  0
   -0.4167   -0.2008   -0.0067 C   0  0  0  0  0  0  0  0  0  0  0  0
    0.0961   -1.5010   -0.0481 N   0  0  0  0  0  0  0  0  0  0  0  0
    1.4388   -1.3962   -0.0437 C   0  0  0  0  0  0  0  0  0  0  0  0
    1.8478   -0.1416   -0.0019 N   0  0  0  0  0  0  0  0  0  0  0  0
   -1.7823    0.1088   -0.0079 C   0  0  0  0  0  0  0  0  0  0  0  0
   -2.9101    0.3889   -0.0135 N   0  0  0  0  0  0  0  0  0  0  0  0
    1.6546    2.3747   -0.1671 H   0  0  0  0  0  0  0  0  0  0  0  0
   -0.0328    2.4937   -0.1959 H   0  0  0  0  0  0  0  0  0  0  0  0
   -0.4516   -2.3446   -0.0784 H   0  0  0  0  0  0  0  0  0  0  0  0
    2.0857   -2.2601   -0.0732 H   0  0  0  0  0  0  0  0  0  0  0  0
  2  1  1  0  0  0  0
  3  2  2  0  0  0  0
  4  5  1  0  0  0  0
  4  3  1  0  0  0  0
  5  6  2  0  0  0  0
  6  2  1  0  0  0  0
  7  3  1  0  0  0  0
  8  7  3  0  0  0  0
  9  1  1  0  0  0  0
 10  1  1  0  0  0  0
 11  4  1  0  0  0  0
 12  5  1  0  0  0  0
M  END
