12
title
N 0.7734997 1.982629 0.12935244
C 0.71162486 0.6158851 0.024670022
C -0.41665617 -0.2007692 -0.0067067132
N 0.09613046 -1.5009582 -0.04807942
C 1.4387623 -1.3961585 -0.04367711
N 1.8478409 -0.14157577 -0.0018943015
C -1.7823178 0.10876493 -0.007892468
N -2.9101102 0.38889924 -0.01352455
H 1.6545838 2.3747394 -0.16714188
H -0.032847736 2.4937437 -0.19589375
H -0.4515716 -2.3445654 -0.07841534
H 2.0856595 -2.260121 -0.07320613
