13
title
O 0.059334375 1.9376751 0.7834684
C 0.021324998 0.58514047 0.73260486
C -0.008605549 -0.20645787 -0.4132401
N -0.042457487 -1.5253108 0.02547387
C -0.033684675 -1.5588193 1.3848664
C 0.005407313 -0.26305443 1.8621767
C -0.0067723207 0.19242765 -1.7560625
C -0.0036351813 0.58147323 -2.9001274
H 0.062437266 2.2715917 -0.1221151
H -0.06900801 -2.3214908 -0.58611
H -0.05598063 -2.4959621 1.917391
H 0.021049676 0.04566436 2.894689
H -0.0008773935 0.9158787 -3.9075725
