title
 OpenBabel02282109573D

 12 12  0  0  0  0  0  0  0  0999 V2000
    0.0577    1.9355    0.8118 O   0  0  0  0  0  0  0  0  0  0  0  0
    0.0198    0.5889    0.7441 C   0  0  0  0  0  0  0  0  0  0  0  0
   -0.0077   -0.2066   -0.4008 C   0  0  0  0  0  0  0  0  0  0  0  0
   -0.0424   -1.5276    0.0296 N   0  0  0  0  0  0  0  0  0  0  0  0
   -0.0371   -1.5595    1.3864 C   0  0  0  0  0  0  0  0  0  0  0  0
    0.0011   -0.2653    1.8683 C   0  0  0  0  0  0  0  0  0  0  0  0
   -0.0029    0.1917   -1.7452 C   0  0  0  0  0  0  0  0  0  0  0  0
    0.0030    0.5679   -2.8447 N   0  0  0  0  0  0  0  0  0  0  0  0
    0.0639    2.3014   -0.0810 H   0  0  0  0  0  0  0  0  0  0  0  0
   -0.0672   -2.3242   -0.5821 H   0  0  0  0  0  0  0  0  0  0  0  0
   -0.0608   -2.4972    1.9180 H   0  0  0  0  0  0  0  0  0  0  0  0
    0.0143    0.0410    2.9013 H   0  0  0  0  0  0  0  0  0  0  0  0
  2  1  1  0  0  0  0
  2  6  1  0  0  0  0
  3  4  1  0  0  0  0
  3  2  2  0  0  0  0
  4  5  1  0  0  0  0
  5  6  2  0  0  0  0
  5 11  1  0  0  0  0
  6 12  1  0  0  0  0
  7  3  1  0  0  0  0
  8  7  3  0  0  0  0
  9  1  1  0  0  0  0
 10  4  1  0  0  0  0
M  END
