12
title
O 0.087903045 1.9290941 0.76711154
C 0.042898566 0.5879337 0.70840955
C -0.020830253 -0.1788687 -0.4444235
N -0.046170656 -1.4881634 0.044459175
C 0.0013581413 -1.4295373 1.3914539
N 0.056193143 -0.18238656 1.8275054
C -0.056698117 0.14494641 -1.8069608
C -0.08827383 0.40616143 -2.9839594
H 0.12706432 2.1600485 1.7036763
H -0.092059 -2.3140955 -0.5283527
H -0.0058002165 -2.3111753 2.0138204
H -0.115378566 0.6530727 -4.0158963
