title
 OpenBabel02282109573D

 12 12  0  0  1  0  0  0  0  0999 V2000
    0.0879    1.9291    0.7671 O   0  0  0  0  0  0  0  0  0  0  0  0
    0.0429    0.5879    0.7084 C   0  0  0  0  0  0  0  0  0  0  0  0
   -0.0208   -0.1789   -0.4444 C   0  0  2  0  0  0  0  0  0  0  0  0
   -0.0462   -1.4882    0.0445 N   0  0  0  0  0  0  0  0  0  0  0  0
    0.0014   -1.4295    1.3915 C   0  0  0  0  0  0  0  0  0  0  0  0
    0.0562   -0.1824    1.8275 N   0  0  0  0  0  0  0  0  0  0  0  0
   -0.0567    0.1449   -1.8070 C   0  0  0  0  0  0  0  0  0  0  0  0
   -0.0883    0.4062   -2.9840 C   0  0  0  0  0  0  0  0  0  0  0  0
    0.1271    2.1600    1.7037 H   0  0  0  0  0  0  0  0  0  0  0  0
   -0.0921   -2.3141   -0.5284 H   0  0  0  0  0  0  0  0  0  0  0  0
   -0.0058   -2.3112    2.0138 H   0  0  0  0  0  0  0  0  0  0  0  0
   -0.1154    0.6531   -4.0159 H   0  0  0  0  0  0  0  0  0  0  0  0
  1  9  1  0  0  0  0
  2  1  1  0  0  0  0
  2  6  2  0  0  0  0
  3  7  1  6  0  0  0
  3  4  1  0  0  0  0
  3  2  1  0  0  0  0
  4  5  1  0  0  0  0
  5  6  1  0  0  0  0
  5 11  1  0  0  0  0
  8  7  3  0  0  0  0
 10  4  1  0  0  0  0
 12  8  1  0  0  0  0
M  RAD  2   3   2   5   2
M  END
