11
title
O 0.090953276 1.9450527 0.7852612
C 0.044232488 0.6104255 0.70540154
C -0.019819183 -0.15530415 -0.4296499
O -0.048198156 -1.4756927 0.011310816
C -0.00012079841 -1.3952662 1.3438026
N 0.05614885 -0.18865998 1.8229065
C -0.057423007 0.12273796 -1.7975302
C -0.08940097 0.3745512 -2.975694
H 0.1304775 2.1710572 1.723085
H -0.011905262 -2.3234394 1.8935664
H -0.117372505 0.6011993 -4.0125604
