title
 OpenBabel02282109573D

 10 10  0  0  1  0  0  0  0  0999 V2000
    0.0952    1.9471    0.7773 O   0  0  0  0  0  0  0  0  0  0  0  0
    0.0473    0.6189    0.7139 C   0  0  0  0  0  0  0  0  0  0  0  0
   -0.0206   -0.1627   -0.4105 C   0  0  1  0  0  0  0  0  0  0  0  0
   -0.0495   -1.4770    0.0320 O   0  0  0  0  0  0  0  0  0  0  0  0
    0.0023   -1.3852    1.3629 C   0  0  0  0  0  0  0  0  0  0  0  0
    0.0609   -0.1753    1.8339 N   0  0  0  0  0  0  0  0  0  0  0  0
   -0.0614    0.1082   -1.7847 C   0  0  0  0  0  0  0  0  0  0  0  0
   -0.0945    0.3506   -2.9180 N   0  0  0  0  0  0  0  0  0  0  0  0
    0.1377    2.1940    1.7104 H   0  0  0  0  0  0  0  0  0  0  0  0
   -0.0091   -2.3097    1.9190 H   0  0  0  0  0  0  0  0  0  0  0  0
  1  9  1  0  0  0  0
  2  1  1  0  0  0  0
  2  6  2  0  0  0  0
  3  7  1  1  0  0  0
  3  4  1  0  0  0  0
  3  2  1  0  0  0  0
  4  5  1  0  0  0  0
  5  6  2  0  0  0  0
  5 10  1  0  0  0  0
  8  7  3  0  0  0  0
M  RAD  1   3   2
M  END
