title
 OpenBabel02282109573D

 15 15  0  0  0  0  0  0  0  0999 V2000
    0.0240    2.2941    0.8561 C   0  0  0  0  0  0  0  0  0  0  0  0
    0.0443    0.7957    0.8075 C   0  0  0  0  0  0  0  0  0  0  0  0
   -0.0232   -0.0122   -0.3300 C   0  0  0  0  0  0  0  0  0  0  0  0
    0.0272   -1.3261    0.0861 N   0  0  0  0  0  0  0  0  0  0  0  0
    0.1233   -1.3772    1.4350 C   0  0  0  0  0  0  0  0  0  0  0  0
    0.1366   -0.0781    1.9166 C   0  0  0  0  0  0  0  0  0  0  0  0
   -0.1273    0.2732   -1.7400 C   0  0  0  0  0  0  0  0  0  0  0  0
   -0.1741   -0.5917   -2.5997 O   0  0  0  0  0  0  0  0  0  0  0  0
    0.9347    2.6873    1.3217 H   0  0  0  0  0  0  0  0  0  0  0  0
   -0.0552    2.7367   -0.1395 H   0  0  0  0  0  0  0  0  0  0  0  0
   -0.8219    2.6594    1.4491 H   0  0  0  0  0  0  0  0  0  0  0  0
   -0.0068   -2.0918   -0.5677 H   0  0  0  0  0  0  0  0  0  0  0  0
    0.1753   -2.3184    1.9598 H   0  0  0  0  0  0  0  0  0  0  0  0
    0.2054    0.2076    2.9556 H   0  0  0  0  0  0  0  0  0  0  0  0
   -0.1633    1.3492   -2.0060 H   0  0  0  0  0  0  0  0  0  0  0  0
  1  9  1  0  0  0  0
  1 11  1  0  0  0  0
  2  1  1  0  0  0  0
  2  6  1  0  0  0  0
  3  4  1  0  0  0  0
  3  2  2  0  0  0  0
  4  5  1  0  0  0  0
  5  6  2  0  0  0  0
  5 13  1  0  0  0  0
  6 14  1  0  0  0  0
  7  3  1  0  0  0  0
  8  7  2  0  0  0  0
 10  1  1  0  0  0  0
 12  4  1  0  0  0  0
 15  7  1  0  0  0  0
M  END
