14
title
C 0.02983494 2.2608073 0.8844385
C 0.053243976 0.77183616 0.77714556
C -0.03210444 -0.021989465 -0.36046046
N 0.038666565 -1.3239479 0.10313326
C 0.15864618 -1.2642307 1.4435455
N 0.17128396 -0.01825428 1.8882328
C -0.16581711 0.24396038 -1.7734152
O -0.22275312 -0.6334785 -2.616684
H 0.94770783 2.6249437 1.3573362
H -0.067362525 2.738385 -0.09304887
H -0.8056975 2.5862784 1.5126977
H 0.0018654773 -2.130133 -0.5010851
H 0.23413742 -2.1471374 2.0612948
H -0.2144945 1.3165032 -2.0499575
