title
 OpenBabel02282109573D

 14 14  0  0  0  0  0  0  0  0999 V2000
    0.0298    2.2608    0.8844 C   0  0  0  0  0  0  0  0  0  0  0  0
    0.0532    0.7718    0.7771 C   0  0  0  0  0  0  0  0  0  0  0  0
   -0.0321   -0.0220   -0.3605 C   0  0  0  0  0  0  0  0  0  0  0  0
    0.0387   -1.3239    0.1031 N   0  0  0  0  0  0  0  0  0  0  0  0
    0.1586   -1.2642    1.4435 C   0  0  0  0  0  0  0  0  0  0  0  0
    0.1713   -0.0183    1.8882 N   0  0  0  0  0  0  0  0  0  0  0  0
   -0.1658    0.2440   -1.7734 C   0  0  0  0  0  0  0  0  0  0  0  0
   -0.2228   -0.6335   -2.6167 O   0  0  0  0  0  0  0  0  0  0  0  0
    0.9477    2.6249    1.3573 H   0  0  0  0  0  0  0  0  0  0  0  0
   -0.0674    2.7384   -0.0930 H   0  0  0  0  0  0  0  0  0  0  0  0
   -0.8057    2.5863    1.5127 H   0  0  0  0  0  0  0  0  0  0  0  0
    0.0019   -2.1301   -0.5011 H   0  0  0  0  0  0  0  0  0  0  0  0
    0.2341   -2.1471    2.0613 H   0  0  0  0  0  0  0  0  0  0  0  0
   -0.2145    1.3165   -2.0500 H   0  0  0  0  0  0  0  0  0  0  0  0
  1  9  1  0  0  0  0
  1 11  1  0  0  0  0
  2  1  1  0  0  0  0
  2  6  1  0  0  0  0
  3  4  1  0  0  0  0
  3  2  2  0  0  0  0
  4  5  1  0  0  0  0
  5  6  2  0  0  0  0
  5 13  1  0  0  0  0
  7  3  1  0  0  0  0
  8  7  2  0  0  0  0
 10  1  1  0  0  0  0
 12  4  1  0  0  0  0
 14  7  1  0  0  0  0
M  END
