14
title
C -0.018318186 2.2902758 0.8510271
C 0.006525112 0.79411405 0.7986203
C -0.0076231956 -0.021509077 -0.31277725
O 0.025167147 -1.3364784 0.0698398
C 0.05987003 -1.351807 1.412971
C 0.05068512 -0.08737346 1.9213374
C -0.049156178 0.27455583 -1.7329133
O -0.05754524 -0.5475465 -2.6231809
H 0.86950004 2.6766093 1.3635477
H -0.05192321 2.7382238 -0.1436765
H -0.89139557 2.6457686 1.4091561
H 0.088709116 -2.327735 1.8713233
H 0.072561026 0.18723872 2.9647176
H -0.07379771 1.3641807 -1.949791
