title
 OpenBabel02282109573D

 14 14  0  0  0  0  0  0  0  0999 V2000
    0.7992    2.1917    0.1287 N   0  0  0  0  0  0  0  0  0  0  0  0
    0.7836    0.8076    0.0217 C   0  0  0  0  0  0  0  0  0  0  0  0
   -0.3470   -0.0245   -0.0036 C   0  0  0  0  0  0  0  0  0  0  0  0
    0.1171   -1.3323   -0.0414 N   0  0  0  0  0  0  0  0  0  0  0  0
    1.4656   -1.3427   -0.0413 C   0  0  0  0  0  0  0  0  0  0  0  0
    1.9222   -0.0350   -0.0024 C   0  0  0  0  0  0  0  0  0  0  0  0
   -1.7538    0.2340    0.0027 C   0  0  0  0  0  0  0  0  0  0  0  0
   -2.6105   -0.6387   -0.0259 O   0  0  0  0  0  0  0  0  0  0  0  0
    1.6344    2.6256   -0.2365 H   0  0  0  0  0  0  0  0  0  0  0  0
   -0.0299    2.6595   -0.2067 H   0  0  0  0  0  0  0  0  0  0  0  0
   -0.5154   -2.1148   -0.0661 H   0  0  0  0  0  0  0  0  0  0  0  0
    2.0218   -2.2669   -0.0702 H   0  0  0  0  0  0  0  0  0  0  0  0
    2.9552    0.2776    0.0121 H   0  0  0  0  0  0  0  0  0  0  0  0
   -2.0369    1.3095    0.0368 H   0  0  0  0  0  0  0  0  0  0  0  0
  2  1  1  0  0  0  0
  3  7  1  0  0  0  0
  3  2  2  0  0  0  0
  4  5  1  0  0  0  0
  4  3  1  0  0  0  0
  5  6  2  0  0  0  0
  6 13  1  0  0  0  0
  6  2  1  0  0  0  0
  7 14  1  0  0  0  0
  8  7  2  0  0  0  0
  9  1  1  0  0  0  0
 10  1  1  0  0  0  0
 11  4  1  0  0  0  0
 12  5  1  0  0  0  0
M  END
