title
 OpenBabel02282109573D

 13 13  0  0  0  0  0  0  0  0999 V2000
    0.8434    2.1514    0.1161 N   0  0  0  0  0  0  0  0  0  0  0  0
    0.7556    0.7841    0.0225 C   0  0  0  0  0  0  0  0  0  0  0  0
   -0.3825   -0.0294   -0.0055 C   0  0  0  0  0  0  0  0  0  0  0  0
    0.1311   -1.3250   -0.0401 N   0  0  0  0  0  0  0  0  0  0  0  0
    1.4686   -1.2312   -0.0297 C   0  0  0  0  0  0  0  0  0  0  0  0
    1.8902    0.0250    0.0058 N   0  0  0  0  0  0  0  0  0  0  0  0
   -1.7934    0.2055   -0.0008 C   0  0  0  0  0  0  0  0  0  0  0  0
   -2.6322   -0.6828   -0.0315 O   0  0  0  0  0  0  0  0  0  0  0  0
    1.7502    2.5142   -0.1390 H   0  0  0  0  0  0  0  0  0  0  0  0
    0.0731    2.6859   -0.2532 H   0  0  0  0  0  0  0  0  0  0  0  0
   -0.4532   -2.1453   -0.0666 H   0  0  0  0  0  0  0  0  0  0  0  0
    2.1154   -2.0959   -0.0518 H   0  0  0  0  0  0  0  0  0  0  0  0
   -2.0909    1.2763    0.0347 H   0  0  0  0  0  0  0  0  0  0  0  0
  2  1  1  0  0  0  0
  3  7  1  0  0  0  0
  3  2  2  0  0  0  0
  4  5  1  0  0  0  0
  4  3  1  0  0  0  0
  5  6  2  0  0  0  0
  6  2  1  0  0  0  0
  7 13  1  0  0  0  0
  8  7  2  0  0  0  0
  9  1  1  0  0  0  0
 10  1  1  0  0  0  0
 11  4  1  0  0  0  0
 12  5  1  0  0  0  0
M  END
