13
title
N 0.7975672 2.1784616 0.1330423
C 0.77312136 0.80392015 0.025427233
C -0.33019057 -0.03909902 -0.0026496924
O 0.1037596 -1.3486742 -0.042658
C 1.4414597 -1.3190154 -0.042466585
C 1.9227842 -0.04526834 -0.0014445274
C -1.7391528 0.23821636 -0.0020717871
O -2.6391819 -0.5771657 -0.03167381
H 1.6271197 2.6246355 -0.22756186
H -0.045118134 2.663865 -0.13392034
H 1.9347677 -2.278063 -0.07406405
H 2.9584465 0.25667772 0.01420512
H -1.9576684 1.3328155 0.028911218
