title
 OpenBabel02282109573D

 12 12  0  0  0  0  0  0  0  0999 V2000
    0.8436    2.1415    0.1176 N   0  0  0  0  0  0  0  0  0  0  0  0
    0.7441    0.7846    0.0266 C   0  0  0  0  0  0  0  0  0  0  0  0
   -0.3661   -0.0421   -0.0042 C   0  0  0  0  0  0  0  0  0  0  0  0
    0.1213   -1.3432   -0.0401 O   0  0  0  0  0  0  0  0  0  0  0  0
    1.4433   -1.2072   -0.0296 C   0  0  0  0  0  0  0  0  0  0  0  0
    1.8899    0.0132    0.0081 N   0  0  0  0  0  0  0  0  0  0  0  0
   -1.7794    0.2074   -0.0061 C   0  0  0  0  0  0  0  0  0  0  0  0
   -2.6603   -0.6272   -0.0393 O   0  0  0  0  0  0  0  0  0  0  0  0
    1.7458    2.5173   -0.1303 H   0  0  0  0  0  0  0  0  0  0  0  0
    0.0552    2.6968   -0.1714 H   0  0  0  0  0  0  0  0  0  0  0  0
    2.0312   -2.1125   -0.0551 H   0  0  0  0  0  0  0  0  0  0  0  0
   -2.0152    1.2975    0.0280 H   0  0  0  0  0  0  0  0  0  0  0  0
  2  1  1  0  0  0  0
  3  2  2  0  0  0  0
  4  5  1  0  0  0  0
  4  3  1  0  0  0  0
  5  6  2  0  0  0  0
  6  2  1  0  0  0  0
  7  3  1  0  0  0  0
  7 12  1  0  0  0  0
  8  7  2  0  0  0  0
  9  1  1  0  0  0  0
 10  1  1  0  0  0  0
 11  5  1  0  0  0  0
M  END
