12
title
O 0.07834863 2.0921783 0.795361
C 0.04240589 0.7542586 0.75591975
C -0.012554473 -0.034973506 -0.38837653
N -0.031016346 -1.3322022 0.11544436
C 0.011181825 -1.2546548 1.4546045
N 0.056857876 0.0022575234 1.8834037
C -0.048244677 0.22673702 -1.8006045
O -0.09692877 -0.65628654 -2.641471
H 0.11296153 2.341841 1.7284598
H -0.069875 -2.14818 -0.47507948
H 0.0077600074 -2.1253052 2.0929825
H -0.029102648 1.2993902 -2.0772233
