title
 OpenBabel02282109573D

 13 13  0  0  0  0  0  0  0  0999 V2000
   -0.6567    2.1324    0.1130 N   0  0  0  0  0  0  0  0  0  0  0  0
   -0.8022    0.7408    0.0201 C   0  0  0  0  0  0  0  0  0  0  0  0
   -1.8678   -0.1083    0.0487 C   0  0  0  0  0  0  0  0  0  0  0  0
   -1.4480   -1.4331    0.0046 N   0  0  0  0  0  0  0  0  0  0  0  0
   -0.1516   -1.3933   -0.0618 C   0  0  0  0  0  0  0  0  0  0  0  0
    0.3265   -0.0891   -0.0429 N   0  0  0  0  0  0  0  0  0  0  0  0
    1.6658    0.3018    0.0066 C   0  0  0  0  0  0  0  0  0  0  0  0
    2.5855   -0.4696   -0.0631 O   0  0  0  0  0  0  0  0  0  0  0  0
   -0.4373    2.5715   -0.7763 H   0  0  0  0  0  0  0  0  0  0  0  0
   -1.4980    2.5600    0.4792 H   0  0  0  0  0  0  0  0  0  0  0  0
   -2.9153    0.1477    0.0993 H   0  0  0  0  0  0  0  0  0  0  0  0
    0.5276   -2.2282   -0.1258 H   0  0  0  0  0  0  0  0  0  0  0  0
    1.7693    1.3921    0.1260 H   0  0  0  0  0  0  0  0  0  0  0  0
  1 10  1  0  0  0  0
  2  3  2  0  0  0  0
  2  1  1  0  0  0  0
  3 11  1  0  0  0  0
  4  3  1  0  0  0  0
  5  6  1  0  0  0  0
  5  4  2  0  0  0  0
  6  7  1  0  0  0  0
  6  2  1  0  0  0  0
  7 13  1  0  0  0  0
  8  7  2  0  0  0  0
  9  1  1  0  0  0  0
 12  5  1  0  0  0  0
M  END
