13
title
N -0.7376776 2.0588357 0.14457975
C -0.8028397 0.6763064 0.048325885
N -1.8819337 -0.046376415 0.12551782
C -1.4440435 -1.3694537 0.061425705
C -0.09867283 -1.4407327 -0.07022935
N 0.34387818 -0.10871727 -0.06447602
C 1.6675314 0.31710175 -0.05026915
O 2.6096623 -0.4241867 -0.14854336
H -0.25022128 2.513182 -0.61810505
H -1.673723 2.434958 0.2338352
H -2.1506271 -2.1838086 0.10365197
H 0.6058517 -2.2476008 -0.16293786
H 1.7504276 1.4100289 0.072013415
