title
 OpenBabel02282109573D

 13 13  0  0  0  0  0  0  0  0999 V2000
    0.0699    2.0461   -0.5787 O   0  0  0  0  0  0  0  0  0  0  0  0
    0.0323    0.7110   -0.7981 C   0  0  0  0  0  0  0  0  0  0  0  0
    0.0241   -0.0559   -1.9238 C   0  0  0  0  0  0  0  0  0  0  0  0
   -0.0235   -1.4291   -1.4835 C   0  0  0  0  0  0  0  0  0  0  0  0
   -0.0421   -1.4469   -0.1256 C   0  0  0  0  0  0  0  0  0  0  0  0
   -0.0078   -0.1183    0.3176 N   0  0  0  0  0  0  0  0  0  0  0  0
   -0.0132    0.2920    1.6473 C   0  0  0  0  0  0  0  0  0  0  0  0
   -0.0489   -0.4723    2.5772 O   0  0  0  0  0  0  0  0  0  0  0  0
    0.0942    2.4952   -1.4294 H   0  0  0  0  0  0  0  0  0  0  0  0
    0.0485    0.3020   -2.9414 H   0  0  0  0  0  0  0  0  0  0  0  0
   -0.0412   -2.2962   -2.1258 H   0  0  0  0  0  0  0  0  0  0  0  0
   -0.0759   -2.2397    0.6004 H   0  0  0  0  0  0  0  0  0  0  0  0
    0.0186    1.3880    1.7427 H   0  0  0  0  0  0  0  0  0  0  0  0
  2  1  1  0  0  0  0
  2  6  1  0  0  0  0
  3  4  1  0  0  0  0
  3  2  2  0  0  0  0
  4  5  2  0  0  0  0
  5  6  1  0  0  0  0
  5 12  1  0  0  0  0
  6  7  1  0  0  0  0
  7 13  1  0  0  0  0
  7  8  2  0  0  0  0
  9  1  1  0  0  0  0
 10  3  1  0  0  0  0
 11  4  1  0  0  0  0
M  END
