title
 OpenBabel02282109573D

 12 12  0  0  0  0  0  0  0  0999 V2000
    0.0705    2.0093   -0.6129 O   0  0  0  0  0  0  0  0  0  0  0  0
    0.0339    0.6804   -0.7721 C   0  0  0  0  0  0  0  0  0  0  0  0
    0.0343    0.0218   -1.8858 N   0  0  0  0  0  0  0  0  0  0  0  0
   -0.0125   -1.3218   -1.4965 C   0  0  0  0  0  0  0  0  0  0  0  0
   -0.0407   -1.4470   -0.1485 C   0  0  0  0  0  0  0  0  0  0  0  0
   -0.0104   -0.1319    0.3465 N   0  0  0  0  0  0  0  0  0  0  0  0
   -0.0225    0.2679    1.6828 C   0  0  0  0  0  0  0  0  0  0  0  0
   -0.0605   -0.5061    2.6016 O   0  0  0  0  0  0  0  0  0  0  0  0
    0.0977    2.3906   -1.5008 H   0  0  0  0  0  0  0  0  0  0  0  0
   -0.0224   -2.1063   -2.2365 H   0  0  0  0  0  0  0  0  0  0  0  0
   -0.0777   -2.2816    0.5282 H   0  0  0  0  0  0  0  0  0  0  0  0
    0.0097    1.3639    1.7849 H   0  0  0  0  0  0  0  0  0  0  0  0
  2  1  1  0  0  0  0
  2  6  1  0  0  0  0
  3  4  1  0  0  0  0
  3  2  2  0  0  0  0
  4  5  2  0  0  0  0
  5  6  1  0  0  0  0
  5 11  1  0  0  0  0
  6  7  1  0  0  0  0
  7 12  1  0  0  0  0
  7  8  2  0  0  0  0
  9  1  1  0  0  0  0
 10  4  1  0  0  0  0
M  END
