title
 OpenBabel02282109573D

 15 15  0  0  0  0  0  0  0  0999 V2000
   -0.0548    2.1171   -0.6929 C   0  0  0  0  0  0  0  0  0  0  0  0
   -0.0302    0.6213   -0.7217 C   0  0  0  0  0  0  0  0  0  0  0  0
   -0.0462   -0.1918   -1.8272 C   0  0  0  0  0  0  0  0  0  0  0  0
   -0.0124   -1.5018   -1.4049 N   0  0  0  0  0  0  0  0  0  0  0  0
    0.0252   -1.5497   -0.0430 C   0  0  0  0  0  0  0  0  0  0  0  0
    0.0157   -0.2471    0.4267 C   0  0  0  0  0  0  0  0  0  0  0  0
    0.0455    0.1593    1.7803 C   0  0  0  0  0  0  0  0  0  0  0  0
    0.0702    0.5342    2.9258 C   0  0  0  0  0  0  0  0  0  0  0  0
    0.8314    2.5235   -0.1925 H   0  0  0  0  0  0  0  0  0  0  0  0
   -0.0891    2.5306   -1.7048 H   0  0  0  0  0  0  0  0  0  0  0  0
   -0.9259    2.4937   -0.1451 H   0  0  0  0  0  0  0  0  0  0  0  0
   -0.0787    0.0541   -2.8766 H   0  0  0  0  0  0  0  0  0  0  0  0
   -0.0158   -2.3043   -2.0090 H   0  0  0  0  0  0  0  0  0  0  0  0
    0.0556   -2.4837    0.4933 H   0  0  0  0  0  0  0  0  0  0  0  0
    0.0920    0.8564    3.9367 H   0  0  0  0  0  0  0  0  0  0  0  0
  1  9  1  0  0  0  0
  1 11  1  0  0  0  0
  2  1  1  0  0  0  0
  2  6  1  0  0  0  0
  3  4  1  0  0  0  0
  3  2  2  0  0  0  0
  4  5  1  0  0  0  0
  5  6  2  0  0  0  0
  5 14  1  0  0  0  0
  6  7  1  0  0  0  0
  7  8  3  0  0  0  0
  8 15  1  0  0  0  0
 10  1  1  0  0  0  0
 12  3  1  0  0  0  0
 13  4  1  0  0  0  0
M  END
