15
title
C -0.054773204 2.1171203 -0.6929131
C -0.03015306 0.6212773 -0.72171336
C -0.04623346 -0.1917922 -1.8271747
N -0.012375608 -1.5017964 -1.4048736
C 0.025167154 -1.5497187 -0.04304207
C 0.01570482 -0.24706365 0.4267261
C 0.045493893 0.1593342 1.7802888
C 0.070179746 0.5341973 2.9258106
H 0.83139354 2.5235274 -0.19253655
H -0.089128315 2.5305722 -1.7048359
H -0.925924 2.4936798 -0.14506604
H -0.07872045 0.054050256 -2.876629
H -0.015836066 -2.3043203 -2.0090096
H 0.055645205 -2.4836984 0.49331808
H 0.09204949 0.85635704 3.9366927
