14
title
C -0.054354634 2.1293337 -0.69181985
C -0.030365832 0.6334642 -0.7293851
C -0.046538163 -0.17547989 -1.837118
N -0.012771125 -1.4890581 -1.4218442
C 0.025148831 -1.5495845 -0.065013476
C 0.0149990795 -0.24784821 0.40657073
C 0.044636283 0.14184785 1.7668935
N 0.06853849 0.4826361 2.8745801
H 0.8357036 2.5323746 -0.19645019
H -0.09490395 2.545486 -1.7018718
H -0.9226522 2.502519 -0.13799424
H -0.07922224 0.07586515 -2.8849552
H -0.015725154 -2.2879307 -2.0318413
H 0.05564018 -2.4854736 0.4676401
