14
title
C -0.052565716 2.1399415 -0.67097104
C -0.028475178 0.6463131 -0.7089978
C -0.041567612 -0.16868564 -1.7929671
O -0.010455256 -1.4826789 -1.4242567
C 0.02321015 -1.5118885 -0.07528991
C 0.015006865 -0.24397108 0.4363249
C 0.042462867 0.13229266 1.7981119
C 0.06516409 0.4839067 2.9499905
H 0.8344865 2.5381188 -0.16648926
H -0.08667055 2.5596507 -1.6797122
H -0.9241687 2.5084922 -0.11928726
H -0.07100856 0.018461086 -2.8537624
H 0.050716 -2.485019 0.38561445
H 0.08572507 0.78313124 3.9683256
