13
title
C -0.054042593 2.147723 -0.68490195
C -0.030885251 0.6538391 -0.7211813
C -0.047721077 -0.16476782 -1.8024868
O -0.016002305 -1.479528 -1.4298167
C 0.021893874 -1.5118163 -0.08705366
C 0.015664138 -0.24114896 0.41713327
C 0.047897108 0.1266626 1.784059
N 0.07385915 0.45192727 2.8953972
H 0.83617014 2.546222 -0.18690246
H -0.09256548 2.56289 -1.6949028
H -0.92363036 2.517551 -0.13147873
H -0.080438696 0.018949201 -2.8634007
H 0.05046493 -2.4831054 0.37770385
