title
 OpenBabel02282109573D

 13 13  0  0  0  0  0  0  0  0999 V2000
   -0.0540    2.1477   -0.6849 C   0  0  0  0  0  0  0  0  0  0  0  0
   -0.0309    0.6538   -0.7212 C   0  0  0  0  0  0  0  0  0  0  0  0
   -0.0477   -0.1648   -1.8025 C   0  0  0  0  0  0  0  0  0  0  0  0
   -0.0160   -1.4795   -1.4298 O   0  0  0  0  0  0  0  0  0  0  0  0
    0.0219   -1.5118   -0.0871 C   0  0  0  0  0  0  0  0  0  0  0  0
    0.0157   -0.2411    0.4171 C   0  0  0  0  0  0  0  0  0  0  0  0
    0.0479    0.1267    1.7841 C   0  0  0  0  0  0  0  0  0  0  0  0
    0.0739    0.4519    2.8954 N   0  0  0  0  0  0  0  0  0  0  0  0
    0.8362    2.5462   -0.1869 H   0  0  0  0  0  0  0  0  0  0  0  0
   -0.0926    2.5629   -1.6949 H   0  0  0  0  0  0  0  0  0  0  0  0
   -0.9236    2.5176   -0.1315 H   0  0  0  0  0  0  0  0  0  0  0  0
   -0.0804    0.0189   -2.8634 H   0  0  0  0  0  0  0  0  0  0  0  0
    0.0505   -2.4831    0.3777 H   0  0  0  0  0  0  0  0  0  0  0  0
  1  9  1  0  0  0  0
  1 11  1  0  0  0  0
  2  1  1  0  0  0  0
  2  6  1  0  0  0  0
  3  4  1  0  0  0  0
  3  2  2  0  0  0  0
  4  5  1  0  0  0  0
  5 13  1  0  0  0  0
  5  6  2  0  0  0  0
  6  7  1  0  0  0  0
  7  8  3  0  0  0  0
 10  1  1  0  0  0  0
 12  3  1  0  0  0  0
M  END
