title
 OpenBabel02282109573D

 13 13  0  0  0  0  0  0  0  0999 V2000
   -0.6948    1.9922    0.1470 N   0  0  0  0  0  0  0  0  0  0  0  0
   -0.7351    0.6034    0.0300 C   0  0  0  0  0  0  0  0  0  0  0  0
   -1.8369   -0.2214    0.0099 C   0  0  0  0  0  0  0  0  0  0  0  0
   -1.3825   -1.5294   -0.0365 N   0  0  0  0  0  0  0  0  0  0  0  0
   -0.0312   -1.5646   -0.0461 C   0  0  0  0  0  0  0  0  0  0  0  0
    0.4204   -0.2520   -0.0083 C   0  0  0  0  0  0  0  0  0  0  0  0
    1.7609    0.1904   -0.0212 C   0  0  0  0  0  0  0  0  0  0  0  0
    2.8456    0.6015   -0.0395 N   0  0  0  0  0  0  0  0  0  0  0  0
    0.1755    2.3929   -0.1773 H   0  0  0  0  0  0  0  0  0  0  0  0
   -1.4804    2.4652   -0.2772 H   0  0  0  0  0  0  0  0  0  0  0  0
   -2.8893    0.0051    0.0345 H   0  0  0  0  0  0  0  0  0  0  0  0
   -1.9768   -2.3391   -0.0585 H   0  0  0  0  0  0  0  0  0  0  0  0
    0.5223   -2.4877   -0.0851 H   0  0  0  0  0  0  0  0  0  0  0  0
  2  1  1  0  0  0  0
  3  2  2  0  0  0  0
  3 11  1  0  0  0  0
  4  3  1  0  0  0  0
  5  4  1  0  0  0  0
  5  6  2  0  0  0  0
  6  2  1  0  0  0  0
  7  6  1  0  0  0  0
  8  7  3  0  0  0  0
  9  1  1  0  0  0  0
 10  1  1  0  0  0  0
 12  4  1  0  0  0  0
 13  5  1  0  0  0  0
M  END
