title
 OpenBabel02282109573D

 12 12  0  0  0  0  0  0  0  0999 V2000
   -0.6792    2.0071    0.1431 N   0  0  0  0  0  0  0  0  0  0  0  0
   -0.7297    0.6252    0.0250 C   0  0  0  0  0  0  0  0  0  0  0  0
   -1.8058   -0.2105   -0.0012 C   0  0  0  0  0  0  0  0  0  0  0  0
   -1.3902   -1.5215   -0.0432 O   0  0  0  0  0  0  0  0  0  0  0  0
   -0.0546   -1.5248   -0.0471 C   0  0  0  0  0  0  0  0  0  0  0  0
    0.4283   -0.2441   -0.0073 C   0  0  0  0  0  0  0  0  0  0  0  0
    1.7774    0.1763   -0.0111 C   0  0  0  0  0  0  0  0  0  0  0  0
    2.8672    0.5701   -0.0224 N   0  0  0  0  0  0  0  0  0  0  0  0
    0.1702    2.4180   -0.2199 H   0  0  0  0  0  0  0  0  0  0  0  0
   -1.4947    2.4907   -0.2043 H   0  0  0  0  0  0  0  0  0  0  0  0
   -2.8699   -0.0537    0.0126 H   0  0  0  0  0  0  0  0  0  0  0  0
    0.4356   -2.4833   -0.0837 H   0  0  0  0  0  0  0  0  0  0  0  0
  2  1  1  0  0  0  0
  3 11  1  0  0  0  0
  3  2  2  0  0  0  0
  4  3  1  0  0  0  0
  5  4  1  0  0  0  0
  5  6  2  0  0  0  0
  6  2  1  0  0  0  0
  7  6  1  0  0  0  0
  8  7  3  0  0  0  0
  9  1  1  0  0  0  0
 10  1  1  0  0  0  0
 12  5  1  0  0  0  0
M  END
