title
 OpenBabel02282109573D

 15 15  0  0  0  0  0  0  0  0999 V2000
   -0.0491    2.2882   -0.7641 C   0  0  0  0  0  0  0  0  0  0  0  0
   -0.0299    0.7887   -0.7783 C   0  0  0  0  0  0  0  0  0  0  0  0
   -0.0481   -0.0112   -1.8922 C   0  0  0  0  0  0  0  0  0  0  0  0
   -0.0204   -1.3305   -1.4811 N   0  0  0  0  0  0  0  0  0  0  0  0
    0.0149   -1.3948   -0.1281 C   0  0  0  0  0  0  0  0  0  0  0  0
    0.0104   -0.0954    0.3573 C   0  0  0  0  0  0  0  0  0  0  0  0
    0.0417    0.2574    1.7693 C   0  0  0  0  0  0  0  0  0  0  0  0
    0.0752   -0.5392    2.6863 O   0  0  0  0  0  0  0  0  0  0  0  0
    0.8365    2.7036   -0.2704 H   0  0  0  0  0  0  0  0  0  0  0  0
   -0.0749    2.6851   -1.7829 H   0  0  0  0  0  0  0  0  0  0  0  0
   -0.9247    2.6806   -0.2348 H   0  0  0  0  0  0  0  0  0  0  0  0
   -0.0780    0.2423   -2.9400 H   0  0  0  0  0  0  0  0  0  0  0  0
   -0.0256   -2.1254   -2.0970 H   0  0  0  0  0  0  0  0  0  0  0  0
    0.0407   -2.3299    0.4067 H   0  0  0  0  0  0  0  0  0  0  0  0
    0.0329    1.3515    1.9752 H   0  0  0  0  0  0  0  0  0  0  0  0
  1  9  1  0  0  0  0
  1 11  1  0  0  0  0
  2  1  1  0  0  0  0
  2  6  1  0  0  0  0
  3  4  1  0  0  0  0
  3  2  2  0  0  0  0
  4  5  1  0  0  0  0
  5  6  2  0  0  0  0
  5 14  1  0  0  0  0
  6  7  1  0  0  0  0
  7 15  1  0  0  0  0
  7  8  2  0  0  0  0
 10  1  1  0  0  0  0
 12  3  1  0  0  0  0
 13  4  1  0  0  0  0
M  END
