15
title
C -0.049146373 2.2881892 -0.76411426
C -0.029858269 0.7886926 -0.77832806
C -0.048105568 -0.01122561 -1.8921714
N -0.02040375 -1.3305467 -1.4810642
C 0.014873401 -1.3948048 -0.12811173
C 0.0103625255 -0.095359 0.35733035
C 0.0417045 0.25737843 1.7692729
O 0.075203806 -0.53922015 2.6862543
H 0.83647555 2.703556 -0.2703949
H -0.07492833 2.6851435 -1.7828584
H -0.9247018 2.6805782 -0.23482622
H -0.078032315 0.24228224 -2.9400237
H -0.025612688 -2.1254442 -2.097029
H 0.040716305 -2.3299344 0.40665594
H 0.032937348 1.351499 1.9751703
