14
title
C -0.04743802 2.3030963 -0.7593772
C -0.029761268 0.8055748 -0.76974165
C -0.04807396 -0.0066381413 -1.8557813
O -0.022670597 -1.3258092 -1.4856822
C 0.012577199 -1.3567674 -0.1441904
C 0.010602965 -0.087944835 0.36982402
C 0.043431964 0.24843249 1.7926823
O 0.07694103 -0.5644075 2.691401
H 0.8431223 2.713853 -0.2713097
H -0.080528066 2.6982703 -1.7780162
H -0.9190489 2.6927185 -0.22226653
H -0.077836156 0.17770645 -2.9169521
H 0.036315206 -2.3278832 0.32164785
H 0.035580948 1.338565 2.0134745
