14
title
N -0.76921606 2.1643293 0.13656786
C -0.7897401 0.7680825 0.020915246
C -1.8975128 -0.04754257 0.007079263
N -1.449012 -1.3610727 -0.030940667
C -0.10136488 -1.3992425 -0.050610494
C 0.3668997 -0.08948176 -0.014367352
C 1.7670321 0.28865832 0.007110073
O 2.7029667 -0.48653156 -0.036457688
H -0.03182206 2.6008859 -0.4001699
H -1.6540396 2.5928247 -0.100678295
H -2.9497428 0.18337488 0.026346108
H -2.049368 -2.1671133 -0.049017847
H 0.45462558 -2.3213139 -0.08471801
H 1.9539516 1.3855398 0.07507738
