13
title
N -0.7523023 2.1772993 0.13519755
C -0.78227484 0.7860961 0.017005045
C -1.8639 -0.04116932 -0.0022418553
O -1.455412 -1.3566276 -0.03579662
C -0.12030634 -1.3603164 -0.049360722
C 0.37664613 -0.0826948 -0.013362476
C 1.7892902 0.27930933 0.016920611
O 2.706562 -0.5126268 -0.031201322
H -0.035183102 2.6172776 -0.4257559
H -1.644975 2.614402 -0.05082053
H -2.9279175 0.12009683 0.0137360105
H 0.3690655 -2.319687 -0.08019051
H 1.9904916 1.3713588 0.097596586
