title
 OpenBabel02282109573D

 13 13  0  0  0  0  0  0  0  0999 V2000
    0.0680    2.1198   -0.6343 O   0  0  0  0  0  0  0  0  0  0  0  0
    0.0312    0.7667   -0.7600 C   0  0  0  0  0  0  0  0  0  0  0  0
    0.0237    0.0006   -1.9005 C   0  0  0  0  0  0  0  0  0  0  0  0
   -0.0191   -1.3251   -1.4904 N   0  0  0  0  0  0  0  0  0  0  0  0
   -0.0379   -1.4047   -0.1419 C   0  0  0  0  0  0  0  0  0  0  0  0
   -0.0078   -0.1130    0.3699 C   0  0  0  0  0  0  0  0  0  0  0  0
   -0.0152    0.2436    1.7804 C   0  0  0  0  0  0  0  0  0  0  0  0
   -0.0495   -0.5581    2.6935 O   0  0  0  0  0  0  0  0  0  0  0  0
    0.0903    2.5204   -1.5089 H   0  0  0  0  0  0  0  0  0  0  0  0
    0.0443    0.2678   -2.9440 H   0  0  0  0  0  0  0  0  0  0  0  0
   -0.0338   -2.1127   -2.1149 H   0  0  0  0  0  0  0  0  0  0  0  0
   -0.0711   -2.3449    0.3831 H   0  0  0  0  0  0  0  0  0  0  0  0
    0.0130    1.3355    1.9809 H   0  0  0  0  0  0  0  0  0  0  0  0
  2  1  1  0  0  0  0
  2  6  1  0  0  0  0
  3  4  1  0  0  0  0
  3  2  2  0  0  0  0
  4  5  1  0  0  0  0
  5  6  2  0  0  0  0
  5 12  1  0  0  0  0
  6  7  1  0  0  0  0
  7 13  1  0  0  0  0
  7  8  2  0  0  0  0
  9  1  1  0  0  0  0
 10  3  1  0  0  0  0
 11  4  1  0  0  0  0
M  END
