title
 OpenBabel02282109573D

 15 15  0  0  0  0  0  0  0  0999 V2000
   -0.0204    1.9792   -0.6499 C   0  0  0  0  0  0  0  0  0  0  0  0
   -0.0431    0.5307   -0.6919 N   0  0  0  0  0  0  0  0  0  0  0  0
   -0.0359   -0.2332   -1.8239 C   0  0  0  0  0  0  0  0  0  0  0  0
    0.0139   -1.5642   -1.4623 C   0  0  0  0  0  0  0  0  0  0  0  0
    0.0430   -1.6121   -0.0516 C   0  0  0  0  0  0  0  0  0  0  0  0
    0.0102   -0.3040    0.4141 C   0  0  0  0  0  0  0  0  0  0  0  0
    0.0175    0.1964    1.7300 C   0  0  0  0  0  0  0  0  0  0  0  0
    0.0228    0.6327    2.8547 C   0  0  0  0  0  0  0  0  0  0  0  0
    1.0007    2.3624   -0.5447 H   0  0  0  0  0  0  0  0  0  0  0  0
   -0.4520    2.3715   -1.5728 H   0  0  0  0  0  0  0  0  0  0  0  0
   -0.6109    2.3325    0.1974 H   0  0  0  0  0  0  0  0  0  0  0  0
   -0.0687    0.2334   -2.7961 H   0  0  0  0  0  0  0  0  0  0  0  0
    0.0182   -2.4032   -2.1405 H   0  0  0  0  0  0  0  0  0  0  0  0
    0.0738   -2.4890    0.5756 H   0  0  0  0  0  0  0  0  0  0  0  0
    0.0292    1.0043    3.8490 H   0  0  0  0  0  0  0  0  0  0  0  0
  1  9  1  0  0  0  0
  1 11  1  0  0  0  0
  2  1  1  0  0  0  0
  2  6  1  0  0  0  0
  3  4  2  0  0  0  0
  3  2  1  0  0  0  0
  4  5  1  0  0  0  0
  5  6  2  0  0  0  0
  5 14  1  0  0  0  0
  6  7  1  0  0  0  0
  7  8  3  0  0  0  0
  8 15  1  0  0  0  0
 10  1  1  0  0  0  0
 12  3  1  0  0  0  0
 13  4  1  0  0  0  0
M  END
