title
 OpenBabel02282109573D

 14 14  0  0  0  0  0  0  0  0999 V2000
   -0.0074    1.9797   -0.6654 C   0  0  0  0  0  0  0  0  0  0  0  0
   -0.0300    0.5283   -0.7053 N   0  0  0  0  0  0  0  0  0  0  0  0
   -0.0036   -0.2411   -1.8292 C   0  0  0  0  0  0  0  0  0  0  0  0
    0.0401   -1.5731   -1.4627 C   0  0  0  0  0  0  0  0  0  0  0  0
    0.0449   -1.6181   -0.0541 C   0  0  0  0  0  0  0  0  0  0  0  0
    0.0040   -0.3065    0.3985 C   0  0  0  0  0  0  0  0  0  0  0  0
   -0.0140    0.2015    1.7140 C   0  0  0  0  0  0  0  0  0  0  0  0
   -0.0306    0.6361    2.7896 N   0  0  0  0  0  0  0  0  0  0  0  0
    1.0108    2.3581   -0.5280 H   0  0  0  0  0  0  0  0  0  0  0  0
   -0.4083    2.3677   -1.6032 H   0  0  0  0  0  0  0  0  0  0  0  0
   -0.6267    2.3376    0.1594 H   0  0  0  0  0  0  0  0  0  0  0  0
   -0.0187    0.2202   -2.8043 H   0  0  0  0  0  0  0  0  0  0  0  0
    0.0563   -2.4139   -2.1379 H   0  0  0  0  0  0  0  0  0  0  0  0
    0.0647   -2.4919    0.5777 H   0  0  0  0  0  0  0  0  0  0  0  0
  1  9  1  0  0  0  0
  1 11  1  0  0  0  0
  2  1  1  0  0  0  0
  2  6  1  0  0  0  0
  3  4  2  0  0  0  0
  3  2  1  0  0  0  0
  4  5  1  0  0  0  0
  5  6  2  0  0  0  0
  5 14  1  0  0  0  0
  6  7  1  0  0  0  0
  7  8  3  0  0  0  0
 10  1  1  0  0  0  0
 12  3  1  0  0  0  0
 13  4  1  0  0  0  0
M  END
