14
title
C -0.0074063106 1.9797454 -0.6653787
N -0.029990206 0.5283281 -0.70532435
C -0.0035882504 -0.24106583 -1.829193
C 0.04011348 -1.5730543 -1.4626939
C 0.04491605 -1.6181457 -0.05408912
C 0.003998981 -0.30650786 0.3984776
C -0.013954312 0.20153847 1.7139952
N -0.030580774 0.63611114 2.7895937
H 1.0107865 2.3580768 -0.52795213
H -0.408258 2.367677 -1.6032394
H -0.62668353 2.3375685 0.15942973
H -0.018726371 0.22016028 -2.8043284
H 0.056325305 -2.4139264 -2.1378512
H 0.06468821 -2.4918673 0.5777437
