title
 OpenBabel02282109573D

 14 14  0  0  0  0  0  0  0  0999 V2000
   -0.0121    2.0076   -0.6685 C   0  0  0  0  0  0  0  0  0  0  0  0
    0.0008    0.5571   -0.7016 N   0  0  0  0  0  0  0  0  0  0  0  0
    0.0222   -0.2302   -1.8231 C   0  0  0  0  0  0  0  0  0  0  0  0
    0.0324   -1.5287   -1.3736 C   0  0  0  0  0  0  0  0  0  0  0  0
    0.0179   -1.5671   -0.0095 N   0  0  0  0  0  0  0  0  0  0  0  0
   -0.0013   -0.2993    0.3778 C   0  0  0  0  0  0  0  0  0  0  0  0
   -0.0217    0.1643    1.7133 C   0  0  0  0  0  0  0  0  0  0  0  0
   -0.0391    0.5752    2.8453 C   0  0  0  0  0  0  0  0  0  0  0  0
    0.8920    2.4130   -1.1325 H   0  0  0  0  0  0  0  0  0  0  0  0
   -0.8879    2.3966   -1.1961 H   0  0  0  0  0  0  0  0  0  0  0  0
   -0.0520    2.3311    0.3719 H   0  0  0  0  0  0  0  0  0  0  0  0
    0.0280    0.1987   -2.8120 H   0  0  0  0  0  0  0  0  0  0  0  0
    0.0490   -2.4335   -1.9621 H   0  0  0  0  0  0  0  0  0  0  0  0
   -0.0539    0.9193    3.8497 H   0  0  0  0  0  0  0  0  0  0  0  0
  1 11  1  0  0  0  0
  2  1  1  0  0  0  0
  2  6  1  0  0  0  0
  3  4  2  0  0  0  0
  3  2  1  0  0  0  0
  4  5  1  0  0  0  0
  5  6  2  0  0  0  0
  6  7  1  0  0  0  0
  7  8  3  0  0  0  0
  8 14  1  0  0  0  0
  9  1  1  0  0  0  0
 10  1  1  0  0  0  0
 12  3  1  0  0  0  0
 13  4  1  0  0  0  0
M  END
