13
title
C 0.02737516 2.0046918 -0.6807371
N 0.03398198 0.55078155 -0.71214944
C 0.09254876 -0.24140137 -1.8249637
C 0.07418542 -1.5417116 -1.3719062
N 0.005916433 -1.5747757 -0.011477453
C -0.017189225 -0.3057034 0.36180255
C -0.08587778 0.16925004 1.6970266
N -0.14125293 0.60107017 2.7703686
H 0.94087243 2.3995607 -1.1331493
H -0.839365 2.3933623 -1.2218213
H -0.025481941 2.3355577 0.3569381
H 0.14087598 0.1824173 -2.814873
H 0.10667332 -2.448344 -1.9563099
