14
title
C -0.05572417 2.0052233 -0.62876844
N -0.037161563 0.55637836 -0.671226
C -0.074186794 -0.23480956 -1.7749594
N -0.043248355 -1.5189883 -1.4806565
C 0.016940035 -1.5700308 -0.11828508
C 0.022705536 -0.2974047 0.42403397
C 0.07410481 0.16600464 1.7504874
C 0.11792991 0.5721579 2.8848057
H 0.8483967 2.3892088 -0.14852394
H -0.10545559 2.3854523 -1.6504201
H -0.925219 2.3642614 -0.0714614
H -0.123513624 0.18516628 -2.76928
H 0.053621083 -2.5046623 0.41993186
H 0.1568829 0.9172189 3.8881428
