title
 OpenBabel02282109573D

 14 14  0  0  0  0  0  0  0  0999 V2000
   -0.0557    2.0052   -0.6288 C   0  0  0  0  0  0  0  0  0  0  0  0
   -0.0372    0.5564   -0.6712 N   0  0  0  0  0  0  0  0  0  0  0  0
   -0.0742   -0.2348   -1.7750 C   0  0  0  0  0  0  0  0  0  0  0  0
   -0.0432   -1.5190   -1.4807 N   0  0  0  0  0  0  0  0  0  0  0  0
    0.0169   -1.5700   -0.1183 C   0  0  0  0  0  0  0  0  0  0  0  0
    0.0227   -0.2974    0.4240 C   0  0  0  0  0  0  0  0  0  0  0  0
    0.0741    0.1660    1.7505 C   0  0  0  0  0  0  0  0  0  0  0  0
    0.1179    0.5722    2.8848 C   0  0  0  0  0  0  0  0  0  0  0  0
    0.8484    2.3892   -0.1485 H   0  0  0  0  0  0  0  0  0  0  0  0
   -0.1055    2.3855   -1.6504 H   0  0  0  0  0  0  0  0  0  0  0  0
   -0.9252    2.3643   -0.0715 H   0  0  0  0  0  0  0  0  0  0  0  0
   -0.1235    0.1852   -2.7693 H   0  0  0  0  0  0  0  0  0  0  0  0
    0.0536   -2.5047    0.4199 H   0  0  0  0  0  0  0  0  0  0  0  0
    0.1569    0.9172    3.8881 H   0  0  0  0  0  0  0  0  0  0  0  0
  1  9  1  0  0  0  0
  1 11  1  0  0  0  0
  2  1  1  0  0  0  0
  2  6  1  0  0  0  0
  3  4  2  0  0  0  0
  3  2  1  0  0  0  0
  4  5  1  0  0  0  0
  5 13  1  0  0  0  0
  5  6  2  0  0  0  0
  6  7  1  0  0  0  0
  7  8  3  0  0  0  0
  8 14  1  0  0  0  0
 10  1  1  0  0  0  0
 12  3  1  0  0  0  0
M  END
