15
title
C -0.047933903 2.1399984 -0.7450934
N -0.028399326 0.6877497 -0.7635658
C -0.046576537 -0.07115864 -1.892072
C -0.019883478 -1.411434 -1.5385166
C 0.016158035 -1.4634877 -0.13593993
C 0.010832718 -0.15525334 0.339327
C 0.039004188 0.31156713 1.710169
O 0.07330115 -0.41643143 2.6826735
H 0.8469795 2.5417285 -0.2611796
H -0.076035805 2.5000596 -1.7746491
H -0.93072456 2.5175352 -0.22101554
H -0.077263065 0.397428 -2.8640463
H -0.026077125 -2.2431338 -2.2256055
H 0.043771654 -2.3365903 0.4969583
H 0.027250541 1.4181527 1.8352202
