title
 OpenBabel02282109573D

 14 14  0  0  0  0  0  0  0  0999 V2000
   -0.0509    2.1561   -0.7474 C   0  0  0  0  0  0  0  0  0  0  0  0
   -0.0316    0.7002   -0.7664 N   0  0  0  0  0  0  0  0  0  0  0  0
   -0.0525   -0.0731   -1.8898 C   0  0  0  0  0  0  0  0  0  0  0  0
   -0.0215   -1.3832   -1.4538 C   0  0  0  0  0  0  0  0  0  0  0  0
    0.0172   -1.4314   -0.0996 N   0  0  0  0  0  0  0  0  0  0  0  0
    0.0108   -0.1678    0.3076 C   0  0  0  0  0  0  0  0  0  0  0  0
    0.0438    0.2943    1.6960 C   0  0  0  0  0  0  0  0  0  0  0  0
    0.0811   -0.4268    2.6645 O   0  0  0  0  0  0  0  0  0  0  0  0
    0.8507    2.5542   -0.2748 H   0  0  0  0  0  0  0  0  0  0  0  0
   -0.0921    2.5169   -1.7759 H   0  0  0  0  0  0  0  0  0  0  0  0
   -0.9279    2.5293   -0.2125 H   0  0  0  0  0  0  0  0  0  0  0  0
   -0.0866    0.3648   -2.8746 H   0  0  0  0  0  0  0  0  0  0  0  0
   -0.0258   -2.2792   -2.0562 H   0  0  0  0  0  0  0  0  0  0  0  0
    0.0318    1.4020    1.8087 H   0  0  0  0  0  0  0  0  0  0  0  0
  1  9  1  0  0  0  0
  1 11  1  0  0  0  0
  2  1  1  0  0  0  0
  2  6  1  0  0  0  0
  3  4  2  0  0  0  0
  3  2  1  0  0  0  0
  4  5  1  0  0  0  0
  5  6  2  0  0  0  0
  6  7  1  0  0  0  0
  7 14  1  0  0  0  0
  7  8  2  0  0  0  0
 10  1  1  0  0  0  0
 12  3  1  0  0  0  0
 13  4  1  0  0  0  0
M  END
