14
title
C -0.04541986 2.166031 -0.72749716
N -0.028249348 0.71358484 -0.7388384
C -0.048467077 -0.07236227 -1.8411498
N -0.025288908 -1.3638182 -1.5542074
C 0.011818935 -1.4181557 -0.19659238
C 0.011342279 -0.14641067 0.35474348
C 0.043345403 0.27998582 1.741201
O 0.07745335 -0.4796956 2.6864429
H 0.85255766 2.564482 -0.24742948
H -0.076507576 2.5206125 -1.7591097
H -0.9265176 2.5431304 -0.20112114
H -0.08020193 0.34962744 -2.835884
H 0.037532475 -2.3519075 0.34405398
H 0.034009248 1.3824991 1.8990897
