title
 OpenBabel02282109573D

 16 16  0  0  0  0  0  0  0  0999 V2000
   -0.7947    2.3428   -1.0909 C   0  0  0  0  0  0  0  0  0  0  0  0
   -0.7384    0.8926   -1.1365 N   0  0  0  0  0  0  0  0  0  0  0  0
   -0.1393    0.2928   -0.1982 C   0  0  0  0  0  0  0  0  0  0  0  0
    0.4887    0.8699    0.8904 O   0  0  0  0  0  0  0  0  0  0  0  0
    1.0191   -0.1475    1.6649 C   0  0  0  0  0  0  0  0  0  0  0  0
    0.7425   -1.3278    1.1016 C   0  0  0  0  0  0  0  0  0  0  0  0
    0.0164   -1.0762   -0.0589 N   0  0  0  0  0  0  0  0  0  0  0  0
   -0.4868   -2.0390   -1.0110 C   0  0  0  0  0  0  0  0  0  0  0  0
    0.2038    2.8039   -1.0917 H   0  0  0  0  0  0  0  0  0  0  0  0
   -1.3318    2.7057   -1.9712 H   0  0  0  0  0  0  0  0  0  0  0  0
   -1.3193    2.7162   -0.1993 H   0  0  0  0  0  0  0  0  0  0  0  0
    1.5443    0.1429    2.5567 H   0  0  0  0  0  0  0  0  0  0  0  0
    0.9890   -2.3281    1.4147 H   0  0  0  0  0  0  0  0  0  0  0  0
   -1.1315   -2.7761   -0.5203 H   0  0  0  0  0  0  0  0  0  0  0  0
   -1.0683   -1.4850   -1.7489 H   0  0  0  0  0  0  0  0  0  0  0  0
    0.3294   -2.5646   -1.5202 H   0  0  0  0  0  0  0  0  0  0  0  0
  1 11  1  0  0  0  0
  2  1  1  0  0  0  0
  2  3  2  0  0  0  0
  3  7  1  0  0  0  0
  3  4  1  0  0  0  0
  4  5  1  0  0  0  0
  5 12  1  0  0  0  0
  6 13  1  0  0  0  0
  6  5  2  0  0  0  0
  7  6  1  0  0  0  0
  8 14  1  0  0  0  0
  8  7  1  0  0  0  0
  9  1  1  0  0  0  0
 10  1  1  0  0  0  0
 15  8  1  0  0  0  0
 16  8  1  0  0  0  0
M  END
