16
title
C -0.79468036 2.3427517 -1.0909121
N -0.73838633 0.8925618 -1.1364664
C -0.13931994 0.29280826 -0.19820362
O 0.48870808 0.8699328 0.8904207
C 1.0190636 -0.14747687 1.6649215
C 0.74250454 -1.3278339 1.1016209
N 0.016355228 -1.0761619 -0.058907863
C -0.4867706 -2.0390217 -1.0109702
H 0.20377423 2.8038568 -1.0917059
H -1.3317845 2.7056687 -1.9712458
H -1.319309 2.716204 -0.19930923
H 1.5443093 0.14285515 2.5566802
H 0.9890252 -2.328057 1.414748
H -1.1315067 -2.7760568 -0.5202787
H -1.0683119 -1.4849823 -1.748879
H 0.329413 -2.5646412 -1.5202068
