16
title
C -0.10691479 2.2604017 0.9447496
C 0.018625923 0.77623606 0.81688535
C 0.09768093 0.010904357 -0.32288885
C 0.12461793 0.3226028 -1.7785958
O -0.55836016 -0.72769505 -2.4644084
N 0.22982548 -1.2899706 0.11840611
C 0.2011466 -1.2594833 1.4775484
N 0.08843966 -0.033777907 1.9337173
H 0.8341813 2.7193556 1.270377
H -0.39051908 2.7237525 -0.0050500096
H -0.8644016 2.5153146 1.6920351
H -0.34961718 1.2997212 -1.9509236
H 1.1620108 0.39780927 -2.1463172
H -0.4122884 -0.6107773 -3.408063
H 0.20850407 -2.0944817 -0.4862337
H 0.25825953 -2.1560707 2.0769126
