16
title
C 0.015502061 2.0578485 0.7910566
C -0.07420242 0.56155133 0.77898705
C -0.18685979 -0.24801242 -0.31595773
C -0.23380293 0.014578111 -1.7872543
O 0.79652524 0.89028364 -2.23522
O -0.2502585 -1.5603629 0.06967056
C -0.18643685 -1.581097 1.4247292
C -0.074545294 -0.32007653 1.9139514
H 0.83151764 2.4003887 1.4369113
H 0.19712494 2.441361 -0.21494108
H -0.9061766 2.5130033 1.172932
H -0.20824386 -0.95362747 -2.308343
H -1.1673802 0.5120983 -2.0733578
H 1.6315696 0.54066664 -1.905966
H -0.22889991 -2.556339 1.881417
H 0.001842569 -0.03866046 2.953429
