title
 OpenBabel02282109573D

 16 16  0  0  0  0  0  0  0  0999 V2000
    0.0155    2.0578    0.7911 C   0  0  0  0  0  0  0  0  0  0  0  0
   -0.0742    0.5616    0.7790 C   0  0  0  0  0  0  0  0  0  0  0  0
   -0.1869   -0.2480   -0.3160 C   0  0  0  0  0  0  0  0  0  0  0  0
   -0.2338    0.0146   -1.7873 C   0  0  0  0  0  0  0  0  0  0  0  0
    0.7965    0.8903   -2.2352 O   0  0  0  0  0  0  0  0  0  0  0  0
   -0.2503   -1.5604    0.0697 O   0  0  0  0  0  0  0  0  0  0  0  0
   -0.1864   -1.5811    1.4247 C   0  0  0  0  0  0  0  0  0  0  0  0
   -0.0745   -0.3201    1.9140 C   0  0  0  0  0  0  0  0  0  0  0  0
    0.8315    2.4004    1.4369 H   0  0  0  0  0  0  0  0  0  0  0  0
    0.1971    2.4414   -0.2149 H   0  0  0  0  0  0  0  0  0  0  0  0
   -0.9062    2.5130    1.1729 H   0  0  0  0  0  0  0  0  0  0  0  0
   -0.2082   -0.9536   -2.3083 H   0  0  0  0  0  0  0  0  0  0  0  0
   -1.1674    0.5121   -2.0734 H   0  0  0  0  0  0  0  0  0  0  0  0
    1.6316    0.5407   -1.9060 H   0  0  0  0  0  0  0  0  0  0  0  0
   -0.2289   -2.5563    1.8814 H   0  0  0  0  0  0  0  0  0  0  0  0
    0.0018   -0.0387    2.9534 H   0  0  0  0  0  0  0  0  0  0  0  0
  1 11  1  0  0  0  0
  1  9  1  0  0  0  0
  2  1  1  0  0  0  0
  2  8  1  0  0  0  0
  3  6  1  0  0  0  0
  3  2  2  0  0  0  0
  4  3  1  0  0  0  0
  5 14  1  0  0  0  0
  5  4  1  0  0  0  0
  6  7  1  0  0  0  0
  7 15  1  0  0  0  0
  7  8  2  0  0  0  0
  8 16  1  0  0  0  0
 10  1  1  0  0  0  0
 12  4  1  0  0  0  0
 13  4  1  0  0  0  0
M  END
