19
title
C -0.4009927 2.0080507 -1.827103
C -0.643889 0.49865168 -1.6380619
C 0.0018492164 -0.07344582 -0.41450197
C -0.50860566 -0.40495956 0.82754785
C -1.9328246 -0.28261536 1.283199
C 0.58282506 -0.8811429 1.6169752
C 1.7170161 -0.82609075 0.8461643
N 1.3562723 -0.33276176 -0.3816678
H 0.6684582 2.2314055 -1.9023136
H -0.88561 2.3735743 -2.7384877
H -0.7953993 2.5734425 -0.9775976
H -1.7210578 0.3109394 -1.58668
H -0.29016152 -0.037111517 -2.5301151
H -2.2832115 -1.207844 1.7548946
H -2.060391 0.51856357 2.021994
H -2.6090643 -0.06434848 0.45128757
H 0.52748585 -1.2282784 2.6382418
H 2.7378392 -1.1000417 1.0592569
H 1.9801434 -0.20443195 -1.1589803
