18
title
C 1.73685 2.0033176 0.6964806
C 1.7148426 0.52855396 0.25673997
C 0.34046182 -0.03894931 0.15068106
C -0.423713 -0.49370074 -0.8853485
C -0.06054141 -0.5687545 -2.3368633
C -1.6770208 -0.89688534 -0.3011394
C -1.5774221 -0.65652126 1.0283922
O -0.3586047 -0.1346749 1.3251663
H 2.7650788 2.3676822 0.7837972
H 1.2093331 2.6342456 -0.025432741
H 1.248337 2.1234245 1.6673111
H 2.2081234 0.4213193 -0.71427053
H 2.300059 -0.067904234 0.9689432
H -0.12964608 -1.5954473 -2.7147484
H -0.73170805 0.043351293 -2.9506922
H 0.95945674 -0.21940368 -2.5175133
H -2.5292258 -1.3112949 -0.81827277
H -2.245004 -0.7935011 1.8631948
