17
title
C -1.5354198 1.9749509 1.196758
C -1.107302 0.508295 1.3804039
C -0.3192668 -0.028115725 0.23786615
C 0.9505438 -0.48143598 0.061474543
C 2.0679266 -0.61175895 1.0416398
N 1.1167098 -0.8530897 -1.2760473
C -0.026915863 -0.6100734 -1.8201829
O -0.95846015 -0.10877577 -0.98096716
H -0.6627965 2.627649 1.0987835
H -2.1450772 2.0905375 0.29643533
H -2.1243737 2.31531 2.0535843
H -0.50182366 0.40510494 2.2863598
H -1.9996849 -0.112975724 1.5319704
H 2.4084675 -1.6504782 1.1087162
H 2.9295673 -0.009904123 0.7334652
H 1.764892 -0.28658327 2.040127
H -0.32638288 -0.7567191 -2.8463657
