18
title
C 1.8242251 1.9749523 0.47620192
C 1.7575306 0.44451195 0.30679503
C 0.37000495 -0.10801689 0.24422759
C -0.4707045 -0.33649814 -0.83006585
N -0.20052294 -0.057845134 -2.18881
C -1.7078379 -0.8272764 -0.31959468
C -1.5937499 -0.8820098 1.0506514
N -0.3452074 -0.43931586 1.384342
H 2.8615897 2.32492 0.5129769
H 1.3197439 2.4772923 -0.3542847
H 1.3276906 2.2874463 1.4004927
H 2.2955112 0.16271628 -0.6080016
H 2.3102953 -0.0353383 1.1263245
H 0.7937821 -0.025321353 -2.381228
H -0.6160802 -0.74980026 -2.8011658
H -2.5775151 -1.0992739 -0.89871776
H -2.293756 -1.2041394 1.8045578
H 0.023632951 -0.39558876 2.317486
