17
title
C -1.5101976 1.966476 1.234888
C -1.0691788 0.4995596 1.3835145
C -0.29948086 -0.017257491 0.21828957
C 0.9626363 -0.519526 0.062630855
N 1.9340392 -0.76418567 1.0499535
C 1.0987779 -0.85419846 -1.3289932
C -0.08354561 -0.5306643 -1.9104666
O -0.9464555 -0.02872325 -0.99768656
H -0.6442908 2.628201 1.1341622
H -2.1311543 2.0913625 0.3436769
H -2.091423 2.2898195 2.1041503
H -0.44997394 0.3862613 2.281226
H -1.9564909 -0.12594722 1.5540456
H 1.7732159 -0.23130475 1.895313
H 2.8710656 -0.56995076 0.71923614
H 1.9627589 -1.2845047 -1.811894
H -0.4507389 -0.5958119 -2.9216294
