title
 OpenBabel02282109573D

 17 17  0  0  0  0  0  0  0  0999 V2000
   -1.5102    1.9665    1.2349 C   0  0  0  0  0  0  0  0  0  0  0  0
   -1.0692    0.4996    1.3835 C   0  0  0  0  0  0  0  0  0  0  0  0
   -0.2995   -0.0173    0.2183 C   0  0  0  0  0  0  0  0  0  0  0  0
    0.9626   -0.5195    0.0626 C   0  0  0  0  0  0  0  0  0  0  0  0
    1.9340   -0.7642    1.0500 N   0  0  0  0  0  0  0  0  0  0  0  0
    1.0988   -0.8542   -1.3290 C   0  0  0  0  0  0  0  0  0  0  0  0
   -0.0835   -0.5307   -1.9105 C   0  0  0  0  0  0  0  0  0  0  0  0
   -0.9465   -0.0287   -0.9977 O   0  0  0  0  0  0  0  0  0  0  0  0
   -0.6443    2.6282    1.1342 H   0  0  0  0  0  0  0  0  0  0  0  0
   -2.1312    2.0914    0.3437 H   0  0  0  0  0  0  0  0  0  0  0  0
   -2.0914    2.2898    2.1042 H   0  0  0  0  0  0  0  0  0  0  0  0
   -0.4500    0.3863    2.2812 H   0  0  0  0  0  0  0  0  0  0  0  0
   -1.9565   -0.1259    1.5540 H   0  0  0  0  0  0  0  0  0  0  0  0
    1.7732   -0.2313    1.8953 H   0  0  0  0  0  0  0  0  0  0  0  0
    2.8711   -0.5700    0.7192 H   0  0  0  0  0  0  0  0  0  0  0  0
    1.9628   -1.2845   -1.8119 H   0  0  0  0  0  0  0  0  0  0  0  0
   -0.4507   -0.5958   -2.9216 H   0  0  0  0  0  0  0  0  0  0  0  0
  1  2  1  0  0  0  0
  1 11  1  0  0  0  0
  2 13  1  0  0  0  0
  2 12  1  0  0  0  0
  3  2  1  0  0  0  0
  4  3  2  0  0  0  0
  4  5  1  0  0  0  0
  5 14  1  0  0  0  0
  6  4  1  0  0  0  0
  7  6  2  0  0  0  0
  7  8  1  0  0  0  0
  8  3  1  0  0  0  0
  9  1  1  0  0  0  0
 10  1  1  0  0  0  0
 15  5  1  0  0  0  0
 16  6  1  0  0  0  0
 17  7  1  0  0  0  0
M  END
