title
 OpenBabel02282109573D

 16 16  0  0  0  0  0  0  0  0999 V2000
   -1.4978    1.9933    1.2668 C   0  0  0  0  0  0  0  0  0  0  0  0
   -1.1333    0.5016    1.3764 C   0  0  0  0  0  0  0  0  0  0  0  0
   -0.3405   -0.0158    0.2309 C   0  0  0  0  0  0  0  0  0  0  0  0
    0.9262   -0.4887    0.0596 C   0  0  0  0  0  0  0  0  0  0  0  0
    1.9441   -0.7010    0.9900 N   0  0  0  0  0  0  0  0  0  0  0  0
    1.1158   -0.8474   -1.2689 N   0  0  0  0  0  0  0  0  0  0  0  0
   -0.0178   -0.5788   -1.8326 C   0  0  0  0  0  0  0  0  0  0  0  0
   -0.9516   -0.0717   -1.0133 O   0  0  0  0  0  0  0  0  0  0  0  0
   -0.5988    2.6155    1.2189 H   0  0  0  0  0  0  0  0  0  0  0  0
   -2.0830    2.1816    0.3622 H   0  0  0  0  0  0  0  0  0  0  0  0
   -2.0916    2.3132    2.1287 H   0  0  0  0  0  0  0  0  0  0  0  0
   -0.5542    0.3222    2.2895 H   0  0  0  0  0  0  0  0  0  0  0  0
   -2.0543   -0.0869    1.4837 H   0  0  0  0  0  0  0  0  0  0  0  0
    2.0084    0.0182    1.6973 H   0  0  0  0  0  0  0  0  0  0  0  0
    2.8349   -0.8171    0.5248 H   0  0  0  0  0  0  0  0  0  0  0  0
   -0.2918   -0.7128   -2.8674 H   0  0  0  0  0  0  0  0  0  0  0  0
  1  2  1  0  0  0  0
  1 11  1  0  0  0  0
  2 13  1  0  0  0  0
  2 12  1  0  0  0  0
  3  2  1  0  0  0  0
  4  3  2  0  0  0  0
  4  5  1  0  0  0  0
  5 14  1  0  0  0  0
  6  4  1  0  0  0  0
  7  6  2  0  0  0  0
  7  8  1  0  0  0  0
  8  3  1  0  0  0  0
  9  1  1  0  0  0  0
 10  1  1  0  0  0  0
 15  5  1  0  0  0  0
 16  7  1  0  0  0  0
M  END
