16
title
C -1.4978392 1.9932684 1.2668172
C -1.1332752 0.50163287 1.3764321
C -0.34050283 -0.01578296 0.23090921
C 0.9262179 -0.48874143 0.059649695
N 1.9440721 -0.70095456 0.9899509
N 1.1157523 -0.847371 -1.2688829
C -0.017840121 -0.5788431 -1.8325893
O -0.95157295 -0.07169176 -1.013322
H -0.5987919 2.61551 1.2189181
H -2.0829575 2.1815834 0.36218196
H -2.0916412 2.3131595 2.1286528
H -0.5542405 0.3221582 2.2895033
H -2.0543294 -0.08693118 1.4836954
H 2.0083573 0.018238328 1.6973443
H 2.834864 -0.81709814 0.5247922
H -0.29179212 -0.7128321 -2.867394
