title
 OpenBabel02282109573D

 16 16  0  0  0  0  0  0  0  0999 V2000
    1.7490    2.0486    0.6258 C   0  0  0  0  0  0  0  0  0  0  0  0
    1.7142    0.5494    0.2795 C   0  0  0  0  0  0  0  0  0  0  0  0
    0.3414   -0.0148    0.1916 C   0  0  0  0  0  0  0  0  0  0  0  0
   -0.3905   -0.5369   -0.8342 C   0  0  0  0  0  0  0  0  0  0  0  0
    0.0588   -0.6543   -2.1173 O   0  0  0  0  0  0  0  0  0  0  0  0
   -1.6693   -0.9105   -0.3033 C   0  0  0  0  0  0  0  0  0  0  0  0
   -1.6219   -0.5847    1.0150 C   0  0  0  0  0  0  0  0  0  0  0  0
   -0.4235   -0.0439    1.3334 O   0  0  0  0  0  0  0  0  0  0  0  0
    2.7806    2.4078    0.6928 H   0  0  0  0  0  0  0  0  0  0  0  0
    1.2292    2.6372   -0.1362 H   0  0  0  0  0  0  0  0  0  0  0  0
    1.2606    2.2359    1.5864 H   0  0  0  0  0  0  0  0  0  0  0  0
    2.1979    0.3750   -0.6870 H   0  0  0  0  0  0  0  0  0  0  0  0
    2.2969   -0.0067    1.0264 H   0  0  0  0  0  0  0  0  0  0  0  0
   -0.6116   -1.1031   -2.6394 H   0  0  0  0  0  0  0  0  0  0  0  0
   -2.4981   -1.3567   -0.8322 H   0  0  0  0  0  0  0  0  0  0  0  0
   -2.3305   -0.6735    1.8219 H   0  0  0  0  0  0  0  0  0  0  0  0
  1  9  1  0  0  0  0
  1 11  1  0  0  0  0
  2  1  1  0  0  0  0
  2 13  1  0  0  0  0
  3  2  1  0  0  0  0
  3  8  1  0  0  0  0
  4  6  1  0  0  0  0
  4  3  2  0  0  0  0
  5  4  1  0  0  0  0
  6  7  2  0  0  0  0
  7  8  1  0  0  0  0
  7 16  1  0  0  0  0
 10  1  1  0  0  0  0
 12  2  1  0  0  0  0
 14  5  1  0  0  0  0
 15  6  1  0  0  0  0
M  END
