title
 OpenBabel02282109573D

 18 18  0  0  0  0  0  0  0  0999 V2000
   -0.4587    1.9898   -1.6672 C   0  0  0  0  0  0  0  0  0  0  0  0
   -1.1320    1.1572   -0.6622 N   0  0  0  0  0  0  0  0  0  0  0  0
   -0.2975    0.2926    0.0742 C   0  0  0  0  0  0  0  0  0  0  0  0
    0.1149   -1.0130   -0.1196 C   0  0  0  0  0  0  0  0  0  0  0  0
   -0.2462   -1.8983   -1.2741 C   0  0  0  0  0  0  0  0  0  0  0  0
    0.9429   -1.3497    0.9951 C   0  0  0  0  0  0  0  0  0  0  0  0
    1.0203   -0.2504    1.8155 C   0  0  0  0  0  0  0  0  0  0  0  0
    0.2625    0.7425    1.2495 N   0  0  0  0  0  0  0  0  0  0  0  0
    0.0740    1.4137   -2.4392 H   0  0  0  0  0  0  0  0  0  0  0  0
   -1.1984    2.6321   -2.1553 H   0  0  0  0  0  0  0  0  0  0  0  0
    0.2712    2.6358   -1.1707 H   0  0  0  0  0  0  0  0  0  0  0  0
   -1.8895    0.6383   -1.0881 H   0  0  0  0  0  0  0  0  0  0  0  0
    0.6432   -2.2768   -1.7915 H   0  0  0  0  0  0  0  0  0  0  0  0
   -0.8268   -2.7737   -0.9576 H   0  0  0  0  0  0  0  0  0  0  0  0
   -0.8472   -1.3600   -2.0147 H   0  0  0  0  0  0  0  0  0  0  0  0
    1.4339   -2.2972    1.1621 H   0  0  0  0  0  0  0  0  0  0  0  0
    1.5465   -0.0915    2.7428 H   0  0  0  0  0  0  0  0  0  0  0  0
    0.0582    1.6413    1.6501 H   0  0  0  0  0  0  0  0  0  0  0  0
  1 11  1  0  0  0  0
  1  2  1  0  0  0  0
  2  3  1  0  0  0  0
  3  8  1  0  0  0  0
  4  3  2  0  0  0  0
  4  6  1  0  0  0  0
  5 14  1  0  0  0  0
  5  4  1  0  0  0  0
  6 16  1  0  0  0  0
  6  7  2  0  0  0  0
  7 17  1  0  0  0  0
  8 18  1  0  0  0  0
  8  7  1  0  0  0  0
  9  1  1  0  0  0  0
 10  1  1  0  0  0  0
 12  2  1  0  0  0  0
 13  5  1  0  0  0  0
 15  5  1  0  0  0  0
M  END
