18
title
C -0.458739 1.9898403 -1.6672277
N -1.1319869 1.1572461 -0.6621986
C -0.29747656 0.29261312 0.07417521
C 0.11490358 -1.0130441 -0.11956826
C -0.2462284 -1.8983041 -1.2741431
C 0.9429039 -1.3496777 0.9951101
C 1.0203059 -0.25040218 1.8154722
N 0.26247305 0.74245 1.2495323
H 0.07404489 1.413664 -2.4391925
H -1.1983511 2.6320665 -2.1552854
H 0.27124536 2.6357832 -1.1707413
H -1.8895093 0.63828075 -1.0880518
H 0.6432048 -2.2767599 -1.7915059
H -0.82676363 -2.773704 -0.95764095
H -0.84721106 -1.3600425 -2.0147111
H 1.433922 -2.297181 1.1621131
H 1.5465117 -0.09154854 2.7427766
H 0.058198575 1.6413193 1.6500691
