15
title
C -0.40264586 2.3860073 1.289473
N -0.91885054 1.0538937 0.98122984
C -0.21028343 0.2571993 0.11171308
C 0.05145291 -1.080255 0.08210197
N -0.31552178 -2.0061145 1.0842607
N 0.7323461 -1.3714833 -1.1022564
C 0.8543075 -0.23645473 -1.6960994
O 0.29520097 0.81702465 -1.0219475
H 0.58421606 2.3734732 1.7762618
H -0.32204074 2.9644413 0.36680862
H -1.112905 2.892432 1.9468055
H -1.1633767 0.51080483 1.8002331
H -1.0111263 -2.6631851 0.74044365
H 0.48581806 -2.562311 1.3688672
H 1.3407713 0.0002125508 -2.6282008
