15
title
C 1.3109239 2.3425837 -0.3344322
N 1.2551137 1.0799155 0.40613225
C 0.16778213 0.25337276 0.17779365
C 0.06933659 -1.0789322 -0.105792366
O 1.1470262 -1.8901554 -0.37328395
C -1.3319106 -1.389948 -0.1388033
C -1.976321 -0.2236903 0.113719486
O -1.0742133 0.78863436 0.30941913
H 2.1924775 2.901264 -0.0108584985
H 1.3537878 2.2106507 -1.4264019
H 0.4264387 2.9366934 -0.09556957
H 2.104621 0.53828186 0.30736756
H 1.0961888 -2.6703286 0.18847606
H -1.7836237 -2.3487391 -0.34172097
H -3.0125895 0.060440153 0.17475706
