title
 OpenBabel02282109573D

 16 16  0  0  0  0  0  0  0  0999 V2000
   -0.4565    2.1547    1.3833 C   0  0  0  0  0  0  0  0  0  0  0  0
   -0.9934    0.9062    0.9375 O   0  0  0  0  0  0  0  0  0  0  0  0
   -0.2284    0.2122    0.0839 C   0  0  0  0  0  0  0  0  0  0  0  0
    0.0898   -1.1107    0.0589 C   0  0  0  0  0  0  0  0  0  0  0  0
   -0.2868   -2.1428    1.0742 C   0  0  0  0  0  0  0  0  0  0  0  0
    0.8543   -1.2782   -1.1522 C   0  0  0  0  0  0  0  0  0  0  0  0
    0.9418   -0.0613   -1.7403 C   0  0  0  0  0  0  0  0  0  0  0  0
    0.2731    0.8732   -0.9957 O   0  0  0  0  0  0  0  0  0  0  0  0
    0.5107    2.0073    1.8784 H   0  0  0  0  0  0  0  0  0  0  0  0
   -0.3347    2.8519    0.5491 H   0  0  0  0  0  0  0  0  0  0  0  0
   -1.1775    2.5574    2.0960 H   0  0  0  0  0  0  0  0  0  0  0  0
   -0.9427   -2.9119    0.6494 H   0  0  0  0  0  0  0  0  0  0  0  0
    0.5947   -2.6569    1.4742 H   0  0  0  0  0  0  0  0  0  0  0  0
   -0.8164   -1.6791    1.9102 H   0  0  0  0  0  0  0  0  0  0  0  0
    1.2857   -2.1974   -1.5191 H   0  0  0  0  0  0  0  0  0  0  0  0
    1.4195    0.3096   -2.6311 H   0  0  0  0  0  0  0  0  0  0  0  0
  1  9  1  0  0  0  0
  1 11  1  0  0  0  0
  2  1  1  0  0  0  0
  3  2  1  0  0  0  0
  4  3  2  0  0  0  0
  4  5  1  0  0  0  0
  5 13  1  0  0  0  0
  5 14  1  0  0  0  0
  6  4  1  0  0  0  0
  7  6  2  0  0  0  0
  7  8  1  0  0  0  0
  8  3  1  0  0  0  0
 10  1  1  0  0  0  0
 12  5  1  0  0  0  0
 15  6  1  0  0  0  0
 16  7  1  0  0  0  0
M  END
