title
 OpenBabel02282109573D

 16 16  0  0  0  0  0  0  0  0999 V2000
   -0.6495    1.8283    1.6907 C   0  0  0  0  0  0  0  0  0  0  0  0
   -1.2006    1.0638    0.6154 O   0  0  0  0  0  0  0  0  0  0  0  0
   -0.3040    0.3171   -0.0717 C   0  0  0  0  0  0  0  0  0  0  0  0
    0.1481   -0.9677    0.0872 C   0  0  0  0  0  0  0  0  0  0  0  0
   -0.2155   -1.9482    1.1528 C   0  0  0  0  0  0  0  0  0  0  0  0
    1.0301   -1.2706   -0.9337 N   0  0  0  0  0  0  0  0  0  0  0  0
    1.1032   -0.1986   -1.6854 C   0  0  0  0  0  0  0  0  0  0  0  0
    0.3178    0.8087   -1.2072 N   0  0  0  0  0  0  0  0  0  0  0  0
   -0.1535    1.1788    2.4208 H   0  0  0  0  0  0  0  0  0  0  0  0
    0.0731    2.5685    1.3241 H   0  0  0  0  0  0  0  0  0  0  0  0
   -1.4860    2.3442    2.1663 H   0  0  0  0  0  0  0  0  0  0  0  0
   -1.0119   -1.5488    1.7869 H   0  0  0  0  0  0  0  0  0  0  0  0
   -0.5662   -2.8879    0.7134 H   0  0  0  0  0  0  0  0  0  0  0  0
    0.6433   -2.1911    1.7889 H   0  0  0  0  0  0  0  0  0  0  0  0
    1.6975   -0.0909   -2.5807 H   0  0  0  0  0  0  0  0  0  0  0  0
    0.1479    1.7093   -1.6226 H   0  0  0  0  0  0  0  0  0  0  0  0
  1 11  1  0  0  0  0
  1  9  1  0  0  0  0
  2  1  1  0  0  0  0
  3  4  2  0  0  0  0
  3  2  1  0  0  0  0
  4  5  1  0  0  0  0
  5 12  1  0  0  0  0
  5 14  1  0  0  0  0
  6  4  1  0  0  0  0
  7  8  1  0  0  0  0
  7  6  2  0  0  0  0
  8  3  1  0  0  0  0
 10  1  1  0  0  0  0
 13  5  1  0  0  0  0
 15  7  1  0  0  0  0
 16  8  1  0  0  0  0
M  END
