15
title
C -0.43034893 2.1726112 1.4119062
O -1.0151583 0.9605741 0.91837686
C -0.2523146 0.24369074 0.0907879
C 0.09177464 -1.0682337 0.06465246
C -0.22631592 -2.144667 1.0444881
N 0.8313111 -1.2925916 -1.1006976
C 0.89599204 -0.14368497 -1.681019
O 0.2549134 0.8597428 -1.0275143
H 0.501099 1.9605621 1.9494083
H -0.2305702 2.8715093 0.5942743
H -1.1618583 2.6050713 2.0953395
H -0.83450353 -2.9314165 0.5849939
H 0.68731654 -2.6180933 1.4191681
H -0.77994496 -1.7351141 1.8929338
H 1.3945223 0.12111588 -2.6000698
