title
 OpenBabel02282109573D

 15 15  0  0  0  0  0  0  0  0999 V2000
   -0.4303    2.1726    1.4119 C   0  0  0  0  0  0  0  0  0  0  0  0
   -1.0152    0.9606    0.9184 O   0  0  0  0  0  0  0  0  0  0  0  0
   -0.2523    0.2437    0.0908 C   0  0  0  0  0  0  0  0  0  0  0  0
    0.0918   -1.0682    0.0647 C   0  0  0  0  0  0  0  0  0  0  0  0
   -0.2263   -2.1447    1.0445 C   0  0  0  0  0  0  0  0  0  0  0  0
    0.8313   -1.2926   -1.1007 N   0  0  0  0  0  0  0  0  0  0  0  0
    0.8960   -0.1437   -1.6810 C   0  0  0  0  0  0  0  0  0  0  0  0
    0.2549    0.8597   -1.0275 O   0  0  0  0  0  0  0  0  0  0  0  0
    0.5011    1.9606    1.9494 H   0  0  0  0  0  0  0  0  0  0  0  0
   -0.2306    2.8715    0.5943 H   0  0  0  0  0  0  0  0  0  0  0  0
   -1.1619    2.6051    2.0953 H   0  0  0  0  0  0  0  0  0  0  0  0
   -0.8345   -2.9314    0.5850 H   0  0  0  0  0  0  0  0  0  0  0  0
    0.6873   -2.6181    1.4192 H   0  0  0  0  0  0  0  0  0  0  0  0
   -0.7799   -1.7351    1.8929 H   0  0  0  0  0  0  0  0  0  0  0  0
    1.3945    0.1211   -2.6001 H   0  0  0  0  0  0  0  0  0  0  0  0
  1  9  1  0  0  0  0
  1 11  1  0  0  0  0
  2  1  1  0  0  0  0
  3  2  1  0  0  0  0
  4  3  2  0  0  0  0
  4  5  1  0  0  0  0
  5 13  1  0  0  0  0
  5 14  1  0  0  0  0
  6  4  1  0  0  0  0
  7  6  2  0  0  0  0
  7  8  1  0  0  0  0
  8  3  1  0  0  0  0
 10  1  1  0  0  0  0
 12  5  1  0  0  0  0
 15  7  1  0  0  0  0
M  END
