title
 OpenBabel02282109573D

 16 16  0  0  0  0  0  0  0  0999 V2000
   -1.2770    1.7325    1.3203 C   0  0  0  0  0  0  0  0  0  0  0  0
    0.0100    1.1060    1.2972 O   0  0  0  0  0  0  0  0  0  0  0  0
    0.2320    0.3275    0.2043 C   0  0  0  0  0  0  0  0  0  0  0  0
   -0.1426   -0.9712   -0.0561 C   0  0  0  0  0  0  0  0  0  0  0  0
   -0.9625   -1.7721    0.7709 N   0  0  0  0  0  0  0  0  0  0  0  0
    0.3848   -1.2993   -1.3401 C   0  0  0  0  0  0  0  0  0  0  0  0
    1.0608   -0.1961   -1.8124 C   0  0  0  0  0  0  0  0  0  0  0  0
    0.9525    0.7985   -0.8766 N   0  0  0  0  0  0  0  0  0  0  0  0
   -1.3950    2.4234    0.4761 H   0  0  0  0  0  0  0  0  0  0  0  0
   -2.0779    0.9855    1.2827 H   0  0  0  0  0  0  0  0  0  0  0  0
   -1.3371    2.2907    2.2575 H   0  0  0  0  0  0  0  0  0  0  0  0
   -0.8336   -1.5296    1.7471 H   0  0  0  0  0  0  0  0  0  0  0  0
   -0.7481   -2.7562    0.6623 H   0  0  0  0  0  0  0  0  0  0  0  0
    0.2713   -2.2414   -1.8552 H   0  0  0  0  0  0  0  0  0  0  0  0
    1.6120   -0.0458   -2.7260 H   0  0  0  0  0  0  0  0  0  0  0  0
    1.4116    1.6917   -0.8977 H   0  0  0  0  0  0  0  0  0  0  0  0
  1 11  1  0  0  0  0
  2  1  1  0  0  0  0
  3  2  1  0  0  0  0
  4  3  2  0  0  0  0
  4  5  1  0  0  0  0
  5 12  1  0  0  0  0
  6  4  1  0  0  0  0
  7  6  2  0  0  0  0
  7  8  1  0  0  0  0
  8  3  1  0  0  0  0
  9  1  1  0  0  0  0
 10  1  1  0  0  0  0
 13  5  1  0  0  0  0
 14  6  1  0  0  0  0
 15  7  1  0  0  0  0
 16  8  1  0  0  0  0
M  END
