15
title
C 1.4884478 2.0751312 -0.37677515
O 1.2444594 0.9770284 0.5115348
C 0.15545505 0.24447197 0.22683068
C 0.032434277 -1.0617534 -0.13935515
N 1.0675364 -1.9652202 -0.44317776
C -1.3829151 -1.3002183 -0.23221408
C -1.9923884 -0.12656075 0.074238375
O -1.0727865 0.8356633 0.3569655
H 2.4226632 2.5350914 -0.049865372
H 1.5879897 1.722768 -1.410248
H 0.6785094 2.809384 -0.31951925
H 1.9626054 -1.6015384 -0.13674688
H 0.9233999 -2.868952 -0.007633568
H -1.8664893 -2.2259293 -0.5038567
H -3.0234559 0.17936993 0.13092372
