title
 OpenBabel02282109573D

 15 15  0  0  0  0  0  0  0  0999 V2000
   -0.6013    1.6017    1.8534 C   0  0  0  0  0  0  0  0  0  0  0  0
   -1.0314    1.3174    0.5169 O   0  0  0  0  0  0  0  0  0  0  0  0
   -0.2666    0.4103   -0.1329 C   0  0  0  0  0  0  0  0  0  0  0  0
    0.1402   -0.8743    0.1395 C   0  0  0  0  0  0  0  0  0  0  0  0
   -0.1000   -1.6232    1.3119 N   0  0  0  0  0  0  0  0  0  0  0  0
    0.8972   -1.3552   -0.9036 N   0  0  0  0  0  0  0  0  0  0  0  0
    0.9387   -0.3924   -1.7979 C   0  0  0  0  0  0  0  0  0  0  0  0
    0.2424    0.7031   -1.3838 N   0  0  0  0  0  0  0  0  0  0  0  0
   -0.5410    0.6847    2.4478 H   0  0  0  0  0  0  0  0  0  0  0  0
    0.3805    2.0903    1.8480 H   0  0  0  0  0  0  0  0  0  0  0  0
   -1.3462    2.2778    2.2769 H   0  0  0  0  0  0  0  0  0  0  0  0
   -1.0763   -1.8888    1.3956 H   0  0  0  0  0  0  0  0  0  0  0  0
    0.4480   -2.4758    1.2691 H   0  0  0  0  0  0  0  0  0  0  0  0
    1.4427   -0.4330   -2.7512 H   0  0  0  0  0  0  0  0  0  0  0  0
    0.1001    1.5703   -1.8738 H   0  0  0  0  0  0  0  0  0  0  0  0
  1 11  1  0  0  0  0
  1  9  1  0  0  0  0
  2  1  1  0  0  0  0
  3  4  2  0  0  0  0
  3  2  1  0  0  0  0
  4  5  1  0  0  0  0
  5 12  1  0  0  0  0
  6  4  1  0  0  0  0
  7  8  1  0  0  0  0
  7  6  2  0  0  0  0
  8  3  1  0  0  0  0
 10  1  1  0  0  0  0
 13  5  1  0  0  0  0
 14  7  1  0  0  0  0
 15  8  1  0  0  0  0
M  END
