title
 OpenBabel02282109573D

 14 14  0  0  0  0  0  0  0  0999 V2000
   -1.1156    2.1059    1.1130 C   0  0  0  0  0  0  0  0  0  0  0  0
   -0.2158    1.0129    1.3423 O   0  0  0  0  0  0  0  0  0  0  0  0
    0.0733    0.2764    0.2625 C   0  0  0  0  0  0  0  0  0  0  0  0
   -0.0760   -1.0430   -0.0274 C   0  0  0  0  0  0  0  0  0  0  0  0
   -0.6015   -2.0779    0.7432 N   0  0  0  0  0  0  0  0  0  0  0  0
    0.4913   -1.2914   -1.2698 N   0  0  0  0  0  0  0  0  0  0  0  0
    0.9437   -0.1430   -1.6583 C   0  0  0  0  0  0  0  0  0  0  0  0
    0.7492    0.8687   -0.7897 O   0  0  0  0  0  0  0  0  0  0  0  0
   -0.6670    2.8444    0.4410 H   0  0  0  0  0  0  0  0  0  0  0  0
   -2.0588    1.7483    0.6833 H   0  0  0  0  0  0  0  0  0  0  0  0
   -1.2996    2.5615    2.0871 H   0  0  0  0  0  0  0  0  0  0  0  0
   -1.2499   -1.7545    1.4485 H   0  0  0  0  0  0  0  0  0  0  0  0
   -1.0218   -2.7955    0.1669 H   0  0  0  0  0  0  0  0  0  0  0  0
    1.4418    0.0964   -2.5844 H   0  0  0  0  0  0  0  0  0  0  0  0
  1  2  1  0  0  0  0
  1 11  1  0  0  0  0
  3  2  1  0  0  0  0
  4  3  2  0  0  0  0
  4  5  1  0  0  0  0
  5 12  1  0  0  0  0
  6  4  1  0  0  0  0
  7  6  2  0  0  0  0
  7  8  1  0  0  0  0
  8  3  1  0  0  0  0
  9  1  1  0  0  0  0
 10  1  1  0  0  0  0
 13  5  1  0  0  0  0
 14  7  1  0  0  0  0
M  END
