title
 OpenBabel02282109573D

 15 15  0  0  0  0  0  0  0  0999 V2000
    1.6800    1.8955   -0.4241 C   0  0  0  0  0  0  0  0  0  0  0  0
    1.1542    1.0780    0.6276 O   0  0  0  0  0  0  0  0  0  0  0  0
    0.0776    0.3257    0.2745 C   0  0  0  0  0  0  0  0  0  0  0  0
    0.0241   -0.9925   -0.1138 C   0  0  0  0  0  0  0  0  0  0  0  0
    1.0792   -1.8443   -0.2789 O   0  0  0  0  0  0  0  0  0  0  0  0
   -1.3416   -1.3244   -0.3249 C   0  0  0  0  0  0  0  0  0  0  0  0
   -2.0797   -0.1935   -0.0552 C   0  0  0  0  0  0  0  0  0  0  0  0
   -1.2164    0.8118    0.3000 N   0  0  0  0  0  0  0  0  0  0  0  0
    2.5603    2.3996   -0.0191 H   0  0  0  0  0  0  0  0  0  0  0  0
    1.9659    1.2869   -1.2899 H   0  0  0  0  0  0  0  0  0  0  0  0
    0.9482    2.6464   -0.7464 H   0  0  0  0  0  0  0  0  0  0  0  0
    1.8579   -1.4117    0.0894 H   0  0  0  0  0  0  0  0  0  0  0  0
   -1.7225   -2.2824   -0.6408 H   0  0  0  0  0  0  0  0  0  0  0  0
   -3.1438   -0.0269   -0.0844 H   0  0  0  0  0  0  0  0  0  0  0  0
   -1.4743    1.7161    0.6534 H   0  0  0  0  0  0  0  0  0  0  0  0
  1  9  1  0  0  0  0
  1  2  1  0  0  0  0
  3  8  1  0  0  0  0
  3  2  1  0  0  0  0
  4  3  2  0  0  0  0
  5  4  1  0  0  0  0
  5 12  1  0  0  0  0
  6  4  1  0  0  0  0
  6  7  2  0  0  0  0
  7  8  1  0  0  0  0
  8 15  1  0  0  0  0
 10  1  1  0  0  0  0
 11  1  1  0  0  0  0
 13  6  1  0  0  0  0
 14  7  1  0  0  0  0
M  END
