15
title
N 0.6794518 1.9575003 0.044515442
C 0.73239577 0.5604682 0.08107272
C -0.33368233 -0.29406345 0.16962643
C -1.799735 -0.04008006 0.17849062
O -2.1784275 0.92430466 -0.81121475
O 0.11576633 -1.5913677 0.25419348
C 1.466258 -1.5442741 0.22210312
C 1.9078119 -0.26288593 0.1156843
H 1.4318867 2.3718185 -0.4890733
H -0.2166145 2.285183 -0.2968294
H -2.3329875 -0.9929973 0.05142345
H -2.1377378 0.39911538 1.1250217
H -1.8652705 0.5897535 -1.6592189
H 1.9722488 -2.494086 0.2812769
H 2.9353266 0.064475045 0.070824
