15
title
O 1.7004555 2.0396588 0.33099508
C 1.5297596 0.83964276 -0.4316213
C 0.19962291 0.20838048 -0.21808448
C -0.16448767 -1.0822599 0.1089879
O 0.73743194 -2.0930328 0.29513407
C -1.582624 -1.144746 0.19197814
C -2.0510027 0.123411074 -0.082895
N -0.978573 0.92392796 -0.34072912
H 1.5650738 1.8029308 1.2552209
H 1.668393 1.1603056 -1.4718561
H 2.308775 0.09683587 -0.21391118
H 0.25689355 -2.8870494 0.54449177
H -2.1828847 -2.0131068 0.41965872
H -3.0577686 0.5081305 -0.10748702
H -1.0042698 1.918204 -0.4861206
