14
title
O 1.8638483 1.6516644 -0.20528692
C 1.6226228 0.53561026 0.6365087
C 0.26679394 -0.053044815 0.41557127
C -0.45146802 -0.25568613 -0.723942
O 0.023962947 0.036627453 -1.9755863
C -1.7008862 -0.84444237 -0.3457861
C -1.6455307 -0.95828795 1.0081125
O -0.46600106 -0.48957983 1.4841428
H 1.6406267 1.3830223 -1.1042649
H 2.4059503 -0.23001714 0.5040721
H 1.693852 0.8881851 1.6704947
H -0.7170007 0.18596102 -2.570351
H -2.5158665 -1.1392548 -0.9888647
H -2.3338797 -1.3365544 1.7453886
