title
 OpenBabel02282109573D

 14 14  0  0  1  0  0  0  0  0999 V2000
    1.7227    2.0612    0.3239 O   0  0  0  0  0  0  0  0  0  0  0  0
    1.5487    0.8716   -0.4509 C   0  0  0  0  0  0  0  0  0  0  0  0
    0.2258    0.2301   -0.2324 C   0  0  1  0  0  0  0  0  0  0  0  0
   -0.1665   -1.0418    0.1135 C   0  0  0  0  0  0  0  0  0  0  0  0
    0.6466   -2.0975    0.3436 O   0  0  0  0  0  0  0  0  0  0  0  0
   -1.5234   -1.1533    0.2005 N   0  0  0  0  0  0  0  0  0  0  0  0
   -1.9822    0.0519   -0.0845 C   0  0  0  0  0  0  0  0  0  0  0  0
   -0.9786    0.9155   -0.3611 N   0  0  0  0  0  0  0  0  0  0  0  0
    1.6249    1.8107    1.2493 H   0  0  0  0  0  0  0  0  0  0  0  0
    1.6738    1.2035   -1.4890 H   0  0  0  0  0  0  0  0  0  0  0  0
    2.3318    0.1280   -0.2515 H   0  0  0  0  0  0  0  0  0  0  0  0
    0.0696   -2.8379    0.5666 H   0  0  0  0  0  0  0  0  0  0  0  0
   -3.0220    0.3406   -0.0981 H   0  0  0  0  0  0  0  0  0  0  0  0
   -1.0579    1.9018   -0.5457 H   0  0  0  0  0  0  0  0  0  0  0  0
  1  9  1  0  0  0  0
  2 11  1  0  0  0  0
  2  1  1  0  0  0  0
  3  2  1  1  0  0  0
  3  4  1  0  0  0  0
  4  6  2  0  0  0  0
  4  5  1  0  0  0  0
  5 12  1  0  0  0  0
  7  6  1  0  0  0  0
  8  3  1  0  0  0  0
  8  7  1  0  0  0  0
 10  2  1  0  0  0  0
 13  7  1  0  0  0  0
 14  8  1  0  0  0  0
M  RAD  2   3   2   7   2
M  END
