title
 OpenBabel02282109573D

 13 13  0  0  1  0  0  0  0  0999 V2000
    1.7769    1.8800    0.6861 O   0  0  0  0  0  0  0  0  0  0  0  0
    1.7133    0.4808    0.4234 C   0  0  0  0  0  0  0  0  0  0  0  0
    0.3384   -0.0406    0.2372 C   0  0  2  0  0  0  0  0  0  0  0  0
   -0.3823   -0.4872   -0.8288 C   0  0  0  0  0  0  0  0  0  0  0  0
    0.0237   -0.5974   -2.1073 O   0  0  0  0  0  0  0  0  0  0  0  0
   -1.6571   -0.8412   -0.4403 N   0  0  0  0  0  0  0  0  0  0  0  0
   -1.6658   -0.5964    0.8346 C   0  0  0  0  0  0  0  0  0  0  0  0
   -0.5175   -0.1161    1.3252 O   0  0  0  0  0  0  0  0  0  0  0  0
    1.3313    2.3289   -0.0403 H   0  0  0  0  0  0  0  0  0  0  0  0
    2.2938    0.2058   -0.4690 H   0  0  0  0  0  0  0  0  0  0  0  0
    2.1897    0.0065    1.2876 H   0  0  0  0  0  0  0  0  0  0  0  0
   -0.7157   -0.9673   -2.6047 H   0  0  0  0  0  0  0  0  0  0  0  0
   -2.4801   -0.7347    1.5286 H   0  0  0  0  0  0  0  0  0  0  0  0
  2  1  1  0  0  0  0
  2 11  1  0  0  0  0
  3  2  1  6  0  0  0
  3  8  1  0  0  0  0
  4  6  2  0  0  0  0
  4  3  1  0  0  0  0
  5  4  1  0  0  0  0
  6  7  2  0  0  0  0
  7  8  1  0  0  0  0
  7 13  1  0  0  0  0
  9  1  1  0  0  0  0
 10  2  1  0  0  0  0
 12  5  1  0  0  0  0
M  RAD  1   3   2
M  END
