16
title
C 0.8602393 2.1942253 -0.10646827
C 0.7062952 0.7239019 0.05499048
C -0.36629817 -0.11050579 0.178937
C -1.8154774 0.24677196 0.19832915
O -2.4851415 -0.5070193 -0.80988675
C 0.17266954 -1.4392846 0.3034777
C 1.5186112 -1.3083954 0.24893449
O 1.8637577 0.0015161299 0.102260165
H 1.4766976 2.4309435 -0.9805496
H -0.11519877 2.6667788 -0.23920432
H 1.3416567 2.6505241 0.7666193
H -2.2424672 0.020544853 1.1892766
H -1.9396718 1.3286356 0.036831003
H -3.431023 -0.36903104 -0.69851357
H -0.38869926 -2.3548748 0.40136373
H 2.3395827 -2.004865 0.29129106
