title
 OpenBabel02282109573D

 16 16  0  0  0  0  0  0  0  0999 V2000
    0.0606    2.0112    0.7796 C   0  0  0  0  0  0  0  0  0  0  0  0
   -0.0589    0.5257    0.7025 C   0  0  0  0  0  0  0  0  0  0  0  0
   -0.1849   -0.3412   -0.3610 C   0  0  0  0  0  0  0  0  0  0  0  0
   -0.2297   -0.0183   -1.8258 C   0  0  0  0  0  0  0  0  0  0  0  0
    0.7527    0.9368   -2.2279 O   0  0  0  0  0  0  0  0  0  0  0  0
   -0.2727   -1.6463    0.0832 N   0  0  0  0  0  0  0  0  0  0  0  0
   -0.2093   -1.5780    1.3905 C   0  0  0  0  0  0  0  0  0  0  0  0
   -0.0778   -0.2888    1.8173 N   0  0  0  0  0  0  0  0  0  0  0  0
    0.8928    2.3216    1.4235 H   0  0  0  0  0  0  0  0  0  0  0  0
    0.2455    2.4041   -0.2214 H   0  0  0  0  0  0  0  0  0  0  0  0
   -0.8497    2.4807    1.1733 H   0  0  0  0  0  0  0  0  0  0  0  0
   -0.1373   -0.9604   -2.3832 H   0  0  0  0  0  0  0  0  0  0  0  0
   -1.1880    0.4331   -2.1079 H   0  0  0  0  0  0  0  0  0  0  0  0
    1.6080    0.5917   -1.9503 H   0  0  0  0  0  0  0  0  0  0  0  0
   -0.2437   -2.4125    2.0751 H   0  0  0  0  0  0  0  0  0  0  0  0
    0.0089    0.0188    2.7721 H   0  0  0  0  0  0  0  0  0  0  0  0
  1 11  1  0  0  0  0
  1  9  1  0  0  0  0
  2  1  1  0  0  0  0
  2  8  1  0  0  0  0
  3  6  1  0  0  0  0
  3  2  2  0  0  0  0
  4  3  1  0  0  0  0
  5 14  1  0  0  0  0
  5  4  1  0  0  0  0
  6  7  2  0  0  0  0
  7  8  1  0  0  0  0
  7 15  1  0  0  0  0
  8 16  1  0  0  0  0
 10  1  1  0  0  0  0
 12  4  1  0  0  0  0
 13  4  1  0  0  0  0
M  END
