title
 OpenBabel02282109573D

 19 19  0  0  0  0  0  0  0  0999 V2000
   -1.4321    1.9776    1.3182 C   0  0  0  0  0  0  0  0  0  0  0  0
   -1.1438    0.4682    1.4032 C   0  0  0  0  0  0  0  0  0  0  0  0
   -0.4481   -0.0779    0.1882 C   0  0  0  0  0  0  0  0  0  0  0  0
    0.9008   -0.3490    0.0464 C   0  0  0  0  0  0  0  0  0  0  0  0
    2.0448   -0.2212    0.9987 C   0  0  0  0  0  0  0  0  0  0  0  0
    1.0950   -0.8027   -1.2401 N   0  0  0  0  0  0  0  0  0  0  0  0
   -0.0964   -0.8288   -1.9209 C   0  0  0  0  0  0  0  0  0  0  0  0
   -1.0698   -0.3842   -1.0625 C   0  0  0  0  0  0  0  0  0  0  0  0
   -0.5024    2.5477    1.2228 H   0  0  0  0  0  0  0  0  0  0  0  0
   -2.0496    2.2083    0.4442 H   0  0  0  0  0  0  0  0  0  0  0  0
   -1.9602    2.3318    2.2101 H   0  0  0  0  0  0  0  0  0  0  0  0
   -0.5463    0.2676    2.3005 H   0  0  0  0  0  0  0  0  0  0  0  0
   -2.0911   -0.0660    1.5500 H   0  0  0  0  0  0  0  0  0  0  0  0
    2.6050   -1.1598    1.0979 H   0  0  0  0  0  0  0  0  0  0  0  0
    2.7601    0.5531    0.6914 H   0  0  0  0  0  0  0  0  0  0  0  0
    1.6835    0.0488    1.9934 H   0  0  0  0  0  0  0  0  0  0  0  0
    1.9819   -1.0886   -1.6165 H   0  0  0  0  0  0  0  0  0  0  0  0
   -0.1462   -1.1660   -2.9438 H   0  0  0  0  0  0  0  0  0  0  0  0
   -2.1213   -0.2904   -1.2913 H   0  0  0  0  0  0  0  0  0  0  0  0
  1  2  1  0  0  0  0
  1 11  1  0  0  0  0
  2 13  1  0  0  0  0
  2 12  1  0  0  0  0
  3  2  1  0  0  0  0
  4  3  2  0  0  0  0
  4  5  1  0  0  0  0
  5 14  1  0  0  0  0
  5 16  1  0  0  0  0
  6  4  1  0  0  0  0
  7  6  1  0  0  0  0
  7  8  2  0  0  0  0
  8  3  1  0  0  0  0
  9  1  1  0  0  0  0
 10  1  1  0  0  0  0
 15  5  1  0  0  0  0
 17  6  1  0  0  0  0
 18  7  1  0  0  0  0
 19  8  1  0  0  0  0
M  END
