18
title
C 1.8289273 1.9646508 -0.71738833
C 1.7548925 0.49177614 -0.28378937
C 0.35118884 -0.03033114 -0.23772481
C -0.38339287 -0.45750946 0.8446616
C -0.082212865 -0.57140934 2.3013034
N -1.612607 -0.8168673 0.31817532
C -1.565865 -0.5945277 -1.0255089
N -0.4019404 -0.12211973 -1.3952652
H 2.8677807 2.3015833 -0.79399335
H 1.3497305 2.0948715 -1.6913351
H 1.3122541 2.6113534 -0.00053576444
H 2.336306 -0.11577458 -0.9885514
H 2.2288964 0.36721256 0.6963453
H -0.7444332 0.05585497 2.91139
H -0.18134135 -1.6019814 2.6649208
H 0.9431079 -0.25240165 2.4996126
H -2.3947046 -1.177988 0.83827055
H -2.4057167 -0.7988301 -1.6733687
