title
 OpenBabel02282109573D

 18 18  0  0  0  0  0  0  0  0999 V2000
   -0.4369    2.0308   -1.8864 C   0  0  0  0  0  0  0  0  0  0  0  0
   -0.7052    0.5353   -1.6430 C   0  0  0  0  0  0  0  0  0  0  0  0
    0.0578   -0.0313   -0.4809 C   0  0  0  0  0  0  0  0  0  0  0  0
   -0.4723   -0.4012    0.7421 C   0  0  0  0  0  0  0  0  0  0  0  0
   -1.7818   -0.3984    1.2844 N   0  0  0  0  0  0  0  0  0  0  0  0
    0.5609   -0.8556    1.5288 N   0  0  0  0  0  0  0  0  0  0  0  0
    1.7411   -0.7869    0.8389 C   0  0  0  0  0  0  0  0  0  0  0  0
    1.4624   -0.2784   -0.4084 C   0  0  0  0  0  0  0  0  0  0  0  0
    0.6254    2.2113   -2.0789 H   0  0  0  0  0  0  0  0  0  0  0  0
   -1.0044    2.4007   -2.7471 H   0  0  0  0  0  0  0  0  0  0  0  0
   -0.7165    2.6266   -1.0113 H   0  0  0  0  0  0  0  0  0  0  0  0
   -1.7790    0.3854   -1.4747 H   0  0  0  0  0  0  0  0  0  0  0  0
   -0.4611   -0.0217   -2.5569 H   0  0  0  0  0  0  0  0  0  0  0  0
   -2.3970   -1.0398    0.7937 H   0  0  0  0  0  0  0  0  0  0  0  0
   -2.2079    0.5207    1.2345 H   0  0  0  0  0  0  0  0  0  0  0  0
    0.4289   -1.1801    2.4711 H   0  0  0  0  0  0  0  0  0  0  0  0
    2.6697   -1.1042    1.2851 H   0  0  0  0  0  0  0  0  0  0  0  0
    2.1840   -0.1055   -1.1935 H   0  0  0  0  0  0  0  0  0  0  0  0
  1  2  1  0  0  0  0
  1 11  1  0  0  0  0
  2 12  1  0  0  0  0
  2  3  1  0  0  0  0
  3  8  1  0  0  0  0
  3  4  2  0  0  0  0
  4  5  1  0  0  0  0
  4  6  1  0  0  0  0
  6 16  1  0  0  0  0
  7 17  1  0  0  0  0
  7  6  1  0  0  0  0
  8  7  2  0  0  0  0
  9  1  1  0  0  0  0
 10  1  1  0  0  0  0
 13  2  1  0  0  0  0
 14  5  1  0  0  0  0
 15  5  1  0  0  0  0
 18  8  1  0  0  0  0
M  END
