title
 OpenBabel02282109573D

 17 17  0  0  0  0  0  0  0  0999 V2000
   -1.6224    1.8807    1.3487 C   0  0  0  0  0  0  0  0  0  0  0  0
   -1.1283    0.4274    1.4422 C   0  0  0  0  0  0  0  0  0  0  0  0
   -0.4455   -0.0498    0.1958 C   0  0  0  0  0  0  0  0  0  0  0  0
    0.8788   -0.3414    0.0582 C   0  0  0  0  0  0  0  0  0  0  0  0
    1.9266   -0.2943    0.9827 N   0  0  0  0  0  0  0  0  0  0  0  0
    1.1469   -0.7459   -1.2315 O   0  0  0  0  0  0  0  0  0  0  0  0
   -0.0304   -0.7059   -1.9074 C   0  0  0  0  0  0  0  0  0  0  0  0
   -1.0338   -0.2872   -1.0964 C   0  0  0  0  0  0  0  0  0  0  0  0
   -0.7873    2.5657    1.1717 H   0  0  0  0  0  0  0  0  0  0  0  0
   -2.3341    2.0073    0.5263 H   0  0  0  0  0  0  0  0  0  0  0  0
   -2.1215    2.1841    2.2746 H   0  0  0  0  0  0  0  0  0  0  0  0
   -0.4275    0.3293    2.2772 H   0  0  0  0  0  0  0  0  0  0  0  0
   -1.9819   -0.2255    1.6663 H   0  0  0  0  0  0  0  0  0  0  0  0
    2.6149    0.4153    0.7489 H   0  0  0  0  0  0  0  0  0  0  0  0
    2.4144   -1.1826    1.0480 H   0  0  0  0  0  0  0  0  0  0  0  0
    0.0108   -1.0067   -2.9417 H   0  0  0  0  0  0  0  0  0  0  0  0
   -2.0709   -0.1667   -1.3708 H   0  0  0  0  0  0  0  0  0  0  0  0
  1  2  1  0  0  0  0
  1 11  1  0  0  0  0
  2 13  1  0  0  0  0
  2 12  1  0  0  0  0
  3  2  1  0  0  0  0
  4  3  2  0  0  0  0
  4  5  1  0  0  0  0
  5 15  1  0  0  0  0
  6  4  1  0  0  0  0
  7  6  1  0  0  0  0
  7  8  2  0  0  0  0
  8  3  1  0  0  0  0
  9  1  1  0  0  0  0
 10  1  1  0  0  0  0
 14  5  1  0  0  0  0
 16  7  1  0  0  0  0
 17  8  1  0  0  0  0
M  END
