16
title
C -0.3259753 2.0277424 1.9486637
C -0.6766826 0.5612285 1.6525239
C 0.010768943 0.028951352 0.4356743
C -0.5078464 -0.5157652 -0.6999744
N -1.7774442 -0.8703989 -1.1346112
O 0.51929224 -0.850482 -1.5329672
C 1.638921 -0.48012576 -0.8459827
N 1.4052268 0.030887252 0.31038928
H 0.7557527 2.1421616 2.0559082
H -0.652283 2.6825073 1.1342127
H -0.8036003 2.366382 2.8733454
H -0.40948373 -0.053178754 2.5223722
H -1.7624952 0.45473057 1.532653
H -2.5030491 -0.45931438 -0.5629014
H -1.9351196 -0.6493921 -2.111021
H 2.5818396 -0.646909 -1.3408402
