title
 OpenBabel02282109573D

 16 16  0  0  0  0  0  0  0  0999 V2000
    1.7881    2.0793   -0.6065 C   0  0  0  0  0  0  0  0  0  0  0  0
    1.7461    0.5837   -0.2551 C   0  0  0  0  0  0  0  0  0  0  0  0
    0.3607    0.0163   -0.2579 C   0  0  0  0  0  0  0  0  0  0  0  0
   -0.3571   -0.5187    0.7813 C   0  0  0  0  0  0  0  0  0  0  0  0
   -0.1176   -0.7377    2.0987 O   0  0  0  0  0  0  0  0  0  0  0  0
   -1.5767   -0.8879    0.2738 N   0  0  0  0  0  0  0  0  0  0  0  0
   -1.5582   -0.5619   -1.0591 C   0  0  0  0  0  0  0  0  0  0  0  0
   -0.4191   -0.0228   -1.4045 N   0  0  0  0  0  0  0  0  0  0  0  0
    2.8182    2.4480   -0.6456 H   0  0  0  0  0  0  0  0  0  0  0  0
    1.3230    2.2458   -1.5815 H   0  0  0  0  0  0  0  0  0  0  0  0
    1.2384    2.6724    0.1315 H   0  0  0  0  0  0  0  0  0  0  0  0
    2.3675    0.0301   -0.9706 H   0  0  0  0  0  0  0  0  0  0  0  0
    2.2095    0.4227    0.7291 H   0  0  0  0  0  0  0  0  0  0  0  0
    0.7772   -0.4417    2.2943 H   0  0  0  0  0  0  0  0  0  0  0  0
   -2.3213   -1.3143    0.7992 H   0  0  0  0  0  0  0  0  0  0  0  0
   -2.4022   -0.7481   -1.7056 H   0  0  0  0  0  0  0  0  0  0  0  0
  1  2  1  0  0  0  0
  1 11  1  0  0  0  0
  2 13  1  0  0  0  0
  3  2  1  0  0  0  0
  3  4  2  0  0  0  0
  4  5  1  0  0  0  0
  5 14  1  0  0  0  0
  6  4  1  0  0  0  0
  6 15  1  0  0  0  0
  7  6  1  0  0  0  0
  8  7  2  0  0  0  0
  8  3  1  0  0  0  0
  9  1  1  0  0  0  0
 10  1  1  0  0  0  0
 12  2  1  0  0  0  0
 16  7  1  0  0  0  0
M  END
