title
 OpenBabel02282109573D

 17 17  0  0  0  0  0  0  0  0999 V2000
   -0.6888    2.4555   -1.0839 C   0  0  0  0  0  0  0  0  0  0  0  0
   -0.8272    1.0059   -1.1163 N   0  0  0  0  0  0  0  0  0  0  0  0
   -0.1290    0.2736   -0.1515 C   0  0  0  0  0  0  0  0  0  0  0  0
    0.0040   -1.0980   -0.0740 C   0  0  0  0  0  0  0  0  0  0  0  0
   -0.4894   -2.2032   -0.9426 C   0  0  0  0  0  0  0  0  0  0  0  0
    0.7465   -1.2983    1.0830 N   0  0  0  0  0  0  0  0  0  0  0  0
    0.9987   -0.0843    1.6323 C   0  0  0  0  0  0  0  0  0  0  0  0
    0.4885    0.8908    0.9096 N   0  0  0  0  0  0  0  0  0  0  0  0
    0.3463    2.8066   -1.2105 H   0  0  0  0  0  0  0  0  0  0  0  0
   -1.3086    2.8821   -1.8774 H   0  0  0  0  0  0  0  0  0  0  0  0
   -1.0442    2.8332   -0.1229 H   0  0  0  0  0  0  0  0  0  0  0  0
   -0.7016    0.6314   -2.0459 H   0  0  0  0  0  0  0  0  0  0  0  0
    0.2898   -2.6357   -1.5858 H   0  0  0  0  0  0  0  0  0  0  0  0
   -0.9190   -3.0251   -0.3564 H   0  0  0  0  0  0  0  0  0  0  0  0
   -1.2836   -1.8292   -1.5955 H   0  0  0  0  0  0  0  0  0  0  0  0
    1.0300   -2.1908    1.4506 H   0  0  0  0  0  0  0  0  0  0  0  0
    1.5536    0.0346    2.5506 H   0  0  0  0  0  0  0  0  0  0  0  0
  1 11  1  0  0  0  0
  2  1  1  0  0  0  0
  2  3  1  0  0  0  0
  3  4  2  0  0  0  0
  3  8  1  0  0  0  0
  4  6  1  0  0  0  0
  5 14  1  0  0  0  0
  5  4  1  0  0  0  0
  6 16  1  0  0  0  0
  6  7  1  0  0  0  0
  7 17  1  0  0  0  0
  8  7  2  0  0  0  0
  9  1  1  0  0  0  0
 10  1  1  0  0  0  0
 12  2  1  0  0  0  0
 13  5  1  0  0  0  0
 15  5  1  0  0  0  0
M  END
