title
 OpenBabel02282109573D

 16 16  0  0  0  0  0  0  0  0999 V2000
   -0.7365    2.4422    1.1307 C   0  0  0  0  0  0  0  0  0  0  0  0
   -0.3505    1.0520    1.3471 N   0  0  0  0  0  0  0  0  0  0  0  0
    0.0038    0.2923    0.2401 C   0  0  0  0  0  0  0  0  0  0  0  0
   -0.0978   -1.0535    0.0320 C   0  0  0  0  0  0  0  0  0  0  0  0
   -0.6375   -2.2042    0.7963 C   0  0  0  0  0  0  0  0  0  0  0  0
    0.4835   -1.3088   -1.1993 O   0  0  0  0  0  0  0  0  0  0  0  0
    0.8762   -0.1069   -1.6484 C   0  0  0  0  0  0  0  0  0  0  0  0
    0.6266    0.8827   -0.8537 N   0  0  0  0  0  0  0  0  0  0  0  0
    0.0710    2.9599    0.6112 H   0  0  0  0  0  0  0  0  0  0  0  0
   -1.6533    2.5595    0.5322 H   0  0  0  0  0  0  0  0  0  0  0  0
   -0.8883    2.9184    2.1026 H   0  0  0  0  0  0  0  0  0  0  0  0
   -0.9792    0.5608    1.9665 H   0  0  0  0  0  0  0  0  0  0  0  0
   -1.3327   -2.8002    0.1937 H   0  0  0  0  0  0  0  0  0  0  0  0
    0.1513   -2.8788    1.1527 H   0  0  0  0  0  0  0  0  0  0  0  0
   -1.1829   -1.8469    1.6749 H   0  0  0  0  0  0  0  0  0  0  0  0
    1.3535   -0.0756   -2.6153 H   0  0  0  0  0  0  0  0  0  0  0  0
  1  2  1  0  0  0  0
  1 11  1  0  0  0  0
  2 12  1  0  0  0  0
  3  2  1  0  0  0  0
  4  3  2  0  0  0  0
  4  5  1  0  0  0  0
  5 14  1  0  0  0  0
  5 15  1  0  0  0  0
  6  4  1  0  0  0  0
  7  6  1  0  0  0  0
  7  8  2  0  0  0  0
  8  3  1  0  0  0  0
  9  1  1  0  0  0  0
 10  1  1  0  0  0  0
 13  5  1  0  0  0  0
 16  7  1  0  0  0  0
M  END
