16
title
C -0.47648647 2.3957968 1.3974314
N -0.94194067 1.0678581 1.0246971
C -0.20536241 0.3576704 0.07747461
C 0.009147919 -0.9921941 0.07980682
N -0.38619828 -1.9557439 1.0081897
O 0.7093693 -1.3561965 -1.0574188
C 0.94510794 -0.21876195 -1.7494607
C 0.41398582 0.86165535 -1.1187677
H 0.5564846 2.418985 1.7813859
H -0.5285071 3.0663657 0.53390044
H -1.140724 2.8013012 2.1652014
H -1.1311477 0.47962284 1.8269569
H -1.088193 -2.595704 0.64733833
H 0.39141068 -2.5091755 1.3546453
H 1.5048145 -0.32922998 -2.6641726
H 0.45350084 1.8840638 -1.4591129
