16
title
C -1.2261854 2.1149232 1.1952065
N -0.32124388 0.98290485 1.4167296
C 0.18781991 0.37242994 0.23508553
C -0.105292775 -0.9382556 -0.06155021
O -0.84278977 -1.8309935 0.63212895
N 0.48928586 -1.2757255 -1.2373562
C 1.184553 -0.17542425 -1.7220719
C 1.0145859 0.855394 -0.83512133
H -0.77288824 2.946907 0.6337626
H -2.099088 1.771477 0.6322953
H -1.5703639 2.4989662 2.1611705
H 0.43210557 1.2704427 2.0331306
H -1.1219759 -1.3437392 1.4229153
H 0.43495157 -2.1827416 -1.6655419
H 1.7291453 -0.23745385 -2.6491437
H 1.4330473 1.8458626 -0.9330947
