title
 OpenBabel02282109573D

 15 15  0  0  0  0  0  0  0  0999 V2000
   -0.4072    2.1683   -1.5509 C   0  0  0  0  0  0  0  0  0  0  0  0
   -1.0601    0.9888   -0.9656 N   0  0  0  0  0  0  0  0  0  0  0  0
   -0.2971    0.3260    0.0219 C   0  0  0  0  0  0  0  0  0  0  0  0
    0.1224   -0.9721   -0.0924 C   0  0  0  0  0  0  0  0  0  0  0  0
   -0.0580   -1.8931   -1.0596 O   0  0  0  0  0  0  0  0  0  0  0  0
    0.8311   -1.2549    1.0429 N   0  0  0  0  0  0  0  0  0  0  0  0
    0.8130   -0.1076    1.8070 C   0  0  0  0  0  0  0  0  0  0  0  0
    0.1473    0.8539    1.2219 N   0  0  0  0  0  0  0  0  0  0  0  0
    0.5049    1.8537   -2.0671 H   0  0  0  0  0  0  0  0  0  0  0  0
   -1.0775    2.6220   -2.2875 H   0  0  0  0  0  0  0  0  0  0  0  0
   -0.1319    2.9269   -0.8054 H   0  0  0  0  0  0  0  0  0  0  0  0
   -1.9622    1.2635   -0.5884 H   0  0  0  0  0  0  0  0  0  0  0  0
   -0.5997   -1.4488   -1.7283 H   0  0  0  0  0  0  0  0  0  0  0  0
    1.2649   -2.1356    1.2626 H   0  0  0  0  0  0  0  0  0  0  0  0
    1.3038   -0.0578    2.7668 H   0  0  0  0  0  0  0  0  0  0  0  0
  1  2  1  0  0  0  0
  1 11  1  0  0  0  0
  2 12  1  0  0  0  0
  2  3  1  0  0  0  0
  3  8  1  0  0  0  0
  4  3  2  0  0  0  0
  4  6  1  0  0  0  0
  5  4  1  0  0  0  0
  6 14  1  0  0  0  0
  6  7  1  0  0  0  0
  7 15  1  0  0  0  0
  8  7  2  0  0  0  0
  9  1  1  0  0  0  0
 10  1  1  0  0  0  0
 13  5  1  0  0  0  0
M  END
