15
title
C -0.54721385 2.3658545 1.4246548
N -1.0229111 1.0553583 0.9949931
C -0.23572448 0.36398053 0.06529215
C 0.03678006 -0.9715231 0.06175652
O -0.24534383 -1.9290935 0.97227186
O 0.76928455 -1.324267 -1.035579
C 0.97218376 -0.17962009 -1.7434626
C 0.39187032 0.8799688 -1.1239791
H 0.4664734 2.3555584 1.8563584
H -0.54479563 3.0568953 0.5761777
H -1.2398165 2.7662675 2.1696818
H -1.2304239 0.45831937 1.78564
H -0.85088557 -2.5774379 0.590599
H 1.5405099 -0.2852196 -2.6520436
H 0.39449567 1.9013484 -1.4699528
