title
 OpenBabel02282109573D

 16 16  0  0  1  0  0  0  0  0999 V2000
   -0.6562    2.3028    1.2113 C   0  0  0  0  0  0  0  0  0  0  0  0
   -0.6724    0.8815    1.2297 O   0  0  0  0  0  0  0  0  0  0  0  0
   -0.0933    0.2730    0.1706 C   0  0  0  0  0  0  0  0  0  0  0  0
   -0.0070   -1.0911    0.0081 C   0  0  1  0  0  0  0  0  0  0  0  0
   -0.4701   -2.2281    0.8497 C   0  0  0  0  0  0  0  0  0  0  0  0
    0.6564   -1.2272   -1.2041 N   0  0  0  0  0  0  0  0  0  0  0  0
    0.9214    0.0146   -1.6828 C   0  0  0  0  0  0  0  0  0  0  0  0
    0.4774    0.9518   -0.8688 N   0  0  0  0  0  0  0  0  0  0  0  0
    0.3682    2.6900    1.1931 H   0  0  0  0  0  0  0  0  0  0  0  0
   -1.1873    2.6967    0.3381 H   0  0  0  0  0  0  0  0  0  0  0  0
   -1.1584    2.6191    2.1275 H   0  0  0  0  0  0  0  0  0  0  0  0
   -1.1963   -2.8677    0.3316 H   0  0  0  0  0  0  0  0  0  0  0  0
    0.3557   -2.8706    1.1817 H   0  0  0  0  0  0  0  0  0  0  0  0
   -0.9581   -1.8296    1.7420 H   0  0  0  0  0  0  0  0  0  0  0  0
    0.8961   -2.0992   -1.6451 H   0  0  0  0  0  0  0  0  0  0  0  0
    1.4339    0.1816   -2.6178 H   0  0  0  0  0  0  0  0  0  0  0  0
  1  2  1  0  0  0  0
  1 11  1  0  0  0  0
  3  2  1  0  0  0  0
  4  3  1  0  0  0  0
  4  5  1  6  0  0  0
  5 13  1  0  0  0  0
  5 14  1  0  0  0  0
  6  4  1  0  0  0  0
  7  6  1  0  0  0  0
  7  8  1  0  0  0  0
  8  3  2  0  0  0  0
  9  1  1  0  0  0  0
 10  1  1  0  0  0  0
 12  5  1  0  0  0  0
 15  6  1  0  0  0  0
 16  7  1  0  0  0  0
M  RAD  2   4   2   7   2
M  END
