title
 OpenBabel02282109573D

 16 16  0  0  0  0  0  0  0  0999 V2000
   -0.6966    2.3125    1.2911 C   0  0  0  0  0  0  0  0  0  0  0  0
   -0.6893    0.8989    1.2633 O   0  0  0  0  0  0  0  0  0  0  0  0
   -0.0996    0.3244    0.1817 C   0  0  0  0  0  0  0  0  0  0  0  0
   -0.0054   -1.0273    0.0072 C   0  0  0  0  0  0  0  0  0  0  0  0
   -0.4517   -2.1817    0.8245 C   0  0  0  0  0  0  0  0  0  0  0  0
    0.6393   -1.2748   -1.1762 O   0  0  0  0  0  0  0  0  0  0  0  0
    0.9459   -0.0816   -1.7372 C   0  0  0  0  0  0  0  0  0  0  0  0
    0.5206    0.9456   -0.9554 C   0  0  0  0  0  0  0  0  0  0  0  0
    0.3223    2.7225    1.2930 H   0  0  0  0  0  0  0  0  0  0  0  0
   -1.2460    2.7313    0.4373 H   0  0  0  0  0  0  0  0  0  0  0  0
   -1.1995    2.6018    2.2156 H   0  0  0  0  0  0  0  0  0  0  0  0
   -1.1653   -2.8154    0.2842 H   0  0  0  0  0  0  0  0  0  0  0  0
    0.3880   -2.8181    1.1284 H   0  0  0  0  0  0  0  0  0  0  0  0
   -0.9414   -1.8085    1.7267 H   0  0  0  0  0  0  0  0  0  0  0  0
    1.4612   -0.1228   -2.6826 H   0  0  0  0  0  0  0  0  0  0  0  0
    0.6331    1.9974   -1.1604 H   0  0  0  0  0  0  0  0  0  0  0  0
  1  9  1  0  0  0  0
  1 11  1  0  0  0  0
  2  1  1  0  0  0  0
  3  2  1  0  0  0  0
  4  3  2  0  0  0  0
  4  5  1  0  0  0  0
  5 13  1  0  0  0  0
  5 14  1  0  0  0  0
  6  4  1  0  0  0  0
  7  6  1  0  0  0  0
  7  8  2  0  0  0  0
  8  3  1  0  0  0  0
 10  1  1  0  0  0  0
 12  5  1  0  0  0  0
 15  7  1  0  0  0  0
 16  8  1  0  0  0  0
M  END
