title
 OpenBabel02282109573D

 16 16  0  0  0  0  0  0  0  0999 V2000
   -0.6992    2.2752    1.3301 C   0  0  0  0  0  0  0  0  0  0  0  0
   -0.6824    0.8650    1.2736 O   0  0  0  0  0  0  0  0  0  0  0  0
   -0.0889    0.3250    0.1696 C   0  0  0  0  0  0  0  0  0  0  0  0
   -0.0007   -1.0420   -0.0171 C   0  0  0  0  0  0  0  0  0  0  0  0
   -0.4246   -2.1525    0.7450 N   0  0  0  0  0  0  0  0  0  0  0  0
    0.6492   -1.2317   -1.2190 N   0  0  0  0  0  0  0  0  0  0  0  0
    0.9671   -0.0325   -1.7841 C   0  0  0  0  0  0  0  0  0  0  0  0
    0.5207    0.9690   -0.9433 C   0  0  0  0  0  0  0  0  0  0  0  0
    0.3172    2.6928    1.3351 H   0  0  0  0  0  0  0  0  0  0  0  0
   -1.2514    2.7082    0.4845 H   0  0  0  0  0  0  0  0  0  0  0  0
   -1.2015    2.5458    2.2612 H   0  0  0  0  0  0  0  0  0  0  0  0
   -1.4295   -2.1350    0.8926 H   0  0  0  0  0  0  0  0  0  0  0  0
   -0.0002   -2.1484    1.6680 H   0  0  0  0  0  0  0  0  0  0  0  0
    0.8427   -2.1448   -1.5920 H   0  0  0  0  0  0  0  0  0  0  0  0
    1.4804    0.0253   -2.7297 H   0  0  0  0  0  0  0  0  0  0  0  0
    0.6241    2.0279   -1.1152 H   0  0  0  0  0  0  0  0  0  0  0  0
  1  9  1  0  0  0  0
  1 11  1  0  0  0  0
  2  1  1  0  0  0  0
  3  2  1  0  0  0  0
  4  3  2  0  0  0  0
  4  5  1  0  0  0  0
  5 12  1  0  0  0  0
  5 13  1  0  0  0  0
  6  4  1  0  0  0  0
  7  6  1  0  0  0  0
  7  8  2  0  0  0  0
  8  3  1  0  0  0  0
 10  1  1  0  0  0  0
 14  6  1  0  0  0  0
 15  7  1  0  0  0  0
 16  8  1  0  0  0  0
M  END
