15
title
C 1.3535331 2.3321855 0.058055073
O 1.3956218 0.9108887 0.03429698
C 0.19531837 0.290274 0.0075075636
C 0.027353082 -1.0774933 -0.017845774
N 0.88714397 -2.1926215 -0.024921898
N -1.3529558 -1.236507 -0.03930087
C -1.9156597 -0.007203896 -0.026286568
N -0.9996454 0.94645154 0.0023161136
H 2.394072 2.6617134 0.07775989
H 0.8509262 2.7310038 -0.829491
H 0.82694894 2.7006323 0.9448301
H 1.5033542 -2.183975 -0.8318304
H 1.481429 -2.211194 0.79810166
H -1.8161054 -2.1298733 -0.06063954
H -2.9833791 0.14943741 -0.03820498
