title
 OpenBabel02282109573D

 14 14  0  0  1  0  0  0  0  0999 V2000
   -0.6217    2.3587    1.1926 C   0  0  0  0  0  0  0  0  0  0  0  0
   -0.6526    0.9352    1.2442 O   0  0  0  0  0  0  0  0  0  0  0  0
   -0.1054    0.2942    0.2015 C   0  0  0  0  0  0  0  0  0  0  0  0
   -0.0245   -1.0577    0.0414 C   0  0  2  0  0  0  0  0  0  0  0  0
   -0.4323   -2.1334    0.8109 N   0  0  0  0  0  0  0  0  0  0  0  0
    0.6213   -1.2526   -1.1861 O   0  0  0  0  0  0  0  0  0  0  0  0
    0.8655   -0.0206   -1.6448 C   0  0  0  0  0  0  0  0  0  0  0  0
    0.4636    0.9446   -0.8758 N   0  0  0  0  0  0  0  0  0  0  0  0
    0.4060    2.7337    1.1501 H   0  0  0  0  0  0  0  0  0  0  0  0
   -1.1668    2.7378    0.3222 H   0  0  0  0  0  0  0  0  0  0  0  0
   -1.1042    2.6964    2.1109 H   0  0  0  0  0  0  0  0  0  0  0  0
   -1.1287   -2.7164    0.3593 H   0  0  0  0  0  0  0  0  0  0  0  0
    0.3319   -2.7195    1.1290 H   0  0  0  0  0  0  0  0  0  0  0  0
    1.3668    0.0643   -2.5969 H   0  0  0  0  0  0  0  0  0  0  0  0
  1  2  1  0  0  0  0
  1 11  1  0  0  0  0
  3  2  1  0  0  0  0
  4  3  1  0  0  0  0
  4  5  1  1  0  0  0
  5 13  1  0  0  0  0
  6  4  1  0  0  0  0
  7  6  1  0  0  0  0
  7  8  2  0  0  0  0
  8  3  2  0  0  0  0
  9  1  1  0  0  0  0
 10  1  1  0  0  0  0
 12  5  1  0  0  0  0
 14  7  1  0  0  0  0
M  RAD  1   4   2
M  END
