15
title
C -0.5304444 2.0292125 1.6326699
O -1.1079495 0.9711962 0.87940025
C -0.25416887 0.38313752 -0.023356598
C 0.06545989 -0.9524681 0.030354816
O -0.3025406 -1.925658 0.899177
N 0.8720759 -1.2442405 -1.0302927
C 1.085178 -0.09511424 -1.7710762
C 0.39560175 0.9302548 -1.1729038
H 0.35033774 1.6873627 2.192629
H -0.23113854 2.8651357 0.98760504
H -1.2963009 2.3764272 2.3306484
H -0.91982144 -1.5140176 1.516408
H 1.2297186 -2.160582 -1.2335978
H 1.7066834 -0.11459512 -2.6501002
H 0.35434043 1.9525249 -1.5146813
