14
title
C 1.3773187 2.3332691 -0.010932555
O 1.4046226 0.9128219 0.022337826
C 0.18934698 0.30586126 -0.0011270217
C 0.011778545 -1.0534382 0.02425179
O 0.8543587 -2.1161418 0.074170634
N -1.34833 -1.242611 -0.012981055
C -1.9246716 -0.0032719525 -0.05881328
N -1.0144224 0.9483192 -0.05253589
H 2.4202032 2.6546237 0.013834128
H 0.89425457 2.700883 -0.92288697
H 0.8396097 2.7413971 0.8518782
H 1.7514806 -1.7646805 0.093327366
H -1.8093722 -2.1368475 -0.007383345
H -2.9928308 0.13757615 -0.094620064
