16
title
N 0.5270247 1.8250324 -0.632751
C 0.6218911 0.5238327 -0.106840044
C -0.35425708 -0.35857174 0.32142192
C -1.8117865 -0.032975692 0.4219199
O -2.3107653 0.64528584 -0.7416421
C 0.3094468 -1.581961 0.6481275
C 1.6515526 -1.4060456 0.4267163
N 1.8292823 -0.11954459 -0.040253885
H -0.44878587 2.023971 -0.8310574
H 0.8800986 2.5334852 0.004001924
H -2.388748 -0.9483507 0.61968297
H -2.0232751 0.6602555 1.2455901
H -2.0727067 0.09906504 -1.499397
H -0.15826145 -2.479737 1.0249677
H 2.4903803 -2.0688756 0.56058526
H 2.6879616 0.26686558 -0.3928852
