14
title
N 0.6962253 1.8728342 -0.013758375
C 0.6318032 0.49731863 0.060420096
C -0.40044385 -0.3895114 0.16343383
C -1.8639169 -0.08730597 0.1423281
O -2.169736 0.9903918 -0.7521922
N 0.13721609 -1.6709259 0.28994387
C 1.4121859 -1.5006101 0.25814682
O 1.8008773 -0.19384205 0.11721719
H 1.4712174 2.2193642 -0.5642707
H -0.19234216 2.2524197 -0.31978434
H -2.4199376 -0.9995843 -0.11083208
H -2.2276938 0.25436696 1.1186122
H -1.9343989 0.69234586 -1.637917
H 2.202201 -2.2309563 0.31540406
