15
title
O 2.2578354 0.73394156 0.6180871
C 1.4120902 1.1256876 -0.48562574
C 0.046528693 0.5295654 -0.36054274
C -0.18375611 -0.7145214 0.1904106
O 0.6664455 -1.6069119 0.7440486
N -1.5166746 -0.9872142 0.13343427
C -2.1745787 0.08007837 -0.45926762
C -1.233445 1.0269741 -0.7675056
H 1.8598163 1.1053277 1.414332
H 1.3627226 2.2203355 -0.5655076
H 1.951558 0.764718 -1.369874
H 1.5128587 -1.1328173 0.8203517
H -1.9392053 -1.8207433 0.50331473
H -3.2419558 0.05995042 -0.60056907
H -1.4265403 1.9764695 -1.2444512
