title
 OpenBabel02282109573D

 19 19  0  0  0  0  0  0  0  0999 V2000
   -0.7831    1.9130    1.7021 C   0  0  0  0  0  0  0  0  0  0  0  0
   -0.5002    0.3984    1.7053 C   0  0  0  0  0  0  0  0  0  0  0  0
    0.2202   -0.0965    0.4890 C   0  0  0  0  0  0  0  0  0  0  0  0
    1.5649   -0.3424    0.3006 C   0  0  0  0  0  0  0  0  0  0  0  0
    1.7521   -0.7639   -1.0428 C   0  0  0  0  0  0  0  0  0  0  0  0
    0.5143   -0.7656   -1.6381 C   0  0  0  0  0  0  0  0  0  0  0  0
   -0.4164   -0.3598   -0.7093 N   0  0  0  0  0  0  0  0  0  0  0  0
   -1.8367   -0.2520   -0.9658 C   0  0  0  0  0  0  0  0  0  0  0  0
    0.1501    2.4769    1.6130 H   0  0  0  0  0  0  0  0  0  0  0  0
   -1.4243    2.2031    0.8634 H   0  0  0  0  0  0  0  0  0  0  0  0
   -1.2837    2.2193    2.6266 H   0  0  0  0  0  0  0  0  0  0  0  0
    0.1153    0.1543    2.5775 H   0  0  0  0  0  0  0  0  0  0  0  0
   -1.4441   -0.1454    1.8438 H   0  0  0  0  0  0  0  0  0  0  0  0
    2.3270   -0.2326    1.0582 H   0  0  0  0  0  0  0  0  0  0  0  0
    2.6822   -1.0404   -1.5151 H   0  0  0  0  0  0  0  0  0  0  0  0
    0.2062   -1.0250   -2.6389 H   0  0  0  0  0  0  0  0  0  0  0  0
   -2.4157   -0.8307   -0.2389 H   0  0  0  0  0  0  0  0  0  0  0  0
   -2.1803    0.7877   -0.9317 H   0  0  0  0  0  0  0  0  0  0  0  0
   -2.0460   -0.6499   -1.9603 H   0  0  0  0  0  0  0  0  0  0  0  0
  1  2  1  0  0  0  0
  1 11  1  0  0  0  0
  2 13  1  0  0  0  0
  2 12  1  0  0  0  0
  3  2  1  0  0  0  0
  4  3  2  0  0  0  0
  4 14  1  0  0  0  0
  5  4  1  0  0  0  0
  6  5  2  0  0  0  0
  6  7  1  0  0  0  0
  7  3  1  0  0  0  0
  8 18  1  0  0  0  0
  8  7  1  0  0  0  0
  8 17  1  0  0  0  0
  9  1  1  0  0  0  0
 10  1  1  0  0  0  0
 15  5  1  0  0  0  0
 16  6  1  0  0  0  0
 19  8  1  0  0  0  0
M  END
