19
title
C -0.78305125 1.9129964 1.7020562
C -0.50019395 0.39836475 1.7052574
C 0.22023019 -0.096473105 0.48903003
C 1.5648925 -0.34238428 0.30063763
C 1.7521131 -0.7639406 -1.0427781
C 0.5143051 -0.76564145 -1.6380562
N -0.41644 -0.35983133 -0.7092513
C -1.8367373 -0.2520408 -0.96578205
H 0.15009859 2.4768643 1.6129748
H -1.4242718 2.2031105 0.86344564
H -1.2837282 2.2192547 2.626564
H 0.11527445 0.15434423 2.5774956
H -1.4440774 -0.14541233 1.8437946
H 2.3269937 -0.2326371 1.0582011
H 2.68218 -1.040416 -1.5151161
H 0.2061669 -1.0249527 -2.6388528
H -2.4157057 -0.8307246 -0.2388595
H -2.180338 0.78767145 -0.9316627
H -2.0459602 -0.6498543 -1.9603168
