18
title
C -0.80875975 1.9269592 1.7010809
C -0.5023841 0.41741943 1.7211132
C 0.20500398 -0.08418828 0.50291926
C 1.5296383 -0.36549133 0.2724217
N 1.7363694 -0.78529304 -1.019993
C 0.54740554 -0.7612043 -1.572766
N -0.42385948 -0.34474474 -0.7055797
C -1.8364103 -0.23683935 -1.0040377
H 0.113378346 2.5047748 1.590736
H -1.4686282 2.1964421 0.87014806
H -1.2996039 2.235749 2.62955
H 0.13114005 0.19394654 2.5858152
H -1.4343728 -0.14120167 1.8803769
H 2.3444164 -0.29077017 0.97805357
H 0.31232715 -1.034947 -2.5916233
H -2.4327247 -0.830579 -0.30429044
H -2.1792803 0.80174106 -0.96023387
H -2.0119817 -0.6165926 -2.0123692
