title
 OpenBabel02282109573D

 18 18  0  0  0  0  0  0  0  0999 V2000
   -0.8088    1.9270    1.7011 C   0  0  0  0  0  0  0  0  0  0  0  0
   -0.5024    0.4174    1.7211 C   0  0  0  0  0  0  0  0  0  0  0  0
    0.2050   -0.0842    0.5029 C   0  0  0  0  0  0  0  0  0  0  0  0
    1.5296   -0.3655    0.2724 C   0  0  0  0  0  0  0  0  0  0  0  0
    1.7364   -0.7853   -1.0200 N   0  0  0  0  0  0  0  0  0  0  0  0
    0.5474   -0.7612   -1.5728 C   0  0  0  0  0  0  0  0  0  0  0  0
   -0.4239   -0.3447   -0.7056 N   0  0  0  0  0  0  0  0  0  0  0  0
   -1.8364   -0.2368   -1.0040 C   0  0  0  0  0  0  0  0  0  0  0  0
    0.1134    2.5048    1.5907 H   0  0  0  0  0  0  0  0  0  0  0  0
   -1.4686    2.1964    0.8701 H   0  0  0  0  0  0  0  0  0  0  0  0
   -1.2996    2.2357    2.6296 H   0  0  0  0  0  0  0  0  0  0  0  0
    0.1311    0.1939    2.5858 H   0  0  0  0  0  0  0  0  0  0  0  0
   -1.4344   -0.1412    1.8804 H   0  0  0  0  0  0  0  0  0  0  0  0
    2.3444   -0.2908    0.9781 H   0  0  0  0  0  0  0  0  0  0  0  0
    0.3123   -1.0349   -2.5916 H   0  0  0  0  0  0  0  0  0  0  0  0
   -2.4327   -0.8306   -0.3043 H   0  0  0  0  0  0  0  0  0  0  0  0
   -2.1793    0.8017   -0.9602 H   0  0  0  0  0  0  0  0  0  0  0  0
   -2.0120   -0.6166   -2.0124 H   0  0  0  0  0  0  0  0  0  0  0  0
  1  2  1  0  0  0  0
  1 11  1  0  0  0  0
  2 13  1  0  0  0  0
  2 12  1  0  0  0  0
  3  2  1  0  0  0  0
  4  3  2  0  0  0  0
  4 14  1  0  0  0  0
  5  4  1  0  0  0  0
  6  5  2  0  0  0  0
  6  7  1  0  0  0  0
  7  3  1  0  0  0  0
  8 17  1  0  0  0  0
  8  7  1  0  0  0  0
  8 16  1  0  0  0  0
  9  1  1  0  0  0  0
 10  1  1  0  0  0  0
 15  6  1  0  0  0  0
 18  8  1  0  0  0  0
M  END
