17
title
C -0.04369362 2.1626434 -0.7718898
N -0.026518205 0.71718496 -0.8084553
C -0.043150187 -0.049948286 -1.952131
C -0.018160248 -1.3730066 -1.5848407
C 0.015210179 -1.4163957 -0.1636954
C 0.00909436 -0.1168002 0.2887063
C 0.03486347 0.41813663 1.685363
O 0.060597137 -0.68299586 2.5743382
H 0.8511704 2.562454 -0.2811265
H -0.07125311 2.5434258 -1.7941484
H -0.92540896 2.5403614 -0.24143696
H -0.07130442 0.42207572 -2.9217422
H -0.023179496 -2.2161436 -2.258495
H 0.040607713 -2.2890627 0.46822727
H 0.9177072 1.0672255 1.8329806
H -0.84933954 1.0558441 1.869811
H 0.083860874 -0.3387434 3.4712968
