16
title
C -0.030004017 1.9454519 -0.69151664
N -0.08774184 0.49385297 -0.7369024
C -0.05698728 -0.29018277 -1.8674765
C -0.16630252 -1.5839193 -1.429215
N -0.2610492 -1.6179059 -0.060738154
C -0.21916233 -0.3574413 0.32901555
C -0.28377622 0.09897703 1.7514998
O 0.8786422 0.8195807 2.1675236
H 0.56932205 2.311208 -1.5281159
H -1.0302563 2.3875036 -0.75885224
H 0.44073623 2.25181 0.24327904
H 0.047284164 0.14265135 -2.8493118
H -0.17221983 -2.4876692 -2.019496
H -1.1173004 0.7912003 1.9145635
H -0.45971674 -0.79050773 2.3677406
H 1.6340818 0.23464179 2.0425298
