18
title
C -1.4184104 1.8136934 1.2071601
N -0.14959598 1.08283 1.3189857
C 0.27253795 0.4131625 0.15276064
C 1.0652705 0.80778545 -0.906224
C 1.1885512 -0.30394152 -1.7828336
C 0.46000016 -1.335492 -1.2394071
N -0.08923424 -0.90401137 -0.055664875
C -0.91018456 -1.6956524 0.8346379
H -1.4209052 2.5704098 0.40800974
H -2.229355 1.1083497 1.0025634
H -1.6345755 2.3053136 2.1606054
H 0.5813246 1.7060294 1.6386324
H 1.5070983 1.7856973 -1.0264122
H 1.7459472 -0.3427073 -2.7062209
H 0.28319895 -2.3405852 -1.5885704
H -0.5327876 -2.7208278 0.874059
H -0.8607532 -1.2540506 1.831458
H -1.9581568 -1.7224609 0.5116414
