title
 OpenBabel02282109573D

 18 18  0  0  0  0  0  0  0  0999 V2000
   -1.4184    1.8137    1.2072 C   0  0  0  0  0  0  0  0  0  0  0  0
   -0.1496    1.0828    1.3190 N   0  0  0  0  0  0  0  0  0  0  0  0
    0.2725    0.4132    0.1528 C   0  0  0  0  0  0  0  0  0  0  0  0
    1.0653    0.8078   -0.9062 C   0  0  0  0  0  0  0  0  0  0  0  0
    1.1886   -0.3039   -1.7828 C   0  0  0  0  0  0  0  0  0  0  0  0
    0.4600   -1.3355   -1.2394 C   0  0  0  0  0  0  0  0  0  0  0  0
   -0.0892   -0.9040   -0.0557 N   0  0  0  0  0  0  0  0  0  0  0  0
   -0.9102   -1.6957    0.8346 C   0  0  0  0  0  0  0  0  0  0  0  0
   -1.4209    2.5704    0.4080 H   0  0  0  0  0  0  0  0  0  0  0  0
   -2.2294    1.1083    1.0026 H   0  0  0  0  0  0  0  0  0  0  0  0
   -1.6346    2.3053    2.1606 H   0  0  0  0  0  0  0  0  0  0  0  0
    0.5813    1.7060    1.6386 H   0  0  0  0  0  0  0  0  0  0  0  0
    1.5071    1.7857   -1.0264 H   0  0  0  0  0  0  0  0  0  0  0  0
    1.7459   -0.3427   -2.7062 H   0  0  0  0  0  0  0  0  0  0  0  0
    0.2832   -2.3406   -1.5886 H   0  0  0  0  0  0  0  0  0  0  0  0
   -0.5328   -2.7208    0.8741 H   0  0  0  0  0  0  0  0  0  0  0  0
   -0.8608   -1.2541    1.8315 H   0  0  0  0  0  0  0  0  0  0  0  0
   -1.9582   -1.7225    0.5116 H   0  0  0  0  0  0  0  0  0  0  0  0
  1  2  1  0  0  0  0
  1 11  1  0  0  0  0
  2 12  1  0  0  0  0
  3  2  1  0  0  0  0
  4  3  2  0  0  0  0
  5  6  2  0  0  0  0
  5  4  1  0  0  0  0
  6  7  1  0  0  0  0
  7  3  1  0  0  0  0
  7  8  1  0  0  0  0
  8 16  1  0  0  0  0
  8 17  1  0  0  0  0
  9  1  1  0  0  0  0
 10  1  1  0  0  0  0
 13  4  1  0  0  0  0
 14  5  1  0  0  0  0
 15  6  1  0  0  0  0
 18  8  1  0  0  0  0
M  END
