17
title
C -1.1763636 0.7753376 -2.2678237
O -0.70753306 1.0602347 -0.9624494
C -0.13814384 0.011899818 -0.32264835
C 0.11374598 -1.2939059 -0.67953336
C 0.7515382 -1.8961775 0.44879156
C 0.85901767 -0.9456593 1.42895
N 0.3037817 0.23083948 0.9547004
C 0.25849396 1.501845 1.6448594
H -0.35421878 0.45592737 -2.921072
H -1.940794 -0.011980962 -2.2497246
H -1.6107246 1.699513 -2.6519902
H -0.12924814 -1.762568 -1.6187252
H 1.0833465 -2.9203272 0.52272075
H 1.2695688 -0.9866172 2.424778
H 1.0572228 2.1748962 1.3119341
H -0.700574 1.9927835 1.4653107
H 0.37099618 1.3267971 2.71658
