title
 OpenBabel02282109573D

 17 17  0  0  0  0  0  0  0  0999 V2000
   -1.1764    0.7753   -2.2678 C   0  0  0  0  0  0  0  0  0  0  0  0
   -0.7075    1.0602   -0.9624 O   0  0  0  0  0  0  0  0  0  0  0  0
   -0.1381    0.0119   -0.3226 C   0  0  0  0  0  0  0  0  0  0  0  0
    0.1137   -1.2939   -0.6795 C   0  0  0  0  0  0  0  0  0  0  0  0
    0.7515   -1.8962    0.4488 C   0  0  0  0  0  0  0  0  0  0  0  0
    0.8590   -0.9457    1.4289 C   0  0  0  0  0  0  0  0  0  0  0  0
    0.3038    0.2308    0.9547 N   0  0  0  0  0  0  0  0  0  0  0  0
    0.2585    1.5018    1.6449 C   0  0  0  0  0  0  0  0  0  0  0  0
   -0.3542    0.4559   -2.9211 H   0  0  0  0  0  0  0  0  0  0  0  0
   -1.9408   -0.0120   -2.2497 H   0  0  0  0  0  0  0  0  0  0  0  0
   -1.6107    1.6995   -2.6520 H   0  0  0  0  0  0  0  0  0  0  0  0
   -0.1292   -1.7626   -1.6187 H   0  0  0  0  0  0  0  0  0  0  0  0
    1.0833   -2.9203    0.5227 H   0  0  0  0  0  0  0  0  0  0  0  0
    1.2696   -0.9866    2.4248 H   0  0  0  0  0  0  0  0  0  0  0  0
    1.0572    2.1749    1.3119 H   0  0  0  0  0  0  0  0  0  0  0  0
   -0.7006    1.9928    1.4653 H   0  0  0  0  0  0  0  0  0  0  0  0
    0.3710    1.3268    2.7166 H   0  0  0  0  0  0  0  0  0  0  0  0
  1 10  1  0  0  0  0
  1  2  1  0  0  0  0
  2  3  1  0  0  0  0
  3  7  1  0  0  0  0
  4  3  2  0  0  0  0
  4  5  1  0  0  0  0
  5 13  1  0  0  0  0
  5  6  2  0  0  0  0
  6 14  1  0  0  0  0
  7  6  1  0  0  0  0
  7  8  1  0  0  0  0
  8 17  1  0  0  0  0
  9  1  1  0  0  0  0
 11  1  1  0  0  0  0
 12  4  1  0  0  0  0
 15  8  1  0  0  0  0
 16  8  1  0  0  0  0
M  END
