title
 OpenBabel02282109573D

 16 16  0  0  0  0  0  0  0  0999 V2000
   -0.7085    2.2374   -1.2143 C   0  0  0  0  0  0  0  0  0  0  0  0
   -0.6780    0.8105   -1.1707 O   0  0  0  0  0  0  0  0  0  0  0  0
   -0.0590    0.2965   -0.0977 C   0  0  0  0  0  0  0  0  0  0  0  0
    0.4989    0.9471    0.8903 N   0  0  0  0  0  0  0  0  0  0  0  0
    0.9838   -0.0481    1.7232 C   0  0  0  0  0  0  0  0  0  0  0  0
    0.7080   -1.2828    1.2166 C   0  0  0  0  0  0  0  0  0  0  0  0
    0.0260   -1.0581    0.0247 N   0  0  0  0  0  0  0  0  0  0  0  0
   -0.4954   -2.0514   -0.8913 C   0  0  0  0  0  0  0  0  0  0  0  0
    0.3061    2.6460   -1.2280 H   0  0  0  0  0  0  0  0  0  0  0  0
   -1.2368    2.4953   -2.1329 H   0  0  0  0  0  0  0  0  0  0  0  0
   -1.2343    2.6399   -0.3437 H   0  0  0  0  0  0  0  0  0  0  0  0
    1.5035    0.1956    2.6368 H   0  0  0  0  0  0  0  0  0  0  0  0
    0.9162   -2.2817    1.5620 H   0  0  0  0  0  0  0  0  0  0  0  0
   -1.2719   -2.6575   -0.4131 H   0  0  0  0  0  0  0  0  0  0  0  0
   -0.9284   -1.5376   -1.7495 H   0  0  0  0  0  0  0  0  0  0  0  0
    0.3032   -2.7135   -1.2403 H   0  0  0  0  0  0  0  0  0  0  0  0
  1  2  1  0  0  0  0
  1 11  1  0  0  0  0
  2  3  1  0  0  0  0
  3  7  1  0  0  0  0
  3  4  2  0  0  0  0
  4  5  1  0  0  0  0
  5 12  1  0  0  0  0
  6 13  1  0  0  0  0
  6  5  2  0  0  0  0
  7  6  1  0  0  0  0
  8 14  1  0  0  0  0
  8  7  1  0  0  0  0
  9  1  1  0  0  0  0
 10  1  1  0  0  0  0
 15  8  1  0  0  0  0
 16  8  1  0  0  0  0
M  END
