16
title
C -0.70848405 2.2373512 -1.214275
O -0.67802715 0.8105072 -1.170703
C -0.059042975 0.29649606 -0.09773158
N 0.49885446 0.9471231 0.89033186
C 0.9838036 -0.0480902 1.7231706
C 0.7080087 -1.2828093 1.2166079
N 0.026022566 -1.0580673 0.02467168
C -0.495396 -2.0513527 -0.8913246
H 0.30612057 2.6459894 -1.2279936
H -1.2368484 2.4953384 -2.1329
H -1.2343147 2.6398985 -0.3436604
H 1.5034775 0.19564177 2.636828
H 0.91621464 -2.2817147 1.5620371
H -1.271928 -2.6574838 -0.41309357
H -0.92839366 -1.5375819 -1.7494589
H 0.30322605 -2.7134953 -1.2403342
