17
title
C -0.045746926 2.3098428 -0.8229614
C -0.02778498 0.81107885 -0.83116907
C -0.042951953 -0.0048996005 -1.9397458
N -0.017000213 -1.3092443 -1.5138652
C 0.014464972 -1.3466574 -0.14289081
C 0.009212687 -0.04977224 0.31270885
C 0.037542466 0.37861964 1.7453699
O 0.059086055 -0.7773451 2.5712814
H 0.8435056 2.7292595 -0.335217
H -0.07876931 2.7091582 -1.840912
H -0.91668546 2.7076435 -0.28654528
H -0.07002463 0.2416233 -2.989642
H -0.02206401 -2.1146028 -2.1133177
H 0.037667505 -2.275068 0.40144157
H 0.92210615 1.0123754 1.9342268
H -0.8430687 1.0059106 1.9707017
H 0.08425459 -0.4868342 3.4869459
