title
 OpenBabel02282109573D

 16 16  0  0  0  0  0  0  0  0999 V2000
   -0.0424    2.3275   -0.8198 C   0  0  0  0  0  0  0  0  0  0  0  0
   -0.0273    0.8304   -0.8195 C   0  0  0  0  0  0  0  0  0  0  0  0
   -0.0430    0.0029   -1.8980 C   0  0  0  0  0  0  0  0  0  0  0  0
   -0.0213   -1.3016   -1.5172 O   0  0  0  0  0  0  0  0  0  0  0  0
    0.0092   -1.3099   -0.1571 C   0  0  0  0  0  0  0  0  0  0  0  0
    0.0073   -0.0422    0.3297 C   0  0  0  0  0  0  0  0  0  0  0  0
    0.0353    0.3645    1.7671 C   0  0  0  0  0  0  0  0  0  0  0  0
    0.0690   -0.8053    2.5686 O   0  0  0  0  0  0  0  0  0  0  0  0
    0.8458    2.7426   -0.3283 H   0  0  0  0  0  0  0  0  0  0  0  0
   -0.0694    2.7206   -1.8398 H   0  0  0  0  0  0  0  0  0  0  0  0
   -0.9159    2.7248   -0.2886 H   0  0  0  0  0  0  0  0  0  0  0  0
   -0.0686    0.1842   -2.9604 H   0  0  0  0  0  0  0  0  0  0  0  0
    0.0298   -2.2755    0.3167 H   0  0  0  0  0  0  0  0  0  0  0  0
    0.9148    1.0036    1.9580 H   0  0  0  0  0  0  0  0  0  0  0  0
   -0.8508    0.9806    1.9989 H   0  0  0  0  0  0  0  0  0  0  0  0
    0.0834   -0.5357    3.4910 H   0  0  0  0  0  0  0  0  0  0  0  0
  1  2  1  0  0  0  0
  1  9  1  0  0  0  0
  1 11  1  0  0  0  0
  2  6  1  0  0  0  0
  3  4  1  0  0  0  0
  3  2  2  0  0  0  0
  4  5  1  0  0  0  0
  5 13  1  0  0  0  0
  5  6  2  0  0  0  0
  6  7  1  0  0  0  0
  7 14  1  0  0  0  0
  7 15  1  0  0  0  0
  7  8  1  0  0  0  0
  8 16  1  0  0  0  0
 10  1  1  0  0  0  0
 12  3  1  0  0  0  0
M  END
