16
title
C -0.042448144 2.3275309 -0.8197835
C -0.02728261 0.830447 -0.8194514
C -0.043013204 0.0028778121 -1.8979712
O -0.021291057 -1.3016438 -1.5172294
C 0.009210054 -1.3098724 -0.15712674
C 0.0072960425 -0.042173702 0.32974455
C 0.03527118 0.3644616 1.76707
O 0.06901179 -0.8052818 2.5686424
H 0.8457799 2.7425897 -0.32825044
H -0.069386296 2.7205725 -1.8397781
H -0.91586065 2.7247841 -0.28859314
H -0.06862828 0.18418483 -2.9604344
H 0.029777816 -2.2754579 0.31666836
H 0.91484064 1.0035758 1.9579668
H -0.850846 0.98058283 1.9988718
H 0.083357394 -0.53565043 3.4910057
