18
title
C -1.1585058 1.9600751 1.4909482
C -1.2358261 0.42917782 1.3548965
C -0.5010495 -0.10677521 0.1605495
C -1.0442872 -0.5377293 -1.0090957
O -0.08249332 -0.94441295 -1.8795586
C 1.1073772 -0.76956177 -1.2448063
C 0.9294714 -0.26166338 0.0032696642
C 1.9943503 0.05156399 1.0085093
H -0.12317647 2.3012304 1.5880594
H -1.5865735 2.4495146 0.6108029
H -1.7080319 2.3016307 2.3740664
H -0.8393433 -0.032511372 2.2684038
H -2.2875593 0.12696 1.29466
H -2.060477 -0.6210265 -1.3599045
H 1.9843107 -1.0552964 -1.8032377
H 2.0490448 1.124123 1.2282063
H 1.8121136 -0.46012866 1.9607698
H 2.9783864 -0.2612813 0.6480909
