title
 OpenBabel02282109573D

 17 17  0  0  0  0  0  0  0  0999 V2000
   -1.1776    1.9390    1.5181 C   0  0  0  0  0  0  0  0  0  0  0  0
   -1.2281    0.4081    1.3620 C   0  0  0  0  0  0  0  0  0  0  0  0
   -0.5047   -0.0993    0.1499 C   0  0  0  0  0  0  0  0  0  0  0  0
   -1.0352   -0.5026   -1.0363 C   0  0  0  0  0  0  0  0  0  0  0  0
   -0.0743   -0.9008   -1.9024 O   0  0  0  0  0  0  0  0  0  0  0  0
    1.1235   -0.7408   -1.2594 C   0  0  0  0  0  0  0  0  0  0  0  0
    0.9231   -0.2602   -0.0002 C   0  0  0  0  0  0  0  0  0  0  0  0
    1.8644   -0.0539    1.0217 N   0  0  0  0  0  0  0  0  0  0  0  0
   -0.1478    2.3071    1.5868 H   0  0  0  0  0  0  0  0  0  0  0  0
   -1.6406    2.4325    0.6582 H   0  0  0  0  0  0  0  0  0  0  0  0
   -1.7046    2.2587    2.4228 H   0  0  0  0  0  0  0  0  0  0  0  0
   -0.8026   -0.0611    2.2582 H   0  0  0  0  0  0  0  0  0  0  0  0
   -2.2754    0.0893    1.3172 H   0  0  0  0  0  0  0  0  0  0  0  0
   -2.0503   -0.5681   -1.3945 H   0  0  0  0  0  0  0  0  0  0  0  0
    2.0017   -1.0253   -1.8143 H   0  0  0  0  0  0  0  0  0  0  0  0
    2.8174   -0.0574    0.6812 H   0  0  0  0  0  0  0  0  0  0  0  0
    1.7032    0.8037    1.5349 H   0  0  0  0  0  0  0  0  0  0  0  0
  1  9  1  0  0  0  0
  1 11  1  0  0  0  0
  2  1  1  0  0  0  0
  2 12  1  0  0  0  0
  3  2  1  0  0  0  0
  4  3  2  0  0  0  0
  5  6  1  0  0  0  0
  5  4  1  0  0  0  0
  6  7  2  0  0  0  0
  7  3  1  0  0  0  0
  7  8  1  0  0  0  0
  8 17  1  0  0  0  0
 10  1  1  0  0  0  0
 13  2  1  0  0  0  0
 14  4  1  0  0  0  0
 15  6  1  0  0  0  0
 16  8  1  0  0  0  0
M  END
