title
 OpenBabel02282109573D

 17 17  0  0  0  0  0  0  0  0999 V2000
   -0.6574    2.3797    1.3066 C   0  0  0  0  0  0  0  0  0  0  0  0
   -0.7896    0.9387    1.1995 N   0  0  0  0  0  0  0  0  0  0  0  0
   -0.1080    0.3159    0.1441 C   0  0  0  0  0  0  0  0  0  0  0  0
    0.5162    0.8953   -0.9410 C   0  0  0  0  0  0  0  0  0  0  0  0
    0.9956   -0.1292   -1.7348 N   0  0  0  0  0  0  0  0  0  0  0  0
    0.6802   -1.3394   -1.1813 C   0  0  0  0  0  0  0  0  0  0  0  0
   -0.0019   -1.1062   -0.0081 C   0  0  0  0  0  0  0  0  0  0  0  0
   -0.5213   -2.1037    0.8659 N   0  0  0  0  0  0  0  0  0  0  0  0
    0.3887    2.7277    1.3569 H   0  0  0  0  0  0  0  0  0  0  0  0
   -1.1224    2.8539    0.4349 H   0  0  0  0  0  0  0  0  0  0  0  0
   -1.1848    2.7291    2.1980 H   0  0  0  0  0  0  0  0  0  0  0  0
   -0.6064    0.4724    2.0793 H   0  0  0  0  0  0  0  0  0  0  0  0
    0.6563    1.9267   -1.2162 H   0  0  0  0  0  0  0  0  0  0  0  0
    1.4758   -0.0012   -2.6060 H   0  0  0  0  0  0  0  0  0  0  0  0
    0.9548   -2.2707   -1.6490 H   0  0  0  0  0  0  0  0  0  0  0  0
    0.1067   -2.3026    1.6394 H   0  0  0  0  0  0  0  0  0  0  0  0
   -1.4019   -1.7977    1.2683 H   0  0  0  0  0  0  0  0  0  0  0  0
  1  9  1  0  0  0  0
  1 11  1  0  0  0  0
  2  1  1  0  0  0  0
  2 12  1  0  0  0  0
  3  2  1  0  0  0  0
  4  3  2  0  0  0  0
  5  6  1  0  0  0  0
  5  4  1  0  0  0  0
  6  7  2  0  0  0  0
  7  3  1  0  0  0  0
  7  8  1  0  0  0  0
  8 17  1  0  0  0  0
  8 16  1  0  0  0  0
 10  1  1  0  0  0  0
 13  4  1  0  0  0  0
 14  5  1  0  0  0  0
 15  6  1  0  0  0  0
M  END
