16
title
C -0.77610344 2.4097939 -1.1838602
N -0.6372876 0.96612805 -1.2682295
C -0.06293586 0.32559738 -0.16942495
C 0.57726556 0.8342846 0.92220944
O 1.0180105 -0.17856106 1.7277218
C 0.6512547 -1.3492374 1.1333202
C -0.0126068285 -1.1079073 -0.029342119
N -0.6356434 -1.9839258 -0.93877244
H 0.21819177 2.8683965 -1.1467702
H -1.2832365 2.7794244 -2.078196
H -1.3350209 2.746438 -0.29508865
H -1.4961969 0.5058363 -1.5458113
H 0.801274 1.8330791 1.2532364
H 0.9199646 -2.2532384 1.6542436
H -0.45350206 -2.956461 -0.7235733
H -0.33163318 -1.8027594 -1.8904383
