15
title
C 1.4758159 2.272628 0.020156123
O 1.4164667 0.8622558 -0.026414542
C 0.16136605 0.32967257 0.005326662
C -1.0812925 0.92304975 0.0755353
N -2.00571 -0.09673578 0.0756999
C -1.3755935 -1.3207244 0.0093761
C -0.02396435 -1.0802594 -0.036286373
O 0.97189474 -2.0088372 -0.10947272
H 2.5310452 2.5495617 -0.012381692
H 0.95487124 2.7198548 -0.8378926
H 1.0262241 2.6579666 0.94593567
H -1.3789657 1.9558681 0.122437835
H -2.9985003 0.03273689 0.1259234
H -1.9236788 -2.246987 -0.0011094747
H 1.8047636 -1.5237952 -0.12106506
