title
 OpenBabel02282109573D

 16 16  0  0  0  0  0  0  0  0999 V2000
    1.4276    2.2934   -0.0458 C   0  0  0  0  0  0  0  0  0  0  0  0
    1.4203    0.8779   -0.0363 O   0  0  0  0  0  0  0  0  0  0  0  0
    0.1920    0.3115   -0.0064 C   0  0  0  0  0  0  0  0  0  0  0  0
   -1.0474    0.8808    0.0160 C   0  0  0  0  0  0  0  0  0  0  0  0
   -1.9965   -0.1047    0.0430 O   0  0  0  0  0  0  0  0  0  0  0  0
   -1.3367   -1.2900    0.0371 C   0  0  0  0  0  0  0  0  0  0  0  0
    0.0107   -1.1161    0.0076 C   0  0  0  0  0  0  0  0  0  0  0  0
    1.0925   -2.1475   -0.0082 C   0  0  0  0  0  0  0  0  0  0  0  0
    2.4730    2.6049   -0.0700 H   0  0  0  0  0  0  0  0  0  0  0  0
    0.9081    2.6851   -0.9310 H   0  0  0  0  0  0  0  0  0  0  0  0
    0.9458    2.6969    0.8552 H   0  0  0  0  0  0  0  0  0  0  0  0
   -1.4116    1.8922    0.0168 H   0  0  0  0  0  0  0  0  0  0  0  0
   -1.9556   -2.1727    0.0565 H   0  0  0  0  0  0  0  0  0  0  0  0
    1.7155   -2.0593   -0.9052 H   0  0  0  0  0  0  0  0  0  0  0  0
    1.7605   -2.0386    0.8533 H   0  0  0  0  0  0  0  0  0  0  0  0
    0.6726   -3.1566    0.0143 H   0  0  0  0  0  0  0  0  0  0  0  0
  1  2  1  0  0  0  0
  1 11  1  0  0  0  0
  2  3  1  0  0  0  0
  3  7  1  0  0  0  0
  3  4  2  0  0  0  0
  4 12  1  0  0  0  0
  4  5  1  0  0  0  0
  6  5  1  0  0  0  0
  6 13  1  0  0  0  0
  7  6  2  0  0  0  0
  8  7  1  0  0  0  0
  8 16  1  0  0  0  0
  8 15  1  0  0  0  0
  9  1  1  0  0  0  0
 10  1  1  0  0  0  0
 14  8  1  0  0  0  0
M  END
