15
title
C 1.4520905 2.2805903 0.019010972
O 1.4235421 0.86564463 -0.022297824
C 0.18396579 0.3174751 -0.004118115
C -1.0546607 0.8839842 0.0467498
O -2.0028787 -0.093869835 0.061134625
C -1.3489414 -1.294432 0.016942991
C -0.00048614378 -1.1083356 -0.024271006
N 1.0460947 -2.0310438 -0.1414532
H 2.5016181 2.5778522 0.0029473437
H 0.9364151 2.7094233 -0.85068345
H 0.97726476 2.6577363 0.9349931
H -1.4107858 1.8981632 0.07991581
H -1.9712037 -2.173122 0.019108878
H 0.85877216 -2.9118283 0.31877002
H 1.9184226 -1.6451806 0.19694434
