title
 OpenBabel02282109573D

 16 16  0  0  0  0  0  0  0  0999 V2000
   -0.7940    2.1982    0.1301 N   0  0  0  0  0  0  0  0  0  0  0  0
   -0.8348    0.7894    0.0080 C   0  0  0  0  0  0  0  0  0  0  0  0
   -1.9439   -0.0277   -0.0229 C   0  0  0  0  0  0  0  0  0  0  0  0
   -1.4960   -1.3325   -0.0531 N   0  0  0  0  0  0  0  0  0  0  0  0
   -0.1289   -1.3541   -0.0548 C   0  0  0  0  0  0  0  0  0  0  0  0
    0.3190   -0.0534   -0.0118 C   0  0  0  0  0  0  0  0  0  0  0  0
    1.7419    0.4002    0.0364 C   0  0  0  0  0  0  0  0  0  0  0  0
    2.5883   -0.7405   -0.0027 O   0  0  0  0  0  0  0  0  0  0  0  0
   -0.1747    2.6189   -0.5547 H   0  0  0  0  0  0  0  0  0  0  0  0
   -1.7115    2.6107    0.0102 H   0  0  0  0  0  0  0  0  0  0  0  0
   -2.9959    0.2081   -0.0172 H   0  0  0  0  0  0  0  0  0  0  0  0
   -2.0867   -2.1432   -0.0756 H   0  0  0  0  0  0  0  0  0  0  0  0
    0.4280   -2.2749   -0.0798 H   0  0  0  0  0  0  0  0  0  0  0  0
    1.9608    1.0745   -0.8126 H   0  0  0  0  0  0  0  0  0  0  0  0
    1.9147    0.9933    0.9508 H   0  0  0  0  0  0  0  0  0  0  0  0
    3.4960   -0.4382    0.0880 H   0  0  0  0  0  0  0  0  0  0  0  0
  2  1  1  0  0  0  0
  3 11  1  0  0  0  0
  3  2  2  0  0  0  0
  4  3  1  0  0  0  0
  5  4  1  0  0  0  0
  5  6  2  0  0  0  0
  6  2  1  0  0  0  0
  6  7  1  0  0  0  0
  7 15  1  0  0  0  0
  8  7  1  0  0  0  0
  8 16  1  0  0  0  0
  9  1  1  0  0  0  0
 10  1  1  0  0  0  0
 12  4  1  0  0  0  0
 13  5  1  0  0  0  0
 14  7  1  0  0  0  0
M  END
