14
title
O 1.5724858 2.1988153 0.0701503
C 1.631469 0.7826197 0.0035445117
C 0.23533851 0.25391617 0.0068527525
C -0.92783254 0.95455503 0.061679844
O -2.001293 0.12558185 0.044972192
C -1.5198629 -1.1525444 -0.022848193
C -0.15882069 -1.1242065 -0.04830538
O 0.74996775 -2.1368537 -0.112392716
H 2.473042 2.5343838 0.067382686
H 2.1543565 0.4438054 -0.9061837
H 2.1893728 0.36231637 0.85671246
H -1.1349735 2.0090253 0.113915086
H -2.2505143 -1.9432528 -0.044571828
H 0.28537554 -2.9791431 -0.14158623
