title
 OpenBabel02282109573D

 17 17  0  0  0  0  0  0  0  0999 V2000
    1.7184    1.9125    0.3497 C   0  0  0  0  0  0  0  0  0  0  0  0
    1.6878    0.3823    0.3075 C   0  0  0  0  0  0  0  0  0  0  0  0
    0.3406   -0.1638    0.3288 N   0  0  0  0  0  0  0  0  0  0  0  0
   -0.3531   -0.6001    1.4471 C   0  0  0  0  0  0  0  0  0  0  0  0
   -1.6085   -0.9799    1.0518 C   0  0  0  0  0  0  0  0  0  0  0  0
   -1.7062   -0.7663   -0.3579 C   0  0  0  0  0  0  0  0  0  0  0  0
   -0.4893   -0.2630   -0.7526 C   0  0  0  0  0  0  0  0  0  0  0  0
    0.0057    0.1347   -1.9577 O   0  0  0  0  0  0  0  0  0  0  0  0
    2.7527    2.2711    0.3526 H   0  0  0  0  0  0  0  0  0  0  0  0
    1.2124    2.3295   -0.5250 H   0  0  0  0  0  0  0  0  0  0  0  0
    1.2199    2.2868    1.2487 H   0  0  0  0  0  0  0  0  0  0  0  0
    2.1882    0.0215   -0.5958 H   0  0  0  0  0  0  0  0  0  0  0  0
    2.2211   -0.0373    1.1657 H   0  0  0  0  0  0  0  0  0  0  0  0
    0.1262   -0.6045    2.4125 H   0  0  0  0  0  0  0  0  0  0  0  0
   -2.3804   -1.3769    1.6929 H   0  0  0  0  0  0  0  0  0  0  0  0
   -2.5547   -0.9611   -0.9957 H   0  0  0  0  0  0  0  0  0  0  0  0
   -0.6604   -0.0450   -2.6275 H   0  0  0  0  0  0  0  0  0  0  0  0
  1  9  1  0  0  0  0
  1 11  1  0  0  0  0
  2  3  1  0  0  0  0
  2  1  1  0  0  0  0
  2 13  1  0  0  0  0
  3  4  1  0  0  0  0
  4 14  1  0  0  0  0
  5  4  2  0  0  0  0
  5 15  1  0  0  0  0
  6  5  1  0  0  0  0
  7  6  2  0  0  0  0
  7  3  1  0  0  0  0
  8  7  1  0  0  0  0
 10  1  1  0  0  0  0
 12  2  1  0  0  0  0
 16  6  1  0  0  0  0
 17  8  1  0  0  0  0
M  END
