18
title
C -1.2754375 1.9352034 1.2797006
C -1.1005622 0.41486257 1.3276038
N -0.43945011 -0.12219572 0.14792663
C -1.0571251 -0.44004178 -1.046359
C -0.05598672 -0.84254616 -1.8856176
N 1.1602594 -0.7791981 -1.2478658
C 0.9033229 -0.34103447 -0.03160518
C 1.9291922 -0.11795962 1.0300953
H -0.30702445 2.439333 1.2129786
H -1.8707992 2.2307022 0.4110887
H -1.784684 2.2867181 2.182373
H -0.5153467 0.12673044 2.2053454
H -2.0742514 -0.076536775 1.4209546
H -2.125116 -0.35610306 -1.1665579
H -0.13979812 -1.1803555 -2.9074888
H 1.973409 0.9272753 1.358102
H 1.748552 -0.73391014 1.9192991
H 2.9026024 -0.38873225 0.6194819
