title
 OpenBabel02282109573D

 18 18  0  0  0  0  0  0  0  0999 V2000
   -1.1773    1.9326    1.3343 C   0  0  0  0  0  0  0  0  0  0  0  0
   -1.1151    0.4026    1.3161 C   0  0  0  0  0  0  0  0  0  0  0  0
   -0.4279   -0.1317    0.1506 N   0  0  0  0  0  0  0  0  0  0  0  0
   -1.0176   -0.5003   -1.0270 C   0  0  0  0  0  0  0  0  0  0  0  0
   -0.1454   -0.8952   -1.9234 N   0  0  0  0  0  0  0  0  0  0  0  0
    1.0749   -0.7741   -1.3014 C   0  0  0  0  0  0  0  0  0  0  0  0
    0.9373   -0.3038   -0.0191 C   0  0  0  0  0  0  0  0  0  0  0  0
    1.9449   -0.0284    1.0452 C   0  0  0  0  0  0  0  0  0  0  0  0
   -0.1749    2.3693    1.3540 H   0  0  0  0  0  0  0  0  0  0  0  0
   -1.6931    2.3085    0.4463 H   0  0  0  0  0  0  0  0  0  0  0  0
   -1.7180    2.2780    2.2209 H   0  0  0  0  0  0  0  0  0  0  0  0
   -0.6143    0.0301    2.2150 H   0  0  0  0  0  0  0  0  0  0  0  0
   -2.1263   -0.0160    1.3207 H   0  0  0  0  0  0  0  0  0  0  0  0
   -2.0901   -0.4622   -1.1563 H   0  0  0  0  0  0  0  0  0  0  0  0
    1.9937   -1.0394   -1.8040 H   0  0  0  0  0  0  0  0  0  0  0  0
    1.9693    1.0262    1.3463 H   0  0  0  0  0  0  0  0  0  0  0  0
    1.7688   -0.6213    1.9517 H   0  0  0  0  0  0  0  0  0  0  0  0
    2.9399   -0.2863    0.6748 H   0  0  0  0  0  0  0  0  0  0  0  0
  1  9  1  0  0  0  0
  1 11  1  0  0  0  0
  2 13  1  0  0  0  0
  2  1  1  0  0  0  0
  2 12  1  0  0  0  0
  3  2  1  0  0  0  0
  4  3  1  0  0  0  0
  5  6  1  0  0  0  0
  5  4  2  0  0  0  0
  6  7  2  0  0  0  0
  7  3  1  0  0  0  0
  7  8  1  0  0  0  0
  8 16  1  0  0  0  0
  8 17  1  0  0  0  0
 10  1  1  0  0  0  0
 14  4  1  0  0  0  0
 15  6  1  0  0  0  0
 18  8  1  0  0  0  0
M  END
