title
 OpenBabel02282109573D

 16 16  0  0  0  0  0  0  0  0999 V2000
   -1.2609    1.9513    1.3473 C   0  0  0  0  0  0  0  0  0  0  0  0
   -1.0608    0.4341    1.3630 C   0  0  0  0  0  0  0  0  0  0  0  0
   -0.4380   -0.0735    0.1548 N   0  0  0  0  0  0  0  0  0  0  0  0
   -1.0431   -0.2895   -1.0815 C   0  0  0  0  0  0  0  0  0  0  0  0
   -0.0981   -0.7335   -1.9351 C   0  0  0  0  0  0  0  0  0  0  0  0
    1.0986   -0.7860   -1.2258 N   0  0  0  0  0  0  0  0  0  0  0  0
    0.9202   -0.3748    0.0876 C   0  0  0  0  0  0  0  0  0  0  0  0
    1.7474   -0.2950    0.9787 O   0  0  0  0  0  0  0  0  0  0  0  0
   -0.2993    2.4627    1.2504 H   0  0  0  0  0  0  0  0  0  0  0  0
   -1.9001    2.2604    0.5140 H   0  0  0  0  0  0  0  0  0  0  0  0
   -1.7336    2.2800    2.2781 H   0  0  0  0  0  0  0  0  0  0  0  0
   -0.3976    0.1480    2.1835 H   0  0  0  0  0  0  0  0  0  0  0  0
   -2.0177   -0.0804    1.5065 H   0  0  0  0  0  0  0  0  0  0  0  0
   -2.0946   -0.1174   -1.2363 H   0  0  0  0  0  0  0  0  0  0  0  0
   -0.1677   -1.0173   -2.9704 H   0  0  0  0  0  0  0  0  0  0  0  0
    1.9947   -1.0772   -1.5726 H   0  0  0  0  0  0  0  0  0  0  0  0
  1  2  1  0  0  0  0
  1 11  1  0  0  0  0
  2 13  1  0  0  0  0
  2 12  1  0  0  0  0
  3  2  1  0  0  0  0
  4  3  1  0  0  0  0
  5  6  1  0  0  0  0
  5  4  2  0  0  0  0
  6  7  1  0  0  0  0
  7  3  1  0  0  0  0
  7  8  2  0  0  0  0
  9  1  1  0  0  0  0
 10  1  1  0  0  0  0
 14  4  1  0  0  0  0
 15  5  1  0  0  0  0
 16  6  1  0  0  0  0
M  END
