15
title
C 1.7366858 2.0341914 0.41080502
C 1.7095876 0.51477057 0.23469819
N 0.36984345 -0.044889566 0.30318737
C -0.41017285 -0.2611794 1.4396508
C -1.5802137 -0.7538908 1.0176941
O -1.5743028 -0.85298234 -0.35611242
C -0.35068908 -0.4037276 -0.8172468
O -0.029617574 -0.35885167 -1.9758393
H 2.765911 2.4006042 0.35020533
H 1.1505975 2.5224903 -0.37252027
H 1.3279314 2.330997 1.3818877
H 2.099145 0.23647337 -0.7475624
H 2.329844 0.024882142 0.9934947
H -0.051923897 -0.052401062 2.4331882
H -2.472499 -1.0716784 1.526577
