title
 OpenBabel02282109573D

 15 15  0  0  0  0  0  0  0  0999 V2000
    1.7367    2.0342    0.4108 C   0  0  0  0  0  0  0  0  0  0  0  0
    1.7096    0.5148    0.2347 C   0  0  0  0  0  0  0  0  0  0  0  0
    0.3698   -0.0449    0.3032 N   0  0  0  0  0  0  0  0  0  0  0  0
   -0.4102   -0.2612    1.4397 C   0  0  0  0  0  0  0  0  0  0  0  0
   -1.5802   -0.7539    1.0177 C   0  0  0  0  0  0  0  0  0  0  0  0
   -1.5743   -0.8530   -0.3561 O   0  0  0  0  0  0  0  0  0  0  0  0
   -0.3507   -0.4037   -0.8172 C   0  0  0  0  0  0  0  0  0  0  0  0
   -0.0296   -0.3589   -1.9758 O   0  0  0  0  0  0  0  0  0  0  0  0
    2.7659    2.4006    0.3502 H   0  0  0  0  0  0  0  0  0  0  0  0
    1.1506    2.5225   -0.3725 H   0  0  0  0  0  0  0  0  0  0  0  0
    1.3279    2.3310    1.3819 H   0  0  0  0  0  0  0  0  0  0  0  0
    2.0991    0.2365   -0.7476 H   0  0  0  0  0  0  0  0  0  0  0  0
    2.3298    0.0249    0.9935 H   0  0  0  0  0  0  0  0  0  0  0  0
   -0.0519   -0.0524    2.4332 H   0  0  0  0  0  0  0  0  0  0  0  0
   -2.4725   -1.0717    1.5266 H   0  0  0  0  0  0  0  0  0  0  0  0
  1 11  1  0  0  0  0
  2  3  1  0  0  0  0
  2  1  1  0  0  0  0
  2 13  1  0  0  0  0
  3  4  1  0  0  0  0
  4 14  1  0  0  0  0
  5  4  2  0  0  0  0
  5 15  1  0  0  0  0
  6  5  1  0  0  0  0
  7  6  1  0  0  0  0
  7  3  1  0  0  0  0
  8  7  2  0  0  0  0
  9  1  1  0  0  0  0
 10  1  1  0  0  0  0
 12  2  1  0  0  0  0
M  END
