title
 OpenBabel02282109573D

 15 16  0  0  0  0  0  0  0  0999 V2000
   -0.7682    1.6876    0.0165 C   0  0  0  0  0  0  0  0  0  0  0  0
    0.7060    2.0745    0.0044 C   0  0  0  0  0  0  0  0  0  0  0  0
    1.5086    0.9932   -0.0091 C   0  0  0  0  0  0  0  0  0  0  0  0
    0.6877   -0.2108   -0.0077 C   0  0  0  0  0  0  0  0  0  0  0  0
    0.7353   -1.5847   -0.0156 C   0  0  0  0  0  0  0  0  0  0  0  0
   -0.5736   -2.0198   -0.0054 N   0  0  0  0  0  0  0  0  0  0  0  0
   -1.4495   -0.9507    0.0089 C   0  0  0  0  0  0  0  0  0  0  0  0
   -0.6863    0.1853    0.0076 C   0  0  0  0  0  0  0  0  0  0  0  0
   -1.2805    2.0900    0.9010 H   0  0  0  0  0  0  0  0  0  0  0  0
   -1.2974    2.0995   -0.8537 H   0  0  0  0  0  0  0  0  0  0  0  0
    1.0355    3.1062    0.0068 H   0  0  0  0  0  0  0  0  0  0  0  0
    2.5914    1.0127   -0.0194 H   0  0  0  0  0  0  0  0  0  0  0  0
    1.5518   -2.2884   -0.0273 H   0  0  0  0  0  0  0  0  0  0  0  0
   -0.8536   -2.9847   -0.0080 H   0  0  0  0  0  0  0  0  0  0  0  0
   -2.5152   -1.1166    0.0182 H   0  0  0  0  0  0  0  0  0  0  0  0
  1  9  1  0  0  0  0
  2 11  1  0  0  0  0
  2  1  1  0  0  0  0
  3  4  1  0  0  0  0
  3  2  2  0  0  0  0
  4  8  1  0  0  0  0
  5  4  2  0  0  0  0
  5  6  1  0  0  0  0
  6  7  1  0  0  0  0
  7 15  1  0  0  0  0
  8  7  2  0  0  0  0
  8  1  1  0  0  0  0
 10  1  1  0  0  0  0
 12  3  1  0  0  0  0
 13  5  1  0  0  0  0
 14  6  1  0  0  0  0
M  END
