15
title
C -0.7682034 1.6876353 0.01645746
C 0.70598054 2.0745366 0.0044154725
C 1.5085529 0.99315286 -0.009092379
C 0.68765485 -0.21079108 -0.00773642
C 0.73530126 -1.5846615 -0.015625171
N -0.57362914 -2.0198467 -0.005443633
C -1.4495456 -0.9506684 0.00885963
C -0.68634325 0.18528262 0.007583389
H -1.280519 2.0900006 0.90102834
H -1.2973835 2.0994887 -0.85369956
H 1.0354917 3.1061935 0.00681507
H 2.5914476 1.0126584 -0.019369042
H 1.5518287 -2.2883637 -0.027282918
H -0.85356575 -2.98474 -0.008001323
H -2.5151663 -1.1165726 0.018219449
