title
 OpenBabel02282109573D

 14 15  0  0  0  0  0  0  0  0999 V2000
   -0.7884    1.6918    0.0169 C   0  0  0  0  0  0  0  0  0  0  0  0
    0.6828    2.0906    0.0049 C   0  0  0  0  0  0  0  0  0  0  0  0
    1.5030    1.0231   -0.0088 C   0  0  0  0  0  0  0  0  0  0  0  0
    0.6986   -0.1919   -0.0078 C   0  0  0  0  0  0  0  0  0  0  0  0
    0.7291   -1.5493   -0.0155 C   0  0  0  0  0  0  0  0  0  0  0  0
   -0.5515   -2.0311   -0.0059 O   0  0  0  0  0  0  0  0  0  0  0  0
   -1.4026   -0.9574    0.0082 C   0  0  0  0  0  0  0  0  0  0  0  0
   -0.6888    0.1905    0.0076 C   0  0  0  0  0  0  0  0  0  0  0  0
   -1.3056    2.0854    0.9016 H   0  0  0  0  0  0  0  0  0  0  0  0
   -1.3224    2.0951   -0.8535 H   0  0  0  0  0  0  0  0  0  0  0  0
    1.0006    3.1263    0.0076 H   0  0  0  0  0  0  0  0  0  0  0  0
    2.5848    1.0581   -0.0189 H   0  0  0  0  0  0  0  0  0  0  0  0
    1.5049   -2.2962   -0.0271 H   0  0  0  0  0  0  0  0  0  0  0  0
   -2.4512   -1.2052    0.0169 H   0  0  0  0  0  0  0  0  0  0  0  0
  1  9  1  0  0  0  0
  2 11  1  0  0  0  0
  2  1  1  0  0  0  0
  3  4  1  0  0  0  0
  3  2  2  0  0  0  0
  4  8  1  0  0  0  0
  5  4  2  0  0  0  0
  5  6  1  0  0  0  0
  6  7  1  0  0  0  0
  7 14  1  0  0  0  0
  8  7  2  0  0  0  0
  8  1  1  0  0  0  0
 10  1  1  0  0  0  0
 12  3  1  0  0  0  0
 13  5  1  0  0  0  0
M  END
