13
title
N -1.717045 1.1494576 0.022614222
C -0.4412289 1.6904467 0.013249248
C 0.39922497 0.6016699 -0.0006313671
N 1.711029 0.1644287 -0.015570167
C 1.6497138 -1.219787 -0.022383934
N 0.4432597 -1.7156948 -0.013396645
C -0.37767115 -0.59484303 0.00047148086
C -1.7100126 -0.22541352 0.015264426
H -2.5545356 1.7045785 0.033634294
H -0.284969 2.7551794 0.017415963
H 2.5497935 0.7167747 -0.020724354
H 2.5591276 -1.805605 -0.034256544
H -2.626072 -0.7910822 0.021070294
