title
 OpenBabel02282109573D

 13 14  0  0  0  0  0  0  0  0999 V2000
   -1.7170    1.1495    0.0226 N   0  0  0  0  0  0  0  0  0  0  0  0
   -0.4412    1.6904    0.0132 C   0  0  0  0  0  0  0  0  0  0  0  0
    0.3992    0.6017   -0.0006 C   0  0  0  0  0  0  0  0  0  0  0  0
    1.7110    0.1644   -0.0156 N   0  0  0  0  0  0  0  0  0  0  0  0
    1.6497   -1.2198   -0.0224 C   0  0  0  0  0  0  0  0  0  0  0  0
    0.4433   -1.7157   -0.0134 N   0  0  0  0  0  0  0  0  0  0  0  0
   -0.3777   -0.5948    0.0005 C   0  0  0  0  0  0  0  0  0  0  0  0
   -1.7100   -0.2254    0.0153 C   0  0  0  0  0  0  0  0  0  0  0  0
   -2.5545    1.7046    0.0336 H   0  0  0  0  0  0  0  0  0  0  0  0
   -0.2850    2.7552    0.0174 H   0  0  0  0  0  0  0  0  0  0  0  0
    2.5498    0.7168   -0.0207 H   0  0  0  0  0  0  0  0  0  0  0  0
    2.5591   -1.8056   -0.0343 H   0  0  0  0  0  0  0  0  0  0  0  0
   -2.6261   -0.7911    0.0211 H   0  0  0  0  0  0  0  0  0  0  0  0
  1  9  1  0  0  0  0
  2 10  1  0  0  0  0
  2  1  1  0  0  0  0
  3  7  1  0  0  0  0
  3  2  2  0  0  0  0
  4  3  1  0  0  0  0
  5  4  1  0  0  0  0
  5  6  2  0  0  0  0
  6  7  1  0  0  0  0
  7  8  2  0  0  0  0
  8 13  1  0  0  0  0
  8  1  1  0  0  0  0
 11  4  1  0  0  0  0
 12  5  1  0  0  0  0
M  END
