title
 OpenBabel02282109573D

 12 13  0  0  0  0  0  0  0  0999 V2000
   -1.7043    1.1601    0.0229 N   0  0  0  0  0  0  0  0  0  0  0  0
   -0.4166    1.6756    0.0131 C   0  0  0  0  0  0  0  0  0  0  0  0
    0.3822    0.5631   -0.0007 C   0  0  0  0  0  0  0  0  0  0  0  0
    1.6983    0.1908   -0.0155 O   0  0  0  0  0  0  0  0  0  0  0  0
    1.6176   -1.1882   -0.0221 C   0  0  0  0  0  0  0  0  0  0  0  0
    0.4432   -1.7170   -0.0137 N   0  0  0  0  0  0  0  0  0  0  0  0
   -0.4060   -0.6064    0.0006 C   0  0  0  0  0  0  0  0  0  0  0  0
   -1.7295   -0.2174    0.0156 C   0  0  0  0  0  0  0  0  0  0  0  0
   -2.5292    1.7341    0.0341 H   0  0  0  0  0  0  0  0  0  0  0  0
   -0.2307    2.7347    0.0171 H   0  0  0  0  0  0  0  0  0  0  0  0
    2.5685   -1.6993   -0.0341 H   0  0  0  0  0  0  0  0  0  0  0  0
   -2.6584   -0.7610    0.0217 H   0  0  0  0  0  0  0  0  0  0  0  0
  1  9  1  0  0  0  0
  2 10  1  0  0  0  0
  2  1  1  0  0  0  0
  3  7  1  0  0  0  0
  3  2  2  0  0  0  0
  4  3  1  0  0  0  0
  5  4  1  0  0  0  0
  5  6  2  0  0  0  0
  6  7  1  0  0  0  0
  7  8  2  0  0  0  0
  8 12  1  0  0  0  0
  8  1  1  0  0  0  0
 11  5  1  0  0  0  0
M  END
