title
 OpenBabel02282109573D

 11 12  0  0  0  0  0  0  0  0999 V2000
   -1.7243    1.1362    0.0223 O   0  0  0  0  0  0  0  0  0  0  0  0
   -0.4450    1.6354    0.0128 C   0  0  0  0  0  0  0  0  0  0  0  0
    0.3861    0.5664   -0.0007 C   0  0  0  0  0  0  0  0  0  0  0  0
    1.7059    0.2126   -0.0150 O   0  0  0  0  0  0  0  0  0  0  0  0
    1.6417   -1.1699   -0.0218 C   0  0  0  0  0  0  0  0  0  0  0  0
    0.4788   -1.7191   -0.0135 N   0  0  0  0  0  0  0  0  0  0  0  0
   -0.3895   -0.6218    0.0004 C   0  0  0  0  0  0  0  0  0  0  0  0
   -1.6939   -0.2285    0.0148 C   0  0  0  0  0  0  0  0  0  0  0  0
   -0.3480    2.7053    0.0176 H   0  0  0  0  0  0  0  0  0  0  0  0
    2.6009   -1.6664   -0.0335 H   0  0  0  0  0  0  0  0  0  0  0  0
   -2.6490   -0.7230    0.0212 H   0  0  0  0  0  0  0  0  0  0  0  0
  2  9  1  0  0  0  0
  2  1  1  0  0  0  0
  3  7  1  0  0  0  0
  3  2  2  0  0  0  0
  4  3  1  0  0  0  0
  5  4  1  0  0  0  0
  5  6  2  0  0  0  0
  6  7  1  0  0  0  0
  7  8  2  0  0  0  0
  8 11  1  0  0  0  0
  8  1  1  0  0  0  0
 10  5  1  0  0  0  0
M  END
