title
 OpenBabel02282109573D

 15 16  0  0  0  0  0  0  0  0999 V2000
   -0.7445    1.6961    0.0161 C   0  0  0  0  0  0  0  0  0  0  0  0
    0.7360    2.0560    0.0039 C   0  0  0  0  0  0  0  0  0  0  0  0
    1.5063    0.9463   -0.0094 C   0  0  0  0  0  0  0  0  0  0  0  0
    0.6178   -0.2003   -0.0070 C   0  0  0  0  0  0  0  0  0  0  0  0
   -0.7070    0.1930    0.0078 C   0  0  0  0  0  0  0  0  0  0  0  0
   -1.5025   -0.9782    0.0092 C   0  0  0  0  0  0  0  0  0  0  0  0
   -0.6258   -2.0488   -0.0049 C   0  0  0  0  0  0  0  0  0  0  0  0
    0.6692   -1.5656   -0.0147 N   0  0  0  0  0  0  0  0  0  0  0  0
   -1.2447    2.1140    0.9004 H   0  0  0  0  0  0  0  0  0  0  0  0
   -1.2615    2.1233   -0.8539 H   0  0  0  0  0  0  0  0  0  0  0  0
    1.0935    3.0772    0.0059 H   0  0  0  0  0  0  0  0  0  0  0  0
    2.5886    0.9171   -0.0199 H   0  0  0  0  0  0  0  0  0  0  0  0
   -2.5793   -1.0587    0.0191 H   0  0  0  0  0  0  0  0  0  0  0  0
   -0.8148   -3.1105   -0.0088 H   0  0  0  0  0  0  0  0  0  0  0  0
    1.4962   -2.1361   -0.0257 H   0  0  0  0  0  0  0  0  0  0  0  0
  1  9  1  0  0  0  0
  2 11  1  0  0  0  0
  2  1  1  0  0  0  0
  3  4  1  0  0  0  0
  3  2  2  0  0  0  0
  4  5  2  0  0  0  0
  5  6  1  0  0  0  0
  5  1  1  0  0  0  0
  6 13  1  0  0  0  0
  7  6  2  0  0  0  0
  8  4  1  0  0  0  0
  8  7  1  0  0  0  0
 10  1  1  0  0  0  0
 12  3  1  0  0  0  0
 14  7  1  0  0  0  0
 15  8  1  0  0  0  0
M  END
