title
 OpenBabel02282109573D

 14 15  0  0  0  0  0  0  0  0999 V2000
   -0.7471    1.7103    0.0163 C   0  0  0  0  0  0  0  0  0  0  0  0
    0.7415    2.0465    0.0036 C   0  0  0  0  0  0  0  0  0  0  0  0
    1.4979    0.9266   -0.0097 C   0  0  0  0  0  0  0  0  0  0  0  0
    0.5753   -0.1894   -0.0066 C   0  0  0  0  0  0  0  0  0  0  0  0
   -0.7294    0.2091    0.0082 C   0  0  0  0  0  0  0  0  0  0  0  0
   -1.5028   -0.9897    0.0093 C   0  0  0  0  0  0  0  0  0  0  0  0
   -0.5917   -2.0090   -0.0049 C   0  0  0  0  0  0  0  0  0  0  0  0
    0.6981   -1.5327   -0.0149 O   0  0  0  0  0  0  0  0  0  0  0  0
   -1.2398    2.1343    0.9011 H   0  0  0  0  0  0  0  0  0  0  0  0
   -1.2568    2.1435   -0.8542 H   0  0  0  0  0  0  0  0  0  0  0  0
    1.1117    3.0630    0.0054 H   0  0  0  0  0  0  0  0  0  0  0  0
    2.5775    0.8677   -0.0205 H   0  0  0  0  0  0  0  0  0  0  0  0
   -2.5755   -1.1088    0.0191 H   0  0  0  0  0  0  0  0  0  0  0  0
   -0.6845   -3.0823   -0.0096 H   0  0  0  0  0  0  0  0  0  0  0  0
  1  9  1  0  0  0  0
  2 11  1  0  0  0  0
  2  1  1  0  0  0  0
  3  4  1  0  0  0  0
  3  2  2  0  0  0  0
  4  5  2  0  0  0  0
  5  6  1  0  0  0  0
  5  1  1  0  0  0  0
  6 13  1  0  0  0  0
  7  6  2  0  0  0  0
  8  4  1  0  0  0  0
  8  7  1  0  0  0  0
 10  1  1  0  0  0  0
 12  3  1  0  0  0  0
 14  7  1  0  0  0  0
M  END
