14
title
C -0.75012034 1.6594143 0.016002862
C 0.72414464 2.0475981 0.0039855326
C 1.5266216 0.9585283 -0.00949737
C 0.6616513 -0.20674947 -0.0074437293
C -0.6605993 0.16258635 0.0071604126
N -1.4907621 -0.9222518 0.009329209
C -0.66756105 -1.9546578 -0.003996136
N 0.6590752 -1.5781732 -0.014686139
H -1.2613868 2.0589852 0.9014729
H -1.2781876 2.068374 -0.85520434
H 1.0593677 3.0762243 0.0062614386
H 2.6085315 0.9610942 -0.019825334
H -0.9593892 -2.9941456 -0.0067237024
H 1.4487464 -2.2008097 -0.025557024
