13
title
C -0.75330836 1.6759958 0.015892768
C 0.7309042 2.039093 0.0033766732
C 1.5199884 0.939218 -0.009864241
C 0.61982 -0.19536069 -0.0069798217
C -0.6821555 0.18129072 0.0075390604
N -1.4914308 -0.93747365 0.009604073
C -0.63771015 -1.9171284 -0.003689297
O 0.68699086 -1.5497224 -0.014598924
H -1.2555454 2.0842285 0.90202624
H -1.2725754 2.0932355 -0.8561161
H 1.0793166 3.0631723 0.0052507184
H 2.6001127 0.91308117 -0.020435324
H -0.8337806 -2.977179 -0.0072402623
