title
 OpenBabel02282109573D

 14 15  0  0  0  0  0  0  0  0999 V2000
   -0.6860    1.5730    0.0152 N   0  0  0  0  0  0  0  0  0  0  0  0
    0.6201    2.0286    0.0050 C   0  0  0  0  0  0  0  0  0  0  0  0
    1.4942    0.9602   -0.0093 C   0  0  0  0  0  0  0  0  0  0  0  0
    0.6695   -0.1969   -0.0076 C   0  0  0  0  0  0  0  0  0  0  0  0
   -0.6695    0.1969    0.0076 C   0  0  0  0  0  0  0  0  0  0  0  0
   -1.4942   -0.9602    0.0093 C   0  0  0  0  0  0  0  0  0  0  0  0
   -0.6201   -2.0286   -0.0050 C   0  0  0  0  0  0  0  0  0  0  0  0
    0.6860   -1.5730   -0.0153 N   0  0  0  0  0  0  0  0  0  0  0  0
   -1.4991    2.1610    0.0264 H   0  0  0  0  0  0  0  0  0  0  0  0
    0.8280    3.0868    0.0087 H   0  0  0  0  0  0  0  0  0  0  0  0
    2.5706    1.0275   -0.0194 H   0  0  0  0  0  0  0  0  0  0  0  0
   -2.5706   -1.0275    0.0194 H   0  0  0  0  0  0  0  0  0  0  0  0
   -0.8280   -3.0868   -0.0088 H   0  0  0  0  0  0  0  0  0  0  0  0
    1.4991   -2.1610   -0.0263 H   0  0  0  0  0  0  0  0  0  0  0  0
  1  9  1  0  0  0  0
  2 10  1  0  0  0  0
  2  1  1  0  0  0  0
  3  4  1  0  0  0  0
  3  2  2  0  0  0  0
  4  5  2  0  0  0  0
  5  6  1  0  0  0  0
  5  1  1  0  0  0  0
  6 12  1  0  0  0  0
  7  6  2  0  0  0  0
  8  4  1  0  0  0  0
  8  7  1  0  0  0  0
 11  3  1  0  0  0  0
 13  7  1  0  0  0  0
 14  8  1  0  0  0  0
M  END
