13
title
N -0.69157386 1.587302 0.01562067
C 0.62345946 2.0213041 0.004999356
C 1.4836841 0.9385786 -0.009403233
C 0.6301298 -0.1885786 -0.007231602
C -0.69084716 0.21494189 0.008025181
C -1.4923704 -0.96713865 0.009344329
C -0.5858581 -1.9885169 -0.005266274
O 0.7148105 -1.5457394 -0.01560574
H -1.4945679 2.1892672 0.026942382
H 0.8475661 3.0759735 0.0085943965
H 2.5601351 0.9815084 -0.019765083
H -2.565208 -1.074781 0.019327894
H -0.70447373 -3.0593488 -0.010040766
