title
 OpenBabel02282109573D

 13 14  0  0  0  0  0  0  0  0999 V2000
   -0.6981    1.5731    0.0151 N   0  0  0  0  0  0  0  0  0  0  0  0
    0.6304    1.9429    0.0040 C   0  0  0  0  0  0  0  0  0  0  0  0
    1.4652    0.9195   -0.0096 N   0  0  0  0  0  0  0  0  0  0  0  0
    0.6252   -0.1539   -0.0070 C   0  0  0  0  0  0  0  0  0  0  0  0
   -0.7182    0.1914    0.0081 C   0  0  0  0  0  0  0  0  0  0  0  0
   -1.4975   -0.9953    0.0095 C   0  0  0  0  0  0  0  0  0  0  0  0
   -0.5744   -2.0260   -0.0050 C   0  0  0  0  0  0  0  0  0  0  0  0
    0.7150   -1.5217   -0.0150 N   0  0  0  0  0  0  0  0  0  0  0  0
   -1.4819    2.2018    0.0261 H   0  0  0  0  0  0  0  0  0  0  0  0
    0.9238    2.9819    0.0066 H   0  0  0  0  0  0  0  0  0  0  0  0
   -2.5694   -1.1127    0.0195 H   0  0  0  0  0  0  0  0  0  0  0  0
   -0.7402   -3.0914   -0.0089 H   0  0  0  0  0  0  0  0  0  0  0  0
    1.5581   -2.0672   -0.0262 H   0  0  0  0  0  0  0  0  0  0  0  0
  1  9  1  0  0  0  0
  2 10  1  0  0  0  0
  2  1  1  0  0  0  0
  3  4  1  0  0  0  0
  3  2  2  0  0  0  0
  4  5  2  0  0  0  0
  5  6  1  0  0  0  0
  5  1  1  0  0  0  0
  6 11  1  0  0  0  0
  7  6  2  0  0  0  0
  8  4  1  0  0  0  0
  8  7  1  0  0  0  0
 12  7  1  0  0  0  0
 13  8  1  0  0  0  0
M  END
