13
title
N -0.6981164 1.5730668 0.015110009
C 0.63042647 1.9428912 0.004000022
N 1.4651874 0.9194914 -0.009622103
C 0.62515825 -0.15390491 -0.006959446
C -0.7181692 0.19144072 0.008087308
C -1.4975418 -0.99529433 0.009528111
C -0.57441473 -2.0260153 -0.0049625
N 0.7150038 -1.5217294 -0.01502764
H -1.4819467 2.2017772 0.026142959
H 0.9238238 2.9818988 0.0065706996
H -2.5694008 -1.1127263 0.019472545
H -0.74016184 -3.0913832 -0.008911404
H 1.5581106 -2.0672252 -0.026216803
