title
 OpenBabel02282109573D

 12 13  0  0  0  0  0  0  0  0999 V2000
   -0.6947    1.5502    0.0156 N   0  0  0  0  0  0  0  0  0  0  0  0
    0.6129    2.0107    0.0054 C   0  0  0  0  0  0  0  0  0  0  0  0
    1.5053    0.9500   -0.0093 C   0  0  0  0  0  0  0  0  0  0  0  0
    0.6761   -0.1944   -0.0077 C   0  0  0  0  0  0  0  0  0  0  0  0
   -0.6420    0.1839    0.0073 C   0  0  0  0  0  0  0  0  0  0  0  0
   -1.4790   -0.9060    0.0093 N   0  0  0  0  0  0  0  0  0  0  0  0
   -0.6330   -1.8951   -0.0046 C   0  0  0  0  0  0  0  0  0  0  0  0
    0.6983   -1.5623   -0.0157 O   0  0  0  0  0  0  0  0  0  0  0  0
   -1.5176    2.1258    0.0269 H   0  0  0  0  0  0  0  0  0  0  0  0
    0.8134    3.0700    0.0094 H   0  0  0  0  0  0  0  0  0  0  0  0
    2.5796    1.0268   -0.0193 H   0  0  0  0  0  0  0  0  0  0  0  0
   -0.8549   -2.9501   -0.0084 H   0  0  0  0  0  0  0  0  0  0  0  0
  1  9  1  0  0  0  0
  2 10  1  0  0  0  0
  2  1  1  0  0  0  0
  3  4  1  0  0  0  0
  3  2  2  0  0  0  0
  4  5  2  0  0  0  0
  5  6  1  0  0  0  0
  5  1  1  0  0  0  0
  7  6  2  0  0  0  0
  8  4  1  0  0  0  0
  8  7  1  0  0  0  0
 11  3  1  0  0  0  0
 12  7  1  0  0  0  0
M  END
