11
title
N -0.7124681 1.5482062 0.015441529
C 0.6163817 1.9303976 0.004378447
N 1.4707161 0.9151176 -0.009530666
C 0.63467044 -0.14761573 -0.0070444997
C -0.6889344 0.17369793 0.0077586053
N -1.4799036 -0.9493829 0.009429769
C -0.5836215 -1.8975971 -0.0045578573
O 0.73402876 -1.5065898 -0.015425011
H -1.5081606 2.1630735 0.02668465
H 0.89871293 2.971946 0.0072336127
H -0.756837 -2.9614866 -0.008634249
