12
title
O -0.7170134 1.5609535 0.015296705
C 0.59470266 1.981647 0.004824719
C 1.4854618 0.9437715 -0.009271283
C 0.6505751 -0.20806035 -0.0073953415
C -0.6505751 0.20806037 0.007400858
C -1.4854615 -0.94377166 0.009304765
C -0.59470314 -1.9816465 -0.004878785
O 0.71701354 -1.5609535 -0.015282935
H 0.7297873 3.0502496 0.009206914
H 2.5597975 1.0242475 -0.019203173
H -2.559797 -1.0242479 0.019260254
H -0.72978836 -3.0502489 -0.009303011
