title
 OpenBabel02282109573D

 12 13  0  0  0  0  0  0  0  0999 V2000
   -0.7170    1.5610    0.0153 O   0  0  0  0  0  0  0  0  0  0  0  0
    0.5947    1.9816    0.0048 C   0  0  0  0  0  0  0  0  0  0  0  0
    1.4855    0.9438   -0.0093 C   0  0  0  0  0  0  0  0  0  0  0  0
    0.6506   -0.2081   -0.0074 C   0  0  0  0  0  0  0  0  0  0  0  0
   -0.6506    0.2081    0.0074 C   0  0  0  0  0  0  0  0  0  0  0  0
   -1.4855   -0.9438    0.0093 C   0  0  0  0  0  0  0  0  0  0  0  0
   -0.5947   -1.9816   -0.0049 C   0  0  0  0  0  0  0  0  0  0  0  0
    0.7170   -1.5610   -0.0153 O   0  0  0  0  0  0  0  0  0  0  0  0
    0.7298    3.0502    0.0092 H   0  0  0  0  0  0  0  0  0  0  0  0
    2.5598    1.0242   -0.0192 H   0  0  0  0  0  0  0  0  0  0  0  0
   -2.5598   -1.0242    0.0193 H   0  0  0  0  0  0  0  0  0  0  0  0
   -0.7298   -3.0502   -0.0093 H   0  0  0  0  0  0  0  0  0  0  0  0
  2  9  1  0  0  0  0
  2  1  1  0  0  0  0
  3  4  1  0  0  0  0
  3  2  2  0  0  0  0
  4  5  2  0  0  0  0
  5  6  1  0  0  0  0
  5  1  1  0  0  0  0
  6 11  1  0  0  0  0
  7  6  2  0  0  0  0
  8  4  1  0  0  0  0
  8  7  1  0  0  0  0
 10  3  1  0  0  0  0
 12  7  1  0  0  0  0
M  END
