11
title
O -0.72568524 1.5649747 0.015442436
C 0.61062866 1.8971075 0.004406083
N 1.4534744 0.9038893 -0.009146114
C 0.6085692 -0.16859162 -0.0067735994
C -0.6978066 0.20257267 0.007827354
C -1.4896264 -0.9786228 0.009078253
C -0.55250347 -1.9791172 -0.005403973
O 0.7443209 -1.5093979 -0.015321822
H 0.83256406 2.9517255 0.007983387
H -2.5588222 -1.1089295 0.0186832
H -0.6461421 -3.051962 -0.010327277
