14
title
C -0.74522036 1.6845295 0.016246121
C 0.74441886 2.040616 0.003848215
C 1.5196316 0.9370858 -0.009535663
C 0.6440673 -0.23392674 -0.007465746
C -0.6586507 0.19378774 0.007346054
N -1.4176394 -0.944586 0.008580083
C -0.5260775 -1.997967 -0.0057808417
N 0.7306739 -1.6030514 -0.015639482
H -1.2460864 2.0938973 0.90353477
H -1.2630259 2.103445 -0.85674626
H 1.0863326 3.0667665 0.006091388
H 2.6013641 0.9145573 -0.020037845
H -2.4207897 -1.0227954 0.01781243
H -0.8673837 -3.0225492 -0.008063117
