14
title
N -0.68036747 1.5374258 0.014920547
C 0.6268893 2.0320055 0.0050695185
C 1.5168954 0.98651046 -0.009296026
C 0.74556893 -0.2225542 -0.008401524
C -0.5873645 0.1753291 0.0068699094
N -1.4118626 -0.9128896 0.008704354
C -0.5896646 -2.0431173 -0.0055662356
C 0.7278493 -1.6565716 -0.016339831
H -1.5125784 2.097609 0.027752846
H 0.7947547 3.0969505 0.0092386445
H 2.5914164 1.0869734 -0.019346025
H -2.415004 -0.92522335 0.018716091
H -1.033085 -3.025808 -0.0066160774
H 1.5714601 -2.3295982 -0.028395675
