title
 OpenBabel02282109573D

 12 13  0  0  0  0  0  0  0  0999 V2000
   -0.6914    1.5292    0.0151 N   0  0  0  0  0  0  0  0  0  0  0  0
    0.6235    2.0128    0.0051 C   0  0  0  0  0  0  0  0  0  0  0  0
    1.5177    0.9648   -0.0096 C   0  0  0  0  0  0  0  0  0  0  0  0
    0.7224   -0.2213   -0.0084 C   0  0  0  0  0  0  0  0  0  0  0  0
   -0.5859    0.1792    0.0066 C   0  0  0  0  0  0  0  0  0  0  0  0
   -1.4212   -0.8792    0.0090 O   0  0  0  0  0  0  0  0  0  0  0  0
   -0.5132   -1.9387   -0.0052 C   0  0  0  0  0  0  0  0  0  0  0  0
    0.7368   -1.6174   -0.0162 N   0  0  0  0  0  0  0  0  0  0  0  0
   -1.5257    2.0877    0.0261 H   0  0  0  0  0  0  0  0  0  0  0  0
    0.7972    3.0763    0.0093 H   0  0  0  0  0  0  0  0  0  0  0  0
    2.5917    1.0584   -0.0197 H   0  0  0  0  0  0  0  0  0  0  0  0
   -0.9604   -2.9193   -0.0061 H   0  0  0  0  0  0  0  0  0  0  0  0
  1  9  1  0  0  0  0
  2 10  1  0  0  0  0
  2  1  1  0  0  0  0
  3  4  1  0  0  0  0
  3  2  2  0  0  0  0
  4  5  2  0  0  0  0
  5  6  1  0  0  0  0
  5  1  1  0  0  0  0
  7  6  1  0  0  0  0
  8  4  1  0  0  0  0
  8  7  2  0  0  0  0
 11  3  1  0  0  0  0
 12  7  1  0  0  0  0
M  END
