title
 OpenBabel02282109573D

 12 13  0  0  1  0  0  0  0  0999 V2000
   -0.7050    1.5552    0.0153 N   0  0  0  0  0  0  0  0  0  0  0  0
    0.6411    1.9314    0.0041 C   0  0  0  0  0  0  0  0  0  0  0  0
    1.4750    0.9206   -0.0095 N   0  0  0  0  0  0  0  0  0  0  0  0
    0.6543   -0.1845   -0.0074 C   0  0  0  0  0  0  0  0  0  0  0  0
   -0.6718    0.1894    0.0076 C   0  0  1  0  0  0  0  0  0  0  0  0
   -1.4137   -0.9577    0.0087 N   0  0  0  0  0  0  0  0  0  0  0  0
   -0.4624   -1.9818   -0.0061 C   0  0  0  0  0  0  0  0  0  0  0  0
    0.7767   -1.5556   -0.0160 N   0  0  0  0  0  0  0  0  0  0  0  0
   -1.4952    2.1757    0.0265 H   0  0  0  0  0  0  0  0  0  0  0  0
    0.9135    2.9762    0.0071 H   0  0  0  0  0  0  0  0  0  0  0  0
   -2.4116   -1.0740    0.0177 H   0  0  0  0  0  0  0  0  0  0  0  0
   -0.7760   -3.0149   -0.0086 H   0  0  0  0  0  0  0  0  0  0  0  0
  1  9  1  0  0  0  0
  2 10  1  0  0  0  0
  2  1  1  0  0  0  0
  3  4  2  0  0  0  0
  3  2  1  0  0  0  0
  5  4  1  1  0  0  0
  5  6  1  0  0  0  0
  5  1  1  0  0  0  0
  6 11  1  0  0  0  0
  7  6  1  0  0  0  0
  8  4  1  0  0  0  0
  8  7  2  0  0  0  0
 12  7  1  0  0  0  0
M  RAD  2   2   2   5   2
M  END
