title
 OpenBabel02282109573D

 12 13  0  0  0  0  0  0  0  0999 V2000
   -0.6910    1.5128    0.0148 N   0  0  0  0  0  0  0  0  0  0  0  0
    0.6340    1.9440    0.0041 C   0  0  0  0  0  0  0  0  0  0  0  0
    1.5090    0.9648   -0.0102 N   0  0  0  0  0  0  0  0  0  0  0  0
    0.7344   -0.1797   -0.0084 C   0  0  0  0  0  0  0  0  0  0  0  0
   -0.5914    0.1536    0.0067 C   0  0  0  0  0  0  0  0  0  0  0  0
   -1.4294   -0.8903    0.0096 O   0  0  0  0  0  0  0  0  0  0  0  0
   -0.5633   -1.9895   -0.0048 C   0  0  0  0  0  0  0  0  0  0  0  0
    0.7468   -1.6192   -0.0161 C   0  0  0  0  0  0  0  0  0  0  0  0
   -1.5152    2.0881    0.0260 H   0  0  0  0  0  0  0  0  0  0  0  0
    0.8674    2.9981    0.0075 H   0  0  0  0  0  0  0  0  0  0  0  0
   -1.0630   -2.9429   -0.0047 H   0  0  0  0  0  0  0  0  0  0  0  0
    1.5874   -2.2948   -0.0281 H   0  0  0  0  0  0  0  0  0  0  0  0
  1  9  1  0  0  0  0
  2 10  1  0  0  0  0
  2  1  1  0  0  0  0
  3  4  1  0  0  0  0
  3  2  2  0  0  0  0
  4  5  2  0  0  0  0
  5  6  1  0  0  0  0
  5  1  1  0  0  0  0
  7 11  1  0  0  0  0
  7  6  1  0  0  0  0
  8  4  1  0  0  0  0
  8  7  2  0  0  0  0
 12  8  1  0  0  0  0
M  END
