title
 OpenBabel02282109573D

 12 13  0  0  0  0  0  0  0  0999 V2000
   -0.7117    1.4696    0.0145 O   0  0  0  0  0  0  0  0  0  0  0  0
    0.5829    1.9865    0.0047 C   0  0  0  0  0  0  0  0  0  0  0  0
    1.5263    1.0043   -0.0099 C   0  0  0  0  0  0  0  0  0  0  0  0
    0.7971   -0.2389   -0.0091 C   0  0  0  0  0  0  0  0  0  0  0  0
   -0.5081    0.1523    0.0057 C   0  0  0  0  0  0  0  0  0  0  0  0
   -1.4026   -0.8360    0.0094 O   0  0  0  0  0  0  0  0  0  0  0  0
   -0.6058   -1.9796   -0.0041 C   0  0  0  0  0  0  0  0  0  0  0  0
    0.7224   -1.6782   -0.0157 C   0  0  0  0  0  0  0  0  0  0  0  0
    0.6322    3.0616    0.0099 H   0  0  0  0  0  0  0  0  0  0  0  0
    2.5927    1.1663   -0.0196 H   0  0  0  0  0  0  0  0  0  0  0  0
   -1.1559   -2.9046   -0.0033 H   0  0  0  0  0  0  0  0  0  0  0  0
    1.5239   -2.3999   -0.0273 H   0  0  0  0  0  0  0  0  0  0  0  0
  2  9  1  0  0  0  0
  2  1  1  0  0  0  0
  3  4  1  0  0  0  0
  3  2  2  0  0  0  0
  4  5  2  0  0  0  0
  5  6  1  0  0  0  0
  5  1  1  0  0  0  0
  7 11  1  0  0  0  0
  7  6  1  0  0  0  0
  8  4  1  0  0  0  0
  8  7  2  0  0  0  0
 10  3  1  0  0  0  0
 12  8  1  0  0  0  0
M  END
