title
 OpenBabel02282109573D

 10 11  0  0  1  0  0  0  0  0999 V2000
   -0.7319    1.4993    0.0151 O   0  0  0  0  0  0  0  0  0  0  0  0
    0.6181    1.8916    0.0045 C   0  0  0  0  0  0  0  0  0  0  0  0
    1.4921    0.9378   -0.0095 N   0  0  0  0  0  0  0  0  0  0  0  0
    0.7006   -0.2018   -0.0079 C   0  0  0  0  0  0  0  0  0  0  0  0
   -0.5924    0.1706    0.0066 C   0  0  2  0  0  0  0  0  0  0  0  0
   -1.4174   -0.8802    0.0088 O   0  0  0  0  0  0  0  0  0  0  0  0
   -0.4830   -1.9306   -0.0055 C   0  0  0  0  0  0  0  0  0  0  0  0
    0.7646   -1.5877   -0.0161 N   0  0  0  0  0  0  0  0  0  0  0  0
    0.7753    2.9574    0.0088 H   0  0  0  0  0  0  0  0  0  0  0  0
   -0.9168   -2.9167   -0.0065 H   0  0  0  0  0  0  0  0  0  0  0  0
  2  9  1  0  0  0  0
  2  1  1  0  0  0  0
  3  4  2  0  0  0  0
  3  2  2  0  0  0  0
  5  4  1  6  0  0  0
  5  6  1  0  0  0  0
  5  1  1  0  0  0  0
  7  6  1  0  0  0  0
  8  4  1  0  0  0  0
  8  7  2  0  0  0  0
 10  7  1  0  0  0  0
M  RAD  1   5   2
M  END
