title
 OpenBabel02282109573D

 14 15  0  0  0  0  0  0  0  0999 V2000
   -0.7408    1.6191    0.0161 C   0  0  0  0  0  0  0  0  0  0  0  0
    0.7293    2.0034    0.0042 C   0  0  0  0  0  0  0  0  0  0  0  0
    1.5035    0.9047   -0.0093 C   0  0  0  0  0  0  0  0  0  0  0  0
    0.6416   -0.2661   -0.0076 C   0  0  0  0  0  0  0  0  0  0  0  0
    0.7343   -1.5788   -0.0158 N   0  0  0  0  0  0  0  0  0  0  0  0
   -0.5764   -2.0049   -0.0055 C   0  0  0  0  0  0  0  0  0  0  0  0
   -1.4576   -0.9440    0.0086 C   0  0  0  0  0  0  0  0  0  0  0  0
   -0.6574    0.1703    0.0072 N   0  0  0  0  0  0  0  0  0  0  0  0
   -1.2593    1.9894    0.9090 H   0  0  0  0  0  0  0  0  0  0  0  0
   -1.2762    1.9993   -0.8626 H   0  0  0  0  0  0  0  0  0  0  0  0
    1.0545    3.0338    0.0068 H   0  0  0  0  0  0  0  0  0  0  0  0
    2.5828    0.8649   -0.0199 H   0  0  0  0  0  0  0  0  0  0  0  0
   -0.8226   -3.0563   -0.0089 H   0  0  0  0  0  0  0  0  0  0  0  0
   -2.5337   -0.8961    0.0191 H   0  0  0  0  0  0  0  0  0  0  0  0
  1  9  1  0  0  0  0
  2 11  1  0  0  0  0
  2  1  1  0  0  0  0
  3  4  1  0  0  0  0
  3  2  2  0  0  0  0
  4  8  1  0  0  0  0
  5  4  2  0  0  0  0
  5  6  1  0  0  0  0
  6  7  2  0  0  0  0
  7 14  1  0  0  0  0
  8  7  1  0  0  0  0
  8  1  1  0  0  0  0
 10  1  1  0  0  0  0
 12  3  1  0  0  0  0
 13  6  1  0  0  0  0
M  END
