14
title
C -0.7408498 1.6191111 0.016056817
C 0.72931784 2.0033884 0.0041890894
C 1.5035303 0.9047172 -0.009341733
C 0.64156157 -0.26608002 -0.0076236515
N 0.73434526 -1.5787697 -0.015757468
C -0.5764297 -2.004891 -0.005520715
C -1.4576464 -0.9439604 0.0086123245
N -0.6574108 0.1703108 0.0071655433
H -1.259304 1.9893905 0.90897983
H -1.2761923 1.9992918 -0.8626263
H 1.0545337 3.033791 0.0068209413
H 2.582783 0.86490554 -0.019867383
H -0.82263404 -3.0562866 -0.00892279
H -2.5336704 -0.8961489 0.019079454
