title
 OpenBabel02282109573D

 15 16  0  0  0  0  0  0  0  0999 V2000
   -0.7543    1.6728    0.0165 C   0  0  0  0  0  0  0  0  0  0  0  0
    0.7279    2.0187    0.0043 C   0  0  0  0  0  0  0  0  0  0  0  0
    1.4552    0.8953   -0.0089 C   0  0  0  0  0  0  0  0  0  0  0  0
    0.6089   -0.2234   -0.0071 N   0  0  0  0  0  0  0  0  0  0  0  0
    0.7046   -1.5912   -0.0155 C   0  0  0  0  0  0  0  0  0  0  0  0
   -0.5848   -2.0795   -0.0059 C   0  0  0  0  0  0  0  0  0  0  0  0
   -1.4872   -0.9688    0.0089 C   0  0  0  0  0  0  0  0  0  0  0  0
   -0.7168    0.1682    0.0078 C   0  0  0  0  0  0  0  0  0  0  0  0
   -1.2583    2.0825    0.9017 H   0  0  0  0  0  0  0  0  0  0  0  0
   -1.2751    2.0923   -0.8544 H   0  0  0  0  0  0  0  0  0  0  0  0
    1.1194    3.0248    0.0061 H   0  0  0  0  0  0  0  0  0  0  0  0
    2.5272    0.7617   -0.0199 H   0  0  0  0  0  0  0  0  0  0  0  0
    1.6588   -2.0924   -0.0274 H   0  0  0  0  0  0  0  0  0  0  0  0
   -0.8586   -3.1238   -0.0091 H   0  0  0  0  0  0  0  0  0  0  0  0
   -2.5653   -1.0187    0.0189 H   0  0  0  0  0  0  0  0  0  0  0  0
  1  9  1  0  0  0  0
  2 11  1  0  0  0  0
  2  1  1  0  0  0  0
  3  4  1  0  0  0  0
  3  2  2  0  0  0  0
  4  8  1  0  0  0  0
  5  4  1  0  0  0  0
  5  6  2  0  0  0  0
  6  7  1  0  0  0  0
  7 15  1  0  0  0  0
  8  7  2  0  0  0  0
  8  1  1  0  0  0  0
 10  1  1  0  0  0  0
 12  3  1  0  0  0  0
 13  5  1  0  0  0  0
 14  6  1  0  0  0  0
M  END
