title
 OpenBabel02282109573D

 14 15  0  0  0  0  0  0  0  0999 V2000
   -0.7542    1.6867    0.0163 C   0  0  0  0  0  0  0  0  0  0  0  0
    0.7291    2.0301    0.0040 C   0  0  0  0  0  0  0  0  0  0  0  0
    1.4636    0.9122   -0.0091 C   0  0  0  0  0  0  0  0  0  0  0  0
    0.6138   -0.2090   -0.0070 N   0  0  0  0  0  0  0  0  0  0  0  0
    0.6453   -1.5726   -0.0146 C   0  0  0  0  0  0  0  0  0  0  0  0
   -0.5742   -2.0683   -0.0056 N   0  0  0  0  0  0  0  0  0  0  0  0
   -1.4311   -0.9834    0.0084 C   0  0  0  0  0  0  0  0  0  0  0  0
   -0.7146    0.1830    0.0078 C   0  0  0  0  0  0  0  0  0  0  0  0
   -1.2570    2.0962    0.9018 H   0  0  0  0  0  0  0  0  0  0  0  0
   -1.2738    2.1057   -0.8551 H   0  0  0  0  0  0  0  0  0  0  0  0
    1.1184    3.0376    0.0057 H   0  0  0  0  0  0  0  0  0  0  0  0
    2.5355    0.7824   -0.0200 H   0  0  0  0  0  0  0  0  0  0  0  0
    1.5637   -2.1391   -0.0265 H   0  0  0  0  0  0  0  0  0  0  0  0
   -2.5013   -1.1202    0.0179 H   0  0  0  0  0  0  0  0  0  0  0  0
  1  9  1  0  0  0  0
  2 11  1  0  0  0  0
  2  1  1  0  0  0  0
  3  4  1  0  0  0  0
  3  2  2  0  0  0  0
  4  8  1  0  0  0  0
  5  4  1  0  0  0  0
  5  6  2  0  0  0  0
  6  7  1  0  0  0  0
  7 14  1  0  0  0  0
  8  7  2  0  0  0  0
  8  1  1  0  0  0  0
 10  1  1  0  0  0  0
 12  3  1  0  0  0  0
 13  5  1  0  0  0  0
M  END
