title
 OpenBabel02282109573D

 13 14  0  0  0  0  0  0  0  0999 V2000
   -0.6779    1.5075    0.0150 N   0  0  0  0  0  0  0  0  0  0  0  0
    0.6288    1.9788    0.0050 C   0  0  0  0  0  0  0  0  0  0  0  0
    1.4779    0.9158   -0.0093 C   0  0  0  0  0  0  0  0  0  0  0  0
    0.6844   -0.2270   -0.0080 N   0  0  0  0  0  0  0  0  0  0  0  0
    0.6924   -1.6151   -0.0158 C   0  0  0  0  0  0  0  0  0  0  0  0
   -0.6392   -1.9646   -0.0049 C   0  0  0  0  0  0  0  0  0  0  0  0
   -1.4843   -0.8695    0.0096 N   0  0  0  0  0  0  0  0  0  0  0  0
   -0.6415    0.1370    0.0070 C   0  0  0  0  0  0  0  0  0  0  0  0
   -1.5146    2.0609    0.0266 H   0  0  0  0  0  0  0  0  0  0  0  0
    0.8473    3.0326    0.0088 H   0  0  0  0  0  0  0  0  0  0  0  0
    2.5529    0.8861   -0.0199 H   0  0  0  0  0  0  0  0  0  0  0  0
    1.6004   -2.1917   -0.0279 H   0  0  0  0  0  0  0  0  0  0  0  0
   -1.0417   -2.9667   -0.0066 H   0  0  0  0  0  0  0  0  0  0  0  0
  1  9  1  0  0  0  0
  2 10  1  0  0  0  0
  2  1  1  0  0  0  0
  3  4  1  0  0  0  0
  3  2  2  0  0  0  0
  4  8  1  0  0  0  0
  5  4  1  0  0  0  0
  5  6  2  0  0  0  0
  6  7  1  0  0  0  0
  8  7  2  0  0  0  0
  8  1  1  0  0  0  0
 11  3  1  0  0  0  0
 12  5  1  0  0  0  0
 13  6  1  0  0  0  0
M  END
