13
title
N -0.6779328 1.5075371 0.015036491
C 0.6287681 1.9787619 0.005005115
C 1.4778972 0.9157544 -0.009263449
N 0.684397 -0.22704343 -0.007960088
C 0.69237876 -1.6151415 -0.015779505
C -0.63920933 -1.964568 -0.0048546502
N -1.4843092 -0.86952627 0.009615787
C -0.6415203 0.13701041 0.0070190085
H -1.51462 2.0608656 0.02661817
H 0.8472537 3.0326073 0.008799441
H 2.552854 0.8861485 -0.019936763
H 1.6003726 -2.191653 -0.027859114
H -1.0417113 -2.9667351 -0.006599091
