title
 OpenBabel02282109573D

 16 17  0  0  0  0  0  0  0  0999 V2000
   -1.6404    1.2988   -0.7161 C   0  0  0  0  0  0  0  0  0  0  0  0
   -0.1293    1.6947   -0.5827 C   0  0  0  0  0  0  0  0  0  0  0  0
    0.4060    0.4402    0.0140 C   0  0  0  0  0  0  0  0  0  0  0  0
   -0.4273   -0.6257    0.0125 C   0  0  0  0  0  0  0  0  0  0  0  0
   -1.7454   -0.2647   -0.6101 C   0  0  0  0  0  0  0  0  0  0  0  0
    0.3232   -1.7149    0.5639 C   0  0  0  0  0  0  0  0  0  0  0  0
    1.5508   -1.1960    0.8526 C   0  0  0  0  0  0  0  0  0  0  0  0
    1.6239    0.1317    0.5159 O   0  0  0  0  0  0  0  0  0  0  0  0
   -2.1955    1.7484    0.1119 H   0  0  0  0  0  0  0  0  0  0  0  0
   -2.0809    1.6785   -1.6410 H   0  0  0  0  0  0  0  0  0  0  0  0
    0.3261    1.9148   -1.5577 H   0  0  0  0  0  0  0  0  0  0  0  0
    0.0089    2.5852    0.0397 H   0  0  0  0  0  0  0  0  0  0  0  0
   -2.6174   -0.5651   -0.0194 H   0  0  0  0  0  0  0  0  0  0  0  0
   -1.8655   -0.7263   -1.5989 H   0  0  0  0  0  0  0  0  0  0  0  0
    0.0139   -2.7345    0.7353 H   0  0  0  0  0  0  0  0  0  0  0  0
    2.4438   -1.6104    1.2908 H   0  0  0  0  0  0  0  0  0  0  0  0
  1  5  1  0  0  0  0
  1  2  1  0  0  0  0
  1  9  1  0  0  0  0
  2  3  1  0  0  0  0
  2 12  1  0  0  0  0
  3  8  1  0  0  0  0
  4  3  2  0  0  0  0
  4  6  1  0  0  0  0
  5 13  1  0  0  0  0
  5  4  1  0  0  0  0
  6 15  1  0  0  0  0
  6  7  2  0  0  0  0
  7 16  1  0  0  0  0
  8  7  1  0  0  0  0
 10  1  1  0  0  0  0
 11  2  1  0  0  0  0
 14  5  1  0  0  0  0
M  END
