title
 OpenBabel02282109573D

 16 17  0  0  0  0  0  0  0  0999 V2000
   -1.6428    1.2845   -0.7104 C   0  0  0  0  0  0  0  0  0  0  0  0
   -0.1390    1.7315   -0.6049 C   0  0  0  0  0  0  0  0  0  0  0  0
    0.4547    0.5094    0.0099 C   0  0  0  0  0  0  0  0  0  0  0  0
   -0.3659   -0.5773    0.0241 C   0  0  0  0  0  0  0  0  0  0  0  0
   -1.7024   -0.2772   -0.5859 C   0  0  0  0  0  0  0  0  0  0  0  0
    0.2636   -1.6823    0.5417 N   0  0  0  0  0  0  0  0  0  0  0  0
    1.4716   -1.2514    0.8411 C   0  0  0  0  0  0  0  0  0  0  0  0
    1.6502    0.0774    0.5308 N   0  0  0  0  0  0  0  0  0  0  0  0
   -2.1964    1.7291    0.1215 H   0  0  0  0  0  0  0  0  0  0  0  0
   -2.1059    1.6448   -1.6321 H   0  0  0  0  0  0  0  0  0  0  0  0
    0.2891    1.9494   -1.5932 H   0  0  0  0  0  0  0  0  0  0  0  0
   -0.0326    2.6446   -0.0081 H   0  0  0  0  0  0  0  0  0  0  0  0
   -2.5527   -0.6008    0.0230 H   0  0  0  0  0  0  0  0  0  0  0  0
   -1.8176   -0.7566   -1.5667 H   0  0  0  0  0  0  0  0  0  0  0  0
    2.2596   -1.8389    1.2891 H   0  0  0  0  0  0  0  0  0  0  0  0
    2.4864    0.6142    0.6871 H   0  0  0  0  0  0  0  0  0  0  0  0
  1  2  1  0  0  0  0
  1  5  1  0  0  0  0
  1  9  1  0  0  0  0
  2 12  1  0  0  0  0
  2  3  1  0  0  0  0
  3  4  2  0  0  0  0
  3  8  1  0  0  0  0
  4  6  1  0  0  0  0
  5 13  1  0  0  0  0
  5  4  1  0  0  0  0
  6  7  2  0  0  0  0
  7 15  1  0  0  0  0
  8 16  1  0  0  0  0
  8  7  1  0  0  0  0
 10  1  1  0  0  0  0
 11  2  1  0  0  0  0
 14  5  1  0  0  0  0
M  END
