15
title
C -1.5864117 1.2474753 -0.8849556
C -0.18814687 1.7722898 -0.3806007
C 0.42589626 0.47972143 0.01656338
C -0.39116505 -0.5882389 0.025324905
C -1.784588 -0.23353297 -0.38801807
N 0.3014166 -1.7049395 0.4720933
C 1.4894966 -1.2386367 0.70085007
O 1.6569444 0.09723725 0.45345888
H -2.3980925 1.8983417 -0.5532299
H -1.5918047 1.2605983 -1.977817
H 0.3529502 2.308637 -1.1669551
H -0.2884796 2.4630306 0.4663975
H -2.4857025 -0.2896306 0.4536551
H -2.189572 -0.87195426 -1.1793232
H 2.360636 -1.768403 1.0530585
