title
 OpenBabel02282109573D

 16 17  0  0  0  0  0  0  0  0999 V2000
   -1.6892    1.3408    0.1222 C   0  0  0  0  0  0  0  0  0  0  0  0
   -0.2098    1.8029   -0.0842 C   0  0  0  0  0  0  0  0  0  0  0  0
    0.4706    0.4822    0.0854 C   0  0  0  0  0  0  0  0  0  0  0  0
   -0.4112   -0.5572   -0.0348 C   0  0  0  0  0  0  0  0  0  0  0  0
   -1.7328   -0.1001   -0.2603 N   0  0  0  0  0  0  0  0  0  0  0  0
    0.3199   -1.7731   -0.0432 C   0  0  0  0  0  0  0  0  0  0  0  0
    1.6523   -1.4100    0.0635 C   0  0  0  0  0  0  0  0  0  0  0  0
    1.7419   -0.0370    0.1118 N   0  0  0  0  0  0  0  0  0  0  0  0
   -1.9516    1.4727    1.1821 H   0  0  0  0  0  0  0  0  0  0  0  0
   -2.3959    1.9197   -0.4785 H   0  0  0  0  0  0  0  0  0  0  0  0
   -0.0635    2.2233   -1.0904 H   0  0  0  0  0  0  0  0  0  0  0  0
    0.0651    2.5823    0.6349 H   0  0  0  0  0  0  0  0  0  0  0  0
   -2.4400   -0.6031    0.2630 H   0  0  0  0  0  0  0  0  0  0  0  0
   -0.0529   -2.7830   -0.1138 H   0  0  0  0  0  0  0  0  0  0  0  0
    2.5373   -2.0220    0.1352 H   0  0  0  0  0  0  0  0  0  0  0  0
    2.5950    0.4781    0.2352 H   0  0  0  0  0  0  0  0  0  0  0  0
  1  9  1  0  0  0  0
  2  3  1  0  0  0  0
  2  1  1  0  0  0  0
  2 12  1  0  0  0  0
  3  8  1  0  0  0  0
  4  3  2  0  0  0  0
  5  4  1  0  0  0  0
  5  1  1  0  0  0  0
  5 13  1  0  0  0  0
  6  4  1  0  0  0  0
  6  7  2  0  0  0  0
  7  8  1  0  0  0  0
  7 15  1  0  0  0  0
  8 16  1  0  0  0  0
 10  1  1  0  0  0  0
 11  2  1  0  0  0  0
 14  6  1  0  0  0  0
M  END
