14
title
C -1.6818533 1.3330438 0.08612665
C -0.1864384 1.8164366 -0.03817022
C 0.46729222 0.4884968 0.11215215
C -0.39322624 -0.5344251 -0.04077524
N -1.7104286 -0.12205167 -0.2769157
N 0.2762076 -1.7380073 -0.07259704
C 1.5198036 -1.3676798 0.04892302
O 1.7342306 -0.025877114 0.1421479
H -2.0101354 1.4741064 1.1239235
H -2.3511608 1.8983151 -0.56579196
H 0.006054684 2.2714233 -1.0195519
H 0.05372803 2.5639932 0.7237937
H -2.419386 -0.6382961 0.23041335
H 2.3947687 -1.9958428 0.10292123
