title
 OpenBabel02282109573D

 16 17  0  0  0  0  0  0  0  0999 V2000
   -1.6829    1.3406   -0.1308 C   0  0  0  0  0  0  0  0  0  0  0  0
   -0.2194    1.8421    0.1391 C   0  0  0  0  0  0  0  0  0  0  0  0
    0.5401    0.5476    0.0198 C   0  0  0  0  0  0  0  0  0  0  0  0
   -0.3565   -0.4832    0.0348 C   0  0  0  0  0  0  0  0  0  0  0  0
   -1.7264   -0.1470    0.0651 N   0  0  0  0  0  0  0  0  0  0  0  0
    0.3041   -1.6724   -0.0344 N   0  0  0  0  0  0  0  0  0  0  0  0
    1.6655   -1.3974   -0.0863 C   0  0  0  0  0  0  0  0  0  0  0  0
    1.8393   -0.0295   -0.0550 C   0  0  0  0  0  0  0  0  0  0  0  0
   -2.4300    1.8232    0.5039 H   0  0  0  0  0  0  0  0  0  0  0  0
   -1.9475    1.5445   -1.1734 H   0  0  0  0  0  0  0  0  0  0  0  0
    0.0598    2.6059   -0.5936 H   0  0  0  0  0  0  0  0  0  0  0  0
   -0.1150    2.3018    1.1326 H   0  0  0  0  0  0  0  0  0  0  0  0
   -2.1492   -0.3731    0.9628 H   0  0  0  0  0  0  0  0  0  0  0  0
   -0.1117   -2.5848   -0.0962 H   0  0  0  0  0  0  0  0  0  0  0  0
    2.3830   -2.1993   -0.1481 H   0  0  0  0  0  0  0  0  0  0  0  0
    2.7927    0.4764   -0.0826 H   0  0  0  0  0  0  0  0  0  0  0  0
  1  5  1  0  0  0  0
  1  2  1  0  0  0  0
  1  9  1  0  0  0  0
  2 12  1  0  0  0  0
  3  4  2  0  0  0  0
  3  2  1  0  0  0  0
  4  5  1  0  0  0  0
  5 13  1  0  0  0  0
  6  4  1  0  0  0  0
  7  8  2  0  0  0  0
  7  6  1  0  0  0  0
  8  3  1  0  0  0  0
 10  1  1  0  0  0  0
 11  2  1  0  0  0  0
 14  6  1  0  0  0  0
 15  7  1  0  0  0  0
 16  8  1  0  0  0  0
M  END
