title
 OpenBabel02282109573D

 15 16  0  0  0  0  0  0  0  0999 V2000
   -1.6865    1.3458    0.1058 C   0  0  0  0  0  0  0  0  0  0  0  0
   -0.2084    1.8596   -0.0343 C   0  0  0  0  0  0  0  0  0  0  0  0
    0.5525    0.5670    0.0793 C   0  0  0  0  0  0  0  0  0  0  0  0
   -0.3329   -0.4497   -0.0283 C   0  0  0  0  0  0  0  0  0  0  0  0
   -1.6668   -0.1135   -0.2372 N   0  0  0  0  0  0  0  0  0  0  0  0
    0.2410   -1.6600   -0.0558 O   0  0  0  0  0  0  0  0  0  0  0  0
    1.6032   -1.4021    0.0432 C   0  0  0  0  0  0  0  0  0  0  0  0
    1.8402   -0.0617    0.1118 C   0  0  0  0  0  0  0  0  0  0  0  0
   -2.0250    1.4847    1.1403 H   0  0  0  0  0  0  0  0  0  0  0  0
   -2.3779    1.8747   -0.5539 H   0  0  0  0  0  0  0  0  0  0  0  0
   -0.0560    2.3432   -1.0083 H   0  0  0  0  0  0  0  0  0  0  0  0
    0.0180    2.6079    0.7320 H   0  0  0  0  0  0  0  0  0  0  0  0
   -2.3369   -0.6559    0.2961 H   0  0  0  0  0  0  0  0  0  0  0  0
    2.2302   -2.2761    0.0757 H   0  0  0  0  0  0  0  0  0  0  0  0
    2.8142    0.3963    0.1936 H   0  0  0  0  0  0  0  0  0  0  0  0
  1  9  1  0  0  0  0
  2  3  1  0  0  0  0
  2  1  1  0  0  0  0
  2 12  1  0  0  0  0
  3  8  1  0  0  0  0
  4  3  2  0  0  0  0
  5  4  1  0  0  0  0
  5  1  1  0  0  0  0
  5 13  1  0  0  0  0
  6  4  1  0  0  0  0
  6  7  1  0  0  0  0
  7 14  1  0  0  0  0
  7  8  2  0  0  0  0
  8 15  1  0  0  0  0
 10  1  1  0  0  0  0
 11  2  1  0  0  0  0
M  END
