14
title
C -1.6764671 1.3501954 0.069714904
C -0.1797191 1.8373339 -0.0132102715
C 0.526484 0.5192363 0.095814995
C -0.36857834 -0.47738662 -0.02457919
N -1.69065 -0.12492749 -0.24726897
O 0.2585661 -1.6688563 -0.064601906
C 1.5931435 -1.2982833 0.04565035
N 1.8020575 -0.023551194 0.1268709
H -2.059427 1.5133927 1.083659
H -2.32517 1.8796304 -0.6307395
H 0.018376572 2.3351521 -0.9705906
H 0.04352198 2.5582025 0.77910954
H -2.3781567 -0.6360229 0.2950159
H 2.3015695 -2.1092994 0.075872116
