title
 OpenBabel02282109573D

 15 16  0  0  0  0  0  0  0  0999 V2000
   -1.4958    1.2661   -0.8246 C   0  0  0  0  0  0  0  0  0  0  0  0
   -0.0587    1.7973   -0.4886 C   0  0  0  0  0  0  0  0  0  0  0  0
    0.6017    0.5197   -0.0447 C   0  0  0  0  0  0  0  0  0  0  0  0
   -0.3741   -0.4222    0.0567 C   0  0  0  0  0  0  0  0  0  0  0  0
    0.1229   -1.5928    0.5250 N   0  0  0  0  0  0  0  0  0  0  0  0
    1.4908   -1.3982    0.7363 C   0  0  0  0  0  0  0  0  0  0  0  0
    1.8079   -0.1009    0.3971 C   0  0  0  0  0  0  0  0  0  0  0  0
   -1.6433   -0.0777   -0.2604 O   0  0  0  0  0  0  0  0  0  0  0  0
   -2.2973    1.8787   -0.4076 H   0  0  0  0  0  0  0  0  0  0  0  0
   -1.6398    1.1794   -1.9066 H   0  0  0  0  0  0  0  0  0  0  0  0
    0.3883    2.2655   -1.3722 H   0  0  0  0  0  0  0  0  0  0  0  0
   -0.0879    2.5619    0.2988 H   0  0  0  0  0  0  0  0  0  0  0  0
   -0.3848   -2.4467    0.6715 H   0  0  0  0  0  0  0  0  0  0  0  0
    2.1051   -2.2077    1.0935 H   0  0  0  0  0  0  0  0  0  0  0  0
    2.7945    0.3326    0.4594 H   0  0  0  0  0  0  0  0  0  0  0  0
  1  2  1  0  0  0  0
  1  9  1  0  0  0  0
  1  8  1  0  0  0  0
  2  3  1  0  0  0  0
  2 12  1  0  0  0  0
  3  4  2  0  0  0  0
  3  7  1  0  0  0  0
  4  5  1  0  0  0  0
  5 13  1  0  0  0  0
  5  6  1  0  0  0  0
  6 14  1  0  0  0  0
  7 15  1  0  0  0  0
  7  6  2  0  0  0  0
  8  4  1  0  0  0  0
 10  1  1  0  0  0  0
 11  2  1  0  0  0  0
M  END
