15
title
C -1.4878259 1.2593867 -0.83576995
C -0.055898312 1.7704655 -0.44908455
C 0.5377891 0.45388487 -0.06736876
C -0.43367553 -0.4950817 0.058045488
O -1.6915449 -0.053428832 -0.2525424
C 0.12989259 -1.6908231 0.55931675
C 1.4754467 -1.405213 0.73402333
N 1.7164664 -0.098825224 0.3705972
H -2.2893467 1.9102141 -0.48025292
H -1.5662163 1.1612878 -1.9252825
H 0.4128374 2.277075 -1.2999856
H -0.08493317 2.4890072 0.38270137
H -0.3540815 -2.6308405 0.7684752
H 2.281267 -2.040409 1.0652221
H 2.6222131 0.3344622 0.3577051
