14
title
C -1.514075 1.2995118 -0.72841793
C -0.010379417 1.7278144 -0.5488596
C 0.4795361 0.46025494 0.058515623
C -0.44203803 -0.5207087 -0.003925191
O -1.6321957 -0.14706758 -0.5490119
C 0.15579738 -1.7132127 0.49737835
C 1.4296682 -1.3292106 0.82140887
O 1.6537642 -0.006566231 0.55494523
H -2.1396499 1.7760614 0.033315852
H -1.9114528 1.5399054 -1.7160985
H 0.47073272 1.9660705 -1.5068963
H 0.06779219 2.61553 0.087401405
H -0.26588246 -2.6983936 0.61124384
H 2.262323 -1.8604542 1.2517614
