title
 OpenBabel02282109573D

 14 15  0  0  0  0  0  0  0  0999 V2000
   -1.5141    1.2995   -0.7284 C   0  0  0  0  0  0  0  0  0  0  0  0
   -0.0104    1.7278   -0.5489 C   0  0  0  0  0  0  0  0  0  0  0  0
    0.4795    0.4603    0.0585 C   0  0  0  0  0  0  0  0  0  0  0  0
   -0.4420   -0.5207   -0.0039 C   0  0  0  0  0  0  0  0  0  0  0  0
   -1.6322   -0.1471   -0.5490 O   0  0  0  0  0  0  0  0  0  0  0  0
    0.1558   -1.7132    0.4974 C   0  0  0  0  0  0  0  0  0  0  0  0
    1.4297   -1.3292    0.8214 C   0  0  0  0  0  0  0  0  0  0  0  0
    1.6538   -0.0066    0.5549 O   0  0  0  0  0  0  0  0  0  0  0  0
   -2.1396    1.7761    0.0333 H   0  0  0  0  0  0  0  0  0  0  0  0
   -1.9115    1.5399   -1.7161 H   0  0  0  0  0  0  0  0  0  0  0  0
    0.4707    1.9661   -1.5069 H   0  0  0  0  0  0  0  0  0  0  0  0
    0.0678    2.6155    0.0874 H   0  0  0  0  0  0  0  0  0  0  0  0
   -0.2659   -2.6984    0.6112 H   0  0  0  0  0  0  0  0  0  0  0  0
    2.2623   -1.8605    1.2518 H   0  0  0  0  0  0  0  0  0  0  0  0
  1  5  1  0  0  0  0
  1  2  1  0  0  0  0
  1  9  1  0  0  0  0
  2  3  1  0  0  0  0
  2 12  1  0  0  0  0
  3  8  1  0  0  0  0
  4  3  2  0  0  0  0
  4  6  1  0  0  0  0
  5  4  1  0  0  0  0
  6 13  1  0  0  0  0
  6  7  2  0  0  0  0
  7 14  1  0  0  0  0
  8  7  1  0  0  0  0
 10  1  1  0  0  0  0
 11  2  1  0  0  0  0
M  END
