14
title
C -1.5211537 1.2803257 -0.6988066
C -0.026520338 1.763392 -0.5588351
C 0.5214593 0.5312345 0.077399574
C -0.3765994 -0.4853682 0.012004278
O -1.5786564 -0.1637994 -0.53697515
N 0.10629752 -1.6720313 0.4496574
C 1.3543807 -1.3753569 0.7878873
N 1.6685904 -0.0592858 0.5669704
H -2.134034 1.7293187 0.09046664
H -1.9579 1.5223389 -1.6693603
H 0.4264492 1.9879899 -1.5344869
H 0.023872409 2.677587 0.042365573
H 2.0664065 -2.0667398 1.2118273
H 2.5452437 0.38125473 0.7873116
