title
 OpenBabel02282109573D

 13 14  0  0  1  0  0  0  0  0999 V2000
   -1.4988    1.2675   -0.7782 C   0  0  0  0  0  0  0  0  0  0  0  0
   -0.0239    1.7695   -0.4969 C   0  0  0  0  0  0  0  0  0  0  0  0
    0.5351    0.4606   -0.0705 C   0  0  2  0  0  0  0  0  0  0  0  0
   -0.4158   -0.4750    0.0642 C   0  0  0  0  0  0  0  0  0  0  0  0
   -1.6726   -0.0909   -0.2534 O   0  0  0  0  0  0  0  0  0  0  0  0
    0.0920   -1.6495    0.5511 N   0  0  0  0  0  0  0  0  0  0  0  0
    1.3547   -1.3549    0.6966 C   0  0  0  0  0  0  0  0  0  0  0  0
    1.7150   -0.0865    0.3503 O   0  0  0  0  0  0  0  0  0  0  0  0
   -2.2538    1.8969   -0.3050 H   0  0  0  0  0  0  0  0  0  0  0  0
   -1.6897    1.2253   -1.8542 H   0  0  0  0  0  0  0  0  0  0  0  0
    0.4175    2.2007   -1.4012 H   0  0  0  0  0  0  0  0  0  0  0  0
    0.0072    2.5381    0.2858 H   0  0  0  0  0  0  0  0  0  0  0  0
    2.1465   -1.9975    1.0467 H   0  0  0  0  0  0  0  0  0  0  0  0
  1  2  1  0  0  0  0
  1  9  1  0  0  0  0
  1  5  1  0  0  0  0
  2  3  1  0  0  0  0
  2 12  1  0  0  0  0
  3  4  1  1  0  0  0
  3  8  1  0  0  0  0
  4  6  2  0  0  0  0
  5  4  1  0  0  0  0
  6  7  2  0  0  0  0
  7 13  1  0  0  0  0
  8  7  1  0  0  0  0
 10  1  1  0  0  0  0
 11  2  1  0  0  0  0
M  RAD  1   3   2
M  END
