title
 OpenBabel02282109573D

 13 14  0  0  0  0  0  0  0  0999 V2000
   -1.5010    1.2908   -0.7554 C   0  0  0  0  0  0  0  0  0  0  0  0
   -0.0157    1.7815   -0.5259 C   0  0  0  0  0  0  0  0  0  0  0  0
    0.5789    0.5085   -0.0035 C   0  0  0  0  0  0  0  0  0  0  0  0
   -0.3787   -0.4272    0.0300 C   0  0  0  0  0  0  0  0  0  0  0  0
   -1.6188   -0.1361   -0.3669 O   0  0  0  0  0  0  0  0  0  0  0  0
    0.0914   -1.5931    0.4897 O   0  0  0  0  0  0  0  0  0  0  0  0
    1.4283   -1.2765    0.7328 C   0  0  0  0  0  0  0  0  0  0  0  0
    1.7597   -0.0559    0.4586 N   0  0  0  0  0  0  0  0  0  0  0  0
   -2.2196    1.8372   -0.1423 H   0  0  0  0  0  0  0  0  0  0  0  0
   -1.8024    1.3507   -1.8025 H   0  0  0  0  0  0  0  0  0  0  0  0
    0.4305    2.1319   -1.4627 H   0  0  0  0  0  0  0  0  0  0  0  0
    0.0165    2.6145    0.1845 H   0  0  0  0  0  0  0  0  0  0  0  0
    2.0319   -2.0799    1.1197 H   0  0  0  0  0  0  0  0  0  0  0  0
  1  2  1  0  0  0  0
  1  5  1  0  0  0  0
  1  9  1  0  0  0  0
  2  3  1  0  0  0  0
  2 12  1  0  0  0  0
  3  4  2  0  0  0  0
  3  8  1  0  0  0  0
  4  6  1  0  0  0  0
  5  4  1  0  0  0  0
  6  7  1  0  0  0  0
  7 13  1  0  0  0  0
  8  7  2  0  0  0  0
 10  1  1  0  0  0  0
 11  2  1  0  0  0  0
M  END
