title
 OpenBabel02282109573D

 12 13  0  0  0  0  0  0  0  0999 V2000
   -1.5017    1.1610   -0.6986 C   0  0  0  0  0  0  0  0  0  0  0  0
   -0.0999    1.5471   -0.5840 O   0  0  0  0  0  0  0  0  0  0  0  0
    0.3830    0.4528    0.0567 C   0  0  0  0  0  0  0  0  0  0  0  0
   -0.4412   -0.6025    0.0521 C   0  0  0  0  0  0  0  0  0  0  0  0
   -1.6087   -0.2703   -0.6183 O   0  0  0  0  0  0  0  0  0  0  0  0
    0.3010   -1.6975    0.5771 C   0  0  0  0  0  0  0  0  0  0  0  0
    1.5324   -1.1647    0.8621 C   0  0  0  0  0  0  0  0  0  0  0  0
    1.5987    0.1855    0.5286 O   0  0  0  0  0  0  0  0  0  0  0  0
   -2.0431    1.6132    0.1457 H   0  0  0  0  0  0  0  0  0  0  0  0
   -1.8816    1.5043   -1.6610 H   0  0  0  0  0  0  0  0  0  0  0  0
   -0.0004   -2.7184    0.7454 H   0  0  0  0  0  0  0  0  0  0  0  0
    2.4129   -1.5546    1.3410 H   0  0  0  0  0  0  0  0  0  0  0  0
  1  5  1  0  0  0  0
  1  2  1  0  0  0  0
  1  9  1  0  0  0  0
  2  3  1  0  0  0  0
  3  8  1  0  0  0  0
  4  3  2  0  0  0  0
  4  6  1  0  0  0  0
  5  4  1  0  0  0  0
  6 11  1  0  0  0  0
  6  7  2  0  0  0  0
  7 12  1  0  0  0  0
  8  7  1  0  0  0  0
 10  1  1  0  0  0  0
M  END
