11
title
C -1.5060843 1.1427377 -0.69768053
O -0.1048676 1.580044 -0.5763538
C 0.40255818 0.49302277 0.048917096
C -0.39464286 -0.573264 0.05371801
O -1.582041 -0.29264817 -0.5898269
N 0.2581273 -1.664189 0.5479065
C 1.4379596 -1.1795334 0.8264873
O 1.6110972 0.16989635 0.52829826
H -2.0624418 1.5986679 0.1323465
H -1.8810871 1.4568044 -1.6712626
H 2.2773511 -1.6657846 1.2919977
