title
 OpenBabel02282109573D

 14 15  0  0  0  0  0  0  0  0999 V2000
   -0.7060    1.5736    0.2768 C   0  0  0  0  0  0  0  0  0  0  0  0
    0.5972    2.0229   -0.1223 O   0  0  0  0  0  0  0  0  0  0  0  0
    1.4901    0.9303   -0.4424 C   0  0  0  0  0  0  0  0  0  0  0  0
    0.6631   -0.2940   -0.2205 C   0  0  0  0  0  0  0  0  0  0  0  0
   -0.5626    0.0958    0.1819 C   0  0  0  0  0  0  0  0  0  0  0  0
   -1.3874   -0.9453    0.4093 O   0  0  0  0  0  0  0  0  0  0  0  0
   -0.6349   -2.0612    0.1328 C   0  0  0  0  0  0  0  0  0  0  0  0
    0.6284   -1.7255   -0.2571 C   0  0  0  0  0  0  0  0  0  0  0  0
   -0.9293    1.9334    1.2923 H   0  0  0  0  0  0  0  0  0  0  0  0
   -1.4670    1.9899   -0.4000 H   0  0  0  0  0  0  0  0  0  0  0  0
    1.8353    1.0477   -1.4792 H   0  0  0  0  0  0  0  0  0  0  0  0
    2.3721    0.9913    0.2107 H   0  0  0  0  0  0  0  0  0  0  0  0
   -1.1426   -3.0024    0.2626 H   0  0  0  0  0  0  0  0  0  0  0  0
    1.4099   -2.4178   -0.5284 H   0  0  0  0  0  0  0  0  0  0  0  0
  1  9  1  0  0  0  0
  2  1  1  0  0  0  0
  3  4  1  0  0  0  0
  3  2  1  0  0  0  0
  3 12  1  0  0  0  0
  4  5  2  0  0  0  0
  5  1  1  0  0  0  0
  5  6  1  0  0  0  0
  7 13  1  0  0  0  0
  7  6  1  0  0  0  0
  8  4  1  0  0  0  0
  8  7  2  0  0  0  0
 10  1  1  0  0  0  0
 11  3  1  0  0  0  0
 14  8  1  0  0  0  0
M  END
