13
title
C -0.7133231 1.5969751 0.2801018
O 0.60694474 2.0077662 -0.12372444
C 1.4822495 0.8968816 -0.4385014
C 0.61100346 -0.29098424 -0.20326681
C -0.6013551 0.11861463 0.1943192
O -1.391348 -0.9622795 0.40743065
C -0.55435795 -2.00758 0.10728654
N 0.64395994 -1.6747097 -0.26087153
H -0.92368835 1.9711504 1.2922306
H -1.4597589 2.0288534 -0.40179005
H 1.8267553 0.9949676 -1.4765122
H 2.3625157 0.93730026 0.21668835
H -0.9758103 -2.995193 0.20708254
