title
 OpenBabel02282109573D

 13 14  0  0  0  0  0  0  0  0999 V2000
   -0.7133    1.5970    0.2801 C   0  0  0  0  0  0  0  0  0  0  0  0
    0.6069    2.0078   -0.1237 O   0  0  0  0  0  0  0  0  0  0  0  0
    1.4822    0.8969   -0.4385 C   0  0  0  0  0  0  0  0  0  0  0  0
    0.6110   -0.2910   -0.2033 C   0  0  0  0  0  0  0  0  0  0  0  0
   -0.6014    0.1186    0.1943 C   0  0  0  0  0  0  0  0  0  0  0  0
   -1.3913   -0.9623    0.4074 O   0  0  0  0  0  0  0  0  0  0  0  0
   -0.5544   -2.0076    0.1073 C   0  0  0  0  0  0  0  0  0  0  0  0
    0.6440   -1.6747   -0.2609 N   0  0  0  0  0  0  0  0  0  0  0  0
   -0.9237    1.9712    1.2922 H   0  0  0  0  0  0  0  0  0  0  0  0
   -1.4598    2.0289   -0.4018 H   0  0  0  0  0  0  0  0  0  0  0  0
    1.8268    0.9950   -1.4765 H   0  0  0  0  0  0  0  0  0  0  0  0
    2.3625    0.9373    0.2167 H   0  0  0  0  0  0  0  0  0  0  0  0
   -0.9758   -2.9952    0.2071 H   0  0  0  0  0  0  0  0  0  0  0  0
  1  9  1  0  0  0  0
  2  1  1  0  0  0  0
  3  4  1  0  0  0  0
  3  2  1  0  0  0  0
  3 12  1  0  0  0  0
  4  5  2  0  0  0  0
  5  1  1  0  0  0  0
  5  6  1  0  0  0  0
  7 13  1  0  0  0  0
  7  6  1  0  0  0  0
  8  4  1  0  0  0  0
  8  7  2  0  0  0  0
 10  1  1  0  0  0  0
 11  3  1  0  0  0  0
M  END
