title
 OpenBabel02282109573D

 17 18  0  0  0  0  0  0  0  0999 V2000
   -1.5538    1.2039   -1.0191 C   0  0  0  0  0  0  0  0  0  0  0  0
   -0.2629    1.7867   -0.3660 C   0  0  0  0  0  0  0  0  0  0  0  0
    0.4632    0.5401    0.0566 C   0  0  0  0  0  0  0  0  0  0  0  0
    1.7010    0.1166    0.4713 C   0  0  0  0  0  0  0  0  0  0  0  0
    1.5933   -1.2351    0.7244 N   0  0  0  0  0  0  0  0  0  0  0  0
    0.3101   -1.6755    0.4748 C   0  0  0  0  0  0  0  0  0  0  0  0
   -0.4081   -0.5826    0.0588 C   0  0  0  0  0  0  0  0  0  0  0  0
   -1.7967   -0.1897   -0.3621 C   0  0  0  0  0  0  0  0  0  0  0  0
   -2.4143    1.8719   -0.9215 H   0  0  0  0  0  0  0  0  0  0  0  0
   -1.3732    1.0616   -2.0900 H   0  0  0  0  0  0  0  0  0  0  0  0
    0.2957    2.4214   -1.0616 H   0  0  0  0  0  0  0  0  0  0  0  0
   -0.5150    2.4150    0.4994 H   0  0  0  0  0  0  0  0  0  0  0  0
    2.6402    0.6289    0.6065 H   0  0  0  0  0  0  0  0  0  0  0  0
    2.3548   -1.8256    1.0089 H   0  0  0  0  0  0  0  0  0  0  0  0
    0.0472   -2.7121    0.6132 H   0  0  0  0  0  0  0  0  0  0  0  0
   -2.4663   -0.0993    0.5044 H   0  0  0  0  0  0  0  0  0  0  0  0
   -2.2743   -0.8900   -1.0551 H   0  0  0  0  0  0  0  0  0  0  0  0
  1  9  1  0  0  0  0
  1  2  1  0  0  0  0
  1  8  1  0  0  0  0
  2  3  1  0  0  0  0
  2 12  1  0  0  0  0
  3  7  1  0  0  0  0
  3  4  2  0  0  0  0
  4 13  1  0  0  0  0
  4  5  1  0  0  0  0
  5 14  1  0  0  0  0
  6 15  1  0  0  0  0
  6  5  1  0  0  0  0
  7  6  2  0  0  0  0
  8  7  1  0  0  0  0
  8 16  1  0  0  0  0
 10  1  1  0  0  0  0
 11  2  1  0  0  0  0
 17  8  1  0  0  0  0
M  END
