title
 OpenBabel02282109573D

 16 17  0  0  0  0  0  0  0  0999 V2000
   -1.7076    1.3291    0.1472 C   0  0  0  0  0  0  0  0  0  0  0  0
   -0.2490    1.8241   -0.0895 C   0  0  0  0  0  0  0  0  0  0  0  0
    0.5131    0.5343    0.0291 C   0  0  0  0  0  0  0  0  0  0  0  0
    1.7740    0.0066    0.1478 C   0  0  0  0  0  0  0  0  0  0  0  0
    1.6403   -1.3620    0.1135 N   0  0  0  0  0  0  0  0  0  0  0  0
    0.3046   -1.7241   -0.0266 C   0  0  0  0  0  0  0  0  0  0  0  0
   -0.3968   -0.5465   -0.0835 C   0  0  0  0  0  0  0  0  0  0  0  0
   -1.7151   -0.0917   -0.2880 N   0  0  0  0  0  0  0  0  0  0  0  0
   -1.9491    1.4187    1.2176 H   0  0  0  0  0  0  0  0  0  0  0  0
   -2.4462    1.9066   -0.4162 H   0  0  0  0  0  0  0  0  0  0  0  0
   -0.1502    2.2610   -1.0920 H   0  0  0  0  0  0  0  0  0  0  0  0
    0.0307    2.5985    0.6306 H   0  0  0  0  0  0  0  0  0  0  0  0
    2.7442    0.4643    0.2572 H   0  0  0  0  0  0  0  0  0  0  0  0
    2.3941   -2.0128    0.2394 H   0  0  0  0  0  0  0  0  0  0  0  0
    0.0092   -2.7591   -0.0643 H   0  0  0  0  0  0  0  0  0  0  0  0
   -2.4333   -0.6390    0.1688 H   0  0  0  0  0  0  0  0  0  0  0  0
  1  9  1  0  0  0  0
  2  3  1  0  0  0  0
  2  1  1  0  0  0  0
  2 12  1  0  0  0  0
  3  4  2  0  0  0  0
  4 13  1  0  0  0  0
  5  4  1  0  0  0  0
  5 14  1  0  0  0  0
  6  5  1  0  0  0  0
  7  6  2  0  0  0  0
  7  3  1  0  0  0  0
  8  7  1  0  0  0  0
  8  1  1  0  0  0  0
  8 16  1  0  0  0  0
 10  1  1  0  0  0  0
 11  2  1  0  0  0  0
 15  6  1  0  0  0  0
M  END
