title
 OpenBabel02282109573D

 16 17  0  0  0  0  0  0  0  0999 V2000
   -1.5874    1.2287   -0.9551 C   0  0  0  0  0  0  0  0  0  0  0  0
   -0.2855    1.8034   -0.3157 C   0  0  0  0  0  0  0  0  0  0  0  0
    0.4565    0.5527    0.0618 C   0  0  0  0  0  0  0  0  0  0  0  0
    1.6814    0.0939    0.4147 C   0  0  0  0  0  0  0  0  0  0  0  0
    1.6204   -1.2549    0.6341 O   0  0  0  0  0  0  0  0  0  0  0  0
    0.3291   -1.6507    0.4177 C   0  0  0  0  0  0  0  0  0  0  0  0
   -0.4213   -0.5798    0.0638 C   0  0  0  0  0  0  0  0  0  0  0  0
   -1.8182   -0.1739   -0.3122 C   0  0  0  0  0  0  0  0  0  0  0  0
   -2.4458    1.8943   -0.8322 H   0  0  0  0  0  0  0  0  0  0  0  0
   -1.4256    1.1014   -2.0307 H   0  0  0  0  0  0  0  0  0  0  0  0
    0.2572    2.4579   -1.0039 H   0  0  0  0  0  0  0  0  0  0  0  0
   -0.5209    2.4025    0.5737 H   0  0  0  0  0  0  0  0  0  0  0  0
    2.6540    0.5383    0.5457 H   0  0  0  0  0  0  0  0  0  0  0  0
    0.1414   -2.7032    0.5514 H   0  0  0  0  0  0  0  0  0  0  0  0
   -2.4555   -0.0934    0.5780 H   0  0  0  0  0  0  0  0  0  0  0  0
   -2.3179   -0.8642   -0.9981 H   0  0  0  0  0  0  0  0  0  0  0  0
  1  9  1  0  0  0  0
  1  2  1  0  0  0  0
  1  8  1  0  0  0  0
  2  3  1  0  0  0  0
  2 12  1  0  0  0  0
  3  7  1  0  0  0  0
  3  4  2  0  0  0  0
  4 13  1  0  0  0  0
  4  5  1  0  0  0  0
  6 14  1  0  0  0  0
  6  5  1  0  0  0  0
  7  6  2  0  0  0  0
  8  7  1  0  0  0  0
  8 15  1  0  0  0  0
 10  1  1  0  0  0  0
 11  2  1  0  0  0  0
 16  8  1  0  0  0  0
M  END
