14
title
C -1.5112101 1.2642037 -0.85395736
C -0.09022052 1.7956861 -0.4782441
C 0.56635076 0.5222351 -0.033950035
C 1.7220786 -0.07633488 0.34134215
O 1.4795399 -1.3735876 0.6832523
C 0.13097614 -1.6168426 0.5253654
C -0.44450945 -0.47031188 0.09017426
O -1.6882911 -0.037070505 -0.2332659
H -2.3220572 1.9069372 -0.50532436
H -1.6028359 1.1365806 -1.9389849
H 0.38717228 2.2802427 -1.3340663
H -0.14207429 2.5326858 0.33116424
H 2.7489274 0.23950055 0.4216848
H -0.20591968 -2.6099463 0.76005644
