title
 OpenBabel02282109573D

 14 15  0  0  0  0  0  0  0  0999 V2000
   -1.5112    1.2642   -0.8540 C   0  0  0  0  0  0  0  0  0  0  0  0
   -0.0902    1.7957   -0.4782 C   0  0  0  0  0  0  0  0  0  0  0  0
    0.5664    0.5222   -0.0340 C   0  0  0  0  0  0  0  0  0  0  0  0
    1.7221   -0.0763    0.3413 C   0  0  0  0  0  0  0  0  0  0  0  0
    1.4795   -1.3736    0.6833 O   0  0  0  0  0  0  0  0  0  0  0  0
    0.1310   -1.6168    0.5254 C   0  0  0  0  0  0  0  0  0  0  0  0
   -0.4445   -0.4703    0.0902 C   0  0  0  0  0  0  0  0  0  0  0  0
   -1.6883   -0.0371   -0.2333 O   0  0  0  0  0  0  0  0  0  0  0  0
   -2.3221    1.9069   -0.5053 H   0  0  0  0  0  0  0  0  0  0  0  0
   -1.6028    1.1366   -1.9390 H   0  0  0  0  0  0  0  0  0  0  0  0
    0.3872    2.2802   -1.3341 H   0  0  0  0  0  0  0  0  0  0  0  0
   -0.1421    2.5327    0.3312 H   0  0  0  0  0  0  0  0  0  0  0  0
    2.7489    0.2395    0.4217 H   0  0  0  0  0  0  0  0  0  0  0  0
   -0.2059   -2.6099    0.7601 H   0  0  0  0  0  0  0  0  0  0  0  0
  1  9  1  0  0  0  0
  1  2  1  0  0  0  0
  1  8  1  0  0  0  0
  2  3  1  0  0  0  0
  2 12  1  0  0  0  0
  3  7  1  0  0  0  0
  3  4  2  0  0  0  0
  4 13  1  0  0  0  0
  4  5  1  0  0  0  0
  6  5  1  0  0  0  0
  6 14  1  0  0  0  0
  7  6  2  0  0  0  0
  8  7  1  0  0  0  0
 10  1  1  0  0  0  0
 11  2  1  0  0  0  0
M  END
