title
 OpenBabel02282109573D

 13 14  0  0  0  0  0  0  0  0999 V2000
   -1.4826    1.1223   -0.8432 C   0  0  0  0  0  0  0  0  0  0  0  0
   -0.2503    1.6560   -0.3341 O   0  0  0  0  0  0  0  0  0  0  0  0
    0.4585    0.5321    0.0089 C   0  0  0  0  0  0  0  0  0  0  0  0
    1.6976    0.1575    0.4412 C   0  0  0  0  0  0  0  0  0  0  0  0
    1.5830   -1.1987    0.7354 N   0  0  0  0  0  0  0  0  0  0  0  0
    0.3078   -1.6761    0.4443 C   0  0  0  0  0  0  0  0  0  0  0  0
   -0.3884   -0.5851    0.0108 C   0  0  0  0  0  0  0  0  0  0  0  0
   -1.6626   -0.2072   -0.3309 O   0  0  0  0  0  0  0  0  0  0  0  0
   -2.3112    1.7510   -0.5102 H   0  0  0  0  0  0  0  0  0  0  0  0
   -1.4298    1.0804   -1.9422 H   0  0  0  0  0  0  0  0  0  0  0  0
    2.6186    0.6922    0.5935 H   0  0  0  0  0  0  0  0  0  0  0  0
    2.3778   -1.8008    0.8581 H   0  0  0  0  0  0  0  0  0  0  0  0
    0.0421   -2.7069    0.5993 H   0  0  0  0  0  0  0  0  0  0  0  0
  1  9  1  0  0  0  0
  1  2  1  0  0  0  0
  1  8  1  0  0  0  0
  2  3  1  0  0  0  0
  3  7  1  0  0  0  0
  3  4  2  0  0  0  0
  4 11  1  0  0  0  0
  4  5  1  0  0  0  0
  5 12  1  0  0  0  0
  6 13  1  0  0  0  0
  6  5  1  0  0  0  0
  7  6  2  0  0  0  0
  8  7  1  0  0  0  0
 10  1  1  0  0  0  0
M  END
