12
title
C -1.5158017 1.1459627 -0.798931
O -0.25262138 1.6608384 -0.33949232
C 0.4459572 0.5471649 0.025517618
C 1.6722027 0.14143418 0.42160866
O 1.6022633 -1.2116199 0.6711068
C 0.31863907 -1.6468735 0.4246131
C -0.40546665 -0.5777232 0.027407503
O -1.6675786 -0.20858134 -0.33635148
H -2.322234 1.7570403 -0.38711137
H -1.5299156 1.1547995 -1.8977386
H 2.6269026 0.60847515 0.5801748
H 0.12864712 -2.692182 0.5857202
