15
title
C -0.7240773 1.60865 0.29622716
O 0.5612789 2.0468767 -0.17239298
C 1.4536147 0.95048475 -0.4282242
C 0.6244156 -0.27293962 -0.20491026
C 0.6614253 -1.6431094 -0.2578926
N -0.5853848 -2.0829768 0.13272774
C -1.4081315 -1.017626 0.4305853
C -0.6652113 0.11682508 0.22410901
H -0.8870264 1.984977 1.3176945
H -1.4997694 2.0510337 -0.34461725
H 1.8363214 1.042765 -1.4544324
H 2.3164413 1.016791 0.25199896
H 1.4346333 -2.3429422 -0.53014535
H -0.86006534 -3.0484273 0.18415473
H -2.4240716 -1.1767235 0.75352716
