16
title
C -1.670922 1.3050315 -0.11584961
C -0.20207492 1.7359935 0.16529687
N 0.4765292 0.4713973 -0.03811193
C 1.7744616 0.015169056 -0.08139743
C 1.7132677 -1.3607773 -0.07906223
C 0.33803925 -1.7576255 -0.026655769
C -0.38640633 -0.5916851 0.010736397
N -1.7299432 -0.16032206 0.09737081
H -2.393868 1.8241667 0.51597065
H -1.9171413 1.5190703 -1.1614128
H 0.13942549 2.5074098 -0.5302184
H -0.05518701 2.104201 1.1900866
H 2.6102648 0.69162273 -0.15278558
H 2.563067 -2.0241423 -0.14087392
H -0.05170443 -2.7627523 -0.027265338
H -2.1419258 -0.39063922 0.99552506
