16
title
C -1.6517837 1.2626605 -0.6587435
C -0.14777161 1.636455 -0.6433964
N 0.44078028 0.4670009 -0.006190156
C 1.6248673 0.10209043 0.55571085
N 1.6013345 -1.160846 0.9324966
C 0.3517567 -1.6333746 0.58833236
C -0.38337338 -0.6352361 0.0026576172
C -1.6905566 -0.2939501 -0.6473701
H -2.1248608 1.6447939 0.2503945
H -2.1741157 1.6972386 -1.5135953
H 0.2531699 1.7639811 -1.6563687
H 0.05964433 2.5484068 -0.077588834
H 2.4532437 0.78387386 0.67604965
H 0.06429373 -2.6536043 0.79128677
H -2.5600915 -0.67738646 -0.10739235
H -1.7457892 -0.69249904 -1.6685748
