title
 OpenBabel02282109573D

 16 17  0  0  0  0  0  0  0  0999 V2000
   -1.6518    1.2627   -0.6587 C   0  0  0  0  0  0  0  0  0  0  0  0
   -0.1478    1.6365   -0.6434 C   0  0  0  0  0  0  0  0  0  0  0  0
    0.4408    0.4670   -0.0062 N   0  0  0  0  0  0  0  0  0  0  0  0
    1.6249    0.1021    0.5557 C   0  0  0  0  0  0  0  0  0  0  0  0
    1.6013   -1.1608    0.9325 N   0  0  0  0  0  0  0  0  0  0  0  0
    0.3518   -1.6334    0.5883 C   0  0  0  0  0  0  0  0  0  0  0  0
   -0.3834   -0.6352    0.0027 C   0  0  0  0  0  0  0  0  0  0  0  0
   -1.6906   -0.2940   -0.6474 C   0  0  0  0  0  0  0  0  0  0  0  0
   -2.1249    1.6448    0.2504 H   0  0  0  0  0  0  0  0  0  0  0  0
   -2.1741    1.6972   -1.5136 H   0  0  0  0  0  0  0  0  0  0  0  0
    0.2532    1.7640   -1.6564 H   0  0  0  0  0  0  0  0  0  0  0  0
    0.0596    2.5484   -0.0776 H   0  0  0  0  0  0  0  0  0  0  0  0
    2.4532    0.7839    0.6760 H   0  0  0  0  0  0  0  0  0  0  0  0
    0.0643   -2.6536    0.7913 H   0  0  0  0  0  0  0  0  0  0  0  0
   -2.5601   -0.6774   -0.1074 H   0  0  0  0  0  0  0  0  0  0  0  0
   -1.7458   -0.6925   -1.6686 H   0  0  0  0  0  0  0  0  0  0  0  0
  1  8  1  0  0  0  0
  1  2  1  0  0  0  0
  1  9  1  0  0  0  0
  2 12  1  0  0  0  0
  2  3  1  0  0  0  0
  3  7  1  0  0  0  0
  3  4  1  0  0  0  0
  4 13  1  0  0  0  0
  4  5  2  0  0  0  0
  6 14  1  0  0  0  0
  6  5  1  0  0  0  0
  7  6  2  0  0  0  0
  8 15  1  0  0  0  0
  8  7  1  0  0  0  0
 10  1  1  0  0  0  0
 11  2  1  0  0  0  0
 16  8  1  0  0  0  0
M  END
