title
 OpenBabel02282109573D

 14 15  0  0  0  0  0  0  0  0999 V2000
   -1.5292    1.2710   -0.6769 C   0  0  0  0  0  0  0  0  0  0  0  0
   -0.0301    1.6737   -0.5866 C   0  0  0  0  0  0  0  0  0  0  0  0
    0.4928    0.4847    0.0595 N   0  0  0  0  0  0  0  0  0  0  0  0
    1.6415   -0.0323    0.6065 C   0  0  0  0  0  0  0  0  0  0  0  0
    1.4875   -1.3032    0.8907 N   0  0  0  0  0  0  0  0  0  0  0  0
    0.2006   -1.6538    0.5045 C   0  0  0  0  0  0  0  0  0  0  0  0
   -0.4036   -0.5454   -0.0147 C   0  0  0  0  0  0  0  0  0  0  0  0
   -1.5663   -0.1700   -0.6067 O   0  0  0  0  0  0  0  0  0  0  0  0
   -2.0897    1.6804    0.1716 H   0  0  0  0  0  0  0  0  0  0  0  0
   -2.0056    1.5800   -1.6083 H   0  0  0  0  0  0  0  0  0  0  0  0
    0.4239    1.8232   -1.5730 H   0  0  0  0  0  0  0  0  0  0  0  0
    0.1155    2.5769    0.0105 H   0  0  0  0  0  0  0  0  0  0  0  0
    2.5233    0.5620    0.7881 H   0  0  0  0  0  0  0  0  0  0  0  0
   -0.1850   -2.6512    0.6292 H   0  0  0  0  0  0  0  0  0  0  0  0
  1  8  1  0  0  0  0
  1  2  1  0  0  0  0
  1  9  1  0  0  0  0
  2 12  1  0  0  0  0
  2  3  1  0  0  0  0
  3  4  1  0  0  0  0
  4 13  1  0  0  0  0
  4  5  2  0  0  0  0
  6 14  1  0  0  0  0
  6  5  1  0  0  0  0
  7  3  1  0  0  0  0
  7  6  2  0  0  0  0
  8  7  1  0  0  0  0
 10  1  1  0  0  0  0
 11  2  1  0  0  0  0
M  END
