title
 OpenBabel02282109573D

 13 14  0  0  0  0  0  0  0  0999 V2000
   -0.6701   -2.2088   -0.3374 O   0  0  0  0  0  0  0  0  0  0  0  0
   -0.5515   -1.0194   -0.2446 C   0  0  0  0  0  0  0  0  0  0  0  0
   -1.5953   -0.1008   -0.4269 O   0  0  0  0  0  0  0  0  0  0  0  0
   -1.1516    1.1984   -0.1855 C   0  0  0  0  0  0  0  0  0  0  0  0
    0.1547    1.1263    0.0887 C   0  0  0  0  0  0  0  0  0  0  0  0
    1.5329    1.5502    0.5692 C   0  0  0  0  0  0  0  0  0  0  0  0
    1.8787    0.0079    0.5550 C   0  0  0  0  0  0  0  0  0  0  0  0
    0.5222   -0.2068    0.0159 N   0  0  0  0  0  0  0  0  0  0  0  0
   -1.8863    1.9804   -0.2488 H   0  0  0  0  0  0  0  0  0  0  0  0
    2.1119    2.1475   -0.1374 H   0  0  0  0  0  0  0  0  0  0  0  0
    1.5652    2.0213    1.5528 H   0  0  0  0  0  0  0  0  0  0  0  0
    2.6765   -0.2990   -0.1240 H   0  0  0  0  0  0  0  0  0  0  0  0
    2.0319   -0.4394    1.5397 H   0  0  0  0  0  0  0  0  0  0  0  0
  1  2  2  0  0  0  0
  2  8  1  0  0  0  0
  3  2  1  0  0  0  0
  3  4  1  0  0  0  0
  4  5  2  0  0  0  0
  5  6  1  0  0  0  0
  6 11  1  0  0  0  0
  7  6  1  0  0  0  0
  7 13  1  0  0  0  0
  8  5  1  0  0  0  0
  8  7  1  0  0  0  0
  9  4  1  0  0  0  0
 10  6  1  0  0  0  0
 12  7  1  0  0  0  0
M  END
