title
 OpenBabel02282109573D

 16 17  0  0  0  0  0  0  0  0999 V2000
   -0.2160    2.5380    0.5634 C   0  0  0  0  0  0  0  0  0  0  0  0
   -0.0902    1.0506    0.5130 C   0  0  0  0  0  0  0  0  0  0  0  0
   -0.0145    0.1886   -0.5545 C   0  0  0  0  0  0  0  0  0  0  0  0
    0.0314   -0.3084   -1.9958 C   0  0  0  0  0  0  0  0  0  0  0  0
    0.1511   -1.7444   -1.3588 C   0  0  0  0  0  0  0  0  0  0  0  0
    0.0908   -1.0730   -0.0402 N   0  0  0  0  0  0  0  0  0  0  0  0
    0.0797   -0.9846    1.3156 C   0  0  0  0  0  0  0  0  0  0  0  0
   -0.0285    0.2851    1.6669 N   0  0  0  0  0  0  0  0  0  0  0  0
    0.6283    2.9898    1.0955 H   0  0  0  0  0  0  0  0  0  0  0  0
   -0.2493    2.9626   -0.4438 H   0  0  0  0  0  0  0  0  0  0  0  0
   -1.1269    2.8414    1.0911 H   0  0  0  0  0  0  0  0  0  0  0  0
   -0.8731   -0.1517   -2.5885 H   0  0  0  0  0  0  0  0  0  0  0  0
    0.8999   -0.0018   -2.5838 H   0  0  0  0  0  0  0  0  0  0  0  0
   -0.6896   -2.4168   -1.5452 H   0  0  0  0  0  0  0  0  0  0  0  0
    1.0936   -2.2660   -1.5405 H   0  0  0  0  0  0  0  0  0  0  0  0
    0.1490   -1.8257    1.9871 H   0  0  0  0  0  0  0  0  0  0  0  0
  1 11  1  0  0  0  0
  1  9  1  0  0  0  0
  2  1  1  0  0  0  0
  2  8  1  0  0  0  0
  3  6  1  0  0  0  0
  3  2  2  0  0  0  0
  4  5  1  0  0  0  0
  4  3  1  0  0  0  0
  5  6  1  0  0  0  0
  6  7  1  0  0  0  0
  7  8  2  0  0  0  0
  7 16  1  0  0  0  0
 10  1  1  0  0  0  0
 12  4  1  0  0  0  0
 13  4  1  0  0  0  0
 14  5  1  0  0  0  0
 15  5  1  0  0  0  0
M  END
