title
 OpenBabel02282109573D

 15 16  0  0  0  0  0  0  0  0999 V2000
   -0.0565    2.4231    0.4336 O   0  0  0  0  0  0  0  0  0  0  0  0
   -0.0492    1.0583    0.5151 C   0  0  0  0  0  0  0  0  0  0  0  0
    0.0126    0.1797   -0.5435 C   0  0  0  0  0  0  0  0  0  0  0  0
    0.1336   -0.3010   -1.9778 C   0  0  0  0  0  0  0  0  0  0  0  0
    0.1256   -1.7491   -1.3468 C   0  0  0  0  0  0  0  0  0  0  0  0
   -0.0032   -1.0914   -0.0375 N   0  0  0  0  0  0  0  0  0  0  0  0
   -0.0658   -1.0976    1.3190 C   0  0  0  0  0  0  0  0  0  0  0  0
   -0.1031    0.2437    1.6909 C   0  0  0  0  0  0  0  0  0  0  0  0
   -0.1059    2.7765    1.3262 H   0  0  0  0  0  0  0  0  0  0  0  0
   -0.7139   -0.0911   -2.6363 H   0  0  0  0  0  0  0  0  0  0  0  0
    1.0590   -0.0443   -2.5009 H   0  0  0  0  0  0  0  0  0  0  0  0
   -0.7287   -2.3779   -1.6140 H   0  0  0  0  0  0  0  0  0  0  0  0
    1.0527   -2.3170   -1.4681 H   0  0  0  0  0  0  0  0  0  0  0  0
   -0.0906   -1.9956    1.9140 H   0  0  0  0  0  0  0  0  0  0  0  0
   -0.1698    0.6085    2.7065 H   0  0  0  0  0  0  0  0  0  0  0  0
  1  2  1  0  0  0  0
  1  9  1  0  0  0  0
  2  8  1  0  0  0  0
  3  6  1  0  0  0  0
  3  2  2  0  0  0  0
  4  5  1  0  0  0  0
  4  3  1  0  0  0  0
  5  6  1  0  0  0  0
  6  7  1  0  0  0  0
  7  8  2  0  0  0  0
  7 14  1  0  0  0  0
  8 15  1  0  0  0  0
 10  4  1  0  0  0  0
 11  4  1  0  0  0  0
 12  5  1  0  0  0  0
 13  5  1  0  0  0  0
M  END
