14
title
O -0.07453377 2.3864803 0.48488644
C -0.049164496 1.034131 0.4811257
C 0.03333535 0.17128511 -0.58402324
C 0.13162786 -0.36147365 -2.0048726
C 0.11600486 -1.7873474 -1.3306922
N 0.022106683 -1.084957 -0.029825697
C -0.06373219 -0.9778795 1.3135741
N -0.10815577 0.3111482 1.6423178
H -0.13722874 2.6467824 1.4119698
H -0.72303754 -0.16242932 -2.656352
H 1.0525556 -0.1296222 -2.5458307
H -0.75552696 -2.4069412 -1.5537758
H 1.0306302 -2.373996 -1.4426496
H -0.09135085 -1.8059462 2.0030627
