title
 OpenBabel02282109573D

 16 17  0  0  0  0  0  0  0  0999 V2000
   -0.5919    2.3524    0.2587 N   0  0  0  0  0  0  0  0  0  0  0  0
   -0.6473    0.9449    0.2405 C   0  0  0  0  0  0  0  0  0  0  0  0
   -1.6971    0.0433    0.3535 C   0  0  0  0  0  0  0  0  0  0  0  0
   -1.2033   -1.2932    0.1525 C   0  0  0  0  0  0  0  0  0  0  0  0
    0.1491   -1.1510   -0.0217 C   0  0  0  0  0  0  0  0  0  0  0  0
    1.5370   -1.5365   -0.5111 C   0  0  0  0  0  0  0  0  0  0  0  0
    1.8212    0.0146   -0.5161 C   0  0  0  0  0  0  0  0  0  0  0  0
    0.4686    0.1819    0.0431 N   0  0  0  0  0  0  0  0  0  0  0  0
   -0.0828    2.7090    1.0627 H   0  0  0  0  0  0  0  0  0  0  0  0
   -1.5270    2.7398    0.2892 H   0  0  0  0  0  0  0  0  0  0  0  0
   -2.7149    0.3125    0.5975 H   0  0  0  0  0  0  0  0  0  0  0  0
   -1.7890   -2.1991    0.1538 H   0  0  0  0  0  0  0  0  0  0  0  0
    2.1596   -2.1111    0.1808 H   0  0  0  0  0  0  0  0  0  0  0  0
    1.5856   -2.0024   -1.4988 H   0  0  0  0  0  0  0  0  0  0  0  0
    2.6248    0.3668    0.1370 H   0  0  0  0  0  0  0  0  0  0  0  0
    1.9376    0.4526   -1.5114 H   0  0  0  0  0  0  0  0  0  0  0  0
  1 10  1  0  0  0  0
  1  9  1  0  0  0  0
  2  1  1  0  0  0  0
  2  3  2  0  0  0  0
  3 11  1  0  0  0  0
  4 12  1  0  0  0  0
  4  3  1  0  0  0  0
  5  8  1  0  0  0  0
  5  4  2  0  0  0  0
  6  5  1  0  0  0  0
  6 13  1  0  0  0  0
  7  6  1  0  0  0  0
  7  8  1  0  0  0  0
  7 15  1  0  0  0  0
  8  2  1  0  0  0  0
 14  6  1  0  0  0  0
 16  7  1  0  0  0  0
M  END
