title
 OpenBabel02282109573D

 14 15  0  0  0  0  0  0  0  0999 V2000
    0.5307    2.2998   -0.3996 O   0  0  0  0  0  0  0  0  0  0  0  0
    0.6119    0.9556   -0.2598 C   0  0  0  0  0  0  0  0  0  0  0  0
    1.6381    0.0312   -0.3360 C   0  0  0  0  0  0  0  0  0  0  0  0
    1.1826   -1.2681   -0.0974 N   0  0  0  0  0  0  0  0  0  0  0  0
   -0.0975   -1.0937    0.0725 C   0  0  0  0  0  0  0  0  0  0  0  0
   -1.4493   -1.5865    0.5621 C   0  0  0  0  0  0  0  0  0  0  0  0
   -1.8562   -0.0597    0.5136 C   0  0  0  0  0  0  0  0  0  0  0  0
   -0.5067    0.2010   -0.0348 N   0  0  0  0  0  0  0  0  0  0  0  0
    1.4093    2.6363   -0.6027 H   0  0  0  0  0  0  0  0  0  0  0  0
    2.6745    0.2273   -0.5676 H   0  0  0  0  0  0  0  0  0  0  0  0
   -2.0097   -2.2315   -0.1191 H   0  0  0  0  0  0  0  0  0  0  0  0
   -1.4627   -2.0227    1.5636 H   0  0  0  0  0  0  0  0  0  0  0  0
   -2.6659    0.2088   -0.1683 H   0  0  0  0  0  0  0  0  0  0  0  0
   -2.0219    0.3973    1.4919 H   0  0  0  0  0  0  0  0  0  0  0  0
  1  2  1  0  0  0  0
  2  8  1  0  0  0  0
  3  2  2  0  0  0  0
  3  4  1  0  0  0  0
  4  5  2  0  0  0  0
  5  6  1  0  0  0  0
  6 12  1  0  0  0  0
  7  6  1  0  0  0  0
  7 14  1  0  0  0  0
  8  5  1  0  0  0  0
  8  7  1  0  0  0  0
  9  1  1  0  0  0  0
 10  3  1  0  0  0  0
 11  6  1  0  0  0  0
 13  7  1  0  0  0  0
M  END
