17
title
C -1.8123 1.7578058 -0.60693854
C -1.4036092 0.312734 -0.3841817
C -0.6449168 -0.43165433 -1.5564765
C 0.49545246 -0.56769365 -0.56313145
C 1.6920286 -1.0200739 -0.055409316
C 1.7083055 -0.5682578 1.3044206
C 0.534435 0.11743791 1.5818248
N -0.17096977 0.11034058 0.41012716
H -0.9778279 2.3401792 -1.0088185
H -2.6460686 1.8076043 -1.3149283
H -2.137581 2.2233906 0.32897097
H -2.2410822 -0.27157766 0.012969191
H -1.1179698 -1.3617996 -1.8834324
H -0.45511216 0.19596949 -2.4326358
H 2.4615028 -1.5880363 -0.5538091
H 2.5138102 -0.72091234 2.008029
H 0.19136603 0.6046276 2.4796975
