16
title
C -1.6770302 2.0064955 -0.18685497
C -1.417243 0.5048832 -0.2149576
C -0.72911626 -0.08163363 -1.5215861
N 0.37835196 -0.51003504 -0.6457555
C 1.5903502 -1.0734679 -0.32159892
C 1.6749206 -0.86337197 1.0435969
N 0.56862473 -0.1970582 1.5545999
C -0.16726755 -0.018580373 0.48401174
H -0.7818 2.567919 -0.47199932
H -2.488473 2.2774715 -0.87031627
H -1.9637996 2.3233113 0.8201027
H -2.3270447 -0.045269128 0.046684016
H -1.253787 -0.9079068 -2.0085027
H -0.43749306 0.6669897 -2.2636137
H 2.251726 -1.5473183 -1.0260351
H 2.4851089 -1.161448 1.692704
