title
 OpenBabel02282109573D

 16 17  0  0  1  0  0  0  0  0999 V2000
   -1.6770    2.0065   -0.1869 C   0  0  0  0  0  0  0  0  0  0  0  0
   -1.4172    0.5049   -0.2150 C   0  0  1  0  0  0  0  0  0  0  0  0
   -0.7291   -0.0816   -1.5216 C   0  0  0  0  0  0  0  0  0  0  0  0
    0.3784   -0.5100   -0.6458 N   0  0  0  0  0  0  0  0  0  0  0  0
    1.5904   -1.0735   -0.3216 C   0  0  0  0  0  0  0  0  0  0  0  0
    1.6749   -0.8634    1.0436 C   0  0  0  0  0  0  0  0  0  0  0  0
    0.5686   -0.1971    1.5546 N   0  0  0  0  0  0  0  0  0  0  0  0
   -0.1673   -0.0186    0.4840 C   0  0  0  0  0  0  0  0  0  0  0  0
   -0.7818    2.5679   -0.4720 H   0  0  0  0  0  0  0  0  0  0  0  0
   -2.4885    2.2775   -0.8703 H   0  0  0  0  0  0  0  0  0  0  0  0
   -1.9638    2.3233    0.8201 H   0  0  0  0  0  0  0  0  0  0  0  0
   -2.3270   -0.0453    0.0467 H   0  0  0  0  0  0  0  0  0  0  0  0
   -1.2538   -0.9079   -2.0085 H   0  0  0  0  0  0  0  0  0  0  0  0
   -0.4375    0.6670   -2.2636 H   0  0  0  0  0  0  0  0  0  0  0  0
    2.2517   -1.5473   -1.0260 H   0  0  0  0  0  0  0  0  0  0  0  0
    2.4851   -1.1614    1.6927 H   0  0  0  0  0  0  0  0  0  0  0  0
  1 11  1  0  0  0  0
  2  1  1  0  0  0  0
  2 12  1  1  0  0  0
  2  8  1  0  0  0  0
  3  4  1  0  0  0  0
  3  2  1  0  0  0  0
  4  5  1  0  0  0  0
  4  8  1  0  0  0  0
  5  6  2  0  0  0  0
  6  7  1  0  0  0  0
  6 16  1  0  0  0  0
  8  7  2  0  0  0  0
  9  1  1  0  0  0  0
 10  1  1  0  0  0  0
 13  3  1  0  0  0  0
 14  3  1  0  0  0  0
 15  5  1  0  0  0  0
M  END
