16
title
C -1.6484083 2.0839057 -0.17520109
C -1.4253813 0.5773458 -0.24005201
C -0.70254004 0.022163749 -1.5325071
N 0.36342418 -0.46320432 -0.62822294
C 1.5269108 -1.0837343 -0.29396555
N 1.6933568 -1.0225228 1.0162818
C 0.6084614 -0.3491966 1.5453701
C -0.22520673 0.00059557037 0.5121108
H -0.7250725 2.6286612 -0.39552358
H -2.4156113 2.3984632 -0.89068663
H -1.9811232 2.3800418 0.82437736
H -2.3614442 0.046693534 -0.03879061
H -1.2213842 -0.77722013 -2.0669465
H -0.361004 0.78487194 -2.2373617
H 2.1994622 -1.5471871 -0.9982019
H 0.52209985 -0.17636913 2.6061306
