title
 OpenBabel02282109573D

 14 15  0  0  1  0  0  0  0  0999 V2000
    0.7752    1.7780    1.6393 O   0  0  0  0  0  0  0  0  0  0  0  0
    0.5299    0.4423    1.3128 C   0  0  1  0  0  0  0  0  0  0  0  0
   -0.9786   -0.0834    1.3572 C   0  0  0  0  0  0  0  0  0  0  0  0
   -0.8037   -0.4199   -0.0698 N   0  0  0  0  0  0  0  0  0  0  0  0
   -1.1169   -1.0321   -1.2547 C   0  0  0  0  0  0  0  0  0  0  0  0
    0.0398   -0.8792   -2.0045 C   0  0  0  0  0  0  0  0  0  0  0  0
    1.0468   -0.2358   -1.3065 N   0  0  0  0  0  0  0  0  0  0  0  0
    0.4746    0.0114   -0.1504 C   0  0  0  0  0  0  0  0  0  0  0  0
    0.4139    2.3328    0.9388 H   0  0  0  0  0  0  0  0  0  0  0  0
    1.1938   -0.1555    1.9429 H   0  0  0  0  0  0  0  0  0  0  0  0
   -1.1633   -0.9494    1.9981 H   0  0  0  0  0  0  0  0  0  0  0  0
   -1.7222    0.6957    1.5433 H   0  0  0  0  0  0  0  0  0  0  0  0
   -2.0728   -1.4730   -1.4799 H   0  0  0  0  0  0  0  0  0  0  0  0
    0.1940   -1.1985   -3.0249 H   0  0  0  0  0  0  0  0  0  0  0  0
  2  3  1  0  0  0  0
  2  1  1  0  0  0  0
  2 10  1  1  0  0  0
  3 12  1  0  0  0  0
  3 11  1  0  0  0  0
  4  3  1  0  0  0  0
  5  4  1  0  0  0  0
  6  7  1  0  0  0  0
  6  5  2  0  0  0  0
  7  8  2  0  0  0  0
  8  4  1  0  0  0  0
  8  2  1  0  0  0  0
  9  1  1  0  0  0  0
 13  5  1  0  0  0  0
 14  6  1  0  0  0  0
M  END
