14
title
O 0.7567273 1.8656068 1.5878203
C 0.506455 0.51112 1.3431292
C -1.0071679 0.022429237 1.3406068
N -0.7617731 -0.42320532 -0.049880024
C -1.0562723 -1.0374106 -1.22255
N 0.003461539 -1.002923 -2.0172837
C 1.0172588 -0.36957568 -1.3313583
C 0.53963584 -0.0047649653 -0.094320886
H 0.42146942 2.371634 0.83895737
H 1.1256955 -0.044954114 2.0513372
H -1.2577744 -0.78980595 2.0270832
H -1.7373804 0.8311679 1.4225396
H -2.0127802 -1.473707 -1.4632972
H 1.9884231 -0.22367679 -1.7766632
