title
 OpenBabel02282109573D

 14 16  0  0  1  0  0  0  0  0999 V2000
   -1.1366    1.3912    1.1649 C   0  0  0  0  0  0  0  0  0  0  0  0
    0.2473    0.8345    1.3659 C   0  0  1  0  0  0  0  0  0  0  0  0
   -0.9570   -0.1067    1.3775 C   0  0  2  0  0  0  0  0  0  0  0  0
   -0.3857   -0.6887    0.0982 C   0  0  0  0  0  0  0  0  0  0  0  0
   -0.4222   -1.2077   -1.1699 C   0  0  0  0  0  0  0  0  0  0  0  0
    0.6507   -0.6989   -1.8847 N   0  0  0  0  0  0  0  0  0  0  0  0
    1.2694    0.1665   -1.1034 C   0  0  0  0  0  0  0  0  0  0  0  0
    0.7068    0.1501    0.1399 N   0  0  0  0  0  0  0  0  0  0  0  0
   -1.5395    1.9428    2.0110 H   0  0  0  0  0  0  0  0  0  0  0  0
   -1.4303    1.7666    0.1899 H   0  0  0  0  0  0  0  0  0  0  0  0
    0.9343    1.1075    2.1544 H   0  0  0  0  0  0  0  0  0  0  0  0
   -1.3797   -0.6376    2.2180 H   0  0  0  0  0  0  0  0  0  0  0  0
   -1.0967   -1.9228   -1.6132 H   0  0  0  0  0  0  0  0  0  0  0  0
    2.1493    0.7338   -1.3648 H   0  0  0  0  0  0  0  0  0  0  0  0
  1  2  1  0  0  0  0
  1  3  1  0  0  0  0
  1  9  1  0  0  0  0
  2  3  1  1  0  0  0
  2 11  1  0  0  0  0
  3 12  1  1  0  0  0
  4  8  1  0  0  0  0
  4  3  1  0  0  0  0
  5  4  2  0  0  0  0
  6  5  1  0  0  0  0
  6  7  2  0  0  0  0
  7  8  1  0  0  0  0
  8  2  1  0  0  0  0
 10  1  1  0  0  0  0
 13  5  1  0  0  0  0
 14  7  1  0  0  0  0
M  END
