14
title
C -1.0705742 1.3487511 1.1284122
C 0.29765704 0.7722373 1.375874
C -0.9158529 -0.15307184 1.3491658
C -0.3098686 -0.70868635 0.0786615
N -0.5614824 -1.144995 -1.1292949
C 0.47778848 -0.59484816 -1.8720479
C 1.2762748 0.24329147 -1.1213667
N 0.80537444 0.084411584 0.16803378
H -1.503117 1.9092362 1.9537606
H -1.3240942 1.722038 0.14152426
H 0.95637316 1.0329655 2.1926324
H -1.3767916 -0.6834351 2.1696615
H 0.6094199 -0.8587305 -2.911688
H 2.1634088 0.80007654 -1.3736012
