16
title
C 0.08210483 1.9143214 -1.472318
C 1.4869062 1.425439 -1.2634299
C 0.35127786 0.42481005 -1.3675544
C -0.089693666 -0.3419618 -0.19756745
C -0.55795074 -1.6120001 -0.041721217
C -0.82327193 -1.7815486 1.3579416
C -0.49883276 -0.6045333 1.9474747
O -0.04911169 0.28418365 1.0150521
H -0.41846687 2.381519 -0.6322241
H -0.1939063 2.3086102 -2.4439092
H 2.1865153 1.480257 -2.089978
H 1.9280088 1.5650235 -0.2833593
H 0.29003206 -0.14449275 -2.2885737
H -0.6968278 -2.3386147 -0.8267682
H -1.2042036 -2.6623623 1.8505974
H -0.5222976 -0.24335921 2.9619207
