title
 OpenBabel02282109573D

 16 17  0  0  0  0  0  0  0  0999 V2000
    0.7275    2.0481   -1.2451 C   0  0  0  0  0  0  0  0  0  0  0  0
    1.5429    0.8823   -1.7340 C   0  0  0  0  0  0  0  0  0  0  0  0
    0.0963    0.6798   -1.3120 C   0  0  0  0  0  0  0  0  0  0  0  0
   -0.2325   -0.0408   -0.0679 C   0  0  0  0  0  0  0  0  0  0  0  0
   -0.5978    0.3698    1.1908 C   0  0  0  0  0  0  0  0  0  0  0  0
   -0.8178   -0.7038    2.0242 N   0  0  0  0  0  0  0  0  0  0  0  0
   -0.5943   -1.7632    1.2831 C   0  0  0  0  0  0  0  0  0  0  0  0
   -0.2389   -1.4228    0.0113 N   0  0  0  0  0  0  0  0  0  0  0  0
    0.9588    2.4452   -0.2638 H   0  0  0  0  0  0  0  0  0  0  0  0
    0.4014    2.7904   -1.9643 H   0  0  0  0  0  0  0  0  0  0  0  0
    1.7756    0.8199   -2.7913 H   0  0  0  0  0  0  0  0  0  0  0  0
    2.3138    0.4965   -1.0766 H   0  0  0  0  0  0  0  0  0  0  0  0
   -0.6032    0.5297   -2.1322 H   0  0  0  0  0  0  0  0  0  0  0  0
   -0.7198    1.3846    1.5381 H   0  0  0  0  0  0  0  0  0  0  0  0
   -0.6728   -2.7915    1.6040 H   0  0  0  0  0  0  0  0  0  0  0  0
    0.0035   -2.0528   -0.7352 H   0  0  0  0  0  0  0  0  0  0  0  0
  1  9  1  0  0  0  0
  2  3  1  0  0  0  0
  2  1  1  0  0  0  0
  2 12  1  0  0  0  0
  3  1  1  0  0  0  0
  3  4  1  0  0  0  0
  4  8  1  0  0  0  0
  4  5  2  0  0  0  0
  5 14  1  0  0  0  0
  5  6  1  0  0  0  0
  7 15  1  0  0  0  0
  7  6  2  0  0  0  0
  8  7  1  0  0  0  0
 10  1  1  0  0  0  0
 11  2  1  0  0  0  0
 13  3  1  0  0  0  0
 16  8  1  0  0  0  0
M  END
