16
title
C 0.7275338 2.048105 -1.2450973
C 1.5428511 0.8822856 -1.7340021
C 0.09632611 0.6798195 -1.31205
C -0.23249444 -0.04075547 -0.06790709
C -0.59784883 0.36976847 1.1908095
N -0.81777954 -0.70381796 2.0241556
C -0.59426624 -1.7632095 1.2830598
N -0.23887005 -1.422768 0.011307722
H 0.9587952 2.4451902 -0.26375937
H 0.40136328 2.7903736 -1.9642706
H 1.7756404 0.81989586 -2.791286
H 2.3137915 0.4965479 -1.0765716
H -0.60324556 0.5297378 -2.1322188
H -0.719821 1.3845999 1.5381262
H -0.6727714 -2.791525 1.6039655
H 0.0034992371 -2.0528057 -0.73516804
