15
title
C 0.10923668 1.9341922 -1.4775414
C 1.508066 1.4285346 -1.2732576
C 0.36036053 0.44120112 -1.3751272
C -0.08527028 -0.31919128 -0.20640665
C -0.56834954 -1.573376 -0.012333931
N -0.8356843 -1.7687744 1.3402367
C -0.509618 -0.6481271 1.8880131
O -0.04353367 0.28938144 1.0234573
H -0.38397506 2.4083428 -0.63703847
H -0.16555007 2.329267 -2.4489486
H 2.204557 1.4725423 -2.1028302
H 1.9556091 1.5626543 -0.29538423
H 0.28884083 -0.12829143 -2.295261
H -0.74226665 -2.3464582 -0.74334055
H -0.55814683 -0.3648128 2.9274426
