16
title
C 1.1263798 1.8563927 -1.134756
C 1.1789219 0.664493 -2.0424163
C -0.029189903 0.8742979 -1.1499994
C -0.23093386 -0.01545132 0.0066476427
N 0.71404976 -0.54480064 0.7569162
C 0.06130868 -1.2967634 1.7068955
C -1.2932253 -1.224897 1.5340146
N -1.4681588 -0.3999893 0.4400254
H 1.7504848 1.8380729 -0.24909347
H 0.96131265 2.8365347 -1.5683792
H 1.0508307 0.81353456 -3.108878
H 1.8380111 -0.14859737 -1.7618212
H -0.9437592 1.202782 -1.6341228
H 0.60607976 -1.8459468 2.4598503
H -2.1257806 -1.6617177 2.0592196
H -2.3487635 -0.13052584 0.03505021
