title
 OpenBabel02282109573D

 15 16  0  0  0  0  0  0  0  0999 V2000
    0.1305    1.9119   -1.5291 C   0  0  0  0  0  0  0  0  0  0  0  0
    1.5222    1.4050   -1.3112 C   0  0  0  0  0  0  0  0  0  0  0  0
    0.3602    0.4279   -1.3043 C   0  0  0  0  0  0  0  0  0  0  0  0
   -0.0577   -0.1733   -0.0340 C   0  0  0  0  0  0  0  0  0  0  0  0
   -0.0525    0.3498    1.1546 N   0  0  0  0  0  0  0  0  0  0  0  0
   -0.5471   -0.6528    1.9791 C   0  0  0  0  0  0  0  0  0  0  0  0
   -0.8289   -1.7439    1.2330 C   0  0  0  0  0  0  0  0  0  0  0  0
   -0.5183   -1.4508   -0.0689 O   0  0  0  0  0  0  0  0  0  0  0  0
   -0.3416    2.4500   -0.7157 H   0  0  0  0  0  0  0  0  0  0  0  0
   -0.1632    2.2235   -2.5250 H   0  0  0  0  0  0  0  0  0  0  0  0
    2.2018    1.3622   -2.1548 H   0  0  0  0  0  0  0  0  0  0  0  0
    1.9848    1.6028   -0.3515 H   0  0  0  0  0  0  0  0  0  0  0  0
    0.2528   -0.2329   -2.1559 H   0  0  0  0  0  0  0  0  0  0  0  0
   -0.6613   -0.5108    3.0421 H   0  0  0  0  0  0  0  0  0  0  0  0
   -1.2183   -2.7279    1.4264 H   0  0  0  0  0  0  0  0  0  0  0  0
  1  2  1  0  0  0  0
  1  3  1  0  0  0  0
  1  9  1  0  0  0  0
  2  3  1  0  0  0  0
  2 12  1  0  0  0  0
  3  4  1  0  0  0  0
  4  5  2  0  0  0  0
  5  6  1  0  0  0  0
  6 14  1  0  0  0  0
  7 15  1  0  0  0  0
  7  6  2  0  0  0  0
  8  4  1  0  0  0  0
  8  7  1  0  0  0  0
 10  1  1  0  0  0  0
 11  2  1  0  0  0  0
 13  3  1  0  0  0  0
M  END
