title
 OpenBabel02282109573D

 15 16  0  0  0  0  0  0  0  0999 V2000
    0.4037    1.8472   -1.3478 C   0  0  0  0  0  0  0  0  0  0  0  0
    1.4206    0.8079   -1.6495 C   0  0  0  0  0  0  0  0  0  0  0  0
    0.0263    0.4246   -1.3741 N   0  0  0  0  0  0  0  0  0  0  0  0
   -0.2645   -0.2095   -0.1694 C   0  0  0  0  0  0  0  0  0  0  0  0
   -1.1716   -1.1793    0.1201 C   0  0  0  0  0  0  0  0  0  0  0  0
   -1.0371   -1.4553    1.5215 C   0  0  0  0  0  0  0  0  0  0  0  0
   -0.0594   -0.6336    1.9785 C   0  0  0  0  0  0  0  0  0  0  0  0
    0.4279    0.1370    0.9644 O   0  0  0  0  0  0  0  0  0  0  0  0
    0.4595    2.3316   -0.3777 H   0  0  0  0  0  0  0  0  0  0  0  0
   -0.0254    2.4443   -2.1469 H   0  0  0  0  0  0  0  0  0  0  0  0
    1.7439    0.6361   -2.6718 H   0  0  0  0  0  0  0  0  0  0  0  0
    2.1583    0.5956   -0.8817 H   0  0  0  0  0  0  0  0  0  0  0  0
   -1.8474   -1.6343   -0.5852 H   0  0  0  0  0  0  0  0  0  0  0  0
   -1.5965   -2.1706    2.1038 H   0  0  0  0  0  0  0  0  0  0  0  0
    0.3911   -0.4746    2.9443 H   0  0  0  0  0  0  0  0  0  0  0  0
  1  9  1  0  0  0  0
  2  3  1  0  0  0  0
  2  1  1  0  0  0  0
  2 12  1  0  0  0  0
  3  1  1  0  0  0  0
  3  4  1  0  0  0  0
  4  5  2  0  0  0  0
  4  8  1  0  0  0  0
  5  6  1  0  0  0  0
  6  7  2  0  0  0  0
  6 14  1  0  0  0  0
  7 15  1  0  0  0  0
  8  7  1  0  0  0  0
 10  1  1  0  0  0  0
 11  2  1  0  0  0  0
 13  5  1  0  0  0  0
M  END
