15
title
C 0.40365767 1.8471823 -1.3478447
C 1.4205735 0.80791354 -1.6494966
N 0.026308887 0.42456752 -1.3741126
C -0.2644614 -0.20954514 -0.16937998
C -1.1715657 -1.1793363 0.12011238
C -1.0370942 -1.4552648 1.5215499
C -0.059429355 -0.63361657 1.9785395
O 0.42785984 0.13702579 0.96435016
H 0.45951974 2.3315878 -0.3777323
H -0.025416113 2.4443128 -2.1469402
H 1.7439488 0.636082 -2.6718132
H 2.1582909 0.59555656 -0.8816727
H -1.8474408 -1.634311 -0.58519906
H -1.596462 -2.1706374 2.1038241
H 0.39108038 -0.4745567 2.9442587
