title
 OpenBabel02282109573D

 14 15  0  0  0  0  0  0  0  0999 V2000
    0.3895    1.8706   -1.3563 C   0  0  0  0  0  0  0  0  0  0  0  0
    1.4240    0.8481   -1.6563 C   0  0  0  0  0  0  0  0  0  0  0  0
    0.0358    0.4411   -1.3799 N   0  0  0  0  0  0  0  0  0  0  0  0
   -0.2463   -0.1959   -0.1813 C   0  0  0  0  0  0  0  0  0  0  0  0
   -1.1229   -1.1774    0.1410 C   0  0  0  0  0  0  0  0  0  0  0  0
   -1.0181   -1.4696    1.4976 N   0  0  0  0  0  0  0  0  0  0  0  0
   -0.1019   -0.6673    1.9238 C   0  0  0  0  0  0  0  0  0  0  0  0
    0.4280    0.1462    0.9773 O   0  0  0  0  0  0  0  0  0  0  0  0
    0.4362    2.3587   -0.3875 H   0  0  0  0  0  0  0  0  0  0  0  0
   -0.0506    2.4574   -2.1567 H   0  0  0  0  0  0  0  0  0  0  0  0
    1.7484    0.6792   -2.6785 H   0  0  0  0  0  0  0  0  0  0  0  0
    2.1661    0.6488   -0.8892 H   0  0  0  0  0  0  0  0  0  0  0  0
   -1.8151   -1.6873   -0.5079 H   0  0  0  0  0  0  0  0  0  0  0  0
    0.2894   -0.5650    2.9241 H   0  0  0  0  0  0  0  0  0  0  0  0
  1  9  1  0  0  0  0
  2  3  1  0  0  0  0
  2  1  1  0  0  0  0
  2 12  1  0  0  0  0
  3  1  1  0  0  0  0
  3  4  1  0  0  0  0
  4  5  2  0  0  0  0
  4  8  1  0  0  0  0
  5  6  1  0  0  0  0
  6  7  2  0  0  0  0
  7 14  1  0  0  0  0
  8  7  1  0  0  0  0
 10  1  1  0  0  0  0
 11  2  1  0  0  0  0
 13  5  1  0  0  0  0
M  END
