title
 OpenBabel02282109573D

 16 17  0  0  1  0  0  0  0  0999 V2000
    0.3055    2.0361   -1.3667 C   0  0  0  0  0  0  0  0  0  0  0  0
    1.4893    1.1727   -1.4579 N   0  0  0  0  0  0  0  0  0  0  0  0
    0.1676    0.5459   -1.3221 C   0  0  1  0  0  0  0  0  0  0  0  0
   -0.0804   -0.1960   -0.0700 C   0  0  0  0  0  0  0  0  0  0  0  0
    0.7195   -0.4138    1.0305 C   0  0  0  0  0  0  0  0  0  0  0  0
   -0.0344   -1.1737    1.9679 C   0  0  0  0  0  0  0  0  0  0  0  0
   -1.2727   -1.4002    1.4155 C   0  0  0  0  0  0  0  0  0  0  0  0
   -1.2904   -0.8040    0.1778 N   0  0  0  0  0  0  0  0  0  0  0  0
    0.2261    2.5975   -0.4407 H   0  0  0  0  0  0  0  0  0  0  0  0
   -0.0368    2.5588   -2.2570 H   0  0  0  0  0  0  0  0  0  0  0  0
    1.8095    1.1091   -2.4198 H   0  0  0  0  0  0  0  0  0  0  0  0
   -0.2633    0.0947   -2.2169 H   0  0  0  0  0  0  0  0  0  0  0  0
    1.7356   -0.0665    1.1279 H   0  0  0  0  0  0  0  0  0  0  0  0
    0.2988   -1.5214    2.9338 H   0  0  0  0  0  0  0  0  0  0  0  0
   -2.1328   -1.9341    1.7863 H   0  0  0  0  0  0  0  0  0  0  0  0
   -2.0786   -0.7912   -0.4457 H   0  0  0  0  0  0  0  0  0  0  0  0
  1  3  1  0  0  0  0
  1  9  1  0  0  0  0
  2  1  1  0  0  0  0
  2  3  1  0  0  0  0
  3 12  1  6  0  0  0
  3  4  1  0  0  0  0
  4  8  1  0  0  0  0
  4  5  2  0  0  0  0
  5 13  1  0  0  0  0
  5  6  1  0  0  0  0
  6 14  1  0  0  0  0
  7 15  1  0  0  0  0
  7  6  2  0  0  0  0
  8  7  1  0  0  0  0
 10  1  1  0  0  0  0
 11  2  1  0  0  0  0
 16  8  1  0  0  0  0
M  END
