title
 OpenBabel02282109573D

 15 16  0  0  1  0  0  0  0  0999 V2000
    0.2715    2.0398   -1.3917 C   0  0  0  0  0  0  0  0  0  0  0  0
    1.4873    1.2189   -1.4233 N   0  0  0  0  0  0  0  0  0  0  0  0
    0.1837    0.5463   -1.3441 C   0  0  1  0  0  0  0  0  0  0  0  0
   -0.0814   -0.1923   -0.0956 C   0  0  0  0  0  0  0  0  0  0  0  0
    0.6935   -0.4673    1.0031 C   0  0  0  0  0  0  0  0  0  0  0  0
   -0.0145   -1.1907    1.9367 N   0  0  0  0  0  0  0  0  0  0  0  0
   -1.2063   -1.3566    1.4152 C   0  0  0  0  0  0  0  0  0  0  0  0
   -1.3042   -0.7729    0.1846 N   0  0  0  0  0  0  0  0  0  0  0  0
    0.1314    2.6042   -0.4747 H   0  0  0  0  0  0  0  0  0  0  0  0
   -0.0505    2.5428   -2.3003 H   0  0  0  0  0  0  0  0  0  0  0  0
    1.8528    1.1601   -2.3692 H   0  0  0  0  0  0  0  0  0  0  0  0
   -0.1896    0.0721   -2.2523 H   0  0  0  0  0  0  0  0  0  0  0  0
    1.7217   -0.1826    1.1585 H   0  0  0  0  0  0  0  0  0  0  0  0
   -2.0324   -1.8853    1.8674 H   0  0  0  0  0  0  0  0  0  0  0  0
   -2.1196   -0.7527   -0.4050 H   0  0  0  0  0  0  0  0  0  0  0  0
  1  3  1  0  0  0  0
  1  9  1  0  0  0  0
  2  1  1  0  0  0  0
  2  3  1  0  0  0  0
  3 12  1  6  0  0  0
  3  4  1  0  0  0  0
  4  8  1  0  0  0  0
  4  5  2  0  0  0  0
  5 13  1  0  0  0  0
  5  6  1  0  0  0  0
  7 14  1  0  0  0  0
  7  6  2  0  0  0  0
  8  7  1  0  0  0  0
 10  1  1  0  0  0  0
 11  2  1  0  0  0  0
 15  8  1  0  0  0  0
M  END
