title
 OpenBabel02282109573D

 15 16  0  0  1  0  0  0  0  0999 V2000
    1.3484    1.5246   -1.3180 C   0  0  0  0  0  0  0  0  0  0  0  0
    0.6466    0.5182   -2.1263 N   0  0  0  0  0  0  0  0  0  0  0  0
   -0.0325    1.0906   -0.9494 C   0  0  1  0  0  0  0  0  0  0  0  0
   -0.2881    0.1373    0.1475 C   0  0  0  0  0  0  0  0  0  0  0  0
   -0.9719    0.3657    1.2490 N   0  0  0  0  0  0  0  0  0  0  0  0
   -0.9132   -0.8114    1.9606 C   0  0  0  0  0  0  0  0  0  0  0  0
   -0.1893   -1.7547    1.2792 C   0  0  0  0  0  0  0  0  0  0  0  0
    0.2088   -1.1310    0.1187 N   0  0  0  0  0  0  0  0  0  0  0  0
    2.1944    1.1473   -0.7515 H   0  0  0  0  0  0  0  0  0  0  0  0
    1.4742    2.5265   -1.7196 H   0  0  0  0  0  0  0  0  0  0  0  0
    0.2874    0.9280   -2.9831 H   0  0  0  0  0  0  0  0  0  0  0  0
   -0.8254    1.8177   -1.0985 H   0  0  0  0  0  0  0  0  0  0  0  0
   -1.3968   -0.9120    2.9204 H   0  0  0  0  0  0  0  0  0  0  0  0
    0.0684   -2.7775    1.4973 H   0  0  0  0  0  0  0  0  0  0  0  0
    0.7078   -1.5179   -0.6664 H   0  0  0  0  0  0  0  0  0  0  0  0
  1  3  1  0  0  0  0
  1  9  1  0  0  0  0
  2  1  1  0  0  0  0
  2  3  1  0  0  0  0
  3 12  1  6  0  0  0
  3  4  1  0  0  0  0
  4  5  2  0  0  0  0
  5  6  1  0  0  0  0
  6 13  1  0  0  0  0
  7 14  1  0  0  0  0
  7  6  2  0  0  0  0
  8  4  1  0  0  0  0
  8  7  1  0  0  0  0
 10  1  1  0  0  0  0
 11  2  1  0  0  0  0
 15  8  1  0  0  0  0
M  END
