15
title
C 1.3483893 1.524622 -1.3180459
N 0.6465514 0.5182299 -2.1262786
C -0.03246357 1.0905963 -0.949439
C -0.28808105 0.13729534 0.14745176
N -0.9719265 0.365718 1.2489815
C -0.9131692 -0.81137 1.9606335
C -0.18932436 -1.7547171 1.2792084
N 0.20875847 -1.1310242 0.11865497
H 2.1944332 1.1472671 -0.7514975
H 1.4741776 2.5264943 -1.7195677
H 0.2874234 0.927968 -2.9831302
H -0.8253948 1.8176608 -1.098465
H -1.396823 -0.91204154 2.9204366
H 0.06839715 -2.777543 1.4973235
H 0.7077654 -1.5178703 -0.66641116
