title
 OpenBabel02282109573D

 14 15  0  0  1  0  0  0  0  0999 V2000
    0.6751    2.0324   -1.1862 C   0  0  0  0  0  0  0  0  0  0  0  0
    1.3511    0.8496   -1.7309 N   0  0  0  0  0  0  0  0  0  0  0  0
   -0.0319    0.7276   -1.2008 C   0  0  1  0  0  0  0  0  0  0  0  0
   -0.1991   -0.0531    0.0352 C   0  0  0  0  0  0  0  0  0  0  0  0
    0.3073    0.1561    1.2099 N   0  0  0  0  0  0  0  0  0  0  0  0
   -0.1607   -0.8963    1.9839 C   0  0  0  0  0  0  0  0  0  0  0  0
   -0.9470   -1.6916    1.2226 C   0  0  0  0  0  0  0  0  0  0  0  0
   -0.9826   -1.1622   -0.0367 O   0  0  0  0  0  0  0  0  0  0  0  0
    1.0780    2.3848   -0.2424 H   0  0  0  0  0  0  0  0  0  0  0  0
    0.3227    2.8052   -1.8641 H   0  0  0  0  0  0  0  0  0  0  0  0
    1.3121    0.8629   -2.7476 H   0  0  0  0  0  0  0  0  0  0  0  0
   -0.8343    0.5850   -1.9186 H   0  0  0  0  0  0  0  0  0  0  0  0
    0.0985   -0.9959    3.0259 H   0  0  0  0  0  0  0  0  0  0  0  0
   -1.5186   -2.5886    1.3860 H   0  0  0  0  0  0  0  0  0  0  0  0
  1  9  1  0  0  0  0
  2  3  1  0  0  0  0
  2  1  1  0  0  0  0
  3 12  1  6  0  0  0
  3  1  1  0  0  0  0
  3  4  1  0  0  0  0
  4  5  2  0  0  0  0
  5  6  1  0  0  0  0
  6 13  1  0  0  0  0
  7 14  1  0  0  0  0
  7  6  2  0  0  0  0
  8  4  1  0  0  0  0
  8  7  1  0  0  0  0
 10  1  1  0  0  0  0
 11  2  1  0  0  0  0
M  END
