14
title
C 0.6751385 2.0323656 -1.1862432
N 1.3510518 0.8496452 -1.7308846
C -0.031916525 0.7276464 -1.200824
C -0.19912046 -0.053072672 0.035242636
N 0.3073411 0.15608336 1.2098525
C -0.16069809 -0.89634603 1.9838912
C -0.9470492 -1.691644 1.2226357
O -0.9825668 -1.162187 -0.03674976
H 1.0780137 2.384833 -0.24244134
H 0.32270697 2.8052342 -1.8640833
H 1.3120581 0.86285067 -2.7476273
H -0.83427876 0.5850303 -1.9186169
H 0.098507464 -0.9958928 3.0258675
H -1.5186477 -2.5885928 1.3860168
