15
title
C 0.44785145 2.0344307 -1.3075107
O 1.3947103 1.0063107 -1.5940224
C 0.0559064 0.6105567 -1.288846
C -0.14045721 -0.14765246 -0.040371675
C 0.6479814 -0.25941297 1.0853797
C -0.028642058 -1.1110315 1.9999024
C -1.209588 -1.4971863 1.4093081
N -1.2655942 -0.91090304 0.16976784
H 0.5887565 2.547885 -0.35809818
H 0.17080069 2.665107 -2.1522686
H -0.5080861 0.24241832 -2.1495223
H 1.6129801 0.20507799 1.2139305
H 0.31713003 -1.414027 2.976212
H -2.0048974 -2.1364245 1.7570578
H -2.022835 -1.0121472 -0.4836925
