13
title
C 0.6529699 1.9901214 -1.1731243
O 1.3853046 0.857331 -1.6332824
C 0.00039607246 0.67638886 -1.296277
C -0.31235287 -0.16776387 -0.14086863
C -1.1780428 -1.1923035 0.06922296
N -1.0683086 -1.6324748 1.3817712
C -0.15677842 -0.8699365 1.8892754
O 0.35282242 0.049687482 1.0381392
H 0.926658 2.352995 -0.18457243
H 0.4479364 2.7575016 -1.918549
H -0.6511271 0.49706548 -2.1503463
H -1.8687103 -1.6436218 -0.62528
H 0.24458337 -0.87682635 2.8903122
