title
 OpenBabel02282109573D

 16 17  0  0  0  0  0  0  0  0999 V2000
    0.0608    1.8171   -1.7206 C   0  0  0  0  0  0  0  0  0  0  0  0
    1.4713    1.5897   -1.2544 C   0  0  0  0  0  0  0  0  0  0  0  0
    0.5004    0.4273   -1.3063 C   0  0  0  0  0  0  0  0  0  0  0  0
   -0.0093   -0.2052   -0.0724 C   0  0  0  0  0  0  0  0  0  0  0  0
   -0.3226    0.3558    1.1439 C   0  0  0  0  0  0  0  0  0  0  0  0
   -0.7511   -0.6910    1.9336 N   0  0  0  0  0  0  0  0  0  0  0  0
   -0.6814   -1.8202    1.1788 C   0  0  0  0  0  0  0  0  0  0  0  0
   -0.2402   -1.5662   -0.0317 N   0  0  0  0  0  0  0  0  0  0  0  0
   -0.6220    2.3376   -1.0572 H   0  0  0  0  0  0  0  0  0  0  0  0
   -0.1126    2.0041   -2.7748 H   0  0  0  0  0  0  0  0  0  0  0  0
    2.2703    1.6199   -1.9872 H   0  0  0  0  0  0  0  0  0  0  0  0
    1.7530    1.9546   -0.2722 H   0  0  0  0  0  0  0  0  0  0  0  0
    0.6479   -0.2921   -2.1036 H   0  0  0  0  0  0  0  0  0  0  0  0
   -0.2849    1.3657    1.5166 H   0  0  0  0  0  0  0  0  0  0  0  0
   -1.0573   -0.6259    2.8895 H   0  0  0  0  0  0  0  0  0  0  0  0
   -0.9628   -2.7899    1.5615 H   0  0  0  0  0  0  0  0  0  0  0  0
  1  3  1  0  0  0  0
  1  2  1  0  0  0  0
  1  9  1  0  0  0  0
  2 12  1  0  0  0  0
  3  2  1  0  0  0  0
  3  4  1  0  0  0  0
  4  8  1  0  0  0  0
  4  5  2  0  0  0  0
  5 14  1  0  0  0  0
  5  6  1  0  0  0  0
  6 15  1  0  0  0  0
  7 16  1  0  0  0  0
  7  6  1  0  0  0  0
  8  7  2  0  0  0  0
 10  1  1  0  0  0  0
 11  2  1  0  0  0  0
 13  3  1  0  0  0  0
M  END
