title
 OpenBabel02282109573D

 16 17  0  0  0  0  0  0  0  0999 V2000
    0.4892    2.0650   -1.3537 C   0  0  0  0  0  0  0  0  0  0  0  0
    1.6212    1.0974   -1.5799 C   0  0  0  0  0  0  0  0  0  0  0  0
    0.2084    0.5830   -1.3813 C   0  0  0  0  0  0  0  0  0  0  0  0
   -0.1639   -0.1552   -0.1526 C   0  0  0  0  0  0  0  0  0  0  0  0
   -0.6995    0.3402    0.9971 C   0  0  0  0  0  0  0  0  0  0  0  0
   -0.9060   -0.6491    1.9085 O   0  0  0  0  0  0  0  0  0  0  0  0
   -0.5003   -1.8075    1.3256 C   0  0  0  0  0  0  0  0  0  0  0  0
   -0.0387   -1.5735    0.0721 C   0  0  0  0  0  0  0  0  0  0  0  0
    0.4497    2.5741   -0.3974 H   0  0  0  0  0  0  0  0  0  0  0  0
    0.1440    2.6636   -2.1891 H   0  0  0  0  0  0  0  0  0  0  0  0
    2.0549    1.0286   -2.5714 H   0  0  0  0  0  0  0  0  0  0  0  0
    2.3235    0.9464   -0.7678 H   0  0  0  0  0  0  0  0  0  0  0  0
   -0.2712    0.2151   -2.2852 H   0  0  0  0  0  0  0  0  0  0  0  0
   -0.9888    1.3301    1.3084 H   0  0  0  0  0  0  0  0  0  0  0  0
   -0.6029   -2.6950    1.9282 H   0  0  0  0  0  0  0  0  0  0  0  0
    0.3506   -2.3056   -0.6187 H   0  0  0  0  0  0  0  0  0  0  0  0
  1  9  1  0  0  0  0
  2  3  1  0  0  0  0
  2  1  1  0  0  0  0
  2 12  1  0  0  0  0
  3  1  1  0  0  0  0
  3  4  1  0  0  0  0
  4  8  1  0  0  0  0
  4  5  2  0  0  0  0
  5 14  1  0  0  0  0
  5  6  1  0  0  0  0
  7  6  1  0  0  0  0
  7 15  1  0  0  0  0
  8  7  2  0  0  0  0
 10  1  1  0  0  0  0
 11  2  1  0  0  0  0
 13  3  1  0  0  0  0
 16  8  1  0  0  0  0
M  END
