title
 OpenBabel02282109573D

 15 16  0  0  0  0  0  0  0  0999 V2000
   -0.0466    1.6311   -1.8809 C   0  0  0  0  0  0  0  0  0  0  0  0
    1.2911    1.7903   -1.2109 C   0  0  0  0  0  0  0  0  0  0  0  0
    0.6461    0.4283   -1.2661 C   0  0  0  0  0  0  0  0  0  0  0  0
    0.1022   -0.2131   -0.0551 C   0  0  0  0  0  0  0  0  0  0  0  0
    0.1974    0.1386    1.2523 C   0  0  0  0  0  0  0  0  0  0  0  0
   -0.4989   -0.7744    1.9992 O   0  0  0  0  0  0  0  0  0  0  0  0
   -0.9755   -1.6487    1.0871 C   0  0  0  0  0  0  0  0  0  0  0  0
   -0.6627   -1.3813   -0.1361 N   0  0  0  0  0  0  0  0  0  0  0  0
   -0.9193    2.0171   -1.3665 H   0  0  0  0  0  0  0  0  0  0  0  0
   -0.0976    1.6861   -2.9625 H   0  0  0  0  0  0  0  0  0  0  0  0
    2.1656    1.9588   -1.8289 H   0  0  0  0  0  0  0  0  0  0  0  0
    1.3198    2.3070   -0.2579 H   0  0  0  0  0  0  0  0  0  0  0  0
    1.0619   -0.2790   -1.9768 H   0  0  0  0  0  0  0  0  0  0  0  0
    0.6821    0.9295    1.7968 H   0  0  0  0  0  0  0  0  0  0  0  0
   -1.5603   -2.4728    1.4650 H   0  0  0  0  0  0  0  0  0  0  0  0
  1  9  1  0  0  0  0
  1  3  1  0  0  0  0
  1  2  1  0  0  0  0
  2 12  1  0  0  0  0
  3  2  1  0  0  0  0
  3  4  1  0  0  0  0
  4  5  2  0  0  0  0
  5 14  1  0  0  0  0
  5  6  1  0  0  0  0
  7 15  1  0  0  0  0
  7  6  1  0  0  0  0
  8  4  1  0  0  0  0
  8  7  2  0  0  0  0
 10  1  1  0  0  0  0
 11  2  1  0  0  0  0
 13  3  1  0  0  0  0
M  END
