16
title
C -0.05061577 1.5755138 -1.8161651
C 1.3705299 1.3628349 -1.4223337
N 0.4155112 0.26437333 -1.3706678
C -0.0029072114 -0.2081761 -0.109732755
C 0.79410416 -0.46866778 0.98615885
N -0.014062876 -1.0033299 1.9654729
C -1.3039197 -1.0774944 1.5160956
C -1.3336047 -0.5950046 0.22836292
H -0.6742514 2.146957 -1.132264
H -0.32869622 1.6430197 -2.863989
H 2.1471102 1.278523 -2.1771593
H 1.6890966 1.7976166 -0.47694224
H 1.8536454 -0.34329924 1.1345162
H 0.29837304 -1.2837596 2.877351
H -2.0913823 -1.4628972 2.1435785
H -2.1997845 -0.5261446 -0.41111445
