title
 OpenBabel02282109573D

 15 16  0  0  0  0  0  0  0  0999 V2000
    0.4083    1.8705   -1.3696 C   0  0  0  0  0  0  0  0  0  0  0  0
    1.4162    0.8313   -1.6866 C   0  0  0  0  0  0  0  0  0  0  0  0
    0.0260    0.4487   -1.3873 N   0  0  0  0  0  0  0  0  0  0  0  0
   -0.2031   -0.1560   -0.1341 C   0  0  0  0  0  0  0  0  0  0  0  0
   -1.1289   -1.1353    0.1141 C   0  0  0  0  0  0  0  0  0  0  0  0
   -1.0010   -1.4192    1.4584 N   0  0  0  0  0  0  0  0  0  0  0  0
   -0.0216   -0.6129    1.9514 C   0  0  0  0  0  0  0  0  0  0  0  0
    0.4820    0.1623    1.0194 N   0  0  0  0  0  0  0  0  0  0  0  0
    0.4839    2.3474   -0.3969 H   0  0  0  0  0  0  0  0  0  0  0  0
   -0.0335    2.4702   -2.1603 H   0  0  0  0  0  0  0  0  0  0  0  0
    1.7250    0.6569   -2.7134 H   0  0  0  0  0  0  0  0  0  0  0  0
    2.1597    0.6194   -0.9240 H   0  0  0  0  0  0  0  0  0  0  0  0
   -1.8382   -1.6341   -0.5229 H   0  0  0  0  0  0  0  0  0  0  0  0
   -1.5345   -2.0970    1.9755 H   0  0  0  0  0  0  0  0  0  0  0  0
    0.2775   -0.6362    2.9889 H   0  0  0  0  0  0  0  0  0  0  0  0
  1  9  1  0  0  0  0
  2  3  1  0  0  0  0
  2  1  1  0  0  0  0
  2 12  1  0  0  0  0
  3  1  1  0  0  0  0
  3  4  1  0  0  0  0
  4  5  2  0  0  0  0
  4  8  1  0  0  0  0
  5  6  1  0  0  0  0
  6  7  1  0  0  0  0
  6 14  1  0  0  0  0
  7 15  1  0  0  0  0
  8  7  2  0  0  0  0
 10  1  1  0  0  0  0
 11  2  1  0  0  0  0
 13  5  1  0  0  0  0
M  END
