15
title
C 0.40826982 1.8705287 -1.3695567
C 1.4161563 0.83126205 -1.6865902
N 0.026009405 0.44867334 -1.3872572
C -0.20312284 -0.15596782 -0.13406074
C -1.1288669 -1.1353358 0.11409891
N -1.0010029 -1.4191806 1.4584465
C -0.021609193 -0.6129255 1.9514365
N 0.48203513 0.16234627 1.0193727
H 0.48385844 2.347438 -0.39690065
H -0.03352866 2.4702122 -2.1602929
H 1.7250074 0.6569093 -2.7133682
H 2.1596584 0.61936647 -0.9239902
H -1.8381507 -1.6341345 -0.52289003
H -1.5345389 -2.0970333 1.9755068
H 0.2775376 -0.6361714 2.988893
