15
title
C -0.02789545 1.6076509 -1.8099645
C 1.3922442 1.3325763 -1.450838
N 0.3944404 0.27326676 -1.3847917
C -0.01070036 -0.19742012 -0.12636848
C 0.7582434 -0.4436909 0.9734679
O -0.0034570247 -0.98409355 1.9703796
C -1.2699276 -1.071793 1.4961281
C -1.3433708 -0.61162543 0.22155587
H -0.6108013 2.1993816 -1.1080589
H -0.32656455 1.6921037 -2.8504624
H 2.1452787 1.2209172 -2.2250798
H 1.7510651 1.7464764 -0.51086205
H 1.8068733 -0.3270132 1.1858866
H -1.9988729 -1.4779024 2.1781344
H -2.21859 -0.56813127 -0.40709728
