14
title
C 0.3890949 1.8876529 -1.3760526
C 1.4179313 0.867471 -1.6867766
N 0.032899506 0.45805582 -1.3953784
C -0.19449742 -0.14999957 -0.15166074
C -1.0893748 -1.1320044 0.11669605
O -0.9914125 -1.4394681 1.4478174
C -0.030036516 -0.6137811 1.9119011
N 0.48333138 0.17275907 1.0257732
H 0.4501101 2.368917 -0.40451354
H -0.062298574 2.475791 -2.1693864
H 1.7329559 0.69565153 -2.7116098
H 2.1631176 0.6703628 -0.9218853
H -1.8086622 -1.6777595 -0.46643627
H 0.21121493 -0.6909928 2.9607208
