title
 OpenBabel02282109573D

 16 17  0  0  1  0  0  0  0  0999 V2000
    0.3010    2.0379   -1.3963 C   0  0  0  0  0  0  0  0  0  0  0  0
    1.5035    1.1918   -1.4157 N   0  0  0  0  0  0  0  0  0  0  0  0
    0.1776    0.5495   -1.3670 C   0  0  1  0  0  0  0  0  0  0  0  0
   -0.1579   -0.2001   -0.1363 C   0  0  0  0  0  0  0  0  0  0  0  0
    0.6395   -0.3294    0.9800 C   0  0  0  0  0  0  0  0  0  0  0  0
   -0.0438   -1.0825    1.9005 N   0  0  0  0  0  0  0  0  0  0  0  0
   -1.2655   -1.4448    1.3934 C   0  0  0  0  0  0  0  0  0  0  0  0
   -1.3664   -0.9119    0.1302 C   0  0  0  0  0  0  0  0  0  0  0  0
    0.1536    2.5941   -0.4751 H   0  0  0  0  0  0  0  0  0  0  0  0
    0.0133    2.5648   -2.3032 H   0  0  0  0  0  0  0  0  0  0  0  0
    1.8806    1.1425   -2.3578 H   0  0  0  0  0  0  0  0  0  0  0  0
   -0.1884    0.0997   -2.2890 H   0  0  0  0  0  0  0  0  0  0  0  0
    1.6303    0.0472    1.1703 H   0  0  0  0  0  0  0  0  0  0  0  0
    0.3078   -1.3445    2.8042 H   0  0  0  0  0  0  0  0  0  0  0  0
   -1.9512   -2.0469    1.9675 H   0  0  0  0  0  0  0  0  0  0  0  0
   -2.2114   -1.0141   -0.5343 H   0  0  0  0  0  0  0  0  0  0  0  0
  1  3  1  0  0  0  0
  1  9  1  0  0  0  0
  2  1  1  0  0  0  0
  2  3  1  0  0  0  0
  3 12  1  6  0  0  0
  3  4  1  0  0  0  0
  4  8  1  0  0  0  0
  4  5  2  0  0  0  0
  5 13  1  0  0  0  0
  5  6  1  0  0  0  0
  6 14  1  0  0  0  0
  7  6  1  0  0  0  0
  7 15  1  0  0  0  0
  8  7  2  0  0  0  0
 10  1  1  0  0  0  0
 11  2  1  0  0  0  0
 16  8  1  0  0  0  0
M  END
