title
 OpenBabel02282109573D

 15 16  0  0  1  0  0  0  0  0999 V2000
    1.3654    1.5810   -1.3212 C   0  0  0  0  0  0  0  0  0  0  0  0
    0.6830    0.6143   -2.1933 N   0  0  0  0  0  0  0  0  0  0  0  0
    0.0021    1.0814   -0.9737 C   0  0  1  0  0  0  0  0  0  0  0  0
   -0.2265    0.0703    0.0781 C   0  0  0  0  0  0  0  0  0  0  0  0
    0.1863   -1.2378    0.1025 C   0  0  0  0  0  0  0  0  0  0  0  0
   -0.2685   -1.7380    1.3031 N   0  0  0  0  0  0  0  0  0  0  0  0
   -0.9310   -0.7305    1.9374 C   0  0  0  0  0  0  0  0  0  0  0  0
   -0.9252    0.3743    1.2284 N   0  0  0  0  0  0  0  0  0  0  0  0
    2.2239    1.1838   -0.7875 H   0  0  0  0  0  0  0  0  0  0  0  0
    1.4660    2.6116   -1.6525 H   0  0  0  0  0  0  0  0  0  0  0  0
    0.3005    1.0852   -3.0082 H   0  0  0  0  0  0  0  0  0  0  0  0
   -0.8066    1.8012   -1.0769 H   0  0  0  0  0  0  0  0  0  0  0  0
    0.7324   -1.8324   -0.6087 H   0  0  0  0  0  0  0  0  0  0  0  0
   -0.1469   -2.6788    1.6378 H   0  0  0  0  0  0  0  0  0  0  0  0
   -1.3949   -0.8630    2.9034 H   0  0  0  0  0  0  0  0  0  0  0  0
  1  3  1  0  0  0  0
  1  9  1  0  0  0  0
  2  1  1  0  0  0  0
  2  3  1  0  0  0  0
  3 12  1  6  0  0  0
  3  4  1  0  0  0  0
  4  5  2  0  0  0  0
  4  8  1  0  0  0  0
  5  6  1  0  0  0  0
  6 14  1  0  0  0  0
  6  7  1  0  0  0  0
  7 15  1  0  0  0  0
  8  7  2  0  0  0  0
 10  1  1  0  0  0  0
 11  2  1  0  0  0  0
 13  5  1  0  0  0  0
M  END
