title
 OpenBabel02282109573D

 15 16  0  0  1  0  0  0  0  0999 V2000
    0.2743    2.0404   -1.4174 C   0  0  0  0  0  0  0  0  0  0  0  0
    1.4996    1.2295   -1.3945 N   0  0  0  0  0  0  0  0  0  0  0  0
    0.1938    0.5494   -1.3843 C   0  0  1  0  0  0  0  0  0  0  0  0
   -0.1509   -0.1962   -0.1550 C   0  0  0  0  0  0  0  0  0  0  0  0
    0.6303   -0.3621    0.9473 C   0  0  0  0  0  0  0  0  0  0  0  0
   -0.0188   -1.0948    1.8920 O   0  0  0  0  0  0  0  0  0  0  0  0
   -1.2381   -1.4060    1.3810 C   0  0  0  0  0  0  0  0  0  0  0  0
   -1.3793   -0.8868    0.1350 C   0  0  0  0  0  0  0  0  0  0  0  0
    0.0825    2.5975   -0.5052 H   0  0  0  0  0  0  0  0  0  0  0  0
   -0.0036    2.5503   -2.3365 H   0  0  0  0  0  0  0  0  0  0  0  0
    1.9095    1.1847   -2.3230 H   0  0  0  0  0  0  0  0  0  0  0  0
   -0.1334    0.0802   -2.3109 H   0  0  0  0  0  0  0  0  0  0  0  0
    1.6267   -0.0362    1.1896 H   0  0  0  0  0  0  0  0  0  0  0  0
   -1.8773   -1.9945    2.0183 H   0  0  0  0  0  0  0  0  0  0  0  0
   -2.2440   -0.9759   -0.5047 H   0  0  0  0  0  0  0  0  0  0  0  0
  1  2  1  0  0  0  0
  1  3  1  0  0  0  0
  1  9  1  0  0  0  0
  2  3  1  0  0  0  0
  3 12  1  6  0  0  0
  3  4  1  0  0  0  0
  4  8  1  0  0  0  0
  4  5  2  0  0  0  0
  5 13  1  0  0  0  0
  5  6  1  0  0  0  0
  7  6  1  0  0  0  0
  7 14  1  0  0  0  0
  8  7  2  0  0  0  0
 10  1  1  0  0  0  0
 11  2  1  0  0  0  0
 15  8  1  0  0  0  0
M  END
