15
title
C 0.27427486 2.040361 -1.4174176
N 1.4995645 1.2294654 -1.3945069
C 0.19379227 0.54936075 -1.3842875
C -0.15092395 -0.19616255 -0.15496619
C 0.6302604 -0.3620701 0.9472582
O -0.018826915 -1.0948405 1.8920058
C -1.238111 -1.4059812 1.3809825
C -1.3793048 -0.8867804 0.13499396
H 0.08246568 2.5974967 -0.50521564
H -0.0035921168 2.5503473 -2.3365173
H 1.9095309 1.1846673 -2.3229885
H -0.13343026 0.080218814 -2.3109117
H 1.6267439 -0.03621844 1.1895758
H -1.8773232 -1.9944922 2.01829
H -2.2439506 -0.97589123 -0.50472814
