title
 OpenBabel02282109573D

 14 15  0  0  1  0  0  0  0  0999 V2000
    1.2850    1.6772   -1.3030 C   0  0  0  0  0  0  0  0  0  0  0  0
    0.7308    0.6363   -2.1785 N   0  0  0  0  0  0  0  0  0  0  0  0
   -0.0483    1.0728   -1.0097 C   0  0  1  0  0  0  0  0  0  0  0  0
   -0.2351    0.0660    0.0516 C   0  0  0  0  0  0  0  0  0  0  0  0
    0.2129   -1.2125    0.1118 C   0  0  0  0  0  0  0  0  0  0  0  0
   -0.2008   -1.7507    1.3006 O   0  0  0  0  0  0  0  0  0  0  0  0
   -0.8897   -0.7531    1.8956 C   0  0  0  0  0  0  0  0  0  0  0  0
   -0.9500    0.3443    1.2164 N   0  0  0  0  0  0  0  0  0  0  0  0
    2.1458    1.3685   -0.7174 H   0  0  0  0  0  0  0  0  0  0  0  0
    1.3113    2.7051   -1.6555 H   0  0  0  0  0  0  0  0  0  0  0  0
    0.3524    1.0494   -3.0259 H   0  0  0  0  0  0  0  0  0  0  0  0
   -0.9099    1.7172   -1.1682 H   0  0  0  0  0  0  0  0  0  0  0  0
    0.7819   -1.8449   -0.5449 H   0  0  0  0  0  0  0  0  0  0  0  0
   -1.3174   -0.9672    2.8625 H   0  0  0  0  0  0  0  0  0  0  0  0
  1  3  1  0  0  0  0
  1  9  1  0  0  0  0
  2  1  1  0  0  0  0
  2  3  1  0  0  0  0
  3 12  1  6  0  0  0
  3  4  1  0  0  0  0
  4  5  2  0  0  0  0
  4  8  1  0  0  0  0
  5  6  1  0  0  0  0
  6  7  1  0  0  0  0
  7 14  1  0  0  0  0
  8  7  2  0  0  0  0
 10  1  1  0  0  0  0
 11  2  1  0  0  0  0
 13  5  1  0  0  0  0
M  END
