14
title
C 1.285011 1.6772008 -1.303011
N 0.73078114 0.6363083 -2.178505
C -0.04833351 1.0727668 -1.0096947
C -0.23509406 0.065959714 0.05158238
C 0.21285746 -1.2124763 0.11176722
O -0.20083477 -1.7506865 1.3006024
C -0.8896947 -0.75311434 1.8955646
N -0.94998753 0.34431046 1.216367
H 2.1457717 1.3685254 -0.71738654
H 1.3113316 2.705056 -1.6554667
H 0.35236228 1.0493568 -3.0259209
H -0.909876 1.7172346 -1.1681873
H 0.78191173 -1.8448597 -0.5449229
H -1.3173639 -0.9672258 2.862496
