15
title
C 0.34959614 2.0185428 -1.369626
O 1.44209 1.105443 -1.4655895
C 0.12151972 0.5601155 -1.36017
C -0.19036679 -0.19056484 -0.12676011
C 0.60614014 -0.26387504 0.995937
N -0.040269364 -1.0468473 1.916555
C -1.2355005 -1.4825324 1.4039689
C -1.3569188 -0.96942693 0.13455524
H 0.27724767 2.5636065 -0.42986143
H 0.14452608 2.5982778 -2.269544
H -0.24924324 0.11663419 -2.2857475
H 1.577938 0.15900546 1.1877304
H 0.32286933 -1.2891335 2.8213608
H -1.8911786 -2.1160736 1.9791068
H -2.1889262 -1.1258633 -0.53532356
