title
 OpenBabel02282109573D

 14 15  0  0  1  0  0  0  0  0999 V2000
    1.2981    1.4965   -1.4414 C   0  0  0  0  0  0  0  0  0  0  0  0
    0.4267    0.6519   -2.1928 O   0  0  0  0  0  0  0  0  0  0  0  0
   -0.0286    1.1188   -0.9192 C   0  0  1  0  0  0  0  0  0  0  0  0
   -0.2025    0.0908    0.1261 C   0  0  0  0  0  0  0  0  0  0  0  0
    0.1806   -1.2261    0.0858 C   0  0  0  0  0  0  0  0  0  0  0  0
   -0.2070   -1.7491    1.2991 N   0  0  0  0  0  0  0  0  0  0  0  0
   -0.8024   -0.7458    2.0032 C   0  0  0  0  0  0  0  0  0  0  0  0
   -0.8192    0.3779    1.3249 N   0  0  0  0  0  0  0  0  0  0  0  0
    2.1817    1.0106   -1.0310 H   0  0  0  0  0  0  0  0  0  0  0  0
    1.4544    2.4928   -1.8536 H   0  0  0  0  0  0  0  0  0  0  0  0
   -0.8176    1.8694   -0.9557 H   0  0  0  0  0  0  0  0  0  0  0  0
    0.6584   -1.8165   -0.6766 H   0  0  0  0  0  0  0  0  0  0  0  0
   -0.0921   -2.7032    1.5972 H   0  0  0  0  0  0  0  0  0  0  0  0
   -1.2032   -0.8949    2.9946 H   0  0  0  0  0  0  0  0  0  0  0  0
  1  9  1  0  0  0  0
  1  3  1  0  0  0  0
  2  1  1  0  0  0  0
  2  3  1  0  0  0  0
  3 11  1  6  0  0  0
  3  4  1  0  0  0  0
  4  8  1  0  0  0  0
  5  4  2  0  0  0  0
  5  6  1  0  0  0  0
  6 13  1  0  0  0  0
  6  7  1  0  0  0  0
  7 14  1  0  0  0  0
  8  7  2  0  0  0  0
 10  1  1  0  0  0  0
 12  5  1  0  0  0  0
M  END
