14
title
C 1.29807 1.4965029 -1.4414312
O 0.4267169 0.65186226 -2.19277
C -0.028637752 1.1188021 -0.91920745
C -0.20250772 0.090836324 0.12612562
C 0.18063296 -1.2261121 0.08576445
N -0.206973 -1.7491294 1.2991397
C -0.8023893 -0.74576485 2.003199
N -0.81915337 0.3779411 1.324898
H 2.181692 1.0105822 -1.0310305
H 1.4543965 2.492818 -1.8535993
H -0.81760436 1.869432 -0.9557432
H 0.65836495 -1.8165263 -0.67658037
H -0.09208207 -2.7031865 1.5971506
H -1.2032247 -0.89494133 2.9946275
