title
 OpenBabel02282109573D

 17 18  0  0  0  0  0  0  0  0999 V2000
    0.0905    1.8827   -1.5342 C   0  0  0  0  0  0  0  0  0  0  0  0
    1.5065    1.4094   -1.2844 C   0  0  0  0  0  0  0  0  0  0  0  0
    0.3691    0.4240   -1.2912 C   0  0  0  0  0  0  0  0  0  0  0  0
   -0.0616   -0.2301   -0.0889 N   0  0  0  0  0  0  0  0  0  0  0  0
   -0.1089    0.3025    1.1780 C   0  0  0  0  0  0  0  0  0  0  0  0
   -0.5821   -0.6645    2.0361 C   0  0  0  0  0  0  0  0  0  0  0  0
   -0.8325   -1.8300    1.2642 C   0  0  0  0  0  0  0  0  0  0  0  0
   -0.5028   -1.5309   -0.0376 C   0  0  0  0  0  0  0  0  0  0  0  0
   -0.4052    2.4319   -0.7419 H   0  0  0  0  0  0  0  0  0  0  0  0
   -0.1904    2.1896   -2.5355 H   0  0  0  0  0  0  0  0  0  0  0  0
    2.2059    1.3888   -2.1126 H   0  0  0  0  0  0  0  0  0  0  0  0
    1.9547    1.6429   -0.3253 H   0  0  0  0  0  0  0  0  0  0  0  0
    0.2952   -0.2451   -2.1401 H   0  0  0  0  0  0  0  0  0  0  0  0
    0.1953    1.3190    1.3674 H   0  0  0  0  0  0  0  0  0  0  0  0
   -0.7302   -0.5441    3.0983 H   0  0  0  0  0  0  0  0  0  0  0  0
   -1.2098   -2.7768    1.6184 H   0  0  0  0  0  0  0  0  0  0  0  0
   -0.5419   -2.1271   -0.9355 H   0  0  0  0  0  0  0  0  0  0  0  0
  1  3  1  0  0  0  0
  1  2  1  0  0  0  0
  1  9  1  0  0  0  0
  2 12  1  0  0  0  0
  3  2  1  0  0  0  0
  3  4  1  0  0  0  0
  4  8  1  0  0  0  0
  4  5  1  0  0  0  0
  5 14  1  0  0  0  0
  5  6  2  0  0  0  0
  6 15  1  0  0  0  0
  7 16  1  0  0  0  0
  7  6  1  0  0  0  0
  8  7  2  0  0  0  0
 10  1  1  0  0  0  0
 11  2  1  0  0  0  0
 13  3  1  0  0  0  0
 17  8  1  0  0  0  0
M  END
