title
 OpenBabel02282109573D

 16 17  0  0  0  0  0  0  0  0999 V2000
    0.0890    1.8939   -1.5307 C   0  0  0  0  0  0  0  0  0  0  0  0
    1.5037    1.4127   -1.2962 C   0  0  0  0  0  0  0  0  0  0  0  0
    0.3639    0.4305   -1.3141 C   0  0  0  0  0  0  0  0  0  0  0  0
   -0.0616   -0.2357   -0.1137 N   0  0  0  0  0  0  0  0  0  0  0  0
   -0.5127   -1.5374   -0.0441 C   0  0  0  0  0  0  0  0  0  0  0  0
   -0.8086   -1.7609    1.2748 C   0  0  0  0  0  0  0  0  0  0  0  0
   -0.5528   -0.6375    2.0221 N   0  0  0  0  0  0  0  0  0  0  0  0
   -0.1090    0.2529    1.1617 C   0  0  0  0  0  0  0  0  0  0  0  0
   -0.4023    2.4318   -0.7278 H   0  0  0  0  0  0  0  0  0  0  0  0
   -0.1962    2.2162   -2.5258 H   0  0  0  0  0  0  0  0  0  0  0  0
    2.1979    1.4019   -2.1289 H   0  0  0  0  0  0  0  0  0  0  0  0
    1.9589    1.6283   -0.3362 H   0  0  0  0  0  0  0  0  0  0  0  0
    0.2819   -0.2277   -2.1703 H   0  0  0  0  0  0  0  0  0  0  0  0
   -0.5750   -2.1561   -0.9241 H   0  0  0  0  0  0  0  0  0  0  0  0
   -1.1895   -2.6647    1.7253 H   0  0  0  0  0  0  0  0  0  0  0  0
    0.1912    1.2609    1.4045 H   0  0  0  0  0  0  0  0  0  0  0  0
  1  3  1  0  0  0  0
  1  2  1  0  0  0  0
  1  9  1  0  0  0  0
  2 12  1  0  0  0  0
  3  2  1  0  0  0  0
  3  4  1  0  0  0  0
  4  5  1  0  0  0  0
  4  8  1  0  0  0  0
  5  6  2  0  0  0  0
  6 15  1  0  0  0  0
  6  7  1  0  0  0  0
  8 16  1  0  0  0  0
  8  7  2  0  0  0  0
 10  1  1  0  0  0  0
 11  2  1  0  0  0  0
 13  3  1  0  0  0  0
 14  5  1  0  0  0  0
M  END
