title
 OpenBabel02282109573D

 21 20  0  0  0  0  0  0  0  0999 V2000
   -1.1472    1.4975    0.6508 C   0  0  0  0  0  0  0  0  0  0  0  0
   -1.0111   -0.0340    0.5554 C   0  0  0  0  0  0  0  0  0  0  0  0
   -0.3222   -0.5836    1.8185 C   0  0  0  0  0  0  0  0  0  0  0  0
   -2.4162   -0.6556    0.4373 C   0  0  0  0  0  0  0  0  0  0  0  0
   -0.2210   -0.4350   -0.7119 C   0  0  0  0  0  0  0  0  0  0  0  0
    1.2435    0.0033   -0.7972 C   0  0  0  0  0  0  0  0  0  0  0  0
    1.9368   -0.6000   -1.8106 N   0  0  0  0  0  0  0  0  0  0  0  0
    1.7785    0.8075   -0.0562 O   0  0  0  0  0  0  0  0  0  0  0  0
   -0.1676    1.9712    0.7239 H   0  0  0  0  0  0  0  0  0  0  0  0
   -1.6622    1.9005   -0.2297 H   0  0  0  0  0  0  0  0  0  0  0  0
   -1.7378    1.7725    1.5317 H   0  0  0  0  0  0  0  0  0  0  0  0
   -0.9139   -0.3461    2.7092 H   0  0  0  0  0  0  0  0  0  0  0  0
   -0.2231   -1.6748    1.7704 H   0  0  0  0  0  0  0  0  0  0  0  0
    0.6728   -0.1519    1.9404 H   0  0  0  0  0  0  0  0  0  0  0  0
   -2.9384   -0.2981   -0.4577 H   0  0  0  0  0  0  0  0  0  0  0  0
   -2.3685   -1.7494    0.3838 H   0  0  0  0  0  0  0  0  0  0  0  0
   -3.0277   -0.3913    1.3066 H   0  0  0  0  0  0  0  0  0  0  0  0
   -0.2515   -1.5266   -0.8288 H   0  0  0  0  0  0  0  0  0  0  0  0
   -0.7292   -0.0271   -1.5974 H   0  0  0  0  0  0  0  0  0  0  0  0
    1.4911   -1.1973   -2.4845 H   0  0  0  0  0  0  0  0  0  0  0  0
    2.8783   -0.2903   -1.9877 H   0  0  0  0  0  0  0  0  0  0  0  0
  1  9  1  0  0  0  0
  1 11  1  0  0  0  0
  2  1  1  0  0  0  0
  2  3  1  0  0  0  0
  3 14  1  0  0  0  0
  3 12  1  0  0  0  0
  4  2  1  0  0  0  0
  4 17  1  0  0  0  0
  5  2  1  0  0  0  0
  6  5  1  0  0  0  0
  6  8  2  0  0  0  0
  7  6  1  0  0  0  0
 10  1  1  0  0  0  0
 13  3  1  0  0  0  0
 15  4  1  0  0  0  0
 16  4  1  0  0  0  0
 18  5  1  0  0  0  0
 19  5  1  0  0  0  0
 20  7  1  0  0  0  0
 21  7  1  0  0  0  0
M  END
