21
title
C -1.1472307 1.49755 0.6507556
C -1.0111421 -0.034010008 0.5553825
C -0.3221771 -0.58363235 1.8185291
C -2.416197 -0.6555501 0.4373393
C -0.2209608 -0.434951 -0.71190137
C 1.2435324 0.003338155 -0.7971936
N 1.936754 -0.6000309 -1.8105531
O 1.7784951 0.8074648 -0.056152005
H -0.16760135 1.971159 0.72387147
H -1.6621581 1.9005154 -0.22970934
H -1.737767 1.7725148 1.5316589
H -0.913939 -0.3460882 2.7092085
H -0.2230615 -1.6747723 1.7704176
H 0.6727729 -0.15188715 1.9404097
H -2.9384296 -0.29807997 -0.45766369
H -2.3684556 -1.749371 0.3837658
H -3.0277448 -0.39131397 1.3065927
H -0.25153363 -1.526583 -0.82881624
H -0.72918457 -0.027082756 -1.5973933
H 1.4911096 -1.1972963 -2.4845269
H 2.8782806 -0.29029855 -1.9876833
