title
 OpenBabel02282109573D

 20 19  0  0  0  0  0  0  0  0999 V2000
   -0.9932    1.5861    0.6704 C   0  0  0  0  0  0  0  0  0  0  0  0
   -0.9223    0.0501    0.6256 C   0  0  0  0  0  0  0  0  0  0  0  0
   -0.2325   -0.4948    1.8907 C   0  0  0  0  0  0  0  0  0  0  0  0
   -2.3394   -0.5297    0.5089 C   0  0  0  0  0  0  0  0  0  0  0  0
   -0.2035   -0.3778   -0.5937 N   0  0  0  0  0  0  0  0  0  0  0  0
    1.1181   -0.0942   -0.8440 C   0  0  0  0  0  0  0  0  0  0  0  0
    1.6306   -0.7701   -1.9532 N   0  0  0  0  0  0  0  0  0  0  0  0
    1.8083    0.6522   -0.1707 O   0  0  0  0  0  0  0  0  0  0  0  0
    0.0097    2.0117    0.7108 H   0  0  0  0  0  0  0  0  0  0  0  0
   -1.5022    1.9723   -0.2183 H   0  0  0  0  0  0  0  0  0  0  0  0
   -1.5521    1.9089    1.5545 H   0  0  0  0  0  0  0  0  0  0  0  0
   -0.7806   -0.1871    2.7873 H   0  0  0  0  0  0  0  0  0  0  0  0
   -0.1999   -1.5895    1.8721 H   0  0  0  0  0  0  0  0  0  0  0  0
    0.7891   -0.1172    1.9562 H   0  0  0  0  0  0  0  0  0  0  0  0
   -2.8389   -0.1674   -0.3955 H   0  0  0  0  0  0  0  0  0  0  0  0
   -2.3196   -1.6259    0.4789 H   0  0  0  0  0  0  0  0  0  0  0  0
   -2.9409   -0.2338    1.3725 H   0  0  0  0  0  0  0  0  0  0  0  0
   -0.5639   -1.2122   -1.0306 H   0  0  0  0  0  0  0  0  0  0  0  0
    0.9967   -0.9439   -2.7198 H   0  0  0  0  0  0  0  0  0  0  0  0
    2.5155   -0.3835   -2.2468 H   0  0  0  0  0  0  0  0  0  0  0  0
  1  9  1  0  0  0  0
  1 11  1  0  0  0  0
  2  1  1  0  0  0  0
  2  3  1  0  0  0  0
  3 14  1  0  0  0  0
  3 12  1  0  0  0  0
  4  2  1  0  0  0  0
  4 17  1  0  0  0  0
  5  2  1  0  0  0  0
  6  5  1  0  0  0  0
  6  8  2  0  0  0  0
  7  6  1  0  0  0  0
 10  1  1  0  0  0  0
 13  3  1  0  0  0  0
 15  4  1  0  0  0  0
 16  4  1  0  0  0  0
 18  5  1  0  0  0  0
 19  7  1  0  0  0  0
 20  7  1  0  0  0  0
M  END
