19
title
C -0.08262022 2.4607882 0.5904366
C -0.1285051 0.93094516 0.59727865
C 0.7582264 0.37348166 1.7256851
O -1.486411 0.5790018 0.81485754
C 0.3292162 0.39527038 -0.78469896
C 0.21750705 -1.1193967 -0.9104264
N 1.1396171 -1.7140918 -1.7116908
O -0.6522876 -1.7720942 -0.34649232
H 0.9366181 2.8302636 0.4395954
H -0.72325957 2.8584828 -0.20203374
H -0.45240492 2.8420975 1.5464011
H 0.41003767 0.7619 2.6865823
H 0.7011056 -0.71798426 1.7625943
H 1.8075035 0.6626168 1.5964111
H -1.5447115 -0.37281147 0.6286895
H -0.32695982 0.8287777 -1.5496231
H 1.3506399 0.7237628 -1.0075581
H 1.8484968 -1.192024 -2.1949852
H 1.0688246 -2.7061763 -1.871178
