24
title
C 1.46997 0.422473 2.421915
C 1.086629 0.49310797 0.9351736
C 2.2559812 0.016025675 0.06149556
C -0.21597274 -0.3001049 0.7049695
C -0.9524254 -0.15618451 -0.6430892
C -2.2900565 -0.9109461 -0.5656724
C -1.1972058 1.3100064 -1.0302045
O -0.123099886 -0.7854418 -1.6319591
H 2.3834817 0.9928235 2.6203375
H 0.6772387 0.82282937 3.0633593
H 1.6544795 -0.61406034 2.7295794
H 0.8934272 1.5485764 0.70096225
H 2.4920588 -1.0335064 0.2752842
H 2.0209606 0.08573283 -1.0008131
H 3.1555474 0.60696375 0.26687136
H -0.010007225 -1.368992 0.84960663
H -0.9301271 -0.016126292 1.4883224
H -2.9617965 -0.46605465 0.17557843
H -2.8022432 -0.8849856 -1.5351146
H -2.1213534 -1.9581869 -0.2990124
H -0.25441155 1.8336562 -1.2036303
H -1.7875578 1.3658457 -1.9527429
H -1.7529652 1.8431946 -0.25173876
H -0.57269055 -0.7099585 -2.480488
