title
 OpenBabel02282109573D

 24 23  0  0  0  0  0  0  0  0999 V2000
    1.0597    2.2346   -0.3453 C   0  0  0  0  0  0  0  0  0  0  0  0
    0.9513    0.8970    0.3892 C   0  0  0  0  0  0  0  0  0  0  0  0
    1.2846    1.0308    1.8762 C   0  0  0  0  0  0  0  0  0  0  0  0
   -0.3878    0.4170    0.2644 O   0  0  0  0  0  0  0  0  0  0  0  0
   -0.6334   -0.8363   -0.3887 C   0  0  0  0  0  0  0  0  0  0  0  0
    0.0427   -1.9974    0.3602 C   0  0  0  0  0  0  0  0  0  0  0  0
   -2.1567   -0.9860   -0.3153 C   0  0  0  0  0  0  0  0  0  0  0  0
   -0.1821   -0.7968   -1.8587 C   0  0  0  0  0  0  0  0  0  0  0  0
    2.0633    2.6605   -0.2416 H   0  0  0  0  0  0  0  0  0  0  0  0
    0.8448    2.1123   -1.4104 H   0  0  0  0  0  0  0  0  0  0  0  0
    0.3378    2.9472    0.0666 H   0  0  0  0  0  0  0  0  0  0  0  0
    1.6559    0.1890   -0.0658 H   0  0  0  0  0  0  0  0  0  0  0  0
    1.2282    0.0602    2.3766 H   0  0  0  0  0  0  0  0  0  0  0  0
    2.2922    1.4355    2.0190 H   0  0  0  0  0  0  0  0  0  0  0  0
    0.5702    1.7041    2.3607 H   0  0  0  0  0  0  0  0  0  0  0  0
   -0.2843   -2.0162    1.4040 H   0  0  0  0  0  0  0  0  0  0  0  0
   -0.2216   -2.9552   -0.0995 H   0  0  0  0  0  0  0  0  0  0  0  0
    1.1339   -1.9169    0.3426 H   0  0  0  0  0  0  0  0  0  0  0  0
   -2.6426   -0.1487   -0.8237 H   0  0  0  0  0  0  0  0  0  0  0  0
   -2.4810   -1.9183   -0.7872 H   0  0  0  0  0  0  0  0  0  0  0  0
   -2.4854   -0.9884    0.7275 H   0  0  0  0  0  0  0  0  0  0  0  0
    0.9014   -0.6750   -1.9520 H   0  0  0  0  0  0  0  0  0  0  0  0
   -0.4510   -1.7283   -2.3672 H   0  0  0  0  0  0  0  0  0  0  0  0
   -0.6679    0.0321   -2.3817 H   0  0  0  0  0  0  0  0  0  0  0  0
  1  9  1  0  0  0  0
  1 11  1  0  0  0  0
  1  2  1  0  0  0  0
  2  3  1  0  0  0  0
  3 14  1  0  0  0  0
  3 15  1  0  0  0  0
  3 13  1  0  0  0  0
  4  2  1  0  0  0  0
  5  7  1  0  0  0  0
  5  4  1  0  0  0  0
  5  6  1  0  0  0  0
  6 16  1  0  0  0  0
  7 21  1  0  0  0  0
  8  5  1  0  0  0  0
 10  1  1  0  0  0  0
 12  2  1  0  0  0  0
 17  6  1  0  0  0  0
 18  6  1  0  0  0  0
 19  7  1  0  0  0  0
 20  7  1  0  0  0  0
 22  8  1  0  0  0  0
 23  8  1  0  0  0  0
 24  8  1  0  0  0  0
M  END
