24
title
C 1.0596986 2.234599 -0.34534335
C 0.9513282 0.89704514 0.38917676
C 1.2846383 1.0307744 1.8762465
O -0.38783833 0.41698837 0.26444653
C -0.63341033 -0.83633786 -0.3886842
C 0.04265751 -1.9974369 0.36019337
C -2.156725 -0.9860309 -0.31533977
C -0.1821221 -0.7968264 -1.8586658
H 2.0632563 2.6604936 -0.24158062
H 0.8447974 2.1122725 -1.4104096
H 0.3378313 2.94719 0.066570185
H 1.6559461 0.1890264 -0.06583676
H 1.2282155 0.06022673 2.376609
H 2.292171 1.435494 2.0189579
H 0.57016903 1.7040967 2.360725
H -0.2842779 -2.0162096 1.4039629
H -0.22158729 -2.9552474 -0.09947033
H 1.1338965 -1.9169282 0.3425992
H -2.6425695 -0.14866503 -0.82365316
H -2.4810033 -1.9183217 -0.7872003
H -2.4854462 -0.98843104 0.7275153
H 0.9014205 -0.67503494 -1.9519712
H -0.4510456 -1.7282554 -2.367223
H -0.66791046 0.032102756 -2.3817117
