24
title
C 0.11700331 2.8049676 0.47665885
C 0.5429602 1.3656433 0.17320219
O 1.4790484 0.9055696 1.1496116
C -0.6757879 0.4428659 0.016026063
C -0.44502023 -1.0360724 -0.39682296
C 0.16393255 -1.856892 0.75666636
C -1.8201579 -1.6355823 -0.75175303
C 0.47228652 -1.127941 -1.6299832
H 0.9988648 3.4374883 0.60927606
H -0.4923704 3.2210789 -0.33207896
H -0.47769108 2.8494654 1.3979541
H 1.1157902 1.365499 -0.76086074
H 1.0235387 0.87611514 1.9986242
H -1.2469805 0.4602059 0.95736176
H -1.3300804 0.9075912 -0.7342561
H -0.4836065 -1.8275515 1.6414276
H 0.27031383 -2.9075706 0.46377143
H 1.1455711 -1.474074 1.0398712
H -2.2731218 -1.1199914 -1.6061386
H -1.7287055 -2.6960654 -1.0111353
H -2.5157416 -1.5586106 0.09177512
H 1.4904912 -0.7991004 -1.4023539
H 0.5332665 -2.162705 -1.9844869
H 0.093674764 -0.5168197 -2.4576912
