22
title
C -0.38673732 1.8026712 0.6756358
C -0.34080032 0.26667878 0.65182817
C 0.37703702 -0.24255578 1.9117258
O -1.6741651 -0.25993836 0.6043777
C 0.34080085 -0.2666784 -0.651828
C 0.38670906 -1.8026716 -0.67565244
C -0.3770202 0.24258268 -1.911724
O 1.6741751 0.25991377 -0.60436434
H 0.6143548 2.2235365 0.5601756
H -1.0274907 2.190081 -0.11902673
H -0.7947717 2.1479642 1.632686
H -0.07107071 0.21007371 2.803908
H 0.2857192 -1.3264633 2.0063028
H 1.4361056 0.023055987 1.8900815
H -2.1341743 0.04494238 1.3928353
H -0.6143912 -2.2235188 -0.5601966
H 0.794736 -2.1479616 -1.6327068
H 1.0274556 -2.190102 0.119005315
H -0.28568673 1.3264903 -2.0062847
H 0.071088396 -0.2100405 -2.803909
H -1.4360926 -0.023014588 -1.8900915
H 2.134187 -0.044975534 -1.3928174
