title
 OpenBabel02282109573D

 22 21  0  0  0  0  0  0  0  0999 V2000
   -0.3867    1.8027    0.6756 C   0  0  0  0  0  0  0  0  0  0  0  0
   -0.3408    0.2667    0.6518 C   0  0  0  0  0  0  0  0  0  0  0  0
    0.3770   -0.2426    1.9117 C   0  0  0  0  0  0  0  0  0  0  0  0
   -1.6742   -0.2599    0.6044 O   0  0  0  0  0  0  0  0  0  0  0  0
    0.3408   -0.2667   -0.6518 C   0  0  0  0  0  0  0  0  0  0  0  0
    0.3867   -1.8027   -0.6757 C   0  0  0  0  0  0  0  0  0  0  0  0
   -0.3770    0.2426   -1.9117 C   0  0  0  0  0  0  0  0  0  0  0  0
    1.6742    0.2599   -0.6044 O   0  0  0  0  0  0  0  0  0  0  0  0
    0.6144    2.2235    0.5602 H   0  0  0  0  0  0  0  0  0  0  0  0
   -1.0275    2.1901   -0.1190 H   0  0  0  0  0  0  0  0  0  0  0  0
   -0.7948    2.1480    1.6327 H   0  0  0  0  0  0  0  0  0  0  0  0
   -0.0711    0.2101    2.8039 H   0  0  0  0  0  0  0  0  0  0  0  0
    0.2857   -1.3265    2.0063 H   0  0  0  0  0  0  0  0  0  0  0  0
    1.4361    0.0231    1.8901 H   0  0  0  0  0  0  0  0  0  0  0  0
   -2.1342    0.0449    1.3928 H   0  0  0  0  0  0  0  0  0  0  0  0
   -0.6144   -2.2235   -0.5602 H   0  0  0  0  0  0  0  0  0  0  0  0
    0.7947   -2.1480   -1.6327 H   0  0  0  0  0  0  0  0  0  0  0  0
    1.0275   -2.1901    0.1190 H   0  0  0  0  0  0  0  0  0  0  0  0
   -0.2857    1.3265   -2.0063 H   0  0  0  0  0  0  0  0  0  0  0  0
    0.0711   -0.2100   -2.8039 H   0  0  0  0  0  0  0  0  0  0  0  0
   -1.4361   -0.0230   -1.8901 H   0  0  0  0  0  0  0  0  0  0  0  0
    2.1342   -0.0450   -1.3928 H   0  0  0  0  0  0  0  0  0  0  0  0
  1 11  1  0  0  0  0
  2  1  1  0  0  0  0
  2  3  1  0  0  0  0
  3 13  1  0  0  0  0
  3 12  1  0  0  0  0
  4  2  1  0  0  0  0
  4 15  1  0  0  0  0
  5  8  1  0  0  0  0
  5  2  1  0  0  0  0
  6  5  1  0  0  0  0
  6 16  1  0  0  0  0
  6 18  1  0  0  0  0
  7 21  1  0  0  0  0
  7  5  1  0  0  0  0
  9  1  1  0  0  0  0
 10  1  1  0  0  0  0
 14  3  1  0  0  0  0
 17  6  1  0  0  0  0
 19  7  1  0  0  0  0
 20  7  1  0  0  0  0
 22  8  1  0  0  0  0
M  END
