title
 OpenBabel02282109573D

 22 22  0  0  0  0  0  0  0  0999 V2000
   -1.3648    1.6295    0.8369 C   0  0  0  0  0  0  0  0  0  0  0  0
   -0.9347    0.2229    0.4352 C   0  0  0  0  0  0  0  0  0  0  0  0
   -1.8720   -0.8339    1.0091 C   0  0  0  0  0  0  0  0  0  0  0  0
   -0.5482    0.0392   -1.0541 C   0  0  0  0  0  0  0  0  0  0  0  0
    0.8863   -0.2194   -0.5283 C   0  0  0  0  0  0  0  0  0  0  0  0
    1.4192   -1.6334   -0.7323 C   0  0  0  0  0  0  0  0  0  0  0  0
    1.9265    0.8300   -0.9045 C   0  0  0  0  0  0  0  0  0  0  0  0
    0.4405   -0.0315    0.8470 O   0  0  0  0  0  0  0  0  0  0  0  0
   -0.6805    2.3796    0.4315 H   0  0  0  0  0  0  0  0  0  0  0  0
   -2.3738    1.8476    0.4694 H   0  0  0  0  0  0  0  0  0  0  0  0
   -1.3690    1.7278    1.9275 H   0  0  0  0  0  0  0  0  0  0  0  0
   -2.8953   -0.6845    0.6467 H   0  0  0  0  0  0  0  0  0  0  0  0
   -1.5495   -1.8395    0.7261 H   0  0  0  0  0  0  0  0  0  0  0  0
   -1.8843   -0.7763    2.1025 H   0  0  0  0  0  0  0  0  0  0  0  0
   -1.0193   -0.8093   -1.5549 H   0  0  0  0  0  0  0  0  0  0  0  0
   -0.6612    0.9297   -1.6764 H   0  0  0  0  0  0  0  0  0  0  0  0
    1.6920   -1.7988   -1.7805 H   0  0  0  0  0  0  0  0  0  0  0  0
    2.3103   -1.7952   -0.1169 H   0  0  0  0  0  0  0  0  0  0  0  0
    0.6714   -2.3790   -0.4489 H   0  0  0  0  0  0  0  0  0  0  0  0
    1.5404    1.8402   -0.7437 H   0  0  0  0  0  0  0  0  0  0  0  0
    2.8261    0.7088   -0.2921 H   0  0  0  0  0  0  0  0  0  0  0  0
    2.2133    0.7334   -1.9576 H   0  0  0  0  0  0  0  0  0  0  0  0
  1 11  1  0  0  0  0
  2  1  1  0  0  0  0
  2  8  1  0  0  0  0
  2  3  1  0  0  0  0
  3 14  1  0  0  0  0
  4  5  1  0  0  0  0
  4  2  1  0  0  0  0
  5  8  1  0  0  0  0
  6  5  1  0  0  0  0
  6 19  1  0  0  0  0
  6 18  1  0  0  0  0
  7 20  1  0  0  0  0
  7  5  1  0  0  0  0
  7 21  1  0  0  0  0
  9  1  1  0  0  0  0
 10  1  1  0  0  0  0
 12  3  1  0  0  0  0
 13  3  1  0  0  0  0
 15  4  1  0  0  0  0
 16  4  1  0  0  0  0
 17  6  1  0  0  0  0
 22  7  1  0  0  0  0
M  END
