title
 OpenBabel02282109573D

 22 22  0  0  0  0  0  0  0  0999 V2000
   -1.2766    1.7622   -0.1988 C   0  0  0  0  0  0  0  0  0  0  0  0
   -1.0844    0.2441   -0.1869 C   0  0  0  0  0  0  0  0  0  0  0  0
   -2.4040   -0.4796   -0.4377 C   0  0  0  0  0  0  0  0  0  0  0  0
    0.1146   -0.2108   -1.0826 C   0  0  0  0  0  0  0  0  0  0  0  0
    1.0044   -0.3583    0.1780 C   0  0  0  0  0  0  0  0  0  0  0  0
    1.8440   -1.6198    0.3164 C   0  0  0  0  0  0  0  0  0  0  0  0
    1.8261    0.8052    0.2619 O   0  0  0  0  0  0  0  0  0  0  0  0
   -0.2763   -0.2440    1.0608 C   0  0  0  0  0  0  0  0  0  0  0  0
   -0.3276    2.2749   -0.0218 H   0  0  0  0  0  0  0  0  0  0  0  0
   -1.6712    2.0985   -1.1650 H   0  0  0  0  0  0  0  0  0  0  0  0
   -1.9857    2.0726    0.5781 H   0  0  0  0  0  0  0  0  0  0  0  0
   -2.8275   -0.2023   -1.4105 H   0  0  0  0  0  0  0  0  0  0  0  0
   -2.2726   -1.5673   -0.4296 H   0  0  0  0  0  0  0  0  0  0  0  0
   -3.1457   -0.2275    0.3297 H   0  0  0  0  0  0  0  0  0  0  0  0
   -0.0675   -1.1685   -1.5784 H   0  0  0  0  0  0  0  0  0  0  0  0
    0.4845    0.5091   -1.8163 H   0  0  0  0  0  0  0  0  0  0  0  0
    2.6346   -1.6356   -0.4405 H   0  0  0  0  0  0  0  0  0  0  0  0
    2.3185   -1.6654    1.3053 H   0  0  0  0  0  0  0  0  0  0  0  0
    1.2322   -2.5200    0.2014 H   0  0  0  0  0  0  0  0  0  0  0  0
    2.2334    0.8121    1.1354 H   0  0  0  0  0  0  0  0  0  0  0  0
   -0.2063    0.4520    1.9024 H   0  0  0  0  0  0  0  0  0  0  0  0
   -0.6197   -1.2146    1.4321 H   0  0  0  0  0  0  0  0  0  0  0  0
  1  2  1  0  0  0  0
  1  9  1  0  0  0  0
  1 11  1  0  0  0  0
  2  8  1  0  0  0  0
  3 13  1  0  0  0  0
  3  2  1  0  0  0  0
  3 14  1  0  0  0  0
  4  2  1  0  0  0  0
  4  5  1  0  0  0  0
  5  7  1  0  0  0  0
  5  6  1  0  0  0  0
  5  8  1  0  0  0  0
  6 18  1  0  0  0  0
  7 20  1  0  0  0  0
  8 22  1  0  0  0  0
  8 21  1  0  0  0  0
 10  1  1  0  0  0  0
 12  3  1  0  0  0  0
 15  4  1  0  0  0  0
 16  4  1  0  0  0  0
 17  6  1  0  0  0  0
 19  6  1  0  0  0  0
M  END
