20
title
C -1.232749 1.7702863 -0.22171007
C -1.0402893 0.2591798 -0.19700985
O -2.2719743 -0.42279872 -0.36187017
C 0.14387377 -0.24347913 -1.0854542
C 1.0181987 -0.37689534 0.18821101
C 1.874424 -1.6232347 0.3478225
O 1.817513 0.80242676 0.27828935
C -0.2805632 -0.2713191 1.0457278
H -0.2819139 2.2797465 -0.048861887
H -1.6170657 2.0949745 -1.1977191
H -1.9486809 2.0746725 0.5488409
H -2.7263796 -0.03810045 -1.1193994
H -0.09314899 -1.2155607 -1.5236834
H 0.53448135 0.4309978 -1.8509892
H 2.6773696 -1.6310427 -0.39608935
H 2.3340635 -1.6552262 1.344154
H 1.2776027 -2.5324457 0.22878419
H 2.2084274 0.82341385 1.1589599
H -0.236571 0.37889904 1.9241056
H -0.6689798 -1.2511849 1.3339901
