22
title
C -0.81540227 1.8305763 -0.507339
C -0.65613073 0.29595515 -0.4322682
C -0.023464367 -0.18642113 -1.6615616
C 0.49675587 -0.5512343 -2.6831427
C 0.07763423 -0.23280093 0.8535069
C -0.667298 0.2545722 2.1100063
C 0.049620405 -1.7727449 0.8345822
C 1.5382382 0.24853808 0.89994705
H 0.15550424 2.332093 -0.5295532
H -1.3489708 2.103471 -1.4214312
H -1.3854206 2.21126 0.3431649
H -1.6684656 -0.13276285 -0.39831853
H 0.9489914 -0.8834264 -3.5845728
H -1.7287661 -0.016796494 2.0760138
H -0.2368751 -0.20759794 3.004581
H -0.5981887 1.338303 2.2384844
H 0.5598105 -2.1687303 -0.047368728
H 0.5435885 -2.17638 1.7247142
H -0.9798783 -2.1489606 0.82527363
H 1.6060411 1.3384657 0.9728278
H 2.0471466 -0.16952923 1.7749087
H 2.0860388 -0.06627094 0.0070639625
