title
 OpenBabel02282109573D

 22 21  0  0  1  0  0  0  0  0999 V2000
   -0.8154    1.8306   -0.5073 C   0  0  0  0  0  0  0  0  0  0  0  0
   -0.6561    0.2960   -0.4323 C   0  0  1  0  0  0  0  0  0  0  0  0
   -0.0235   -0.1864   -1.6616 C   0  0  0  0  0  0  0  0  0  0  0  0
    0.4968   -0.5512   -2.6831 C   0  0  0  0  0  0  0  0  0  0  0  0
    0.0776   -0.2328    0.8535 C   0  0  0  0  0  0  0  0  0  0  0  0
   -0.6673    0.2546    2.1100 C   0  0  0  0  0  0  0  0  0  0  0  0
    0.0496   -1.7727    0.8346 C   0  0  0  0  0  0  0  0  0  0  0  0
    1.5382    0.2485    0.8999 C   0  0  0  0  0  0  0  0  0  0  0  0
    0.1555    2.3321   -0.5296 H   0  0  0  0  0  0  0  0  0  0  0  0
   -1.3490    2.1035   -1.4214 H   0  0  0  0  0  0  0  0  0  0  0  0
   -1.3854    2.2113    0.3432 H   0  0  0  0  0  0  0  0  0  0  0  0
   -1.6685   -0.1328   -0.3983 H   0  0  0  0  0  0  0  0  0  0  0  0
    0.9490   -0.8834   -3.5846 H   0  0  0  0  0  0  0  0  0  0  0  0
   -1.7288   -0.0168    2.0760 H   0  0  0  0  0  0  0  0  0  0  0  0
   -0.2369   -0.2076    3.0046 H   0  0  0  0  0  0  0  0  0  0  0  0
   -0.5982    1.3383    2.2385 H   0  0  0  0  0  0  0  0  0  0  0  0
    0.5598   -2.1687   -0.0474 H   0  0  0  0  0  0  0  0  0  0  0  0
    0.5436   -2.1764    1.7247 H   0  0  0  0  0  0  0  0  0  0  0  0
   -0.9799   -2.1490    0.8253 H   0  0  0  0  0  0  0  0  0  0  0  0
    1.6060    1.3385    0.9728 H   0  0  0  0  0  0  0  0  0  0  0  0
    2.0471   -0.1695    1.7749 H   0  0  0  0  0  0  0  0  0  0  0  0
    2.0860   -0.0663    0.0071 H   0  0  0  0  0  0  0  0  0  0  0  0
  1  2  1  0  0  0  0
  1 11  1  0  0  0  0
  2 12  1  1  0  0  0
  2  5  1  0  0  0  0
  3  2  1  0  0  0  0
  4  3  3  0  0  0  0
  5  8  1  0  0  0  0
  5  6  1  0  0  0  0
  6 16  1  0  0  0  0
  6 15  1  0  0  0  0
  7  5  1  0  0  0  0
  7 18  1  0  0  0  0
  8 20  1  0  0  0  0
  8 21  1  0  0  0  0
  9  1  1  0  0  0  0
 10  1  1  0  0  0  0
 13  4  1  0  0  0  0
 14  6  1  0  0  0  0
 17  7  1  0  0  0  0
 19  7  1  0  0  0  0
 22  8  1  0  0  0  0
M  END
