title
 OpenBabel02282109573D

 19 18  0  0  1  0  0  0  0  0999 V2000
   -0.7126    1.8624   -0.5197 C   0  0  0  0  0  0  0  0  0  0  0  0
   -0.6777    0.3234   -0.4285 C   0  0  1  0  0  0  0  0  0  0  0  0
   -0.0662   -0.2133   -1.6497 C   0  0  0  0  0  0  0  0  0  0  0  0
    0.3996   -0.6188   -2.6266 N   0  0  0  0  0  0  0  0  0  0  0  0
    0.0532   -0.2270    0.8488 C   0  0  0  0  0  0  0  0  0  0  0  0
   -0.6841    0.2206    2.1189 C   0  0  0  0  0  0  0  0  0  0  0  0
    0.1377   -1.7544    0.7975 C   0  0  0  0  0  0  0  0  0  0  0  0
    1.4019    0.2295    0.8692 O   0  0  0  0  0  0  0  0  0  0  0  0
    0.3011    2.2725   -0.5228 H   0  0  0  0  0  0  0  0  0  0  0  0
   -1.1977    2.1777   -1.4462 H   0  0  0  0  0  0  0  0  0  0  0  0
   -1.2699    2.2921    0.3156 H   0  0  0  0  0  0  0  0  0  0  0  0
   -1.7096   -0.0490   -0.4002 H   0  0  0  0  0  0  0  0  0  0  0  0
   -1.7230   -0.1239    2.1239 H   0  0  0  0  0  0  0  0  0  0  0  0
   -0.1800   -0.1974    2.9942 H   0  0  0  0  0  0  0  0  0  0  0  0
   -0.6922    1.3103    2.2256 H   0  0  0  0  0  0  0  0  0  0  0  0
    0.7215   -2.0775   -0.0669 H   0  0  0  0  0  0  0  0  0  0  0  0
    0.6282   -2.1243    1.7013 H   0  0  0  0  0  0  0  0  0  0  0  0
   -0.8593   -2.2006    0.7337 H   0  0  0  0  0  0  0  0  0  0  0  0
    1.4101    1.1544    1.1357 H   0  0  0  0  0  0  0  0  0  0  0  0
  1  2  1  0  0  0  0
  1 11  1  0  0  0  0
  2 12  1  1  0  0  0
  2  5  1  0  0  0  0
  3  2  1  0  0  0  0
  4  3  3  0  0  0  0
  5  8  1  0  0  0  0
  5  6  1  0  0  0  0
  6 13  1  0  0  0  0
  6 15  1  0  0  0  0
  6 14  1  0  0  0  0
  7  5  1  0  0  0  0
  7 17  1  0  0  0  0
  8 19  1  0  0  0  0
  9  1  1  0  0  0  0
 10  1  1  0  0  0  0
 16  7  1  0  0  0  0
 18  7  1  0  0  0  0
M  END
