title
 OpenBabel02282109573D

 20 19  0  0  1  0  0  0  0  0999 V2000
   -0.5032    2.1296    0.4568 C   0  0  0  0  0  0  0  0  0  0  0  0
   -0.4586    0.5927    0.5060 C   0  0  0  0  0  0  0  0  0  0  0  0
    0.2563    0.1273    1.7870 C   0  0  0  0  0  0  0  0  0  0  0  0
   -1.8928    0.0356    0.4808 C   0  0  0  0  0  0  0  0  0  0  0  0
    0.3072    0.0872   -0.7592 C   0  0  1  0  0  0  0  0  0  0  0  0
    1.6848    0.5878   -0.8107 N   0  0  0  0  0  0  0  0  0  0  0  0
    0.2540   -1.3884   -0.8739 C   0  0  0  0  0  0  0  0  0  0  0  0
    0.2725   -2.5414   -0.9658 N   0  0  0  0  0  0  0  0  0  0  0  0
    0.5024    2.5520    0.4102 H   0  0  0  0  0  0  0  0  0  0  0  0
   -1.0591    2.4803   -0.4201 H   0  0  0  0  0  0  0  0  0  0  0  0
   -1.0070    2.5197    1.3468 H   0  0  0  0  0  0  0  0  0  0  0  0
   -0.3109    0.4419    2.6685 H   0  0  0  0  0  0  0  0  0  0  0  0
    0.3477   -0.9634    1.8222 H   0  0  0  0  0  0  0  0  0  0  0  0
    1.2564    0.5640    1.8729 H   0  0  0  0  0  0  0  0  0  0  0  0
   -2.4178    0.3292   -0.4352 H   0  0  0  0  0  0  0  0  0  0  0  0
   -1.9066   -1.0564    0.5430 H   0  0  0  0  0  0  0  0  0  0  0  0
   -2.4622    0.4280    1.3290 H   0  0  0  0  0  0  0  0  0  0  0  0
   -0.2157    0.4920   -1.6340 H   0  0  0  0  0  0  0  0  0  0  0  0
    2.2581    0.0956   -0.1324 H   0  0  0  0  0  0  0  0  0  0  0  0
    2.0892    0.3897   -1.7207 H   0  0  0  0  0  0  0  0  0  0  0  0
  1  2  1  0  0  0  0
  1 11  1  0  0  0  0
  2  3  1  0  0  0  0
  3 13  1  0  0  0  0
  3 14  1  0  0  0  0
  3 12  1  0  0  0  0
  4  2  1  0  0  0  0
  4 16  1  0  0  0  0
  4 17  1  0  0  0  0
  5 18  1  6  0  0  0
  5  2  1  0  0  0  0
  6  5  1  0  0  0  0
  6 19  1  0  0  0  0
  7  5  1  0  0  0  0
  8  7  3  0  0  0  0
  9  1  1  0  0  0  0
 10  1  1  0  0  0  0
 15  4  1  0  0  0  0
 20  6  1  0  0  0  0
M  END
