title
 OpenBabel02282109573D

 20 19  0  0  1  0  0  0  0  0999 V2000
   -0.4863    2.1140    0.4429 C   0  0  0  0  0  0  0  0  0  0  0  0
   -0.4787    0.5765    0.4998 C   0  0  0  0  0  0  0  0  0  0  0  0
    0.2357    0.1052    1.7773 C   0  0  0  0  0  0  0  0  0  0  0  0
   -1.9229    0.0492    0.4764 C   0  0  0  0  0  0  0  0  0  0  0  0
    0.2780    0.0571   -0.7648 C   0  0  1  0  0  0  0  0  0  0  0  0
    1.6046    0.5767   -0.8547 O   0  0  0  0  0  0  0  0  0  0  0  0
    0.2899   -1.4056   -0.8678 C   0  0  0  0  0  0  0  0  0  0  0  0
    0.3492   -2.6052   -0.9339 C   0  0  0  0  0  0  0  0  0  0  0  0
    0.5312    2.5074    0.3879 H   0  0  0  0  0  0  0  0  0  0  0  0
   -1.0354    2.4741   -0.4346 H   0  0  0  0  0  0  0  0  0  0  0  0
   -0.9723    2.5271    1.3327 H   0  0  0  0  0  0  0  0  0  0  0  0
   -0.2928    0.4661    2.6653 H   0  0  0  0  0  0  0  0  0  0  0  0
    0.2778   -0.9873    1.8307 H   0  0  0  0  0  0  0  0  0  0  0  0
    1.2585    0.4936    1.8259 H   0  0  0  0  0  0  0  0  0  0  0  0
   -2.4398    0.3497   -0.4423 H   0  0  0  0  0  0  0  0  0  0  0  0
   -1.9538   -1.0421    0.5390 H   0  0  0  0  0  0  0  0  0  0  0  0
   -2.4885    0.4543    1.3218 H   0  0  0  0  0  0  0  0  0  0  0  0
   -0.2414    0.4629   -1.6428 H   0  0  0  0  0  0  0  0  0  0  0  0
    2.1729    0.0172   -0.3153 H   0  0  0  0  0  0  0  0  0  0  0  0
    0.3916   -3.6640   -1.0083 H   0  0  0  0  0  0  0  0  0  0  0  0
  1  2  1  0  0  0  0
  1 11  1  0  0  0  0
  2  3  1  0  0  0  0
  3 14  1  0  0  0  0
  3 13  1  0  0  0  0
  3 12  1  0  0  0  0
  4  2  1  0  0  0  0
  4 16  1  0  0  0  0
  4 17  1  0  0  0  0
  5 18  1  6  0  0  0
  5  2  1  0  0  0  0
  6  5  1  0  0  0  0
  6 19  1  0  0  0  0
  7  5  1  0  0  0  0
  8  7  3  0  0  0  0
  9  1  1  0  0  0  0
 10  1  1  0  0  0  0
 15  4  1  0  0  0  0
 20  8  1  0  0  0  0
M  END
