title
 OpenBabel02282109573D

 19 18  0  0  1  0  0  0  0  0999 V2000
   -0.4873    2.1212    0.4684 C   0  0  0  0  0  0  0  0  0  0  0  0
   -0.4719    0.5833    0.5103 C   0  0  0  0  0  0  0  0  0  0  0  0
    0.2466    0.0975    1.7813 C   0  0  0  0  0  0  0  0  0  0  0  0
   -1.9120    0.0438    0.4800 C   0  0  0  0  0  0  0  0  0  0  0  0
    0.2845    0.0862   -0.7601 C   0  0  1  0  0  0  0  0  0  0  0  0
    1.6095    0.5752   -0.8683 O   0  0  0  0  0  0  0  0  0  0  0  0
    0.2763   -1.3893   -0.8636 C   0  0  0  0  0  0  0  0  0  0  0  0
    0.3019   -2.5436   -0.9207 N   0  0  0  0  0  0  0  0  0  0  0  0
    0.5269    2.5238    0.4144 H   0  0  0  0  0  0  0  0  0  0  0  0
   -1.0429    2.4877   -0.4018 H   0  0  0  0  0  0  0  0  0  0  0  0
   -0.9715    2.5193    1.3654 H   0  0  0  0  0  0  0  0  0  0  0  0
   -0.2927    0.4354    2.6713 H   0  0  0  0  0  0  0  0  0  0  0  0
    0.3031   -0.9952    1.8201 H   0  0  0  0  0  0  0  0  0  0  0  0
    1.2629    0.5010    1.8511 H   0  0  0  0  0  0  0  0  0  0  0  0
   -2.4334    0.3530   -0.4328 H   0  0  0  0  0  0  0  0  0  0  0  0
   -1.9379   -1.0485    0.5320 H   0  0  0  0  0  0  0  0  0  0  0  0
   -2.4770    0.4343    1.3321 H   0  0  0  0  0  0  0  0  0  0  0  0
   -0.2373    0.4790   -1.6405 H   0  0  0  0  0  0  0  0  0  0  0  0
    2.1486    0.1432   -0.1965 H   0  0  0  0  0  0  0  0  0  0  0  0
  1  2  1  0  0  0  0
  1 11  1  0  0  0  0
  2  3  1  0  0  0  0
  3 13  1  0  0  0  0
  3 14  1  0  0  0  0
  3 12  1  0  0  0  0
  4  2  1  0  0  0  0
  4 16  1  0  0  0  0
  4 17  1  0  0  0  0
  5 18  1  6  0  0  0
  5  2  1  0  0  0  0
  6  5  1  0  0  0  0
  6 19  1  0  0  0  0
  7  5  1  0  0  0  0
  8  7  3  0  0  0  0
  9  1  1  0  0  0  0
 10  1  1  0  0  0  0
 15  4  1  0  0  0  0
M  END
