title
 OpenBabel02282109573D

 18 17  0  0  1  0  0  0  0  0999 V2000
   -0.4701    2.1125    0.4489 C   0  0  0  0  0  0  0  0  0  0  0  0
   -0.4422    0.5809    0.4997 C   0  0  0  0  0  0  0  0  0  0  0  0
    0.2415    0.0788    1.7757 C   0  0  0  0  0  0  0  0  0  0  0  0
   -1.7646    0.0540    0.3919 O   0  0  0  0  0  0  0  0  0  0  0  0
    0.2712    0.0448   -0.7770 C   0  0  1  0  0  0  0  0  0  0  0  0
    1.5896    0.5763   -0.8937 O   0  0  0  0  0  0  0  0  0  0  0  0
    0.2806   -1.4163   -0.8494 C   0  0  0  0  0  0  0  0  0  0  0  0
    0.3667   -2.6141   -0.9063 C   0  0  0  0  0  0  0  0  0  0  0  0
    0.5417    2.5202    0.3975 H   0  0  0  0  0  0  0  0  0  0  0  0
   -1.0297    2.4506   -0.4284 H   0  0  0  0  0  0  0  0  0  0  0  0
   -0.9604    2.5137    1.3433 H   0  0  0  0  0  0  0  0  0  0  0  0
   -0.2791    0.4607    2.6609 H   0  0  0  0  0  0  0  0  0  0  0  0
    0.2303   -1.0132    1.8113 H   0  0  0  0  0  0  0  0  0  0  0  0
    1.2772    0.4283    1.8288 H   0  0  0  0  0  0  0  0  0  0  0  0
   -2.2735    0.3779    1.1421 H   0  0  0  0  0  0  0  0  0  0  0  0
   -0.2921    0.4365   -1.6327 H   0  0  0  0  0  0  0  0  0  0  0  0
    2.1921   -0.0470   -0.4753 H   0  0  0  0  0  0  0  0  0  0  0  0
    0.4179   -3.6734   -0.9656 H   0  0  0  0  0  0  0  0  0  0  0  0
  1  2  1  0  0  0  0
  1 11  1  0  0  0  0
  2  3  1  0  0  0  0
  3 13  1  0  0  0  0
  3 14  1  0  0  0  0
  3 12  1  0  0  0  0
  4  2  1  0  0  0  0
  4 15  1  0  0  0  0
  5 16  1  6  0  0  0
  5  2  1  0  0  0  0
  6  5  1  0  0  0  0
  6 17  1  0  0  0  0
  7  5  1  0  0  0  0
  8  7  3  0  0  0  0
  9  1  1  0  0  0  0
 10  1  1  0  0  0  0
 18  8  1  0  0  0  0
M  END
