18
title
C -0.47009358 2.112462 0.44887754
C -0.4422213 0.5809213 0.49973115
C 0.24146761 0.0787509 1.7757249
O -1.7645515 0.054016344 0.39185333
C 0.27121395 0.04484456 -0.7770292
O 1.5896277 0.5763372 -0.8936668
C 0.2806328 -1.416332 -0.8493894
C 0.36674404 -2.6141105 -0.9063261
H 0.54168546 2.520245 0.39750126
H -1.0297003 2.4506402 -0.42836505
H -0.9603644 2.5136802 1.3432536
H -0.2791272 0.46065983 2.660909
H 0.23025735 -1.0132409 1.8112868
H 1.2772138 0.42825133 1.8287898
H -2.273531 0.37790486 1.1421009
H -0.292052 0.4364678 -1.6326705
H 2.1920807 -0.047002383 -0.47527468
H 0.41790134 -3.6733558 -0.96564776
