title
 OpenBabel02282109573D

 17 16  0  0  1  0  0  0  0  0999 V2000
   -0.4999    2.1208    0.4581 C   0  0  0  0  0  0  0  0  0  0  0  0
   -0.4432    0.5918    0.5009 C   0  0  0  0  0  0  0  0  0  0  0  0
    0.2271    0.0880    1.7788 C   0  0  0  0  0  0  0  0  0  0  0  0
   -1.7494    0.0262    0.4954 O   0  0  0  0  0  0  0  0  0  0  0  0
    0.3071    0.0784   -0.7706 C   0  0  1  0  0  0  0  0  0  0  0  0
    1.6337    0.5601   -0.8826 O   0  0  0  0  0  0  0  0  0  0  0  0
    0.2681   -1.3949   -0.8542 C   0  0  0  0  0  0  0  0  0  0  0  0
    0.3034   -2.5484   -0.9108 N   0  0  0  0  0  0  0  0  0  0  0  0
    0.5037    2.5489    0.4074 H   0  0  0  0  0  0  0  0  0  0  0  0
   -1.0522    2.4640   -0.4257 H   0  0  0  0  0  0  0  0  0  0  0  0
   -1.0082    2.5010    1.3479 H   0  0  0  0  0  0  0  0  0  0  0  0
   -0.3342    0.4389    2.6480 H   0  0  0  0  0  0  0  0  0  0  0  0
    0.2431   -1.0049    1.8014 H   0  0  0  0  0  0  0  0  0  0  0  0
    1.2506    0.4653    1.8606 H   0  0  0  0  0  0  0  0  0  0  0  0
   -2.2716    0.4626   -0.1869 H   0  0  0  0  0  0  0  0  0  0  0  0
   -0.2207    0.4741   -1.6472 H   0  0  0  0  0  0  0  0  0  0  0  0
    2.1881    0.0708   -0.2647 H   0  0  0  0  0  0  0  0  0  0  0  0
  1  2  1  0  0  0  0
  1 11  1  0  0  0  0
  2  3  1  0  0  0  0
  3 13  1  0  0  0  0
  3 14  1  0  0  0  0
  3 12  1  0  0  0  0
  4  2  1  0  0  0  0
  5 16  1  6  0  0  0
  5  2  1  0  0  0  0
  6  5  1  0  0  0  0
  6 17  1  0  0  0  0
  7  5  1  0  0  0  0
  8  7  3  0  0  0  0
  9  1  1  0  0  0  0
 10  1  1  0  0  0  0
 15  4  1  0  0  0  0
M  END
