17
title
C -0.49993822 2.1208408 0.45807284
C -0.4432426 0.5918178 0.5009283
C 0.22706719 0.08799257 1.7787739
O -1.7493677 0.026231015 0.49536988
C 0.3071151 0.07839208 -0.77055687
O 1.6336975 0.5601105 -0.88260764
C 0.26806793 -1.3948541 -0.854201
N 0.3034325 -2.5484083 -0.9108407
H 0.50371665 2.5488524 0.40735546
H -1.0521824 2.4640396 -0.4257268
H -1.0081749 2.5009837 1.3479446
H -0.33416927 0.43888098 2.6479647
H 0.24312235 -1.0048878 1.8014241
H 1.2506104 0.46532413 1.8605593
H -2.2716124 0.46261337 -0.18688819
H -0.22066182 0.47411802 -1.6471744
H 2.1881065 0.07078978 -0.26467124
