18
title
C -0.38165826 2.0662653 0.6421827
C -0.35461664 0.5327278 0.61846054
C 0.40482092 -0.012702009 1.8476366
C -1.792095 -0.032078646 0.60408866
C 0.36796612 0.06290937 -0.65224063
O 0.82715565 0.8206266 -1.4790434
C 0.48785615 -1.3800472 -0.83832574
C 0.59898907 -2.5661526 -1.0137308
H 0.63000816 2.4797635 0.6376819
H -0.90265536 2.4661398 -0.23134977
H -0.89558524 2.415535 1.5432588
H -0.10964649 0.29423714 2.7639449
H 0.45605356 -1.1048273 1.8364106
H 1.4267898 0.37762994 1.8876234
H -2.3576522 0.34499878 -0.25399566
H -1.7941709 -1.1246536 0.561752
H -2.316735 0.27398023 1.5149082
H 0.70342046 -3.6109474 -1.1798099
