title
 OpenBabel02282109573D

 18 17  0  0  0  0  0  0  0  0999 V2000
   -0.3817    2.0663    0.6422 C   0  0  0  0  0  0  0  0  0  0  0  0
   -0.3546    0.5327    0.6185 C   0  0  0  0  0  0  0  0  0  0  0  0
    0.4048   -0.0127    1.8476 C   0  0  0  0  0  0  0  0  0  0  0  0
   -1.7921   -0.0321    0.6041 C   0  0  0  0  0  0  0  0  0  0  0  0
    0.3680    0.0629   -0.6522 C   0  0  0  0  0  0  0  0  0  0  0  0
    0.8272    0.8206   -1.4790 O   0  0  0  0  0  0  0  0  0  0  0  0
    0.4879   -1.3800   -0.8383 C   0  0  0  0  0  0  0  0  0  0  0  0
    0.5990   -2.5662   -1.0137 C   0  0  0  0  0  0  0  0  0  0  0  0
    0.6300    2.4798    0.6377 H   0  0  0  0  0  0  0  0  0  0  0  0
   -0.9027    2.4661   -0.2313 H   0  0  0  0  0  0  0  0  0  0  0  0
   -0.8956    2.4155    1.5433 H   0  0  0  0  0  0  0  0  0  0  0  0
   -0.1096    0.2942    2.7639 H   0  0  0  0  0  0  0  0  0  0  0  0
    0.4561   -1.1048    1.8364 H   0  0  0  0  0  0  0  0  0  0  0  0
    1.4268    0.3776    1.8876 H   0  0  0  0  0  0  0  0  0  0  0  0
   -2.3577    0.3450   -0.2540 H   0  0  0  0  0  0  0  0  0  0  0  0
   -1.7942   -1.1247    0.5618 H   0  0  0  0  0  0  0  0  0  0  0  0
   -2.3167    0.2740    1.5149 H   0  0  0  0  0  0  0  0  0  0  0  0
    0.7034   -3.6109   -1.1798 H   0  0  0  0  0  0  0  0  0  0  0  0
  1 11  1  0  0  0  0
  2  1  1  0  0  0  0
  2  3  1  0  0  0  0
  3 14  1  0  0  0  0
  3 12  1  0  0  0  0
  4  2  1  0  0  0  0
  4 17  1  0  0  0  0
  5  2  1  0  0  0  0
  6  5  2  0  0  0  0
  7  5  1  0  0  0  0
  8  7  3  0  0  0  0
  9  1  1  0  0  0  0
 10  1  1  0  0  0  0
 13  3  1  0  0  0  0
 15  4  1  0  0  0  0
 16  4  1  0  0  0  0
 18  8  1  0  0  0  0
M  END
