17
title
C -0.3846958 2.083614 0.64974666
C -0.3554067 0.5503517 0.6205959
C 0.41060176 -0.0070411516 1.8421633
C -1.7900314 -0.025305564 0.5979624
C 0.36334172 0.09259424 -0.64493686
O 0.8323492 0.8136209 -1.4880145
C 0.47562757 -1.3802077 -0.81918126
N 0.56862783 -2.523742 -0.96481615
H 0.62606645 2.4993463 0.6485927
H -0.90881926 2.4865215 -0.2205337
H -0.8988333 2.4254913 1.5527824
H -0.108673394 0.2875135 2.7590945
H 0.4664699 -1.0992651 1.8233825
H 1.429561 0.38951123 1.8874736
H -2.3592095 0.35865247 -0.25419727
H -1.7889562 -1.1179584 0.54747593
H -2.31146 0.26861447 1.5138751
