16
title
C 0.05338541 1.7837502 1.06992
C -0.16984427 0.28418767 0.8181436
C 0.40217212 -0.57155514 1.9594026
O -1.5477661 0.0016225763 0.61034036
C 0.56705886 -0.097169064 -0.48032886
O 1.767746 0.04571079 -0.57501584
C -0.21693492 -0.628661 -1.5768554
C -0.8087641 -1.0754905 -2.5250618
H 1.1211365 2.0105128 1.1072426
H -0.40811944 2.37472 0.27400744
H -0.39953327 2.0745876 2.0244951
H -0.051699016 -0.27648687 2.9122221
H 0.18508804 -1.6291384 1.785901
H 1.4837481 -0.43820778 2.0323632
H -2.021118 0.2356425 1.415401
H -1.3404869 -1.4693664 -3.3569024
