title
 OpenBabel02282109573D

 18 17  0  0  0  0  0  0  0  0999 V2000
   -0.4708    2.0572    0.7946 C   0  0  0  0  0  0  0  0  0  0  0  0
   -0.4373    0.5233    0.7647 C   0  0  0  0  0  0  0  0  0  0  0  0
    0.3275   -0.0109    1.9984 C   0  0  0  0  0  0  0  0  0  0  0  0
   -1.8797   -0.0349    0.7513 C   0  0  0  0  0  0  0  0  0  0  0  0
    0.2839    0.0563   -0.5027 C   0  0  0  0  0  0  0  0  0  0  0  0
    0.7435    0.8033   -1.3288 O   0  0  0  0  0  0  0  0  0  0  0  0
    0.4321   -1.4766   -0.7377 C   0  0  0  0  0  0  0  0  0  0  0  0
    0.9845   -1.9089   -1.7109 O   0  0  0  0  0  0  0  0  0  0  0  0
    0.5397    2.4733    0.7890 H   0  0  0  0  0  0  0  0  0  0  0  0
   -0.9940    2.4567   -0.0776 H   0  0  0  0  0  0  0  0  0  0  0  0
   -0.9845    2.4033    1.6971 H   0  0  0  0  0  0  0  0  0  0  0  0
   -0.1722    0.3276    2.9120 H   0  0  0  0  0  0  0  0  0  0  0  0
    0.3648   -1.1039    2.0334 H   0  0  0  0  0  0  0  0  0  0  0  0
    1.3551    0.3653    2.0198 H   0  0  0  0  0  0  0  0  0  0  0  0
   -2.4345    0.3246   -0.1210 H   0  0  0  0  0  0  0  0  0  0  0  0
   -1.9109   -1.1286    0.7470 H   0  0  0  0  0  0  0  0  0  0  0  0
   -2.4098    0.3029    1.6479 H   0  0  0  0  0  0  0  0  0  0  0  0
    0.0048   -2.1508    0.0337 H   0  0  0  0  0  0  0  0  0  0  0  0
  1 11  1  0  0  0  0
  2  1  1  0  0  0  0
  2  3  1  0  0  0  0
  3 14  1  0  0  0  0
  3 13  1  0  0  0  0
  3 12  1  0  0  0  0
  4  2  1  0  0  0  0
  4 17  1  0  0  0  0
  5  2  1  0  0  0  0
  6  5  2  0  0  0  0
  7  5  1  0  0  0  0
  7 18  1  0  0  0  0
  8  7  2  0  0  0  0
  9  1  1  0  0  0  0
 10  1  1  0  0  0  0
 15  4  1  0  0  0  0
 16  4  1  0  0  0  0
M  END
