20
title
C -0.66928893 2.0858643 0.5274886
C -0.65308625 0.54653084 0.53301716
C 0.055079322 0.040760074 1.8013624
C -2.1004755 0.025973475 0.47839347
C 0.14087044 0.08393947 -0.7318259
O 1.4304695 0.63584363 -0.75449103
C 0.23929535 -1.423742 -0.8615126
O 1.3087581 -1.9831479 -0.9359414
H 0.34689048 2.4852755 0.5162883
H -1.1962951 2.4722552 -0.3522157
H -1.1828318 2.4627855 1.4184119
H -0.43729144 0.43117905 2.6976664
H 0.041388433 -1.0532483 1.866218
H 1.0976685 0.36831063 1.8127841
H -2.590328 0.29769528 -0.46375728
H -2.1633234 -1.060735 0.59332776
H -2.6852908 0.46933624 1.2907989
H -0.4336668 0.42459396 -1.6146755
H 2.0346262 -0.11888226 -0.8425395
H -0.7092946 -1.9914072 -0.90749365
