title
 OpenBabel02282109573D

 20 19  0  0  1  0  0  0  0  0999 V2000
   -0.6693    2.0859    0.5275 C   0  0  0  0  0  0  0  0  0  0  0  0
   -0.6531    0.5465    0.5330 C   0  0  0  0  0  0  0  0  0  0  0  0
    0.0551    0.0408    1.8014 C   0  0  0  0  0  0  0  0  0  0  0  0
   -2.1005    0.0260    0.4784 C   0  0  0  0  0  0  0  0  0  0  0  0
    0.1409    0.0839   -0.7318 C   0  0  1  0  0  0  0  0  0  0  0  0
    1.4305    0.6358   -0.7545 O   0  0  0  0  0  0  0  0  0  0  0  0
    0.2393   -1.4237   -0.8615 C   0  0  0  0  0  0  0  0  0  0  0  0
    1.3088   -1.9831   -0.9359 O   0  0  0  0  0  0  0  0  0  0  0  0
    0.3469    2.4853    0.5163 H   0  0  0  0  0  0  0  0  0  0  0  0
   -1.1963    2.4723   -0.3522 H   0  0  0  0  0  0  0  0  0  0  0  0
   -1.1828    2.4628    1.4184 H   0  0  0  0  0  0  0  0  0  0  0  0
   -0.4373    0.4312    2.6977 H   0  0  0  0  0  0  0  0  0  0  0  0
    0.0414   -1.0532    1.8662 H   0  0  0  0  0  0  0  0  0  0  0  0
    1.0977    0.3683    1.8128 H   0  0  0  0  0  0  0  0  0  0  0  0
   -2.5903    0.2977   -0.4638 H   0  0  0  0  0  0  0  0  0  0  0  0
   -2.1633   -1.0607    0.5933 H   0  0  0  0  0  0  0  0  0  0  0  0
   -2.6853    0.4693    1.2908 H   0  0  0  0  0  0  0  0  0  0  0  0
   -0.4337    0.4246   -1.6147 H   0  0  0  0  0  0  0  0  0  0  0  0
    2.0346   -0.1189   -0.8425 H   0  0  0  0  0  0  0  0  0  0  0  0
   -0.7093   -1.9914   -0.9075 H   0  0  0  0  0  0  0  0  0  0  0  0
  1  2  1  0  0  0  0
  1 11  1  0  0  0  0
  2  3  1  0  0  0  0
  3 14  1  0  0  0  0
  3 13  1  0  0  0  0
  3 12  1  0  0  0  0
  4  2  1  0  0  0  0
  4 16  1  0  0  0  0
  4 17  1  0  0  0  0
  5 18  1  6  0  0  0
  5  2  1  0  0  0  0
  6  5  1  0  0  0  0
  7  5  1  0  0  0  0
  8  7  2  0  0  0  0
  9  1  1  0  0  0  0
 10  1  1  0  0  0  0
 15  4  1  0  0  0  0
 19  6  1  0  0  0  0
 20  7  1  0  0  0  0
M  END
