title
 OpenBabel02282109573D

 18 17  0  0  1  0  0  0  0  0999 V2000
   -0.6993    2.1046    0.4796 C   0  0  0  0  0  0  0  0  0  0  0  0
   -0.6198    0.5756    0.4998 C   0  0  0  0  0  0  0  0  0  0  0  0
   -0.0010    0.0706    1.8081 C   0  0  0  0  0  0  0  0  0  0  0  0
   -1.9146    0.0009    0.2891 O   0  0  0  0  0  0  0  0  0  0  0  0
    0.1976    0.0853   -0.7272 C   0  0  1  0  0  0  0  0  0  0  0  0
    1.5013    0.5958   -0.7066 O   0  0  0  0  0  0  0  0  0  0  0  0
    0.2323   -1.4296   -0.8124 C   0  0  0  0  0  0  0  0  0  0  0  0
    1.2839   -2.0245   -0.8733 O   0  0  0  0  0  0  0  0  0  0  0  0
    0.3006    2.5436    0.5125 H   0  0  0  0  0  0  0  0  0  0  0  0
   -1.2036    2.4460   -0.4289 H   0  0  0  0  0  0  0  0  0  0  0  0
   -1.2638    2.4687    1.3460 H   0  0  0  0  0  0  0  0  0  0  0  0
   -0.5438    0.4739    2.6700 H   0  0  0  0  0  0  0  0  0  0  0  0
   -0.0398   -1.0214    1.8640 H   0  0  0  0  0  0  0  0  0  0  0  0
    1.0420    0.3879    1.8826 H   0  0  0  0  0  0  0  0  0  0  0  0
   -2.4926    0.3032    0.9970 H   0  0  0  0  0  0  0  0  0  0  0  0
   -0.3492    0.4312   -1.6227 H   0  0  0  0  0  0  0  0  0  0  0  0
    2.0803   -0.1815   -0.7758 H   0  0  0  0  0  0  0  0  0  0  0  0
   -0.7416   -1.9477   -0.8257 H   0  0  0  0  0  0  0  0  0  0  0  0
  1  2  1  0  0  0  0
  1  9  1  0  0  0  0
  1 11  1  0  0  0  0
  2  3  1  0  0  0  0
  3 13  1  0  0  0  0
  3 14  1  0  0  0  0
  3 12  1  0  0  0  0
  4  2  1  0  0  0  0
  4 15  1  0  0  0  0
  5 16  1  6  0  0  0
  5  6  1  0  0  0  0
  5  2  1  0  0  0  0
  7  5  1  0  0  0  0
  8  7  2  0  0  0  0
 10  1  1  0  0  0  0
 17  6  1  0  0  0  0
 18  7  1  0  0  0  0
M  END
