18
title
C -0.69925076 2.1045609 0.47961786
C -0.6197878 0.57559586 0.49976504
C -0.0010476789 0.07060394 1.8081045
O -1.9145685 0.0009216971 0.2891313
C 0.19759272 0.08526394 -0.7271884
O 1.5012772 0.5957517 -0.70661944
C 0.2323377 -1.4295924 -0.81244
O 1.2839005 -2.024505 -0.87333804
H 0.30064845 2.5435982 0.51246256
H -1.2036037 2.4460113 -0.4289497
H -1.2638409 2.468732 1.3460367
H -0.54375976 0.47392833 2.6700153
H -0.03975285 -1.0213673 1.8640077
H 1.0419749 0.38789952 1.8825666
H -2.4926274 0.30323 0.9970033
H -0.34921417 0.4311748 -1.622719
H 2.0802772 -0.18148062 -0.77579826
H -0.7416242 -1.9477394 -0.8256838
