20
title
C -0.4691792 1.9387517 -0.600186
C -0.5266724 0.4173879 -0.37611723
C 0.007951489 -0.29184702 -1.6104445
O -0.66528475 -0.95816237 -2.3539405
C 0.21643256 -0.09261982 0.8961959
C 1.6387492 0.4582763 1.0336306
C -0.6005916 0.21628763 2.1576464
O 0.3874671 -1.5122888 0.7715391
H 0.5443253 2.2713945 -0.8455894
H -1.1249747 2.2277365 -1.4266244
H -0.7948976 2.4839194 0.29020643
H -1.577043 0.1107419 -0.29276398
H 1.089622 -0.12597825 -1.8156539
H 1.6329077 1.5374348 1.2038032
H 2.1265876 -0.022416221 1.885837
H 2.2389982 0.2470927 0.14511323
H -1.5977049 -0.2340777 2.0937338
H -0.09558005 -0.19673784 3.0354466
H -0.72897625 1.2922931 2.3101845
H -0.48152834 -1.9120393 0.65006435
