21
title
C 0.22896278 1.7901767 0.3741203
N 0.06777874 0.33961767 0.38197595
C -0.09184559 -0.2540753 1.6023945
O -0.076339774 0.3268232 2.6719623
C -0.014756329 -0.3801049 -0.915494
C 1.1312753 0.09983392 -1.8287625
C 0.12991974 -1.9022892 -0.737529
C -1.375303 -0.08870192 -1.5838192
H 1.2468239 2.0843523 0.097289614
H -0.47054124 2.2635775 -0.32118708
H 0.027098387 2.1428692 1.3848975
H -0.23785855 -1.3415054 1.5408173
H 2.1032627 -0.07364641 -1.3568116
H 1.1060332 -0.45128685 -2.7731776
H 1.049514 1.16301 -2.0665052
H -0.71782035 -2.3497143 -0.21256703
H 0.17349726 -2.3615043 -1.7291241
H 1.0491658 -2.1632082 -0.20523399
H -1.5142902 0.97874206 -1.7750242
H -1.4470848 -0.6073219 -2.5451622
H -2.1963153 -0.43104666 -0.94694656
