title
 OpenBabel02282109573D

 21 20  0  0  0  0  0  0  0  0999 V2000
    0.2290    1.7902    0.3741 C   0  0  0  0  0  0  0  0  0  0  0  0
    0.0678    0.3396    0.3820 N   0  0  0  0  0  0  0  0  0  0  0  0
   -0.0918   -0.2541    1.6024 C   0  0  0  0  0  0  0  0  0  0  0  0
   -0.0763    0.3268    2.6720 O   0  0  0  0  0  0  0  0  0  0  0  0
   -0.0148   -0.3801   -0.9155 C   0  0  0  0  0  0  0  0  0  0  0  0
    1.1313    0.0998   -1.8288 C   0  0  0  0  0  0  0  0  0  0  0  0
    0.1299   -1.9023   -0.7375 C   0  0  0  0  0  0  0  0  0  0  0  0
   -1.3753   -0.0887   -1.5838 C   0  0  0  0  0  0  0  0  0  0  0  0
    1.2468    2.0844    0.0973 H   0  0  0  0  0  0  0  0  0  0  0  0
   -0.4705    2.2636   -0.3212 H   0  0  0  0  0  0  0  0  0  0  0  0
    0.0271    2.1429    1.3849 H   0  0  0  0  0  0  0  0  0  0  0  0
   -0.2379   -1.3415    1.5408 H   0  0  0  0  0  0  0  0  0  0  0  0
    2.1033   -0.0736   -1.3568 H   0  0  0  0  0  0  0  0  0  0  0  0
    1.1060   -0.4513   -2.7732 H   0  0  0  0  0  0  0  0  0  0  0  0
    1.0495    1.1630   -2.0665 H   0  0  0  0  0  0  0  0  0  0  0  0
   -0.7178   -2.3497   -0.2126 H   0  0  0  0  0  0  0  0  0  0  0  0
    0.1735   -2.3615   -1.7291 H   0  0  0  0  0  0  0  0  0  0  0  0
    1.0492   -2.1632   -0.2052 H   0  0  0  0  0  0  0  0  0  0  0  0
   -1.5143    0.9787   -1.7750 H   0  0  0  0  0  0  0  0  0  0  0  0
   -1.4471   -0.6073   -2.5452 H   0  0  0  0  0  0  0  0  0  0  0  0
   -2.1963   -0.4310   -0.9469 H   0  0  0  0  0  0  0  0  0  0  0  0
  1  2  1  0  0  0  0
  1 11  1  0  0  0  0
  2  3  1  0  0  0  0
  3  4  2  0  0  0  0
  5  7  1  0  0  0  0
  5  2  1  0  0  0  0
  6 13  1  0  0  0  0
  6  5  1  0  0  0  0
  7 16  1  0  0  0  0
  7 18  1  0  0  0  0
  8 21  1  0  0  0  0
  8  5  1  0  0  0  0
  9  1  1  0  0  0  0
 10  1  1  0  0  0  0
 12  3  1  0  0  0  0
 14  6  1  0  0  0  0
 15  6  1  0  0  0  0
 17  7  1  0  0  0  0
 19  8  1  0  0  0  0
 20  8  1  0  0  0  0
M  END
