20
title
C -0.28625035 2.0469806 0.9413147
C -0.3976395 0.51653737 0.8525331
C 0.30088264 -0.13232996 2.0626466
C -1.8914087 0.10993551 0.83437353
C 0.20084244 0.050892163 -0.49322772
O 0.24572003 0.7781699 -1.4540526
C 0.7041778 -1.3915415 -0.58299875
O 0.9878436 -1.701092 -1.922799
H 0.7603753 2.3641696 0.9871216
H -0.73579895 2.5193017 0.066431575
H -0.7922065 2.410489 1.8416069
H -0.14576869 0.24257801 2.989521
H 0.19760829 -1.2215396 2.0728106
H 1.3683193 0.11084111 2.0907285
H -2.4086182 0.5669569 -0.014180725
H -2.0210173 -0.975321 0.76882905
H -2.3795478 0.44816643 1.7545422
H 1.5943403 -1.4709358 0.06405138
H -0.055399977 -2.061444 -0.14638686
H 1.3558371 -2.589084 -1.9485024
