18
title
C -0.08553977 1.8500856 1.1582267
C -0.30415642 0.34228486 0.9566331
C 0.29669225 -0.47202137 2.1131768
O -1.6897811 0.04669217 0.7923136
C 0.38137817 -0.08054607 -0.3468965
O 1.5788779 0.0537119 -0.49394473
C -0.44878837 -0.67595166 -1.4694322
O 0.35035783 -0.99386346 -2.57029
H 0.9814917 2.0836792 1.166751
H -0.5650577 2.4169018 0.35529658
H -0.5207295 2.167372 2.112446
H -0.13872263 -0.14833179 3.0651371
H 0.08500521 -1.5368235 1.9816747
H 1.3788208 -0.3301641 2.158441
H -2.1472726 0.30330843 1.5990843
H -0.9748112 -1.5589015 -1.0742897
H -1.2398003 0.043834068 -1.7305194
H 1.2518907 -0.74480367 -2.3111608
