title
 OpenBabel02282109573D

 20 19  0  0  0  0  0  0  0  0999 V2000
    1.3323    2.6216    0.1661 C   0  0  0  0  0  0  0  0  0  0  0  0
    1.2294    1.1113    0.3562 C   0  0  0  0  0  0  0  0  0  0  0  0
   -0.0896    0.5374   -0.1219 C   0  0  0  0  0  0  0  0  0  0  0  0
   -0.9632    1.2237   -0.6041 O   0  0  0  0  0  0  0  0  0  0  0  0
   -0.3180   -0.9840    0.0160 C   0  0  0  0  0  0  0  0  0  0  0  0
   -1.5390   -1.2112    0.9204 C   0  0  0  0  0  0  0  0  0  0  0  0
   -0.5449   -1.5692   -1.3863 C   0  0  0  0  0  0  0  0  0  0  0  0
    0.8567   -1.5383    0.6083 O   0  0  0  0  0  0  0  0  0  0  0  0
    2.2981    2.9894    0.5239 H   0  0  0  0  0  0  0  0  0  0  0  0
    1.2275    2.8927   -0.8878 H   0  0  0  0  0  0  0  0  0  0  0  0
    0.5403    3.1409    0.7121 H   0  0  0  0  0  0  0  0  0  0  0  0
    2.0325    0.5745   -0.1646 H   0  0  0  0  0  0  0  0  0  0  0  0
    1.3573    0.8182    1.4059 H   0  0  0  0  0  0  0  0  0  0  0  0
   -2.4107   -0.6886    0.5204 H   0  0  0  0  0  0  0  0  0  0  0  0
   -1.7697   -2.2809    0.9833 H   0  0  0  0  0  0  0  0  0  0  0  0
   -1.3401   -0.8431    1.9311 H   0  0  0  0  0  0  0  0  0  0  0  0
    0.3535   -1.4526   -1.9994 H   0  0  0  0  0  0  0  0  0  0  0  0
   -0.7775   -2.6382   -1.3172 H   0  0  0  0  0  0  0  0  0  0  0  0
   -1.3766   -1.0618   -1.8799 H   0  0  0  0  0  0  0  0  0  0  0  0
    0.7207   -2.4871    0.6966 H   0  0  0  0  0  0  0  0  0  0  0  0
  1  2  1  0  0  0  0
  1  9  1  0  0  0  0
  1 11  1  0  0  0  0
  2 13  1  0  0  0  0
  3  5  1  0  0  0  0
  3  2  1  0  0  0  0
  4  3  2  0  0  0  0
  5  8  1  0  0  0  0
  5  6  1  0  0  0  0
  6 15  1  0  0  0  0
  6 16  1  0  0  0  0
  7 18  1  0  0  0  0
  7  5  1  0  0  0  0
  8 20  1  0  0  0  0
 10  1  1  0  0  0  0
 12  2  1  0  0  0  0
 14  6  1  0  0  0  0
 17  7  1  0  0  0  0
 19  7  1  0  0  0  0
M  END
