title
 OpenBabel02282109573D

 20 19  0  0  0  0  0  0  0  0999 V2000
    1.1022    2.4731    0.0028 C   0  0  0  0  0  0  0  0  0  0  0  0
    1.0251    1.0436   -0.0044 O   0  0  0  0  0  0  0  0  0  0  0  0
   -0.2254    0.5297    0.0049 C   0  0  0  0  0  0  0  0  0  0  0  0
   -1.2142    1.2196    0.0184 O   0  0  0  0  0  0  0  0  0  0  0  0
   -0.2014   -1.0014   -0.0035 C   0  0  0  0  0  0  0  0  0  0  0  0
   -1.6471   -1.5172    0.0075 C   0  0  0  0  0  0  0  0  0  0  0  0
    0.5285   -1.4834   -1.2759 C   0  0  0  0  0  0  0  0  0  0  0  0
    0.5524   -1.4967    1.2497 C   0  0  0  0  0  0  0  0  0  0  0  0
    2.1655    2.7140   -0.0056 H   0  0  0  0  0  0  0  0  0  0  0  0
    0.6080    2.8914   -0.8779 H   0  0  0  0  0  0  0  0  0  0  0  0
    0.6242    2.8816    0.8970 H   0  0  0  0  0  0  0  0  0  0  0  0
   -2.1989   -1.1634   -0.8669 H   0  0  0  0  0  0  0  0  0  0  0  0
   -1.6508   -2.6118    0.0018 H   0  0  0  0  0  0  0  0  0  0  0  0
   -2.1822   -1.1726    0.8959 H   0  0  0  0  0  0  0  0  0  0  0  0
    1.5565   -1.1156   -1.3079 H   0  0  0  0  0  0  0  0  0  0  0  0
    0.5517   -2.5779   -1.2968 H   0  0  0  0  0  0  0  0  0  0  0  0
    0.0137   -1.1424   -2.1802 H   0  0  0  0  0  0  0  0  0  0  0  0
    0.0549   -1.1654    2.1671 H   0  0  0  0  0  0  0  0  0  0  0  0
    0.5760   -2.5914    1.2585 H   0  0  0  0  0  0  0  0  0  0  0  0
    1.5808   -1.1291    1.2661 H   0  0  0  0  0  0  0  0  0  0  0  0
  1 11  1  0  0  0  0
  2  1  1  0  0  0  0
  2  3  1  0  0  0  0
  3  4  2  0  0  0  0
  5  3  1  0  0  0  0
  5  6  1  0  0  0  0
  5  8  1  0  0  0  0
  6 14  1  0  0  0  0
  7  5  1  0  0  0  0
  8 19  1  0  0  0  0
  8 20  1  0  0  0  0
  8 18  1  0  0  0  0
  9  1  1  0  0  0  0
 10  1  1  0  0  0  0
 12  6  1  0  0  0  0
 13  6  1  0  0  0  0
 15  7  1  0  0  0  0
 16  7  1  0  0  0  0
 17  7  1  0  0  0  0
M  END
