title
 OpenBabel02282109573D

 18 17  0  0  0  0  0  0  0  0999 V2000
   -0.5884    2.4649    0.9957 C   0  0  0  0  0  0  0  0  0  0  0  0
   -0.5238    1.0365    0.9082 O   0  0  0  0  0  0  0  0  0  0  0  0
    0.1025    0.5559   -0.1907 C   0  0  0  0  0  0  0  0  0  0  0  0
    0.5779    1.2525   -1.0441 O   0  0  0  0  0  0  0  0  0  0  0  0
    0.1043   -0.9804   -0.1667 C   0  0  0  0  0  0  0  0  0  0  0  0
    0.8660   -1.4731    1.0766 C   0  0  0  0  0  0  0  0  0  0  0  0
   -1.3464   -1.4947   -0.1774 C   0  0  0  0  0  0  0  0  0  0  0  0
    0.7798   -1.3673   -1.3518 O   0  0  0  0  0  0  0  0  0  0  0  0
    0.4159    2.8956    1.0198 H   0  0  0  0  0  0  0  0  0  0  0  0
   -1.1257    2.8799    0.1392 H   0  0  0  0  0  0  0  0  0  0  0  0
   -1.1197    2.6826    1.9223 H   0  0  0  0  0  0  0  0  0  0  0  0
    0.4011   -1.1161    1.9978 H   0  0  0  0  0  0  0  0  0  0  0  0
    0.8699   -2.5691    1.0949 H   0  0  0  0  0  0  0  0  0  0  0  0
    1.9029   -1.1277    1.0437 H   0  0  0  0  0  0  0  0  0  0  0  0
   -1.8557   -1.1644   -1.0869 H   0  0  0  0  0  0  0  0  0  0  0  0
   -1.3480   -2.5907   -0.1620 H   0  0  0  0  0  0  0  0  0  0  0  0
   -1.9031   -1.1383    0.6917 H   0  0  0  0  0  0  0  0  0  0  0  0
    0.7968   -2.3298   -1.3669 H   0  0  0  0  0  0  0  0  0  0  0  0
  1  9  1  0  0  0  0
  1 11  1  0  0  0  0
  2  1  1  0  0  0  0
  3  5  1  0  0  0  0
  3  2  1  0  0  0  0
  4  3  2  0  0  0  0
  5  6  1  0  0  0  0
  6 13  1  0  0  0  0
  6 12  1  0  0  0  0
  7  5  1  0  0  0  0
  7 16  1  0  0  0  0
  7 17  1  0  0  0  0
  8  5  1  0  0  0  0
 10  1  1  0  0  0  0
 14  6  1  0  0  0  0
 15  7  1  0  0  0  0
 18  8  1  0  0  0  0
M  END
