22
title
C -0.5419014 2.148088 0.58096385
C -0.5505944 0.6122336 0.7075809
C 0.18335073 0.21025328 2.002638
C -2.009529 0.12210717 0.77369356
C 0.14014177 0.022597272 -0.551167
O 1.5005139 0.4628714 -0.68766606
C 0.12023913 -1.5046223 -0.7003248
O 0.799968 -1.888846 -1.8778234
H 0.4764049 2.5247996 0.45720267
H -1.1257293 2.4724214 -0.2875037
H -0.9793084 2.6129293 1.470872
H -0.31836277 0.65000635 2.870568
H 0.20374595 -0.87378216 2.1510794
H 1.2161522 0.5782185 2.0197918
H -2.5380309 0.32239738 -0.16494825
H -2.0779676 -0.9506632 0.9780911
H -2.547136 0.6430647 1.572958
H -0.3573205 0.43941715 -1.4355369
H 1.9844342 0.16658767 0.09208098
H 0.572701 -1.9762224 0.19010806
H -0.9051936 -1.8763434 -0.78189373
H 1.557665 -1.2917906 -1.9367371
