title
 OpenBabel02282109573D

 20 19  0  0  1  0  0  0  0  0999 V2000
   -0.2560    1.8733    1.0557 C   0  0  0  0  0  0  0  0  0  0  0  0
   -0.1436    0.3501    0.9905 C   0  0  0  0  0  0  0  0  0  0  0  0
    0.6262   -0.1854    2.2088 C   0  0  0  0  0  0  0  0  0  0  0  0
   -1.4767   -0.1596    0.9955 O   0  0  0  0  0  0  0  0  0  0  0  0
    0.5498   -0.1317   -0.3068 C   0  0  1  0  0  0  0  0  0  0  0  0
    0.4255   -1.5507   -0.3189 O   0  0  0  0  0  0  0  0  0  0  0  0
   -0.0823    0.4286   -1.5820 C   0  0  0  0  0  0  0  0  0  0  0  0
    0.4550   -0.3355   -2.6649 O   0  0  0  0  0  0  0  0  0  0  0  0
    0.7269    2.3452    0.9598 H   0  0  0  0  0  0  0  0  0  0  0  0
   -0.9111    2.2568    0.2696 H   0  0  0  0  0  0  0  0  0  0  0  0
   -0.6843    2.1685    2.0177 H   0  0  0  0  0  0  0  0  0  0  0  0
    0.0766    0.0569    3.1225 H   0  0  0  0  0  0  0  0  0  0  0  0
    0.7396   -1.2702    2.1437 H   0  0  0  0  0  0  0  0  0  0  0  0
    1.6256    0.2582    2.2746 H   0  0  0  0  0  0  0  0  0  0  0  0
   -1.3882   -1.0906    0.7492 H   0  0  0  0  0  0  0  0  0  0  0  0
    1.6141    0.1520   -0.2812 H   0  0  0  0  0  0  0  0  0  0  0  0
    0.5227   -1.8059   -1.2465 H   0  0  0  0  0  0  0  0  0  0  0  0
   -1.1715    0.3156   -1.5163 H   0  0  0  0  0  0  0  0  0  0  0  0
    0.1597    1.4923   -1.7011 H   0  0  0  0  0  0  0  0  0  0  0  0
   -0.1175   -0.2287   -3.4290 H   0  0  0  0  0  0  0  0  0  0  0  0
  1 11  1  0  0  0  0
  2  4  1  0  0  0  0
  2  1  1  0  0  0  0
  2  3  1  0  0  0  0
  3 14  1  0  0  0  0
  3 12  1  0  0  0  0
  5 16  1  1  0  0  0
  5  2  1  0  0  0  0
  6  5  1  0  0  0  0
  7 18  1  0  0  0  0
  7  5  1  0  0  0  0
  8  7  1  0  0  0  0
  9  1  1  0  0  0  0
 10  1  1  0  0  0  0
 13  3  1  0  0  0  0
 15  4  1  0  0  0  0
 17  6  1  0  0  0  0
 19  7  1  0  0  0  0
 20  8  1  0  0  0  0
M  END
