24
title
C -0.7294255 1.7327043 -0.30747518
C -0.47430256 0.21545234 -0.30017433
C 0.23380844 -0.17634481 -1.6045876
O -0.67615265 0.05801748 -2.6751382
C 0.24432664 -0.31892213 0.9819777
C -0.45962092 0.22766998 2.2404785
C 0.15139882 -1.8588209 1.0331548
C 1.7292256 0.09346676 1.0258706
H 0.19671129 2.3012624 -0.16318876
H -1.1497854 2.0205433 -1.273725
H -1.4340454 2.0364256 0.47004384
H -1.4545238 -0.28029564 -0.33825615
H 1.1459844 0.42756027 -1.7312229
H 0.5372278 -1.2323296 -1.5874759
H -0.20698993 -0.08271375 -3.5022352
H -1.533237 0.0083117075 2.2224667
H -0.041097783 -0.2366235 3.1400719
H -0.33889312 1.3093852 2.342991
H 0.67071766 -2.33898 0.19903672
H 0.6031365 -2.2379048 1.9563721
H -0.89235073 -2.1913235 1.0133681
H 1.8527844 1.1795837 0.97048604
H 2.188443 -0.24060285 1.9627684
H 2.3015428 -0.3527715 0.206233
