title
 OpenBabel02282109573D

 24 23  0  0  1  0  0  0  0  0999 V2000
   -0.7294    1.7327   -0.3075 C   0  0  0  0  0  0  0  0  0  0  0  0
   -0.4743    0.2155   -0.3002 C   0  0  1  0  0  0  0  0  0  0  0  0
    0.2338   -0.1763   -1.6046 C   0  0  0  0  0  0  0  0  0  0  0  0
   -0.6762    0.0580   -2.6751 O   0  0  0  0  0  0  0  0  0  0  0  0
    0.2443   -0.3189    0.9820 C   0  0  0  0  0  0  0  0  0  0  0  0
   -0.4596    0.2277    2.2405 C   0  0  0  0  0  0  0  0  0  0  0  0
    0.1514   -1.8588    1.0332 C   0  0  0  0  0  0  0  0  0  0  0  0
    1.7292    0.0935    1.0259 C   0  0  0  0  0  0  0  0  0  0  0  0
    0.1967    2.3013   -0.1632 H   0  0  0  0  0  0  0  0  0  0  0  0
   -1.1498    2.0205   -1.2737 H   0  0  0  0  0  0  0  0  0  0  0  0
   -1.4340    2.0364    0.4700 H   0  0  0  0  0  0  0  0  0  0  0  0
   -1.4545   -0.2803   -0.3383 H   0  0  0  0  0  0  0  0  0  0  0  0
    1.1460    0.4276   -1.7312 H   0  0  0  0  0  0  0  0  0  0  0  0
    0.5372   -1.2323   -1.5875 H   0  0  0  0  0  0  0  0  0  0  0  0
   -0.2070   -0.0827   -3.5022 H   0  0  0  0  0  0  0  0  0  0  0  0
   -1.5332    0.0083    2.2225 H   0  0  0  0  0  0  0  0  0  0  0  0
   -0.0411   -0.2366    3.1401 H   0  0  0  0  0  0  0  0  0  0  0  0
   -0.3389    1.3094    2.3430 H   0  0  0  0  0  0  0  0  0  0  0  0
    0.6707   -2.3390    0.1990 H   0  0  0  0  0  0  0  0  0  0  0  0
    0.6031   -2.2379    1.9564 H   0  0  0  0  0  0  0  0  0  0  0  0
   -0.8924   -2.1913    1.0134 H   0  0  0  0  0  0  0  0  0  0  0  0
    1.8528    1.1796    0.9705 H   0  0  0  0  0  0  0  0  0  0  0  0
    2.1884   -0.2406    1.9628 H   0  0  0  0  0  0  0  0  0  0  0  0
    2.3015   -0.3528    0.2062 H   0  0  0  0  0  0  0  0  0  0  0  0
  1  2  1  0  0  0  0
  1  9  1  0  0  0  0
  1 11  1  0  0  0  0
  2 12  1  6  0  0  0
  2  5  1  0  0  0  0
  3 14  1  0  0  0  0
  3  2  1  0  0  0  0
  4  3  1  0  0  0  0
  5  8  1  0  0  0  0
  5  7  1  0  0  0  0
  5  6  1  0  0  0  0
  6 18  1  0  0  0  0
  6 17  1  0  0  0  0
  7 20  1  0  0  0  0
  8 23  1  0  0  0  0
 10  1  1  0  0  0  0
 13  3  1  0  0  0  0
 15  4  1  0  0  0  0
 16  6  1  0  0  0  0
 19  7  1  0  0  0  0
 21  7  1  0  0  0  0
 22  8  1  0  0  0  0
 24  8  1  0  0  0  0
M  END
