22
title
C 0.5592772 1.739869 -0.432665
C 0.5061449 0.21641207 -0.2449833
C 1.3203388 -0.19701885 0.98525137
O 2.6722531 0.17911181 0.7496391
C -0.9405064 -0.34964865 -0.24818684
C -0.94385356 -1.8875332 -0.27762094
C -1.7967709 0.1605812 0.9218914
O -1.4949144 0.12530449 -1.4841624
H 1.5986838 2.0583842 -0.53268445
H 0.004140935 2.0394242 -1.3222448
H 0.13656954 2.267214 0.43018618
H 1.0012816 -0.24118812 -1.1112124
H 0.9269293 0.3065694 1.8829427
H 1.2502127 -1.2808913 1.1558392
H 3.178478 -0.01348787 1.5437527
H -0.5831097 -2.327472 0.65645885
H -1.9656292 -2.2546003 -0.43284807
H -0.32409248 -2.2559228 -1.1002314
H -1.8634428 1.250684 0.912633
H -2.814476 -0.24018724 0.8427443
H -1.3983822 -0.1570573 1.890594
H -2.398706 -0.20186861 -1.5424588
