title
 OpenBabel02282109573D

 22 21  0  0  1  0  0  0  0  0999 V2000
    0.5593    1.7399   -0.4327 C   0  0  0  0  0  0  0  0  0  0  0  0
    0.5061    0.2164   -0.2450 C   0  0  1  0  0  0  0  0  0  0  0  0
    1.3203   -0.1970    0.9853 C   0  0  0  0  0  0  0  0  0  0  0  0
    2.6723    0.1791    0.7496 O   0  0  0  0  0  0  0  0  0  0  0  0
   -0.9405   -0.3496   -0.2482 C   0  0  0  0  0  0  0  0  0  0  0  0
   -0.9439   -1.8875   -0.2776 C   0  0  0  0  0  0  0  0  0  0  0  0
   -1.7968    0.1606    0.9219 C   0  0  0  0  0  0  0  0  0  0  0  0
   -1.4949    0.1253   -1.4842 O   0  0  0  0  0  0  0  0  0  0  0  0
    1.5987    2.0584   -0.5327 H   0  0  0  0  0  0  0  0  0  0  0  0
    0.0041    2.0394   -1.3222 H   0  0  0  0  0  0  0  0  0  0  0  0
    0.1366    2.2672    0.4302 H   0  0  0  0  0  0  0  0  0  0  0  0
    1.0013   -0.2412   -1.1112 H   0  0  0  0  0  0  0  0  0  0  0  0
    0.9269    0.3066    1.8829 H   0  0  0  0  0  0  0  0  0  0  0  0
    1.2502   -1.2809    1.1558 H   0  0  0  0  0  0  0  0  0  0  0  0
    3.1785   -0.0135    1.5438 H   0  0  0  0  0  0  0  0  0  0  0  0
   -0.5831   -2.3275    0.6565 H   0  0  0  0  0  0  0  0  0  0  0  0
   -1.9656   -2.2546   -0.4328 H   0  0  0  0  0  0  0  0  0  0  0  0
   -0.3241   -2.2559   -1.1002 H   0  0  0  0  0  0  0  0  0  0  0  0
   -1.8634    1.2507    0.9126 H   0  0  0  0  0  0  0  0  0  0  0  0
   -2.8145   -0.2402    0.8427 H   0  0  0  0  0  0  0  0  0  0  0  0
   -1.3984   -0.1571    1.8906 H   0  0  0  0  0  0  0  0  0  0  0  0
   -2.3987   -0.2019   -1.5425 H   0  0  0  0  0  0  0  0  0  0  0  0
  1  2  1  0  0  0  0
  1 11  1  0  0  0  0
  2 12  1  6  0  0  0
  2  3  1  0  0  0  0
  3 14  1  0  0  0  0
  3 13  1  0  0  0  0
  4  3  1  0  0  0  0
  4 15  1  0  0  0  0
  5  2  1  0  0  0  0
  5  7  1  0  0  0  0
  6  5  1  0  0  0  0
  6 16  1  0  0  0  0
  7 21  1  0  0  0  0
  8  5  1  0  0  0  0
  9  1  1  0  0  0  0
 10  1  1  0  0  0  0
 17  6  1  0  0  0  0
 18  6  1  0  0  0  0
 19  7  1  0  0  0  0
 20  7  1  0  0  0  0
 22  8  1  0  0  0  0
M  END
