24
title
C 1.1699327 2.691796 0.3248775
C 1.1429828 1.1946394 -0.002264549
C -0.27630407 0.5921045 -0.063627094
C -1.0160557 1.0232931 -1.3396422
C -0.26698238 -0.95148945 0.16403326
C -1.6933633 -1.5227985 0.19858551
C 0.57968783 -1.7081265 -0.863961
O 0.36392015 -1.229835 1.4250685
H 2.198834 3.0623698 0.37348568
H 0.6433029 3.2909431 -0.4252107
H 0.70098215 2.8916435 1.295319
H 1.6524308 1.0256842 -0.95975655
H 1.7131884 0.6517138 0.7572282
H -0.83832866 1.0002241 0.7932849
H -0.5396758 0.60807246 -2.2344418
H -2.0630438 0.7092098 -1.3389261
H -1.0063707 2.1123319 -1.442266
H -2.1763356 -1.4959514 -0.7818209
H -1.6571604 -2.5632915 0.53334564
H -2.3250737 -0.9608991 0.8978917
H 1.6183054 -1.3710151 -0.8400855
H 0.56855804 -2.7769237 -0.632761
H 0.19126518 -1.5731716 -1.8767483
H -0.16616873 -0.812734 2.113322
