title
 OpenBabel02282109573D

 24 23  0  0  1  0  0  0  0  0999 V2000
   -0.5216    2.7214   -0.9998 C   0  0  0  0  0  0  0  0  0  0  0  0
   -0.5210    1.1905   -1.0660 C   0  0  0  0  0  0  0  0  0  0  0  0
    0.1556    0.5480    0.1539 C   0  0  1  0  0  0  0  0  0  0  0  0
   -0.4971    0.9618    1.3572 O   0  0  0  0  0  0  0  0  0  0  0  0
    0.3234   -1.0018    0.1031 C   0  0  0  0  0  0  0  0  0  0  0  0
    1.1378   -1.4090   -1.1392 C   0  0  0  0  0  0  0  0  0  0  0  0
    1.0973   -1.4342    1.3639 C   0  0  0  0  0  0  0  0  0  0  0  0
   -1.0422   -1.7136    0.0810 C   0  0  0  0  0  0  0  0  0  0  0  0
    0.5010    3.1145   -1.0116 H   0  0  0  0  0  0  0  0  0  0  0  0
   -1.0553    3.1537   -1.8516 H   0  0  0  0  0  0  0  0  0  0  0  0
   -0.9970    3.0707   -0.0798 H   0  0  0  0  0  0  0  0  0  0  0  0
   -1.5551    0.8255   -1.1391 H   0  0  0  0  0  0  0  0  0  0  0  0
   -0.0173    0.8645   -1.9816 H   0  0  0  0  0  0  0  0  0  0  0  0
    1.1658    0.9714    0.2430 H   0  0  0  0  0  0  0  0  0  0  0  0
   -1.4319    0.7451    1.2723 H   0  0  0  0  0  0  0  0  0  0  0  0
    2.0746   -0.8430   -1.2027 H   0  0  0  0  0  0  0  0  0  0  0  0
    1.3991   -2.4715   -1.0895 H   0  0  0  0  0  0  0  0  0  0  0  0
    0.5853   -1.2525   -2.0703 H   0  0  0  0  0  0  0  0  0  0  0  0
    0.5846   -1.1012    2.2688 H   0  0  0  0  0  0  0  0  0  0  0  0
    1.2022   -2.5239    1.4002 H   0  0  0  0  0  0  0  0  0  0  0  0
    2.1044   -1.0017    1.3721 H   0  0  0  0  0  0  0  0  0  0  0  0
   -1.6242   -1.4642   -0.8119 H   0  0  0  0  0  0  0  0  0  0  0  0
   -0.9057   -2.8000    0.0884 H   0  0  0  0  0  0  0  0  0  0  0  0
   -1.6404   -1.4609    0.9633 H   0  0  0  0  0  0  0  0  0  0  0  0
  1 11  1  0  0  0  0
  2  1  1  0  0  0  0
  2  3  1  0  0  0  0
  3 14  1  1  0  0  0
  3  4  1  0  0  0  0
  5  3  1  0  0  0  0
  5  7  1  0  0  0  0
  6 17  1  0  0  0  0
  6  5  1  0  0  0  0
  7 21  1  0  0  0  0
  7 20  1  0  0  0  0
  7 19  1  0  0  0  0
  8 23  1  0  0  0  0
  8  5  1  0  0  0  0
  8 24  1  0  0  0  0
  9  1  1  0  0  0  0
 10  1  1  0  0  0  0
 12  2  1  0  0  0  0
 13  2  1  0  0  0  0
 15  4  1  0  0  0  0
 16  6  1  0  0  0  0
 18  6  1  0  0  0  0
 22  8  1  0  0  0  0
M  END
