22
title
C 1.1113522 2.7233307 0.19416697
C 1.1541007 1.1961178 0.09305979
C -0.24125277 0.56980664 0.0067922827
O -0.9273845 0.97040546 -1.1790953
C -0.25861034 -0.97842145 0.18116485
C -1.7071663 -1.4797969 0.18020107
C 0.56242025 -1.6944718 -0.89346886
O 0.3740318 -1.3080938 1.424603
H 2.1190543 3.1495774 0.1867589
H 0.55053186 3.1538038 -0.6405318
H 0.6213698 3.0431468 1.1206349
H 1.731606 0.90330225 -0.7954646
H 1.6737651 0.7636292 0.95316666
H -0.85340774 0.9797535 0.824352
H -0.3322979 0.82318825 -1.922084
H -2.2090914 -1.2208171 -0.75434774
H -1.733756 -2.5644112 0.3184635
H -2.275266 -1.0155189 0.9964393
H 1.6187071 -1.4229245 -0.8268597
H 0.48570845 -2.776838 -0.7605521
H 0.19511284 -1.4508471 -1.8950989
H -0.20698284 -1.0156431 2.1353514
