24
title
C 1.0019492 2.4960742 -0.32358783
O 0.9682391 1.092833 -0.23518099
C -0.3352495 0.5136242 -0.26492387
C -0.8694775 0.46815166 -1.700783
C -0.23765478 -0.8613099 0.45348555
C 0.20280692 -0.6116984 1.9094007
C -1.6156415 -1.5477351 0.4650231
C 0.7942062 -1.7715901 -0.23770191
H 2.0442677 2.8017776 -0.19912799
H 0.64666003 2.8722608 -1.2944344
H 0.39862928 2.968471 0.46788138
H -1.0131558 1.1449666 0.3363893
H -0.24092409 -0.16158256 -2.33619
H -1.8934647 0.087441 -1.7337718
H -0.8846741 1.4718221 -2.1354907
H -0.5333588 -0.0001140548 2.4444487
H 0.30199298 -1.5593652 2.4491796
H 1.1625689 -0.09221801 1.9420714
H -1.9362394 -1.848981 -0.53641725
H -1.580216 -2.4513094 1.082791
H -2.3871598 -0.89175737 0.885155
H 1.7691666 -1.2816666 -0.29204005
H 0.90916514 -2.7062507 0.3216936
H 0.48825207 -2.0360084 -1.2549185
