title
 OpenBabel02282109573D

 24 23  0  0  1  0  0  0  0  0999 V2000
    1.0019    2.4961   -0.3236 C   0  0  0  0  0  0  0  0  0  0  0  0
    0.9682    1.0928   -0.2352 O   0  0  0  0  0  0  0  0  0  0  0  0
   -0.3352    0.5136   -0.2649 C   0  0  1  0  0  0  0  0  0  0  0  0
   -0.8695    0.4682   -1.7008 C   0  0  0  0  0  0  0  0  0  0  0  0
   -0.2377   -0.8613    0.4535 C   0  0  0  0  0  0  0  0  0  0  0  0
    0.2028   -0.6117    1.9094 C   0  0  0  0  0  0  0  0  0  0  0  0
   -1.6156   -1.5477    0.4650 C   0  0  0  0  0  0  0  0  0  0  0  0
    0.7942   -1.7716   -0.2377 C   0  0  0  0  0  0  0  0  0  0  0  0
    2.0443    2.8018   -0.1991 H   0  0  0  0  0  0  0  0  0  0  0  0
    0.6467    2.8723   -1.2944 H   0  0  0  0  0  0  0  0  0  0  0  0
    0.3986    2.9685    0.4679 H   0  0  0  0  0  0  0  0  0  0  0  0
   -1.0132    1.1450    0.3364 H   0  0  0  0  0  0  0  0  0  0  0  0
   -0.2409   -0.1616   -2.3362 H   0  0  0  0  0  0  0  0  0  0  0  0
   -1.8935    0.0874   -1.7338 H   0  0  0  0  0  0  0  0  0  0  0  0
   -0.8847    1.4718   -2.1355 H   0  0  0  0  0  0  0  0  0  0  0  0
   -0.5334   -0.0001    2.4444 H   0  0  0  0  0  0  0  0  0  0  0  0
    0.3020   -1.5594    2.4492 H   0  0  0  0  0  0  0  0  0  0  0  0
    1.1626   -0.0922    1.9421 H   0  0  0  0  0  0  0  0  0  0  0  0
   -1.9362   -1.8490   -0.5364 H   0  0  0  0  0  0  0  0  0  0  0  0
   -1.5802   -2.4513    1.0828 H   0  0  0  0  0  0  0  0  0  0  0  0
   -2.3872   -0.8918    0.8852 H   0  0  0  0  0  0  0  0  0  0  0  0
    1.7692   -1.2817   -0.2920 H   0  0  0  0  0  0  0  0  0  0  0  0
    0.9092   -2.7063    0.3217 H   0  0  0  0  0  0  0  0  0  0  0  0
    0.4883   -2.0360   -1.2549 H   0  0  0  0  0  0  0  0  0  0  0  0
  1  2  1  0  0  0  0
  1  9  1  0  0  0  0
  1 11  1  0  0  0  0
  3  2  1  0  0  0  0
  3 12  1  1  0  0  0
  3  5  1  0  0  0  0
  4  3  1  0  0  0  0
  5  7  1  0  0  0  0
  5  6  1  0  0  0  0
  6 18  1  0  0  0  0
  6 16  1  0  0  0  0
  6 17  1  0  0  0  0
  7 21  1  0  0  0  0
  7 20  1  0  0  0  0
  8 23  1  0  0  0  0
  8  5  1  0  0  0  0
 10  1  1  0  0  0  0
 13  4  1  0  0  0  0
 14  4  1  0  0  0  0
 15  4  1  0  0  0  0
 19  7  1  0  0  0  0
 22  8  1  0  0  0  0
 24  8  1  0  0  0  0
M  END
