22
title
C 1.0330058 2.5130227 -0.37315366
O 0.98940754 1.1128172 -0.23098168
C -0.31513768 0.5435994 -0.24724391
C -0.8923982 0.49057674 -1.6648264
C -0.20922764 -0.8429428 0.4496488
C 0.81535614 -1.7516673 -0.23810849
C 0.14541094 -0.6429592 1.9244523
O -1.5054281 -1.4532394 0.44954485
H 2.073727 2.818186 -0.23605375
H 0.70237994 2.8497167 -1.3665242
H 0.41332304 3.0174372 0.38462824
H -0.9871213 1.1562005 0.37616014
H -1.8847194 0.03172702 -1.6551408
H -1.0081537 1.497204 -2.076038
H -0.24120422 -0.07200735 -2.340465
H 1.7989115 -1.2776527 -0.25960103
H 0.8873891 -2.7019496 0.29862958
H 0.52779424 -1.9682422 -1.27357
H -0.6551872 -0.093486 2.4291766
H 0.25830203 -1.6100674 2.4219325
H 1.0745105 -0.07797759 2.019364
H -1.645119 -1.8553438 -0.41334808
