title
 OpenBabel02282109573D

 22 21  0  0  1  0  0  0  0  0999 V2000
    1.0330    2.5130   -0.3732 C   0  0  0  0  0  0  0  0  0  0  0  0
    0.9894    1.1128   -0.2310 O   0  0  0  0  0  0  0  0  0  0  0  0
   -0.3151    0.5436   -0.2472 C   0  0  1  0  0  0  0  0  0  0  0  0
   -0.8924    0.4906   -1.6648 C   0  0  0  0  0  0  0  0  0  0  0  0
   -0.2092   -0.8429    0.4496 C   0  0  0  0  0  0  0  0  0  0  0  0
    0.8154   -1.7517   -0.2381 C   0  0  0  0  0  0  0  0  0  0  0  0
    0.1454   -0.6430    1.9245 C   0  0  0  0  0  0  0  0  0  0  0  0
   -1.5054   -1.4532    0.4495 O   0  0  0  0  0  0  0  0  0  0  0  0
    2.0737    2.8182   -0.2361 H   0  0  0  0  0  0  0  0  0  0  0  0
    0.7024    2.8497   -1.3665 H   0  0  0  0  0  0  0  0  0  0  0  0
    0.4133    3.0174    0.3846 H   0  0  0  0  0  0  0  0  0  0  0  0
   -0.9871    1.1562    0.3762 H   0  0  0  0  0  0  0  0  0  0  0  0
   -1.8847    0.0317   -1.6551 H   0  0  0  0  0  0  0  0  0  0  0  0
   -1.0082    1.4972   -2.0760 H   0  0  0  0  0  0  0  0  0  0  0  0
   -0.2412   -0.0720   -2.3405 H   0  0  0  0  0  0  0  0  0  0  0  0
    1.7989   -1.2777   -0.2596 H   0  0  0  0  0  0  0  0  0  0  0  0
    0.8874   -2.7019    0.2986 H   0  0  0  0  0  0  0  0  0  0  0  0
    0.5278   -1.9682   -1.2736 H   0  0  0  0  0  0  0  0  0  0  0  0
   -0.6552   -0.0935    2.4292 H   0  0  0  0  0  0  0  0  0  0  0  0
    0.2583   -1.6101    2.4219 H   0  0  0  0  0  0  0  0  0  0  0  0
    1.0745   -0.0780    2.0194 H   0  0  0  0  0  0  0  0  0  0  0  0
   -1.6451   -1.8553   -0.4133 H   0  0  0  0  0  0  0  0  0  0  0  0
  1  9  1  0  0  0  0
  1  2  1  0  0  0  0
  1 11  1  0  0  0  0
  3  2  1  0  0  0  0
  3 12  1  1  0  0  0
  3  5  1  0  0  0  0
  4 13  1  0  0  0  0
  4  3  1  0  0  0  0
  5  7  1  0  0  0  0
  6 17  1  0  0  0  0
  6  5  1  0  0  0  0
  7 21  1  0  0  0  0
  7 20  1  0  0  0  0
  7 19  1  0  0  0  0
  8  5  1  0  0  0  0
 10  1  1  0  0  0  0
 14  4  1  0  0  0  0
 15  4  1  0  0  0  0
 16  6  1  0  0  0  0
 18  6  1  0  0  0  0
 22  8  1  0  0  0  0
M  END
