22
title
C 1.0266019 3.5148182 0.009110039
C 0.9737787 2.0591311 0.0017512827
C 0.9421633 0.8546697 -0.004376618
C 0.89847904 -0.6042012 -0.011772918
C -0.5321813 -1.2203492 -0.0014832172
C -1.3055415 -0.76704824 -1.250736
C -0.38770515 -2.751638 -0.011062284
C -1.2816248 -0.78054464 1.2670212
H 2.0616372 3.8747747 0.0009355389
H 0.52407134 3.9386013 -0.8676068
H 0.5413505 3.9290764 0.90000135
H 1.4325762 -0.97794235 -0.89603865
H 1.4492463 -0.9873344 0.8581319
H -0.79701024 -1.0866479 -2.1675274
H -2.3129115 -1.196891 -1.2609218
H -1.3988628 0.3223436 -1.2810724
H 0.16323447 -3.105517 0.8676441
H -1.3705227 -3.2347627 -0.004321357
H 0.14641827 -3.096024 -0.9038108
H -1.3742502 0.30844915 1.3107992
H -2.288659 -1.2105843 1.2917314
H -0.75579995 -1.1098961 2.1705086
