title
 OpenBabel02282109573D

 18 17  0  0  0  0  0  0  0  0999 V2000
   -0.6499    1.9822    1.1137 C   0  0  0  0  0  0  0  0  0  0  0  0
   -0.6322    0.4356    1.1112 C   0  0  0  0  0  0  0  0  0  0  0  0
    0.1201   -0.0798    2.3605 C   0  0  0  0  0  0  0  0  0  0  0  0
   -2.0822   -0.1029    1.1166 C   0  0  0  0  0  0  0  0  0  0  0  0
    0.0532   -0.0369   -0.0937 C   0  0  0  0  0  0  0  0  0  0  0  0
    0.6201   -0.4275   -1.0901 C   0  0  0  0  0  0  0  0  0  0  0  0
    1.2573   -0.8661   -2.2099 C   0  0  0  0  0  0  0  0  0  0  0  0
    1.8228   -1.2555   -3.2035 C   0  0  0  0  0  0  0  0  0  0  0  0
    0.3665    2.3853    1.1074 H   0  0  0  0  0  0  0  0  0  0  0  0
   -1.1758    2.3690    0.2366 H   0  0  0  0  0  0  0  0  0  0  0  0
   -1.1605    2.3463    2.0114 H   0  0  0  0  0  0  0  0  0  0  0  0
   -0.3845    0.2686    3.2679 H   0  0  0  0  0  0  0  0  0  0  0  0
    0.1466   -1.1728    2.3783 H   0  0  0  0  0  0  0  0  0  0  0  0
    1.1502    0.2867    2.3760 H   0  0  0  0  0  0  0  0  0  0  0  0
   -2.6334    0.2478    0.2398 H   0  0  0  0  0  0  0  0  0  0  0  0
   -2.0935   -1.1962    1.1121 H   0  0  0  0  0  0  0  0  0  0  0  0
   -2.6039    0.2445    2.0146 H   0  0  0  0  0  0  0  0  0  0  0  0
    2.3199   -1.5976   -4.0768 H   0  0  0  0  0  0  0  0  0  0  0  0
  1 11  1  0  0  0  0
  2  1  1  0  0  0  0
  2  4  1  0  0  0  0
  2  3  1  0  0  0  0
  3 14  1  0  0  0  0
  3 13  1  0  0  0  0
  3 12  1  0  0  0  0
  4 17  1  0  0  0  0
  5  2  1  0  0  0  0
  6  5  3  0  0  0  0
  7  6  1  0  0  0  0
  8  7  3  0  0  0  0
  9  1  1  0  0  0  0
 10  1  1  0  0  0  0
 15  4  1  0  0  0  0
 16  4  1  0  0  0  0
 18  8  1  0  0  0  0
M  END
