17
title
C -0.6572302 1.9894987 1.1268
C -0.64222956 0.4425363 1.1294584
C 0.11403232 -0.07554396 2.3756518
C -2.0914528 -0.09904506 1.1287292
C 0.042928983 -0.02923345 -0.07409188
C 0.60870665 -0.41914162 -1.0692561
C 1.2471336 -0.85920507 -2.1926656
N 1.790491 -1.2338594 -3.1490927
H 0.35904187 2.39239 1.123056
H -1.1830698 2.3762908 0.2498506
H -1.1691514 2.3513982 2.0241106
H -0.39259547 0.272983 3.28121
H 0.14029507 -1.1683031 2.3935125
H 1.1431621 0.29290596 2.3922954
H -2.6419463 0.25188366 0.25182799
H -2.102706 -1.1922029 1.1263111
H -2.6122732 0.24986526 2.0260406
