title
 OpenBabel02282109573D

 15 14  0  0  0  0  0  0  0  0999 V2000
   -0.6500    1.9810    1.0958 C   0  0  0  0  0  0  0  0  0  0  0  0
   -0.6254    0.4397    1.1140 C   0  0  0  0  0  0  0  0  0  0  0  0
    0.1254   -0.0942    2.3501 C   0  0  0  0  0  0  0  0  0  0  0  0
   -1.9547   -0.0822    1.0722 O   0  0  0  0  0  0  0  0  0  0  0  0
    0.0332   -0.0503   -0.1037 C   0  0  0  0  0  0  0  0  0  0  0  0
    0.6152   -0.4297   -1.0911 C   0  0  0  0  0  0  0  0  0  0  0  0
    1.2678   -0.8622   -2.2101 C   0  0  0  0  0  0  0  0  0  0  0  0
    1.8266   -1.2279   -3.1606 N   0  0  0  0  0  0  0  0  0  0  0  0
    0.3613    2.3947    1.0586 H   0  0  0  0  0  0  0  0  0  0  0  0
   -1.2120    2.3367    0.2299 H   0  0  0  0  0  0  0  0  0  0  0  0
   -1.1361    2.3467    2.0070 H   0  0  0  0  0  0  0  0  0  0  0  0
   -0.3625    0.2761    3.2586 H   0  0  0  0  0  0  0  0  0  0  0  0
    0.1041   -1.1858    2.3590 H   0  0  0  0  0  0  0  0  0  0  0  0
    1.1655    0.2420    2.3598 H   0  0  0  0  0  0  0  0  0  0  0  0
   -2.4064    0.2272    1.8657 H   0  0  0  0  0  0  0  0  0  0  0  0
  1  2  1  0  0  0  0
  1 11  1  0  0  0  0
  2  3  1  0  0  0  0
  3 13  1  0  0  0  0
  3 14  1  0  0  0  0
  3 12  1  0  0  0  0
  4  2  1  0  0  0  0
  4 15  1  0  0  0  0
  5  2  1  0  0  0  0
  6  5  3  0  0  0  0
  7  6  1  0  0  0  0
  8  7  3  0  0  0  0
  9  1  1  0  0  0  0
 10  1  1  0  0  0  0
M  END
