title
 OpenBabel02282109573D

 18 17  0  0  0  0  0  0  0  0999 V2000
   -0.6592    2.1497    1.1257 C   0  0  0  0  0  0  0  0  0  0  0  0
   -0.6418    0.6044    1.1257 C   0  0  0  0  0  0  0  0  0  0  0  0
    0.1126    0.0857    2.3728 C   0  0  0  0  0  0  0  0  0  0  0  0
   -2.0902    0.0608    1.1280 C   0  0  0  0  0  0  0  0  0  0  0  0
    0.0426    0.1187   -0.0753 C   0  0  0  0  0  0  0  0  0  0  0  0
    0.6033   -0.3035   -1.0597 C   0  0  0  0  0  0  0  0  0  0  0  0
    1.2781   -0.7639   -2.2442 C   0  0  0  0  0  0  0  0  0  0  0  0
    1.4462   -1.9270   -2.5344 O   0  0  0  0  0  0  0  0  0  0  0  0
    0.3570    2.5536    1.1200 H   0  0  0  0  0  0  0  0  0  0  0  0
   -1.1852    2.5363    0.2484 H   0  0  0  0  0  0  0  0  0  0  0  0
   -1.1700    2.5156    2.0224 H   0  0  0  0  0  0  0  0  0  0  0  0
   -0.3912    0.4369    3.2792 H   0  0  0  0  0  0  0  0  0  0  0  0
    0.1360   -1.0070    2.3900 H   0  0  0  0  0  0  0  0  0  0  0  0
    1.1432    0.4505    2.3885 H   0  0  0  0  0  0  0  0  0  0  0  0
   -2.6412    0.4072    0.2494 H   0  0  0  0  0  0  0  0  0  0  0  0
   -2.0982   -1.0322    1.1279 H   0  0  0  0  0  0  0  0  0  0  0  0
   -2.6130    0.4122    2.0235 H   0  0  0  0  0  0  0  0  0  0  0  0
    1.6488    0.0510   -2.8997 H   0  0  0  0  0  0  0  0  0  0  0  0
  1 11  1  0  0  0  0
  2  1  1  0  0  0  0
  2  4  1  0  0  0  0
  2  3  1  0  0  0  0
  3 14  1  0  0  0  0
  3 13  1  0  0  0  0
  3 12  1  0  0  0  0
  4 17  1  0  0  0  0
  5  2  1  0  0  0  0
  6  5  3  0  0  0  0
  7  6  1  0  0  0  0
  8  7  2  0  0  0  0
  9  1  1  0  0  0  0
 10  1  1  0  0  0  0
 15  4  1  0  0  0  0
 16  4  1  0  0  0  0
 18  7  1  0  0  0  0
M  END
