title
 OpenBabel02282109573D

 22 21  0  0  0  0  0  0  0  0999 V2000
   -1.0685    1.7003    0.9192 C   0  0  0  0  0  0  0  0  0  0  0  0
   -0.9770    0.1633    0.8746 C   0  0  0  0  0  0  0  0  0  0  0  0
   -0.3012   -0.3515    2.1595 C   0  0  0  0  0  0  0  0  0  0  0  0
   -2.4015   -0.4182    0.7939 C   0  0  0  0  0  0  0  0  0  0  0  0
   -0.2093   -0.3106   -0.3841 C   0  0  0  0  0  0  0  0  0  0  0  0
    1.2559    0.1624   -0.5092 C   0  0  0  0  0  0  0  0  0  0  0  0
    1.8929   -0.3339   -1.7234 C   0  0  0  0  0  0  0  0  0  0  0  0
    2.3940   -0.7562   -2.7313 C   0  0  0  0  0  0  0  0  0  0  0  0
   -0.0857    2.1675    1.0373 H   0  0  0  0  0  0  0  0  0  0  0  0
   -1.5220    2.0974    0.0041 H   0  0  0  0  0  0  0  0  0  0  0  0
   -1.6857    2.0251    1.7639 H   0  0  0  0  0  0  0  0  0  0  0  0
   -0.8955   -0.0854    3.0404 H   0  0  0  0  0  0  0  0  0  0  0  0
   -0.1995   -1.4424    2.1444 H   0  0  0  0  0  0  0  0  0  0  0  0
    0.6961    0.0772    2.2998 H   0  0  0  0  0  0  0  0  0  0  0  0
   -2.9204   -0.0701   -0.1059 H   0  0  0  0  0  0  0  0  0  0  0  0
   -2.3807   -1.5131    0.7656 H   0  0  0  0  0  0  0  0  0  0  0  0
   -2.9980   -0.1170    1.6619 H   0  0  0  0  0  0  0  0  0  0  0  0
   -0.2174   -1.4068   -0.4125 H   0  0  0  0  0  0  0  0  0  0  0  0
   -0.7525    0.0219   -1.2768 H   0  0  0  0  0  0  0  0  0  0  0  0
    1.3011    1.2581   -0.5051 H   0  0  0  0  0  0  0  0  0  0  0  0
    1.8362   -0.1705    0.3596 H   0  0  0  0  0  0  0  0  0  0  0  0
    2.8487   -1.1223   -3.6179 H   0  0  0  0  0  0  0  0  0  0  0  0
  1  9  1  0  0  0  0
  1 11  1  0  0  0  0
  2  1  1  0  0  0  0
  2  3  1  0  0  0  0
  3 14  1  0  0  0  0
  3 12  1  0  0  0  0
  4  2  1  0  0  0  0
  4 17  1  0  0  0  0
  5  2  1  0  0  0  0
  6 20  1  0  0  0  0
  6  5  1  0  0  0  0
  6 21  1  0  0  0  0
  7  6  1  0  0  0  0
  8  7  3  0  0  0  0
 10  1  1  0  0  0  0
 13  3  1  0  0  0  0
 15  4  1  0  0  0  0
 16  4  1  0  0  0  0
 18  5  1  0  0  0  0
 19  5  1  0  0  0  0
 22  8  1  0  0  0  0
M  END
