21
title
C -1.0735452 1.7038032 0.92895246
C -0.98791564 0.16642304 0.888075
C -0.30495632 -0.34975207 2.1685529
C -2.4138093 -0.4122211 0.81357056
C -0.23106705 -0.31291288 -0.37516212
C 1.2331548 0.16206834 -0.4965725
C 1.8674936 -0.336477 -1.7149978
N 2.3541336 -0.73901343 -2.6829052
H -0.08951598 2.169786 1.0441827
H -1.5303353 2.1010704 0.015719948
H -1.6858631 2.0312543 1.7757074
H -0.8940671 -0.0818293 3.0519092
H -0.20572834 -1.4408102 2.1541224
H 0.6935073 0.07800354 2.3057506
H -2.9363613 -0.063517444 -0.08370191
H -2.3960304 -1.5070866 0.7869745
H -3.0040412 -0.10800145 1.6842546
H -0.23992573 -1.4085888 -0.4018296
H -0.77555317 0.021831954 -1.2655425
H 1.290618 1.2555856 -0.5072533
H 1.8272743 -0.17730829 0.35844862
