20
title
C -1.0188313 1.7123861 0.90514594
C -0.9233696 0.1778299 0.8844165
C -0.25977647 -0.32979462 2.1821985
C -2.3346415 -0.4174521 0.7634249
N -0.20802812 -0.24798276 -0.34047946
C 1.1904283 0.14707187 -0.46453783
C 1.7495236 -0.35509604 -1.723711
N 2.200508 -0.769546 -2.702983
H -0.044952027 2.1860423 1.0654634
H -1.4312034 2.0822234 -0.03777371
H -1.6710706 2.0373495 1.7210715
H -0.8496175 -0.041165844 3.0581627
H -0.18011574 -1.4225786 2.1785405
H 0.7443083 0.084431216 2.3181581
H -2.8184025 -0.0736745 -0.15468691
H -2.296612 -1.5127819 0.7385419
H -2.9531503 -0.12705584 1.6175977
H -0.27422774 -1.2570925 -0.4306098
H 1.2607093 1.2401527 -0.4806927
H 1.8525264 -0.19694315 0.34920338
