title
 OpenBabel02282109573D

 20 19  0  0  0  0  0  0  0  0999 V2000
   -1.0188    1.7124    0.9051 C   0  0  0  0  0  0  0  0  0  0  0  0
   -0.9234    0.1778    0.8844 C   0  0  0  0  0  0  0  0  0  0  0  0
   -0.2598   -0.3298    2.1822 C   0  0  0  0  0  0  0  0  0  0  0  0
   -2.3346   -0.4175    0.7634 C   0  0  0  0  0  0  0  0  0  0  0  0
   -0.2080   -0.2480   -0.3405 N   0  0  0  0  0  0  0  0  0  0  0  0
    1.1904    0.1471   -0.4645 C   0  0  0  0  0  0  0  0  0  0  0  0
    1.7495   -0.3551   -1.7237 C   0  0  0  0  0  0  0  0  0  0  0  0
    2.2005   -0.7695   -2.7030 N   0  0  0  0  0  0  0  0  0  0  0  0
   -0.0450    2.1860    1.0655 H   0  0  0  0  0  0  0  0  0  0  0  0
   -1.4312    2.0822   -0.0378 H   0  0  0  0  0  0  0  0  0  0  0  0
   -1.6711    2.0373    1.7211 H   0  0  0  0  0  0  0  0  0  0  0  0
   -0.8496   -0.0412    3.0582 H   0  0  0  0  0  0  0  0  0  0  0  0
   -0.1801   -1.4226    2.1785 H   0  0  0  0  0  0  0  0  0  0  0  0
    0.7443    0.0844    2.3182 H   0  0  0  0  0  0  0  0  0  0  0  0
   -2.8184   -0.0737   -0.1547 H   0  0  0  0  0  0  0  0  0  0  0  0
   -2.2966   -1.5128    0.7385 H   0  0  0  0  0  0  0  0  0  0  0  0
   -2.9532   -0.1271    1.6176 H   0  0  0  0  0  0  0  0  0  0  0  0
   -0.2742   -1.2571   -0.4306 H   0  0  0  0  0  0  0  0  0  0  0  0
    1.2607    1.2402   -0.4807 H   0  0  0  0  0  0  0  0  0  0  0  0
    1.8525   -0.1969    0.3492 H   0  0  0  0  0  0  0  0  0  0  0  0
  1  9  1  0  0  0  0
  1 11  1  0  0  0  0
  2  1  1  0  0  0  0
  2  3  1  0  0  0  0
  3 14  1  0  0  0  0
  3 12  1  0  0  0  0
  4  2  1  0  0  0  0
  4 17  1  0  0  0  0
  5  2  1  0  0  0  0
  6  5  1  0  0  0  0
  6 20  1  0  0  0  0
  7  6  1  0  0  0  0
  8  7  3  0  0  0  0
 10  1  1  0  0  0  0
 13  3  1  0  0  0  0
 15  4  1  0  0  0  0
 16  4  1  0  0  0  0
 18  5  1  0  0  0  0
 19  6  1  0  0  0  0
M  END
