19
title
C -0.81200266 1.6370975 1.2925478
C -0.85956126 0.22646707 0.6884617
C 0.06309016 -0.7349194 1.4473437
C -2.296057 -0.3016451 0.68214697
O -0.53247964 0.28076372 -0.7255025
C 0.77034754 0.63289165 -1.1040759
C 1.6825402 -0.524697 -1.2236122
N 2.39743 -1.4256204 -1.3343226
H 0.20457275 2.0417268 1.3274381
H -1.438003 2.320867 0.71233374
H -1.1830854 1.6185008 2.321661
H -0.27819642 -0.83465326 2.4822116
H 0.05760284 -1.7254065 0.98523307
H 1.0969653 -0.37854555 1.4781377
H -2.9449203 0.368327 0.11158575
H -2.333156 -1.2911586 0.21923657
H -2.6827915 -0.37766024 1.7022828
H 0.70118827 1.1005286 -2.0928667
H 1.2343748 1.3678944 -0.43394706
