20
title
C -0.32691246 1.6689372 1.4295312
C -0.20743169 0.15127584 1.263645
C 0.4956782 -0.4641635 2.481479
O -1.5600673 -0.32281208 1.1965362
C 0.550589 -0.2398947 -0.023951884
C -0.12507519 0.24288434 -1.3234785
C 0.50189036 -0.3091342 -2.5175102
C 1.0368259 -0.7801952 -3.4857774
H 0.66102844 2.138799 1.4361596
H -0.9171597 2.106864 0.6209908
H -0.8295103 1.9028248 2.3720093
H -0.06367443 -0.23769517 3.3936403
H 0.5643231 -1.5542239 2.3825026
H 1.5139787 -0.07811427 2.593079
H -1.5346454 -1.2860943 1.194322
H 1.5777436 0.13919792 0.021779899
H 0.62989 -1.3340317 -0.059775826
H -1.1841183 -0.03736848 -1.289371
H -0.09963097 1.3376648 -1.3773489
H 1.4988048 -1.1879175 -4.3501873
