19
title
C -0.25971502 1.70905 1.4271091
C -0.19706155 0.1805814 1.2833927
C 0.49960023 -0.44194558 2.5016239
O -1.5205438 -0.35393152 1.154726
C 0.53278273 -0.25701293 0.00031967234
C -0.18534969 0.1746532 -1.2941928
C 0.47246748 -0.3514794 -2.4870594
N 1.006283 -0.77279365 -3.4215882
H 0.74218524 2.1495938 1.4488149
H -0.823076 2.1641302 0.60845196
H -0.75940526 1.980931 2.3639915
H -0.020451754 -0.16289458 3.4252975
H 0.49734193 -1.5326345 2.424735
H 1.5358881 -0.099789575 2.588772
H -2.0227754 -0.10018632 1.9360552
H 1.5530484 0.13874729 0.009590102
H 0.6103585 -1.3486369 0.0058182008
H -1.2199006 -0.17940512 -1.2674067
H -0.22218923 1.2656965 -1.3797717
