21
title
C -1.0475014 1.7987527 0.8860978
C -0.99538606 0.28422838 0.6191156
C -0.12924503 -0.4059646 1.6857291
C -2.4216323 -0.2926042 0.6556108
C -0.42427582 0.010039664 -0.79413944
N 0.9290965 0.49539176 -1.0178634
C 2.0122435 -0.32415205 -1.0907272
O 1.9938731 -1.5280904 -0.94435245
H -0.046196215 2.2429438 0.8742545
H -1.659562 2.316807 0.13821025
H -1.4822705 2.005713 1.8695554
H -0.5501127 -0.24824938 2.6845202
H -0.065461986 -1.48364 1.5076083
H 0.8907917 -0.010826551 1.6862593
H -3.0636616 0.17664996 -0.09875845
H -2.4173985 -1.3718727 0.4681955
H -2.8832505 -0.12605274 1.6343528
H -0.3931899 -1.0670704 -0.9764529
H -1.0862753 0.46043465 -1.5445032
H 1.0750475 1.4785362 -1.1798207
H 2.9402685 0.24328841 -1.3053954
