title
 OpenBabel02282109573D

 21 20  0  0  0  0  0  0  0  0999 V2000
   -1.0475    1.7988    0.8861 C   0  0  0  0  0  0  0  0  0  0  0  0
   -0.9954    0.2842    0.6191 C   0  0  0  0  0  0  0  0  0  0  0  0
   -0.1292   -0.4060    1.6857 C   0  0  0  0  0  0  0  0  0  0  0  0
   -2.4216   -0.2926    0.6556 C   0  0  0  0  0  0  0  0  0  0  0  0
   -0.4243    0.0100   -0.7941 C   0  0  0  0  0  0  0  0  0  0  0  0
    0.9291    0.4954   -1.0179 N   0  0  0  0  0  0  0  0  0  0  0  0
    2.0122   -0.3242   -1.0907 C   0  0  0  0  0  0  0  0  0  0  0  0
    1.9939   -1.5281   -0.9444 O   0  0  0  0  0  0  0  0  0  0  0  0
   -0.0462    2.2429    0.8743 H   0  0  0  0  0  0  0  0  0  0  0  0
   -1.6596    2.3168    0.1382 H   0  0  0  0  0  0  0  0  0  0  0  0
   -1.4823    2.0057    1.8696 H   0  0  0  0  0  0  0  0  0  0  0  0
   -0.5501   -0.2482    2.6845 H   0  0  0  0  0  0  0  0  0  0  0  0
   -0.0655   -1.4836    1.5076 H   0  0  0  0  0  0  0  0  0  0  0  0
    0.8908   -0.0108    1.6863 H   0  0  0  0  0  0  0  0  0  0  0  0
   -3.0637    0.1766   -0.0988 H   0  0  0  0  0  0  0  0  0  0  0  0
   -2.4174   -1.3719    0.4682 H   0  0  0  0  0  0  0  0  0  0  0  0
   -2.8833   -0.1261    1.6344 H   0  0  0  0  0  0  0  0  0  0  0  0
   -0.3932   -1.0671   -0.9765 H   0  0  0  0  0  0  0  0  0  0  0  0
   -1.0863    0.4604   -1.5445 H   0  0  0  0  0  0  0  0  0  0  0  0
    1.0750    1.4785   -1.1798 H   0  0  0  0  0  0  0  0  0  0  0  0
    2.9403    0.2433   -1.3054 H   0  0  0  0  0  0  0  0  0  0  0  0
  1 11  1  0  0  0  0
  2  4  1  0  0  0  0
  2  1  1  0  0  0  0
  2  3  1  0  0  0  0
  3 14  1  0  0  0  0
  3 12  1  0  0  0  0
  4 17  1  0  0  0  0
  5  2  1  0  0  0  0
  6  5  1  0  0  0  0
  7  6  1  0  0  0  0
  7  8  2  0  0  0  0
  9  1  1  0  0  0  0
 10  1  1  0  0  0  0
 13  3  1  0  0  0  0
 15  4  1  0  0  0  0
 16  4  1  0  0  0  0
 18  5  1  0  0  0  0
 19  5  1  0  0  0  0
 20  6  1  0  0  0  0
 21  7  1  0  0  0  0
M  END
