20
title
C -1.1944 1.6085948 0.86114407
C -1.1070155 0.07980713 0.7076553
C -0.19499111 -0.50819427 1.7981311
C -2.5122604 -0.5395643 0.8101864
C -0.5556611 -0.26966262 -0.6841131
O 0.74509615 0.29875803 -0.8897924
C 1.772107 -0.522466 -1.1715777
O 2.8844965 -0.12955146 -1.3558074
H -0.21124297 2.0715723 0.74418145
H -1.8640469 2.0433326 0.11068659
H -1.5830367 1.8741326 1.8495727
H -0.59676105 -0.2892858 2.7925282
H -0.11391599 -1.5975373 1.7060548
H 0.8123024 -0.08551127 1.7455175
H -3.1790798 -0.1515637 0.03216534
H -2.479621 -1.6307181 0.7140914
H -2.962859 -0.3054407 1.7796911
H -0.5061924 -1.3593602 -0.8139562
H -1.2068812 0.13736665 -1.4655532
H 1.4692265 -1.5875885 -1.2141243
