20
title
C -1.1390369 1.6206611 1.0110428
C -0.9760258 0.09461101 0.9438176
C -0.21679017 -0.4334755 2.1704197
C -2.3451655 -0.5819652 0.8342809
O -0.3133804 -0.29566646 -0.27504584
C 0.99331796 0.16077514 -0.50515825
C 1.4394898 -0.39691424 -1.8475914
O 2.518995 -0.18579923 -2.3325555
H -0.17948094 2.1326044 1.1304286
H -1.6200099 1.9928143 0.10154841
H -1.7632927 1.8960202 1.8663641
H -0.7980746 -0.25393507 3.0797987
H -0.047163043 -1.5104511 2.078942
H 0.75086915 0.06038146 2.300096
H -2.8712645 -0.22917324 -0.057022054
H -2.2261198 -1.6659458 0.7537876
H -2.9586108 -0.36182973 1.7124496
H 1.0673094 1.2583389 -0.55272645
H 1.7115643 -0.17743345 0.25780693
H 0.66798306 -1.0247642 -2.3454819
