title
 OpenBabel02282109573D

 20 19  0  0  0  0  0  0  0  0999 V2000
   -1.1390    1.6207    1.0110 C   0  0  0  0  0  0  0  0  0  0  0  0
   -0.9760    0.0946    0.9438 C   0  0  0  0  0  0  0  0  0  0  0  0
   -0.2168   -0.4335    2.1704 C   0  0  0  0  0  0  0  0  0  0  0  0
   -2.3452   -0.5820    0.8343 C   0  0  0  0  0  0  0  0  0  0  0  0
   -0.3134   -0.2957   -0.2750 O   0  0  0  0  0  0  0  0  0  0  0  0
    0.9933    0.1608   -0.5052 C   0  0  0  0  0  0  0  0  0  0  0  0
    1.4395   -0.3969   -1.8476 C   0  0  0  0  0  0  0  0  0  0  0  0
    2.5190   -0.1858   -2.3326 O   0  0  0  0  0  0  0  0  0  0  0  0
   -0.1795    2.1326    1.1304 H   0  0  0  0  0  0  0  0  0  0  0  0
   -1.6200    1.9928    0.1015 H   0  0  0  0  0  0  0  0  0  0  0  0
   -1.7633    1.8960    1.8664 H   0  0  0  0  0  0  0  0  0  0  0  0
   -0.7981   -0.2539    3.0798 H   0  0  0  0  0  0  0  0  0  0  0  0
   -0.0472   -1.5105    2.0789 H   0  0  0  0  0  0  0  0  0  0  0  0
    0.7509    0.0604    2.3001 H   0  0  0  0  0  0  0  0  0  0  0  0
   -2.8713   -0.2292   -0.0570 H   0  0  0  0  0  0  0  0  0  0  0  0
   -2.2261   -1.6659    0.7538 H   0  0  0  0  0  0  0  0  0  0  0  0
   -2.9586   -0.3618    1.7124 H   0  0  0  0  0  0  0  0  0  0  0  0
    1.0673    1.2583   -0.5527 H   0  0  0  0  0  0  0  0  0  0  0  0
    1.7116   -0.1774    0.2578 H   0  0  0  0  0  0  0  0  0  0  0  0
    0.6680   -1.0248   -2.3455 H   0  0  0  0  0  0  0  0  0  0  0  0
  1  9  1  0  0  0  0
  1 11  1  0  0  0  0
  2  1  1  0  0  0  0
  2  3  1  0  0  0  0
  3 14  1  0  0  0  0
  3 12  1  0  0  0  0
  4  2  1  0  0  0  0
  4 17  1  0  0  0  0
  5  2  1  0  0  0  0
  6  5  1  0  0  0  0
  6 19  1  0  0  0  0
  7  6  1  0  0  0  0
  8  7  2  0  0  0  0
 10  1  1  0  0  0  0
 13  3  1  0  0  0  0
 15  4  1  0  0  0  0
 16  4  1  0  0  0  0
 18  6  1  0  0  0  0
 20  7  1  0  0  0  0
M  END
