title
 OpenBabel02282109573D

 19 18  0  0  0  0  0  0  0  0999 V2000
   -0.5737    2.3530    0.8907 C   0  0  0  0  0  0  0  0  0  0  0  0
   -0.4878    0.8279    0.7911 C   0  0  0  0  0  0  0  0  0  0  0  0
    0.4325    0.2545    1.8687 C   0  0  0  0  0  0  0  0  0  0  0  0
   -1.7786    0.2399    1.0384 O   0  0  0  0  0  0  0  0  0  0  0  0
   -0.0297    0.4184   -0.6249 C   0  0  0  0  0  0  0  0  0  0  0  0
   -0.1254   -1.0151   -0.8101 N   0  0  0  0  0  0  0  0  0  0  0  0
    0.8499   -1.7657   -1.3823 C   0  0  0  0  0  0  0  0  0  0  0  0
    1.8855   -1.3361   -1.8475 O   0  0  0  0  0  0  0  0  0  0  0  0
    0.4051    2.8157    0.7306 H   0  0  0  0  0  0  0  0  0  0  0  0
   -1.2582    2.7586    0.1355 H   0  0  0  0  0  0  0  0  0  0  0  0
   -0.9386    2.6474    1.8785 H   0  0  0  0  0  0  0  0  0  0  0  0
    0.0523    0.5129    2.8603 H   0  0  0  0  0  0  0  0  0  0  0  0
    0.4835   -0.8340    1.7930 H   0  0  0  0  0  0  0  0  0  0  0  0
    1.4450    0.6542    1.7635 H   0  0  0  0  0  0  0  0  0  0  0  0
   -2.4294    0.7266    0.5202 H   0  0  0  0  0  0  0  0  0  0  0  0
   -0.6547    0.9420   -1.3642 H   0  0  0  0  0  0  0  0  0  0  0  0
    1.0073    0.7064   -0.8127 H   0  0  0  0  0  0  0  0  0  0  0  0
   -0.9359   -1.4644   -0.4116 H   0  0  0  0  0  0  0  0  0  0  0  0
    0.5894   -2.8431   -1.3818 H   0  0  0  0  0  0  0  0  0  0  0  0
  1 11  1  0  0  0  0
  2  1  1  0  0  0  0
  2  4  1  0  0  0  0
  2  3  1  0  0  0  0
  3 12  1  0  0  0  0
  5  2  1  0  0  0  0
  6  5  1  0  0  0  0
  6 18  1  0  0  0  0
  7 19  1  0  0  0  0
  7  6  1  0  0  0  0
  8  7  2  0  0  0  0
  9  1  1  0  0  0  0
 10  1  1  0  0  0  0
 13  3  1  0  0  0  0
 14  3  1  0  0  0  0
 15  4  1  0  0  0  0
 16  5  1  0  0  0  0
 17  5  1  0  0  0  0
M  END
