title
 OpenBabel02282109573D

 18 17  0  0  0  0  0  0  0  0999 V2000
   -0.6202    2.1633    1.1770 C   0  0  0  0  0  0  0  0  0  0  0  0
   -0.6706    0.6245    1.1132 C   0  0  0  0  0  0  0  0  0  0  0  0
    0.0330   -0.0019    2.3326 C   0  0  0  0  0  0  0  0  0  0  0  0
   -2.0342    0.1821    1.0558 O   0  0  0  0  0  0  0  0  0  0  0  0
   -0.0313    0.1594   -0.1228 C   0  0  0  0  0  0  0  0  0  0  0  0
    0.5384   -0.1947   -1.1231 C   0  0  0  0  0  0  0  0  0  0  0  0
    1.1881   -0.6920   -2.3351 C   0  0  0  0  0  0  0  0  0  0  0  0
    1.7163   -2.0044   -2.1999 O   0  0  0  0  0  0  0  0  0  0  0  0
    0.4115    2.5253    1.1717 H   0  0  0  0  0  0  0  0  0  0  0  0
   -1.1492    2.5902    0.3223 H   0  0  0  0  0  0  0  0  0  0  0  0
   -1.1007    2.5123    2.0985 H   0  0  0  0  0  0  0  0  0  0  0  0
   -0.4432    0.3469    3.2566 H   0  0  0  0  0  0  0  0  0  0  0  0
   -0.0421   -1.0905    2.2888 H   0  0  0  0  0  0  0  0  0  0  0  0
    1.0894    0.2777    2.3659 H   0  0  0  0  0  0  0  0  0  0  0  0
   -2.4599    0.4779    1.8686 H   0  0  0  0  0  0  0  0  0  0  0  0
    0.4786   -0.6298   -3.1757 H   0  0  0  0  0  0  0  0  0  0  0  0
    2.0401   -0.0538   -2.5948 H   0  0  0  0  0  0  0  0  0  0  0  0
    1.0099   -2.5627   -1.8584 H   0  0  0  0  0  0  0  0  0  0  0  0
  1 11  1  0  0  0  0
  2  1  1  0  0  0  0
  2  3  1  0  0  0  0
  3 14  1  0  0  0  0
  3 12  1  0  0  0  0
  4  2  1  0  0  0  0
  4 15  1  0  0  0  0
  5  2  1  0  0  0  0
  6  5  3  0  0  0  0
  7  8  1  0  0  0  0
  7  6  1  0  0  0  0
  8 18  1  0  0  0  0
  9  1  1  0  0  0  0
 10  1  1  0  0  0  0
 13  3  1  0  0  0  0
 16  7  1  0  0  0  0
 17  7  1  0  0  0  0
M  END
