18
title
C -0.6202016 2.1632626 1.1769918
C -0.6706118 0.6244984 1.1132402
C 0.033016827 -0.0018690352 2.3326333
O -2.0342245 0.18213634 1.0558338
C -0.031347904 0.15935339 -0.12284562
C 0.53836167 -0.19468172 -1.1231089
C 1.1880985 -0.6920279 -2.3350525
O 1.7163495 -2.0043573 -2.1998577
H 0.41148582 2.525294 1.1717061
H -1.1491739 2.5901763 0.3222724
H -1.100735 2.512318 2.0985336
H -0.44316006 0.34690157 3.2565992
H -0.042122338 -1.0905324 2.2888403
H 1.0894213 0.27768093 2.3658879
H -2.4599116 0.47790387 1.8686309
H 0.47858432 -0.62982357 -3.1757412
H 2.0400946 -0.053756546 -2.5947943
H 1.0099251 -2.562668 -1.8584087
