title
 OpenBabel02282109573D

 22 21  0  0  0  0  0  0  0  0999 V2000
   -1.3570    2.2521    2.3608 C   0  0  0  0  0  0  0  0  0  0  0  0
   -1.3010    0.7150    2.2899 C   0  0  0  0  0  0  0  0  0  0  0  0
   -0.6214    0.2196    1.0962 C   0  0  0  0  0  0  0  0  0  0  0  0
   -0.0562   -0.1651    0.1033 C   0  0  0  0  0  0  0  0  0  0  0  0
    0.6300   -0.6461   -1.1033 C   0  0  0  0  0  0  0  0  0  0  0  0
    0.6456   -2.1918   -1.1017 C   0  0  0  0  0  0  0  0  0  0  0  0
   -0.1174   -0.1385   -2.3572 C   0  0  0  0  0  0  0  0  0  0  0  0
    2.0812   -0.1150   -1.1162 C   0  0  0  0  0  0  0  0  0  0  0  0
   -0.3496    2.6772    2.3674 H   0  0  0  0  0  0  0  0  0  0  0  0
   -1.8888    2.6613    1.4974 H   0  0  0  0  0  0  0  0  0  0  0  0
   -1.8739    2.5751    3.2696 H   0  0  0  0  0  0  0  0  0  0  0  0
   -0.7971    0.3273    3.1850 H   0  0  0  0  0  0  0  0  0  0  0  0
   -2.3216    0.3115    2.3234 H   0  0  0  0  0  0  0  0  0  0  0  0
   -0.3721   -2.5925   -1.0919 H   0  0  0  0  0  0  0  0  0  0  0  0
    1.1547   -2.5665   -1.9966 H   0  0  0  0  0  0  0  0  0  0  0  0
    1.1695   -2.5759   -0.2218 H   0  0  0  0  0  0  0  0  0  0  0  0
   -0.1411    0.9547   -2.3812 H   0  0  0  0  0  0  0  0  0  0  0  0
    0.3828   -0.4926   -3.2653 H   0  0  0  0  0  0  0  0  0  0  0  0
   -1.1495   -0.5002   -2.3694 H   0  0  0  0  0  0  0  0  0  0  0  0
    2.6308   -0.4598   -0.2356 H   0  0  0  0  0  0  0  0  0  0  0  0
    2.6059   -0.4688   -2.0105 H   0  0  0  0  0  0  0  0  0  0  0  0
    2.0963    0.9787   -1.1182 H   0  0  0  0  0  0  0  0  0  0  0  0
  1  9  1  0  0  0  0
  1 11  1  0  0  0  0
  2 13  1  0  0  0  0
  2  1  1  0  0  0  0
  2 12  1  0  0  0  0
  3  2  1  0  0  0  0
  4  3  3  0  0  0  0
  5  6  1  0  0  0  0
  5  4  1  0  0  0  0
  6 14  1  0  0  0  0
  6 16  1  0  0  0  0
  7  5  1  0  0  0  0
  8  5  1  0  0  0  0
  8 20  1  0  0  0  0
 10  1  1  0  0  0  0
 15  6  1  0  0  0  0
 17  7  1  0  0  0  0
 18  7  1  0  0  0  0
 19  7  1  0  0  0  0
 21  8  1  0  0  0  0
 22  8  1  0  0  0  0
M  END
