title
 OpenBabel02282109573D

 22 21  0  0  0  0  0  0  0  0999 V2000
   -0.8975    1.6511    0.9170 C   0  0  0  0  0  0  0  0  0  0  0  0
   -0.7950    0.1192    0.9839 C   0  0  0  0  0  0  0  0  0  0  0  0
   -0.1588   -0.3316    2.3070 C   0  0  0  0  0  0  0  0  0  0  0  0
   -2.1815   -0.5108    0.8199 C   0  0  0  0  0  0  0  0  0  0  0  0
   -0.0571   -0.3949   -0.1404 O   0  0  0  0  0  0  0  0  0  0  0  0
    1.3172   -0.0712   -0.2657 C   0  0  0  0  0  0  0  0  0  0  0  0
    1.7283   -0.5456   -1.6535 C   0  0  0  0  0  0  0  0  0  0  0  0
    0.9573    0.0810   -2.6586 O   0  0  0  0  0  0  0  0  0  0  0  0
    0.0708    2.1359    1.0704 H   0  0  0  0  0  0  0  0  0  0  0  0
   -1.2891    1.9643   -0.0554 H   0  0  0  0  0  0  0  0  0  0  0  0
   -1.5741    2.0188    1.6946 H   0  0  0  0  0  0  0  0  0  0  0  0
   -0.7982   -0.0498    3.1490 H   0  0  0  0  0  0  0  0  0  0  0  0
   -0.0337   -1.4186    2.3194 H   0  0  0  0  0  0  0  0  0  0  0  0
    0.8193    0.1313    2.4676 H   0  0  0  0  0  0  0  0  0  0  0  0
   -2.6210   -0.2165   -0.1376 H   0  0  0  0  0  0  0  0  0  0  0  0
   -2.1074   -1.6016    0.8400 H   0  0  0  0  0  0  0  0  0  0  0  0
   -2.8522   -0.1904    1.6222 H   0  0  0  0  0  0  0  0  0  0  0  0
    1.4829    1.0121   -0.1883 H   0  0  0  0  0  0  0  0  0  0  0  0
    1.9252   -0.5718    0.5025 H   0  0  0  0  0  0  0  0  0  0  0  0
    2.7773   -0.2899   -1.8371 H   0  0  0  0  0  0  0  0  0  0  0  0
    1.6336   -1.6426   -1.6988 H   0  0  0  0  0  0  0  0  0  0  0  0
    0.0428   -0.0076   -2.3637 H   0  0  0  0  0  0  0  0  0  0  0  0
  1  2  1  0  0  0  0
  1  9  1  0  0  0  0
  1 11  1  0  0  0  0
  2  3  1  0  0  0  0
  3 13  1  0  0  0  0
  3 14  1  0  0  0  0
  3 12  1  0  0  0  0
  4 16  1  0  0  0  0
  4  2  1  0  0  0  0
  4 17  1  0  0  0  0
  5  2  1  0  0  0  0
  6 18  1  0  0  0  0
  6  5  1  0  0  0  0
  6 19  1  0  0  0  0
  7  6  1  0  0  0  0
  8 22  1  0  0  0  0
  8  7  1  0  0  0  0
 10  1  1  0  0  0  0
 15  4  1  0  0  0  0
 20  7  1  0  0  0  0
 21  7  1  0  0  0  0
M  END
