26
title
C 2.1377904 3.0538428 -0.0042142104
C 2.023952 1.5270565 -0.011210589
C 0.5727485 1.029916 0.000118577096
C 0.4740201 -0.500973 -0.0070224735
C -0.94606036 -1.1223823 0.0030681167
C -1.7419015 -0.69850934 -1.2453144
C -0.790981 -2.6551623 -0.0068758996
C -1.7180027 -0.71240485 1.2709475
H 3.1831791 3.3784237 -0.012548895
H 1.6465912 3.4913664 -0.8806545
H 1.6635846 3.482001 0.88610053
H 2.5371807 1.1247959 -0.8948592
H 2.5540452 1.1155027 0.85808617
H 0.066444725 1.437342 0.88448906
H 0.049570646 1.4466187 -0.86999685
H 1.0065777 -0.88076603 -0.8905218
H 1.0231258 -0.89003885 0.8621969
H -1.2051803 -0.9610523 -2.164157
H -2.7142453 -1.202748 -1.2738521
H -1.9320239 0.3789914 -1.264567
H -0.2351009 -3.0030422 0.87101954
H -1.7685145 -3.1501145 -0.000390644
H -0.25180188 -2.9932566 -0.89889866
H -1.9076849 0.36478248 1.3056517
H -2.6896448 -1.2170974 1.3124228
H -1.163916 -0.98494256 2.1764765
