24
title
C -1.225029 3.0346303 -1.7695909
C -1.1019241 1.5093578 -1.7212207
C -0.27468652 1.0102605 -0.5312065
C -0.15403007 -0.5171081 -0.493234
C 0.5281495 -1.0997013 0.75833774
C 0.5066514 -2.6342614 0.69318795
C 1.9696884 -0.5950774 0.9258745
O -0.27183527 -0.65913 1.8650746
H -0.24090813 3.509577 -1.8536714
H -1.8257145 3.3619468 -2.6242297
H -1.6996417 3.4211829 -0.8607935
H -2.104277 1.0627804 -1.677359
H -0.65215313 1.1485631 -2.656337
H 0.7222316 1.4678426 -0.5772184
H -0.72955745 1.352093 0.40502003
H -1.1599207 -0.9527625 -0.54677415
H 0.38705564 -0.87191355 -1.3797355
H 1.0705786 -3.007323 -0.1681504
H 0.9553218 -3.0664341 1.5957108
H -0.52283657 -2.9958584 0.61836123
H 1.9918897 0.48864904 1.0607166
H 2.435072 -1.0548538 1.8061309
H 2.5855734 -0.85111177 0.057353996
H 0.13700666 -0.98814404 2.6724129
