title
 OpenBabel02282109573D

 24 23  0  0  0  0  0  0  0  0999 V2000
   -1.1036    2.9258   -1.7898 C   0  0  0  0  0  0  0  0  0  0  0  0
   -0.9882    1.4072   -1.6391 C   0  0  0  0  0  0  0  0  0  0  0  0
   -0.2382    1.0008   -0.3750 C   0  0  0  0  0  0  0  0  0  0  0  0
   -0.1912   -0.4109   -0.3373 O   0  0  0  0  0  0  0  0  0  0  0  0
    0.4686   -1.0499    0.7657 C   0  0  0  0  0  0  0  0  0  0  0  0
   -0.2238   -0.7147    2.0971 C   0  0  0  0  0  0  0  0  0  0  0  0
    0.3136   -2.5424    0.4552 C   0  0  0  0  0  0  0  0  0  0  0  0
    1.9590   -0.6746    0.8151 C   0  0  0  0  0  0  0  0  0  0  0  0
   -0.1164    3.3989   -1.8406 H   0  0  0  0  0  0  0  0  0  0  0  0
   -1.6447    3.1911   -2.7027 H   0  0  0  0  0  0  0  0  0  0  0  0
   -1.6404    3.3720   -0.9451 H   0  0  0  0  0  0  0  0  0  0  0  0
   -1.9838    0.9497   -1.6140 H   0  0  0  0  0  0  0  0  0  0  0  0
   -0.4701    0.9764   -2.5035 H   0  0  0  0  0  0  0  0  0  0  0  0
    0.7732    1.4367   -0.3892 H   0  0  0  0  0  0  0  0  0  0  0  0
   -0.7538    1.4098    0.5082 H   0  0  0  0  0  0  0  0  0  0  0  0
   -1.2960   -0.9224    2.0293 H   0  0  0  0  0  0  0  0  0  0  0  0
    0.1933   -1.3232    2.9056 H   0  0  0  0  0  0  0  0  0  0  0  0
   -0.0925    0.3345    2.3775 H   0  0  0  0  0  0  0  0  0  0  0  0
    0.7811   -2.7779   -0.5049 H   0  0  0  0  0  0  0  0  0  0  0  0
    0.7807   -3.1547    1.2321 H   0  0  0  0  0  0  0  0  0  0  0  0
   -0.7459   -2.8057    0.3912 H   0  0  0  0  0  0  0  0  0  0  0  0
    2.1114    0.3746    1.0844 H   0  0  0  0  0  0  0  0  0  0  0  0
    2.4787   -1.2822    1.5625 H   0  0  0  0  0  0  0  0  0  0  0  0
    2.4269   -0.8530   -0.1579 H   0  0  0  0  0  0  0  0  0  0  0  0
  1  2  1  0  0  0  0
  1 11  1  0  0  0  0
  2 12  1  0  0  0  0
  2  3  1  0  0  0  0
  3  4  1  0  0  0  0
  3 15  1  0  0  0  0
  4  5  1  0  0  0  0
  5  8  1  0  0  0  0
  5  6  1  0  0  0  0
  6 18  1  0  0  0  0
  6 17  1  0  0  0  0
  7  5  1  0  0  0  0
  7 20  1  0  0  0  0
  8 22  1  0  0  0  0
  8 23  1  0  0  0  0
  9  1  1  0  0  0  0
 10  1  1  0  0  0  0
 13  2  1  0  0  0  0
 14  3  1  0  0  0  0
 16  6  1  0  0  0  0
 19  7  1  0  0  0  0
 21  7  1  0  0  0  0
 24  8  1  0  0  0  0
M  END
