24
title
C -1.103559 2.9258022 -1.7898244
C -0.9881731 1.407244 -1.6390889
C -0.23817578 1.000816 -0.37500787
O -0.19119146 -0.41085243 -0.33734918
C 0.46855816 -1.0499233 0.7656623
C -0.22382423 -0.71467006 2.09714
C 0.31358418 -2.5424454 0.4551841
C 1.9589756 -0.67464316 0.81505287
H -0.11644742 3.398882 -1.8405728
H -1.6446689 3.191127 -2.7027457
H -1.6403805 3.3719728 -0.9451215
H -1.983826 0.94969136 -1.6140051
H -0.47007486 0.976413 -2.5035353
H 0.7732393 1.4366853 -0.3892212
H -0.753838 1.4098043 0.5081655
H -1.2960082 -0.9223834 2.0293171
H 0.19326255 -1.3231903 2.9056308
H -0.09247342 0.33453655 2.3775332
H 0.78106207 -2.7779465 -0.50494015
H 0.7806867 -3.1546564 1.2320873
H -0.74585366 -2.8057442 0.3911904
H 2.1114447 0.374609 1.0843695
H 2.478731 -1.2822205 1.5624574
H 2.4269123 -0.8529843 -0.15786004
