24
title
C 1.943329 2.8106582 -0.0034438507
C 1.9640833 1.2914828 -0.01183509
O 0.6337538 0.8197262 -0.001705918
C 0.5358703 -0.5883987 -0.008277824
C -0.94078743 -1.0116346 0.0035625738
C -1.6462814 -0.4571129 -1.247043
C -0.9949111 -2.5489032 -0.0041995184
C -1.6221863 -0.47068393 1.2733252
H 2.9634106 3.2063477 -0.011023986
H 1.4161891 3.1922853 -0.88254535
H 1.4330636 3.1827245 0.88960224
H 2.493574 0.91663593 -0.9047824
H 2.5104485 0.90708 0.86676806
H 1.0360074 -0.998955 -0.9033591
H 1.052967 -1.0084267 0.8726599
H -1.1915966 -0.8514781 -2.163077
H -2.704952 -0.737622 -1.252446
H -1.5773977 0.63286954 -1.279449
H -0.49561176 -2.9719222 0.874862
H -2.0328696 -2.8976586 0.003794868
H -0.5124682 -2.9623773 -0.8971065
H -1.552668 0.61889994 1.3160996
H -2.6805656 -0.7514286 1.2959938
H -1.1500474 -0.8747678 2.1761997
