title
 OpenBabel02282109573D

 22 21  0  0  0  0  0  0  0  0999 V2000
    1.8985    2.8173   -0.2130 C   0  0  0  0  0  0  0  0  0  0  0  0
    1.9653    1.3092   -0.0438 C   0  0  0  0  0  0  0  0  0  0  0  0
    0.6467    0.8020    0.0278 O   0  0  0  0  0  0  0  0  0  0  0  0
    0.5764   -0.6053    0.1650 C   0  0  0  0  0  0  0  0  0  0  0  0
   -0.9042   -1.0038    0.0727 C   0  0  0  0  0  0  0  0  0  0  0  0
   -1.0365   -2.5237   -0.0031 C   0  0  0  0  0  0  0  0  0  0  0  0
   -1.6943   -0.4340    1.2619 C   0  0  0  0  0  0  0  0  0  0  0  0
   -1.4277   -0.4904   -1.1519 O   0  0  0  0  0  0  0  0  0  0  0  0
    2.9064    3.2386   -0.2697 H   0  0  0  0  0  0  0  0  0  0  0  0
    1.3623    3.0785   -1.1300 H   0  0  0  0  0  0  0  0  0  0  0  0
    1.3772    3.2764    0.6318 H   0  0  0  0  0  0  0  0  0  0  0  0
    2.5016    0.8458   -0.8885 H   0  0  0  0  0  0  0  0  0  0  0  0
    2.5188    1.0460    0.8726 H   0  0  0  0  0  0  0  0  0  0  0  0
    1.1389   -1.0925   -0.6472 H   0  0  0  0  0  0  0  0  0  0  0  0
    1.0134   -0.9246    1.1249 H   0  0  0  0  0  0  0  0  0  0  0  0
   -0.6370   -3.0012    0.8969 H   0  0  0  0  0  0  0  0  0  0  0  0
   -2.0901   -2.8000   -0.1005 H   0  0  0  0  0  0  0  0  0  0  0  0
   -0.5027   -2.9108   -0.8757 H   0  0  0  0  0  0  0  0  0  0  0  0
   -1.5558    0.6485    1.3270 H   0  0  0  0  0  0  0  0  0  0  0  0
   -2.7593   -0.6432    1.1307 H   0  0  0  0  0  0  0  0  0  0  0  0
   -1.3663   -0.8768    2.2088 H   0  0  0  0  0  0  0  0  0  0  0  0
   -1.1062    0.4181   -1.2103 H   0  0  0  0  0  0  0  0  0  0  0  0
  1  2  1  0  0  0  0
  1 11  1  0  0  0  0
  2  3  1  0  0  0  0
  2 13  1  0  0  0  0
  3  4  1  0  0  0  0
  4 15  1  0  0  0  0
  5  4  1  0  0  0  0
  5  7  1  0  0  0  0
  6  5  1  0  0  0  0
  6 16  1  0  0  0  0
  7 19  1  0  0  0  0
  7 21  1  0  0  0  0
  8  5  1  0  0  0  0
  9  1  1  0  0  0  0
 10  1  1  0  0  0  0
 12  2  1  0  0  0  0
 14  4  1  0  0  0  0
 17  6  1  0  0  0  0
 18  6  1  0  0  0  0
 20  7  1  0  0  0  0
 22  8  1  0  0  0  0
M  END
