title
 OpenBabel02282109573D

 24 23  0  0  0  0  0  0  0  0999 V2000
    1.8764    2.9621   -0.0021 C   0  0  0  0  0  0  0  0  0  0  0  0
    1.7887    1.5596   -0.0087 O   0  0  0  0  0  0  0  0  0  0  0  0
    0.4544    1.0914    0.0014 C   0  0  0  0  0  0  0  0  0  0  0  0
    0.4999   -0.4332   -0.0071 C   0  0  0  0  0  0  0  0  0  0  0  0
   -0.8599   -1.1725    0.0020 C   0  0  0  0  0  0  0  0  0  0  0  0
   -1.6904   -0.8208   -1.2473 C   0  0  0  0  0  0  0  0  0  0  0  0
   -0.5689   -2.6853   -0.0091 C   0  0  0  0  0  0  0  0  0  0  0  0
   -1.6661   -0.8345    1.2707 C   0  0  0  0  0  0  0  0  0  0  0  0
    2.9372    3.2256   -0.0107 H   0  0  0  0  0  0  0  0  0  0  0  0
    1.3933    3.4088   -0.8865 H   0  0  0  0  0  0  0  0  0  0  0  0
    1.4101    3.3995    0.8958 H   0  0  0  0  0  0  0  0  0  0  0  0
   -0.0694    1.4704    0.8947 H   0  0  0  0  0  0  0  0  0  0  0  0
   -0.0861    1.4798   -0.8777 H   0  0  0  0  0  0  0  0  0  0  0  0
    1.0699   -0.7428   -0.8919 H   0  0  0  0  0  0  0  0  0  0  0  0
    1.0867   -0.7521    0.8633 H   0  0  0  0  0  0  0  0  0  0  0  0
   -1.1295   -1.0276   -2.1656 H   0  0  0  0  0  0  0  0  0  0  0  0
   -2.6099   -1.4155   -1.2788 H   0  0  0  0  0  0  0  0  0  0  0  0
   -1.9839    0.2336   -1.2644 H   0  0  0  0  0  0  0  0  0  0  0  0
    0.0152   -2.9828    0.8687 H   0  0  0  0  0  0  0  0  0  0  0  0
   -1.4997   -3.2631   -0.0033 H   0  0  0  0  0  0  0  0  0  0  0  0
   -0.0019   -2.9732   -0.9011 H   0  0  0  0  0  0  0  0  0  0  0  0
   -1.9593    0.2196    1.3050 H   0  0  0  0  0  0  0  0  0  0  0  0
   -2.5850   -1.4297    1.3134 H   0  0  0  0  0  0  0  0  0  0  0  0
   -1.0877   -1.0513    2.1758 H   0  0  0  0  0  0  0  0  0  0  0  0
  1 11  1  0  0  0  0
  2  1  1  0  0  0  0
  2  3  1  0  0  0  0
  3 12  1  0  0  0  0
  4  3  1  0  0  0  0
  4  5  1  0  0  0  0
  4 15  1  0  0  0  0
  5  8  1  0  0  0  0
  6  5  1  0  0  0  0
  7 20  1  0  0  0  0
  7  5  1  0  0  0  0
  7 19  1  0  0  0  0
  8 22  1  0  0  0  0
  8 23  1  0  0  0  0
  8 24  1  0  0  0  0
  9  1  1  0  0  0  0
 10  1  1  0  0  0  0
 13  3  1  0  0  0  0
 14  4  1  0  0  0  0
 16  6  1  0  0  0  0
 17  6  1  0  0  0  0
 18  6  1  0  0  0  0
 21  7  1  0  0  0  0
M  END
