title
 OpenBabel02282109573D

 22 21  0  0  0  0  0  0  0  0999 V2000
    1.8260    2.9865   -0.1175 C   0  0  0  0  0  0  0  0  0  0  0  0
    1.7841    1.5823   -0.0677 O   0  0  0  0  0  0  0  0  0  0  0  0
    0.4691    1.0796    0.0666 C   0  0  0  0  0  0  0  0  0  0  0  0
    0.5510   -0.4413    0.1214 C   0  0  0  0  0  0  0  0  0  0  0  0
   -0.8099   -1.1662    0.0518 C   0  0  0  0  0  0  0  0  0  0  0  0
   -0.5868   -2.6851    0.0504 C   0  0  0  0  0  0  0  0  0  0  0  0
   -1.7404   -0.7682    1.2015 C   0  0  0  0  0  0  0  0  0  0  0  0
   -1.5111   -0.7831   -1.1409 O   0  0  0  0  0  0  0  0  0  0  0  0
    2.8730    3.2813   -0.2259 H   0  0  0  0  0  0  0  0  0  0  0  0
    1.2547    3.3844   -0.9718 H   0  0  0  0  0  0  0  0  0  0  0  0
    1.4229    3.4424    0.8015 H   0  0  0  0  0  0  0  0  0  0  0  0
    0.0036    1.4858    0.9797 H   0  0  0  0  0  0  0  0  0  0  0  0
   -0.1567    1.3910   -0.7842 H   0  0  0  0  0  0  0  0  0  0  0  0
    1.1687   -0.7711   -0.7247 H   0  0  0  0  0  0  0  0  0  0  0  0
    1.0863   -0.7446    1.0287 H   0  0  0  0  0  0  0  0  0  0  0  0
   -0.1123   -3.0208    0.9781 H   0  0  0  0  0  0  0  0  0  0  0  0
   -1.5427   -3.2051   -0.0598 H   0  0  0  0  0  0  0  0  0  0  0  0
    0.0642   -2.9826   -0.7805 H   0  0  0  0  0  0  0  0  0  0  0  0
   -1.9966    0.2926    1.1478 H   0  0  0  0  0  0  0  0  0  0  0  0
   -2.6709   -1.3398    1.1439 H   0  0  0  0  0  0  0  0  0  0  0  0
   -1.2698   -0.9655    2.1691 H   0  0  0  0  0  0  0  0  0  0  0  0
   -0.9895   -1.0797   -1.8948 H   0  0  0  0  0  0  0  0  0  0  0  0
  1  2  1  0  0  0  0
  1 11  1  0  0  0  0
  2  3  1  0  0  0  0
  3  4  1  0  0  0  0
  3 12  1  0  0  0  0
  4 15  1  0  0  0  0
  5  4  1  0  0  0  0
  5  7  1  0  0  0  0
  6  5  1  0  0  0  0
  6 16  1  0  0  0  0
  7 21  1  0  0  0  0
  8  5  1  0  0  0  0
  9  1  1  0  0  0  0
 10  1  1  0  0  0  0
 13  3  1  0  0  0  0
 14  4  1  0  0  0  0
 17  6  1  0  0  0  0
 18  6  1  0  0  0  0
 19  7  1  0  0  0  0
 20  7  1  0  0  0  0
 22  8  1  0  0  0  0
M  END
