title
 OpenBabel02282109573D

 17 16  0  0  0  0  0  0  0  0999 V2000
   -0.2100    3.4031   -0.1933 C   0  0  0  0  0  0  0  0  0  0  0  0
   -0.1860    1.9478   -0.2029 C   0  0  0  0  0  0  0  0  0  0  0  0
   -0.1580    0.7450   -0.1992 C   0  0  0  0  0  0  0  0  0  0  0  0
   -0.1464   -0.7231   -0.2265 C   0  0  0  0  0  0  0  0  0  0  0  0
   -1.5881   -1.2755   -0.0720 C   0  0  0  0  0  0  0  0  0  0  0  0
    0.4830   -1.2317   -1.5504 C   0  0  0  0  0  0  0  0  0  0  0  0
    0.6700   -1.2204    0.9024 C   0  0  0  0  0  0  0  0  0  0  0  0
    1.3024   -1.6351    1.7760 N   0  0  0  0  0  0  0  0  0  0  0  0
    0.3797    3.7986    0.6406 H   0  0  0  0  0  0  0  0  0  0  0  0
    0.2059    3.8131   -1.1199 H   0  0  0  0  0  0  0  0  0  0  0  0
   -1.2320    3.7827   -0.0887 H   0  0  0  0  0  0  0  0  0  0  0  0
   -2.1993   -0.9186   -0.9046 H   0  0  0  0  0  0  0  0  0  0  0  0
   -1.5765   -2.3687   -0.0795 H   0  0  0  0  0  0  0  0  0  0  0  0
   -2.0355   -0.9332    0.8630 H   0  0  0  0  0  0  0  0  0  0  0  0
    1.5026   -0.8585   -1.6626 H   0  0  0  0  0  0  0  0  0  0  0  0
    0.5027   -2.3247   -1.5637 H   0  0  0  0  0  0  0  0  0  0  0  0
   -0.1159   -0.8745   -2.3918 H   0  0  0  0  0  0  0  0  0  0  0  0
  1 11  1  0  0  0  0
  1  9  1  0  0  0  0
  2  3  3  0  0  0  0
  2  1  1  0  0  0  0
  4  3  1  0  0  0  0
  4  5  1  0  0  0  0
  4  7  1  0  0  0  0
  5 14  1  0  0  0  0
  6  4  1  0  0  0  0
  7  8  3  0  0  0  0
 10  1  1  0  0  0  0
 12  5  1  0  0  0  0
 13  5  1  0  0  0  0
 15  6  1  0  0  0  0
 16  6  1  0  0  0  0
 17  6  1  0  0  0  0
M  END
