16
title
C -0.1622078 3.4102402 -0.20308073
C -0.1610299 1.9549557 -0.19276674
C -0.16076928 0.7511064 -0.18101056
C -0.1491677 -0.72229254 -0.19769515
C -1.5816042 -1.2827076 -0.13918012
O 0.39730617 -1.2115873 -1.4277155
C 0.64337987 -1.2186526 0.9447793
C 1.3004667 -1.6398181 1.8584257
H 0.5689813 3.8134196 0.50591385
H 0.08737529 3.7981224 -1.196721
H -1.1460035 3.8070624 0.06999865
H -2.141264 -0.91464174 -1.0016559
H -1.5405173 -2.3736088 -0.1719779
H -2.0773203 -0.9645802 0.7794488
H 1.2897462 -0.85573995 -1.5064384
H 1.8812933 -2.0080214 2.6678374
