16
title
C 0.47349912 1.6151409 -0.15502107
C 0.45740896 0.0785929 -0.14428072
N 1.1882912 -0.3954874 1.0319532
C -0.99942535 -0.47386336 -0.09083765
C -1.7568872 -0.014449299 1.0642453
C -2.406625 0.36428723 2.0009496
C 1.0669789 -0.42152208 -1.4045594
N 1.5701684 -0.83732927 -2.359371
H 1.500921 1.9862041 -0.20867358
H -0.073821075 2.004707 -1.0169216
H 0.010029307 1.9781197 0.7639662
H 1.2461187 -1.4099654 1.0316253
H 2.1422124 -0.046925493 1.0132567
H -1.5125091 -0.18517996 -1.0153682
H -0.9546202 -1.570037 -0.096352845
H -2.9757147 0.6926776 2.8352273
