title
 OpenBabel02282109573D

 15 14  0  0  1  0  0  0  0  0999 V2000
    0.4842    1.6366   -0.1903 C   0  0  0  0  0  0  0  0  0  0  0  0
    0.4599    0.0974   -0.1514 C   0  0  1  0  0  0  0  0  0  0  0  0
    1.2269   -0.3554    1.0059 N   0  0  0  0  0  0  0  0  0  0  0  0
   -1.0219   -0.4317   -0.1851 C   0  0  0  0  0  0  0  0  0  0  0  0
   -1.7434   -0.0401    1.0209 C   0  0  0  0  0  0  0  0  0  0  0  0
   -2.2748    0.2815    1.9956 N   0  0  0  0  0  0  0  0  0  0  0  0
    1.1126   -0.4326   -1.3660 C   0  0  0  0  0  0  0  0  0  0  0  0
    1.5876   -0.8604   -2.3278 N   0  0  0  0  0  0  0  0  0  0  0  0
    1.5174    1.9865   -0.1803 H   0  0  0  0  0  0  0  0  0  0  0  0
   -0.0150    2.0157   -1.0851 H   0  0  0  0  0  0  0  0  0  0  0  0
   -0.0311    2.0316    0.6902 H   0  0  0  0  0  0  0  0  0  0  0  0
    0.8047    0.0071    1.8564 H   0  0  0  0  0  0  0  0  0  0  0  0
    1.2307   -1.3688    1.0717 H   0  0  0  0  0  0  0  0  0  0  0  0
   -1.5465   -0.0505   -1.0675 H   0  0  0  0  0  0  0  0  0  0  0  0
   -1.0160   -1.5241   -0.2581 H   0  0  0  0  0  0  0  0  0  0  0  0
  1  9  1  0  0  0  0
  1  2  1  0  0  0  0
  1 11  1  0  0  0  0
  2  7  1  6  0  0  0
  2  3  1  0  0  0  0
  3 13  1  0  0  0  0
  3 12  1  0  0  0  0
  4  2  1  0  0  0  0
  4  5  1  0  0  0  0
  5  6  3  0  0  0  0
  8  7  3  0  0  0  0
 10  1  1  0  0  0  0
 14  4  1  0  0  0  0
 15  4  1  0  0  0  0
M  END
