15
title
C 0.48419085 1.636632 -0.19032766
C 0.4599048 0.09738877 -0.15140946
N 1.226907 -0.3553983 1.0059028
C -1.0219448 -0.43165857 -0.18505523
C -1.7434001 -0.040131867 1.0209472
N -2.2747927 0.28154764 1.9955904
C 1.1125753 -0.4326306 -1.3659754
N 1.5876187 -0.86043763 -2.3278317
H 1.5173795 1.986494 -0.18025856
H -0.014968978 2.0156753 -1.085065
H -0.031078087 2.0316148 0.6901514
H 0.8047414 0.0071106707 1.8563817
H 1.2306654 -1.3688486 1.0716558
H -1.5464686 -0.050460704 -1.0675249
H -1.0159804 -1.5241103 -0.25810266
