16
title
C 0.5274688 1.6119292 -0.16302474
C 0.45866537 0.08094772 -0.1705024
O 1.1415879 -0.3432784 1.005566
C -1.0202266 -0.4251313 -0.15683645
C -1.7796879 0.021798879 1.0018842
C -2.4161487 0.3901874 1.9522914
C 1.1137868 -0.46711203 -1.3693105
C 1.6377076 -0.9539424 -2.3357236
H 1.5713468 1.9311776 -0.16294537
H 0.029775232 2.0246844 -1.0438304
H 0.037369877 1.9885451 0.7373621
H 1.2349455 -1.3016441 0.96810395
H -1.5098301 -0.09794315 -1.0817163
H -1.0033871 -1.521601 -0.1921919
H -2.976315 0.7126436 2.7946851
H 2.1133282 -1.3696547 -3.1898408
