title
 OpenBabel02282109573D

 15 14  0  0  1  0  0  0  0  0999 V2000
    0.5331    1.6119   -0.1660 C   0  0  0  0  0  0  0  0  0  0  0  0
    0.4436    0.0835   -0.1516 C   0  0  1  0  0  0  0  0  0  0  0  0
    1.1442   -0.3456    1.0005 O   0  0  0  0  0  0  0  0  0  0  0  0
   -1.0339   -0.4174   -0.1445 C   0  0  0  0  0  0  0  0  0  0  0  0
   -1.7805    0.0308    1.0213 C   0  0  0  0  0  0  0  0  0  0  0  0
   -2.4035    0.3993    1.9800 C   0  0  0  0  0  0  0  0  0  0  0  0
    1.0926   -0.4718   -1.3673 C   0  0  0  0  0  0  0  0  0  0  0  0
    1.5897   -0.9358   -2.3018 N   0  0  0  0  0  0  0  0  0  0  0  0
    1.5803    1.9191   -0.1493 H   0  0  0  0  0  0  0  0  0  0  0  0
    0.0554    2.0198   -1.0597 H   0  0  0  0  0  0  0  0  0  0  0  0
    0.0309    2.0000    0.7223 H   0  0  0  0  0  0  0  0  0  0  0  0
    1.1053   -1.3077    1.0521 H   0  0  0  0  0  0  0  0  0  0  0  0
   -1.5230   -0.0804   -1.0662 H   0  0  0  0  0  0  0  0  0  0  0  0
   -1.0271   -1.5141   -0.1877 H   0  0  0  0  0  0  0  0  0  0  0  0
   -2.9559    0.7214    2.8281 H   0  0  0  0  0  0  0  0  0  0  0  0
  1  2  1  0  0  0  0
  1  9  1  0  0  0  0
  1 11  1  0  0  0  0
  2  7  1  6  0  0  0
  2  4  1  0  0  0  0
  2  3  1  0  0  0  0
  3 12  1  0  0  0  0
  4  5  1  0  0  0  0
  5  6  3  0  0  0  0
  6 15  1  0  0  0  0
  8  7  3  0  0  0  0
 10  1  1  0  0  0  0
 13  4  1  0  0  0  0
 14  4  1  0  0  0  0
M  END
