15
title
C 0.5189467 1.6190224 -0.1595301
C 0.47016943 0.08669768 -0.17606424
O 1.1331118 -0.33941507 1.0078468
C -1.0035155 -0.43409547 -0.1801972
C -1.759095 0.0046904692 0.9896303
N -2.3679824 0.3555839 1.9065543
C 1.1363702 -0.45195037 -1.3707774
C 1.6731704 -0.9314262 -2.3333254
H 1.5593193 1.9483706 -0.16262053
H 0.012455626 2.0327506 -1.0347108
H 0.033284828 1.9877987 0.7471463
H 1.3170902 -1.2824616 0.93263584
H -1.513114 -0.09597377 -1.0882967
H -0.99418896 -1.5288382 -0.20822574
H 2.1602705 -1.339867 -3.1848838
