title
 OpenBabel02282109573D

 15 14  0  0  1  0  0  0  0  0999 V2000
    0.5189    1.6190   -0.1595 C   0  0  0  0  0  0  0  0  0  0  0  0
    0.4702    0.0867   -0.1761 C   0  0  1  0  0  0  0  0  0  0  0  0
    1.1331   -0.3394    1.0078 O   0  0  0  0  0  0  0  0  0  0  0  0
   -1.0035   -0.4341   -0.1802 C   0  0  0  0  0  0  0  0  0  0  0  0
   -1.7591    0.0047    0.9896 C   0  0  0  0  0  0  0  0  0  0  0  0
   -2.3680    0.3556    1.9066 N   0  0  0  0  0  0  0  0  0  0  0  0
    1.1364   -0.4520   -1.3708 C   0  0  0  0  0  0  0  0  0  0  0  0
    1.6732   -0.9314   -2.3333 C   0  0  0  0  0  0  0  0  0  0  0  0
    1.5593    1.9484   -0.1626 H   0  0  0  0  0  0  0  0  0  0  0  0
    0.0125    2.0328   -1.0347 H   0  0  0  0  0  0  0  0  0  0  0  0
    0.0333    1.9878    0.7471 H   0  0  0  0  0  0  0  0  0  0  0  0
    1.3171   -1.2825    0.9326 H   0  0  0  0  0  0  0  0  0  0  0  0
   -1.5131   -0.0960   -1.0883 H   0  0  0  0  0  0  0  0  0  0  0  0
   -0.9942   -1.5288   -0.2082 H   0  0  0  0  0  0  0  0  0  0  0  0
    2.1603   -1.3399   -3.1849 H   0  0  0  0  0  0  0  0  0  0  0  0
  1 11  1  0  0  0  0
  2  7  1  6  0  0  0
  2  1  1  0  0  0  0
  2  3  1  0  0  0  0
  4  2  1  0  0  0  0
  4  5  1  0  0  0  0
  5  6  3  0  0  0  0
  8  7  3  0  0  0  0
  9  1  1  0  0  0  0
 10  1  1  0  0  0  0
 12  3  1  0  0  0  0
 13  4  1  0  0  0  0
 14  4  1  0  0  0  0
 15  8  1  0  0  0  0
M  END
