14
title
C 0.5261032 1.6150186 -0.16683857
C 0.45648456 0.08489614 -0.15424642
O 1.135161 -0.3372651 1.0106373
C -1.0159162 -0.43091664 -0.16721311
C -1.7662715 0.0237579 0.9994439
N -2.3675892 0.3870912 1.9160887
C 1.1207441 -0.46633446 -1.3612756
N 1.6319886 -0.92866105 -2.2885284
H 1.5701095 1.9321961 -0.15602507
H 0.038661696 2.0197997 -1.0565708
H 0.028940236 1.9996417 0.7264243
H 1.1924404 -1.3000487 1.0197859
H -1.5194294 -0.09400585 -1.0793519
H -1.0172132 -1.5263101 -0.18988918
