18
title
C 0.654506 1.6445826 0.16300498
C 0.5419934 0.120565705 -0.04527064
C 1.2376326 -0.6207236 1.1145852
C -0.93451023 -0.32226256 -0.19465373
C -1.7519044 -0.03998965 0.9783995
C -2.4148872 0.19857837 1.9529262
C 1.2947127 -0.22257742 -1.3233329
O 0.8224273 -0.75265646 -2.2954352
H 1.701879 1.9592004 0.21875317
H 0.1767558 2.1947234 -0.65422577
H 0.16274838 1.9287856 1.0970923
H 0.75352556 -0.36611906 2.0611231
H 1.1809226 -1.7063701 0.98450553
H 2.293959 -0.34088126 1.1849021
H -1.3640383 0.16971572 -1.0748038
H -0.9612355 -1.3950068 -0.41761073
H -3.0164337 0.40139985 2.8040864
H 2.3720832 0.06658514 -1.295425
