title
 OpenBabel02282109573D

 17 16  0  0  0  0  0  0  0  0999 V2000
    0.6455    1.6505    0.1763 C   0  0  0  0  0  0  0  0  0  0  0  0
    0.5538    0.1266   -0.0419 C   0  0  0  0  0  0  0  0  0  0  0  0
    1.2355   -0.6174    1.1243 C   0  0  0  0  0  0  0  0  0  0  0  0
   -0.9137   -0.3309   -0.2230 C   0  0  0  0  0  0  0  0  0  0  0  0
   -1.7396   -0.0558    0.9490 C   0  0  0  0  0  0  0  0  0  0  0  0
   -2.3759    0.1705    1.8871 N   0  0  0  0  0  0  0  0  0  0  0  0
    1.3207   -0.2065   -1.3158 C   0  0  0  0  0  0  0  0  0  0  0  0
    0.8540   -0.7353   -2.2906 O   0  0  0  0  0  0  0  0  0  0  0  0
    1.6894    1.9734    0.2411 H   0  0  0  0  0  0  0  0  0  0  0  0
    0.1694    2.2012   -0.6413 H   0  0  0  0  0  0  0  0  0  0  0  0
    0.1483    1.9282    1.1100 H   0  0  0  0  0  0  0  0  0  0  0  0
    0.7454   -0.3666    2.0694 H   0  0  0  0  0  0  0  0  0  0  0  0
    1.1850   -1.7027    0.9906 H   0  0  0  0  0  0  0  0  0  0  0  0
    2.2896   -0.3335    1.2054 H   0  0  0  0  0  0  0  0  0  0  0  0
   -1.3520    0.1657   -1.0948 H   0  0  0  0  0  0  0  0  0  0  0  0
   -0.9436   -1.4040   -0.4386 H   0  0  0  0  0  0  0  0  0  0  0  0
    2.3947    0.0889   -1.2785 H   0  0  0  0  0  0  0  0  0  0  0  0
  1  9  1  0  0  0  0
  1 11  1  0  0  0  0
  2  1  1  0  0  0  0
  2  3  1  0  0  0  0
  3 14  1  0  0  0  0
  3 12  1  0  0  0  0
  4  2  1  0  0  0  0
  4  5  1  0  0  0  0
  5  6  3  0  0  0  0
  7 17  1  0  0  0  0
  7  2  1  0  0  0  0
  8  7  2  0  0  0  0
 10  1  1  0  0  0  0
 13  3  1  0  0  0  0
 15  4  1  0  0  0  0
 16  4  1  0  0  0  0
M  END
