17
title
C 0.64550054 1.6505159 0.17626122
C 0.5537904 0.12656263 -0.04193267
C 1.2355307 -0.6174129 1.1243473
C -0.91372323 -0.33093938 -0.22302747
C -1.7395995 -0.055779867 0.9489808
N -2.3758516 0.1705337 1.8871214
C 1.3207209 -0.20646903 -1.3157674
O 0.85399044 -0.7352735 -2.2905984
H 1.6894277 1.973378 0.24110726
H 0.16940215 2.2011535 -0.641345
H 0.14834481 1.928243 1.1100466
H 0.745381 -0.36656246 2.0693753
H 1.1850238 -1.702734 0.9906422
H 2.289582 -0.33346486 1.2054436
H -1.3520082 0.16569896 -1.0948222
H -0.9436214 -1.4039717 -0.43862712
H 2.3946567 0.08887014 -1.2784545
