15
title
C 0.6594296 1.5752366 0.14338446
C 0.5256212 0.053118855 -0.031107059
O 1.1370165 -0.6478587 1.0354055
C -0.94951326 -0.38607037 -0.22113696
C -1.7490019 -0.05786048 0.9539563
N -2.3303814 0.21435507 1.9154629
C 1.3241525 -0.34630767 -1.2745817
O 0.86343354 -0.39451668 -2.383435
H 1.7120948 1.8478789 0.25802985
H 0.24782702 2.108363 -0.7181967
H 0.118892975 1.8982338 1.03939
H 0.7661778 -0.32769078 1.8660476
H -1.3673627 0.08803086 -1.1133522
H -0.9804236 -1.4681008 -0.38133317
H 2.3899732 -0.5674803 -1.0539782
