title
 OpenBabel02282109573D

 18 17  0  0  0  0  0  0  0  0999 V2000
    0.7321    1.6802   -0.0989 C   0  0  0  0  0  0  0  0  0  0  0  0
    0.5365    0.1481   -0.1834 C   0  0  0  0  0  0  0  0  0  0  0  0
    1.1792   -0.5340    1.0457 C   0  0  0  0  0  0  0  0  0  0  0  0
   -0.9834   -0.2223   -0.2691 C   0  0  0  0  0  0  0  0  0  0  0  0
   -1.7956    0.2896    0.9013 C   0  0  0  0  0  0  0  0  0  0  0  0
   -2.1702   -0.3965    1.8186 O   0  0  0  0  0  0  0  0  0  0  0  0
    1.1793   -0.3487   -1.4040 C   0  0  0  0  0  0  0  0  0  0  0  0
    1.7039   -0.7561   -2.4061 C   0  0  0  0  0  0  0  0  0  0  0  0
    1.7970    1.9248   -0.1304 H   0  0  0  0  0  0  0  0  0  0  0  0
    0.2443    2.1884   -0.9357 H   0  0  0  0  0  0  0  0  0  0  0  0
    0.3227    2.0753    0.8359 H   0  0  0  0  0  0  0  0  0  0  0  0
    0.6984   -0.1974    1.9687 H   0  0  0  0  0  0  0  0  0  0  0  0
    1.0782   -1.6207    0.9856 H   0  0  0  0  0  0  0  0  0  0  0  0
    2.2439   -0.2919    1.0993 H   0  0  0  0  0  0  0  0  0  0  0  0
   -1.3913    0.2060   -1.1921 H   0  0  0  0  0  0  0  0  0  0  0  0
   -1.0864   -1.3096   -0.3086 H   0  0  0  0  0  0  0  0  0  0  0  0
   -2.0406    1.3755    0.8715 H   0  0  0  0  0  0  0  0  0  0  0  0
    2.1710   -1.1165   -3.2891 H   0  0  0  0  0  0  0  0  0  0  0  0
  1 11  1  0  0  0  0
  2  1  1  0  0  0  0
  2  3  1  0  0  0  0
  3 14  1  0  0  0  0
  3 12  1  0  0  0  0
  4  2  1  0  0  0  0
  4  5  1  0  0  0  0
  5  6  2  0  0  0  0
  7  2  1  0  0  0  0
  8  7  3  0  0  0  0
  9  1  1  0  0  0  0
 10  1  1  0  0  0  0
 13  3  1  0  0  0  0
 15  4  1  0  0  0  0
 16  4  1  0  0  0  0
 17  5  1  0  0  0  0
 18  8  1  0  0  0  0
M  END
