17
title
C 0.7117831 1.6286933 -0.0881614
C 0.48742673 0.102039 -0.18462066
C 1.1502242 -0.61959183 1.0092237
C -1.0373315 -0.24243775 -0.26678288
C -1.8226885 0.33935598 0.8956197
O -1.918924 -0.19162041 1.9726763
C 1.1044326 -0.382203 -1.430828
N 1.5861267 -0.76026034 -2.4112818
H 1.7790982 1.8602197 -0.12199554
H 0.22251779 2.1566792 -0.91133183
H 0.31318 2.007867 0.8575507
H 0.6653552 -0.32288426 1.9416721
H 1.0608861 -1.7041713 0.908832
H 2.2119815 -0.36570048 1.0648568
H -1.4417074 0.14571485 -1.2068403
H -1.1551747 -1.3296117 -0.25413397
H -2.3155622 1.3171142 0.6988674
