title
 OpenBabel02282109573D

 17 16  0  0  0  0  0  0  0  0999 V2000
    0.7118    1.6287   -0.0882 C   0  0  0  0  0  0  0  0  0  0  0  0
    0.4874    0.1020   -0.1846 C   0  0  0  0  0  0  0  0  0  0  0  0
    1.1502   -0.6196    1.0092 C   0  0  0  0  0  0  0  0  0  0  0  0
   -1.0373   -0.2424   -0.2668 C   0  0  0  0  0  0  0  0  0  0  0  0
   -1.8227    0.3394    0.8956 C   0  0  0  0  0  0  0  0  0  0  0  0
   -1.9189   -0.1916    1.9727 O   0  0  0  0  0  0  0  0  0  0  0  0
    1.1044   -0.3822   -1.4308 C   0  0  0  0  0  0  0  0  0  0  0  0
    1.5861   -0.7603   -2.4113 N   0  0  0  0  0  0  0  0  0  0  0  0
    1.7791    1.8602   -0.1220 H   0  0  0  0  0  0  0  0  0  0  0  0
    0.2225    2.1567   -0.9113 H   0  0  0  0  0  0  0  0  0  0  0  0
    0.3132    2.0079    0.8576 H   0  0  0  0  0  0  0  0  0  0  0  0
    0.6654   -0.3229    1.9417 H   0  0  0  0  0  0  0  0  0  0  0  0
    1.0609   -1.7042    0.9088 H   0  0  0  0  0  0  0  0  0  0  0  0
    2.2120   -0.3657    1.0649 H   0  0  0  0  0  0  0  0  0  0  0  0
   -1.4417    0.1457   -1.2068 H   0  0  0  0  0  0  0  0  0  0  0  0
   -1.1552   -1.3296   -0.2541 H   0  0  0  0  0  0  0  0  0  0  0  0
   -2.3156    1.3171    0.6989 H   0  0  0  0  0  0  0  0  0  0  0  0
  1 11  1  0  0  0  0
  2  1  1  0  0  0  0
  2  3  1  0  0  0  0
  3 14  1  0  0  0  0
  3 12  1  0  0  0  0
  4 16  1  0  0  0  0
  4  2  1  0  0  0  0
  4  5  1  0  0  0  0
  5  6  2  0  0  0  0
  7  2  1  0  0  0  0
  8  7  3  0  0  0  0
  9  1  1  0  0  0  0
 10  1  1  0  0  0  0
 13  3  1  0  0  0  0
 15  4  1  0  0  0  0
 17  5  1  0  0  0  0
M  END
