17
title
C 0.467534 1.6186925 -0.19054806
C 0.4629336 0.07312537 -0.16538703
C 1.2420343 -0.45267197 1.0617927
N -0.9295745 -0.43342343 -0.14201768
C -1.8386073 -0.18346418 0.8336338
O -1.6541839 0.4875334 1.8295205
C 1.0734053 -0.44276085 -1.396213
C 1.5702258 -0.86681503 -2.4047768
H 1.4957523 1.9868768 -0.2328003
H -0.07004562 1.9859693 -1.0680399
H -0.016637476 1.9953196 0.71151847
H 0.7639749 -0.09233709 1.9737208
H 1.2503012 -1.5452747 1.0669518
H 2.2748628 -0.09681912 1.0269761
H -1.2164494 -1.0093108 -0.9172192
H -2.8071892 -0.6776381 0.61527646
H 2.0186605 -1.2368287 -3.293846
