title
 OpenBabel02282109573D

 16 15  0  0  0  0  0  0  0  0999 V2000
    0.4657    1.6191   -0.1961 C   0  0  0  0  0  0  0  0  0  0  0  0
    0.4435    0.0746   -0.1510 C   0  0  0  0  0  0  0  0  0  0  0  0
    1.2422   -0.4581    1.0600 C   0  0  0  0  0  0  0  0  0  0  0  0
   -0.9438   -0.4316   -0.1306 N   0  0  0  0  0  0  0  0  0  0  0  0
   -1.8408   -0.1693    0.8578 C   0  0  0  0  0  0  0  0  0  0  0  0
   -1.6309    0.5051    1.8444 O   0  0  0  0  0  0  0  0  0  0  0  0
    1.0494   -0.4483   -1.3902 C   0  0  0  0  0  0  0  0  0  0  0  0
    1.5220   -0.8588   -2.3612 N   0  0  0  0  0  0  0  0  0  0  0  0
    1.4965    1.9776   -0.2513 H   0  0  0  0  0  0  0  0  0  0  0  0
   -0.0804    1.9849   -1.0686 H   0  0  0  0  0  0  0  0  0  0  0  0
   -0.0048    2.0022    0.7099 H   0  0  0  0  0  0  0  0  0  0  0  0
    0.7772   -0.0898    1.9749 H   0  0  0  0  0  0  0  0  0  0  0  0
    1.2411   -1.5505    1.0692 H   0  0  0  0  0  0  0  0  0  0  0  0
    2.2762   -0.1084    1.0101 H   0  0  0  0  0  0  0  0  0  0  0  0
   -1.2449   -1.0089   -0.8998 H   0  0  0  0  0  0  0  0  0  0  0  0
   -2.8153   -0.6560    0.6556 H   0  0  0  0  0  0  0  0  0  0  0  0
  1  2  1  0  0  0  0
  1 11  1  0  0  0  0
  2  4  1  0  0  0  0
  2  3  1  0  0  0  0
  3 13  1  0  0  0  0
  3 12  1  0  0  0  0
  4  5  1  0  0  0  0
  5  6  2  0  0  0  0
  7  2  1  0  0  0  0
  8  7  3  0  0  0  0
  9  1  1  0  0  0  0
 10  1  1  0  0  0  0
 14  3  1  0  0  0  0
 15  4  1  0  0  0  0
 16  5  1  0  0  0  0
M  END
