16
title
C 0.46574783 1.619115 -0.19609287
C 0.44345817 0.07456653 -0.15098067
C 1.2421895 -0.45811483 1.0599825
N -0.94375867 -0.43164268 -0.13056937
C -1.8407878 -0.1693313 0.8578235
O -1.6309029 0.505118 1.8443894
C 1.0493644 -0.4483154 -1.3902242
N 1.5219998 -0.85877913 -2.3612032
H 1.4964844 1.9776397 -0.25126374
H -0.0803562 1.9849478 -1.0685891
H -0.0047818637 2.0022178 0.70994395
H 0.7771735 -0.089786276 1.9749475
H 1.2411475 -1.5504639 1.069224
H 2.2762017 -0.1083546 1.0101141
H -1.2449296 -1.0089159 -0.899825
H -2.8153377 -0.6559761 0.6556312
