17
title
C 0.5864963 1.7478431 -0.06507486
C 0.5943143 0.20852512 -0.022668885
C 1.3662803 -0.33396137 1.1943694
O -0.76172787 -0.3143329 -0.047234625
C -1.59935 -0.015657464 0.96369344
N -2.7795362 -0.46657038 0.9463498
C 1.2053435 -0.30674982 -1.2527714
C 1.7484187 -0.7046866 -2.246573
H 1.6077745 2.1186922 -0.18135634
H -0.0098818885 2.0939877 -0.91187644
H 0.1744473 2.1676924 0.8566685
H 0.96240205 0.06381477 2.1294262
H 1.3079827 -1.42422 1.2164887
H 2.4167175 -0.04092828 1.125291
H -1.1693124 0.61776453 1.7472599
H -3.2798483 -0.15272954 1.7755672
H 2.2148113 -1.0651464 -3.1302788
