title
 OpenBabel02282109573D

 16 15  0  0  0  0  0  0  0  0999 V2000
    0.5813    1.7520   -0.0603 C   0  0  0  0  0  0  0  0  0  0  0  0
    0.5752    0.2141   -0.0011 C   0  0  0  0  0  0  0  0  0  0  0  0
    1.3639   -0.3342    1.2015 C   0  0  0  0  0  0  0  0  0  0  0  0
   -0.7661   -0.3136   -0.0416 O   0  0  0  0  0  0  0  0  0  0  0  0
   -1.6145   -0.0185    0.9696 C   0  0  0  0  0  0  0  0  0  0  0  0
   -2.7892   -0.4745    0.9363 N   0  0  0  0  0  0  0  0  0  0  0  0
    1.1919   -0.3045   -1.2410 C   0  0  0  0  0  0  0  0  0  0  0  0
    1.7249   -0.6805   -2.1933 N   0  0  0  0  0  0  0  0  0  0  0  0
    1.6039    2.1167   -0.1839 H   0  0  0  0  0  0  0  0  0  0  0  0
   -0.0200    2.0975   -0.9037 H   0  0  0  0  0  0  0  0  0  0  0  0
    0.1777    2.1746    0.8631 H   0  0  0  0  0  0  0  0  0  0  0  0
    0.9682    0.0679    2.1374 H   0  0  0  0  0  0  0  0  0  0  0  0
    1.3007   -1.4240    1.2262 H   0  0  0  0  0  0  0  0  0  0  0  0
    2.4144   -0.0439    1.1226 H   0  0  0  0  0  0  0  0  0  0  0  0
   -1.1885    0.6132    1.7560 H   0  0  0  0  0  0  0  0  0  0  0  0
   -3.3053   -0.1706    1.7593 H   0  0  0  0  0  0  0  0  0  0  0  0
  1  2  1  0  0  0  0
  1 11  1  0  0  0  0
  2  3  1  0  0  0  0
  3 13  1  0  0  0  0
  3 12  1  0  0  0  0
  4  2  1  0  0  0  0
  4  5  1  0  0  0  0
  5 15  1  0  0  0  0
  6  5  2  0  0  0  0
  6 16  1  0  0  0  0
  7  2  1  0  0  0  0
  8  7  3  0  0  0  0
  9  1  1  0  0  0  0
 10  1  1  0  0  0  0
 14  3  1  0  0  0  0
M  END
