16
title
C 0.58133787 1.7520084 -0.060279097
C 0.575165 0.21408404 -0.0010786821
C 1.3638848 -0.33422607 1.2014623
O -0.7660829 -0.31355035 -0.04164638
C -1.6144642 -0.018543497 0.9696019
N -2.789156 -0.4745137 0.9362821
C 1.1918695 -0.30448607 -1.2409809
N 1.7249266 -0.6805326 -2.1933112
H 1.6039325 2.116713 -0.18390992
H -0.020042092 2.0975044 -0.9036605
H 0.1776906 2.1745908 0.86314493
H 0.96815366 0.067891955 2.137363
H 1.3007182 -1.4240489 1.2262273
H 2.4143565 -0.043903932 1.1226127
H -1.1885127 0.61318386 1.7559673
H -3.3052714 -0.17059553 1.7592857
