title
 OpenBabel02282109573D

 16 15  0  0  0  0  0  0  0  0999 V2000
    0.6068    1.7504   -0.0745 C   0  0  0  0  0  0  0  0  0  0  0  0
    0.6176    0.2124   -0.0302 C   0  0  0  0  0  0  0  0  0  0  0  0
    1.3855   -0.3340    1.1861 C   0  0  0  0  0  0  0  0  0  0  0  0
   -0.7511   -0.3092   -0.0470 O   0  0  0  0  0  0  0  0  0  0  0  0
   -1.5933   -0.0152    0.9588 C   0  0  0  0  0  0  0  0  0  0  0  0
   -2.7180   -0.4205    0.9837 O   0  0  0  0  0  0  0  0  0  0  0  0
    1.2165   -0.3086   -1.2617 C   0  0  0  0  0  0  0  0  0  0  0  0
    1.7477   -0.7131   -2.2592 C   0  0  0  0  0  0  0  0  0  0  0  0
    1.6270    2.1199   -0.2035 H   0  0  0  0  0  0  0  0  0  0  0  0
    0.0023    2.0959   -0.9158 H   0  0  0  0  0  0  0  0  0  0  0  0
    0.2058    2.1718    0.8512 H   0  0  0  0  0  0  0  0  0  0  0  0
    0.9897    0.0719    2.1209 H   0  0  0  0  0  0  0  0  0  0  0  0
    1.3174   -1.4236    1.2124 H   0  0  0  0  0  0  0  0  0  0  0  0
    2.4386   -0.0524    1.1107 H   0  0  0  0  0  0  0  0  0  0  0  0
   -1.1577    0.6241    1.7459 H   0  0  0  0  0  0  0  0  0  0  0  0
    2.2048   -1.0786   -3.1459 H   0  0  0  0  0  0  0  0  0  0  0  0
  1  2  1  0  0  0  0
  1 11  1  0  0  0  0
  2  3  1  0  0  0  0
  3 13  1  0  0  0  0
  3 12  1  0  0  0  0
  4  2  1  0  0  0  0
  4  5  1  0  0  0  0
  5  6  2  0  0  0  0
  5 15  1  0  0  0  0
  7  2  1  0  0  0  0
  8  7  3  0  0  0  0
  9  1  1  0  0  0  0
 10  1  1  0  0  0  0
 14  3  1  0  0  0  0
 16  8  1  0  0  0  0
M  END
