title
 OpenBabel02282109573D

 15 14  0  0  0  0  0  0  0  0999 V2000
    0.6038    1.7543   -0.0725 C   0  0  0  0  0  0  0  0  0  0  0  0
    0.5986    0.2176   -0.0100 C   0  0  0  0  0  0  0  0  0  0  0  0
    1.3848   -0.3350    1.1908 C   0  0  0  0  0  0  0  0  0  0  0  0
   -0.7555   -0.3071   -0.0404 O   0  0  0  0  0  0  0  0  0  0  0  0
   -1.6069   -0.0152    0.9676 C   0  0  0  0  0  0  0  0  0  0  0  0
   -2.7269   -0.4256    0.9817 O   0  0  0  0  0  0  0  0  0  0  0  0
    1.2002   -0.3084   -1.2521 C   0  0  0  0  0  0  0  0  0  0  0  0
    1.7187   -0.6933   -2.2090 N   0  0  0  0  0  0  0  0  0  0  0  0
    1.6257    2.1158   -0.2107 H   0  0  0  0  0  0  0  0  0  0  0  0
   -0.0062    2.0991   -0.9099 H   0  0  0  0  0  0  0  0  0  0  0  0
    0.2134    2.1802    0.8549 H   0  0  0  0  0  0  0  0  0  0  0  0
    0.9992    0.0756    2.1271 H   0  0  0  0  0  0  0  0  0  0  0  0
    1.3112   -1.4241    1.2198 H   0  0  0  0  0  0  0  0  0  0  0  0
    2.4379   -0.0567    1.1037 H   0  0  0  0  0  0  0  0  0  0  0  0
   -1.1738    0.6237    1.7553 H   0  0  0  0  0  0  0  0  0  0  0  0
  1  2  1  0  0  0  0
  1 11  1  0  0  0  0
  2  3  1  0  0  0  0
  3 13  1  0  0  0  0
  3 12  1  0  0  0  0
  4  2  1  0  0  0  0
  4  5  1  0  0  0  0
  5  6  2  0  0  0  0
  5 15  1  0  0  0  0
  7  2  1  0  0  0  0
  8  7  3  0  0  0  0
  9  1  1  0  0  0  0
 10  1  1  0  0  0  0
 14  3  1  0  0  0  0
M  END
