15
title
C 0.73484665 1.5539842 -0.08223396
C 0.58266723 0.028224843 -0.07803529
O 1.2252804 -0.43283722 1.1050258
C -0.90665996 -0.40374503 -0.10780339
C -1.6856014 0.10298939 1.0942681
O -2.776205 0.60560083 1.018188
C 1.259105 -0.54535156 -1.2659767
N 1.7797921 -1.0280551 -2.177785
H 1.7926401 1.822319 -0.07378426
H 0.26076692 1.986869 -0.96571004
H 0.262077 1.9667062 0.81275237
H 1.2815658 -1.3951677 1.0751395
H -1.3992877 -0.06461486 -1.0225091
H -0.94896305 -1.5019767 -0.09366637
H -1.1777935 -0.0417109 2.0705047
