title
 OpenBabel02282109573D

 15 14  0  0  1  0  0  0  0  0999 V2000
    0.7348    1.5540   -0.0822 C   0  0  0  0  0  0  0  0  0  0  0  0
    0.5827    0.0282   -0.0780 C   0  0  1  0  0  0  0  0  0  0  0  0
    1.2253   -0.4328    1.1050 O   0  0  0  0  0  0  0  0  0  0  0  0
   -0.9067   -0.4037   -0.1078 C   0  0  0  0  0  0  0  0  0  0  0  0
   -1.6856    0.1030    1.0943 C   0  0  0  0  0  0  0  0  0  0  0  0
   -2.7762    0.6056    1.0182 O   0  0  0  0  0  0  0  0  0  0  0  0
    1.2591   -0.5454   -1.2660 C   0  0  0  0  0  0  0  0  0  0  0  0
    1.7798   -1.0281   -2.1778 N   0  0  0  0  0  0  0  0  0  0  0  0
    1.7926    1.8223   -0.0738 H   0  0  0  0  0  0  0  0  0  0  0  0
    0.2608    1.9869   -0.9657 H   0  0  0  0  0  0  0  0  0  0  0  0
    0.2621    1.9667    0.8128 H   0  0  0  0  0  0  0  0  0  0  0  0
    1.2816   -1.3952    1.0751 H   0  0  0  0  0  0  0  0  0  0  0  0
   -1.3993   -0.0646   -1.0225 H   0  0  0  0  0  0  0  0  0  0  0  0
   -0.9490   -1.5020   -0.0937 H   0  0  0  0  0  0  0  0  0  0  0  0
   -1.1778   -0.0417    2.0705 H   0  0  0  0  0  0  0  0  0  0  0  0
  1  2  1  0  0  0  0
  1  9  1  0  0  0  0
  1 11  1  0  0  0  0
  2  7  1  6  0  0  0
  2  3  1  0  0  0  0
  4 14  1  0  0  0  0
  4  2  1  0  0  0  0
  4  5  1  0  0  0  0
  5 15  1  0  0  0  0
  6  5  2  0  0  0  0
  8  7  3  0  0  0  0
 10  1  1  0  0  0  0
 12  3  1  0  0  0  0
 13  4  1  0  0  0  0
M  END
