18
title
C 0.70586956 1.560054 -0.049574494
C 0.45185432 0.049990155 -0.12540774
C 1.0704364 -0.68962157 1.0796069
C -1.0705768 -0.28726855 -0.242168
C -1.8635062 0.22273868 0.94330573
O -2.1349623 -0.44356877 1.909811
C 1.0919564 -0.53079736 -1.383966
O 1.7128284 0.095441066 -2.2012885
H 1.7776101 1.7656566 -0.10424887
H 0.23194157 2.0849543 -0.8837543
H 0.32585523 1.9787765 0.88692594
H 0.56777805 -0.41005233 2.0087872
H 0.9783193 -1.7756554 0.97163117
H 2.1326585 -0.44467515 1.1747851
H -1.4690889 0.16830853 -1.1570096
H -1.203257 -1.3726652 -0.29679018
H -2.179977 1.2874955 0.87964666
H 0.9384276 -1.6303816 -1.4964902
