title
 OpenBabel02282109573D

 18 17  0  0  0  0  0  0  0  0999 V2000
    0.7059    1.5601   -0.0496 C   0  0  0  0  0  0  0  0  0  0  0  0
    0.4519    0.0500   -0.1254 C   0  0  0  0  0  0  0  0  0  0  0  0
    1.0704   -0.6896    1.0796 C   0  0  0  0  0  0  0  0  0  0  0  0
   -1.0706   -0.2873   -0.2422 C   0  0  0  0  0  0  0  0  0  0  0  0
   -1.8635    0.2227    0.9433 C   0  0  0  0  0  0  0  0  0  0  0  0
   -2.1350   -0.4436    1.9098 O   0  0  0  0  0  0  0  0  0  0  0  0
    1.0920   -0.5308   -1.3840 C   0  0  0  0  0  0  0  0  0  0  0  0
    1.7128    0.0954   -2.2013 O   0  0  0  0  0  0  0  0  0  0  0  0
    1.7776    1.7657   -0.1042 H   0  0  0  0  0  0  0  0  0  0  0  0
    0.2319    2.0850   -0.8838 H   0  0  0  0  0  0  0  0  0  0  0  0
    0.3259    1.9788    0.8869 H   0  0  0  0  0  0  0  0  0  0  0  0
    0.5678   -0.4101    2.0088 H   0  0  0  0  0  0  0  0  0  0  0  0
    0.9783   -1.7757    0.9716 H   0  0  0  0  0  0  0  0  0  0  0  0
    2.1327   -0.4447    1.1748 H   0  0  0  0  0  0  0  0  0  0  0  0
   -1.4691    0.1683   -1.1570 H   0  0  0  0  0  0  0  0  0  0  0  0
   -1.2033   -1.3727   -0.2968 H   0  0  0  0  0  0  0  0  0  0  0  0
   -2.1800    1.2875    0.8796 H   0  0  0  0  0  0  0  0  0  0  0  0
    0.9384   -1.6304   -1.4965 H   0  0  0  0  0  0  0  0  0  0  0  0
  1 11  1  0  0  0  0
  2  1  1  0  0  0  0
  2  3  1  0  0  0  0
  3 14  1  0  0  0  0
  3 12  1  0  0  0  0
  4  2  1  0  0  0  0
  4  5  1  0  0  0  0
  5  6  2  0  0  0  0
  7  2  1  0  0  0  0
  8  7  2  0  0  0  0
  9  1  1  0  0  0  0
 10  1  1  0  0  0  0
 13  3  1  0  0  0  0
 15  4  1  0  0  0  0
 16  4  1  0  0  0  0
 17  5  1  0  0  0  0
 18  7  1  0  0  0  0
M  END
