17
title
C 0.35039616 1.5549153 -0.18871114
C 0.33348358 0.021983264 -0.16067487
C 1.1893373 -0.53093445 1.0054944
N -1.035468 -0.50913006 -0.08585155
C -1.8966483 -0.31261522 0.94862926
O -1.6488599 0.28185782 1.9767885
C 0.9501269 -0.5572567 -1.4352458
O 1.7609187 0.003054751 -2.1198769
H 1.3721524 1.9121286 -0.33210906
H -0.2595744 1.9315246 -1.0145593
H -0.047117 1.9430004 0.7501978
H 0.7497639 -0.21620652 1.9523921
H 1.223365 -1.6248496 0.9829323
H 2.2096164 -0.14613514 0.9297087
H -1.4102936 -0.97231203 -0.90055877
H -2.8836884 -0.7753265 0.74527556
H 0.61365813 -1.5974346 -1.6688086
