16
title
C 0.88817436 1.5334046 0.19635722
C 0.63486636 0.03507854 0.019230865
O 1.1834842 -0.59227943 1.1846383
C -0.85569626 -0.2976319 -0.16565149
C -1.701326 0.10929994 1.0225334
O -2.7061486 0.76880985 0.945075
C 1.4613633 -0.47118753 -1.1698914
O 1.0174954 -1.0083313 -2.1494572
H 1.9611865 1.7308365 0.27121487
H 0.47951964 2.0992768 -0.6449727
H 0.41529733 1.8850126 1.1175523
H 1.04699 -1.5445282 1.1128658
H -1.2502635 0.17343368 -1.0685538
H -0.9542034 -1.3845123 -0.30066997
H -1.3283335 -0.25753325 2.0033379
H 2.5553172 -0.33053762 -1.0165578
