22
title
C 1.387868 2.5934658 -0.07210931
C 1.2173927 1.0705763 -0.074496746
C -0.24488656 0.54036826 0.022035437
C -0.91462916 0.99729264 1.3388706
C -1.0895056 1.0208219 -1.1809497
C -0.18826775 -0.9280385 0.004397458
C -0.13380222 -2.13155 -0.010612802
C -0.071654595 -3.5868707 -0.02849494
H 2.4496586 2.849927 -0.14340937
H 0.8819545 3.066562 -0.91917586
H 1.0044248 3.0500863 0.8453651
H 1.6626885 0.65771073 -0.9871316
H 1.783946 0.6413991 0.7600533
H -1.0226573 2.0857818 1.3666152
H -1.9110087 0.5565458 1.4333978
H -0.3244715 0.68564963 2.2058122
H -0.62514895 0.72611177 -2.1267374
H -2.0899565 0.58061796 -1.1451254
H -1.1989306 2.109498 -1.1732706
H -0.6352927 -4.0006266 -0.8723094
H 0.96136844 -3.9417496 -0.11686432
H -0.48991385 -4.01605 0.8889846
