20
title
C -0.92702276 2.5525782 -1.0612396
C -0.6990086 1.0392247 -1.0457357
C 0.10712035 0.52629423 0.17750652
C 1.5116988 1.1413975 0.2507711
O -0.5409228 0.92229325 1.3968419
C 0.19443311 -0.9410921 0.108467646
C 0.22669472 -2.1442459 0.051569294
C 0.28131294 -3.5980697 -0.009351542
H 0.0024342672 3.105503 -1.2267193
H -1.6183279 2.8262026 -1.8640501
H -1.353438 2.88501 -0.111203246
H -1.6659869 0.52082545 -1.0384167
H -0.18744133 0.71436596 -1.9591519
H 1.438847 2.2216256 0.39692038
H 2.0575066 0.7150772 1.0948614
H 2.06891 0.94061536 -0.6677701
H -1.3351266 0.38449138 1.4864842
H 0.10825981 -4.0426426 0.97695214
H -0.47501197 -4.00006 -0.69248354
H 1.2607971 -3.94279 -0.35883248
