title
 OpenBabel02282109573D

 20 19  0  0  0  0  0  0  0  0999 V2000
   -0.3333    1.5320    0.1794 C   0  0  0  0  0  0  0  0  0  0  0  0
   -0.2767   -0.0043    0.1638 C   0  0  0  0  0  0  0  0  0  0  0  0
    0.4352   -0.5261    1.4226 C   0  0  0  0  0  0  0  0  0  0  0  0
   -1.7031   -0.5748    0.1011 C   0  0  0  0  0  0  0  0  0  0  0  0
   -2.4219   -0.1500    1.2488 O   0  0  0  0  0  0  0  0  0  0  0  0
    0.4566   -0.5030   -1.1150 C   0  0  0  0  0  0  0  0  0  0  0  0
    1.8394   -0.0565   -1.2305 C   0  0  0  0  0  0  0  0  0  0  0  0
    2.9798    0.3133   -1.3229 C   0  0  0  0  0  0  0  0  0  0  0  0
    0.6739    1.9560    0.2134 H   0  0  0  0  0  0  0  0  0  0  0  0
   -0.8305    1.9169   -0.7186 H   0  0  0  0  0  0  0  0  0  0  0  0
   -0.8929    1.8821    1.0495 H   0  0  0  0  0  0  0  0  0  0  0  0
   -0.1076   -0.2203    2.3196 H   0  0  0  0  0  0  0  0  0  0  0  0
    0.4903   -1.6210    1.4186 H   0  0  0  0  0  0  0  0  0  0  0  0
    1.4561   -0.1387    1.4785 H   0  0  0  0  0  0  0  0  0  0  0  0
   -2.1950   -0.2255   -0.8219 H   0  0  0  0  0  0  0  0  0  0  0  0
   -1.6536   -1.6754    0.0537 H   0  0  0  0  0  0  0  0  0  0  0  0
   -3.3106   -0.5128    1.2000 H   0  0  0  0  0  0  0  0  0  0  0  0
    0.4352   -1.6012   -1.1357 H   0  0  0  0  0  0  0  0  0  0  0  0
   -0.0998   -0.1684   -2.0012 H   0  0  0  0  0  0  0  0  0  0  0  0
    3.9874    0.6363   -1.4107 H   0  0  0  0  0  0  0  0  0  0  0  0
  1  9  1  0  0  0  0
  1 11  1  0  0  0  0
  2  1  1  0  0  0  0
  2  3  1  0  0  0  0
  3 14  1  0  0  0  0
  3 12  1  0  0  0  0
  4  2  1  0  0  0  0
  4  5  1  0  0  0  0
  6  2  1  0  0  0  0
  7  6  1  0  0  0  0
  8  7  3  0  0  0  0
 10  1  1  0  0  0  0
 13  3  1  0  0  0  0
 15  4  1  0  0  0  0
 16  4  1  0  0  0  0
 17  5  1  0  0  0  0
 18  6  1  0  0  0  0
 19  6  1  0  0  0  0
 20  8  1  0  0  0  0
M  END
