title
 OpenBabel02282109573D

 18 17  0  0  1  0  0  0  0  0999 V2000
   -0.3456    1.5838    0.1070 C   0  0  0  0  0  0  0  0  0  0  0  0
   -0.3135    0.0535    0.0499 C   0  0  1  0  0  0  0  0  0  0  0  0
    0.2798   -0.4812    1.2350 O   0  0  0  0  0  0  0  0  0  0  0  0
   -1.7339   -0.5345    0.0578 C   0  0  0  0  0  0  0  0  0  0  0  0
   -2.4283   -0.1984    1.2390 O   0  0  0  0  0  0  0  0  0  0  0  0
    0.4567   -0.4617   -1.1952 C   0  0  0  0  0  0  0  0  0  0  0  0
    1.8712   -0.1137   -1.1439 C   0  0  0  0  0  0  0  0  0  0  0  0
    3.0331    0.1803   -1.0386 C   0  0  0  0  0  0  0  0  0  0  0  0
    0.6665    1.9895    0.1976 H   0  0  0  0  0  0  0  0  0  0  0  0
   -0.7957    2.0022   -0.7994 H   0  0  0  0  0  0  0  0  0  0  0  0
   -0.9396    1.9031    0.9653 H   0  0  0  0  0  0  0  0  0  0  0  0
    1.1929   -0.1727    1.2728 H   0  0  0  0  0  0  0  0  0  0  0  0
   -2.3118   -0.1346   -0.7818 H   0  0  0  0  0  0  0  0  0  0  0  0
   -1.6611   -1.6270   -0.0658 H   0  0  0  0  0  0  0  0  0  0  0  0
   -1.8344   -0.4325    1.9632 H   0  0  0  0  0  0  0  0  0  0  0  0
    0.3548   -1.5526   -1.2419 H   0  0  0  0  0  0  0  0  0  0  0  0
    0.0011   -0.0553   -2.1065 H   0  0  0  0  0  0  0  0  0  0  0  0
    4.0628    0.4341   -0.9810 H   0  0  0  0  0  0  0  0  0  0  0  0
  1  9  1  0  0  0  0
  1 11  1  0  0  0  0
  2  4  1  0  0  0  0
  2  1  1  0  0  0  0
  2  3  1  1  0  0  0
  3 12  1  0  0  0  0
  4  5  1  0  0  0  0
  5 15  1  0  0  0  0
  6  7  1  0  0  0  0
  6  2  1  0  0  0  0
  7  8  3  0  0  0  0
  8 18  1  0  0  0  0
 10  1  1  0  0  0  0
 13  4  1  0  0  0  0
 14  4  1  0  0  0  0
 16  6  1  0  0  0  0
 17  6  1  0  0  0  0
M  END
