17
title
C -0.28045517 1.5489553 0.17797717
C -0.30913135 0.015682245 0.11679156
O 0.33152837 -0.5486356 1.2503871
C -1.7564521 -0.50336105 0.06563356
O -2.347561 -0.15554154 1.3117802
C 0.45175177 -0.5275791 -1.111354
C 1.8339787 -0.06056774 -1.1874461
N 2.9242218 0.31265488 -1.2686273
H 0.74737924 1.8986902 0.2953073
H -0.701112 1.9930147 -0.730788
H -0.8712296 1.8950357 1.0293471
H -0.28441796 -0.43222013 1.9852506
H -2.302008 -0.05050648 -0.77577245
H -1.7426741 -1.593854 -0.07170541
H -3.1572616 -0.66033715 1.4248133
H 0.45874536 -1.6215026 -1.0653235
H -0.06479311 -0.23386331 -2.0319536
