title
 OpenBabel02282109573D

 21 20  0  0  0  0  0  0  0  0999 V2000
    1.8660    2.3249   -0.0054 C   0  0  0  0  0  0  0  0  0  0  0  0
    1.6579    0.8067   -0.0116 C   0  0  0  0  0  0  0  0  0  0  0  0
    0.1889    0.3131   -0.0001 C   0  0  0  0  0  0  0  0  0  0  0  0
   -0.5431    0.7784    1.2707 C   0  0  0  0  0  0  0  0  0  0  0  0
   -0.5674    0.7919   -1.2514 C   0  0  0  0  0  0  0  0  0  0  0  0
    0.2611   -1.2441   -0.0091 C   0  0  0  0  0  0  0  0  0  0  0  0
   -1.0443   -1.9008   -0.0000 C   0  0  0  0  0  0  0  0  0  0  0  0
   -2.0833   -2.4078    0.0065 N   0  0  0  0  0  0  0  0  0  0  0  0
    2.9355    2.5561   -0.0144 H   0  0  0  0  0  0  0  0  0  0  0  0
    1.4217    2.8032   -0.8831 H   0  0  0  0  0  0  0  0  0  0  0  0
    1.4386    2.7937    0.8857 H   0  0  0  0  0  0  0  0  0  0  0  0
    2.1557    0.3864   -0.8959 H   0  0  0  0  0  0  0  0  0  0  0  0
    2.1727    0.3770    0.8584 H   0  0  0  0  0  0  0  0  0  0  0  0
   -0.6444    1.8667    1.2900 H   0  0  0  0  0  0  0  0  0  0  0  0
   -1.5494    0.3521    1.3216 H   0  0  0  0  0  0  0  0  0  0  0  0
   -0.0022    0.4750    2.1743 H   0  0  0  0  0  0  0  0  0  0  0  0
   -0.0441    0.4983   -2.1684 H   0  0  0  0  0  0  0  0  0  0  0  0
   -1.5746    0.3660   -1.2874 H   0  0  0  0  0  0  0  0  0  0  0  0
   -0.6690    1.8803   -1.2571 H   0  0  0  0  0  0  0  0  0  0  0  0
    0.8079   -1.5850   -0.8964 H   0  0  0  0  0  0  0  0  0  0  0  0
    0.8248   -1.5945    0.8638 H   0  0  0  0  0  0  0  0  0  0  0  0
  1 11  1  0  0  0  0
  2  1  1  0  0  0  0
  2  3  1  0  0  0  0
  2 13  1  0  0  0  0
  3  4  1  0  0  0  0
  4 14  1  0  0  0  0
  4 15  1  0  0  0  0
  4 16  1  0  0  0  0
  5  3  1  0  0  0  0
  6  3  1  0  0  0  0
  6  7  1  0  0  0  0
  6 21  1  0  0  0  0
  7  8  3  0  0  0  0
  9  1  1  0  0  0  0
 10  1  1  0  0  0  0
 12  2  1  0  0  0  0
 17  5  1  0  0  0  0
 18  5  1  0  0  0  0
 19  5  1  0  0  0  0
 20  6  1  0  0  0  0
M  END
