title
 OpenBabel02282109573D

 20 19  0  0  1  0  0  0  0  0999 V2000
   -1.1013    2.2499   -1.5249 C   0  0  0  0  0  0  0  0  0  0  0  0
   -0.8618    0.7398   -1.4544 C   0  0  0  0  0  0  0  0  0  0  0  0
   -0.0831    0.2700   -0.2047 C   0  0  1  0  0  0  0  0  0  0  0  0
    1.3102    0.8948   -0.1185 C   0  0  0  0  0  0  0  0  0  0  0  0
   -0.7580    0.6828    0.9831 O   0  0  0  0  0  0  0  0  0  0  0  0
    0.0129   -1.2833   -0.2486 C   0  0  0  0  0  0  0  0  0  0  0  0
    0.6502   -1.8831    0.9158 C   0  0  0  0  0  0  0  0  0  0  0  0
    1.1769   -2.3866    1.8717 C   0  0  0  0  0  0  0  0  0  0  0  0
   -0.1714    2.8024   -1.6882 H   0  0  0  0  0  0  0  0  0  0  0  0
   -1.7784    2.4952   -2.3486 H   0  0  0  0  0  0  0  0  0  0  0  0
   -1.5465    2.6100   -0.5935 H   0  0  0  0  0  0  0  0  0  0  0  0
   -1.8317    0.2213   -1.4583 H   0  0  0  0  0  0  0  0  0  0  0  0
   -0.3344    0.3981   -2.3540 H   0  0  0  0  0  0  0  0  0  0  0  0
    1.2341    1.9762    0.0132 H   0  0  0  0  0  0  0  0  0  0  0  0
    1.8515    0.4836    0.7363 H   0  0  0  0  0  0  0  0  0  0  0  0
    1.8837    0.6919   -1.0280 H   0  0  0  0  0  0  0  0  0  0  0  0
   -1.6166    0.2460    1.0100 H   0  0  0  0  0  0  0  0  0  0  0  0
   -1.0031   -1.6895   -0.3552 H   0  0  0  0  0  0  0  0  0  0  0  0
    0.5503   -1.5804   -1.1582 H   0  0  0  0  0  0  0  0  0  0  0  0
    1.6399   -2.8275    2.7193 H   0  0  0  0  0  0  0  0  0  0  0  0
  1  2  1  0  0  0  0
  1 11  1  0  0  0  0
  2  3  1  0  0  0  0
  3  4  1  0  0  0  0
  3  5  1  1  0  0  0
  4 14  1  0  0  0  0
  4 15  1  0  0  0  0
  5 17  1  0  0  0  0
  6  3  1  0  0  0  0
  6  7  1  0  0  0  0
  7  8  3  0  0  0  0
  8 20  1  0  0  0  0
  9  1  1  0  0  0  0
 10  1  1  0  0  0  0
 12  2  1  0  0  0  0
 13  2  1  0  0  0  0
 16  4  1  0  0  0  0
 18  6  1  0  0  0  0
 19  6  1  0  0  0  0
M  END
