19
title
C 1.8115363 2.3177047 -0.14255735
C 1.6759173 0.7990487 -0.0061832885
C 0.21900019 0.28731182 0.033379097
C -0.57403934 0.8601067 1.2091589
O -0.4888846 0.6886377 -1.1353979
C 0.25994584 -1.2678566 0.10908257
C -1.0614663 -1.8879588 0.065023825
N -2.103303 -2.3868022 0.03813572
H 2.8559103 2.5955405 -0.31114414
H 1.2177712 2.6835463 -0.9844748
H 1.4736818 2.838435 0.7579148
H 2.1787493 0.31406358 -0.85575783
H 2.201623 0.45201096 0.8920922
H -0.6665832 1.9430574 1.1087161
H -1.5806607 0.43573034 1.2289854
H -0.07947126 0.6362568 2.1590574
H -0.009197621 0.37439334 -1.9101812
H 0.85269624 -1.656847 -0.7281895
H 0.7680437 -1.5864732 1.0261904
