20
title
C -0.82841414 2.1611295 -0.70332414
O -0.8116473 0.76295966 -0.52969676
C -0.11028827 0.23555775 0.6002868
C 1.34374 0.7223608 0.662134
C -0.85638 0.5674055 1.9027987
C -0.1690864 -1.2969642 0.37257576
C 0.54718125 -1.7619407 -0.80820626
C 1.1445354 -2.1640773 -1.7705542
H 0.16759753 2.5735173 -0.9150675
H -1.469548 2.3546207 -1.5672717
H -1.2482449 2.6954396 0.16115277
H 1.3993778 1.791812 0.8833967
H 1.8828585 0.19510223 1.4553704
H 1.8530169 0.5289936 -0.28486994
H -1.8977543 0.23792012 1.8400807
H -0.38505387 0.07188924 2.7572467
H -0.84798133 1.6422458 2.104175
H 0.22544396 -1.8002236 1.2634451
H -1.2259053 -1.5765984 0.29001504
H 1.6635623 -2.5156527 -2.6272771
