20
title
C -0.39139158 1.6947287 0.15975995
C -0.34875464 0.1546844 0.173802
C 0.30513984 -0.3494572 1.4732382
C -1.7867328 -0.38859808 0.08138831
O -2.530376 0.08106038 1.195065
C 0.41331267 -0.40209043 -1.060834
C 1.8692644 -0.0005711928 -1.1299484
O 2.7923236 -0.77439773 -1.0902468
H 0.5988412 2.130497 0.32063448
H -0.7757528 2.0719454 -0.7949665
H -1.0511559 2.05389 0.9524374
H -0.28430167 -0.03783393 2.3380666
H 0.37039673 -1.4429656 1.4818567
H 1.3206055 0.04291731 1.5866761
H -2.2414613 -0.05345647 -0.8654633
H -1.7567428 -1.4897658 0.06361315
H -3.4184334 -0.28242114 1.1417663
H 0.37413508 -1.4962144 -1.0731858
H -0.0725852 -0.028831126 -1.9745243
H 2.0538912 1.092311 -1.2349734
