title
 OpenBabel02282109573D

 20 19  0  0  0  0  0  0  0  0999 V2000
   -0.3914    1.6947    0.1598 C   0  0  0  0  0  0  0  0  0  0  0  0
   -0.3488    0.1547    0.1738 C   0  0  0  0  0  0  0  0  0  0  0  0
    0.3051   -0.3495    1.4732 C   0  0  0  0  0  0  0  0  0  0  0  0
   -1.7867   -0.3886    0.0814 C   0  0  0  0  0  0  0  0  0  0  0  0
   -2.5304    0.0811    1.1951 O   0  0  0  0  0  0  0  0  0  0  0  0
    0.4133   -0.4021   -1.0608 C   0  0  0  0  0  0  0  0  0  0  0  0
    1.8693   -0.0006   -1.1299 C   0  0  0  0  0  0  0  0  0  0  0  0
    2.7923   -0.7744   -1.0902 O   0  0  0  0  0  0  0  0  0  0  0  0
    0.5988    2.1305    0.3206 H   0  0  0  0  0  0  0  0  0  0  0  0
   -0.7758    2.0719   -0.7950 H   0  0  0  0  0  0  0  0  0  0  0  0
   -1.0512    2.0539    0.9524 H   0  0  0  0  0  0  0  0  0  0  0  0
   -0.2843   -0.0378    2.3381 H   0  0  0  0  0  0  0  0  0  0  0  0
    0.3704   -1.4430    1.4819 H   0  0  0  0  0  0  0  0  0  0  0  0
    1.3206    0.0429    1.5867 H   0  0  0  0  0  0  0  0  0  0  0  0
   -2.2415   -0.0535   -0.8655 H   0  0  0  0  0  0  0  0  0  0  0  0
   -1.7567   -1.4898    0.0636 H   0  0  0  0  0  0  0  0  0  0  0  0
   -3.4184   -0.2824    1.1418 H   0  0  0  0  0  0  0  0  0  0  0  0
    0.3741   -1.4962   -1.0732 H   0  0  0  0  0  0  0  0  0  0  0  0
   -0.0726   -0.0288   -1.9745 H   0  0  0  0  0  0  0  0  0  0  0  0
    2.0539    1.0923   -1.2350 H   0  0  0  0  0  0  0  0  0  0  0  0
  1  2  1  0  0  0  0
  1  9  1  0  0  0  0
  1 11  1  0  0  0  0
  2  3  1  0  0  0  0
  3 13  1  0  0  0  0
  3 14  1  0  0  0  0
  3 12  1  0  0  0  0
  4  2  1  0  0  0  0
  4  5  1  0  0  0  0
  6  2  1  0  0  0  0
  7  8  2  0  0  0  0
  7  6  1  0  0  0  0
 10  1  1  0  0  0  0
 15  4  1  0  0  0  0
 16  4  1  0  0  0  0
 17  5  1  0  0  0  0
 18  6  1  0  0  0  0
 19  6  1  0  0  0  0
 20  7  1  0  0  0  0
M  END
