title
 OpenBabel02282109573D

 19 18  0  0  0  0  0  0  0  0999 V2000
   -0.3317    1.5342    0.1760 C   0  0  0  0  0  0  0  0  0  0  0  0
   -0.2746   -0.0027    0.1667 C   0  0  0  0  0  0  0  0  0  0  0  0
    0.4376   -0.5320    1.4228 C   0  0  0  0  0  0  0  0  0  0  0  0
   -1.6981   -0.5840    0.0806 C   0  0  0  0  0  0  0  0  0  0  0  0
   -2.4242   -0.1709    1.2207 O   0  0  0  0  0  0  0  0  0  0  0  0
    0.4096   -0.4819   -1.0501 N   0  0  0  0  0  0  0  0  0  0  0  0
    1.6937   -0.2111   -1.3960 C   0  0  0  0  0  0  0  0  0  0  0  0
    2.4783    0.4689   -0.7662 O   0  0  0  0  0  0  0  0  0  0  0  0
    0.6772    1.9465    0.2145 H   0  0  0  0  0  0  0  0  0  0  0  0
   -0.8248    1.9052   -0.7286 H   0  0  0  0  0  0  0  0  0  0  0  0
   -0.8996    1.8768    1.0435 H   0  0  0  0  0  0  0  0  0  0  0  0
   -0.1122   -0.2268    2.3156 H   0  0  0  0  0  0  0  0  0  0  0  0
    0.4864   -1.6258    1.4043 H   0  0  0  0  0  0  0  0  0  0  0  0
    1.4544   -0.1403    1.4696 H   0  0  0  0  0  0  0  0  0  0  0  0
   -2.1740   -0.2266   -0.8481 H   0  0  0  0  0  0  0  0  0  0  0  0
   -1.6319   -1.6839    0.0258 H   0  0  0  0  0  0  0  0  0  0  0  0
   -3.3160   -0.5240    1.1589 H   0  0  0  0  0  0  0  0  0  0  0  0
   -0.1094   -1.0719   -1.6825 H   0  0  0  0  0  0  0  0  0  0  0  0
    1.9626   -0.6970   -2.3575 H   0  0  0  0  0  0  0  0  0  0  0  0
  1  9  1  0  0  0  0
  1 11  1  0  0  0  0
  2  1  1  0  0  0  0
  2  3  1  0  0  0  0
  3 14  1  0  0  0  0
  3 12  1  0  0  0  0
  4  2  1  0  0  0  0
  4  5  1  0  0  0  0
  6  2  1  0  0  0  0
  7  6  1  0  0  0  0
  7  8  2  0  0  0  0
 10  1  1  0  0  0  0
 13  3  1  0  0  0  0
 15  4  1  0  0  0  0
 16  4  1  0  0  0  0
 17  5  1  0  0  0  0
 18  6  1  0  0  0  0
 19  7  1  0  0  0  0
M  END
