title
 OpenBabel02282109573D

 18 17  0  0  1  0  0  0  0  0999 V2000
   -0.2958    1.5644    0.1160 C   0  0  0  0  0  0  0  0  0  0  0  0
   -0.3389    0.0308    0.2170 C   0  0  1  0  0  0  0  0  0  0  0  0
    0.2447   -0.4037    1.4436 O   0  0  0  0  0  0  0  0  0  0  0  0
   -1.7897   -0.4728    0.1726 C   0  0  0  0  0  0  0  0  0  0  0  0
   -2.4272    0.0249    1.3456 O   0  0  0  0  0  0  0  0  0  0  0  0
    0.4746   -0.6339   -0.9068 C   0  0  0  0  0  0  0  0  0  0  0  0
    1.9379   -0.2401   -0.8933 C   0  0  0  0  0  0  0  0  0  0  0  0
    2.5491    0.1265   -1.8653 O   0  0  0  0  0  0  0  0  0  0  0  0
    0.7280    1.9240    0.2486 H   0  0  0  0  0  0  0  0  0  0  0  0
   -0.6583    1.9080   -0.8584 H   0  0  0  0  0  0  0  0  0  0  0  0
   -0.9236    2.0097    0.8916 H   0  0  0  0  0  0  0  0  0  0  0  0
   -0.4094   -0.2084    2.1270 H   0  0  0  0  0  0  0  0  0  0  0  0
   -2.2946   -0.1183   -0.7379 H   0  0  0  0  0  0  0  0  0  0  0  0
   -1.7856   -1.5717    0.1660 H   0  0  0  0  0  0  0  0  0  0  0  0
   -3.2567   -0.4434    1.4711 H   0  0  0  0  0  0  0  0  0  0  0  0
    0.4342   -1.7214   -0.7548 H   0  0  0  0  0  0  0  0  0  0  0  0
    0.0598   -0.4021   -1.8917 H   0  0  0  0  0  0  0  0  0  0  0  0
    2.4275   -0.3304    0.0987 H   0  0  0  0  0  0  0  0  0  0  0  0
  1  2  1  0  0  0  0
  1  9  1  0  0  0  0
  1 11  1  0  0  0  0
  2  3  1  1  0  0  0
  3 12  1  0  0  0  0
  4  2  1  0  0  0  0
  4  5  1  0  0  0  0
  5 15  1  0  0  0  0
  6  7  1  0  0  0  0
  6 16  1  0  0  0  0
  6  2  1  0  0  0  0
  7 18  1  0  0  0  0
  8  7  2  0  0  0  0
 10  1  1  0  0  0  0
 13  4  1  0  0  0  0
 14  4  1  0  0  0  0
 17  6  1  0  0  0  0
M  END
