title
 OpenBabel02282109573D

 22 21  0  0  0  0  0  0  0  0999 V2000
   -1.1501    2.2880    1.6091 C   0  0  0  0  0  0  0  0  0  0  0  0
   -1.0112    0.7796    1.3731 C   0  0  0  0  0  0  0  0  0  0  0  0
   -0.2141    0.3422    0.1168 C   0  0  0  0  0  0  0  0  0  0  0  0
   -0.9414    0.7896   -1.1664 C   0  0  0  0  0  0  0  0  0  0  0  0
    1.2102    0.9266    0.1412 C   0  0  0  0  0  0  0  0  0  0  0  0
   -0.1292   -1.2168    0.1702 C   0  0  0  0  0  0  0  0  0  0  0  0
    0.4991   -1.8381   -1.0561 C   0  0  0  0  0  0  0  0  0  0  0  0
    1.6597   -2.1555   -1.1415 O   0  0  0  0  0  0  0  0  0  0  0  0
   -0.1791    2.7713    1.7514 H   0  0  0  0  0  0  0  0  0  0  0  0
   -1.6572    2.7916    0.7804 H   0  0  0  0  0  0  0  0  0  0  0  0
   -1.7417    2.4726    2.5113 H   0  0  0  0  0  0  0  0  0  0  0  0
   -0.5334    0.3295    2.2532 H   0  0  0  0  0  0  0  0  0  0  0  0
   -2.0140    0.3359    1.3142 H   0  0  0  0  0  0  0  0  0  0  0  0
   -1.0671    1.8758   -1.1889 H   0  0  0  0  0  0  0  0  0  0  0  0
   -0.3792    0.5159   -2.0650 H   0  0  0  0  0  0  0  0  0  0  0  0
   -1.9367    0.3368   -1.2409 H   0  0  0  0  0  0  0  0  0  0  0  0
    1.7099    0.7059    1.0907 H   0  0  0  0  0  0  0  0  0  0  0  0
    1.8265    0.5070   -0.6587 H   0  0  0  0  0  0  0  0  0  0  0  0
    1.1931    2.0129    0.0141 H   0  0  0  0  0  0  0  0  0  0  0  0
    0.4639   -1.5144    1.0409 H   0  0  0  0  0  0  0  0  0  0  0  0
   -1.1436   -1.6217    0.2802 H   0  0  0  0  0  0  0  0  0  0  0  0
   -0.1891   -1.9873   -1.9194 H   0  0  0  0  0  0  0  0  0  0  0  0
  1  9  1  0  0  0  0
  1 11  1  0  0  0  0
  2  1  1  0  0  0  0
  2 12  1  0  0  0  0
  3  5  1  0  0  0  0
  3  6  1  0  0  0  0
  3  2  1  0  0  0  0
  4  3  1  0  0  0  0
  5 17  1  0  0  0  0
  6 21  1  0  0  0  0
  6 20  1  0  0  0  0
  7  6  1  0  0  0  0
  8  7  2  0  0  0  0
 10  1  1  0  0  0  0
 13  2  1  0  0  0  0
 14  4  1  0  0  0  0
 15  4  1  0  0  0  0
 16  4  1  0  0  0  0
 18  5  1  0  0  0  0
 19  5  1  0  0  0  0
 22  7  1  0  0  0  0
M  END
