title
 OpenBabel02282109573D

 21 20  0  0  0  0  0  0  0  0999 V2000
    1.9032    2.2697   -0.0060 C   0  0  0  0  0  0  0  0  0  0  0  0
    1.6630    0.7579   -0.0118 C   0  0  0  0  0  0  0  0  0  0  0  0
    0.1856    0.3010   -0.0001 C   0  0  0  0  0  0  0  0  0  0  0  0
   -0.5383    0.7737    1.2739 C   0  0  0  0  0  0  0  0  0  0  0  0
   -0.5626    0.7873   -1.2547 C   0  0  0  0  0  0  0  0  0  0  0  0
    0.2404   -1.1787   -0.0085 N   0  0  0  0  0  0  0  0  0  0  0  0
   -0.8201   -2.0234   -0.0030 C   0  0  0  0  0  0  0  0  0  0  0  0
   -1.9938   -1.7069    0.0096 O   0  0  0  0  0  0  0  0  0  0  0  0
    2.9773    2.4780   -0.0152 H   0  0  0  0  0  0  0  0  0  0  0  0
    1.4679    2.7551   -0.8841 H   0  0  0  0  0  0  0  0  0  0  0  0
    1.4849    2.7457    0.8853 H   0  0  0  0  0  0  0  0  0  0  0  0
    2.1442    0.3243   -0.8993 H   0  0  0  0  0  0  0  0  0  0  0  0
    2.1611    0.3149    0.8616 H   0  0  0  0  0  0  0  0  0  0  0  0
   -0.6278    1.8634    1.2863 H   0  0  0  0  0  0  0  0  0  0  0  0
   -1.5404    0.3442    1.3120 H   0  0  0  0  0  0  0  0  0  0  0  0
    0.0097    0.4621    2.1691 H   0  0  0  0  0  0  0  0  0  0  0  0
   -0.0319    0.4853   -2.1636 H   0  0  0  0  0  0  0  0  0  0  0  0
   -1.5653    0.3581   -1.2782 H   0  0  0  0  0  0  0  0  0  0  0  0
   -0.6522    1.8770   -1.2538 H   0  0  0  0  0  0  0  0  0  0  0  0
    1.1539   -1.6051   -0.0196 H   0  0  0  0  0  0  0  0  0  0  0  0
   -0.4903   -3.0835   -0.0121 H   0  0  0  0  0  0  0  0  0  0  0  0
  1 11  1  0  0  0  0
  2  1  1  0  0  0  0
  2  3  1  0  0  0  0
  2 13  1  0  0  0  0
  3  4  1  0  0  0  0
  4 14  1  0  0  0  0
  4 15  1  0  0  0  0
  4 16  1  0  0  0  0
  5 19  1  0  0  0  0
  5  3  1  0  0  0  0
  6  7  1  0  0  0  0
  6  3  1  0  0  0  0
  7  8  2  0  0  0  0
  9  1  1  0  0  0  0
 10  1  1  0  0  0  0
 12  2  1  0  0  0  0
 17  5  1  0  0  0  0
 18  5  1  0  0  0  0
 20  6  1  0  0  0  0
 21  7  1  0  0  0  0
M  END
