18
title
C 0.7403488 1.7497178 -0.12326254
C 0.65899783 0.21182156 -0.10624293
N 1.3818163 -0.28112274 1.075736
C -0.7984171 -0.3055623 -0.06312
C -1.5974839 0.13651465 1.1603426
O -2.8473437 -0.5347286 1.0840967
C 1.2766182 -0.2982819 -1.3592186
N 1.7889246 -0.7165763 -2.3080685
H 1.7766095 2.0767126 -0.24966177
H 0.15299416 2.161742 -0.94737506
H 0.36774495 2.1483722 0.8222549
H 1.407389 -1.2973679 1.0675606
H 2.3483903 0.031482834 1.0468073
H -1.3193767 0.012688 -0.9715322
H -0.7857635 -1.4013429 -0.080129646
H -1.0491165 -0.12351159 2.0752246
H -1.737654 1.2279332 1.1545991
H -3.3653483 -0.29014271 1.8563038
