18
title
C 0.79972625 1.7332917 -0.10942849
C 0.6607757 0.20402235 -0.13156007
O 1.3379475 -0.25456744 1.0472937
C -0.815752 -0.2616878 -0.1245085
C -1.6096215 0.18081829 1.1003366
O -2.8638256 -0.48674244 1.0425624
C 1.3195854 -0.34342146 -1.3289181
C 1.8496741 -0.82461095 -2.294832
H 1.8535415 2.0089421 -0.18348296
H 0.25690737 2.1817944 -0.94486874
H 0.40516755 2.1296203 0.82913065
H 1.4309862 -1.2110649 0.9754563
H -1.3120102 0.08887468 -1.0356274
H -0.8347999 -1.3571953 -0.1617839
H -1.0513322 -0.08210168 2.009583
H -1.7475607 1.2726035 1.0981141
H -3.3739722 -0.22778952 1.8153925
H 2.3250744 -1.2404904 -3.1488442
