title
 OpenBabel02282109573D

 18 17  0  0  1  0  0  0  0  0999 V2000
    0.7997    1.7333   -0.1094 C   0  0  0  0  0  0  0  0  0  0  0  0
    0.6608    0.2040   -0.1316 C   0  0  1  0  0  0  0  0  0  0  0  0
    1.3379   -0.2546    1.0473 O   0  0  0  0  0  0  0  0  0  0  0  0
   -0.8158   -0.2617   -0.1245 C   0  0  0  0  0  0  0  0  0  0  0  0
   -1.6096    0.1808    1.1003 C   0  0  0  0  0  0  0  0  0  0  0  0
   -2.8638   -0.4867    1.0426 O   0  0  0  0  0  0  0  0  0  0  0  0
    1.3196   -0.3434   -1.3289 C   0  0  0  0  0  0  0  0  0  0  0  0
    1.8497   -0.8246   -2.2948 C   0  0  0  0  0  0  0  0  0  0  0  0
    1.8535    2.0089   -0.1835 H   0  0  0  0  0  0  0  0  0  0  0  0
    0.2569    2.1818   -0.9449 H   0  0  0  0  0  0  0  0  0  0  0  0
    0.4052    2.1296    0.8291 H   0  0  0  0  0  0  0  0  0  0  0  0
    1.4310   -1.2111    0.9755 H   0  0  0  0  0  0  0  0  0  0  0  0
   -1.3120    0.0889   -1.0356 H   0  0  0  0  0  0  0  0  0  0  0  0
   -0.8348   -1.3572   -0.1618 H   0  0  0  0  0  0  0  0  0  0  0  0
   -1.0513   -0.0821    2.0096 H   0  0  0  0  0  0  0  0  0  0  0  0
   -1.7476    1.2726    1.0981 H   0  0  0  0  0  0  0  0  0  0  0  0
   -3.3740   -0.2278    1.8154 H   0  0  0  0  0  0  0  0  0  0  0  0
    2.3251   -1.2405   -3.1488 H   0  0  0  0  0  0  0  0  0  0  0  0
  1 11  1  0  0  0  0
  2  7  1  6  0  0  0
  2  4  1  0  0  0  0
  2  1  1  0  0  0  0
  2  3  1  0  0  0  0
  4  5  1  0  0  0  0
  5 15  1  0  0  0  0
  6  5  1  0  0  0  0
  6 17  1  0  0  0  0
  8  7  3  0  0  0  0
  9  1  1  0  0  0  0
 10  1  1  0  0  0  0
 12  3  1  0  0  0  0
 13  4  1  0  0  0  0
 14  4  1  0  0  0  0
 16  5  1  0  0  0  0
 18  8  1  0  0  0  0
M  END
