17
title
C 0.80803114 1.7273304 -0.10783243
C 0.64809227 0.20136176 -0.109911956
O 1.3427666 -0.26432046 1.0435184
C -0.82644945 -0.26023567 -0.10895876
C -1.6223956 0.2037871 1.1081508
O -2.867656 -0.4753564 1.0587674
C 1.2997701 -0.3512875 -1.325335
N 1.8040453 -0.8089066 -2.2590923
H 1.8655537 1.9901335 -0.17366485
H 0.27773544 2.1728594 -0.9525249
H 0.408999 2.1341789 0.8235955
H 1.315611 -1.2283373 1.0472989
H -1.3170263 0.08013708 -1.0267283
H -0.85212463 -1.3563166 -0.13150889
H -1.063629 -0.035462897 2.0240374
H -1.7662147 1.2941922 1.0814005
H -3.3932292 -0.19400133 1.8133183
