title
 OpenBabel02282109573D

 22 21  0  0  0  0  0  0  0  0999 V2000
    1.1974    3.0557    0.0049 C   0  0  0  0  0  0  0  0  0  0  0  0
    1.3097    1.5271   -0.0044 C   0  0  0  0  0  0  0  0  0  0  0  0
   -0.0685    0.8535    0.0052 C   0  0  0  0  0  0  0  0  0  0  0  0
   -0.0859   -0.7045   -0.0030 C   0  0  0  0  0  0  0  0  0  0  0  0
    0.5881   -1.2665   -1.2766 C   0  0  0  0  0  0  0  0  0  0  0  0
    0.6124   -1.2801    1.2514 C   0  0  0  0  0  0  0  0  0  0  0  0
   -1.4920   -1.1281    0.0083 C   0  0  0  0  0  0  0  0  0  0  0  0
   -2.6459   -1.4669    0.0174 C   0  0  0  0  0  0  0  0  0  0  0  0
    2.1850    3.5273   -0.0020 H   0  0  0  0  0  0  0  0  0  0  0  0
    0.6483    3.4177   -0.8713 H   0  0  0  0  0  0  0  0  0  0  0  0
    0.6652    3.4081    0.8954 H   0  0  0  0  0  0  0  0  0  0  0  0
    1.8770    1.2151   -0.8890 H   0  0  0  0  0  0  0  0  0  0  0  0
    1.8938    1.2056    0.8658 H   0  0  0  0  0  0  0  0  0  0  0  0
   -0.6251    1.1913    0.8883 H   0  0  0  0  0  0  0  0  0  0  0  0
   -0.6419    1.2007   -0.8633 H   0  0  0  0  0  0  0  0  0  0  0  0
    1.6537   -1.0206   -1.2926 H   0  0  0  0  0  0  0  0  0  0  0  0
    0.4910   -2.3551   -1.3117 H   0  0  0  0  0  0  0  0  0  0  0  0
    0.1238   -0.8564   -2.1782 H   0  0  0  0  0  0  0  0  0  0  0  0
    0.1656   -0.8797    2.1661 H   0  0  0  0  0  0  0  0  0  0  0  0
    0.5160   -2.3690    1.2767 H   0  0  0  0  0  0  0  0  0  0  0  0
    1.6782   -1.0342    1.2496 H   0  0  0  0  0  0  0  0  0  0  0  0
   -3.6639   -1.7686    0.0251 H   0  0  0  0  0  0  0  0  0  0  0  0
  1 11  1  0  0  0  0
  2  1  1  0  0  0  0
  2  3  1  0  0  0  0
  2 13  1  0  0  0  0
  3 14  1  0  0  0  0
  4  3  1  0  0  0  0
  4  7  1  0  0  0  0
  4  6  1  0  0  0  0
  5  4  1  0  0  0  0
  6 20  1  0  0  0  0
  6 19  1  0  0  0  0
  7  8  3  0  0  0  0
  8 22  1  0  0  0  0
  9  1  1  0  0  0  0
 10  1  1  0  0  0  0
 12  2  1  0  0  0  0
 15  3  1  0  0  0  0
 16  5  1  0  0  0  0
 17  5  1  0  0  0  0
 18  5  1  0  0  0  0
 21  6  1  0  0  0  0
M  END
