21
title
C 1.2186191 3.0578225 0.0046681357
C 1.3245896 1.5289615 -0.0044579348
C -0.058259226 0.8651083 0.0053836904
C -0.06980441 -0.6924001 -0.0029364938
C 0.58558136 -1.2655169 -1.2800176
C 0.6096601 -1.2792786 1.2551465
C -1.4842733 -1.1082948 0.008341929
N -2.5949254 -1.4293998 0.0166422
H 2.2090793 3.522547 -0.0024244224
H 0.67192173 3.422261 -0.8717692
H 0.6889725 3.4128888 0.89530665
H 1.8890307 1.2134026 -0.88946533
H 1.9059856 1.2040982 0.8660844
H -0.6123934 1.2043394 0.88911366
H -0.62937987 1.2138058 -0.86372775
H 1.651796 -1.0261177 -1.2970757
H 0.48167542 -2.353297 -1.3126493
H 0.122133516 -0.8519174 -2.179974
H 0.16359058 -0.8753568 2.1681852
H 0.5061011 -2.3673396 1.2780441
H 1.6760641 -1.0401362 1.2543851
