title
 OpenBabel02282109573D

 21 20  0  0  0  0  0  0  0  0999 V2000
    1.2186    3.0578    0.0047 C   0  0  0  0  0  0  0  0  0  0  0  0
    1.3246    1.5290   -0.0045 C   0  0  0  0  0  0  0  0  0  0  0  0
   -0.0583    0.8651    0.0054 C   0  0  0  0  0  0  0  0  0  0  0  0
   -0.0698   -0.6924   -0.0029 C   0  0  0  0  0  0  0  0  0  0  0  0
    0.5856   -1.2655   -1.2800 C   0  0  0  0  0  0  0  0  0  0  0  0
    0.6097   -1.2793    1.2551 C   0  0  0  0  0  0  0  0  0  0  0  0
   -1.4843   -1.1083    0.0083 C   0  0  0  0  0  0  0  0  0  0  0  0
   -2.5949   -1.4294    0.0166 N   0  0  0  0  0  0  0  0  0  0  0  0
    2.2091    3.5225   -0.0024 H   0  0  0  0  0  0  0  0  0  0  0  0
    0.6719    3.4223   -0.8718 H   0  0  0  0  0  0  0  0  0  0  0  0
    0.6890    3.4129    0.8953 H   0  0  0  0  0  0  0  0  0  0  0  0
    1.8890    1.2134   -0.8895 H   0  0  0  0  0  0  0  0  0  0  0  0
    1.9060    1.2041    0.8661 H   0  0  0  0  0  0  0  0  0  0  0  0
   -0.6124    1.2043    0.8891 H   0  0  0  0  0  0  0  0  0  0  0  0
   -0.6294    1.2138   -0.8637 H   0  0  0  0  0  0  0  0  0  0  0  0
    1.6518   -1.0261   -1.2971 H   0  0  0  0  0  0  0  0  0  0  0  0
    0.4817   -2.3533   -1.3126 H   0  0  0  0  0  0  0  0  0  0  0  0
    0.1221   -0.8519   -2.1800 H   0  0  0  0  0  0  0  0  0  0  0  0
    0.1636   -0.8754    2.1682 H   0  0  0  0  0  0  0  0  0  0  0  0
    0.5061   -2.3673    1.2780 H   0  0  0  0  0  0  0  0  0  0  0  0
    1.6761   -1.0401    1.2544 H   0  0  0  0  0  0  0  0  0  0  0  0
  1 11  1  0  0  0  0
  2  1  1  0  0  0  0
  2  3  1  0  0  0  0
  2 13  1  0  0  0  0
  3 14  1  0  0  0  0
  4  3  1  0  0  0  0
  4  7  1  0  0  0  0
  4  6  1  0  0  0  0
  5  4  1  0  0  0  0
  6 20  1  0  0  0  0
  6 19  1  0  0  0  0
  7  8  3  0  0  0  0
  9  1  1  0  0  0  0
 10  1  1  0  0  0  0
 12  2  1  0  0  0  0
 15  3  1  0  0  0  0
 16  5  1  0  0  0  0
 17  5  1  0  0  0  0
 18  5  1  0  0  0  0
 21  6  1  0  0  0  0
M  END
