20
title
C -0.5783956 3.0230103 -1.1437014
C -0.6828194 1.4949085 -1.1328388
C -0.06544017 0.87880576 0.12711795
C 0.03490931 -0.6693009 0.11051651
C -1.3351245 -1.3489755 -0.019265572
O 0.78690493 -1.111005 -1.0281653
C 0.701321 -1.1102265 1.3473982
C 1.2772349 -1.4450768 2.3485575
H 0.46692717 3.3497365 -1.1089733
H -1.0288217 3.4443104 -2.0478048
H -1.089615 3.464335 -0.28069434
H -1.7373544 1.2064832 -1.2126354
H -0.17990053 1.077165 -2.0113995
H 0.95101607 1.2720315 0.26379976
H -0.62822735 1.1825218 1.0183588
H -1.7846829 -1.0971543 -0.9822888
H -1.2159122 -2.4330177 0.033263404
H -2.0026624 -1.0273963 0.7839307
H 1.7059898 -0.859799 -0.88447535
H 1.7785723 -1.7536412 3.2326806
