title
 OpenBabel02282109573D

 19 18  0  0  1  0  0  0  0  0999 V2000
    1.2531    3.0441    0.1337 C   0  0  0  0  0  0  0  0  0  0  0  0
    1.3174    1.5196    0.0006 C   0  0  0  0  0  0  0  0  0  0  0  0
   -0.0766    0.8890   -0.0925 C   0  0  0  0  0  0  0  0  0  0  0  0
   -0.0832   -0.6585   -0.0310 C   0  0  1  0  0  0  0  0  0  0  0  0
    0.7010   -1.3155   -1.1733 C   0  0  0  0  0  0  0  0  0  0  0  0
    0.5089   -1.1360    1.1731 O   0  0  0  0  0  0  0  0  0  0  0  0
   -1.4972   -1.1118   -0.0893 C   0  0  0  0  0  0  0  0  0  0  0  0
   -2.6040   -1.4445   -0.1065 N   0  0  0  0  0  0  0  0  0  0  0  0
    2.2564    3.4766    0.1909 H   0  0  0  0  0  0  0  0  0  0  0  0
    0.7426    3.4982   -0.7226 H   0  0  0  0  0  0  0  0  0  0  0  0
    0.7097    3.3414    1.0373 H   0  0  0  0  0  0  0  0  0  0  0  0
    1.9042    1.2596   -0.8877 H   0  0  0  0  0  0  0  0  0  0  0  0
    1.8456    1.0893    0.8580 H   0  0  0  0  0  0  0  0  0  0  0  0
   -0.7002    1.2569    0.7339 H   0  0  0  0  0  0  0  0  0  0  0  0
   -0.5811    1.2052   -1.0134 H   0  0  0  0  0  0  0  0  0  0  0  0
    1.7557   -1.0466   -1.0911 H   0  0  0  0  0  0  0  0  0  0  0  0
    0.6146   -2.4018   -1.1066 H   0  0  0  0  0  0  0  0  0  0  0  0
    0.3193   -0.9879   -2.1431 H   0  0  0  0  0  0  0  0  0  0  0  0
    0.0045   -0.7905    1.9188 H   0  0  0  0  0  0  0  0  0  0  0  0
  1  9  1  0  0  0  0
  1 11  1  0  0  0  0
  2  1  1  0  0  0  0
  2 13  1  0  0  0  0
  3  4  1  0  0  0  0
  3  2  1  0  0  0  0
  3 14  1  0  0  0  0
  4  7  1  6  0  0  0
  4  6  1  0  0  0  0
  5 17  1  0  0  0  0
  5 16  1  0  0  0  0
  5  4  1  0  0  0  0
  6 19  1  0  0  0  0
  8  7  3  0  0  0  0
 10  1  1  0  0  0  0
 12  2  1  0  0  0  0
 15  3  1  0  0  0  0
 18  5  1  0  0  0  0
M  END
