19
title
C 1.2530526 3.0441086 0.13372739
C 1.3173537 1.5195827 0.0005801083
C -0.07664354 0.88904756 -0.092474274
C -0.083193615 -0.65854204 -0.03095077
C 0.7009562 -1.3154844 -1.1732906
O 0.5088668 -1.136037 1.1731352
C -1.4971706 -1.1117581 -0.08927864
N -2.603961 -1.4445468 -0.106480666
H 2.2563653 3.4765546 0.19086762
H 0.7425756 3.4982479 -0.7226486
H 0.70969605 3.3414233 1.0373482
H 1.9041642 1.259614 -0.88765514
H 1.845623 1.0892779 0.85800713
H -0.7002017 1.2568748 0.7338715
H -0.58110815 1.2052373 -1.0134323
H 1.75573 -1.0466262 -1.0911467
H 0.61462295 -2.401757 -1.106631
H 0.31932092 -0.98785484 -2.143101
H 0.0045478824 -0.7904631 1.918822
