20
title
C -0.61578745 2.9282537 1.0712893
C -0.63605326 1.4065534 1.1955168
N 0.0068199905 0.8080536 0.025223678
C 0.033333506 -0.6627515 -0.059186988
C 0.8540043 -1.250502 1.1080049
C -1.363692 -1.3306044 -0.12407284
C 0.7414326 -0.97824734 -1.3199983
N 1.2702199 -1.2371956 -2.3141346
H 0.40901193 3.2912378 0.95501703
H -1.1934166 3.2609155 0.20109445
H -1.055812 3.393172 1.9581206
H -0.075288445 1.1115537 2.0887828
H -1.6755668 1.0687833 1.3490304
H -0.42284244 1.1763427 -0.8180333
H 0.31590542 -1.125873 2.050909
H 1.0207026 -2.3189275 0.9532701
H 1.820394 -0.7473604 1.1812289
H -1.9445442 -0.931724 -0.9605866
H -1.273936 -2.4124477 -0.25640064
H -1.9122021 -1.1453053 0.8030775
