title
 OpenBabel02282109573D

 20 19  0  0  0  0  0  0  0  0999 V2000
    1.1325    2.8582    0.0047 C   0  0  0  0  0  0  0  0  0  0  0  0
    1.3211    1.3489   -0.0058 C   0  0  0  0  0  0  0  0  0  0  0  0
    0.0292    0.7652    0.0038 O   0  0  0  0  0  0  0  0  0  0  0  0
   -0.0646   -0.6661   -0.0029 C   0  0  0  0  0  0  0  0  0  0  0  0
    0.5495   -1.2707   -1.2830 C   0  0  0  0  0  0  0  0  0  0  0  0
    0.5737   -1.2842    1.2587 C   0  0  0  0  0  0  0  0  0  0  0  0
   -1.5090   -0.9429    0.0093 C   0  0  0  0  0  0  0  0  0  0  0  0
   -2.6799   -1.2106    0.0191 C   0  0  0  0  0  0  0  0  0  0  0  0
    2.1033    3.3633   -0.0022 H   0  0  0  0  0  0  0  0  0  0  0  0
    0.5653    3.1787   -0.8735 H   0  0  0  0  0  0  0  0  0  0  0  0
    0.5831    3.1686    0.8977 H   0  0  0  0  0  0  0  0  0  0  0  0
    1.8875    1.0474   -0.8992 H   0  0  0  0  0  0  0  0  0  0  0  0
    1.9052    1.0373    0.8727 H   0  0  0  0  0  0  0  0  0  0  0  0
    1.6365   -1.1516   -1.2927 H   0  0  0  0  0  0  0  0  0  0  0  0
    0.3259   -2.3391   -1.3365 H   0  0  0  0  0  0  0  0  0  0  0  0
    0.1291   -0.7824   -2.1654 H   0  0  0  0  0  0  0  0  0  0  0  0
    0.1702   -0.8054    2.1541 H   0  0  0  0  0  0  0  0  0  0  0  0
    0.3510   -2.3531    1.3051 H   0  0  0  0  0  0  0  0  0  0  0  0
    1.6607   -1.1651    1.2490 H   0  0  0  0  0  0  0  0  0  0  0  0
   -3.7182   -1.4331    0.0278 H   0  0  0  0  0  0  0  0  0  0  0  0
  1 11  1  0  0  0  0
  2  3  1  0  0  0  0
  2  1  1  0  0  0  0
  2 13  1  0  0  0  0
  4  3  1  0  0  0  0
  4  7  1  0  0  0  0
  4  6  1  0  0  0  0
  5  4  1  0  0  0  0
  6 18  1  0  0  0  0
  6 17  1  0  0  0  0
  7  8  3  0  0  0  0
  8 20  1  0  0  0  0
  9  1  1  0  0  0  0
 10  1  1  0  0  0  0
 12  2  1  0  0  0  0
 14  5  1  0  0  0  0
 15  5  1  0  0  0  0
 16  5  1  0  0  0  0
 19  6  1  0  0  0  0
M  END
