20
title
C -0.5626919 2.8358223 0.94567126
O -0.5570105 1.4284838 0.95890903
C 0.08416213 0.87003934 -0.16593046
C 0.03886582 -0.6711412 -0.056501463
C 0.7772321 -1.128329 1.2220054
C -1.4296757 -1.1519077 -0.023887055
C 0.7126605 -1.2144971 -1.239812
C 1.267106 -1.65067 -2.2136014
H 0.45866424 3.248121 0.94365853
H -1.093648 3.233649 0.06647299
H -1.0769268 3.169651 1.8501331
H -0.41514343 1.18953 -1.0951637
H 1.1324229 1.2060957 -0.22127052
H 0.30578256 -0.68086916 2.099785
H 0.74356776 -2.217065 1.3147751
H 1.826921 -0.8216739 1.1955991
H -1.9541876 -0.86206347 -0.9390157
H -1.4740808 -2.2407587 0.06282328
H -1.9449323 -0.70491606 0.8291652
H 1.7553895 -2.04241 -3.0713117
