19
title
C 1.0553346 2.865465 0.00506757
O 1.0834461 1.4557029 -0.0025220863
C -0.20008206 0.88037837 0.0067008743
C -0.039343007 -0.657927 -0.0032127353
C 0.69622374 -1.1119357 -1.2834275
C 0.72040606 -1.1257724 1.2577794
C -1.3941685 -1.2322088 0.0064541874
N -2.4610398 -1.6770984 0.015054065
H 2.0915153 3.2106938 -0.00298194
H 0.53756887 3.2658725 -0.87994295
H 0.55451965 3.2566144 0.9038658
H -0.7622582 1.1898237 0.9027374
H -0.7793497 1.1994711 -0.8749468
H 1.6810683 -0.642147 -1.3144599
H 0.8173339 -2.197936 -1.2944517
H 0.1414597 -0.81955165 -2.1792445
H 0.18280971 -0.8432111 2.167115
H 0.84156346 -2.2118192 1.2546772
H 1.7057302 -0.6562864 1.2752348
