18
title
C 0.075534016 2.8579836 0.65241677
O 0.3252628 1.4717422 0.593367
C -0.7571989 0.7347824 0.090813614
C -0.3534302 -0.7497067 0.008794699
C -0.0035778007 -1.2902602 1.4036137
N -1.5105051 -1.4831303 -0.51898533
C 0.8283173 -0.8813521 -0.8812756
N 1.7071383 -1.0340892 -1.6170915
H -0.13806233 3.273538 -0.3440822
H -0.7733325 3.0900936 1.313948
H 0.9756571 3.332192 1.0489485
H -1.6413944 0.8072133 0.74300754
H -1.0478808 1.0942534 -0.91078395
H -0.89833206 -1.2489527 2.0304682
H 0.33655706 -2.3280206 1.3433269
H 0.7849455 -0.68715924 1.8547537
H -1.66992 -1.2341472 -1.491717
H -1.3166695 -2.4804142 -0.5081317
