title
 OpenBabel02282109573D

 17 16  0  0  1  0  0  0  0  0999 V2000
   -0.7400    2.8250    0.8872 C   0  0  0  0  0  0  0  0  0  0  0  0
   -0.6340    1.4156    0.9016 O   0  0  0  0  0  0  0  0  0  0  0  0
    0.2124    0.9035   -0.1048 C   0  0  0  0  0  0  0  0  0  0  0  0
    0.0790   -0.6339   -0.0247 C   0  0  1  0  0  0  0  0  0  0  0  0
    0.6931   -1.1876    1.2737 C   0  0  0  0  0  0  0  0  0  0  0  0
   -1.2908   -0.9858   -0.1304 O   0  0  0  0  0  0  0  0  0  0  0  0
    0.7736   -1.2139   -1.1919 C   0  0  0  0  0  0  0  0  0  0  0  0
    1.3571   -1.6445   -2.0905 N   0  0  0  0  0  0  0  0  0  0  0  0
    0.2341    3.3017    1.0676 H   0  0  0  0  0  0  0  0  0  0  0  0
   -1.1352    3.1891   -0.0722 H   0  0  0  0  0  0  0  0  0  0  0  0
   -1.4275    3.1053    1.6879 H   0  0  0  0  0  0  0  0  0  0  0  0
   -0.1108    1.2481   -1.0979 H   0  0  0  0  0  0  0  0  0  0  0  0
    1.2562    1.2132    0.0510 H   0  0  0  0  0  0  0  0  0  0  0  0
    0.2275   -0.6867    2.1254 H   0  0  0  0  0  0  0  0  0  0  0  0
    0.5029   -2.2605    1.3388 H   0  0  0  0  0  0  0  0  0  0  0  0
    1.7726   -1.0147    1.3073 H   0  0  0  0  0  0  0  0  0  0  0  0
   -1.7596   -0.3235    0.3959 H   0  0  0  0  0  0  0  0  0  0  0  0
  1  2  1  0  0  0  0
  1  9  1  0  0  0  0
  1 11  1  0  0  0  0
  3  4  1  0  0  0  0
  3 13  1  0  0  0  0
  3  2  1  0  0  0  0
  4  7  1  6  0  0  0
  4  5  1  0  0  0  0
  5 16  1  0  0  0  0
  5 15  1  0  0  0  0
  5 14  1  0  0  0  0
  6  4  1  0  0  0  0
  6 17  1  0  0  0  0
  8  7  3  0  0  0  0
 10  1  1  0  0  0  0
 12  3  1  0  0  0  0
M  END
