title
 OpenBabel02282109573D

 18 17  0  0  1  0  0  0  0  0999 V2000
    0.9350    1.3882    0.4665 C   0  0  0  0  0  0  0  0  0  0  0  0
    0.5128    0.0020   -0.0633 C   0  0  1  0  0  0  0  0  0  0  0  0
    0.8684   -1.0150    0.8629 O   0  0  0  0  0  0  0  0  0  0  0  0
   -0.9791   -0.0725   -0.4479 C   0  0  0  0  0  0  0  0  0  0  0  0
   -1.9422    0.3572    0.6507 C   0  0  0  0  0  0  0  0  0  0  0  0
   -1.6878   -0.4436    1.8107 O   0  0  0  0  0  0  0  0  0  0  0  0
    1.3663   -0.2817   -1.3004 C   0  0  0  0  0  0  0  0  0  0  0  0
    1.1380    0.1473   -2.4014 O   0  0  0  0  0  0  0  0  0  0  0  0
    2.0123    1.4003    0.6563 H   0  0  0  0  0  0  0  0  0  0  0  0
    0.6968    2.1788   -0.2515 H   0  0  0  0  0  0  0  0  0  0  0  0
    0.4313    1.5990    1.4142 H   0  0  0  0  0  0  0  0  0  0  0  0
    0.1791   -1.0140    1.5415 H   0  0  0  0  0  0  0  0  0  0  0  0
   -1.1466    0.5459   -1.3351 H   0  0  0  0  0  0  0  0  0  0  0  0
   -1.1985   -1.1089   -0.7279 H   0  0  0  0  0  0  0  0  0  0  0  0
   -1.8135    1.4231    0.8844 H   0  0  0  0  0  0  0  0  0  0  0  0
   -2.9771    0.2164    0.3077 H   0  0  0  0  0  0  0  0  0  0  0  0
   -2.2135   -0.1113    2.5437 H   0  0  0  0  0  0  0  0  0  0  0  0
    2.2506   -0.9191   -1.0794 H   0  0  0  0  0  0  0  0  0  0  0  0
  1  9  1  0  0  0  0
  1 11  1  0  0  0  0
  2  7  1  6  0  0  0
  2  1  1  0  0  0  0
  2  3  1  0  0  0  0
  3 12  1  0  0  0  0
  4  2  1  0  0  0  0
  4  5  1  0  0  0  0
  5 15  1  0  0  0  0
  5  6  1  0  0  0  0
  6 17  1  0  0  0  0
  7 18  1  0  0  0  0
  8  7  2  0  0  0  0
 10  1  1  0  0  0  0
 13  4  1  0  0  0  0
 14  4  1  0  0  0  0
 16  5  1  0  0  0  0
M  END
