title
 OpenBabel02282109573D

 22 21  0  0  0  0  0  0  0  0999 V2000
   -0.7326    3.1234    1.0179 C   0  0  0  0  0  0  0  0  0  0  0  0
   -0.7893    1.5941    1.0934 C   0  0  0  0  0  0  0  0  0  0  0  0
   -0.0552    0.9325   -0.0810 C   0  0  0  0  0  0  0  0  0  0  0  0
   -0.0339   -0.6219   -0.0951 C   0  0  0  0  0  0  0  0  0  0  0  0
    0.7367   -1.2044    1.0950 C   0  0  0  0  0  0  0  0  0  0  0  0
   -1.4647   -1.1997   -0.1673 C   0  0  0  0  0  0  0  0  0  0  0  0
    0.6540   -1.0093   -1.3997 C   0  0  0  0  0  0  0  0  0  0  0  0
    1.6693   -1.6477   -1.4989 O   0  0  0  0  0  0  0  0  0  0  0  0
    0.3022    3.4832    1.0333 H   0  0  0  0  0  0  0  0  0  0  0  0
   -1.1961    3.4928    0.0964 H   0  0  0  0  0  0  0  0  0  0  0  0
   -1.2572    3.5819    1.8617 H   0  0  0  0  0  0  0  0  0  0  0  0
   -0.3502    1.2629    2.0415 H   0  0  0  0  0  0  0  0  0  0  0  0
   -1.8372    1.2734    1.1092 H   0  0  0  0  0  0  0  0  0  0  0  0
   -0.5071    1.2862   -1.0188 H   0  0  0  0  0  0  0  0  0  0  0  0
    0.9833    1.2902   -0.0916 H   0  0  0  0  0  0  0  0  0  0  0  0
    0.2260   -0.9905    2.0379 H   0  0  0  0  0  0  0  0  0  0  0  0
    0.8322   -2.2891    0.9977 H   0  0  0  0  0  0  0  0  0  0  0  0
    1.7486   -0.7931    1.1470 H   0  0  0  0  0  0  0  0  0  0  0  0
   -2.0150   -0.8039   -1.0281 H   0  0  0  0  0  0  0  0  0  0  0  0
   -1.4405   -2.2908   -0.2539 H   0  0  0  0  0  0  0  0  0  0  0  0
   -2.0305   -0.9525    0.7347 H   0  0  0  0  0  0  0  0  0  0  0  0
    0.1234   -0.6381   -2.3101 H   0  0  0  0  0  0  0  0  0  0  0  0
  1  9  1  0  0  0  0
  1  2  1  0  0  0  0
  1 11  1  0  0  0  0
  2 13  1  0  0  0  0
  2 12  1  0  0  0  0
  3  2  1  0  0  0  0
  4  3  1  0  0  0  0
  4  5  1  0  0  0  0
  5 18  1  0  0  0  0
  5 16  1  0  0  0  0
  6  4  1  0  0  0  0
  6 21  1  0  0  0  0
  7  4  1  0  0  0  0
  8  7  2  0  0  0  0
 10  1  1  0  0  0  0
 14  3  1  0  0  0  0
 15  3  1  0  0  0  0
 17  5  1  0  0  0  0
 19  6  1  0  0  0  0
 20  6  1  0  0  0  0
 22  7  1  0  0  0  0
M  END
