20
title
C 1.0941753 3.1179788 0.15409851
C 1.2437314 1.5947752 0.22389536
C -0.087171026 0.8697568 -0.009276011
C -0.020377465 -0.67589366 0.099619895
C 0.7938153 -1.3243052 -1.02423
O 0.43590933 -1.0828165 1.3891586
C -1.465684 -1.1715943 0.044386744
O -2.1068466 -1.2749428 -0.9681262
H 2.0506606 3.6188443 0.3321418
H 0.7288155 3.434199 -0.82882166
H 0.38229394 3.479855 0.90375745
H 1.9861919 1.2719171 -0.5156709
H 1.6394535 1.3192332 1.2098997
H -0.81445986 1.2304933 0.7300827
H -0.49015063 1.1237733 -0.99674916
H 1.8128997 -0.9271492 -1.05973
H 0.852224 -2.4046178 -0.86529404
H 0.31280738 -1.1427072 -1.9881978
H 1.3787857 -0.90132797 1.4447031
H -1.8888181 -1.4054309 1.0461729
