20
title
C 1.163234 2.9861968 0.1744198
C 1.3358191 1.4764092 0.1206537
O 0.04382288 0.8999191 0.038899656
C -0.05408359 -0.5195343 -0.023587082
C 0.59116274 -1.1064254 -1.2908379
C 0.47670633 -1.2100936 1.2445471
C -1.5683763 -0.7571412 -0.1015663
O -2.0735967 -1.8463904 -0.16950992
H 2.1381354 3.4786305 0.2384463
H 0.64954734 3.3455193 -0.72170967
H 0.56980467 3.273422 1.0469896
H 1.9454992 1.1963239 -0.75091046
H 1.8657635 1.1242132 1.0178164
H 1.6827297 -1.0736722 -1.2349691
H 0.28277802 -2.1489234 -1.4012399
H 0.2697569 -0.55163974 -2.1773374
H 0.07461607 -0.7283731 2.1407845
H 0.16375041 -2.2570617 1.2413336
H 1.5687339 -1.1766495 1.2900741
H -2.164073 0.18100064 -0.08935781
