20
title
C -0.49328953 2.8376021 0.852281
O -0.6044802 1.435393 0.8996953
C 0.13323663 0.79244715 -0.118913904
C -0.054767508 -0.7215897 0.020788716
C 0.47137627 -1.2200876 1.3838946
C -1.5397965 -1.1111087 -0.14151289
C 0.73195016 -1.4324511 -1.0672524
O 1.4024177 -0.8971921 -1.9130454
H 0.54979837 3.1687067 0.97637653
H -0.8694143 3.244854 -0.0994208
H -1.0926559 3.242025 1.6716218
H -0.20576103 1.1240268 -1.1129615
H 1.2020639 1.0477382 -0.045195412
H -0.09197726 -0.74365723 2.1891108
H 0.36049053 -2.305412 1.4773755
H 1.5298676 -0.97267497 1.5152972
H -1.9320035 -0.7850944 -1.1104152
H -1.6745394 -2.19514 -0.06612195
H -2.1304646 -0.6331922 0.6429819
H 0.641847 -2.5443738 -1.0277891
