24
title
C 1.850871 2.5123346 -0.004684744
C 1.575972 1.0043429 -0.009578355
C 0.09005616 0.5503748 0.0022106646
C -0.612952 1.0693916 1.271562
C -0.6371968 1.0832465 -1.2475905
C 0.11672888 -0.99915814 -0.00656733
C -1.2241647 -1.7271559 0.0027175015
O -0.9349406 -3.1210341 -0.008176866
H 2.930049 2.6964133 -0.013426879
H 1.4308983 3.0123394 -0.8825985
H 1.4466869 3.0037582 0.8854047
H 2.0570652 0.5629087 -0.8922827
H 2.0735955 0.55416465 0.8594398
H -0.60631967 2.1626115 1.313862
H -1.6605623 0.7554243 1.3091744
H -0.12021508 0.6961876 2.1766758
H -0.16178574 0.72038275 -2.1660776
H -1.6852739 0.7692932 -1.2686912
H -0.6315825 2.1768742 -1.277775
H 0.66803324 -1.3422558 -0.8911722
H 0.68544215 -1.3518925 0.8631016
H -1.8066833 -1.4582717 0.8968092
H -1.8244877 -1.4481056 -0.87635887
H -1.7694764 -3.5986385 -0.0024513276
