title
 OpenBabel02282109573D

 24 23  0  0  0  0  0  0  0  0999 V2000
   -0.9260    2.4599    1.5967 C   0  0  0  0  0  0  0  0  0  0  0  0
   -0.7979    0.9458    1.3957 C   0  0  0  0  0  0  0  0  0  0  0  0
   -0.0673    0.4834    0.1103 C   0  0  0  0  0  0  0  0  0  0  0  0
   -0.8085    0.9607   -1.1522 C   0  0  0  0  0  0  0  0  0  0  0  0
    1.3887    0.9843    0.0880 C   0  0  0  0  0  0  0  0  0  0  0  0
   -0.0663   -1.0552    0.1376 C   0  0  0  0  0  0  0  0  0  0  0  0
    0.5847   -1.5635   -1.0080 O   0  0  0  0  0  0  0  0  0  0  0  0
    0.6193   -2.9681   -1.0428 C   0  0  0  0  0  0  0  0  0  0  0  0
    0.0511    2.9484    1.6569 H   0  0  0  0  0  0  0  0  0  0  0  0
   -1.4875    2.9339    0.7861 H   0  0  0  0  0  0  0  0  0  0  0  0
   -1.4563    2.6744    2.5300 H   0  0  0  0  0  0  0  0  0  0  0  0
   -0.2760    0.5194    2.2632 H   0  0  0  0  0  0  0  0  0  0  0  0
   -1.8039    0.5046    1.4000 H   0  0  0  0  0  0  0  0  0  0  0  0
   -0.7724    2.0495   -1.2513 H   0  0  0  0  0  0  0  0  0  0  0  0
   -0.3558    0.5236   -2.0453 H   0  0  0  0  0  0  0  0  0  0  0  0
   -1.8625    0.6600   -1.1276 H   0  0  0  0  0  0  0  0  0  0  0  0
    1.9166    0.7017    1.0063 H   0  0  0  0  0  0  0  0  0  0  0  0
    1.9267    0.5470   -0.7564 H   0  0  0  0  0  0  0  0  0  0  0  0
    1.4371    2.0730   -0.0055 H   0  0  0  0  0  0  0  0  0  0  0  0
    0.4431   -1.4137    1.0497 H   0  0  0  0  0  0  0  0  0  0  0  0
   -1.1044   -1.4302    0.1776 H   0  0  0  0  0  0  0  0  0  0  0  0
    1.1598   -3.3863   -0.1783 H   0  0  0  0  0  0  0  0  0  0  0  0
   -0.3932   -3.4030   -1.0530 H   0  0  0  0  0  0  0  0  0  0  0  0
    1.1383   -3.2624   -1.9585 H   0  0  0  0  0  0  0  0  0  0  0  0
  1  9  1  0  0  0  0
  1 11  1  0  0  0  0
  2 13  1  0  0  0  0
  2  1  1  0  0  0  0
  2 12  1  0  0  0  0
  3  6  1  0  0  0  0
  3  2  1  0  0  0  0
  4 16  1  0  0  0  0
  4  3  1  0  0  0  0
  5  3  1  0  0  0  0
  5 17  1  0  0  0  0
  6 21  1  0  0  0  0
  6 20  1  0  0  0  0
  7  6  1  0  0  0  0
  8  7  1  0  0  0  0
  8 22  1  0  0  0  0
 10  1  1  0  0  0  0
 14  4  1  0  0  0  0
 15  4  1  0  0  0  0
 18  5  1  0  0  0  0
 19  5  1  0  0  0  0
 23  8  1  0  0  0  0
 24  8  1  0  0  0  0
M  END
