title
 OpenBabel02282109573D

 22 21  0  0  1  0  0  0  0  0999 V2000
   -1.1189    2.4796   -1.4558 C   0  0  0  0  0  0  0  0  0  0  0  0
   -0.8137    0.9797   -1.4069 C   0  0  0  0  0  0  0  0  0  0  0  0
   -0.0476    0.5061   -0.1495 C   0  0  1  0  0  0  0  0  0  0  0  0
    1.3154    1.1943   -0.0254 C   0  0  0  0  0  0  0  0  0  0  0  0
   -0.7671    0.8915    1.0329 O   0  0  0  0  0  0  0  0  0  0  0  0
    0.0869   -1.0305   -0.2028 C   0  0  0  0  0  0  0  0  0  0  0  0
    0.7619   -1.6667    1.0073 C   0  0  0  0  0  0  0  0  0  0  0  0
    0.5927   -3.0749    0.8906 O   0  0  0  0  0  0  0  0  0  0  0  0
   -0.2142    3.0773   -1.6005 H   0  0  0  0  0  0  0  0  0  0  0  0
   -1.7967    2.7079   -2.2838 H   0  0  0  0  0  0  0  0  0  0  0  0
   -1.5904    2.8057   -0.5248 H   0  0  0  0  0  0  0  0  0  0  0  0
   -1.7586    0.4191   -1.4482 H   0  0  0  0  0  0  0  0  0  0  0  0
   -0.2499    0.6790   -2.2987 H   0  0  0  0  0  0  0  0  0  0  0  0
    1.1961    2.2791    0.0132 H   0  0  0  0  0  0  0  0  0  0  0  0
    1.8221    0.8871    0.8925 H   0  0  0  0  0  0  0  0  0  0  0  0
    1.9547    0.9430   -0.8770 H   0  0  0  0  0  0  0  0  0  0  0  0
   -1.6372    0.4789    0.9917 H   0  0  0  0  0  0  0  0  0  0  0  0
   -0.9175   -1.4679   -0.2843 H   0  0  0  0  0  0  0  0  0  0  0  0
    0.6226   -1.3249   -1.1129 H   0  0  0  0  0  0  0  0  0  0  0  0
    1.8299   -1.4036    1.0363 H   0  0  0  0  0  0  0  0  0  0  0  0
    0.3001   -1.2785    1.9262 H   0  0  0  0  0  0  0  0  0  0  0  0
    1.0136   -3.4883    1.6498 H   0  0  0  0  0  0  0  0  0  0  0  0
  1  2  1  0  0  0  0
  1 11  1  0  0  0  0
  2  3  1  0  0  0  0
  3  4  1  0  0  0  0
  3  5  1  1  0  0  0
  4 14  1  0  0  0  0
  4 15  1  0  0  0  0
  6  3  1  0  0  0  0
  6  7  1  0  0  0  0
  7 20  1  0  0  0  0
  7 21  1  0  0  0  0
  8  7  1  0  0  0  0
  8 22  1  0  0  0  0
  9  1  1  0  0  0  0
 10  1  1  0  0  0  0
 12  2  1  0  0  0  0
 13  2  1  0  0  0  0
 16  4  1  0  0  0  0
 17  5  1  0  0  0  0
 18  6  1  0  0  0  0
 19  6  1  0  0  0  0
M  END
