26
title
C 1.0718358 3.2863262 0.007513871
C 1.2444084 1.76344 -0.0024539619
C -0.10384469 1.0303057 0.006545711
C -0.08464889 -0.5220139 -0.002036082
C 0.61800575 -1.0409777 -1.2707
C 0.6422244 -1.0545833 1.2471964
C -1.5706234 -0.9743676 0.009820347
C -1.8477504 -2.4820645 0.0044292505
H 2.0391862 3.7985713 0.0009459484
H 0.50840664 3.6268537 -0.8685201
H 0.52549446 3.6172292 0.89794123
H 1.8252572 1.4758112 -0.88664937
H 1.8421817 1.4662465 0.8671785
H -0.66967696 1.359403 0.8898282
H -0.6865211 1.3688866 -0.86207986
H 1.6627239 -0.7187481 -1.311033
H 0.6192137 -2.1344452 -1.309785
H 0.12031253 -0.6747639 -2.176261
H 0.16204913 -0.69826484 2.1660657
H 0.6441113 -2.14841 1.2744074
H 1.6875482 -0.73266554 1.2709379
H -2.0515401 -0.5329325 0.8928697
H -2.0683663 -0.5235727 -0.8590631
H -2.927057 -2.665796 0.013778915
H -1.4440444 -2.9731162 -0.88609093
H -1.4271233 -2.9825494 0.8817684
