title
 OpenBabel02282109573D

 24 23  0  0  1  0  0  0  0  0999 V2000
   -0.4997    3.2437   -1.0799 C   0  0  0  0  0  0  0  0  0  0  0  0
   -0.6502    1.7195   -1.0824 C   0  0  0  0  0  0  0  0  0  0  0  0
   -0.0524    1.0663    0.1690 C   0  0  0  0  0  0  0  0  0  0  0  0
    0.0169   -0.4782    0.1510 C   0  0  1  0  0  0  0  0  0  0  0  0
   -1.3692   -1.1088   -0.0079 C   0  0  0  0  0  0  0  0  0  0  0  0
    0.7597   -0.9188   -0.9969 O   0  0  0  0  0  0  0  0  0  0  0  0
    0.7178   -0.9600    1.4432 C   0  0  0  0  0  0  0  0  0  0  0  0
    0.9528   -2.4707    1.5332 C   0  0  0  0  0  0  0  0  0  0  0  0
    0.5549    3.5395   -1.0403 H   0  0  0  0  0  0  0  0  0  0  0  0
   -0.9353    3.6883   -1.9803 H   0  0  0  0  0  0  0  0  0  0  0  0
   -0.9985    3.6926   -0.2134 H   0  0  0  0  0  0  0  0  0  0  0  0
   -1.7132    1.4651   -1.1646 H   0  0  0  0  0  0  0  0  0  0  0  0
   -0.1635    1.2946   -1.9671 H   0  0  0  0  0  0  0  0  0  0  0  0
    0.9724    1.4433    0.3084 H   0  0  0  0  0  0  0  0  0  0  0  0
   -0.6093    1.3876    1.0594 H   0  0  0  0  0  0  0  0  0  0  0  0
   -1.8325   -0.7907   -0.9442 H   0  0  0  0  0  0  0  0  0  0  0  0
   -1.2955   -2.1982   -0.0304 H   0  0  0  0  0  0  0  0  0  0  0  0
   -2.0229   -0.8200    0.8208 H   0  0  0  0  0  0  0  0  0  0  0  0
    1.6456   -0.5447   -0.9314 H   0  0  0  0  0  0  0  0  0  0  0  0
    1.6859   -0.4422    1.5070 H   0  0  0  0  0  0  0  0  0  0  0  0
    0.1387   -0.6157    2.3093 H   0  0  0  0  0  0  0  0  0  0  0  0
    1.4404   -2.8372    0.6257 H   0  0  0  0  0  0  0  0  0  0  0  0
    1.5907   -2.7119    2.3889 H   0  0  0  0  0  0  0  0  0  0  0  0
    0.0172   -3.0238    1.6572 H   0  0  0  0  0  0  0  0  0  0  0  0
  1  9  1  0  0  0  0
  1 11  1  0  0  0  0
  2  1  1  0  0  0  0
  2  3  1  0  0  0  0
  3 14  1  0  0  0  0
  3 15  1  0  0  0  0
  4  6  1  6  0  0  0
  4  3  1  0  0  0  0
  4  7  1  0  0  0  0
  5  4  1  0  0  0  0
  5 18  1  0  0  0  0
  6 19  1  0  0  0  0
  7 20  1  0  0  0  0
  7  8  1  0  0  0  0
  7 21  1  0  0  0  0
  8 24  1  0  0  0  0
  8 23  1  0  0  0  0
 10  1  1  0  0  0  0
 12  2  1  0  0  0  0
 13  2  1  0  0  0  0
 16  5  1  0  0  0  0
 17  5  1  0  0  0  0
 22  8  1  0  0  0  0
M  END
