24
title
C -0.48137334 2.7852962 -1.0823742
C -0.6278348 1.2755084 -1.2011445
O 0.08905846 0.69190943 -0.13134605
C 0.17373079 -0.7396886 -0.056875058
C -1.2196444 -1.390954 -0.06176538
C 1.0237169 -1.290014 -1.2146295
C 0.9104281 -0.9969335 1.2743242
C 0.20234859 -0.4678109 2.524588
H 0.5717359 3.0743425 -1.1427071
H -1.0282799 3.2875934 -1.8862591
H -0.87555385 3.1332092 -0.12314279
H -1.6921571 0.99860436 -1.1629604
H -0.23978469 0.9374944 -2.1739998
H -1.6970799 -1.3177366 -1.0431736
H -1.1387366 -2.4545295 0.18379551
H -1.876649 -0.91879207 0.6730377
H 1.9966649 -0.7904797 -1.2408193
H 1.1908536 -2.36438 -1.0886474
H 0.5366612 -1.1473889 -2.1837082
H 1.0856707 -2.0754125 1.36796
H 1.8961948 -0.52392226 1.1938827
H -0.025731863 0.5947585 2.4127285
H -0.7344387 -0.9983371 2.7224426
H 0.8390569 -0.59140486 3.4061685
