22
title
C -0.61168855 3.0614288 -0.94747645
C -0.68912804 1.5527523 -1.1265726
O -0.03273151 0.95753616 -0.0241609
C 0.028034948 -0.47241494 0.033137523
C -1.3691987 -1.0997659 0.13627262
C 0.81776106 -1.0585006 -1.1455745
C 0.8004252 -0.6995867 1.3434119
O 0.9504286 -2.09548 1.5545328
H 0.4310111 3.3897333 -0.9097224
H -1.1079736 3.5713842 -1.7788315
H -1.0972424 3.3618884 -0.014526525
H -1.7409782 1.2342716 -1.1799394
H -0.2128285 1.262043 -2.0748572
H -1.9146632 -1.0453032 -0.8101157
H -1.2773657 -2.151984 0.41515073
H -1.9562255 -0.58745295 0.90517944
H 1.7601242 -0.51654965 -1.2741444
H 1.0467757 -2.1077876 -0.94576067
H 0.256619 -1.0056003 -2.082835
H 1.7736111 -0.19431219 1.2617726
H 0.24008127 -0.22310647 2.160735
H 1.4325409 -2.2244418 2.375486
