title
 OpenBabel02282109573D

 22 21  0  0  0  0  0  0  0  0999 V2000
   -0.6117    3.0614   -0.9475 C   0  0  0  0  0  0  0  0  0  0  0  0
   -0.6891    1.5528   -1.1266 C   0  0  0  0  0  0  0  0  0  0  0  0
   -0.0327    0.9575   -0.0242 O   0  0  0  0  0  0  0  0  0  0  0  0
    0.0280   -0.4724    0.0331 C   0  0  0  0  0  0  0  0  0  0  0  0
   -1.3692   -1.0998    0.1363 C   0  0  0  0  0  0  0  0  0  0  0  0
    0.8178   -1.0585   -1.1456 C   0  0  0  0  0  0  0  0  0  0  0  0
    0.8004   -0.6996    1.3434 C   0  0  0  0  0  0  0  0  0  0  0  0
    0.9504   -2.0955    1.5545 O   0  0  0  0  0  0  0  0  0  0  0  0
    0.4310    3.3897   -0.9097 H   0  0  0  0  0  0  0  0  0  0  0  0
   -1.1080    3.5714   -1.7788 H   0  0  0  0  0  0  0  0  0  0  0  0
   -1.0972    3.3619   -0.0145 H   0  0  0  0  0  0  0  0  0  0  0  0
   -1.7410    1.2343   -1.1799 H   0  0  0  0  0  0  0  0  0  0  0  0
   -0.2128    1.2620   -2.0749 H   0  0  0  0  0  0  0  0  0  0  0  0
   -1.9147   -1.0453   -0.8101 H   0  0  0  0  0  0  0  0  0  0  0  0
   -1.2774   -2.1520    0.4152 H   0  0  0  0  0  0  0  0  0  0  0  0
   -1.9562   -0.5875    0.9052 H   0  0  0  0  0  0  0  0  0  0  0  0
    1.7601   -0.5165   -1.2741 H   0  0  0  0  0  0  0  0  0  0  0  0
    1.0468   -2.1078   -0.9458 H   0  0  0  0  0  0  0  0  0  0  0  0
    0.2566   -1.0056   -2.0828 H   0  0  0  0  0  0  0  0  0  0  0  0
    1.7736   -0.1943    1.2618 H   0  0  0  0  0  0  0  0  0  0  0  0
    0.2401   -0.2231    2.1607 H   0  0  0  0  0  0  0  0  0  0  0  0
    1.4325   -2.2244    2.3755 H   0  0  0  0  0  0  0  0  0  0  0  0
  1  9  1  0  0  0  0
  1 11  1  0  0  0  0
  2  1  1  0  0  0  0
  2  3  1  0  0  0  0
  3  4  1  0  0  0  0
  4  5  1  0  0  0  0
  4  7  1  0  0  0  0
  5 15  1  0  0  0  0
  5 16  1  0  0  0  0
  6 18  1  0  0  0  0
  6  4  1  0  0  0  0
  7  8  1  0  0  0  0
  7 21  1  0  0  0  0
  8 22  1  0  0  0  0
 10  1  1  0  0  0  0
 12  2  1  0  0  0  0
 13  2  1  0  0  0  0
 14  5  1  0  0  0  0
 17  6  1  0  0  0  0
 19  6  1  0  0  0  0
 20  7  1  0  0  0  0
M  END
