22
title
C -0.87000823 2.3718617 -0.7414423
O -0.74409443 0.9761653 -0.59610164
C -0.06998827 0.47838685 0.57204276
C 1.3573684 1.0433667 0.6839785
C -0.8723012 0.8055955 1.8422203
C -0.055150114 -1.0479168 0.36345404
C 0.683697 -1.5343541 -0.8864961
O 0.6011299 -2.9463973 -1.0341725
H 0.10075674 2.8792183 -0.8300543
H -1.4270427 2.53611 -1.6678382
H -1.4299458 2.838059 0.081380844
H 1.3534242 2.0968719 0.97827286
H 1.9210209 0.4945688 1.4445689
H 1.891889 0.95830905 -0.26594797
H -1.8993639 0.44066593 1.7484593
H -0.41505054 0.32870153 2.714614
H -0.9044893 1.881375 2.0381446
H 0.38055202 -1.5301632 1.2455066
H -1.0997701 -1.380731 0.2987529
H 0.29904792 -1.0101963 -1.7708575
H 1.7538034 -1.3168751 -0.81389236
H -0.32446343 -3.1691086 -1.1758143
