22
title
C 0.88046277 3.0583348 0.008081273
O 0.9924674 1.6562741 -0.00060941366
C -0.25791436 1.003866 0.007882038
C -0.04275185 -0.51821077 -0.002479827
C 0.7002004 -0.9334878 -1.2796066
C 0.7245616 -0.94731843 1.2555199
O -1.3927302 -1.0008577 0.0078071277
C -1.5830066 -2.3965719 0.0027398553
H 1.8932911 3.4687083 0.00050273334
H 0.33886486 3.4303563 -0.8760368
H 0.35612088 3.420688 0.90650195
H -0.8382034 1.2773287 0.90356
H -0.85530037 1.2869947 -0.8734387
H 1.6304841 -0.3667351 -1.361126
H 0.94933426 -1.9983357 -1.2797049
H 0.0857687 -0.71997726 -2.1598935
H 0.12715375 -0.7436167 2.1497428
H 0.9736352 -2.0120535 1.2391236
H 1.6562324 -0.3812915 1.3253913
H -1.1539922 -2.8869479 0.8878463
H -2.663933 -2.5607193 0.011382094
H -1.169553 -2.8783681 -0.8943956
