title
 OpenBabel02282109573D

 22 21  0  0  0  0  0  0  0  0999 V2000
    0.8805    3.0583    0.0081 C   0  0  0  0  0  0  0  0  0  0  0  0
    0.9925    1.6563   -0.0006 O   0  0  0  0  0  0  0  0  0  0  0  0
   -0.2579    1.0039    0.0079 C   0  0  0  0  0  0  0  0  0  0  0  0
   -0.0428   -0.5182   -0.0025 C   0  0  0  0  0  0  0  0  0  0  0  0
    0.7002   -0.9335   -1.2796 C   0  0  0  0  0  0  0  0  0  0  0  0
    0.7246   -0.9473    1.2555 C   0  0  0  0  0  0  0  0  0  0  0  0
   -1.3927   -1.0009    0.0078 O   0  0  0  0  0  0  0  0  0  0  0  0
   -1.5830   -2.3966    0.0027 C   0  0  0  0  0  0  0  0  0  0  0  0
    1.8933    3.4687    0.0005 H   0  0  0  0  0  0  0  0  0  0  0  0
    0.3389    3.4304   -0.8760 H   0  0  0  0  0  0  0  0  0  0  0  0
    0.3561    3.4207    0.9065 H   0  0  0  0  0  0  0  0  0  0  0  0
   -0.8382    1.2773    0.9036 H   0  0  0  0  0  0  0  0  0  0  0  0
   -0.8553    1.2870   -0.8734 H   0  0  0  0  0  0  0  0  0  0  0  0
    1.6305   -0.3667   -1.3611 H   0  0  0  0  0  0  0  0  0  0  0  0
    0.9493   -1.9983   -1.2797 H   0  0  0  0  0  0  0  0  0  0  0  0
    0.0858   -0.7200   -2.1599 H   0  0  0  0  0  0  0  0  0  0  0  0
    0.1272   -0.7436    2.1497 H   0  0  0  0  0  0  0  0  0  0  0  0
    0.9736   -2.0121    1.2391 H   0  0  0  0  0  0  0  0  0  0  0  0
    1.6562   -0.3813    1.3254 H   0  0  0  0  0  0  0  0  0  0  0  0
   -1.1540   -2.8869    0.8878 H   0  0  0  0  0  0  0  0  0  0  0  0
   -2.6639   -2.5607    0.0114 H   0  0  0  0  0  0  0  0  0  0  0  0
   -1.1696   -2.8784   -0.8944 H   0  0  0  0  0  0  0  0  0  0  0  0
  1 11  1  0  0  0  0
  2  3  1  0  0  0  0
  2  1  1  0  0  0  0
  3 12  1  0  0  0  0
  4  7  1  0  0  0  0
  4  3  1  0  0  0  0
  4  6  1  0  0  0  0
  5  4  1  0  0  0  0
  6 19  1  0  0  0  0
  6 17  1  0  0  0  0
  8  7  1  0  0  0  0
  8 21  1  0  0  0  0
  8 20  1  0  0  0  0
  9  1  1  0  0  0  0
 10  1  1  0  0  0  0
 13  3  1  0  0  0  0
 14  5  1  0  0  0  0
 15  5  1  0  0  0  0
 16  5  1  0  0  0  0
 18  6  1  0  0  0  0
 22  8  1  0  0  0  0
M  END
