20
title
C -0.7755757 3.0508878 -0.26966783
O -0.7766986 1.6711302 0.005997282
C 0.30396163 0.9884595 -0.5930513
C 0.19661044 -0.50350547 -0.26908937
C -1.0774562 -1.1136184 -0.86783123
O 1.3578073 -1.0875795 -0.85299397
C 0.2510565 -0.7212012 1.2501338
O 0.3977052 -2.1276708 1.4493794
H -0.8501329 3.2501676 -1.3503001
H -1.643602 3.4866598 0.2311564
H 0.13617639 3.542003 0.10577349
H 0.29713702 1.120085 -1.6872658
H 1.2676024 1.3721867 -0.22096904
H -1.0191053 -1.0816689 -1.9593257
H -1.1834993 -2.1552327 -0.55398875
H -1.9603088 -0.55526114 -0.5452095
H 1.4703751 -1.9359291 -0.40557137
H 1.1160085 -0.17906986 1.6582091
H -0.65974903 -0.3385856 1.7262557
H 0.6173044 -2.2858708 2.371071
