title
 OpenBabel02282109573D

 17 16  0  0  0  0  0  0  0  0999 V2000
    0.2256    2.2058    0.8210 C   0  0  0  0  0  0  0  0  0  0  0  0
   -0.0816    0.7200    0.8329 C   0  0  0  0  0  0  0  0  0  0  0  0
   -0.4176    0.1469    1.8377 O   0  0  0  0  0  0  0  0  0  0  0  0
    0.0163   -0.0412   -0.5213 C   0  0  0  0  0  0  0  0  0  0  0  0
   -1.3087    0.2077   -1.2917 C   0  0  0  0  0  0  0  0  0  0  0  0
    1.2283    0.4036   -1.3708 C   0  0  0  0  0  0  0  0  0  0  0  0
    0.1344   -1.4807   -0.2454 C   0  0  0  0  0  0  0  0  0  0  0  0
    0.2474   -2.6196   -0.0907 N   0  0  0  0  0  0  0  0  0  0  0  0
    1.3070    2.3595    0.7350 H   0  0  0  0  0  0  0  0  0  0  0  0
   -0.2406    2.7198   -0.0245 H   0  0  0  0  0  0  0  0  0  0  0  0
   -0.1188    2.6419    1.7590 H   0  0  0  0  0  0  0  0  0  0  0  0
   -1.4225    1.2715   -1.5172 H   0  0  0  0  0  0  0  0  0  0  0  0
   -1.3003   -0.3439   -2.2352 H   0  0  0  0  0  0  0  0  0  0  0  0
   -2.1675   -0.1231   -0.7034 H   0  0  0  0  0  0  0  0  0  0  0  0
    2.1678    0.2564   -0.8317 H   0  0  0  0  0  0  0  0  0  0  0  0
    1.2720   -0.1827   -2.2921 H   0  0  0  0  0  0  0  0  0  0  0  0
    1.1400    1.4580   -1.6431 H   0  0  0  0  0  0  0  0  0  0  0  0
  1  2  1  0  0  0  0
  1 11  1  0  0  0  0
  2  3  2  0  0  0  0
  4  7  1  0  0  0  0
  4  2  1  0  0  0  0
  5 14  1  0  0  0  0
  5  4  1  0  0  0  0
  6 15  1  0  0  0  0
  6  4  1  0  0  0  0
  7  8  3  0  0  0  0
  9  1  1  0  0  0  0
 10  1  1  0  0  0  0
 12  5  1  0  0  0  0
 13  5  1  0  0  0  0
 16  6  1  0  0  0  0
 17  6  1  0  0  0  0
M  END
