title
 OpenBabel02282109573D

 16 15  0  0  1  0  0  0  0  0999 V2000
    0.7623    1.7245    1.0562 C   0  0  0  0  0  0  0  0  0  0  0  0
   -0.3073    0.6885    0.8012 C   0  0  0  0  0  0  0  0  0  0  0  0
   -1.2187    0.4713    1.5587 O   0  0  0  0  0  0  0  0  0  0  0  0
   -0.1705   -0.1339   -0.5217 C   0  0  1  0  0  0  0  0  0  0  0  0
   -1.5336   -0.6868   -0.9536 C   0  0  0  0  0  0  0  0  0  0  0  0
    0.3603    0.7708   -1.4924 O   0  0  0  0  0  0  0  0  0  0  0  0
    0.7825   -1.2187   -0.2541 C   0  0  0  0  0  0  0  0  0  0  0  0
    1.5746   -2.1006   -0.0506 C   0  0  0  0  0  0  0  0  0  0  0  0
    1.7565    1.2921    0.9114 H   0  0  0  0  0  0  0  0  0  0  0  0
    0.6654    2.5357    0.3288 H   0  0  0  0  0  0  0  0  0  0  0  0
    0.6542    2.1133    2.0691 H   0  0  0  0  0  0  0  0  0  0  0  0
   -2.2009    0.1464   -1.1872 H   0  0  0  0  0  0  0  0  0  0  0  0
   -1.4196   -1.3153   -1.8412 H   0  0  0  0  0  0  0  0  0  0  0  0
   -1.9756   -1.2775   -0.1504 H   0  0  0  0  0  0  0  0  0  0  0  0
    0.6721    0.2488   -2.2394 H   0  0  0  0  0  0  0  0  0  0  0  0
    2.2700   -2.8823    0.1339 H   0  0  0  0  0  0  0  0  0  0  0  0
  1 11  1  0  0  0  0
  2  1  1  0  0  0  0
  2  3  2  0  0  0  0
  4  7  1  1  0  0  0
  4  2  1  0  0  0  0
  5  4  1  0  0  0  0
  5 14  1  0  0  0  0
  6  4  1  0  0  0  0
  7  8  3  0  0  0  0
  8 16  1  0  0  0  0
  9  1  1  0  0  0  0
 10  1  1  0  0  0  0
 12  5  1  0  0  0  0
 13  5  1  0  0  0  0
 15  6  1  0  0  0  0
M  END
