15
title
C 0.8229282 2.1539416 -0.22568253
C 0.8630082 0.6941547 0.160017
O 1.8585947 0.119827166 0.5178609
C -0.49911246 -0.079046234 0.13018943
C -0.9169574 -0.3370681 1.5869405
O -1.5461887 0.66330534 -0.47408545
C -0.29969677 -1.3532785 -0.5870869
N -0.18041478 -2.3225138 -1.2047291
H 1.7934883 2.605007 -0.018255142
H 0.5957433 2.2534318 -1.2932969
H 0.025626734 2.6783025 0.3080937
H -1.0862086 0.6217236 2.084541
H -1.8452739 -0.9109879 1.6053083
H -0.13070028 -0.88373643 2.1089277
H -1.4487273 0.6261459 -1.4321859
