title
 OpenBabel02282109573D

 15 14  0  0  1  0  0  0  0  0999 V2000
    0.8229    2.1539   -0.2257 C   0  0  0  0  0  0  0  0  0  0  0  0
    0.8630    0.6942    0.1600 C   0  0  0  0  0  0  0  0  0  0  0  0
    1.8586    0.1198    0.5179 O   0  0  0  0  0  0  0  0  0  0  0  0
   -0.4991   -0.0790    0.1302 C   0  0  1  0  0  0  0  0  0  0  0  0
   -0.9170   -0.3371    1.5869 C   0  0  0  0  0  0  0  0  0  0  0  0
   -1.5462    0.6633   -0.4741 O   0  0  0  0  0  0  0  0  0  0  0  0
   -0.2997   -1.3533   -0.5871 C   0  0  0  0  0  0  0  0  0  0  0  0
   -0.1804   -2.3225   -1.2047 N   0  0  0  0  0  0  0  0  0  0  0  0
    1.7935    2.6050   -0.0183 H   0  0  0  0  0  0  0  0  0  0  0  0
    0.5957    2.2534   -1.2933 H   0  0  0  0  0  0  0  0  0  0  0  0
    0.0256    2.6783    0.3081 H   0  0  0  0  0  0  0  0  0  0  0  0
   -1.0862    0.6217    2.0845 H   0  0  0  0  0  0  0  0  0  0  0  0
   -1.8453   -0.9110    1.6053 H   0  0  0  0  0  0  0  0  0  0  0  0
   -0.1307   -0.8837    2.1089 H   0  0  0  0  0  0  0  0  0  0  0  0
   -1.4487    0.6261   -1.4322 H   0  0  0  0  0  0  0  0  0  0  0  0
  1  9  1  0  0  0  0
  1  2  1  0  0  0  0
  1 11  1  0  0  0  0
  2  3  2  0  0  0  0
  4  7  1  6  0  0  0
  4  2  1  0  0  0  0
  4  5  1  0  0  0  0
  5 13  1  0  0  0  0
  5 12  1  0  0  0  0
  5 14  1  0  0  0  0
  6  4  1  0  0  0  0
  8  7  3  0  0  0  0
 10  1  1  0  0  0  0
 15  6  1  0  0  0  0
M  END
