17
title
C 0.06254231 1.6356841 0.9168466
C -0.14500433 0.15928546 0.49849242
C 0.12877893 -0.77188575 1.7050502
C -1.5140558 -0.03543361 0.01888964
C -2.6442385 -0.19217338 -0.36485243
C 0.9288684 -0.1653538 -0.58334523
N 0.46829206 -0.5738362 -1.7898794
O 2.110862 -0.046893347 -0.32217574
H 1.1026409 1.7756312 1.217785
H -0.15791973 2.3135161 0.08778287
H -0.5968509 1.886737 1.7517049
H -0.530804 -0.5133218 2.5374627
H -0.044225637 -1.8185433 1.4405657
H 1.1694865 -0.65502286 2.0136738
H -3.6460674 -0.32736465 -0.69127756
H -0.51704895 -0.6609135 -1.9719344
H 1.1387173 -0.79083496 -2.5085268
