title
 OpenBabel02282109573D

 15 14  0  0  1  0  0  0  0  0999 V2000
    0.3963    1.4819    1.0569 C   0  0  0  0  0  0  0  0  0  0  0  0
   -0.1065    0.1160    0.5357 C   0  0  1  0  0  0  0  0  0  0  0  0
   -0.0953   -0.8434    1.6431 N   0  0  0  0  0  0  0  0  0  0  0  0
   -1.4784    0.2543    0.0263 C   0  0  0  0  0  0  0  0  0  0  0  0
   -2.5308    0.3695   -0.4384 N   0  0  0  0  0  0  0  0  0  0  0  0
    0.8734   -0.3277   -0.6059 C   0  0  0  0  0  0  0  0  0  0  0  0
    0.5038   -0.0564   -1.8785 N   0  0  0  0  0  0  0  0  0  0  0  0
    1.9307   -0.8395   -0.2949 O   0  0  0  0  0  0  0  0  0  0  0  0
    1.4260    1.3591    1.4016 H   0  0  0  0  0  0  0  0  0  0  0  0
    0.3766    2.2396    0.2698 H   0  0  0  0  0  0  0  0  0  0  0  0
   -0.2268    1.8032    1.8929 H   0  0  0  0  0  0  0  0  0  0  0  0
   -0.5541   -1.7040    1.3534 H   0  0  0  0  0  0  0  0  0  0  0  0
    0.8837   -1.0903    1.7856 H   0  0  0  0  0  0  0  0  0  0  0  0
   -0.4235    0.2613   -2.1071 H   0  0  0  0  0  0  0  0  0  0  0  0
    1.1201   -0.3402   -2.6235 H   0  0  0  0  0  0  0  0  0  0  0  0
  1  9  1  0  0  0  0
  1 11  1  0  0  0  0
  2  4  1  6  0  0  0
  2  1  1  0  0  0  0
  2  3  1  0  0  0  0
  3 13  1  0  0  0  0
  5  4  3  0  0  0  0
  6  8  2  0  0  0  0
  6  2  1  0  0  0  0
  7  6  1  0  0  0  0
 10  1  1  0  0  0  0
 12  3  1  0  0  0  0
 14  7  1  0  0  0  0
 15  7  1  0  0  0  0
M  END
