title
 OpenBabel02282109573D

 14 13  0  0  1  0  0  0  0  0999 V2000
   -0.1446    1.8094    0.4194 C   0  0  0  0  0  0  0  0  0  0  0  0
   -0.0348    0.2781    0.4351 C   0  0  1  0  0  0  0  0  0  0  0  0
    0.7188   -0.0812    1.5919 O   0  0  0  0  0  0  0  0  0  0  0  0
   -1.3726   -0.3391    0.4994 C   0  0  0  0  0  0  0  0  0  0  0  0
   -2.3989   -0.8559    0.6182 N   0  0  0  0  0  0  0  0  0  0  0  0
    0.6516   -0.1696   -0.8939 C   0  0  0  0  0  0  0  0  0  0  0  0
    1.9188   -0.6133   -0.7229 N   0  0  0  0  0  0  0  0  0  0  0  0
    0.0720   -0.0772   -1.9536 O   0  0  0  0  0  0  0  0  0  0  0  0
    0.8625    2.2342    0.4341 H   0  0  0  0  0  0  0  0  0  0  0  0
   -0.6601    2.1319   -0.4860 H   0  0  0  0  0  0  0  0  0  0  0  0
   -0.6890    2.1527    1.3009 H   0  0  0  0  0  0  0  0  0  0  0  0
    0.5195   -0.9974    1.8172 H   0  0  0  0  0  0  0  0  0  0  0  0
    2.3466   -0.5696    0.1865 H   0  0  0  0  0  0  0  0  0  0  0  0
    2.4682   -0.8335   -1.5372 H   0  0  0  0  0  0  0  0  0  0  0  0
  1  9  1  0  0  0  0
  1  2  1  0  0  0  0
  1 11  1  0  0  0  0
  2  4  1  1  0  0  0
  2  3  1  0  0  0  0
  3 12  1  0  0  0  0
  4  5  3  0  0  0  0
  6  7  1  0  0  0  0
  6  2  1  0  0  0  0
  7 13  1  0  0  0  0
  8  6  2  0  0  0  0
 10  1  1  0  0  0  0
 14  7  1  0  0  0  0
M  END
