16
title
C -0.8660843 1.024676 1.6005182
C 0.29734766 0.82008755 0.66816056
O 1.3832475 1.3330686 0.8326116
C 0.110332556 -0.07830802 -0.58141583
C -1.1053 0.3728839 -1.412404
O 1.2815617 -0.03892193 -1.3480109
C -0.10119423 -1.5295074 -0.10302263
O -1.1007695 -1.9432051 0.42307276
H -0.5107091 1.4323728 2.5476193
H -1.5631853 1.7400774 1.1488321
H -1.415094 0.091979705 1.7507871
H -1.037734 1.4399786 -1.6403619
H -1.1077305 -0.17755929 -2.3563955
H -2.0374796 0.16527626 -0.8833522
H 1.9023895 0.5117084 -0.83953434
H 0.78345567 -2.1685243 -0.30972904
