22
title
C 1.1463538 1.7414434 0.0631918
C 1.0969876 0.2067437 0.081789955
C 1.9620497 -0.3345547 1.2303846
C -0.3714237 -0.35621312 0.07867899
C -0.3601919 -1.9043585 0.044469513
C -1.1897655 0.11438225 1.3044789
C -1.0429013 0.10920921 -1.1426955
C -1.5984576 0.4686339 -2.1473665
H 2.1723325 2.0830097 -0.10766996
H 0.5158747 2.152657 -0.72911525
H 0.8181569 2.1674259 1.0175631
H 1.5404643 -0.14619409 -0.8586915
H 1.5723505 -0.03637939 2.2095163
H 2.046058 -1.4240344 1.2165285
H 2.9755456 0.071900316 1.1503357
H 0.01782528 -2.3139834 0.9850263
H -1.3732305 -2.2864692 -0.107292034
H 0.2659342 -2.2744317 -0.77293175
H -1.285176 1.2019793 1.3316708
H -2.1981497 -0.30699223 1.2661117
H -0.7208901 -0.21763824 2.2354586
H -2.0890458 0.7895354 -3.032762
