20
title
C -0.57817245 1.7205827 -1.0093918
C -0.49271503 0.18800567 -1.0047016
C 0.121193856 -0.3190932 -2.3168619
C 0.2687346 -0.35830122 0.25958118
C 0.27976486 -1.9006894 0.29457077
N 1.6573466 0.100846216 0.41204748
C -0.47052723 0.104226604 1.4560091
N -1.074489 0.46482196 2.3728452
H 0.40941676 2.1770117 -1.1435461
H -1.2042537 2.0608978 -1.8393463
H -1.0113555 2.10635 -0.08250735
H -1.5153121 -0.20492733 -0.93316877
H 1.1667094 -0.005484221 -2.4180813
H 0.0813503 -1.4073219 -2.408324
H -0.4230719 0.10127625 -3.167746
H 0.9043744 -2.2906034 -0.51339144
H 0.69517046 -2.2465522 1.2425601
H -0.7295305 -2.3031528 0.17843267
H 2.2097487 -0.22710288 -0.3741329
H 1.7046102 1.1147344 0.41467568
