20
title
C -0.5490708 1.7173467 -1.0235702
C -0.51556355 0.1822575 -1.0022144
C 0.11681784 -0.3548249 -2.2936804
C 0.21737374 -0.35325962 0.27168557
C 0.31247985 -1.8863778 0.29031393
O 1.5746187 0.10895199 0.30645332
C -0.49651605 0.097526126 1.4792483
C -1.0680791 0.47263914 2.4688246
H 0.4586587 2.129815 -1.1499867
H -1.1502961 2.0737906 -1.8651816
H -0.9785207 2.1260066 -0.104702696
H -1.5497695 -0.17950492 -0.9347719
H 1.1899167 -0.14132117 -2.3095748
H -0.018770268 -1.4333627 -2.40695
H -0.33881178 0.12650432 -3.164601
H 0.96981615 -2.2267294 -0.5120372
H 0.7314655 -2.2169654 1.2427127
H -0.67489564 -2.3377378 0.16356356
H 1.5633358 1.0375893 0.5603748
H -1.570997 0.7984245 3.3459072
