title
 OpenBabel02282109573D

 18 17  0  0  1  0  0  0  0  0999 V2000
    1.1728    1.7210   -0.0604 C   0  0  0  0  0  0  0  0  0  0  0  0
    1.1124    0.1943    0.0234 C   0  0  1  0  0  0  0  0  0  0  0  0
    1.8030   -0.2903    1.1558 O   0  0  0  0  0  0  0  0  0  0  0  0
   -0.3480   -0.3755    0.0569 C   0  0  1  0  0  0  0  0  0  0  0  0
   -0.3099   -1.9123    0.0106 C   0  0  0  0  0  0  0  0  0  0  0  0
   -0.9485    0.0472    1.3345 N   0  0  0  0  0  0  0  0  0  0  0  0
   -1.1156    0.1223   -1.1047 C   0  0  0  0  0  0  0  0  0  0  0  0
   -1.7309    0.5273   -1.9965 N   0  0  0  0  0  0  0  0  0  0  0  0
    2.2192    2.0353   -0.0684 H   0  0  0  0  0  0  0  0  0  0  0  0
    0.6871    2.0978   -0.9651 H   0  0  0  0  0  0  0  0  0  0  0  0
    0.6981    2.1848    0.8115 H   0  0  0  0  0  0  0  0  0  0  0  0
    1.6136   -0.2339   -0.8518 H   0  0  0  0  0  0  0  0  0  0  0  0
    1.2087   -0.1295    1.9042 H   0  0  0  0  0  0  0  0  0  0  0  0
    0.3004   -2.2742    0.8390 H   0  0  0  0  0  0  0  0  0  0  0  0
   -1.3186   -2.3288    0.0860 H   0  0  0  0  0  0  0  0  0  0  0  0
    0.1298   -2.2556   -0.9286 H   0  0  0  0  0  0  0  0  0  0  0  0
   -1.2466    1.0166    1.2896 H   0  0  0  0  0  0  0  0  0  0  0  0
   -1.7757   -0.5057    1.5353 H   0  0  0  0  0  0  0  0  0  0  0  0
  1  2  1  0  0  0  0
  1 11  1  0  0  0  0
  2 12  1  6  0  0  0
  2  4  1  0  0  0  0
  2  3  1  0  0  0  0
  3 13  1  0  0  0  0
  4  7  1  6  0  0  0
  4  6  1  0  0  0  0
  5  4  1  0  0  0  0
  5 15  1  0  0  0  0
  5 14  1  0  0  0  0
  6 18  1  0  0  0  0
  8  7  3  0  0  0  0
  9  1  1  0  0  0  0
 10  1  1  0  0  0  0
 16  5  1  0  0  0  0
 17  6  1  0  0  0  0
M  END
