17
title
C 1.1549212 1.7093619 -0.07995458
C 1.1090707 0.19099444 0.04567077
O 1.6409678 -0.24787968 1.2979709
C -0.33992332 -0.38610888 0.05082292
C -0.3187384 -1.925478 0.008182177
O -1.0222214 0.08050348 1.203196
C -1.0718042 0.11876958 -1.1274209
N -1.6135601 0.4850022 -2.0793684
H 2.1858275 2.06618 0.025383076
H 0.7905389 2.032423 -1.0581179
H 0.53645545 2.1729333 0.69296163
H 1.6632644 -0.27478027 -0.7816853
H 2.3880093 0.31400967 1.5238222
H 0.27471715 -2.2957325 0.8467302
H -1.3383449 -2.3064196 0.091540575
H 0.12137966 -2.289567 -0.9246148
H -0.378164 -0.017087005 1.9193648
