title
 OpenBabel02282109573D

 17 16  0  0  1  0  0  0  0  0999 V2000
    1.1549    1.7094   -0.0800 C   0  0  0  0  0  0  0  0  0  0  0  0
    1.1091    0.1910    0.0457 C   0  0  1  0  0  0  0  0  0  0  0  0
    1.6410   -0.2479    1.2980 O   0  0  0  0  0  0  0  0  0  0  0  0
   -0.3399   -0.3861    0.0508 C   0  0  1  0  0  0  0  0  0  0  0  0
   -0.3187   -1.9255    0.0082 C   0  0  0  0  0  0  0  0  0  0  0  0
   -1.0222    0.0805    1.2032 O   0  0  0  0  0  0  0  0  0  0  0  0
   -1.0718    0.1188   -1.1274 C   0  0  0  0  0  0  0  0  0  0  0  0
   -1.6136    0.4850   -2.0794 N   0  0  0  0  0  0  0  0  0  0  0  0
    2.1858    2.0662    0.0254 H   0  0  0  0  0  0  0  0  0  0  0  0
    0.7905    2.0324   -1.0581 H   0  0  0  0  0  0  0  0  0  0  0  0
    0.5365    2.1729    0.6930 H   0  0  0  0  0  0  0  0  0  0  0  0
    1.6633   -0.2748   -0.7817 H   0  0  0  0  0  0  0  0  0  0  0  0
    2.3880    0.3140    1.5238 H   0  0  0  0  0  0  0  0  0  0  0  0
    0.2747   -2.2957    0.8467 H   0  0  0  0  0  0  0  0  0  0  0  0
   -1.3383   -2.3064    0.0915 H   0  0  0  0  0  0  0  0  0  0  0  0
    0.1214   -2.2896   -0.9246 H   0  0  0  0  0  0  0  0  0  0  0  0
   -0.3782   -0.0171    1.9194 H   0  0  0  0  0  0  0  0  0  0  0  0
  1  9  1  0  0  0  0
  1  2  1  0  0  0  0
  1 11  1  0  0  0  0
  2 12  1  6  0  0  0
  2  4  1  0  0  0  0
  2  3  1  0  0  0  0
  3 13  1  0  0  0  0
  4  7  1  6  0  0  0
  4  6  1  0  0  0  0
  5  4  1  0  0  0  0
  5 15  1  0  0  0  0
  5 14  1  0  0  0  0
  6 17  1  0  0  0  0
  8  7  3  0  0  0  0
 10  1  1  0  0  0  0
 16  5  1  0  0  0  0
M  END
