title
 OpenBabel02282109573D

 22 21  0  0  0  0  0  0  0  0999 V2000
    1.1068    1.7289    0.0391 C   0  0  0  0  0  0  0  0  0  0  0  0
    1.0231    0.1936    0.0735 C   0  0  0  0  0  0  0  0  0  0  0  0
    1.9693   -0.3573    1.1516 C   0  0  0  0  0  0  0  0  0  0  0  0
   -0.4357   -0.3301    0.2015 C   0  0  0  0  0  0  0  0  0  0  0  0
   -0.4815   -1.8760    0.3044 C   0  0  0  0  0  0  0  0  0  0  0  0
   -1.2111    0.2654    1.3940 C   0  0  0  0  0  0  0  0  0  0  0  0
   -1.2265   -0.0203   -1.0687 C   0  0  0  0  0  0  0  0  0  0  0  0
   -0.7746    0.3643   -2.1160 O   0  0  0  0  0  0  0  0  0  0  0  0
    2.1261    2.0406   -0.2104 H   0  0  0  0  0  0  0  0  0  0  0  0
    0.4388    2.1551   -0.7124 H   0  0  0  0  0  0  0  0  0  0  0  0
    0.8640    2.1702    1.0120 H   0  0  0  0  0  0  0  0  0  0  0  0
    1.3766   -0.1670   -0.9001 H   0  0  0  0  0  0  0  0  0  0  0  0
    1.6508   -0.0699    2.1602 H   0  0  0  0  0  0  0  0  0  0  0  0
    2.0500   -1.4470    1.1224 H   0  0  0  0  0  0  0  0  0  0  0  0
    2.9756    0.0479    1.0044 H   0  0  0  0  0  0  0  0  0  0  0  0
   -0.1289   -2.2099    1.2837 H   0  0  0  0  0  0  0  0  0  0  0  0
   -1.5059   -2.2464    0.1835 H   0  0  0  0  0  0  0  0  0  0  0  0
    0.1388   -2.3437   -0.4665 H   0  0  0  0  0  0  0  0  0  0  0  0
   -1.2861    1.3544    1.3359 H   0  0  0  0  0  0  0  0  0  0  0  0
   -2.2294   -0.1371    1.4319 H   0  0  0  0  0  0  0  0  0  0  0  0
   -0.7238    0.0091    2.3391 H   0  0  0  0  0  0  0  0  0  0  0  0
   -2.3202   -0.2245   -0.9650 H   0  0  0  0  0  0  0  0  0  0  0  0
  1  2  1  0  0  0  0
  1 11  1  0  0  0  0
  2  4  1  0  0  0  0
  2  3  1  0  0  0  0
  3 13  1  0  0  0  0
  4  5  1  0  0  0  0
  4  6  1  0  0  0  0
  5 16  1  0  0  0  0
  6 20  1  0  0  0  0
  6 21  1  0  0  0  0
  7 22  1  0  0  0  0
  7  4  1  0  0  0  0
  8  7  2  0  0  0  0
  9  1  1  0  0  0  0
 10  1  1  0  0  0  0
 12  2  1  0  0  0  0
 14  3  1  0  0  0  0
 15  3  1  0  0  0  0
 17  5  1  0  0  0  0
 18  5  1  0  0  0  0
 19  6  1  0  0  0  0
M  END
