title
 OpenBabel02282109573D

 18 17  0  0  1  0  0  0  0  0999 V2000
    1.1030    1.7437   -0.1681 C   0  0  0  0  0  0  0  0  0  0  0  0
    1.0437    0.2324    0.0420 C   0  0  1  0  0  0  0  0  0  0  0  0
    1.6664   -0.1392    1.2763 O   0  0  0  0  0  0  0  0  0  0  0  0
   -0.4010   -0.3146    0.1730 C   0  0  1  0  0  0  0  0  0  0  0  0
   -0.3997   -1.8531    0.2370 C   0  0  0  0  0  0  0  0  0  0  0  0
   -1.0215    0.2476    1.3189 O   0  0  0  0  0  0  0  0  0  0  0  0
   -1.2480    0.1181   -1.0191 C   0  0  0  0  0  0  0  0  0  0  0  0
   -0.9467   -0.0889   -2.1665 O   0  0  0  0  0  0  0  0  0  0  0  0
    2.1419    2.0923   -0.1394 H   0  0  0  0  0  0  0  0  0  0  0  0
    0.6945    2.0196   -1.1440 H   0  0  0  0  0  0  0  0  0  0  0  0
    0.5373    2.2593    0.6124 H   0  0  0  0  0  0  0  0  0  0  0  0
    1.5281   -0.2803   -0.7999 H   0  0  0  0  0  0  0  0  0  0  0  0
    2.4858    0.3569    1.3629 H   0  0  0  0  0  0  0  0  0  0  0  0
    0.2499   -2.1874    1.0491 H   0  0  0  0  0  0  0  0  0  0  0  0
   -1.4133   -2.2187    0.4226 H   0  0  0  0  0  0  0  0  0  0  0  0
   -0.0392   -2.2743   -0.7056 H   0  0  0  0  0  0  0  0  0  0  0  0
   -0.3733    0.1641    2.0303 H   0  0  0  0  0  0  0  0  0  0  0  0
   -2.1896    0.6355   -0.7325 H   0  0  0  0  0  0  0  0  0  0  0  0
  1  9  1  0  0  0  0
  1  2  1  0  0  0  0
  1 11  1  0  0  0  0
  2 12  1  6  0  0  0
  2  4  1  0  0  0  0
  2  3  1  0  0  0  0
  3 13  1  0  0  0  0
  4  7  1  6  0  0  0
  4  5  1  0  0  0  0
  4  6  1  0  0  0  0
  5 15  1  0  0  0  0
  5 14  1  0  0  0  0
  6 17  1  0  0  0  0
  7 18  1  0  0  0  0
  8  7  2  0  0  0  0
 10  1  1  0  0  0  0
 16  5  1  0  0  0  0
M  END
