18
title
C 1.1029842 1.7437468 -0.168088
C 1.0436919 0.23241653 0.041961696
O 1.6664383 -0.13916942 1.2763366
C -0.40095487 -0.314598 0.17301875
C -0.39972106 -1.8531452 0.23696454
O -1.0214953 0.24756753 1.3189403
C -1.2479749 0.11805296 -1.0190836
O -0.9467411 -0.088923395 -2.166549
H 2.1419194 2.092317 -0.1394315
H 0.69454426 2.0196266 -1.1439822
H 0.5372544 2.2592895 0.61239606
H 1.5280707 -0.28033993 -0.79990315
H 2.4857898 0.3568909 1.3629297
H 0.24989669 -2.187396 1.0490824
H -1.4133062 -2.2186642 0.42263505
H -0.03919174 -2.2742763 -0.70555955
H -0.37325254 0.16411169 2.0302937
H -2.1896143 0.63546103 -0.7325188
