20
title
C 0.98021585 2.2838209 -0.14133376
C 1.0061467 0.77318025 0.03266286
O 2.0573118 0.19062936 0.18879788
C -0.33065504 0.013468985 0.0028623098
C -1.0987417 0.31319144 1.3116916
C -1.1779512 0.4381513 -1.2138398
C -0.021852182 -1.4915972 -0.07324374
O -1.2570356 -2.1981468 -0.094041884
H 1.9466746 2.692081 0.15685959
H 0.80654514 2.5278878 -1.1954802
H 0.17843021 2.7556124 0.43290237
H -1.4128357 1.3591447 1.3692423
H -1.9901007 -0.3167503 1.3542993
H -0.48363632 0.090976186 2.1900237
H -0.62683755 0.29952803 -2.1506574
H -2.0771325 -0.17990047 -1.2607824
H -1.4836556 1.4859842 -1.1497035
H 0.56928843 -1.6972628 -0.9772507
H 0.5918228 -1.7813053 0.7887004
H -1.0607184 -3.138724 -0.09456517
