title
 OpenBabel02282109573D

 20 19  0  0  0  0  0  0  0  0999 V2000
    0.9802    2.2838   -0.1413 C   0  0  0  0  0  0  0  0  0  0  0  0
    1.0061    0.7732    0.0327 C   0  0  0  0  0  0  0  0  0  0  0  0
    2.0573    0.1906    0.1888 O   0  0  0  0  0  0  0  0  0  0  0  0
   -0.3307    0.0135    0.0029 C   0  0  0  0  0  0  0  0  0  0  0  0
   -1.0987    0.3132    1.3117 C   0  0  0  0  0  0  0  0  0  0  0  0
   -1.1780    0.4382   -1.2138 C   0  0  0  0  0  0  0  0  0  0  0  0
   -0.0219   -1.4916   -0.0732 C   0  0  0  0  0  0  0  0  0  0  0  0
   -1.2570   -2.1981   -0.0940 O   0  0  0  0  0  0  0  0  0  0  0  0
    1.9467    2.6921    0.1569 H   0  0  0  0  0  0  0  0  0  0  0  0
    0.8065    2.5279   -1.1955 H   0  0  0  0  0  0  0  0  0  0  0  0
    0.1784    2.7556    0.4329 H   0  0  0  0  0  0  0  0  0  0  0  0
   -1.4128    1.3591    1.3692 H   0  0  0  0  0  0  0  0  0  0  0  0
   -1.9901   -0.3168    1.3543 H   0  0  0  0  0  0  0  0  0  0  0  0
   -0.4836    0.0910    2.1900 H   0  0  0  0  0  0  0  0  0  0  0  0
   -0.6268    0.2995   -2.1507 H   0  0  0  0  0  0  0  0  0  0  0  0
   -2.0771   -0.1799   -1.2608 H   0  0  0  0  0  0  0  0  0  0  0  0
   -1.4837    1.4860   -1.1497 H   0  0  0  0  0  0  0  0  0  0  0  0
    0.5693   -1.6973   -0.9773 H   0  0  0  0  0  0  0  0  0  0  0  0
    0.5918   -1.7813    0.7887 H   0  0  0  0  0  0  0  0  0  0  0  0
   -1.0607   -3.1387   -0.0946 H   0  0  0  0  0  0  0  0  0  0  0  0
  1  2  1  0  0  0  0
  1  9  1  0  0  0  0
  1 11  1  0  0  0  0
  2  3  2  0  0  0  0
  4  2  1  0  0  0  0
  4  5  1  0  0  0  0
  5 13  1  0  0  0  0
  5 12  1  0  0  0  0
  5 14  1  0  0  0  0
  6 17  1  0  0  0  0
  6  4  1  0  0  0  0
  7  4  1  0  0  0  0
  7 19  1  0  0  0  0
  8  7  1  0  0  0  0
 10  1  1  0  0  0  0
 15  6  1  0  0  0  0
 16  6  1  0  0  0  0
 18  7  1  0  0  0  0
 20  8  1  0  0  0  0
M  END
