title
 OpenBabel02282109573D

 19 18  0  0  0  0  0  0  0  0999 V2000
    0.0089    1.7286    0.2852 C   0  0  0  0  0  0  0  0  0  0  0  0
    0.0312    0.1855    0.2875 C   0  0  0  0  0  0  0  0  0  0  0  0
    0.7795   -0.3376    1.5320 C   0  0  0  0  0  0  0  0  0  0  0  0
   -1.4115   -0.3493    0.2929 C   0  0  0  0  0  0  0  0  0  0  0  0
   -2.0533    0.1236    1.4723 O   0  0  0  0  0  0  0  0  0  0  0  0
    0.7011   -0.3403   -0.9967 C   0  0  0  0  0  0  0  0  0  0  0  0
    2.0000    0.0340   -1.1827 N   0  0  0  0  0  0  0  0  0  0  0  0
    0.1216   -1.0462   -1.8031 O   0  0  0  0  0  0  0  0  0  0  0  0
    1.0148    2.1544    0.3562 H   0  0  0  0  0  0  0  0  0  0  0  0
   -0.4548    2.1144   -0.6285 H   0  0  0  0  0  0  0  0  0  0  0  0
   -0.5725    2.0855    1.1384 H   0  0  0  0  0  0  0  0  0  0  0  0
    0.2283   -0.0578    2.4325 H   0  0  0  0  0  0  0  0  0  0  0  0
    0.8650   -1.4289    1.5100 H   0  0  0  0  0  0  0  0  0  0  0  0
    1.7899    0.0764    1.6079 H   0  0  0  0  0  0  0  0  0  0  0  0
   -1.9297   -0.0046   -0.6112 H   0  0  0  0  0  0  0  0  0  0  0  0
   -1.3922   -1.4462    0.2592 H   0  0  0  0  0  0  0  0  0  0  0  0
   -2.9535   -0.2120    1.4730 H   0  0  0  0  0  0  0  0  0  0  0  0
    2.5001    0.6149   -0.5348 H   0  0  0  0  0  0  0  0  0  0  0  0
    2.4709   -0.2904   -2.0108 H   0  0  0  0  0  0  0  0  0  0  0  0
  1  2  1  0  0  0  0
  1  9  1  0  0  0  0
  1 11  1  0  0  0  0
  2  4  1  0  0  0  0
  2  3  1  0  0  0  0
  3 14  1  0  0  0  0
  3 12  1  0  0  0  0
  4  5  1  0  0  0  0
  5 17  1  0  0  0  0
  6  2  1  0  0  0  0
  7  6  1  0  0  0  0
  7 18  1  0  0  0  0
  8  6  2  0  0  0  0
 10  1  1  0  0  0  0
 13  3  1  0  0  0  0
 15  4  1  0  0  0  0
 16  4  1  0  0  0  0
 19  7  1  0  0  0  0
M  END
