title
 OpenBabel02282109573D

 20 19  0  0  0  0  0  0  0  0999 V2000
    1.1710    2.2480    0.1222 C   0  0  0  0  0  0  0  0  0  0  0  0
    1.0360    0.8439    0.1339 O   0  0  0  0  0  0  0  0  0  0  0  0
   -0.2731    0.3050   -0.0467 C   0  0  0  0  0  0  0  0  0  0  0  0
   -1.2289    0.7162    1.0868 C   0  0  0  0  0  0  0  0  0  0  0  0
   -0.8598    0.6612   -1.4239 C   0  0  0  0  0  0  0  0  0  0  0  0
   -0.1098   -1.2354    0.0110 C   0  0  0  0  0  0  0  0  0  0  0  0
    1.2737   -1.8049    0.2269 C   0  0  0  0  0  0  0  0  0  0  0  0
   -1.0869   -1.9377   -0.1172 O   0  0  0  0  0  0  0  0  0  0  0  0
    2.2330    2.4564    0.2745 H   0  0  0  0  0  0  0  0  0  0  0  0
    0.8653    2.6927   -0.8344 H   0  0  0  0  0  0  0  0  0  0  0  0
    0.6046    2.7326    0.9288 H   0  0  0  0  0  0  0  0  0  0  0  0
   -1.4994    1.7736    1.0179 H   0  0  0  0  0  0  0  0  0  0  0  0
   -2.1420    0.1214    1.0199 H   0  0  0  0  0  0  0  0  0  0  0  0
   -0.7663    0.5386    2.0626 H   0  0  0  0  0  0  0  0  0  0  0  0
   -0.1372    0.4449   -2.2168 H   0  0  0  0  0  0  0  0  0  0  0  0
   -1.7573    0.0639   -1.5970 H   0  0  0  0  0  0  0  0  0  0  0  0
   -1.1322    1.7188   -1.4811 H   0  0  0  0  0  0  0  0  0  0  0  0
    1.6959   -1.4284    1.1634 H   0  0  0  0  0  0  0  0  0  0  0  0
    1.2145   -2.8937    0.2421 H   0  0  0  0  0  0  0  0  0  0  0  0
    1.9499   -1.4662   -0.5637 H   0  0  0  0  0  0  0  0  0  0  0  0
  1  2  1  0  0  0  0
  1  9  1  0  0  0  0
  1 11  1  0  0  0  0
  3  6  1  0  0  0  0
  3  2  1  0  0  0  0
  3  4  1  0  0  0  0
  4 14  1  0  0  0  0
  5  3  1  0  0  0  0
  6  7  1  0  0  0  0
  7 19  1  0  0  0  0
  7 18  1  0  0  0  0
  8  6  2  0  0  0  0
 10  1  1  0  0  0  0
 12  4  1  0  0  0  0
 13  4  1  0  0  0  0
 15  5  1  0  0  0  0
 16  5  1  0  0  0  0
 17  5  1  0  0  0  0
 20  7  1  0  0  0  0
M  END
