20
title
C -0.83099234 1.7520646 -1.1709731
C -0.67520666 0.23009282 -1.1159464
O 0.029414631 -0.23780088 -2.2598867
C 0.039293505 -0.2908966 0.15663734
C 0.0123777175 -1.8280827 0.17756882
O 1.3908442 0.16496946 0.03687957
C -0.54066235 0.2857173 1.4587396
O 0.29647562 -0.03874876 2.568852
H 0.12888543 2.2423506 -0.9829614
H -1.1782238 2.0343738 -2.1679132
H -1.5592521 2.120942 -0.4415435
H -1.665335 -0.23833089 -1.1723032
H 0.9545199 -0.0033788134 -2.1104856
H 0.39893273 -2.2114065 -0.76762307
H 0.6389231 -2.220745 0.98554814
H -1.007165 -2.2067494 0.31244794
H 1.7624296 0.1301221 0.9280082
H -0.5436169 1.3764762 1.4163536
H -1.5724154 -0.057884473 1.6172551
H 0.16830449 -0.9689558 2.7799904
