title
 OpenBabel02282109573D

 24 23  0  0  1  0  0  0  0  0999 V2000
    1.5334    2.3322    0.1336 C   0  0  0  0  0  0  0  0  0  0  0  0
    1.3146    0.8181    0.2248 C   0  0  0  0  0  0  0  0  0  0  0  0
   -0.1530    0.3128    0.1711 C   0  0  0  0  0  0  0  0  0  0  0  0
   -0.9042    0.7400    1.4457 C   0  0  0  0  0  0  0  0  0  0  0  0
   -0.8750    0.8732   -1.0683 C   0  0  0  0  0  0  0  0  0  0  0  0
   -0.0818   -1.2461    0.1058 C   0  0  1  0  0  0  0  0  0  0  0  0
   -1.4165   -1.9848    0.2363 C   0  0  0  0  0  0  0  0  0  0  0  0
    0.6091   -1.6924   -1.0631 O   0  0  0  0  0  0  0  0  0  0  0  0
    2.5991    2.5631    0.2312 H   0  0  0  0  0  0  0  0  0  0  0  0
    1.2019    2.7384   -0.8269 H   0  0  0  0  0  0  0  0  0  0  0  0
    1.0112    2.8803    0.9249 H   0  0  0  0  0  0  0  0  0  0  0  0
    1.8642    0.3266   -0.5840 H   0  0  0  0  0  0  0  0  0  0  0  0
    1.7604    0.4534    1.1603 H   0  0  0  0  0  0  0  0  0  0  0  0
   -0.8388    1.8218    1.5949 H   0  0  0  0  0  0  0  0  0  0  0  0
   -1.9674    0.4865    1.3981 H   0  0  0  0  0  0  0  0  0  0  0  0
   -0.4822    0.2580    2.3355 H   0  0  0  0  0  0  0  0  0  0  0  0
   -0.3180    0.6585   -1.9866 H   0  0  0  0  0  0  0  0  0  0  0  0
   -1.8829    0.4580   -1.1723 H   0  0  0  0  0  0  0  0  0  0  0  0
   -0.9853    1.9590   -1.0012 H   0  0  0  0  0  0  0  0  0  0  0  0
    0.5634   -1.5672    0.9341 H   0  0  0  0  0  0  0  0  0  0  0  0
   -2.1222   -1.6938   -0.5508 H   0  0  0  0  0  0  0  0  0  0  0  0
   -1.2380   -3.0597    0.1442 H   0  0  0  0  0  0  0  0  0  0  0  0
   -1.8973   -1.8012    1.2003 H   0  0  0  0  0  0  0  0  0  0  0  0
    0.0054   -1.6105   -1.8088 H   0  0  0  0  0  0  0  0  0  0  0  0
  1  2  1  0  0  0  0
  1  9  1  0  0  0  0
  1 11  1  0  0  0  0
  2 13  1  0  0  0  0
  3  2  1  0  0  0  0
  3  4  1  0  0  0  0
  4 14  1  0  0  0  0
  4 16  1  0  0  0  0
  5 19  1  0  0  0  0
  5  3  1  0  0  0  0
  6  3  1  0  0  0  0
  6  7  1  0  0  0  0
  6 20  1  1  0  0  0
  7 23  1  0  0  0  0
  8  6  1  0  0  0  0
 10  1  1  0  0  0  0
 12  2  1  0  0  0  0
 15  4  1  0  0  0  0
 17  5  1  0  0  0  0
 18  5  1  0  0  0  0
 21  7  1  0  0  0  0
 22  7  1  0  0  0  0
 24  8  1  0  0  0  0
M  END
