title
 OpenBabel02282109573D

 24 23  0  0  1  0  0  0  0  0999 V2000
   -0.4067    2.2974    1.4956 C   0  0  0  0  0  0  0  0  0  0  0  0
   -0.5844    0.7978    1.2348 C   0  0  0  0  0  0  0  0  0  0  0  0
    0.1280    0.2686   -0.0339 C   0  0  1  0  0  0  0  0  0  0  0  0
   -0.4359    0.9138   -1.3031 C   0  0  0  0  0  0  0  0  0  0  0  0
    1.5064    0.6755   -0.0015 O   0  0  0  0  0  0  0  0  0  0  0  0
    0.0767   -1.2908   -0.0749 C   0  0  0  0  0  0  0  0  0  0  0  0
   -1.3410   -1.8847   -0.0708 C   0  0  0  0  0  0  0  0  0  0  0  0
    0.8927   -1.8765   -1.2380 C   0  0  0  0  0  0  0  0  0  0  0  0
    0.6509    2.5720    1.4778 H   0  0  0  0  0  0  0  0  0  0  0  0
   -0.9209    2.9050    0.7450 H   0  0  0  0  0  0  0  0  0  0  0  0
   -0.8185    2.5681    2.4727 H   0  0  0  0  0  0  0  0  0  0  0  0
   -0.1958    0.2355    2.0966 H   0  0  0  0  0  0  0  0  0  0  0  0
   -1.6526    0.5621    1.1792 H   0  0  0  0  0  0  0  0  0  0  0  0
   -0.2989    1.9967   -1.2672 H   0  0  0  0  0  0  0  0  0  0  0  0
    0.0845    0.5465   -2.1902 H   0  0  0  0  0  0  0  0  0  0  0  0
   -1.5037    0.7058   -1.4126 H   0  0  0  0  0  0  0  0  0  0  0  0
    1.9087    0.2774    0.7788 H   0  0  0  0  0  0  0  0  0  0  0  0
    0.5643   -1.6142    0.8592 H   0  0  0  0  0  0  0  0  0  0  0  0
   -1.2876   -2.9783   -0.0798 H   0  0  0  0  0  0  0  0  0  0  0  0
   -1.9181   -1.5933    0.8104 H   0  0  0  0  0  0  0  0  0  0  0  0
   -1.9042   -1.5815   -0.9601 H   0  0  0  0  0  0  0  0  0  0  0  0
    1.8737   -1.4020   -1.3085 H   0  0  0  0  0  0  0  0  0  0  0  0
    1.0353   -2.9529   -1.0972 H   0  0  0  0  0  0  0  0  0  0  0  0
    0.3799   -1.7416   -2.1962 H   0  0  0  0  0  0  0  0  0  0  0  0
  1 11  1  0  0  0  0
  2  1  1  0  0  0  0
  2 12  1  0  0  0  0
  3  5  1  1  0  0  0
  3  2  1  0  0  0  0
  4 14  1  0  0  0  0
  4  3  1  0  0  0  0
  5 17  1  0  0  0  0
  6  7  1  0  0  0  0
  6  3  1  0  0  0  0
  6 18  1  0  0  0  0
  7 20  1  0  0  0  0
  8 23  1  0  0  0  0
  8  6  1  0  0  0  0
  9  1  1  0  0  0  0
 10  1  1  0  0  0  0
 13  2  1  0  0  0  0
 15  4  1  0  0  0  0
 16  4  1  0  0  0  0
 19  7  1  0  0  0  0
 21  7  1  0  0  0  0
 22  8  1  0  0  0  0
 24  8  1  0  0  0  0
M  END
