24
title
C -0.6505125 2.1487374 1.2541142
O -0.40703735 0.7697996 1.1121091
C 0.22761573 0.30370814 -0.09506056
C -0.4901208 0.835919 -1.3456119
C 1.6998996 0.7473685 -0.09721419
C 0.11795797 -1.2433618 0.045138862
C -1.3396515 -1.7269949 0.08820096
C 0.9100844 -2.0318472 -1.0077044
H 0.26158336 2.7584815 1.1804845
H -1.3787833 2.530759 0.5250426
H -1.067403 2.285167 2.255895
H -0.3160673 1.9074913 -1.4796668
H -0.11713002 0.33499792 -2.2431538
H -1.56853 0.67001855 -1.2839888
H 2.2320929 0.31840512 0.75729084
H 2.2083209 0.4392617 -1.0143851
H 1.7822474 1.836511 -0.037726853
H 0.56096226 -1.4562646 1.0269021
H -1.8177686 -1.656649 -0.89530957
H -1.3801928 -2.7780437 0.39231983
H -1.9237921 -1.1403689 0.7994013
H 1.9795102 -1.8072053 -0.9859432
H 0.79833955 -3.105771 -0.82611895
H 0.54392177 -1.8389124 -2.0224798
