22
title
C 1.3509789 2.217386 -0.17100722
O 1.1606274 0.8242654 -0.08022353
C -0.18389656 0.32799917 -0.12710467
C -0.99296296 0.7881501 1.095138
C -0.8901342 0.73394686 -1.4282039
C 0.018147571 -1.2172569 -0.13328925
C 0.8302047 -1.7480692 1.0453513
O -1.2300004 -1.8957728 -0.253763
H 2.428661 2.3871975 -0.09875735
H 1.0005913 2.6314552 -1.1264334
H 0.8618097 2.7679746 0.64509195
H -1.2233151 1.8558345 1.0435946
H -1.9491597 0.25761944 1.1335287
H -0.44813398 0.6032001 2.0248032
H -0.24282612 0.53155917 -2.2875175
H -1.8047961 0.14858843 -1.5418129
H -1.1579224 1.7944356 -1.4382713
H 0.55871135 -1.4454356 -1.0593339
H 0.29610416 -1.6080335 1.9933587
H 1.0110044 -2.818926 0.9165628
H 1.7867588 -1.2285262 1.1182289
H -1.5932871 -2.0028832 0.6310773
