14
title
C 0.7943742 2.2685251 1.8392111
C -0.15369527 1.0946748 1.7400059
O -0.94363314 0.791079 2.6060765
C -0.06755535 0.32338646 0.50837874
C -0.010310396 -0.31810895 -0.51603687
C 0.041327134 -1.0872365 -1.7508911
C 0.83115935 -2.3749378 -1.681763
O -0.52285135 -0.6952565 -2.7480366
H 1.830351 1.9267827 1.7398229
H 0.60825825 2.9704778 1.0191644
H 0.6544397 2.767418 2.7991128
H 1.8638723 -2.169175 -1.380042
H 0.40123683 -3.0373313 -0.9226295
H 0.8153547 -2.8626118 -2.6573713
