12
title
N 1.7001071 2.3244905 -0.29281858
C 1.6906009 1.0106478 -0.0094607165
N 2.854908 0.39811134 0.2657602
H 2.8459935 -0.5849374 0.47770396
H 3.736681 0.8822528 0.26916263
C 0.509454 0.30501813 -0.0011443906
C -0.54257154 -0.32361943 0.0055976147
C -1.8419659 -1.100912 0.011008638
O -2.0976455 -1.5766307 -1.0977454
O -2.3789458 -1.1001178 1.1207701
H 2.5442548 2.8713822 -0.30868477
H 0.82814187 2.7811012 -0.49913952
