12
title
N 1.689151 2.3514893 -0.2091635
C 1.7987864 1.0111374 0.00243367
O 2.8519356 0.43091667 0.1757974
C 0.515223 0.31281447 -0.005266729
C -0.5152621 -0.31279153 0.00126638
C -1.798516 -1.0112852 0.026078237
N -1.6930461 -2.3493578 -0.20146292
O -2.8481288 -0.43300098 0.22541335
H 2.5271256 2.9096553 -0.18663925
H 0.7935475 2.800568 -0.29233974
H -0.7992263 -2.7974584 -0.30628562
H -2.530497 -2.9078112 -0.16883741
