17
title
C -0.026974803 2.7540002 1.1229804
C -0.047539864 1.2682563 1.3348897
N -0.11047749 0.75063217 2.4906616
O 0.010492513 0.63390267 0.12607022
C -0.0025009087 -0.7711909 0.11152872
C 0.038756296 -1.2699013 -1.3344767
C 0.12122866 -2.779006 -1.4766717
O 0.01012441 -0.5201858 -2.2753003
H 0.8832915 3.0455332 0.5902634
H -0.87489694 3.0570672 0.50126827
H -0.07225421 3.261205 2.0853817
H -0.11535161 -0.26802954 2.474333
H 0.8566433 -1.1889176 0.6590891
H -0.91039675 -1.1700723 0.59109575
H -0.647067 -3.2774467 -0.8757289
H 0.00626553 -3.0518484 -2.525951
H 1.0930747 -3.136251 -1.1163301
