18
title
C 0.1825862 3.0046926 1.1858267
C -0.07139647 1.5085909 1.2001247
O -0.5624381 0.95287204 2.1569724
C 0.31157118 0.7560367 -0.067122355
C 0.29558858 -0.7596941 0.09335886
C 0.014304799 -1.5082619 -1.2025518
C 0.24859434 -3.007213 -1.1673641
O -0.385972 -0.9472263 -2.197811
H 1.2624714 3.1948974 1.1849387
H -0.21960947 3.4605663 0.2748201
H -0.26352274 3.468037 2.0664747
H -0.4017081 1.0387619 -0.85356164
H 1.2816938 1.1195896 -0.42616642
H 1.2267352 -1.1346092 0.534529
H -0.48612508 -1.0335059 0.81526506
H -0.23506218 -3.4579492 -0.29419458
H -0.12612122 -3.4657526 -2.0830991
H 1.3221959 -3.2099514 -1.0745125
