title
 OpenBabel02282109573D

 17 16  0  0  0  0  0  0  0  0999 V2000
    0.0077    3.0332    1.0472 C   0  0  0  0  0  0  0  0  0  0  0  0
    0.0510    1.5222    1.0963 C   0  0  0  0  0  0  0  0  0  0  0  0
    0.1506    0.9047    2.1337 O   0  0  0  0  0  0  0  0  0  0  0  0
   -0.0376    0.7990   -0.2407 C   0  0  0  0  0  0  0  0  0  0  0  0
    0.0159   -0.6223   -0.0359 N   0  0  0  0  0  0  0  0  0  0  0  0
   -0.0499   -1.4982   -1.0756 C   0  0  0  0  0  0  0  0  0  0  0  0
    0.0172   -2.9686   -0.6950 C   0  0  0  0  0  0  0  0  0  0  0  0
   -0.1558   -1.1220   -2.2307 O   0  0  0  0  0  0  0  0  0  0  0  0
    0.8318    3.4175    0.4362 H   0  0  0  0  0  0  0  0  0  0  0  0
   -0.9217    3.3719    0.5763 H   0  0  0  0  0  0  0  0  0  0  0  0
    0.0779    3.4382    2.0569 H   0  0  0  0  0  0  0  0  0  0  0  0
   -0.9627    1.0988   -0.7538 H   0  0  0  0  0  0  0  0  0  0  0  0
    0.7770    1.1445   -0.8934 H   0  0  0  0  0  0  0  0  0  0  0  0
    0.1017   -0.9194    0.9247 H   0  0  0  0  0  0  0  0  0  0  0  0
   -0.8878   -3.4663   -1.0533 H   0  0  0  0  0  0  0  0  0  0  0  0
    0.8660   -3.4266   -1.2097 H   0  0  0  0  0  0  0  0  0  0  0  0
    0.1167   -3.1387    0.3799 H   0  0  0  0  0  0  0  0  0  0  0  0
  1  2  1  0  0  0  0
  1 11  1  0  0  0  0
  2  3  2  0  0  0  0
  4  5  1  0  0  0  0
  4  2  1  0  0  0  0
  5 14  1  0  0  0  0
  6  7  1  0  0  0  0
  6  5  1  0  0  0  0
  7 17  1  0  0  0  0
  8  6  2  0  0  0  0
  9  1  1  0  0  0  0
 10  1  1  0  0  0  0
 12  4  1  0  0  0  0
 13  4  1  0  0  0  0
 15  7  1  0  0  0  0
 16  7  1  0  0  0  0
M  END
