title
 OpenBabel02282109573D

 16 15  0  0  0  0  0  0  0  0999 V2000
   -0.2746    2.7456    1.0077 C   0  0  0  0  0  0  0  0  0  0  0  0
   -0.0191    1.2559    0.9020 C   0  0  0  0  0  0  0  0  0  0  0  0
   -0.4649    0.4501    1.6794 O   0  0  0  0  0  0  0  0  0  0  0  0
    0.8516    0.8279   -0.2835 C   0  0  0  0  0  0  0  0  0  0  0  0
    0.9871   -0.5807   -0.3576 O   0  0  0  0  0  0  0  0  0  0  0  0
   -0.0930   -1.2383   -0.8554 C   0  0  0  0  0  0  0  0  0  0  0  0
    0.0986   -2.7276   -0.7422 C   0  0  0  0  0  0  0  0  0  0  0  0
   -1.0519   -0.6774   -1.3181 O   0  0  0  0  0  0  0  0  0  0  0  0
    0.6487    3.3212    0.8816 H   0  0  0  0  0  0  0  0  0  0  0  0
   -0.9579    3.0521    0.2070 H   0  0  0  0  0  0  0  0  0  0  0  0
   -0.7301    2.9743    1.9717 H   0  0  0  0  0  0  0  0  0  0  0  0
    0.4276    1.2319   -1.2088 H   0  0  0  0  0  0  0  0  0  0  0  0
    1.8622    1.2286   -0.1546 H   0  0  0  0  0  0  0  0  0  0  0  0
   -0.6786   -3.2391   -1.3086 H   0  0  0  0  0  0  0  0  0  0  0  0
    1.0893   -3.0179   -1.0998 H   0  0  0  0  0  0  0  0  0  0  0  0
    0.0315   -3.0139    0.3119 H   0  0  0  0  0  0  0  0  0  0  0  0
  1 11  1  0  0  0  0
  2  1  1  0  0  0  0
  2  3  2  0  0  0  0
  4 13  1  0  0  0  0
  4  2  1  0  0  0  0
  5  4  1  0  0  0  0
  6  7  1  0  0  0  0
  6  5  1  0  0  0  0
  7 16  1  0  0  0  0
  8  6  2  0  0  0  0
  9  1  1  0  0  0  0
 10  1  1  0  0  0  0
 12  4  1  0  0  0  0
 14  7  1  0  0  0  0
 15  7  1  0  0  0  0
M  END
