16
title
C 1.1796467 2.8057995 0.015011236
C 1.3120881 1.2946104 0.115107045
O 2.383115 0.7385105 0.29581976
N 0.15183519 0.5975825 -0.010634088
C 0.12405931 -0.83796597 0.06272388
C -1.3207506 -1.3053799 -0.11574723
N -1.4925054 -2.6510894 -0.06752965
O -2.2387462 -0.5233805 -0.2872016
H 1.8080282 3.1603742 -0.8063327
H 0.15373097 3.1451027 -0.14750639
H 1.5632048 3.2542853 0.93529934
H -0.74603856 1.0350424 -0.16067673
H 0.76045215 -1.2887597 -0.71079326
H 0.515844 -1.1953628 1.0246571
H -0.72711253 -3.2867615 0.07449244
H -2.4211233 -3.0230205 -0.1784153
