title
 OpenBabel02282109573D

 16 15  0  0  0  0  0  0  0  0999 V2000
    1.1796    2.8058    0.0150 C   0  0  0  0  0  0  0  0  0  0  0  0
    1.3121    1.2946    0.1151 C   0  0  0  0  0  0  0  0  0  0  0  0
    2.3831    0.7385    0.2958 O   0  0  0  0  0  0  0  0  0  0  0  0
    0.1518    0.5976   -0.0106 N   0  0  0  0  0  0  0  0  0  0  0  0
    0.1241   -0.8380    0.0627 C   0  0  0  0  0  0  0  0  0  0  0  0
   -1.3208   -1.3054   -0.1157 C   0  0  0  0  0  0  0  0  0  0  0  0
   -1.4925   -2.6511   -0.0675 N   0  0  0  0  0  0  0  0  0  0  0  0
   -2.2387   -0.5234   -0.2872 O   0  0  0  0  0  0  0  0  0  0  0  0
    1.8080    3.1604   -0.8063 H   0  0  0  0  0  0  0  0  0  0  0  0
    0.1537    3.1451   -0.1475 H   0  0  0  0  0  0  0  0  0  0  0  0
    1.5632    3.2543    0.9353 H   0  0  0  0  0  0  0  0  0  0  0  0
   -0.7460    1.0350   -0.1607 H   0  0  0  0  0  0  0  0  0  0  0  0
    0.7605   -1.2888   -0.7108 H   0  0  0  0  0  0  0  0  0  0  0  0
    0.5158   -1.1954    1.0247 H   0  0  0  0  0  0  0  0  0  0  0  0
   -0.7271   -3.2868    0.0745 H   0  0  0  0  0  0  0  0  0  0  0  0
   -2.4211   -3.0230   -0.1784 H   0  0  0  0  0  0  0  0  0  0  0  0
  1  2  1  0  0  0  0
  1 11  1  0  0  0  0
  2  3  2  0  0  0  0
  4  5  1  0  0  0  0
  4  2  1  0  0  0  0
  5 14  1  0  0  0  0
  6  7  1  0  0  0  0
  6  5  1  0  0  0  0
  7 15  1  0  0  0  0
  8  6  2  0  0  0  0
  9  1  1  0  0  0  0
 10  1  1  0  0  0  0
 12  4  1  0  0  0  0
 13  5  1  0  0  0  0
 16  7  1  0  0  0  0
M  END
