15
title
C 1.0238719 2.6229343 -0.017051853
C 0.9565766 1.1283054 -0.18448763
O 1.239316 0.50933474 -1.1774881
O 0.5233789 0.53938794 0.96002674
C 0.2850984 -0.85402745 0.86027366
C -1.0023059 -1.132608 0.06776257
N -1.1775404 -2.4513817 -0.24626176
O -1.8074342 -0.26697126 -0.19208722
H 1.5632079 3.0602634 -0.8563748
H 0.0042497357 3.0198476 0.0085968
H 1.5036598 2.8856876 0.9285741
H 1.1368942 -1.359532 0.39465353
H 0.16523866 -1.2126652 1.8860496
H -0.39904484 -3.0893683 -0.24593662
H -1.9535662 -2.6746683 -0.8498852
