16
title
N 1.144747 2.8400817 -0.3312777
C 1.1774801 1.5217725 0.027713379
O 2.1596346 1.0121975 0.5338523
C -0.11132686 0.7558179 -0.25628194
C 0.10629113 -0.75325096 -0.26565748
C -1.1768724 -1.5220698 0.0355942
N -1.1511172 -2.8368742 -0.33672184
O -2.1491318 -1.0175313 0.5653184
H 1.9115785 3.4237 -0.038242143
H 0.28891233 3.2862191 -0.61303484
H -0.83860403 0.99060285 0.5303971
H -0.55814105 1.1025745 -1.1944178
H 0.53499067 -1.0908946 -1.2154963
H 0.8485104 -0.9955355 0.5046259
H -0.30061772 -3.2802312 -0.63837695
H -1.9120473 -3.4233916 -0.03419983
