title
 OpenBabel02282109573D

 16 15  0  0  0  0  0  0  0  0999 V2000
    1.1447    2.8401   -0.3313 N   0  0  0  0  0  0  0  0  0  0  0  0
    1.1775    1.5218    0.0277 C   0  0  0  0  0  0  0  0  0  0  0  0
    2.1596    1.0122    0.5339 O   0  0  0  0  0  0  0  0  0  0  0  0
   -0.1113    0.7558   -0.2563 C   0  0  0  0  0  0  0  0  0  0  0  0
    0.1063   -0.7533   -0.2657 C   0  0  0  0  0  0  0  0  0  0  0  0
   -1.1769   -1.5221    0.0356 C   0  0  0  0  0  0  0  0  0  0  0  0
   -1.1511   -2.8369   -0.3367 N   0  0  0  0  0  0  0  0  0  0  0  0
   -2.1491   -1.0175    0.5653 O   0  0  0  0  0  0  0  0  0  0  0  0
    1.9116    3.4237   -0.0382 H   0  0  0  0  0  0  0  0  0  0  0  0
    0.2889    3.2862   -0.6130 H   0  0  0  0  0  0  0  0  0  0  0  0
   -0.8386    0.9906    0.5304 H   0  0  0  0  0  0  0  0  0  0  0  0
   -0.5581    1.1026   -1.1944 H   0  0  0  0  0  0  0  0  0  0  0  0
    0.5350   -1.0909   -1.2155 H   0  0  0  0  0  0  0  0  0  0  0  0
    0.8485   -0.9955    0.5046 H   0  0  0  0  0  0  0  0  0  0  0  0
   -0.3006   -3.2802   -0.6384 H   0  0  0  0  0  0  0  0  0  0  0  0
   -1.9120   -3.4234   -0.0342 H   0  0  0  0  0  0  0  0  0  0  0  0
  1  9  1  0  0  0  0
  1  2  1  0  0  0  0
  2  3  2  0  0  0  0
  4  2  1  0  0  0  0
  4 11  1  0  0  0  0
  5  4  1  0  0  0  0
  5  6  1  0  0  0  0
  5 14  1  0  0  0  0
  6  8  2  0  0  0  0
  7 16  1  0  0  0  0
  7  6  1  0  0  0  0
 10  1  1  0  0  0  0
 12  4  1  0  0  0  0
 13  5  1  0  0  0  0
 15  7  1  0  0  0  0
M  END
