title
 OpenBabel02282109573D

 15 14  0  0  0  0  0  0  0  0999 V2000
    0.9420    2.8509   -0.1426 N   0  0  0  0  0  0  0  0  0  0  0  0
    1.0319    1.4967   -0.0820 C   0  0  0  0  0  0  0  0  0  0  0  0
    2.0388    0.8832   -0.3883 O   0  0  0  0  0  0  0  0  0  0  0  0
   -0.2230    0.7923    0.4369 C   0  0  0  0  0  0  0  0  0  0  0  0
    0.0036   -0.6321    0.4406 N   0  0  0  0  0  0  0  0  0  0  0  0
   -1.0197   -1.4712    0.0522 C   0  0  0  0  0  0  0  0  0  0  0  0
   -0.6154   -2.7801   -0.1660 N   0  0  0  0  0  0  0  0  0  0  0  0
   -2.1701   -1.0999   -0.1006 O   0  0  0  0  0  0  0  0  0  0  0  0
    1.7201    3.3664   -0.5198 H   0  0  0  0  0  0  0  0  0  0  0  0
    0.0771    3.3353    0.0242 H   0  0  0  0  0  0  0  0  0  0  0  0
   -0.4473    1.1744    1.4431 H   0  0  0  0  0  0  0  0  0  0  0  0
   -1.0907    1.0285   -0.1901 H   0  0  0  0  0  0  0  0  0  0  0  0
    0.9531   -0.8676    0.1743 H   0  0  0  0  0  0  0  0  0  0  0  0
    0.1816   -3.1168    0.3525 H   0  0  0  0  0  0  0  0  0  0  0  0
   -1.3880   -3.4264   -0.2093 H   0  0  0  0  0  0  0  0  0  0  0  0
  1  2  1  0  0  0  0
  1 10  1  0  0  0  0
  2  4  1  0  0  0  0
  3  2  2  0  0  0  0
  4  5  1  0  0  0  0
  4 11  1  0  0  0  0
  6  5  1  0  0  0  0
  7  6  1  0  0  0  0
  7 14  1  0  0  0  0
  8  6  2  0  0  0  0
  9  1  1  0  0  0  0
 12  4  1  0  0  0  0
 13  5  1  0  0  0  0
 15  7  1  0  0  0  0
M  END
