15
title
N 0.9420112 2.850857 -0.14262736
C 1.0319163 1.49671 -0.08203046
O 2.0388165 0.88324505 -0.38827315
C -0.22295597 0.7922575 0.43689266
N 0.0036134357 -0.63211685 0.44056636
C -1.0196756 -1.4711894 0.052199878
N -0.61544293 -2.7800627 -0.16595706
O -2.17006 -1.0998534 -0.100600116
H 1.7200768 3.3663735 -0.5197682
H 0.07708826 3.3352869 0.024167538
H -0.4472926 1.1743587 1.443121
H -1.0907308 1.0285242 -0.19006899
H 0.9530883 -0.8676029 0.174251
H 0.18156335 -3.1168256 0.35254702
H -1.3880304 -3.426437 -0.20925869
