14
title
N 0.91828763 2.5546079 0.25573114
C 0.87246114 1.2407832 -0.12072611
O 1.8015875 0.47418067 0.0010453145
C -0.44830602 0.838733 -0.79585505
O -0.53718907 -0.565163 -0.93695855
C -0.7945618 -1.2258035 0.22770311
N -0.7471809 -2.5720918 0.012532843
O -1.076977 -0.6826576 1.2692382
H 1.720988 2.84247 0.7936907
H 0.06944693 3.0795774 0.3870718
H -1.3009827 1.2247565 -0.22884572
H -0.47355384 1.2446213 -1.8109038
H -0.23981933 -2.9007552 -0.7924327
H -0.71485966 -3.1410444 0.8415723
