title
 OpenBabel02282109573D

 18 17  0  0  0  0  0  0  0  0999 V2000
   -1.1449    2.2303    1.6081 C   0  0  0  0  0  0  0  0  0  0  0  0
   -0.9004    0.7138    1.7493 C   0  0  0  0  0  0  0  0  0  0  0  0
   -2.2180   -0.0581    1.9617 C   0  0  0  0  0  0  0  0  0  0  0  0
   -0.1569    0.1951    0.6036 C   0  0  0  0  0  0  0  0  0  0  0  0
    0.4579   -0.2171   -0.3513 C   0  0  0  0  0  0  0  0  0  0  0  0
    1.1982   -0.7146   -1.4951 C   0  0  0  0  0  0  0  0  0  0  0  0
    0.7875   -2.0884   -1.9882 C   0  0  0  0  0  0  0  0  0  0  0  0
    2.0834   -0.0683   -2.0152 O   0  0  0  0  0  0  0  0  0  0  0  0
   -0.2034    2.7713    1.4875 H   0  0  0  0  0  0  0  0  0  0  0  0
   -1.7719    2.4397    0.7362 H   0  0  0  0  0  0  0  0  0  0  0  0
   -1.6555    2.6113    2.4978 H   0  0  0  0  0  0  0  0  0  0  0  0
   -0.2694    0.5565    2.6358 H   0  0  0  0  0  0  0  0  0  0  0  0
   -2.8843    0.0738    1.1039 H   0  0  0  0  0  0  0  0  0  0  0  0
   -2.0333   -1.1280    2.0881 H   0  0  0  0  0  0  0  0  0  0  0  0
   -2.7310    0.3129    2.8542 H   0  0  0  0  0  0  0  0  0  0  0  0
    0.9023   -2.8256   -1.1862 H   0  0  0  0  0  0  0  0  0  0  0  0
   -0.2711   -2.0856   -2.2695 H   0  0  0  0  0  0  0  0  0  0  0  0
    1.4017   -2.3690   -2.8452 H   0  0  0  0  0  0  0  0  0  0  0  0
  1  2  1  0  0  0  0
  1 11  1  0  0  0  0
  2  3  1  0  0  0  0
  2 12  1  0  0  0  0
  3 14  1  0  0  0  0
  3 15  1  0  0  0  0
  4  2  1  0  0  0  0
  5  4  3  0  0  0  0
  6  5  1  0  0  0  0
  7  6  1  0  0  0  0
  7 16  1  0  0  0  0
  8  6  2  0  0  0  0
  9  1  1  0  0  0  0
 10  1  1  0  0  0  0
 13  3  1  0  0  0  0
 17  7  1  0  0  0  0
 18  7  1  0  0  0  0
M  END
