16
title
C -1.3557903 2.1448705 1.4916618
C -0.7545966 0.757242 1.7633995
O -1.7222826 -0.15433773 2.2702143
C -0.07271114 0.23444703 0.5751737
C 0.46789065 -0.18582085 -0.42015907
C 1.1347741 -0.6940138 -1.6055629
C 0.5932187 -2.0013332 -2.146883
O 2.0619595 -0.10097387 -2.1142101
H -0.5785526 2.8567355 1.2008927
H -2.0906909 2.0934215 0.68181676
H -1.8526349 2.5025456 2.396786
H -0.014407249 0.84667426 2.56797
H -2.3626492 -0.3212007 1.5693526
H -0.46683884 -1.8937548 -2.4013174
H 1.1616482 -2.2936716 -3.0309079
H 0.6604209 -2.7815993 -1.381125
