22
title
C -0.5863104 2.1916547 1.9985931
C -0.7106724 0.66240495 1.8483026
C -2.1876228 0.22021273 1.8411716
C -0.012631227 0.19050121 0.65079284
C 0.553759 -0.18507168 -0.34506074
C 1.2264335 -0.65722966 -1.5569016
C 1.4425919 -2.18306 -1.5148224
C 0.45156324 -0.23763517 -2.822009
H 0.46216202 2.499007 2.0335727
H -1.0599569 2.7008612 1.1534238
H -1.076532 2.5252032 2.9190822
H -0.22977553 0.2019563 2.7231462
H -2.717724 0.6640719 0.9926384
H -2.2721815 -0.86676836 1.7611573
H -2.6858919 0.53968763 2.7623773
H 2.2168334 -0.18200931 -1.600489
H 1.9831243 -2.5160913 -2.4068913
H 2.0181866 -2.4741206 -0.6322359
H 0.48209107 -2.7066667 -1.4799289
H 0.32287198 0.8472059 -2.8624763
H 0.98834276 -0.5567272 -3.721455
H -0.54194367 -0.69678533 -2.834282
