title
 OpenBabel02282109573D

 18 17  0  0  1  0  0  0  0  0999 V2000
   -1.1719    2.2040    1.5428 C   0  0  0  0  0  0  0  0  0  0  0  0
   -0.6372    0.7947    1.8366 C   0  0  1  0  0  0  0  0  0  0  0  0
   -1.6686   -0.0702    2.3085 O   0  0  0  0  0  0  0  0  0  0  0  0
    0.0606    0.2323    0.6752 C   0  0  0  0  0  0  0  0  0  0  0  0
    0.6132   -0.2266   -0.2934 C   0  0  0  0  0  0  0  0  0  0  0  0
    1.2580   -0.7896   -1.4849 C   0  0  1  0  0  0  0  0  0  0  0  0
    0.7490   -2.2075   -1.7824 C   0  0  0  0  0  0  0  0  0  0  0  0
    1.1219    0.0656   -2.6182 O   0  0  0  0  0  0  0  0  0  0  0  0
   -0.3569    2.8829    1.2763 H   0  0  0  0  0  0  0  0  0  0  0  0
   -1.8798    2.1785    0.7077 H   0  0  0  0  0  0  0  0  0  0  0  0
   -1.6858    2.5886    2.4275 H   0  0  0  0  0  0  0  0  0  0  0  0
    0.0682    0.8557    2.6743 H   0  0  0  0  0  0  0  0  0  0  0  0
   -2.2434   -0.2665    1.5604 H   0  0  0  0  0  0  0  0  0  0  0  0
    2.3398   -0.8357   -1.3099 H   0  0  0  0  0  0  0  0  0  0  0  0
    0.9478   -2.8780   -0.9415 H   0  0  0  0  0  0  0  0  0  0  0  0
   -0.3313   -2.1969   -1.9606 H   0  0  0  0  0  0  0  0  0  0  0  0
    1.2487   -2.5922   -2.6752 H   0  0  0  0  0  0  0  0  0  0  0  0
    0.1823    0.2493   -2.7282 H   0  0  0  0  0  0  0  0  0  0  0  0
  1  2  1  0  0  0  0
  1 11  1  0  0  0  0
  2  3  1  0  0  0  0
  2 12  1  1  0  0  0
  4  2  1  0  0  0  0
  5  4  3  0  0  0  0
  6 14  1  1  0  0  0
  6  5  1  0  0  0  0
  7  6  1  0  0  0  0
  7 15  1  0  0  0  0
  8  6  1  0  0  0  0
  9  1  1  0  0  0  0
 10  1  1  0  0  0  0
 13  3  1  0  0  0  0
 16  7  1  0  0  0  0
 17  7  1  0  0  0  0
 18  8  1  0  0  0  0
M  END
