title
 OpenBabel02282109573D

 21 20  0  0  0  0  0  0  0  0999 V2000
   -1.4312    1.8182    1.5228 C   0  0  0  0  0  0  0  0  0  0  0  0
   -1.4548    0.2988    1.3010 C   0  0  0  0  0  0  0  0  0  0  0  0
   -2.9000   -0.2134    1.2348 C   0  0  0  0  0  0  0  0  0  0  0  0
   -0.6811   -0.1292    0.0428 C   0  0  0  0  0  0  0  0  0  0  0  0
    0.8178    0.1843    0.0747 C   0  0  0  0  0  0  0  0  0  0  0  0
    1.5773   -0.5230   -1.0485 C   0  0  0  0  0  0  0  0  0  0  0  0
    2.6916    0.1339   -1.4898 N   0  0  0  0  0  0  0  0  0  0  0  0
    1.2323   -1.5926   -1.5124 O   0  0  0  0  0  0  0  0  0  0  0  0
   -0.4148    2.2012    1.6583 H   0  0  0  0  0  0  0  0  0  0  0  0
   -1.8745    2.3431    0.6675 H   0  0  0  0  0  0  0  0  0  0  0  0
   -2.0065    2.0930    2.4131 H   0  0  0  0  0  0  0  0  0  0  0  0
   -0.9693   -0.1760    2.1670 H   0  0  0  0  0  0  0  0  0  0  0  0
   -3.4332    0.2299    0.3852 H   0  0  0  0  0  0  0  0  0  0  0  0
   -2.9319   -1.3012    1.1149 H   0  0  0  0  0  0  0  0  0  0  0  0
   -3.4546    0.0428    2.1437 H   0  0  0  0  0  0  0  0  0  0  0  0
   -0.7868   -1.2079   -0.1083 H   0  0  0  0  0  0  0  0  0  0  0  0
   -1.1320    0.3456   -0.8394 H   0  0  0  0  0  0  0  0  0  0  0  0
    1.0076    1.2625    0.0353 H   0  0  0  0  0  0  0  0  0  0  0  0
    1.2493   -0.1716    1.0215 H   0  0  0  0  0  0  0  0  0  0  0  0
    3.0210    0.9797   -1.0596 H   0  0  0  0  0  0  0  0  0  0  0  0
    3.2836   -0.3314   -2.1585 H   0  0  0  0  0  0  0  0  0  0  0  0
  1  9  1  0  0  0  0
  1 11  1  0  0  0  0
  2  1  1  0  0  0  0
  2 12  1  0  0  0  0
  3  2  1  0  0  0  0
  3 15  1  0  0  0  0
  4  5  1  0  0  0  0
  4  2  1  0  0  0  0
  5 19  1  0  0  0  0
  6  5  1  0  0  0  0
  7 20  1  0  0  0  0
  7  6  1  0  0  0  0
  8  6  2  0  0  0  0
 10  1  1  0  0  0  0
 13  3  1  0  0  0  0
 14  3  1  0  0  0  0
 16  4  1  0  0  0  0
 17  4  1  0  0  0  0
 18  5  1  0  0  0  0
 21  7  1  0  0  0  0
M  END
