title
 OpenBabel02282109573D

 21 20  0  0  0  0  0  0  0  0999 V2000
   -0.1541    1.5323   -1.5171 C   0  0  0  0  0  0  0  0  0  0  0  0
   -0.3928    0.0438   -1.7943 C   0  0  0  0  0  0  0  0  0  0  0  0
    0.2565   -0.3933   -3.1135 C   0  0  0  0  0  0  0  0  0  0  0  0
    0.1210   -0.8425   -0.6445 C   0  0  0  0  0  0  0  0  0  0  0  0
   -0.5358   -0.5960    0.6275 N   0  0  0  0  0  0  0  0  0  0  0  0
    0.1149   -0.0892    1.7181 C   0  0  0  0  0  0  0  0  0  0  0  0
   -0.7459    0.0796    2.9621 C   0  0  0  0  0  0  0  0  0  0  0  0
    1.2973    0.2028    1.7099 O   0  0  0  0  0  0  0  0  0  0  0  0
    0.9172    1.7462   -1.4339 H   0  0  0  0  0  0  0  0  0  0  0  0
   -0.5604    2.1503   -2.3244 H   0  0  0  0  0  0  0  0  0  0  0  0
   -0.6275    1.8449   -0.5822 H   0  0  0  0  0  0  0  0  0  0  0  0
   -1.4780   -0.1198   -1.8812 H   0  0  0  0  0  0  0  0  0  0  0  0
    1.3439   -0.2579   -3.0770 H   0  0  0  0  0  0  0  0  0  0  0  0
    0.0598   -1.4491   -3.3294 H   0  0  0  0  0  0  0  0  0  0  0  0
   -0.1227    0.1972   -3.9532 H   0  0  0  0  0  0  0  0  0  0  0  0
    0.0002   -1.8995   -0.9168 H   0  0  0  0  0  0  0  0  0  0  0  0
    1.1857   -0.6622   -0.4724 H   0  0  0  0  0  0  0  0  0  0  0  0
   -1.5144   -0.8162    0.7101 H   0  0  0  0  0  0  0  0  0  0  0  0
   -1.8024   -0.1553    2.8064 H   0  0  0  0  0  0  0  0  0  0  0  0
   -0.3526   -0.5669    3.7516 H   0  0  0  0  0  0  0  0  0  0  0  0
   -0.6568    1.1109    3.3120 H   0  0  0  0  0  0  0  0  0  0  0  0
  1  9  1  0  0  0  0
  1 11  1  0  0  0  0
  2  1  1  0  0  0  0
  2  4  1  0  0  0  0
  3 13  1  0  0  0  0
  3  2  1  0  0  0  0
  4 17  1  0  0  0  0
  4  5  1  0  0  0  0
  5 18  1  0  0  0  0
  5  6  1  0  0  0  0
  6  7  1  0  0  0  0
  7 21  1  0  0  0  0
  7 20  1  0  0  0  0
  8  6  2  0  0  0  0
 10  1  1  0  0  0  0
 12  2  1  0  0  0  0
 14  3  1  0  0  0  0
 15  3  1  0  0  0  0
 16  4  1  0  0  0  0
 19  7  1  0  0  0  0
M  END
