title
 OpenBabel02282109573D

 19 18  0  0  0  0  0  0  0  0999 V2000
    1.4153    2.7754   -0.1499 C   0  0  0  0  0  0  0  0  0  0  0  0
    1.3893    1.2426   -0.0926 C   0  0  0  0  0  0  0  0  0  0  0  0
    2.1296    0.7126    1.1422 C   0  0  0  0  0  0  0  0  0  0  0  0
   -0.0549    0.7533   -0.1350 C   0  0  0  0  0  0  0  0  0  0  0  0
   -0.0420   -0.6810   -0.2291 O   0  0  0  0  0  0  0  0  0  0  0  0
   -1.2598   -1.2740   -0.1916 C   0  0  0  0  0  0  0  0  0  0  0  0
   -1.1156   -2.6344   -0.2384 N   0  0  0  0  0  0  0  0  0  0  0  0
   -2.3118   -0.6865   -0.0987 O   0  0  0  0  0  0  0  0  0  0  0  0
    2.4450    3.1456   -0.1492 H   0  0  0  0  0  0  0  0  0  0  0  0
    0.9225    3.1545   -1.0513 H   0  0  0  0  0  0  0  0  0  0  0  0
    0.9067    3.2110    0.7182 H   0  0  0  0  0  0  0  0  0  0  0  0
    1.8898    0.8535   -0.9896 H   0  0  0  0  0  0  0  0  0  0  0  0
    2.0981   -0.3789    1.1829 H   0  0  0  0  0  0  0  0  0  0  0  0
    3.1786    1.0255    1.1338 H   0  0  0  0  0  0  0  0  0  0  0  0
    1.6749    1.0975    2.0631 H   0  0  0  0  0  0  0  0  0  0  0  0
   -0.6048    1.0504    0.7651 H   0  0  0  0  0  0  0  0  0  0  0  0
   -0.5903    1.1624   -0.9985 H   0  0  0  0  0  0  0  0  0  0  0  0
   -0.2375   -3.0151   -0.5480 H   0  0  0  0  0  0  0  0  0  0  0  0
   -1.9504   -3.1577   -0.4390 H   0  0  0  0  0  0  0  0  0  0  0  0
  1  9  1  0  0  0  0
  1  2  1  0  0  0  0
  1 11  1  0  0  0  0
  2  3  1  0  0  0  0
  3 13  1  0  0  0  0
  3 15  1  0  0  0  0
  4  2  1  0  0  0  0
  4 16  1  0  0  0  0
  5  6  1  0  0  0  0
  5  4  1  0  0  0  0
  6  8  2  0  0  0  0
  7  6  1  0  0  0  0
 10  1  1  0  0  0  0
 12  2  1  0  0  0  0
 14  3  1  0  0  0  0
 17  4  1  0  0  0  0
 18  7  1  0  0  0  0
 19  7  1  0  0  0  0
M  END
