20
title
C 0.15212691 1.6883566 -2.127105
C -0.5591206 0.4052823 -1.6898357
C -0.5047416 -0.67750627 -2.7609863
O 0.03289109 -0.15873694 -0.5196302
C -0.22282942 0.52785075 0.6788206
C 0.22530401 -0.29221088 1.8915622
C 0.6651247 -1.7172016 1.647085
O 0.19985121 0.21663584 2.987545
H 1.2071369 1.4840013 -2.3363333
H -0.30951345 2.0872395 -3.0357418
H 0.09758663 2.466463 -1.3605564
H -1.6138602 0.6403977 -1.4662585
H 0.5347134 -0.9376746 -2.9849157
H -1.0178711 -1.5801927 -2.4193249
H -0.9807207 -0.3324169 -3.683368
H 0.2889508 1.4999163 0.7335632
H -1.3013128 0.72943205 0.8027382
H -0.1396085 -2.2820995 1.1651628
H 1.5060787 -1.7335562 0.94681144
H 0.943373 -2.1808531 2.593885
