19
title
C 0.06733856 1.8101022 -2.0490706
C -0.51856226 0.43992952 -1.7013794
C -0.31852132 -0.57504076 -2.8203878
O 0.09402088 -0.118620396 -0.53800493
C -0.24882658 0.48921934 0.68766886
C 0.16946544 -0.38268358 1.8743488
N 0.6450775 -1.605034 1.5332869
O 0.050036557 0.02377966 3.0136335
H 1.1439319 1.7277657 -2.2299445
H -0.40618128 2.2060955 -2.95281
H -0.09268 2.535737 -1.2468213
H -1.5977588 0.55213827 -1.5030005
H 0.7487251 -0.71530825 -3.0199652
H -0.7475047 -1.541699 -2.5429926
H -0.79894483 -0.23297805 -3.741474
H 0.2323487 1.4672148 0.82151014
H -1.336085 0.6471057 0.7638076
H 0.7521427 -1.8429896 0.5621219
H 0.9693058 -2.2225757 2.2578285
