title
 OpenBabel02282109573D

 20 19  0  0  1  0  0  0  0  0999 V2000
   -0.9819    2.7476   -1.2785 C   0  0  0  0  0  0  0  0  0  0  0  0
   -0.8870    1.2231   -1.2266 C   0  0  1  0  0  0  0  0  0  0  0  0
   -0.1739    0.7113   -2.3540 O   0  0  0  0  0  0  0  0  0  0  0  0
   -0.2776    0.7239    0.0893 C   0  0  0  0  0  0  0  0  0  0  0  0
   -0.2279   -0.8002    0.1755 C   0  0  0  0  0  0  0  0  0  0  0  0
    0.6233   -1.3316    1.3196 C   0  0  0  0  0  0  0  0  0  0  0  0
    0.5119   -2.8212    1.5975 C   0  0  0  0  0  0  0  0  0  0  0  0
    1.3530   -0.6158    1.9682 O   0  0  0  0  0  0  0  0  0  0  0  0
    0.0104    3.2018   -1.1629 H   0  0  0  0  0  0  0  0  0  0  0  0
   -1.3976    3.0709   -2.2366 H   0  0  0  0  0  0  0  0  0  0  0  0
   -1.6171    3.1327   -0.4744 H   0  0  0  0  0  0  0  0  0  0  0  0
   -1.8946    0.8010   -1.3375 H   0  0  0  0  0  0  0  0  0  0  0  0
    0.7021    1.1140   -2.3473 H   0  0  0  0  0  0  0  0  0  0  0  0
    0.7398    1.1207    0.1948 H   0  0  0  0  0  0  0  0  0  0  0  0
   -0.8456    1.1308    0.9341 H   0  0  0  0  0  0  0  0  0  0  0  0
   -1.2349   -1.2324    0.2515 H   0  0  0  0  0  0  0  0  0  0  0  0
    0.1842   -1.2031   -0.7603 H   0  0  0  0  0  0  0  0  0  0  0  0
    0.6160   -3.4019    0.6748 H   0  0  0  0  0  0  0  0  0  0  0  0
    1.2709   -3.1240    2.3198 H   0  0  0  0  0  0  0  0  0  0  0  0
   -0.4817   -3.0465    2.0031 H   0  0  0  0  0  0  0  0  0  0  0  0
  1  2  1  0  0  0  0
  1  9  1  0  0  0  0
  1 11  1  0  0  0  0
  2 12  1  6  0  0  0
  2  4  1  0  0  0  0
  3 13  1  0  0  0  0
  3  2  1  0  0  0  0
  4  5  1  0  0  0  0
  4 14  1  0  0  0  0
  4 15  1  0  0  0  0
  5 16  1  0  0  0  0
  5  6  1  0  0  0  0
  6  7  1  0  0  0  0
  6  8  2  0  0  0  0
  7 20  1  0  0  0  0
  7 19  1  0  0  0  0
 10  1  1  0  0  0  0
 17  5  1  0  0  0  0
 18  7  1  0  0  0  0
M  END
