title
 OpenBabel02282109573D

 19 18  0  0  1  0  0  0  0  0999 V2000
    1.3662    2.7913   -0.1385 C   0  0  0  0  0  0  0  0  0  0  0  0
    1.2307    1.2745   -0.0604 C   0  0  1  0  0  0  0  0  0  0  0  0
    2.1038    0.7136    0.9262 O   0  0  0  0  0  0  0  0  0  0  0  0
   -0.2120    0.8289    0.1997 C   0  0  0  0  0  0  0  0  0  0  0  0
   -0.2818   -0.6115    0.3219 N   0  0  0  0  0  0  0  0  0  0  0  0
   -1.2287   -1.3643   -0.3087 C   0  0  0  0  0  0  0  0  0  0  0  0
   -1.0890   -2.8676   -0.1190 C   0  0  0  0  0  0  0  0  0  0  0  0
   -2.1284   -0.8769   -0.9712 O   0  0  0  0  0  0  0  0  0  0  0  0
    2.4098    3.0711   -0.3039 H   0  0  0  0  0  0  0  0  0  0  0  0
    0.7624    3.1990   -0.9553 H   0  0  0  0  0  0  0  0  0  0  0  0
    1.0271    3.2628    0.7927 H   0  0  0  0  0  0  0  0  0  0  0  0
    1.5658    0.8238   -1.0018 H   0  0  0  0  0  0  0  0  0  0  0  0
    1.9544    1.1903    1.7511 H   0  0  0  0  0  0  0  0  0  0  0  0
   -0.5810    1.3184    1.1156 H   0  0  0  0  0  0  0  0  0  0  0  0
   -0.8770    1.1218   -0.6165 H   0  0  0  0  0  0  0  0  0  0  0  0
    0.4823   -1.0511    0.8097 H   0  0  0  0  0  0  0  0  0  0  0  0
   -1.0243   -3.3403   -1.1025 H   0  0  0  0  0  0  0  0  0  0  0  0
   -0.2192   -3.1577    0.4759 H   0  0  0  0  0  0  0  0  0  0  0  0
   -1.9933   -3.2465    0.3649 H   0  0  0  0  0  0  0  0  0  0  0  0
  1  2  1  0  0  0  0
  1 11  1  0  0  0  0
  2 12  1  6  0  0  0
  2  4  1  0  0  0  0
  2  3  1  0  0  0  0
  3 13  1  0  0  0  0
  4  5  1  0  0  0  0
  4 14  1  0  0  0  0
  5 16  1  0  0  0  0
  6  7  1  0  0  0  0
  6  5  1  0  0  0  0
  7 19  1  0  0  0  0
  7 18  1  0  0  0  0
  8  6  2  0  0  0  0
  9  1  1  0  0  0  0
 10  1  1  0  0  0  0
 15  4  1  0  0  0  0
 17  7  1  0  0  0  0
M  END
