18
title
C 1.3741074 2.838713 -0.106660545
C 1.3098923 1.3152752 -0.13929275
O 2.1268196 0.728928 0.8804356
C -0.1230861 0.7897624 -0.033592615
N -0.104885824 -0.65882075 -0.030021306
C -1.2672333 -1.3693366 -0.21122597
N -1.1364433 -2.7349746 0.030758929
O -2.3228068 -0.8566425 -0.5364892
H 2.4125912 3.175173 -0.16156389
H 0.821789 3.2743998 -0.9451463
H 0.9341457 3.2290006 0.81969136
H 1.7453588 0.9456929 -1.0748003
H 1.8698236 1.1251342 1.7214131
H -0.59447336 1.1951585 0.87803364
H -0.7296754 1.1288302 -0.8771132
H 0.6407663 -1.063736 0.5166685
H -0.23895311 -3.1541235 -0.16387083
H -1.916437 -3.2603834 -0.3348094
