title
 OpenBabel02282109573D

 18 17  0  0  1  0  0  0  0  0999 V2000
    1.3741    2.8387   -0.1067 C   0  0  0  0  0  0  0  0  0  0  0  0
    1.3099    1.3153   -0.1393 C   0  0  1  0  0  0  0  0  0  0  0  0
    2.1268    0.7289    0.8804 O   0  0  0  0  0  0  0  0  0  0  0  0
   -0.1231    0.7898   -0.0336 C   0  0  0  0  0  0  0  0  0  0  0  0
   -0.1049   -0.6588   -0.0300 N   0  0  0  0  0  0  0  0  0  0  0  0
   -1.2672   -1.3693   -0.2112 C   0  0  0  0  0  0  0  0  0  0  0  0
   -1.1364   -2.7350    0.0308 N   0  0  0  0  0  0  0  0  0  0  0  0
   -2.3228   -0.8566   -0.5365 O   0  0  0  0  0  0  0  0  0  0  0  0
    2.4126    3.1752   -0.1616 H   0  0  0  0  0  0  0  0  0  0  0  0
    0.8218    3.2744   -0.9451 H   0  0  0  0  0  0  0  0  0  0  0  0
    0.9341    3.2290    0.8197 H   0  0  0  0  0  0  0  0  0  0  0  0
    1.7454    0.9457   -1.0748 H   0  0  0  0  0  0  0  0  0  0  0  0
    1.8698    1.1251    1.7214 H   0  0  0  0  0  0  0  0  0  0  0  0
   -0.5945    1.1952    0.8780 H   0  0  0  0  0  0  0  0  0  0  0  0
   -0.7297    1.1288   -0.8771 H   0  0  0  0  0  0  0  0  0  0  0  0
    0.6408   -1.0637    0.5167 H   0  0  0  0  0  0  0  0  0  0  0  0
   -0.2390   -3.1541   -0.1639 H   0  0  0  0  0  0  0  0  0  0  0  0
   -1.9164   -3.2604   -0.3348 H   0  0  0  0  0  0  0  0  0  0  0  0
  1 11  1  0  0  0  0
  2 12  1  6  0  0  0
  2  1  1  0  0  0  0
  2  4  1  0  0  0  0
  2  3  1  0  0  0  0
  3 13  1  0  0  0  0
  4  5  1  0  0  0  0
  4 14  1  0  0  0  0
  5 16  1  0  0  0  0
  6  5  1  0  0  0  0
  6  7  1  0  0  0  0
  8  6  2  0  0  0  0
  9  1  1  0  0  0  0
 10  1  1  0  0  0  0
 15  4  1  0  0  0  0
 17  7  1  0  0  0  0
 18  7  1  0  0  0  0
M  END
