title
 OpenBabel02282109573D

 26 25  0  0  0  0  0  0  0  0999 V2000
   -1.5578    1.8734    1.3233 C   0  0  0  0  0  0  0  0  0  0  0  0
   -1.5108    0.3405    1.2507 C   0  0  0  0  0  0  0  0  0  0  0  0
   -2.9318   -0.2395    1.2809 C   0  0  0  0  0  0  0  0  0  0  0  0
   -0.7465   -0.1748    0.0153 C   0  0  0  0  0  0  0  0  0  0  0  0
    0.7465    0.1747   -0.0153 C   0  0  0  0  0  0  0  0  0  0  0  0
    1.5108   -0.3405   -1.2507 C   0  0  0  0  0  0  0  0  0  0  0  0
    2.9318    0.2395   -1.2809 C   0  0  0  0  0  0  0  0  0  0  0  0
    1.5578   -1.8734   -1.3233 C   0  0  0  0  0  0  0  0  0  0  0  0
   -0.5601    2.3161    1.3917 H   0  0  0  0  0  0  0  0  0  0  0  0
   -2.0485    2.2902    0.4350 H   0  0  0  0  0  0  0  0  0  0  0  0
   -2.1249    2.2047    2.1997 H   0  0  0  0  0  0  0  0  0  0  0  0
   -0.9815   -0.0235    2.1438 H   0  0  0  0  0  0  0  0  0  0  0  0
   -3.5073    0.0897    0.4070 H   0  0  0  0  0  0  0  0  0  0  0  0
   -2.9174   -1.3346    1.2747 H   0  0  0  0  0  0  0  0  0  0  0  0
   -3.4754    0.0843    2.1748 H   0  0  0  0  0  0  0  0  0  0  0  0
   -0.8660   -1.2643   -0.0267 H   0  0  0  0  0  0  0  0  0  0  0  0
   -1.2308    0.2178   -0.8914 H   0  0  0  0  0  0  0  0  0  0  0  0
    0.8660    1.2642    0.0267 H   0  0  0  0  0  0  0  0  0  0  0  0
    1.2308   -0.2178    0.8915 H   0  0  0  0  0  0  0  0  0  0  0  0
    0.9815    0.0235   -2.1438 H   0  0  0  0  0  0  0  0  0  0  0  0
    3.5073   -0.0897   -0.4070 H   0  0  0  0  0  0  0  0  0  0  0  0
    3.4754   -0.0842   -2.1748 H   0  0  0  0  0  0  0  0  0  0  0  0
    2.9174    1.3346   -1.2746 H   0  0  0  0  0  0  0  0  0  0  0  0
    2.0485   -2.2902   -0.4351 H   0  0  0  0  0  0  0  0  0  0  0  0
    0.5602   -2.3161   -1.3918 H   0  0  0  0  0  0  0  0  0  0  0  0
    2.1249   -2.2047   -2.1997 H   0  0  0  0  0  0  0  0  0  0  0  0
  1  9  1  0  0  0  0
  1 11  1  0  0  0  0
  2  3  1  0  0  0  0
  2  1  1  0  0  0  0
  2 12  1  0  0  0  0
  3 15  1  0  0  0  0
  4  2  1  0  0  0  0
  5  4  1  0  0  0  0
  5 18  1  0  0  0  0
  5 19  1  0  0  0  0
  6  5  1  0  0  0  0
  7 23  1  0  0  0  0
  7  6  1  0  0  0  0
  7 21  1  0  0  0  0
  8  6  1  0  0  0  0
  8 24  1  0  0  0  0
 10  1  1  0  0  0  0
 13  3  1  0  0  0  0
 14  3  1  0  0  0  0
 16  4  1  0  0  0  0
 17  4  1  0  0  0  0
 20  6  1  0  0  0  0
 22  7  1  0  0  0  0
 25  8  1  0  0  0  0
 26  8  1  0  0  0  0
M  END
