26
title
C -1.5578305 1.8733867 1.323297
C -1.5108345 0.34046498 1.2506645
C -2.931846 -0.23949268 1.2808847
C -0.74653727 -0.17477292 0.015296927
C 0.74653596 0.17473313 -0.015270123
C 1.5108309 -0.34045896 -1.2506586
C 2.9318357 0.23951471 -1.2808641
C 1.5578444 -1.8733777 -1.3233477
H -0.56013775 2.3161445 1.3916775
H -2.0485346 2.290227 0.43505
H -2.1248722 2.2047112 2.1996858
H -0.9814706 -0.023505755 2.143812
H -3.5072625 0.08965836 0.4070043
H -2.9174378 -1.3345817 1.2747006
H -3.4754455 0.08425494 2.1748283
H -0.8660182 -1.2642571 -0.026688585
H -1.2307564 0.21775061 -0.89144194
H 0.86601514 1.2642165 0.026749482
H 1.2307603 -0.21781692 0.89145434
H 0.981461 0.023539029 -2.1437917
H 3.5072632 -0.08967153 -0.40700412
H 3.4754305 -0.08418531 -2.174828
H 2.9174166 1.3346035 -1.2746285
H 2.0485318 -2.2902474 -0.43510473
H 0.56015867 -2.3161438 -1.3917698
H 2.124911 -2.2046626 -2.1997354
