24
title
C 1.4124175 2.9076486 -0.2642683
C 1.4816818 1.3753792 -0.20255877
C 2.319311 0.92588323 1.0034428
C 0.06450946 0.77425474 -0.19301905
C -0.0017396741 -0.74622023 -0.37144002
C -1.4361682 -1.2922698 -0.37172934
C -1.488652 -2.7960167 -0.64373124
O -2.1222816 -0.9658052 0.8371405
H 2.4133897 3.3503606 -0.30382544
H 0.8593818 3.24756 -1.1463195
H 0.90592915 3.3121784 0.6204756
H 1.9889553 1.0263186 -1.1145157
H 1.84314 1.233782 1.9425013
H 2.4489307 -0.15997337 1.0354398
H 3.3177137 1.3750532 0.9765288
H -0.4441164 1.0453476 0.74039644
H -0.51866 1.24127 -0.99866295
H 0.48519182 -1.0321194 -1.313801
H 0.55810857 -1.2549804 0.42671657
H -2.009325 -0.77103245 -1.1496809
H -0.91634446 -3.3484445 0.112697385
H -2.5222816 -3.1514492 -0.61533964
H -1.0631413 -3.0384593 -1.6230218
H -1.6800058 -1.4331745 1.5549681
