title
 OpenBabel02282109573D

 24 23  0  0  1  0  0  0  0  0999 V2000
    1.4124    2.9076   -0.2643 C   0  0  0  0  0  0  0  0  0  0  0  0
    1.4817    1.3754   -0.2026 C   0  0  0  0  0  0  0  0  0  0  0  0
    2.3193    0.9259    1.0034 C   0  0  0  0  0  0  0  0  0  0  0  0
    0.0645    0.7743   -0.1930 C   0  0  0  0  0  0  0  0  0  0  0  0
   -0.0017   -0.7462   -0.3714 C   0  0  0  0  0  0  0  0  0  0  0  0
   -1.4362   -1.2923   -0.3717 C   0  0  1  0  0  0  0  0  0  0  0  0
   -1.4887   -2.7960   -0.6437 C   0  0  0  0  0  0  0  0  0  0  0  0
   -2.1223   -0.9658    0.8371 O   0  0  0  0  0  0  0  0  0  0  0  0
    2.4134    3.3504   -0.3038 H   0  0  0  0  0  0  0  0  0  0  0  0
    0.8594    3.2476   -1.1463 H   0  0  0  0  0  0  0  0  0  0  0  0
    0.9059    3.3122    0.6205 H   0  0  0  0  0  0  0  0  0  0  0  0
    1.9890    1.0263   -1.1145 H   0  0  0  0  0  0  0  0  0  0  0  0
    1.8431    1.2338    1.9425 H   0  0  0  0  0  0  0  0  0  0  0  0
    2.4489   -0.1600    1.0354 H   0  0  0  0  0  0  0  0  0  0  0  0
    3.3177    1.3751    0.9765 H   0  0  0  0  0  0  0  0  0  0  0  0
   -0.4441    1.0453    0.7404 H   0  0  0  0  0  0  0  0  0  0  0  0
   -0.5187    1.2413   -0.9987 H   0  0  0  0  0  0  0  0  0  0  0  0
    0.4852   -1.0321   -1.3138 H   0  0  0  0  0  0  0  0  0  0  0  0
    0.5581   -1.2550    0.4267 H   0  0  0  0  0  0  0  0  0  0  0  0
   -2.0093   -0.7710   -1.1497 H   0  0  0  0  0  0  0  0  0  0  0  0
   -0.9163   -3.3484    0.1127 H   0  0  0  0  0  0  0  0  0  0  0  0
   -2.5223   -3.1514   -0.6153 H   0  0  0  0  0  0  0  0  0  0  0  0
   -1.0631   -3.0385   -1.6230 H   0  0  0  0  0  0  0  0  0  0  0  0
   -1.6800   -1.4332    1.5550 H   0  0  0  0  0  0  0  0  0  0  0  0
  1  2  1  0  0  0  0
  1 11  1  0  0  0  0
  2  4  1  0  0  0  0
  2  3  1  0  0  0  0
  3 14  1  0  0  0  0
  3 13  1  0  0  0  0
  4 16  1  0  0  0  0
  5  4  1  0  0  0  0
  5 19  1  0  0  0  0
  6 20  1  6  0  0  0
  6  5  1  0  0  0  0
  6  8  1  0  0  0  0
  7 22  1  0  0  0  0
  7  6  1  0  0  0  0
  7 21  1  0  0  0  0
  8 24  1  0  0  0  0
  9  1  1  0  0  0  0
 10  1  1  0  0  0  0
 12  2  1  0  0  0  0
 15  3  1  0  0  0  0
 17  4  1  0  0  0  0
 18  5  1  0  0  0  0
 23  7  1  0  0  0  0
M  END
