title
 OpenBabel02282109573D

 22 21  0  0  1  0  0  0  0  0999 V2000
    1.4702    1.7947   -1.0302 C   0  0  0  0  0  0  0  0  0  0  0  0
    1.4019    1.1483    0.3498 C   0  0  1  0  0  0  0  0  0  0  0  0
    1.6862    2.0732    1.3942 O   0  0  0  0  0  0  0  0  0  0  0  0
    0.0527    0.4739    0.6182 C   0  0  0  0  0  0  0  0  0  0  0  0
   -0.1413   -0.5468   -0.3346 O   0  0  0  0  0  0  0  0  0  0  0  0
   -1.4238   -1.1667   -0.3227 C   0  0  0  0  0  0  0  0  0  0  0  0
   -1.5599   -1.8991   -1.6530 C   0  0  0  0  0  0  0  0  0  0  0  0
   -1.5922   -2.1092    0.8727 C   0  0  0  0  0  0  0  0  0  0  0  0
    2.4551    2.2387   -1.1979 H   0  0  0  0  0  0  0  0  0  0  0  0
    1.2717    1.0536   -1.8080 H   0  0  0  0  0  0  0  0  0  0  0  0
    0.7149    2.5871   -1.1214 H   0  0  0  0  0  0  0  0  0  0  0  0
    2.1804    0.3809    0.4294 H   0  0  0  0  0  0  0  0  0  0  0  0
    1.1077    2.8345    1.2748 H   0  0  0  0  0  0  0  0  0  0  0  0
    0.0572    0.0873    1.6475 H   0  0  0  0  0  0  0  0  0  0  0  0
   -0.7561    1.2259    0.5505 H   0  0  0  0  0  0  0  0  0  0  0  0
   -2.1942   -0.3784   -0.2657 H   0  0  0  0  0  0  0  0  0  0  0  0
   -0.7930   -2.6756   -1.7380 H   0  0  0  0  0  0  0  0  0  0  0  0
   -2.5424   -2.3732   -1.7355 H   0  0  0  0  0  0  0  0  0  0  0  0
   -1.4357   -1.2032   -2.4870 H   0  0  0  0  0  0  0  0  0  0  0  0
   -1.5084   -1.5779    1.8248 H   0  0  0  0  0  0  0  0  0  0  0  0
   -2.5765   -2.5876    0.8456 H   0  0  0  0  0  0  0  0  0  0  0  0
   -0.8264   -2.8913    0.8470 H   0  0  0  0  0  0  0  0  0  0  0  0
  1  2  1  0  0  0  0
  2 12  1  1  0  0  0
  2  4  1  0  0  0  0
  2  3  1  0  0  0  0
  4 14  1  0  0  0  0
  5  6  1  0  0  0  0
  5  4  1  0  0  0  0
  6 16  1  0  0  0  0
  6  8  1  0  0  0  0
  7  6  1  0  0  0  0
  8 20  1  0  0  0  0
  9  1  1  0  0  0  0
 10  1  1  0  0  0  0
 11  1  1  0  0  0  0
 13  3  1  0  0  0  0
 15  4  1  0  0  0  0
 17  7  1  0  0  0  0
 18  7  1  0  0  0  0
 19  7  1  0  0  0  0
 21  8  1  0  0  0  0
 22  8  1  0  0  0  0
M  END
