18
title
C -0.92829496 1.5997732 -0.4098213
C -0.8038025 0.07966702 -0.5167636
C -2.1344235 -0.5832547 -0.8526251
C 0.42770645 -0.3430296 -1.3994428
C 1.2213305 -0.3918415 -0.09242056
O 2.3397613 -0.093652554 0.22794433
C -0.04717944 -0.52171266 0.7421075
O -0.08475868 0.10649658 1.9864683
H 0.03926321 2.0742402 -0.21354751
H -1.3237205 2.0212467 -1.3397352
H -1.6001824 1.874302 0.40825677
H -2.5172439 -0.23388112 -1.8180343
H -2.034345 -1.6726973 -0.9064146
H -2.8882322 -0.35180584 -0.092044845
H 0.30329332 -1.3329477 -1.8494726
H 0.78774434 0.35684073 -2.1562524
H -0.338236 -1.5768746 0.8487195
H 0.76519555 0.5489707 2.1056492
