title
 OpenBabel02282109573D

 17 17  0  0  1  0  0  0  0  0999 V2000
   -0.7636    1.8441   -0.4064 C   0  0  0  0  0  0  0  0  0  0  0  0
   -0.8125    0.3201   -0.3862 C   0  0  0  0  0  0  0  0  0  0  0  0
   -2.2058   -0.2256   -0.6786 C   0  0  0  0  0  0  0  0  0  0  0  0
    0.2504   -0.3140   -1.2131 N   0  0  0  0  0  0  0  0  0  0  0  0
    1.0124   -0.7461   -0.1646 C   0  0  0  0  0  0  0  0  0  0  0  0
    2.1248   -1.1986   -0.0627 O   0  0  0  0  0  0  0  0  0  0  0  0
   -0.0769   -0.3287    0.8487 C   0  0  1  0  0  0  0  0  0  0  0  0
    0.3492    0.5369    1.8665 O   0  0  0  0  0  0  0  0  0  0  0  0
    0.2368    2.2080   -0.1653 H   0  0  0  0  0  0  0  0  0  0  0  0
   -1.0502    2.2238   -1.3934 H   0  0  0  0  0  0  0  0  0  0  0  0
   -1.4583    2.2574    0.3305 H   0  0  0  0  0  0  0  0  0  0  0  0
   -2.5497    0.0882   -1.6703 H   0  0  0  0  0  0  0  0  0  0  0  0
   -2.2128   -1.3191   -0.6482 H   0  0  0  0  0  0  0  0  0  0  0  0
   -2.9259    0.1471    0.0567 H   0  0  0  0  0  0  0  0  0  0  0  0
    0.4873   -0.1990   -2.1893 H   0  0  0  0  0  0  0  0  0  0  0  0
   -0.6379   -1.1800    1.2571 H   0  0  0  0  0  0  0  0  0  0  0  0
    1.2806    0.3460    2.0293 H   0  0  0  0  0  0  0  0  0  0  0  0
  1  2  1  0  0  0  0
  1  9  1  0  0  0  0
  1 11  1  0  0  0  0
  2  7  1  0  0  0  0
  3 13  1  0  0  0  0
  3  2  1  0  0  0  0
  3 14  1  0  0  0  0
  4  2  1  0  0  0  0
  4  5  1  0  0  0  0
  5  6  2  0  0  0  0
  5  7  1  0  0  0  0
  7 16  1  1  0  0  0
  7  8  1  0  0  0  0
  8 17  1  0  0  0  0
 10  1  1  0  0  0  0
 12  3  1  0  0  0  0
 15  4  1  0  0  0  0
M  END
