17
title
C -0.7635775 1.8441405 -0.40643436
C -0.8124575 0.32012132 -0.38624293
C -2.2058342 -0.22564113 -0.67857075
N 0.25039563 -0.31403917 -1.2131424
C 1.0124378 -0.74605155 -0.1646379
O 2.1247866 -1.1985962 -0.06273661
C -0.07688545 -0.3286695 0.84874976
O 0.3491604 0.5368874 1.8665184
H 0.2368172 2.2079775 -0.16528419
H -1.0501981 2.223829 -1.39337
H -1.4583243 2.257411 0.33046025
H -2.5497255 0.088191174 -1.6703035
H -2.2128265 -1.3190691 -0.64817977
H -2.9259455 0.14707549 0.056746624
H 0.48731956 -0.19896305 -2.1893067
H -0.6379371 -1.1799527 1.2571106
H 1.2806058 0.34604636 2.0293438
