18
title
C -0.4491254 1.8862263 -0.55291027
C -0.7543051 0.4275462 -0.26388025
C -2.2352946 0.10350075 -0.31839642
O -0.0012699289 -0.44646394 -1.2012523
C 0.81057966 -0.9167543 -0.19741538
N 1.8410743 -1.6337415 -0.23840028
C 0.050920077 -0.20843786 0.91673815
N 0.72045267 0.65978926 1.8589367
H 0.62825716 2.0661488 -0.6015122
H -0.88483894 2.1829886 -1.5115966
H -0.86488354 2.5208101 0.23455194
H -2.6554246 0.36698923 -1.2940714
H -2.4078605 -0.9628816 -0.14715916
H -2.772753 0.67003125 0.44910994
H 2.075279 -1.893408 -1.1986829
H -0.5758354 -0.91098624 1.4734674
H 1.0395845 0.120876014 2.6567225
H 1.5534569 1.0635779 1.4420716
