title
 OpenBabel02282109573D

 18 18  0  0  1  0  0  0  0  0999 V2000
   -0.4491    1.8862   -0.5529 C   0  0  0  0  0  0  0  0  0  0  0  0
   -0.7543    0.4275   -0.2639 C   0  0  0  0  0  0  0  0  0  0  0  0
   -2.2353    0.1035   -0.3184 C   0  0  0  0  0  0  0  0  0  0  0  0
   -0.0013   -0.4465   -1.2013 O   0  0  0  0  0  0  0  0  0  0  0  0
    0.8106   -0.9168   -0.1974 C   0  0  0  0  0  0  0  0  0  0  0  0
    1.8411   -1.6337   -0.2384 N   0  0  0  0  0  0  0  0  0  0  0  0
    0.0509   -0.2084    0.9167 C   0  0  1  0  0  0  0  0  0  0  0  0
    0.7205    0.6598    1.8589 N   0  0  0  0  0  0  0  0  0  0  0  0
    0.6283    2.0661   -0.6015 H   0  0  0  0  0  0  0  0  0  0  0  0
   -0.8848    2.1830   -1.5116 H   0  0  0  0  0  0  0  0  0  0  0  0
   -0.8649    2.5208    0.2346 H   0  0  0  0  0  0  0  0  0  0  0  0
   -2.6554    0.3670   -1.2941 H   0  0  0  0  0  0  0  0  0  0  0  0
   -2.4079   -0.9629   -0.1472 H   0  0  0  0  0  0  0  0  0  0  0  0
   -2.7728    0.6700    0.4491 H   0  0  0  0  0  0  0  0  0  0  0  0
    2.0753   -1.8934   -1.1987 H   0  0  0  0  0  0  0  0  0  0  0  0
   -0.5758   -0.9110    1.4735 H   0  0  0  0  0  0  0  0  0  0  0  0
    1.0396    0.1209    2.6567 H   0  0  0  0  0  0  0  0  0  0  0  0
    1.5535    1.0636    1.4421 H   0  0  0  0  0  0  0  0  0  0  0  0
  1  2  1  0  0  0  0
  1 11  1  0  0  0  0
  2  7  1  0  0  0  0
  3  2  1  0  0  0  0
  3 13  1  0  0  0  0
  3 14  1  0  0  0  0
  4  2  1  0  0  0  0
  4  5  1  0  0  0  0
  5  7  1  0  0  0  0
  6  5  2  0  0  0  0
  7 16  1  1  0  0  0
  7  8  1  0  0  0  0
  8 17  1  0  0  0  0
  9  1  1  0  0  0  0
 10  1  1  0  0  0  0
 12  3  1  0  0  0  0
 15  6  1  0  0  0  0
 18  8  1  0  0  0  0
M  END
