title
 OpenBabel02282109573D

 17 17  0  0  1  0  0  0  0  0999 V2000
   -0.3989    1.9090   -0.4938 C   0  0  0  0  0  0  0  0  0  0  0  0
   -0.7485    0.4476   -0.3011 C   0  0  0  0  0  0  0  0  0  0  0  0
   -2.2184    0.1311   -0.4894 C   0  0  0  0  0  0  0  0  0  0  0  0
    0.0745   -0.3995   -1.2210 O   0  0  0  0  0  0  0  0  0  0  0  0
    0.7883   -0.9159   -0.1765 C   0  0  0  0  0  0  0  0  0  0  0  0
    1.8280   -1.6194   -0.1302 N   0  0  0  0  0  0  0  0  0  0  0  0
   -0.0407   -0.2558    0.9017 C   0  0  1  0  0  0  0  0  0  0  0  0
    0.6497    0.5502    1.8185 O   0  0  0  0  0  0  0  0  0  0  0  0
    0.6671    2.0803   -0.3346 H   0  0  0  0  0  0  0  0  0  0  0  0
   -0.6662    2.2298   -1.5051 H   0  0  0  0  0  0  0  0  0  0  0  0
   -0.9491    2.5244    0.2240 H   0  0  0  0  0  0  0  0  0  0  0  0
   -2.5521    0.4273   -1.4884 H   0  0  0  0  0  0  0  0  0  0  0  0
   -2.4072   -0.9394   -0.3681 H   0  0  0  0  0  0  0  0  0  0  0  0
   -2.8181    0.6747    0.2477 H   0  0  0  0  0  0  0  0  0  0  0  0
    2.1825   -1.8364   -1.0633 H   0  0  0  0  0  0  0  0  0  0  0  0
   -0.7118   -0.9533    1.4205 H   0  0  0  0  0  0  0  0  0  0  0  0
    1.5558    0.2221    1.8558 H   0  0  0  0  0  0  0  0  0  0  0  0
  1  9  1  0  0  0  0
  1  2  1  0  0  0  0
  1 11  1  0  0  0  0
  2  7  1  0  0  0  0
  3 13  1  0  0  0  0
  3  2  1  0  0  0  0
  3 14  1  0  0  0  0
  4  2  1  0  0  0  0
  4  5  1  0  0  0  0
  5  6  2  0  0  0  0
  5  7  1  0  0  0  0
  7 16  1  1  0  0  0
  7  8  1  0  0  0  0
  8 17  1  0  0  0  0
 10  1  1  0  0  0  0
 12  3  1  0  0  0  0
 15  6  1  0  0  0  0
M  END
