17
title
C -0.510382 1.894591 -0.51040184
C -0.76873237 0.4210971 -0.25277713
C -2.2371213 0.046112772 -0.32747996
O 0.019034995 -0.40749627 -1.2036747
C 0.83511466 -0.88645566 -0.21562192
O 1.8122537 -1.5571593 -0.33409435
C 0.045278624 -0.20785004 0.9207886
N 0.687324 0.6565495 1.8821447
H 0.56061035 2.110845 -0.55356306
H -0.95321465 2.1975894 -1.4635403
H -0.9486217 2.4973395 0.28973597
H -2.6568298 0.31271943 -1.302198
H -2.3740854 -1.0287979 -0.1784635
H -2.8013167 0.5787893 0.44478548
H -0.5562381 -0.94742644 1.4572737
H 1.0234404 0.11757585 2.6722627
H 1.4969013 1.1180643 1.4806448
