title
 OpenBabel02282109573D

 17 17  0  0  1  0  0  0  0  0999 V2000
   -0.5104    1.8946   -0.5104 C   0  0  0  0  0  0  0  0  0  0  0  0
   -0.7687    0.4211   -0.2528 C   0  0  0  0  0  0  0  0  0  0  0  0
   -2.2371    0.0461   -0.3275 C   0  0  0  0  0  0  0  0  0  0  0  0
    0.0190   -0.4075   -1.2037 O   0  0  0  0  0  0  0  0  0  0  0  0
    0.8351   -0.8865   -0.2156 C   0  0  0  0  0  0  0  0  0  0  0  0
    1.8123   -1.5572   -0.3341 O   0  0  0  0  0  0  0  0  0  0  0  0
    0.0453   -0.2079    0.9208 C   0  0  1  0  0  0  0  0  0  0  0  0
    0.6873    0.6565    1.8821 N   0  0  0  0  0  0  0  0  0  0  0  0
    0.5606    2.1108   -0.5536 H   0  0  0  0  0  0  0  0  0  0  0  0
   -0.9532    2.1976   -1.4635 H   0  0  0  0  0  0  0  0  0  0  0  0
   -0.9486    2.4973    0.2897 H   0  0  0  0  0  0  0  0  0  0  0  0
   -2.6568    0.3127   -1.3022 H   0  0  0  0  0  0  0  0  0  0  0  0
   -2.3741   -1.0288   -0.1785 H   0  0  0  0  0  0  0  0  0  0  0  0
   -2.8013    0.5788    0.4448 H   0  0  0  0  0  0  0  0  0  0  0  0
   -0.5562   -0.9474    1.4573 H   0  0  0  0  0  0  0  0  0  0  0  0
    1.0234    0.1176    2.6723 H   0  0  0  0  0  0  0  0  0  0  0  0
    1.4969    1.1181    1.4806 H   0  0  0  0  0  0  0  0  0  0  0  0
  1  2  1  0  0  0  0
  1 11  1  0  0  0  0
  2  7  1  0  0  0  0
  3  2  1  0  0  0  0
  3 13  1  0  0  0  0
  3 14  1  0  0  0  0
  4  2  1  0  0  0  0
  4  5  1  0  0  0  0
  5  7  1  0  0  0  0
  6  5  2  0  0  0  0
  7 15  1  1  0  0  0
  7  8  1  0  0  0  0
  8 16  1  0  0  0  0
  9  1  1  0  0  0  0
 10  1  1  0  0  0  0
 12  3  1  0  0  0  0
 17  8  1  0  0  0  0
M  END
