16
title
C -0.47163355 1.9100436 -0.4746735
C -0.7603617 0.43334097 -0.29398686
C -2.2126598 0.05415402 -0.5066585
O 0.10915576 -0.36921483 -1.2130622
C 0.8235282 -0.885809 -0.17771858
O 1.8064723 -1.5591079 -0.21054368
C -0.045762558 -0.24542628 0.90889996
O 0.6045182 0.60415983 1.815242
H 0.58543575 2.1250443 -0.31133792
H -0.7493438 2.224659 -1.4847785
H -1.0511205 2.4959075 0.24478558
H -2.5427525 0.34466213 -1.5082433
H -2.3570738 -1.0245231 -0.39799672
H -2.8463562 0.56498486 0.22513887
H -0.68709683 -0.9779777 1.4191725
H 1.4262745 0.1755311 2.0809648
