title
 OpenBabel02282109573D

 19 19  0  0  1  0  0  0  0  0999 V2000
   -1.1229    1.8172   -0.4502 C   0  0  0  0  0  0  0  0  0  0  0  0
   -0.7962    0.3304   -0.3991 C   0  0  1  0  0  0  0  0  0  0  0  0
    0.4396   -0.1405   -1.1358 C   0  0  0  0  0  0  0  0  0  0  0  0
    0.8521   -0.0220   -2.3158 N   0  0  0  0  0  0  0  0  0  0  0  0
    1.0090   -0.7522   -0.0446 O   0  0  0  0  0  0  0  0  0  0  0  0
   -0.0992   -0.3154    0.8429 C   0  0  0  0  0  0  0  0  0  0  0  0
    0.4414    0.6204    1.9104 C   0  0  0  0  0  0  0  0  0  0  0  0
   -0.8017   -1.5292    1.4265 C   0  0  0  0  0  0  0  0  0  0  0  0
   -0.2621    2.4368   -0.1864 H   0  0  0  0  0  0  0  0  0  0  0  0
   -1.4236    2.0888   -1.4658 H   0  0  0  0  0  0  0  0  0  0  0  0
   -1.9469    2.0653    0.2265 H   0  0  0  0  0  0  0  0  0  0  0  0
   -1.6748   -0.2509   -0.6970 H   0  0  0  0  0  0  0  0  0  0  0  0
    1.7613   -0.4726   -2.4360 H   0  0  0  0  0  0  0  0  0  0  0  0
    1.0117    1.4419    1.4714 H   0  0  0  0  0  0  0  0  0  0  0  0
   -0.3768    1.0428    2.5026 H   0  0  0  0  0  0  0  0  0  0  0  0
    1.1034    0.0721    2.5876 H   0  0  0  0  0  0  0  0  0  0  0  0
   -0.1309   -2.0806    2.0927 H   0  0  0  0  0  0  0  0  0  0  0  0
   -1.6786   -1.2201    2.0053 H   0  0  0  0  0  0  0  0  0  0  0  0
   -1.1319   -2.2064    0.6339 H   0  0  0  0  0  0  0  0  0  0  0  0
  1  2  1  0  0  0  0
  1  9  1  0  0  0  0
  1 11  1  0  0  0  0
  2 12  1  6  0  0  0
  2  6  1  0  0  0  0
  3  2  1  0  0  0  0
  3  5  1  0  0  0  0
  4  3  2  0  0  0  0
  5  6  1  0  0  0  0
  6  8  1  0  0  0  0
  6  7  1  0  0  0  0
  7 15  1  0  0  0  0
  7 16  1  0  0  0  0
  8 18  1  0  0  0  0
  8 17  1  0  0  0  0
 10  1  1  0  0  0  0
 13  4  1  0  0  0  0
 14  7  1  0  0  0  0
 19  8  1  0  0  0  0
M  END
