19
title
C -1.1229461 1.8172154 -0.45019704
C -0.7962483 0.33044434 -0.39905024
C 0.43958497 -0.14047329 -1.1358229
N 0.8521285 -0.022031028 -2.3157659
O 1.0090292 -0.75223917 -0.04455603
C -0.09924734 -0.3154282 0.84287685
C 0.44136393 0.62037265 1.9104426
C -0.8017256 -1.5292418 1.4264929
H -0.26212442 2.436771 -0.18639997
H -1.4236342 2.0888293 -1.4658189
H -1.9469427 2.065251 0.22652738
H -1.6748164 -0.25089282 -0.6969995
H 1.761291 -0.4725997 -2.4359999
H 1.0117493 1.4419085 1.4714037
H -0.37679836 1.0427974 2.5026045
H 1.1034195 0.07210572 2.587635
H -0.13087946 -2.080601 2.0926518
H -1.6786292 -1.2200843 2.005324
H -1.1319076 -2.206438 0.6339245
