title
 OpenBabel02282109573D

 20 20  0  0  1  0  0  0  0  0999 V2000
   -1.4939    1.4727   -0.4602 C   0  0  0  0  0  0  0  0  0  0  0  0
   -0.7541    0.1430   -0.4636 C   0  0  1  0  0  0  0  0  0  0  0  0
    0.6153    0.0459   -1.1459 C   0  0  0  0  0  0  0  0  0  0  0  0
    1.1089    0.6027   -2.0851 O   0  0  0  0  0  0  0  0  0  0  0  0
    1.1508   -0.8991   -0.0625 C   0  0  0  0  0  0  0  0  0  0  0  0
   -0.0707   -0.4702    0.8246 C   0  0  0  0  0  0  0  0  0  0  0  0
    0.3363    0.5926    1.8479 C   0  0  0  0  0  0  0  0  0  0  0  0
   -0.8422   -1.6083    1.4863 C   0  0  0  0  0  0  0  0  0  0  0  0
   -0.8835    2.2757   -0.0379 H   0  0  0  0  0  0  0  0  0  0  0  0
   -1.7503    1.7596   -1.4843 H   0  0  0  0  0  0  0  0  0  0  0  0
   -2.4231    1.4123    0.1157 H   0  0  0  0  0  0  0  0  0  0  0  0
   -1.3925   -0.6339   -0.9085 H   0  0  0  0  0  0  0  0  0  0  0  0
    1.0975   -1.9454   -0.3828 H   0  0  0  0  0  0  0  0  0  0  0  0
    2.1573   -0.6960    0.3124 H   0  0  0  0  0  0  0  0  0  0  0  0
    0.9168    1.4004    1.3894 H   0  0  0  0  0  0  0  0  0  0  0  0
   -0.5396    1.0421    2.3275 H   0  0  0  0  0  0  0  0  0  0  0  0
    0.9561    0.1477    2.6340 H   0  0  0  0  0  0  0  0  0  0  0  0
   -0.2461   -2.0875    2.2712 H   0  0  0  0  0  0  0  0  0  0  0  0
   -1.7653   -1.2426    1.9509 H   0  0  0  0  0  0  0  0  0  0  0  0
   -1.1171   -2.3789    0.7579 H   0  0  0  0  0  0  0  0  0  0  0  0
  1  9  1  0  0  0  0
  1 11  1  0  0  0  0
  2 12  1  6  0  0  0
  2  1  1  0  0  0  0
  2  6  1  0  0  0  0
  3  2  1  0  0  0  0
  3  5  1  0  0  0  0
  4  3  2  0  0  0  0
  5 14  1  0  0  0  0
  5  6  1  0  0  0  0
  6  8  1  0  0  0  0
  6  7  1  0  0  0  0
  7 16  1  0  0  0  0
  7 17  1  0  0  0  0
  8 19  1  0  0  0  0
  8 18  1  0  0  0  0
 10  1  1  0  0  0  0
 13  5  1  0  0  0  0
 15  7  1  0  0  0  0
 20  8  1  0  0  0  0
M  END
