18
title
C -1.4211828 1.530408 -0.5018134
C -0.73743695 0.1731903 -0.46083003
C 0.6025406 -0.026587853 -1.1767011
O 1.0870557 0.44711047 -2.1649647
C 1.1347587 -0.92599684 -0.053393785
C -0.055330724 -0.4015525 0.827901
C 0.37037602 0.64002764 1.8561002
O -0.8788163 -1.3956962 1.4068936
H -0.7588363 2.3287568 -0.15461442
H -1.7125872 1.7704123 -1.5284748
H -2.3231602 1.5384725 0.11782542
H -1.4200002 -0.6116603 -0.813933
H 1.0053511 -1.98627 -0.2921383
H 2.159579 -0.7464829 0.28097823
H 0.98455536 1.4265813 1.4066626
H -0.5039724 1.105465 2.3198237
H 0.97031856 0.17092167 2.6457071
H -0.44009104 -1.7306494 2.196556
