title
 OpenBabel02282109573D

 19 19  0  0  1  0  0  0  0  0999 V2000
   -0.9260    1.8921   -0.4415 C   0  0  0  0  0  0  0  0  0  0  0  0
   -0.7641    0.3819   -0.3431 C   0  0  1  0  0  0  0  0  0  0  0  0
    0.3622   -0.2512   -1.1958 C   0  0  0  0  0  0  0  0  0  0  0  0
    0.6634   -0.2523   -2.3610 O   0  0  0  0  0  0  0  0  0  0  0  0
    0.9235   -0.8253   -0.0850 N   0  0  0  0  0  0  0  0  0  0  0  0
   -0.0426   -0.2832    0.8947 C   0  0  0  0  0  0  0  0  0  0  0  0
    0.5969    0.6661    1.9072 C   0  0  0  0  0  0  0  0  0  0  0  0
   -0.8646   -1.3668    1.5929 C   0  0  0  0  0  0  0  0  0  0  0  0
    0.0194    2.4197   -0.2886 H   0  0  0  0  0  0  0  0  0  0  0  0
   -1.2887    2.1546   -1.4397 H   0  0  0  0  0  0  0  0  0  0  0  0
   -1.6493    2.2672    0.2898 H   0  0  0  0  0  0  0  0  0  0  0  0
   -1.7209   -0.1113   -0.5432 H   0  0  0  0  0  0  0  0  0  0  0  0
    1.7341   -1.4184    0.0238 H   0  0  0  0  0  0  0  0  0  0  0  0
    1.2260    1.4135    1.4183 H   0  0  0  0  0  0  0  0  0  0  0  0
   -0.1685    1.1859    2.4926 H   0  0  0  0  0  0  0  0  0  0  0  0
    1.2249    0.1061    2.6092 H   0  0  0  0  0  0  0  0  0  0  0  0
   -0.2409   -1.9535    2.2769 H   0  0  0  0  0  0  0  0  0  0  0  0
   -1.6716   -0.9200    2.1832 H   0  0  0  0  0  0  0  0  0  0  0  0
   -1.3075   -2.0516    0.8642 H   0  0  0  0  0  0  0  0  0  0  0  0
  1  2  1  0  0  0  0
  1  9  1  0  0  0  0
  1 11  1  0  0  0  0
  2 12  1  6  0  0  0
  2  6  1  0  0  0  0
  3  2  1  0  0  0  0
  3  5  1  0  0  0  0
  4  3  2  0  0  0  0
  5 13  1  0  0  0  0
  5  6  1  0  0  0  0
  6  8  1  0  0  0  0
  6  7  1  0  0  0  0
  7 15  1  0  0  0  0
  7 16  1  0  0  0  0
  8 18  1  0  0  0  0
  8 17  1  0  0  0  0
 10  1  1  0  0  0  0
 14  7  1  0  0  0  0
 19  8  1  0  0  0  0
M  END
