title
 OpenBabel02282109573D

 18 18  0  0  1  0  0  0  0  0999 V2000
   -1.1477    1.8129   -0.4367 C   0  0  0  0  0  0  0  0  0  0  0  0
   -0.8049    0.3294   -0.3888 C   0  0  1  0  0  0  0  0  0  0  0  0
    0.4559   -0.1234   -1.1248 C   0  0  0  0  0  0  0  0  0  0  0  0
    0.9091   -0.0359   -2.2224 O   0  0  0  0  0  0  0  0  0  0  0  0
    1.0149   -0.7302   -0.0347 O   0  0  0  0  0  0  0  0  0  0  0  0
   -0.1117   -0.3214    0.8473 C   0  0  0  0  0  0  0  0  0  0  0  0
    0.4055    0.6083    1.9317 C   0  0  0  0  0  0  0  0  0  0  0  0
   -0.7981   -1.5560    1.4061 C   0  0  0  0  0  0  0  0  0  0  0  0
   -0.3012    2.4419   -0.1503 H   0  0  0  0  0  0  0  0  0  0  0  0
   -1.4344    2.0893   -1.4552 H   0  0  0  0  0  0  0  0  0  0  0  0
   -1.9874    2.0452    0.2256 H   0  0  0  0  0  0  0  0  0  0  0  0
   -1.6664   -0.2631   -0.7138 H   0  0  0  0  0  0  0  0  0  0  0  0
    0.9706    1.4423    1.5096 H   0  0  0  0  0  0  0  0  0  0  0  0
   -0.4250    1.0123    2.5193 H   0  0  0  0  0  0  0  0  0  0  0  0
    1.0672    0.0606    2.6092 H   0  0  0  0  0  0  0  0  0  0  0  0
   -0.1238   -2.1049    2.0703 H   0  0  0  0  0  0  0  0  0  0  0  0
   -1.6855   -1.2707    1.9808 H   0  0  0  0  0  0  0  0  0  0  0  0
   -1.1082   -2.2282    0.6012 H   0  0  0  0  0  0  0  0  0  0  0  0
  1  2  1  0  0  0  0
  1  9  1  0  0  0  0
  1 11  1  0  0  0  0
  2 12  1  6  0  0  0
  2  6  1  0  0  0  0
  3  2  1  0  0  0  0
  3  5  1  0  0  0  0
  4  3  2  0  0  0  0
  5  6  1  0  0  0  0
  6  8  1  0  0  0  0
  6  7  1  0  0  0  0
  7 14  1  0  0  0  0
  7 15  1  0  0  0  0
  8 17  1  0  0  0  0
  8 16  1  0  0  0  0
 10  1  1  0  0  0  0
 13  7  1  0  0  0  0
 18  8  1  0  0  0  0
M  END
