19
title
C -0.020525256 2.0780756 -0.17589204
N -0.010423674 0.6390235 -0.20098585
C -0.032685798 -0.24508546 -1.2479463
O -0.066982694 -0.08029656 -2.4413161
C 0.0032890763 -1.4476362 -0.2811075
C 0.026950186 -0.38659576 0.8686438
C 1.3164154 -0.35402194 1.6886545
C -1.2156466 -0.37328842 1.7585586
H 0.8798024 2.484066 0.30159226
H -0.05177732 2.4228778 -1.2123785
H -0.8990694 2.4707289 0.3507931
H -0.8855898 -2.0807185 -0.3151667
H 0.89886713 -2.0665653 -0.36454776
H 2.1946084 -0.36276153 1.0362731
H 1.364757 0.5441061 2.314437
H 1.371982 -1.2223754 2.3530338
H -1.2211515 -1.241956 2.4248264
H -1.243165 0.52440536 2.3862221
H -2.1282718 -0.3959116 1.1556407
