title
 OpenBabel02282109573D

 18 18  0  0  1  0  0  0  0  0999 V2000
   -1.5069    1.6652    0.0174 C   0  0  0  0  0  0  0  0  0  0  0  0
   -0.9734    0.2457   -0.1478 C   0  0  0  0  0  0  0  0  0  0  0  0
   -2.0881   -0.8004   -0.0077 C   0  0  0  0  0  0  0  0  0  0  0  0
   -0.0278   -0.0360   -1.3723 C   0  0  0  0  0  0  0  0  0  0  0  0
    0.9760   -0.8001   -0.4358 C   0  0  1  0  0  0  0  0  0  0  0  0
    2.3552   -0.6163   -0.5464 O   0  0  0  0  0  0  0  0  0  0  0  0
    0.2678   -0.0748    0.7088 C   0  0  0  0  0  0  0  0  0  0  0  0
    0.7120    0.3863    1.7258 O   0  0  0  0  0  0  0  0  0  0  0  0
   -0.7056    2.4046   -0.0701 H   0  0  0  0  0  0  0  0  0  0  0  0
   -2.2615    1.8859   -0.7453 H   0  0  0  0  0  0  0  0  0  0  0  0
   -1.9708    1.7919    1.0007 H   0  0  0  0  0  0  0  0  0  0  0  0
   -2.8406   -0.6524   -0.7899 H   0  0  0  0  0  0  0  0  0  0  0  0
   -1.7105   -1.8234   -0.0982 H   0  0  0  0  0  0  0  0  0  0  0  0
   -2.5867   -0.7103    0.9627 H   0  0  0  0  0  0  0  0  0  0  0  0
   -0.4519   -0.6157   -2.1935 H   0  0  0  0  0  0  0  0  0  0  0  0
    0.4259    0.8803   -1.7570 H   0  0  0  0  0  0  0  0  0  0  0  0
    0.7483   -1.8735   -0.4486 H   0  0  0  0  0  0  0  0  0  0  0  0
    2.6168   -0.0150    0.1626 H   0  0  0  0  0  0  0  0  0  0  0  0
  1 11  1  0  0  0  0
  2  3  1  0  0  0  0
  2  1  1  0  0  0  0
  2  7  1  0  0  0  0
  3 14  1  0  0  0  0
  4  5  1  0  0  0  0
  4  2  1  0  0  0  0
  5 17  1  1  0  0  0
  5  7  1  0  0  0  0
  6  5  1  0  0  0  0
  6 18  1  0  0  0  0
  7  8  2  0  0  0  0
  9  1  1  0  0  0  0
 10  1  1  0  0  0  0
 12  3  1  0  0  0  0
 13  3  1  0  0  0  0
 15  4  1  0  0  0  0
 16  4  1  0  0  0  0
M  END
