18
title
C -1.5069213 1.6651996 0.017404718
C -0.9734122 0.2457374 -0.14779922
C -2.088149 -0.80036587 -0.007661777
C -0.027768716 -0.03596151 -1.3722719
C 0.97603446 -0.80012834 -0.43578473
O 2.3551693 -0.6163412 -0.5463909
C 0.26781446 -0.0748035 0.708824
O 0.71204 0.38627875 1.7258104
H -0.70557684 2.4045565 -0.07009123
H -2.261498 1.8858523 -0.74529785
H -1.97081 1.7918867 1.000686
H -2.840636 -0.6524047 -0.7899157
H -1.7104526 -1.8233825 -0.09820592
H -2.5866659 -0.7102764 0.9626662
H -0.45194116 -0.61572504 -2.1935115
H 0.42585057 0.88028485 -1.7569802
H 0.74825495 -1.8735188 -0.44862947
H 2.6167881 -0.015011652 0.16263832
