title
 OpenBabel02282109573D

 16 16  0  0  1  0  0  0  0  0999 V2000
   -1.6088    1.6265    0.0470 C   0  0  0  0  0  0  0  0  0  0  0  0
   -0.9475    0.2760   -0.1426 C   0  0  1  0  0  0  0  0  0  0  0  0
   -1.8773   -0.8036   -0.1121 O   0  0  0  0  0  0  0  0  0  0  0  0
   -0.0056    0.0318   -1.3560 C   0  0  0  0  0  0  0  0  0  0  0  0
    0.9807   -0.7806   -0.4330 C   0  0  1  0  0  0  0  0  0  0  0  0
    2.3640   -0.6707   -0.5575 O   0  0  0  0  0  0  0  0  0  0  0  0
    0.3027   -0.0463    0.7251 C   0  0  0  0  0  0  0  0  0  0  0  0
    0.7451    0.4073    1.7452 O   0  0  0  0  0  0  0  0  0  0  0  0
   -0.8780    2.4377   -0.0148 H   0  0  0  0  0  0  0  0  0  0  0  0
   -2.3759    1.7821   -0.7173 H   0  0  0  0  0  0  0  0  0  0  0  0
   -2.0834    1.6865    1.0332 H   0  0  0  0  0  0  0  0  0  0  0  0
   -2.3337   -0.7769    0.7369 H   0  0  0  0  0  0  0  0  0  0  0  0
   -0.4532   -0.5201   -2.1823 H   0  0  0  0  0  0  0  0  0  0  0  0
    0.4523    0.9582   -1.7099 H   0  0  0  0  0  0  0  0  0  0  0  0
    0.6961   -1.8378   -0.4598 H   0  0  0  0  0  0  0  0  0  0  0  0
    2.6593    0.0103    0.0592 H   0  0  0  0  0  0  0  0  0  0  0  0
  1 11  1  0  0  0  0
  2  3  1  1  0  0  0
  2  1  1  0  0  0  0
  2  7  1  0  0  0  0
  3 12  1  0  0  0  0
  4  5  1  0  0  0  0
  4  2  1  0  0  0  0
  5 15  1  1  0  0  0
  5  7  1  0  0  0  0
  6  5  1  0  0  0  0
  6 16  1  0  0  0  0
  7  8  2  0  0  0  0
  9  1  1  0  0  0  0
 10  1  1  0  0  0  0
 13  4  1  0  0  0  0
 14  4  1  0  0  0  0
M  END
