16
title
C -1.6088097 1.6264611 0.046983704
C -0.94753355 0.27600843 -0.14257254
O -1.8773315 -0.803619 -0.11207631
C -0.005572295 0.031798035 -1.3560395
C 0.9806738 -0.78060526 -0.43297043
O 2.3639848 -0.6707149 -0.5575337
C 0.30274966 -0.046294436 0.7251015
O 0.7451011 0.40734944 1.745156
H -0.87796843 2.4377494 -0.014807829
H -2.375908 1.7821374 -0.71731323
H -2.083372 1.6865166 1.0331998
H -2.3336554 -0.77685475 0.7368608
H -0.45317343 -0.5201126 -2.1823394
H 0.4523045 0.95815617 -1.7099079
H 0.6961199 -1.837769 -0.45977643
H 2.6593149 0.010344409 0.059183285
