title
 OpenBabel02282109573D

 18 18  0  0  1  0  0  0  0  0999 V2000
   -2.3190    1.2958    0.1317 C   0  0  0  0  0  0  0  0  0  0  0  0
   -1.3769    0.1224   -0.0909 C   0  0  1  0  0  0  0  0  0  0  0  0
   -0.3973    0.1005   -1.3148 C   0  0  0  0  0  0  0  0  0  0  0  0
    0.7588   -0.4457   -0.3983 C   0  0  1  0  0  0  0  0  0  0  0  0
    0.9243   -1.9622   -0.4798 C   0  0  0  0  0  0  0  0  0  0  0  0
    2.0186    0.1729   -0.4868 O   0  0  0  0  0  0  0  0  0  0  0  0
   -0.1091    0.0588    0.7666 C   0  0  0  0  0  0  0  0  0  0  0  0
    0.2120    0.5610    1.8102 O   0  0  0  0  0  0  0  0  0  0  0  0
   -1.7763    2.2453    0.0902 H   0  0  0  0  0  0  0  0  0  0  0  0
   -3.1058    1.3189   -0.6285 H   0  0  0  0  0  0  0  0  0  0  0  0
   -2.7959    1.2287    1.1140 H   0  0  0  0  0  0  0  0  0  0  0  0
   -1.9198   -0.8283   -0.0328 H   0  0  0  0  0  0  0  0  0  0  0  0
   -0.6799   -0.5284   -2.1604 H   0  0  0  0  0  0  0  0  0  0  0  0
   -0.1624    1.1094   -1.6615 H   0  0  0  0  0  0  0  0  0  0  0  0
    1.4260   -2.2162   -1.4187 H   0  0  0  0  0  0  0  0  0  0  0  0
    1.5427   -2.3193    0.3482 H   0  0  0  0  0  0  0  0  0  0  0  0
   -0.0381   -2.4819   -0.4507 H   0  0  0  0  0  0  0  0  0  0  0  0
    2.1225    0.7168    0.3045 H   0  0  0  0  0  0  0  0  0  0  0  0
  1 11  1  0  0  0  0
  2 12  1  1  0  0  0
  2  1  1  0  0  0  0
  2  7  1  0  0  0  0
  3  4  1  0  0  0  0
  3  2  1  0  0  0  0
  4  6  1  6  0  0  0
  4  7  1  0  0  0  0
  5 17  1  0  0  0  0
  5  4  1  0  0  0  0
  5 16  1  0  0  0  0
  6 18  1  0  0  0  0
  7  8  2  0  0  0  0
  9  1  1  0  0  0  0
 10  1  1  0  0  0  0
 13  3  1  0  0  0  0
 14  3  1  0  0  0  0
 15  5  1  0  0  0  0
M  END
