title
 OpenBabel02282109573D

 19 19  0  0  1  0  0  0  0  0999 V2000
   -2.0770    1.3444   -0.7234 C   0  0  0  0  0  0  0  0  0  0  0  0
   -1.2252    0.0954   -0.5506 C   0  0  1  0  0  0  0  0  0  0  0  0
    0.0547    0.0596   -1.3183 N   0  0  0  0  0  0  0  0  0  0  0  0
    0.8717   -0.3288   -0.1197 C   0  0  0  0  0  0  0  0  0  0  0  0
    1.2632   -1.8104   -0.0709 C   0  0  0  0  0  0  0  0  0  0  0  0
    2.0660    0.5868    0.1325 C   0  0  0  0  0  0  0  0  0  0  0  0
   -0.3832   -0.0336    0.7293 C   0  0  0  0  0  0  0  0  0  0  0  0
   -0.5959    0.0938    1.8988 O   0  0  0  0  0  0  0  0  0  0  0  0
   -1.4695    2.2440   -0.5932 H   0  0  0  0  0  0  0  0  0  0  0  0
   -2.5230    1.3759   -1.7223 H   0  0  0  0  0  0  0  0  0  0  0  0
   -2.8844    1.3554    0.0156 H   0  0  0  0  0  0  0  0  0  0  0  0
   -1.8463   -0.8047   -0.6815 H   0  0  0  0  0  0  0  0  0  0  0  0
    0.0680   -0.6359   -2.0568 H   0  0  0  0  0  0  0  0  0  0  0  0
    1.9921   -2.0327   -0.8589 H   0  0  0  0  0  0  0  0  0  0  0  0
    1.7201   -2.0607    0.8914 H   0  0  0  0  0  0  0  0  0  0  0  0
    0.3955   -2.4630   -0.2132 H   0  0  0  0  0  0  0  0  0  0  0  0
    1.7725    1.6359    0.0500 H   0  0  0  0  0  0  0  0  0  0  0  0
    2.4746    0.4144    1.1332 H   0  0  0  0  0  0  0  0  0  0  0  0
    2.8568    0.3970   -0.6014 H   0  0  0  0  0  0  0  0  0  0  0  0
  1  9  1  0  0  0  0
  1  2  1  0  0  0  0
  1 11  1  0  0  0  0
  2 12  1  6  0  0  0
  2  7  1  0  0  0  0
  3  2  1  0  0  0  0
  3  4  1  0  0  0  0
  4  5  1  0  0  0  0
  4  6  1  0  0  0  0
  4  7  1  0  0  0  0
  5 15  1  0  0  0  0
  6 18  1  0  0  0  0
  7  8  2  0  0  0  0
 10  1  1  0  0  0  0
 13  3  1  0  0  0  0
 14  5  1  0  0  0  0
 16  5  1  0  0  0  0
 17  6  1  0  0  0  0
 19  6  1  0  0  0  0
M  END
