18
title
C -1.5234536 1.3256024 -1.4734969
C -0.98621225 0.030569011 -0.8890654
O 0.4074404 -0.22410439 -1.1911268
C 0.8123418 -0.33521882 0.20934184
C 1.2448801 -1.7560159 0.5566671
C 1.8532149 0.7119364 0.5847881
C -0.63756216 0.0031985582 0.60476035
O -1.2213044 0.19472751 1.6286516
H -0.9219501 2.1813936 -1.1551481
H -1.5092335 1.2802185 -2.5663295
H -2.555948 1.4814601 -1.1457422
H -1.6184107 -0.8184933 -1.1886185
H 2.1696975 -2.0022936 0.02527461
H 1.4248244 -1.8488035 1.6319405
H 0.4807472 -2.4829543 0.26836112
H 1.5206252 1.7153598 0.30740884
H 2.0386431 0.6918156 1.6628861
H 2.7945285 0.50602746 0.06529916
