title
 OpenBabel02282109573D

 18 18  0  0  1  0  0  0  0  0999 V2000
   -1.5235    1.3256   -1.4735 C   0  0  0  0  0  0  0  0  0  0  0  0
   -0.9862    0.0306   -0.8891 C   0  0  1  0  0  0  0  0  0  0  0  0
    0.4074   -0.2241   -1.1911 O   0  0  0  0  0  0  0  0  0  0  0  0
    0.8123   -0.3352    0.2093 C   0  0  0  0  0  0  0  0  0  0  0  0
    1.2449   -1.7560    0.5567 C   0  0  0  0  0  0  0  0  0  0  0  0
    1.8532    0.7119    0.5848 C   0  0  0  0  0  0  0  0  0  0  0  0
   -0.6376    0.0032    0.6048 C   0  0  0  0  0  0  0  0  0  0  0  0
   -1.2213    0.1947    1.6287 O   0  0  0  0  0  0  0  0  0  0  0  0
   -0.9220    2.1814   -1.1551 H   0  0  0  0  0  0  0  0  0  0  0  0
   -1.5092    1.2802   -2.5663 H   0  0  0  0  0  0  0  0  0  0  0  0
   -2.5559    1.4815   -1.1457 H   0  0  0  0  0  0  0  0  0  0  0  0
   -1.6184   -0.8185   -1.1886 H   0  0  0  0  0  0  0  0  0  0  0  0
    2.1697   -2.0023    0.0253 H   0  0  0  0  0  0  0  0  0  0  0  0
    1.4248   -1.8488    1.6319 H   0  0  0  0  0  0  0  0  0  0  0  0
    0.4807   -2.4830    0.2684 H   0  0  0  0  0  0  0  0  0  0  0  0
    1.5206    1.7154    0.3074 H   0  0  0  0  0  0  0  0  0  0  0  0
    2.0386    0.6918    1.6629 H   0  0  0  0  0  0  0  0  0  0  0  0
    2.7945    0.5060    0.0653 H   0  0  0  0  0  0  0  0  0  0  0  0
  1  9  1  0  0  0  0
  1 11  1  0  0  0  0
  1  2  1  0  0  0  0
  2 12  1  6  0  0  0
  2  7  1  0  0  0  0
  3  2  1  0  0  0  0
  3  4  1  0  0  0  0
  4  5  1  0  0  0  0
  4  6  1  0  0  0  0
  4  7  1  0  0  0  0
  5 14  1  0  0  0  0
  6 17  1  0  0  0  0
  7  8  2  0  0  0  0
 10  1  1  0  0  0  0
 13  5  1  0  0  0  0
 15  5  1  0  0  0  0
 16  6  1  0  0  0  0
 18  6  1  0  0  0  0
M  END
