19
title
C -0.2976348 2.5867512 0.04066326
N -0.30195704 1.1481307 0.019624788
C -1.3847159 0.1643486 0.015509453
C -0.28628075 -0.95382726 -0.011233531
C -0.20868939 -1.8198181 1.2444338
C -0.23281246 -1.783096 -1.2926475
C 0.7182221 0.23229158 -0.0035042334
O 1.9174912 0.35428023 -0.013180902
H 0.744965 2.9139955 0.035392452
H -0.8039406 3.0056496 -0.83802027
H -0.78676534 2.9795952 0.9408501
H -2.0096312 0.185583 0.91646826
H -2.0265427 0.21171397 -0.87247694
H -1.0242053 -2.55115 1.268347
H 0.7386736 -2.3672073 1.2685117
H -0.26727012 -1.2139169 2.154282
H -0.308618 -1.151172 -2.1833224
H 0.7138327 -2.329191 -1.3505906
H -1.0487542 -2.513746 -1.3221638
