title
 OpenBabel02282109573D

 17 17  0  0  1  0  0  0  0  0999 V2000
   -0.3016    2.6022   -0.0725 C   0  0  0  0  0  0  0  0  0  0  0  0
   -0.2937    1.1661    0.0286 N   0  0  0  0  0  0  0  0  0  0  0  0
   -1.3766    0.1752    0.0266 C   0  0  0  0  0  0  0  0  0  0  0  0
   -0.2772   -0.9301    0.0592 C   0  0  1  0  0  0  0  0  0  0  0  0
   -0.2002   -1.7934    1.3086 C   0  0  0  0  0  0  0  0  0  0  0  0
   -0.2950   -1.7010   -1.1266 O   0  0  0  0  0  0  0  0  0  0  0  0
    0.7276    0.2574   -0.0060 C   0  0  0  0  0  0  0  0  0  0  0  0
    1.9260    0.3654   -0.0933 O   0  0  0  0  0  0  0  0  0  0  0  0
    0.7374    2.9393   -0.0961 H   0  0  0  0  0  0  0  0  0  0  0  0
   -0.8033    2.9378   -0.9886 H   0  0  0  0  0  0  0  0  0  0  0  0
   -0.8045    3.0621    0.7866 H   0  0  0  0  0  0  0  0  0  0  0  0
   -2.0337    0.2270    0.9016 H   0  0  0  0  0  0  0  0  0  0  0  0
   -1.9687    0.1626   -0.8937 H   0  0  0  0  0  0  0  0  0  0  0  0
   -1.0167   -2.5217    1.3148 H   0  0  0  0  0  0  0  0  0  0  0  0
    0.7496   -2.3379    1.3298 H   0  0  0  0  0  0  0  0  0  0  0  0
   -0.2587   -1.1858    2.2171 H   0  0  0  0  0  0  0  0  0  0  0  0
    0.6086   -1.9974   -1.2872 H   0  0  0  0  0  0  0  0  0  0  0  0
  1  2  1  0  0  0  0
  1 11  1  0  0  0  0
  3  2  1  0  0  0  0
  3  4  1  0  0  0  0
  3 12  1  0  0  0  0
  4  6  1  6  0  0  0
  4  5  1  0  0  0  0
  5 14  1  0  0  0  0
  5 15  1  0  0  0  0
  5 16  1  0  0  0  0
  7  2  1  0  0  0  0
  7  4  1  0  0  0  0
  8  7  2  0  0  0  0
  9  1  1  0  0  0  0
 10  1  1  0  0  0  0
 13  3  1  0  0  0  0
 17  6  1  0  0  0  0
M  END
