17
title
C -0.3016003 2.6021607 -0.07246667
N -0.29373524 1.1661118 0.028575683
C -1.376566 0.17518559 0.02663177
C -0.27721983 -0.93014795 0.05915583
C -0.2002122 -1.7933689 1.3085982
O -0.29497394 -1.7009813 -1.1265692
C 0.72758806 0.25741532 -0.005961972
O 1.92598 0.36536857 -0.09330692
H 0.7374252 2.9392946 -0.096090145
H -0.8033421 2.9378395 -0.9886173
H -0.804522 3.0621119 0.78658116
H -2.0336988 0.22699896 0.90155846
H -1.968672 0.16261438 -0.89369386
H -1.0166967 -2.521693 1.3148452
H 0.7495662 -2.3379004 1.3298084
H -0.2586586 -1.1857594 2.2171245
H 0.6086361 -1.9974171 -1.287214
