title
 OpenBabel02282109573D

 20 20  0  0  1  0  0  0  0  0999 V2000
   -1.4678    1.5704   -0.4104 C   0  0  0  0  0  0  0  0  0  0  0  0
   -0.9112    0.1504   -0.4091 C   0  0  0  0  0  0  0  0  0  0  0  0
   -2.0148   -0.8736   -0.6930 C   0  0  0  0  0  0  0  0  0  0  0  0
    0.3588   -0.0954   -1.2890 C   0  0  0  0  0  0  0  0  0  0  0  0
    1.0033   -0.8751   -0.1102 C   0  0  1  0  0  0  0  0  0  0  0  0
    2.3385   -0.6142    0.2315 O   0  0  0  0  0  0  0  0  0  0  0  0
   -0.0774   -0.2678    0.8435 C   0  0  1  0  0  0  0  0  0  0  0  0
    0.4375    0.8724    1.5198 O   0  0  0  0  0  0  0  0  0  0  0  0
   -0.6968    2.2994   -0.1527 H   0  0  0  0  0  0  0  0  0  0  0  0
   -1.8630    1.8202   -1.4016 H   0  0  0  0  0  0  0  0  0  0  0  0
   -2.2844    1.6789    0.3122 H   0  0  0  0  0  0  0  0  0  0  0  0
   -2.4645   -0.6926   -1.6755 H   0  0  0  0  0  0  0  0  0  0  0  0
   -1.6344   -1.9010   -0.6890 H   0  0  0  0  0  0  0  0  0  0  0  0
   -2.8109   -0.8103    0.0576 H   0  0  0  0  0  0  0  0  0  0  0  0
    0.2196   -0.6311   -2.2318 H   0  0  0  0  0  0  0  0  0  0  0  0
    0.9043    0.8316   -1.4900 H   0  0  0  0  0  0  0  0  0  0  0  0
    0.9108   -1.9586   -0.2187 H   0  0  0  0  0  0  0  0  0  0  0  0
    2.3589    0.3151    0.4953 H   0  0  0  0  0  0  0  0  0  0  0  0
   -0.5728   -0.9458    1.5505 H   0  0  0  0  0  0  0  0  0  0  0  0
    0.9192    0.5553    2.2909 H   0  0  0  0  0  0  0  0  0  0  0  0
  1  2  1  0  0  0  0
  1  9  1  0  0  0  0
  1 11  1  0  0  0  0
  2  7  1  0  0  0  0
  3 13  1  0  0  0  0
  3  2  1  0  0  0  0
  3 14  1  0  0  0  0
  4  2  1  0  0  0  0
  4  5  1  0  0  0  0
  5  6  1  0  0  0  0
  5  7  1  1  0  0  0
  6 18  1  0  0  0  0
  7  8  1  0  0  0  0
  7 19  1  1  0  0  0
  8 20  1  0  0  0  0
 10  1  1  0  0  0  0
 12  3  1  0  0  0  0
 15  4  1  0  0  0  0
 16  4  1  0  0  0  0
 17  5  1  0  0  0  0
M  END
