20
title
C -1.4677747 1.570409 -0.41036525
C -0.9112112 0.15037462 -0.40914366
C -2.0147943 -0.8735902 -0.693004
C 0.35875428 -0.09543926 -1.2889509
C 1.0033485 -0.8750878 -0.11021848
O 2.3385346 -0.61418724 0.23148994
C -0.077397406 -0.26776472 0.8434779
O 0.43746436 0.8724389 1.5198151
H -0.6967745 2.299405 -0.15267159
H -1.8629934 1.8202288 -1.4016142
H -2.2844212 1.6788887 0.31221533
H -2.464493 -0.6925797 -1.6755066
H -1.634414 -1.9009572 -0.68901587
H -2.810873 -0.8102873 0.057611693
H 0.21962452 -0.63108563 -2.2317855
H 0.904256 0.8315542 -1.4899808
H 0.9108354 -1.9585645 -0.21866941
H 2.3588586 0.3151231 0.49533623
H -0.57279235 -0.94581497 1.5505086
H 0.91919017 0.55531174 2.2908669
