title
 OpenBabel02282109573D

 18 18  0  0  1  0  0  0  0  0999 V2000
   -0.2060    1.7782   -0.4655 C   0  0  0  0  0  0  0  0  0  0  0  0
   -0.7413    0.3541   -0.4137 C   0  0  1  0  0  0  0  0  0  0  0  0
   -2.1549    0.3268   -0.4524 O   0  0  0  0  0  0  0  0  0  0  0  0
   -0.0078   -0.6501   -1.3676 C   0  0  0  0  0  0  0  0  0  0  0  0
    0.8296   -1.1543   -0.1646 C   0  0  1  0  0  0  0  0  0  0  0  0
    2.0597   -0.4621    0.0162 O   0  0  0  0  0  0  0  0  0  0  0  0
   -0.2045   -0.4909    0.7855 C   0  0  1  0  0  0  0  0  0  0  0  0
    0.2781    0.1342    1.9369 O   0  0  0  0  0  0  0  0  0  0  0  0
    0.8858    1.7906   -0.4326 H   0  0  0  0  0  0  0  0  0  0  0  0
   -0.5177    2.2687   -1.3969 H   0  0  0  0  0  0  0  0  0  0  0  0
   -0.5895    2.3543    0.3810 H   0  0  0  0  0  0  0  0  0  0  0  0
   -2.4532    0.9471   -1.1260 H   0  0  0  0  0  0  0  0  0  0  0  0
   -0.6994   -1.4122   -1.7348 H   0  0  0  0  0  0  0  0  0  0  0  0
    0.5560   -0.2301   -2.2055 H   0  0  0  0  0  0  0  0  0  0  0  0
    0.9773   -2.2361   -0.0707 H   0  0  0  0  0  0  0  0  0  0  0  0
    2.6701   -0.7264   -0.6781 H   0  0  0  0  0  0  0  0  0  0  0  0
   -0.9847   -1.2000    1.0774 H   0  0  0  0  0  0  0  0  0  0  0  0
    1.1852    0.4008    1.7400 H   0  0  0  0  0  0  0  0  0  0  0  0
  1  9  1  0  0  0  0
  1  2  1  0  0  0  0
  1 11  1  0  0  0  0
  2  7  1  1  0  0  0
  3  2  1  0  0  0  0
  4  2  1  0  0  0  0
  4  5  1  0  0  0  0
  5 15  1  0  0  0  0
  5  6  1  0  0  0  0
  5  7  1  1  0  0  0
  7 17  1  1  0  0  0
  7  8  1  0  0  0  0
 10  1  1  0  0  0  0
 12  3  1  0  0  0  0
 13  4  1  0  0  0  0
 14  4  1  0  0  0  0
 16  6  1  0  0  0  0
 18  8  1  0  0  0  0
M  END
