title
 OpenBabel02282109573D

 22 22  0  0  1  0  0  0  0  0999 V2000
   -1.5683    1.3206   -0.5169 C   0  0  0  0  0  0  0  0  0  0  0  0
   -0.8170   -0.0022   -0.5209 C   0  0  1  0  0  0  0  0  0  0  0  0
    0.5132   -0.1199   -1.3107 C   0  0  1  0  0  0  0  0  0  0  0  0
    1.1495    1.1467   -1.3858 O   0  0  0  0  0  0  0  0  0  0  0  0
    1.0602   -1.0357   -0.1829 C   0  0  0  0  0  0  0  0  0  0  0  0
   -0.0783   -0.5329    0.7642 C   0  0  0  0  0  0  0  0  0  0  0  0
    0.4071    0.5765    1.7017 C   0  0  0  0  0  0  0  0  0  0  0  0
   -0.8222   -1.6130    1.5450 C   0  0  0  0  0  0  0  0  0  0  0  0
   -0.9152    2.1539   -0.2512 H   0  0  0  0  0  0  0  0  0  0  0  0
   -1.9863    1.5316   -1.5072 H   0  0  0  0  0  0  0  0  0  0  0  0
   -2.4015    1.2939    0.1942 H   0  0  0  0  0  0  0  0  0  0  0  0
   -1.4847   -0.7968   -0.8752 H   0  0  0  0  0  0  0  0  0  0  0  0
    0.4415   -0.5697   -2.3108 H   0  0  0  0  0  0  0  0  0  0  0  0
    2.0536    1.0044   -1.6837 H   0  0  0  0  0  0  0  0  0  0  0  0
    0.9582   -2.0970   -0.4304 H   0  0  0  0  0  0  0  0  0  0  0  0
    2.0905   -0.8448    0.1343 H   0  0  0  0  0  0  0  0  0  0  0  0
    0.9635    1.3424    1.1569 H   0  0  0  0  0  0  0  0  0  0  0  0
   -0.4325    1.0605    2.2135 H   0  0  0  0  0  0  0  0  0  0  0  0
    1.0670    0.1593    2.4719 H   0  0  0  0  0  0  0  0  0  0  0  0
   -0.1840   -2.0522    2.3212 H   0  0  0  0  0  0  0  0  0  0  0  0
   -1.7085   -1.2020    2.0432 H   0  0  0  0  0  0  0  0  0  0  0  0
   -1.1543   -2.4237    0.8871 H   0  0  0  0  0  0  0  0  0  0  0  0
  1  9  1  0  0  0  0
  1 11  1  0  0  0  0
  2  3  1  6  0  0  0
  2  1  1  0  0  0  0
  2  6  1  0  0  0  0
  3 13  1  6  0  0  0
  3  5  1  0  0  0  0
  4  3  1  0  0  0  0
  5 16  1  0  0  0  0
  5  6  1  0  0  0  0
  6  8  1  0  0  0  0
  6  7  1  0  0  0  0
  7 18  1  0  0  0  0
  7 19  1  0  0  0  0
  8 21  1  0  0  0  0
  8 20  1  0  0  0  0
 10  1  1  0  0  0  0
 12  2  1  0  0  0  0
 14  4  1  0  0  0  0
 15  5  1  0  0  0  0
 17  7  1  0  0  0  0
 22  8  1  0  0  0  0
M  END
