title
 OpenBabel02282109573D

 20 20  0  0  1  0  0  0  0  0999 V2000
   -1.5414    1.3494   -0.5527 C   0  0  0  0  0  0  0  0  0  0  0  0
   -0.8168    0.0136   -0.5142 C   0  0  1  0  0  0  0  0  0  0  0  0
    0.4880   -0.1857   -1.3301 C   0  0  1  0  0  0  0  0  0  0  0  0
    1.1756    1.0513   -1.4491 O   0  0  0  0  0  0  0  0  0  0  0  0
    1.0214   -1.0880   -0.1838 C   0  0  0  0  0  0  0  0  0  0  0  0
   -0.0622   -0.4718    0.7606 C   0  0  1  0  0  0  0  0  0  0  0  0
    0.4780    0.6281    1.6668 C   0  0  0  0  0  0  0  0  0  0  0  0
   -0.8554   -1.3919    1.4902 O   0  0  0  0  0  0  0  0  0  0  0  0
   -0.8596    2.1825   -0.3693 H   0  0  0  0  0  0  0  0  0  0  0  0
   -2.0038    1.5109   -1.5323 H   0  0  0  0  0  0  0  0  0  0  0  0
   -2.3376    1.3775    0.1986 H   0  0  0  0  0  0  0  0  0  0  0  0
   -1.5046   -0.7956   -0.7810 H   0  0  0  0  0  0  0  0  0  0  0  0
    0.3761   -0.6583   -2.3142 H   0  0  0  0  0  0  0  0  0  0  0  0
    2.0641    0.8642   -1.7680 H   0  0  0  0  0  0  0  0  0  0  0  0
    0.8141   -2.1459   -0.3640 H   0  0  0  0  0  0  0  0  0  0  0  0
    2.0732   -0.9590    0.0901 H   0  0  0  0  0  0  0  0  0  0  0  0
    1.0660    1.3496    1.0957 H   0  0  0  0  0  0  0  0  0  0  0  0
   -0.3401    1.1535    2.1692 H   0  0  0  0  0  0  0  0  0  0  0  0
    1.1312    0.1954    2.4365 H   0  0  0  0  0  0  0  0  0  0  0  0
   -0.4011   -1.5942    2.3152 H   0  0  0  0  0  0  0  0  0  0  0  0
  1  2  1  0  0  0  0
  1  9  1  0  0  0  0
  1 11  1  0  0  0  0
  2  3  1  6  0  0  0
  3 13  1  6  0  0  0
  3  5  1  0  0  0  0
  4  3  1  0  0  0  0
  5 16  1  0  0  0  0
  5  6  1  0  0  0  0
  6  2  1  6  0  0  0
  6  8  1  0  0  0  0
  6  7  1  0  0  0  0
  7 18  1  0  0  0  0
  7 19  1  0  0  0  0
  8 20  1  0  0  0  0
 10  1  1  0  0  0  0
 12  2  1  0  0  0  0
 14  4  1  0  0  0  0
 15  5  1  0  0  0  0
 17  7  1  0  0  0  0
M  END
