title
 OpenBabel02282109573D

 24 24  0  0  1  0  0  0  0  0999 V2000
   -1.7478    1.0876   -1.2620 C   0  0  0  0  0  0  0  0  0  0  0  0
   -1.1225   -0.2446   -0.8540 C   0  0  1  0  0  0  0  0  0  0  0  0
    0.3361   -0.4716   -1.3493 C   0  0  0  0  0  0  0  0  0  0  0  0
    0.8761   -0.3090    0.1088 C   0  0  0  0  0  0  0  0  0  0  0  0
    1.7752   -1.4428    0.6005 C   0  0  0  0  0  0  0  0  0  0  0  0
    1.5670    1.0388    0.3351 C   0  0  0  0  0  0  0  0  0  0  0  0
   -0.6107   -0.3873    0.6196 C   0  0  1  0  0  0  0  0  0  0  0  0
   -1.1093    0.5624    1.7018 C   0  0  0  0  0  0  0  0  0  0  0  0
   -1.0996    1.9398   -1.0338 H   0  0  0  0  0  0  0  0  0  0  0  0
   -1.9359    1.1031   -2.3415 H   0  0  0  0  0  0  0  0  0  0  0  0
   -2.7052    1.2556   -0.7567 H   0  0  0  0  0  0  0  0  0  0  0  0
   -1.8106   -1.0465   -1.1406 H   0  0  0  0  0  0  0  0  0  0  0  0
    0.5038   -1.4732   -1.7556 H   0  0  0  0  0  0  0  0  0  0  0  0
    0.7085    0.2571   -2.0769 H   0  0  0  0  0  0  0  0  0  0  0  0
    2.7427   -1.4344    0.0842 H   0  0  0  0  0  0  0  0  0  0  0  0
    1.9746   -1.3540    1.6755 H   0  0  0  0  0  0  0  0  0  0  0  0
    1.3136   -2.4209    0.4268 H   0  0  0  0  0  0  0  0  0  0  0  0
    0.9686    1.8801   -0.0256 H   0  0  0  0  0  0  0  0  0  0  0  0
    1.7757    1.2096    1.3973 H   0  0  0  0  0  0  0  0  0  0  0  0
    2.5242    1.0665   -0.1989 H   0  0  0  0  0  0  0  0  0  0  0  0
   -0.8011   -1.4132    0.9560 H   0  0  0  0  0  0  0  0  0  0  0  0
   -0.9706    1.6140    1.4352 H   0  0  0  0  0  0  0  0  0  0  0  0
   -2.1778    0.4092    1.8917 H   0  0  0  0  0  0  0  0  0  0  0  0
   -0.5831    0.3900    2.6476 H   0  0  0  0  0  0  0  0  0  0  0  0
  1  9  1  0  0  0  0
  1  2  1  0  0  0  0
  1 11  1  0  0  0  0
  2  7  1  1  0  0  0
  3  2  1  0  0  0  0
  3  4  1  0  0  0  0
  4  6  1  0  0  0  0
  4  5  1  0  0  0  0
  4  7  1  0  0  0  0
  5 16  1  0  0  0  0
  6 19  1  0  0  0  0
  7 21  1  1  0  0  0
  7  8  1  0  0  0  0
  8 23  1  0  0  0  0
  8 24  1  0  0  0  0
 10  1  1  0  0  0  0
 12  2  1  0  0  0  0
 13  3  1  0  0  0  0
 14  3  1  0  0  0  0
 15  5  1  0  0  0  0
 17  5  1  0  0  0  0
 18  6  1  0  0  0  0
 20  6  1  0  0  0  0
 22  8  1  0  0  0  0
M  END
