22
title
C -1.8985646 0.80072 -1.5616746
C -1.0156844 -0.2275793 -0.8711158
C 0.4985144 -0.2621208 -1.2145518
C 0.82677865 -0.44865158 0.30146885
C 1.0334744 -1.9209373 0.66815716
C 1.9528165 0.41539454 0.85893786
C -0.6328666 0.010678701 0.6269872
O -0.6455189 1.372036 1.0188645
H -1.5076026 1.811829 -1.4119074
H -1.9438529 0.6150822 -2.6401358
H -2.9279737 0.77323276 -1.1828982
H -1.4545757 -1.2250408 -0.9794307
H 0.8400414 -1.0477033 -1.8948132
H 0.8519876 0.70263904 -1.591072
H 1.9805474 -2.2918806 0.26050505
H 1.0617788 -2.0530558 1.755892
H 0.23299383 -2.5580928 0.27655557
H 1.7819386 1.472184 0.64553624
H 2.0421343 0.30366272 1.9453937
H 2.9098258 0.12026681 0.41275692
H -1.1675413 -0.60558075 1.3649924
H -1.5631683 1.6577588 1.0681804
