title
 OpenBabel02282109573D

 22 22  0  0  1  0  0  0  0  0999 V2000
   -2.2888    1.0960   -0.7009 C   0  0  0  0  0  0  0  0  0  0  0  0
   -1.2364    0.0025   -0.5852 C   0  0  1  0  0  0  0  0  0  0  0  0
    0.1246    0.1983   -1.3079 C   0  0  0  0  0  0  0  0  0  0  0  0
    0.8334   -0.4580   -0.0867 C   0  0  1  0  0  0  0  0  0  0  0  0
    1.1479   -1.9379   -0.2854 C   0  0  0  0  0  0  0  0  0  0  0  0
    1.9594    0.2256    0.4362 O   0  0  0  0  0  0  0  0  0  0  0  0
   -0.4565   -0.2085    0.7594 C   0  0  1  0  0  0  0  0  0  0  0  0
   -0.3832    0.9980    1.6910 C   0  0  0  0  0  0  0  0  0  0  0  0
   -1.8930    2.0727   -0.4056 H   0  0  0  0  0  0  0  0  0  0  0  0
   -2.6423    1.1824   -1.7347 H   0  0  0  0  0  0  0  0  0  0  0  0
   -3.1605    0.8845   -0.0714 H   0  0  0  0  0  0  0  0  0  0  0  0
   -1.6819   -0.9499   -0.8929 H   0  0  0  0  0  0  0  0  0  0  0  0
    0.2581   -0.2684   -2.2888 H   0  0  0  0  0  0  0  0  0  0  0  0
    0.3959    1.2560   -1.3765 H   0  0  0  0  0  0  0  0  0  0  0  0
    1.9487   -2.0702   -1.0246 H   0  0  0  0  0  0  0  0  0  0  0  0
    1.4741   -2.3854    0.6588 H   0  0  0  0  0  0  0  0  0  0  0  0
    0.2743   -2.4896   -0.6467 H   0  0  0  0  0  0  0  0  0  0  0  0
    2.7105    0.0465   -0.1394 H   0  0  0  0  0  0  0  0  0  0  0  0
   -0.7810   -1.0834    1.3336 H   0  0  0  0  0  0  0  0  0  0  0  0
   -0.0397    1.8987    1.1753 H   0  0  0  0  0  0  0  0  0  0  0  0
   -1.3648    1.2079    2.1287 H   0  0  0  0  0  0  0  0  0  0  0  0
    0.3203    0.8077    2.5060 H   0  0  0  0  0  0  0  0  0  0  0  0
  1  2  1  0  0  0  0
  1  9  1  0  0  0  0
  1 11  1  0  0  0  0
  2  7  1  1  0  0  0
  3  2  1  0  0  0  0
  3  4  1  0  0  0  0
  4  6  1  0  0  0  0
  4  7  1  1  0  0  0
  5  4  1  0  0  0  0
  5 16  1  0  0  0  0
  7 19  1  1  0  0  0
  7  8  1  0  0  0  0
  8 21  1  0  0  0  0
  8 22  1  0  0  0  0
 10  1  1  0  0  0  0
 12  2  1  0  0  0  0
 13  3  1  0  0  0  0
 14  3  1  0  0  0  0
 15  5  1  0  0  0  0
 17  5  1  0  0  0  0
 18  6  1  0  0  0  0
 20  8  1  0  0  0  0
M  END
