22
title
C -1.8495237 1.0558637 -1.1490445
C -1.1202847 -0.19533454 -0.6911583
O 0.21335196 -0.28176785 -1.2423491
C 0.8311862 -0.3546926 0.07583983
C 1.5573335 -1.6841987 0.25197378
C 1.7772245 0.8234123 0.28056306
C -0.5720267 -0.2865043 0.7600665
C -0.8861007 0.8176968 1.7608901
H -1.303842 1.9645714 -0.8812284
H -1.9582496 1.0379579 -2.23813
H -2.851645 1.1066082 -0.7088369
H -1.7097582 -1.0773435 -0.97965413
H 2.3993807 -1.7559371 -0.44430345
H 1.9472544 -1.7837688 1.2713411
H 0.8824934 -2.5226212 0.05689196
H 1.2728932 1.7774503 0.11179142
H 2.1970398 0.8245246 1.2922816
H 2.6064467 0.7540396 -0.43101043
H -0.8241754 -1.2492017 1.2148705
H -0.66090053 1.8161311 1.3780624
H -1.9472291 0.79997677 2.0322766
H -0.31184494 0.6797869 2.6833858
