title
 OpenBabel02282109573D

 22 22  0  0  1  0  0  0  0  0999 V2000
   -1.8495    1.0559   -1.1490 C   0  0  0  0  0  0  0  0  0  0  0  0
   -1.1203   -0.1953   -0.6912 C   0  0  1  0  0  0  0  0  0  0  0  0
    0.2134   -0.2818   -1.2423 O   0  0  0  0  0  0  0  0  0  0  0  0
    0.8312   -0.3547    0.0758 C   0  0  0  0  0  0  0  0  0  0  0  0
    1.5573   -1.6842    0.2520 C   0  0  0  0  0  0  0  0  0  0  0  0
    1.7772    0.8234    0.2806 C   0  0  0  0  0  0  0  0  0  0  0  0
   -0.5720   -0.2865    0.7601 C   0  0  1  0  0  0  0  0  0  0  0  0
   -0.8861    0.8177    1.7609 C   0  0  0  0  0  0  0  0  0  0  0  0
   -1.3038    1.9646   -0.8812 H   0  0  0  0  0  0  0  0  0  0  0  0
   -1.9582    1.0380   -2.2381 H   0  0  0  0  0  0  0  0  0  0  0  0
   -2.8516    1.1066   -0.7088 H   0  0  0  0  0  0  0  0  0  0  0  0
   -1.7098   -1.0773   -0.9797 H   0  0  0  0  0  0  0  0  0  0  0  0
    2.3994   -1.7559   -0.4443 H   0  0  0  0  0  0  0  0  0  0  0  0
    1.9473   -1.7838    1.2713 H   0  0  0  0  0  0  0  0  0  0  0  0
    0.8825   -2.5226    0.0569 H   0  0  0  0  0  0  0  0  0  0  0  0
    1.2729    1.7775    0.1118 H   0  0  0  0  0  0  0  0  0  0  0  0
    2.1970    0.8245    1.2923 H   0  0  0  0  0  0  0  0  0  0  0  0
    2.6064    0.7540   -0.4310 H   0  0  0  0  0  0  0  0  0  0  0  0
   -0.8242   -1.2492    1.2149 H   0  0  0  0  0  0  0  0  0  0  0  0
   -0.6609    1.8161    1.3781 H   0  0  0  0  0  0  0  0  0  0  0  0
   -1.9472    0.8000    2.0323 H   0  0  0  0  0  0  0  0  0  0  0  0
   -0.3118    0.6798    2.6834 H   0  0  0  0  0  0  0  0  0  0  0  0
  1  9  1  0  0  0  0
  1 11  1  0  0  0  0
  1  2  1  0  0  0  0
  2  7  1  1  0  0  0
  3  2  1  0  0  0  0
  3  4  1  0  0  0  0
  4  5  1  0  0  0  0
  4  6  1  0  0  0  0
  4  7  1  0  0  0  0
  5 14  1  0  0  0  0
  6 17  1  0  0  0  0
  7 19  1  1  0  0  0
  7  8  1  0  0  0  0
  8 21  1  0  0  0  0
  8 22  1  0  0  0  0
 10  1  1  0  0  0  0
 12  2  1  0  0  0  0
 13  5  1  0  0  0  0
 15  5  1  0  0  0  0
 16  6  1  0  0  0  0
 18  6  1  0  0  0  0
 20  8  1  0  0  0  0
M  END
