20
title
C -1.5971591 1.1697845 -1.4098305
C -1.0266473 -0.11252968 -0.8380907
O 0.35997957 -0.3156625 -1.1899539
C 0.76292425 -0.4711289 0.20535651
C 1.203822 -1.9061489 0.47266918
C 1.8357846 0.5406139 0.57601285
C -0.68272114 -0.15315385 0.67643625
O -0.7680442 1.0599416 1.3893203
H -1.0717785 2.0418296 -1.0143989
H -1.4990567 1.1631143 -2.4996054
H -2.6627104 1.2621381 -1.1685375
H -1.6329174 -0.9728908 -1.1582226
H 2.1055694 -2.1376874 -0.102812916
H 1.4258934 -2.0534503 1.535175
H 0.42413265 -2.6161878 0.18045092
H 1.4873832 1.5603244 0.40902436
H 2.1191275 0.44154403 1.6284087
H 2.7235878 0.36547664 -0.04014678
H -1.1626884 -0.9693845 1.2312398
H -1.6899412 1.2140757 1.6176668
