title
 OpenBabel02282109573D

 18 18  0  0  1  0  0  0  0  0999 V2000
   -1.4584    2.0526    0.1445 C   0  0  0  0  0  0  0  0  0  0  0  0
   -0.9494    0.6209    0.0586 C   0  0  0  0  0  0  0  0  0  0  0  0
   -2.0133   -0.3989    0.4407 C   0  0  0  0  0  0  0  0  0  0  0  0
   -0.1290    0.2762   -1.2117 C   0  0  0  0  0  0  0  0  0  0  0  0
    1.0666    0.1062   -0.2394 C   0  0  1  0  0  0  0  0  0  0  0  0
    0.2395    0.4526    0.8965 O   0  0  0  0  0  0  0  0  0  0  0  0
    1.6577   -1.2202   -0.1451 C   0  0  0  0  0  0  0  0  0  0  0  0
    2.1459   -2.3170   -0.0802 C   0  0  0  0  0  0  0  0  0  0  0  0
   -0.6689    2.7629   -0.1174 H   0  0  0  0  0  0  0  0  0  0  0  0
   -2.3032    2.2061   -0.5359 H   0  0  0  0  0  0  0  0  0  0  0  0
   -1.7939    2.2755    1.1624 H   0  0  0  0  0  0  0  0  0  0  0  0
   -2.8695   -0.3402   -0.2404 H   0  0  0  0  0  0  0  0  0  0  0  0
   -1.6050   -1.4123    0.4029 H   0  0  0  0  0  0  0  0  0  0  0  0
   -2.3708   -0.2117    1.4584 H   0  0  0  0  0  0  0  0  0  0  0  0
   -0.4302   -0.6335   -1.7312 H   0  0  0  0  0  0  0  0  0  0  0  0
   -0.0165    1.0906   -1.9289 H   0  0  0  0  0  0  0  0  0  0  0  0
    1.8618    0.8501   -0.3781 H   0  0  0  0  0  0  0  0  0  0  0  0
    2.5803   -3.2840   -0.0157 H   0  0  0  0  0  0  0  0  0  0  0  0
  1 11  1  0  0  0  0
  2  1  1  0  0  0  0
  2  3  1  0  0  0  0
  2  6  1  0  0  0  0
  3 14  1  0  0  0  0
  4  5  1  0  0  0  0
  4  2  1  0  0  0  0
  5 17  1  6  0  0  0
  5  7  1  0  0  0  0
  5  6  1  0  0  0  0
  7  8  3  0  0  0  0
  8 18  1  0  0  0  0
  9  1  1  0  0  0  0
 10  1  1  0  0  0  0
 12  3  1  0  0  0  0
 13  3  1  0  0  0  0
 15  4  1  0  0  0  0
 16  4  1  0  0  0  0
M  END
