17
title
C -1.4419998 2.0837226 0.12513068
C -0.93960327 0.65141225 0.045504052
C -2.001811 -0.36697754 0.4310934
C -0.11106668 0.2960876 -1.2193451
C 1.0657914 0.10586125 -0.23198499
O 0.25530294 0.4855861 0.88856065
C 1.5922027 -1.2598051 -0.11669537
N 2.0036519 -2.3372445 -0.041379776
H -0.6493565 2.7909536 -0.13460635
H -2.2825181 2.2357554 -0.5604456
H -1.7832799 2.30955 1.140161
H -2.856777 -0.30762574 -0.25102368
H -1.5988985 -1.3827896 0.3965557
H -2.3592377 -0.17500928 1.4474908
H -0.42365298 -0.6013984 -1.7525762
H 0.031737942 1.1146747 -1.9253497
H 1.9103725 0.7903579 -0.37437093
