title
 OpenBabel02282109573D

 18 18  0  0  1  0  0  0  0  0999 V2000
   -1.3766    2.1639   -0.0552 C   0  0  0  0  0  0  0  0  0  0  0  0
   -0.9319    0.7095   -0.0461 C   0  0  0  0  0  0  0  0  0  0  0  0
   -2.1012   -0.2579    0.0625 C   0  0  0  0  0  0  0  0  0  0  0  0
    0.1512    0.3345   -1.0950 C   0  0  0  0  0  0  0  0  0  0  0  0
    1.0557    0.0959    0.1222 C   0  0  1  0  0  0  0  0  0  0  0  0
    0.0233    0.4816    1.0495 O   0  0  0  0  0  0  0  0  0  0  0  0
    1.4959   -1.3316    0.3848 C   0  0  0  0  0  0  0  0  0  0  0  0
    1.7471   -2.1370   -0.4739 O   0  0  0  0  0  0  0  0  0  0  0  0
   -0.5135    2.8339   -0.1021 H   0  0  0  0  0  0  0  0  0  0  0  0
   -2.0197    2.3656   -0.9187 H   0  0  0  0  0  0  0  0  0  0  0  0
   -1.9404    2.3958    0.8540 H   0  0  0  0  0  0  0  0  0  0  0  0
   -2.7787   -0.1401   -0.7901 H   0  0  0  0  0  0  0  0  0  0  0  0
   -1.7504   -1.2937    0.0821 H   0  0  0  0  0  0  0  0  0  0  0  0
   -2.6677   -0.0703    0.9801 H   0  0  0  0  0  0  0  0  0  0  0  0
   -0.0447   -0.5597   -1.6884 H   0  0  0  0  0  0  0  0  0  0  0  0
    0.4590    1.1494   -1.7510 H   0  0  0  0  0  0  0  0  0  0  0  0
    1.9404    0.7470    0.2001 H   0  0  0  0  0  0  0  0  0  0  0  0
    1.5551   -1.5807    1.4684 H   0  0  0  0  0  0  0  0  0  0  0  0
  1  2  1  0  0  0  0
  1 11  1  0  0  0  0
  2  3  1  0  0  0  0
  2  6  1  0  0  0  0
  3 13  1  0  0  0  0
  3 14  1  0  0  0  0
  4  2  1  0  0  0  0
  4  5  1  0  0  0  0
  5 17  1  1  0  0  0
  5  7  1  0  0  0  0
  5  6  1  0  0  0  0
  7 18  1  0  0  0  0
  8  7  2  0  0  0  0
  9  1  1  0  0  0  0
 10  1  1  0  0  0  0
 12  3  1  0  0  0  0
 15  4  1  0  0  0  0
 16  4  1  0  0  0  0
M  END
