title
 OpenBabel02282109573D

 19 19  0  0  0  0  0  0  0  0999 V2000
   -1.5356    1.9116   -0.4253 C   0  0  0  0  0  0  0  0  0  0  0  0
   -1.1685    0.4317   -0.3660 C   0  0  0  0  0  0  0  0  0  0  0  0
   -2.3804   -0.4648   -0.6027 C   0  0  0  0  0  0  0  0  0  0  0  0
    0.0809    0.0519   -1.2371 C   0  0  0  0  0  0  0  0  0  0  0  0
    0.7858   -0.2891   -0.0026 N   0  0  0  0  0  0  0  0  0  0  0  0
   -0.3202    0.0368    0.8921 C   0  0  0  0  0  0  0  0  0  0  0  0
    2.0332   -0.7215    0.2744 C   0  0  0  0  0  0  0  0  0  0  0  0
    2.4553   -0.9378    1.3929 O   0  0  0  0  0  0  0  0  0  0  0  0
   -0.6603    2.5469   -0.2553 H   0  0  0  0  0  0  0  0  0  0  0  0
   -1.9573    2.1732   -1.4023 H   0  0  0  0  0  0  0  0  0  0  0  0
   -2.2824    2.1589    0.3372 H   0  0  0  0  0  0  0  0  0  0  0  0
   -2.8263   -0.2717   -1.5849 H   0  0  0  0  0  0  0  0  0  0  0  0
   -2.1072   -1.5242   -0.5596 H   0  0  0  0  0  0  0  0  0  0  0  0
   -3.1518   -0.2863    0.1545 H   0  0  0  0  0  0  0  0  0  0  0  0
   -0.0708   -0.7940   -1.9179 H   0  0  0  0  0  0  0  0  0  0  0  0
    0.5265    0.8833   -1.7963 H   0  0  0  0  0  0  0  0  0  0  0  0
   -0.0971    0.8528    1.5881 H   0  0  0  0  0  0  0  0  0  0  0  0
   -0.6922   -0.8209    1.4630 H   0  0  0  0  0  0  0  0  0  0  0  0
    2.6370   -0.8596   -0.6472 H   0  0  0  0  0  0  0  0  0  0  0  0
  1  2  1  0  0  0  0
  1  9  1  0  0  0  0
  1 11  1  0  0  0  0
  2  6  1  0  0  0  0
  3 13  1  0  0  0  0
  3  2  1  0  0  0  0
  3 14  1  0  0  0  0
  4  2  1  0  0  0  0
  4  5  1  0  0  0  0
  5  7  1  0  0  0  0
  5  6  1  0  0  0  0
  6 18  1  0  0  0  0
  6 17  1  0  0  0  0
  7  8  2  0  0  0  0
 10  1  1  0  0  0  0
 12  3  1  0  0  0  0
 15  4  1  0  0  0  0
 16  4  1  0  0  0  0
 19  7  1  0  0  0  0
M  END
