19
title
C -1.5355564 1.9115977 -0.42532212
C -1.1684802 0.4316658 -0.36602685
C -2.3804007 -0.46484685 -0.60272634
C 0.08094484 0.051939487 -1.237122
N 0.78579754 -0.28905362 -0.0025525847
C -0.32020193 0.036808655 0.89212716
C 2.0331953 -0.7215406 0.27437735
O 2.4553409 -0.9377544 1.3929454
H -0.6602624 2.5469084 -0.25526437
H -1.957293 2.1731973 -1.4022915
H -2.2824244 2.1588712 0.33718544
H -2.8263397 -0.27165604 -1.5848691
H -2.107223 -1.524208 -0.5595838
H -3.1517794 -0.28634936 0.15454449
H -0.07083433 -0.79401374 -1.9179329
H 0.5264657 0.8832689 -1.7962579
H -0.097116046 0.85278654 1.5880829
H -0.6922272 -0.820909 1.4629862
H 2.6370084 -0.8596481 -0.647189
