title
 OpenBabel02282109573D

 17 17  0  0  0  0  0  0  0  0999 V2000
   -0.4516    2.3847   -0.2222 C   0  0  0  0  0  0  0  0  0  0  0  0
   -0.8241    0.9124   -0.3075 C   0  0  0  0  0  0  0  0  0  0  0  0
   -2.2054    0.7239   -0.5096 O   0  0  0  0  0  0  0  0  0  0  0  0
    0.1084    0.0548   -1.2410 C   0  0  0  0  0  0  0  0  0  0  0  0
    0.6043   -0.6114   -0.0381 N   0  0  0  0  0  0  0  0  0  0  0  0
   -0.3300    0.0347    0.8800 C   0  0  0  0  0  0  0  0  0  0  0  0
    1.5326   -1.5645    0.1884 C   0  0  0  0  0  0  0  0  0  0  0  0
    1.7802   -2.0401    1.2781 O   0  0  0  0  0  0  0  0  0  0  0  0
    0.6149    2.5113   -0.0141 H   0  0  0  0  0  0  0  0  0  0  0  0
   -0.6686    2.8961   -1.1684 H   0  0  0  0  0  0  0  0  0  0  0  0
   -1.0218    2.8734    0.5736 H   0  0  0  0  0  0  0  0  0  0  0  0
   -2.4985    1.3254   -1.2026 H   0  0  0  0  0  0  0  0  0  0  0  0
   -0.4603   -0.5993   -1.9114 H   0  0  0  0  0  0  0  0  0  0  0  0
    0.8671    0.6037   -1.8101 H   0  0  0  0  0  0  0  0  0  0  0  0
    0.1450    0.5614    1.7130 H   0  0  0  0  0  0  0  0  0  0  0  0
   -1.1046   -0.6366    1.2634 H   0  0  0  0  0  0  0  0  0  0  0  0
    2.0573   -1.8596   -0.7444 H   0  0  0  0  0  0  0  0  0  0  0  0
  1  9  1  0  0  0  0
  1 11  1  0  0  0  0
  2  1  1  0  0  0  0
  2  6  1  0  0  0  0
  3  2  1  0  0  0  0
  4  2  1  0  0  0  0
  4  5  1  0  0  0  0
  5  7  1  0  0  0  0
  5  6  1  0  0  0  0
  6 16  1  0  0  0  0
  6 15  1  0  0  0  0
  7  8  2  0  0  0  0
 10  1  1  0  0  0  0
 12  3  1  0  0  0  0
 13  4  1  0  0  0  0
 14  4  1  0  0  0  0
 17  7  1  0  0  0  0
M  END
