title
 OpenBabel02282109573D

 22 22  0  0  0  0  0  0  0  0999 V2000
   -0.9023    2.4398   -0.2429 C   0  0  0  0  0  0  0  0  0  0  0  0
   -0.9621    0.9171   -0.3073 C   0  0  0  0  0  0  0  0  0  0  0  0
   -2.3886    0.4399   -0.5918 C   0  0  0  0  0  0  0  0  0  0  0  0
    0.0821    0.2264   -1.2457 C   0  0  0  0  0  0  0  0  0  0  0  0
    0.3950   -0.7939   -0.1186 C   0  0  0  0  0  0  0  0  0  0  0  0
    1.8463   -1.1464    0.1287 C   0  0  0  0  0  0  0  0  0  0  0  0
    1.9075   -1.9807    1.2774 O   0  0  0  0  0  0  0  0  0  0  0  0
   -0.3150    0.1479    0.8900 C   0  0  0  0  0  0  0  0  0  0  0  0
    0.1154    2.7901   -0.0397 H   0  0  0  0  0  0  0  0  0  0  0  0
   -1.2286    2.8905   -1.1881 H   0  0  0  0  0  0  0  0  0  0  0  0
   -1.5530    2.8279    0.5501 H   0  0  0  0  0  0  0  0  0  0  0  0
   -2.7527    0.8365   -1.5469 H   0  0  0  0  0  0  0  0  0  0  0  0
   -2.4473   -0.6525   -0.6414 H   0  0  0  0  0  0  0  0  0  0  0  0
   -3.0767    0.7735    0.1936 H   0  0  0  0  0  0  0  0  0  0  0  0
   -0.2871   -0.1679   -2.1968 H   0  0  0  0  0  0  0  0  0  0  0  0
    0.9371    0.8801   -1.4516 H   0  0  0  0  0  0  0  0  0  0  0  0
   -0.1685   -1.7225   -0.2522 H   0  0  0  0  0  0  0  0  0  0  0  0
    2.2625   -1.6544   -0.7578 H   0  0  0  0  0  0  0  0  0  0  0  0
    2.4291   -0.2214    0.2776 H   0  0  0  0  0  0  0  0  0  0  0  0
    2.8306   -2.1833    1.4544 H   0  0  0  0  0  0  0  0  0  0  0  0
    0.4038    0.7686    1.4352 H   0  0  0  0  0  0  0  0  0  0  0  0
   -0.9944   -0.3091    1.6140 H   0  0  0  0  0  0  0  0  0  0  0  0
  1  9  1  0  0  0  0
  1 11  1  0  0  0  0
  2  1  1  0  0  0  0
  2  8  1  0  0  0  0
  3  2  1  0  0  0  0
  3 14  1  0  0  0  0
  4  2  1  0  0  0  0
  4  5  1  0  0  0  0
  5  6  1  0  0  0  0
  5  8  1  0  0  0  0
  6 19  1  0  0  0  0
  6  7  1  0  0  0  0
  7 20  1  0  0  0  0
  8 21  1  0  0  0  0
  8 22  1  0  0  0  0
 10  1  1  0  0  0  0
 12  3  1  0  0  0  0
 13  3  1  0  0  0  0
 15  4  1  0  0  0  0
 16  4  1  0  0  0  0
 17  5  1  0  0  0  0
 18  6  1  0  0  0  0
M  END
