22
title
C -0.90230495 2.4397752 -0.24287157
C -0.9621347 0.9170953 -0.30727902
C -2.3886054 0.439943 -0.5918135
C 0.082110316 0.22639373 -1.2456801
C 0.39503542 -0.7939359 -0.1186121
C 1.8463223 -1.1463672 0.12869224
O 1.9074574 -1.9807283 1.2773701
C -0.31499538 0.14794233 0.89004654
H 0.115370184 2.7901042 -0.03974738
H -1.228601 2.8904982 -1.188079
H -1.5529515 2.8279214 0.5500584
H -2.7526674 0.8365017 -1.5468744
H -2.4472873 -0.65252936 -0.64136267
H -3.076678 0.77348983 0.19364369
H -0.28705522 -0.16793099 -2.196837
H 0.9370868 0.8801381 -1.4515893
H -0.168475 -1.7225326 -0.25216472
H 2.2625072 -1.6544114 -0.7578384
H 2.4291387 -0.22138229 0.27759176
H 2.8305943 -2.1833284 1.4543993
H 0.40383688 0.76864153 1.4351763
H -0.9944362 -0.30905488 1.6139513
