title
 OpenBabel02282109573D

 22 22  0  0  1  0  0  0  0  0999 V2000
    1.9220    2.6006    0.3929 C   0  0  0  0  0  0  0  0  0  0  0  0
    1.8583    1.0904    0.6429 C   0  0  0  0  0  0  0  0  0  0  0  0
    0.4373    0.5405    0.6387 C   0  0  1  0  0  0  0  0  0  0  0  0
   -0.3461    0.5098   -0.7065 C   0  0  0  0  0  0  0  0  0  0  0  0
   -0.8861   -0.8933   -0.3378 C   0  0  1  0  0  0  0  0  0  0  0  0
   -2.2960   -0.8831    0.2447 C   0  0  0  0  0  0  0  0  0  0  0  0
   -0.7970   -1.7872   -1.4336 O   0  0  0  0  0  0  0  0  0  0  0  0
    0.2362   -0.9976    0.7422 C   0  0  0  0  0  0  0  0  0  0  0  0
    2.9548    2.9627    0.3948 H   0  0  0  0  0  0  0  0  0  0  0  0
    1.4802    2.8602   -0.5753 H   0  0  0  0  0  0  0  0  0  0  0  0
    1.3739    3.1529    1.1645 H   0  0  0  0  0  0  0  0  0  0  0  0
    2.4460    0.5655   -0.1223 H   0  0  0  0  0  0  0  0  0  0  0  0
    2.3327    0.8563    1.6055 H   0  0  0  0  0  0  0  0  0  0  0  0
   -0.1520    1.0538    1.4081 H   0  0  0  0  0  0  0  0  0  0  0  0
   -1.0800    1.2955   -0.9036 H   0  0  0  0  0  0  0  0  0  0  0  0
    0.3311    0.4294   -1.5619 H   0  0  0  0  0  0  0  0  0  0  0  0
   -3.0256   -0.6291   -0.5307 H   0  0  0  0  0  0  0  0  0  0  0  0
   -2.5543   -1.8688    0.6531 H   0  0  0  0  0  0  0  0  0  0  0  0
   -2.3887   -0.1575    1.0590 H   0  0  0  0  0  0  0  0  0  0  0  0
   -1.1628   -2.6355   -1.1595 H   0  0  0  0  0  0  0  0  0  0  0  0
    1.0945   -1.5408    0.3355 H   0  0  0  0  0  0  0  0  0  0  0  0
   -0.0288   -1.4180    1.7170 H   0  0  0  0  0  0  0  0  0  0  0  0
  1  9  1  0  0  0  0
  1  2  1  0  0  0  0
  1 11  1  0  0  0  0
  2 13  1  0  0  0  0
  3  2  1  0  0  0  0
  3  8  1  0  0  0  0
  3 14  1  1  0  0  0
  4  5  1  0  0  0  0
  4  3  1  0  0  0  0
  5  7  1  6  0  0  0
  5  6  1  0  0  0  0
  5  8  1  0  0  0  0
  6 18  1  0  0  0  0
  6 19  1  0  0  0  0
  7 20  1  0  0  0  0
  8 22  1  0  0  0  0
 10  1  1  0  0  0  0
 12  2  1  0  0  0  0
 15  4  1  0  0  0  0
 16  4  1  0  0  0  0
 17  6  1  0  0  0  0
 21  8  1  0  0  0  0
M  END
