22
title
C 1.9219776 2.6005797 0.39287782
C 1.858271 1.0904297 0.6428868
C 0.43731213 0.5404763 0.6387041
C -0.3460672 0.50980324 -0.70646244
C -0.8861277 -0.89333725 -0.33777168
C -2.2960074 -0.8831347 0.24472997
O -0.7969816 -1.7872298 -1.4335775
C 0.23619916 -0.997638 0.7421905
H 2.9547994 2.9627202 0.39483845
H 1.4802073 2.8602202 -0.5753123
H 1.3738753 3.1529334 1.1645441
H 2.4459763 0.5655335 -0.122331284
H 2.3327217 0.856329 1.6054912
H -0.15198873 1.0537509 1.4081309
H -1.0799849 1.2955143 -0.90363055
H 0.331146 0.42943174 -1.5619332
H -3.0256054 -0.6291275 -0.530703
H -2.5543416 -1.8688242 0.6531212
H -2.3887136 -0.15750062 1.0590236
H -1.1627986 -2.635459 -1.1594734
H 1.0945256 -1.5408156 0.33554617
H -0.028751 -1.4180212 1.7169698
