title
 OpenBabel02282109573D

 20 20  0  0  1  0  0  0  0  0999 V2000
    0.5418    2.6206   -0.1408 C   0  0  0  0  0  0  0  0  0  0  0  0
    0.6945    1.1372   -0.4306 C   0  0  0  0  0  0  0  0  0  0  0  0
    1.7774    0.6521   -0.6943 O   0  0  0  0  0  0  0  0  0  0  0  0
   -0.5589    0.3329   -0.3701 C   0  0  1  0  0  0  0  0  0  0  0  0
   -0.6162   -1.0004   -1.0995 C   0  0  0  0  0  0  0  0  0  0  0  0
   -0.6250   -1.0089    0.3935 C   0  0  0  0  0  0  0  0  0  0  0  0
    0.5924   -1.5170    1.1404 C   0  0  0  0  0  0  0  0  0  0  0  0
   -1.9439   -1.2895    1.0908 C   0  0  0  0  0  0  0  0  0  0  0  0
    1.5158    3.1095   -0.1794 H   0  0  0  0  0  0  0  0  0  0  0  0
   -0.1304    3.0813   -0.8740 H   0  0  0  0  0  0  0  0  0  0  0  0
    0.0869    2.7724    0.8448 H   0  0  0  0  0  0  0  0  0  0  0  0
   -1.4728    0.9174   -0.3320 H   0  0  0  0  0  0  0  0  0  0  0  0
   -1.5297   -1.2363   -1.6354 H   0  0  0  0  0  0  0  0  0  0  0  0
    0.3044   -1.2815   -1.6001 H   0  0  0  0  0  0  0  0  0  0  0  0
    1.5179   -1.2556    0.6268 H   0  0  0  0  0  0  0  0  0  0  0  0
    0.6317   -1.1028    2.1548 H   0  0  0  0  0  0  0  0  0  0  0  0
    0.5412   -2.6081    1.2333 H   0  0  0  0  0  0  0  0  0  0  0  0
   -2.0823   -2.3685    1.2275 H   0  0  0  0  0  0  0  0  0  0  0  0
   -1.9742   -0.8245    2.0828 H   0  0  0  0  0  0  0  0  0  0  0  0
   -2.7956   -0.9142    0.5151 H   0  0  0  0  0  0  0  0  0  0  0  0
  1 11  1  0  0  0  0
  2  4  1  0  0  0  0
  2  1  1  0  0  0  0
  3  2  2  0  0  0  0
  4 12  1  6  0  0  0
  4  6  1  0  0  0  0
  5  4  1  0  0  0  0
  5  6  1  0  0  0  0
  6  8  1  0  0  0  0
  6  7  1  0  0  0  0
  7 17  1  0  0  0  0
  7 16  1  0  0  0  0
  8 18  1  0  0  0  0
  8 19  1  0  0  0  0
  9  1  1  0  0  0  0
 10  1  1  0  0  0  0
 13  5  1  0  0  0  0
 14  5  1  0  0  0  0
 15  7  1  0  0  0  0
 20  8  1  0  0  0  0
M  END
