title
 OpenBabel02282109573D

 18 18  0  0  1  0  0  0  0  0999 V2000
    0.1263    2.6184    0.6135 C   0  0  0  0  0  0  0  0  0  0  0  0
    0.4359    1.1376    0.7284 C   0  0  0  0  0  0  0  0  0  0  0  0
    0.7231    0.6267    1.7929 O   0  0  0  0  0  0  0  0  0  0  0  0
    0.3641    0.3576   -0.5409 C   0  0  1  0  0  0  0  0  0  0  0  0
    1.1170   -0.9669   -0.6419 C   0  0  0  0  0  0  0  0  0  0  0  0
   -0.3760   -0.9778   -0.6109 C   0  0  1  0  0  0  0  0  0  0  0  0
   -1.1361   -1.5385    0.5665 C   0  0  0  0  0  0  0  0  0  0  0  0
   -1.0320   -1.1203   -1.8462 O   0  0  0  0  0  0  0  0  0  0  0  0
    0.8422    3.1019   -0.0614 H   0  0  0  0  0  0  0  0  0  0  0  0
   -0.8681    2.7651    0.1766 H   0  0  0  0  0  0  0  0  0  0  0  0
    0.1743    3.0872    1.5968 H   0  0  0  0  0  0  0  0  0  0  0  0
    0.2764    0.9367   -1.4531 H   0  0  0  0  0  0  0  0  0  0  0  0
    1.6071   -1.1783   -1.5851 H   0  0  0  0  0  0  0  0  0  0  0  0
    1.6470   -1.2589    0.2585 H   0  0  0  0  0  0  0  0  0  0  0  0
   -0.6278   -1.3152    1.5051 H   0  0  0  0  0  0  0  0  0  0  0  0
   -2.1481   -1.1228    0.5991 H   0  0  0  0  0  0  0  0  0  0  0  0
   -1.2218   -2.6281    0.4704 H   0  0  0  0  0  0  0  0  0  0  0  0
   -1.1069   -2.0642   -2.0279 H   0  0  0  0  0  0  0  0  0  0  0  0
  1  2  1  0  0  0  0
  1 11  1  0  0  0  0
  2  3  2  0  0  0  0
  4  6  1  1  0  0  0
  4  2  1  0  0  0  0
  5  6  1  0  0  0  0
  5  4  1  0  0  0  0
  5 14  1  0  0  0  0
  6  8  1  6  0  0  0
  6  7  1  0  0  0  0
  7 16  1  0  0  0  0
  7 15  1  0  0  0  0
  9  1  1  0  0  0  0
 10  1  1  0  0  0  0
 12  4  1  0  0  0  0
 13  5  1  0  0  0  0
 17  7  1  0  0  0  0
 18  8  1  0  0  0  0
M  END
