18
title
C 1.5196575 1.7865467 1.2988359
C 0.65458864 0.54946786 1.1406125
O -0.0070622386 0.097857766 2.046621
C 0.6763342 -0.065838106 -0.23520589
O 0.22110654 -1.4073422 -0.37606895
C -0.56779504 -0.39336857 -0.99574804
C -1.939001 -0.17874227 -0.39666092
C -0.4989954 -0.36934128 -2.5088587
H 2.5783033 1.5186609 1.1998249
H 1.3023452 2.5168402 0.51082253
H 1.3485734 2.2328107 2.2787073
H 1.5605892 0.1799574 -0.8266134
H -1.9014875 -0.23058991 0.69095737
H -2.3466704 0.7907855 -0.7023734
H -2.620189 -0.9551563 -0.7615839
H -1.1652222 -1.132198 -2.9262447
H -0.8197839 0.6026201 -2.897922
H 0.5156709 -0.5722098 -2.8594153
