18
title
C -1.3401408 2.0237253 -0.643954
C -0.9605061 0.5674305 -0.46571425
C -1.9169374 -0.24648108 0.384233
C -0.20657384 -0.13568409 -1.5620298
N 0.4708135 0.32192317 -0.3555339
C 1.046765 -0.51737523 0.604992
N 1.9663616 -1.4019736 0.0758428
O 0.7895708 -0.45261946 1.7893909
H -0.59402925 2.5509825 -1.2434076
H -2.313563 2.111186 -1.1384342
H -1.4090645 2.5220973 0.32867634
H -2.9308 -0.1696573 -0.0224196
H -1.6363964 -1.3018934 0.41361004
H -1.924152 0.12116463 1.4134966
H -0.36455 -1.2059723 -1.676614
H 0.04984737 0.39121956 -2.4786062
H 2.3738945 -1.182161 -0.8192943
H 2.5940669 -1.8015151 0.7560809
