title
 OpenBabel02282109573D

 18 18  0  0  0  0  0  0  0  0999 V2000
   -1.3401    2.0237   -0.6440 C   0  0  0  0  0  0  0  0  0  0  0  0
   -0.9605    0.5674   -0.4657 C   0  0  0  0  0  0  0  0  0  0  0  0
   -1.9169   -0.2465    0.3842 C   0  0  0  0  0  0  0  0  0  0  0  0
   -0.2066   -0.1357   -1.5620 C   0  0  0  0  0  0  0  0  0  0  0  0
    0.4708    0.3219   -0.3555 N   0  0  0  0  0  0  0  0  0  0  0  0
    1.0468   -0.5174    0.6050 C   0  0  0  0  0  0  0  0  0  0  0  0
    1.9664   -1.4020    0.0758 N   0  0  0  0  0  0  0  0  0  0  0  0
    0.7896   -0.4526    1.7894 O   0  0  0  0  0  0  0  0  0  0  0  0
   -0.5940    2.5510   -1.2434 H   0  0  0  0  0  0  0  0  0  0  0  0
   -2.3136    2.1112   -1.1384 H   0  0  0  0  0  0  0  0  0  0  0  0
   -1.4091    2.5221    0.3287 H   0  0  0  0  0  0  0  0  0  0  0  0
   -2.9308   -0.1697   -0.0224 H   0  0  0  0  0  0  0  0  0  0  0  0
   -1.6364   -1.3019    0.4136 H   0  0  0  0  0  0  0  0  0  0  0  0
   -1.9242    0.1212    1.4135 H   0  0  0  0  0  0  0  0  0  0  0  0
   -0.3645   -1.2060   -1.6766 H   0  0  0  0  0  0  0  0  0  0  0  0
    0.0498    0.3912   -2.4786 H   0  0  0  0  0  0  0  0  0  0  0  0
    2.3739   -1.1822   -0.8193 H   0  0  0  0  0  0  0  0  0  0  0  0
    2.5941   -1.8015    0.7561 H   0  0  0  0  0  0  0  0  0  0  0  0
  1  2  1  0  0  0  0
  1 11  1  0  0  0  0
  2  5  1  0  0  0  0
  2  3  1  0  0  0  0
  3 13  1  0  0  0  0
  3 14  1  0  0  0  0
  4  2  1  0  0  0  0
  4  5  1  0  0  0  0
  5  6  1  0  0  0  0
  6  8  2  0  0  0  0
  7  6  1  0  0  0  0
  7 18  1  0  0  0  0
  9  1  1  0  0  0  0
 10  1  1  0  0  0  0
 12  3  1  0  0  0  0
 15  4  1  0  0  0  0
 16  4  1  0  0  0  0
 17  7  1  0  0  0  0
M  END
