title
 OpenBabel02282109573D

 17 17  0  0  1  0  0  0  0  0999 V2000
   -0.4730    1.4723   -1.1984 C   0  0  0  0  0  0  0  0  0  0  0  0
   -0.5310   -0.0162   -1.0026 C   0  0  1  0  0  0  0  0  0  0  0  0
   -1.8151   -0.5892   -1.5815 N   0  0  0  0  0  0  0  0  0  0  0  0
   -1.8979   -0.4046   -2.5867 H   0  0  0  0  0  0  0  0  0  0  0  0
   -1.8493   -1.5996   -1.4254 H   0  0  0  0  0  0  0  0  0  0  0  0
   -2.6243   -0.1703   -1.1136 H   0  0  0  0  0  0  0  0  0  0  0  0
    0.6335   -0.9492   -1.1135 C   0  0  0  0  0  0  0  0  0  0  0  0
   -0.0606   -0.7560    0.2200 C   0  0  1  0  0  0  0  0  0  0  0  0
    0.6732    0.0720    1.3499 C   0  0  0  0  0  0  0  0  0  0  0  0
    1.5251    0.8707    0.9028 O   0  0  0  0  0  0  0  0  0  0  0  0
    0.2774   -0.1877    2.4879 O   0  0  0  0  0  0  0  0  0  0  0  0
    0.4166    1.8051   -0.6521 H   0  0  0  0  0  0  0  0  0  0  0  0
   -0.3966    1.7482   -2.2579 H   0  0  0  0  0  0  0  0  0  0  0  0
   -1.3458    1.9740   -0.7603 H   0  0  0  0  0  0  0  0  0  0  0  0
    0.5252   -1.8772   -1.6706 H   0  0  0  0  0  0  0  0  0  0  0  0
    1.6028   -0.4640   -1.1733 H   0  0  0  0  0  0  0  0  0  0  0  0
   -0.7024   -1.5551    0.5879 H   0  0  0  0  0  0  0  0  0  0  0  0
  1  2  1  0  0  0  0
  1 14  1  0  0  0  0
  1 12  1  0  0  0  0
  2  8  1  1  0  0  0
  3  5  1  0  0  0  0
  3  6  1  0  0  0  0
  3  2  1  0  0  0  0
  4  3  1  0  0  0  0
  7  2  1  0  0  0  0
  7  8  1  0  0  0  0
  8 17  1  1  0  0  0
  8  9  1  0  0  0  0
  9 11  1  0  0  0  0
 10  9  2  0  0  0  0
 13  1  1  0  0  0  0
 15  7  1  0  0  0  0
 16  7  1  0  0  0  0
M  RAD  1  11   2
M  END
