17
title
C -0.9928427 1.4302331 -0.9835827
C -0.6960723 -0.04880197 -1.0081131
O -1.7301445 -0.84588325 -1.5211467
C 0.65561974 -0.57153314 -1.3237666
C 0.1353498 -0.72662807 0.10046884
C 0.79210556 0.064739786 1.1814283
N 0.6428523 -0.45108837 2.4415324
O 1.3955866 1.1080174 0.9848532
H -0.15388663 1.9869236 -0.5654017
H -1.1967608 1.7816732 -2.000038
H -1.8785156 1.6378032 -0.36910537
H -2.5310664 -0.64163774 -1.0253099
H 0.71888316 -1.4682233 -1.9286256
H 1.4560939 0.1500763 -1.44079
H -0.23509265 -1.7107749 0.3680496
H 0.29939008 -1.3833251 2.592943
H 1.1592525 -0.008503114 3.1845148
