title
 OpenBabel02282109573D

 17 17  0  0  1  0  0  0  0  0999 V2000
   -0.9928    1.4302   -0.9836 C   0  0  0  0  0  0  0  0  0  0  0  0
   -0.6961   -0.0488   -1.0081 C   0  0  1  0  0  0  0  0  0  0  0  0
   -1.7301   -0.8459   -1.5211 O   0  0  0  0  0  0  0  0  0  0  0  0
    0.6556   -0.5715   -1.3238 C   0  0  0  0  0  0  0  0  0  0  0  0
    0.1353   -0.7266    0.1005 C   0  0  1  0  0  0  0  0  0  0  0  0
    0.7921    0.0647    1.1814 C   0  0  0  0  0  0  0  0  0  0  0  0
    0.6429   -0.4511    2.4415 N   0  0  0  0  0  0  0  0  0  0  0  0
    1.3956    1.1080    0.9849 O   0  0  0  0  0  0  0  0  0  0  0  0
   -0.1539    1.9869   -0.5654 H   0  0  0  0  0  0  0  0  0  0  0  0
   -1.1968    1.7817   -2.0000 H   0  0  0  0  0  0  0  0  0  0  0  0
   -1.8785    1.6378   -0.3691 H   0  0  0  0  0  0  0  0  0  0  0  0
   -2.5311   -0.6416   -1.0253 H   0  0  0  0  0  0  0  0  0  0  0  0
    0.7189   -1.4682   -1.9286 H   0  0  0  0  0  0  0  0  0  0  0  0
    1.4561    0.1501   -1.4408 H   0  0  0  0  0  0  0  0  0  0  0  0
   -0.2351   -1.7108    0.3680 H   0  0  0  0  0  0  0  0  0  0  0  0
    0.2994   -1.3833    2.5929 H   0  0  0  0  0  0  0  0  0  0  0  0
    1.1593   -0.0085    3.1845 H   0  0  0  0  0  0  0  0  0  0  0  0
  1  9  1  0  0  0  0
  1 11  1  0  0  0  0
  2  1  1  0  0  0  0
  2  5  1  1  0  0  0
  3 12  1  0  0  0  0
  3  2  1  0  0  0  0
  4  2  1  0  0  0  0
  4  5  1  0  0  0  0
  5 15  1  1  0  0  0
  5  6  1  0  0  0  0
  6  7  1  0  0  0  0
  7 16  1  0  0  0  0
  7 17  1  0  0  0  0
  8  6  2  0  0  0  0
 10  1  1  0  0  0  0
 13  4  1  0  0  0  0
 14  4  1  0  0  0  0
M  END
