title
 OpenBabel02282109573D

 24 24  0  0  1  0  0  0  0  0999 V2000
    1.4357    2.0971    0.8734 C   0  0  0  0  0  0  0  0  0  0  0  0
    0.7737    0.7122    0.9416 C   0  0  0  0  0  0  0  0  0  0  0  0
    0.0384    0.5190    2.2765 C   0  0  0  0  0  0  0  0  0  0  0  0
   -0.1674    0.5122   -0.2349 C   0  0  1  0  0  0  0  0  0  0  0  0
    0.3437    0.1227   -1.6045 C   0  0  0  0  0  0  0  0  0  0  0  0
   -0.5359   -0.8343   -0.8286 C   0  0  0  0  0  0  0  0  0  0  0  0
    0.0826   -2.1145   -0.2971 C   0  0  0  0  0  0  0  0  0  0  0  0
   -1.9672   -1.0087   -1.3042 C   0  0  0  0  0  0  0  0  0  0  0  0
    2.1441    2.2384    1.6967 H   0  0  0  0  0  0  0  0  0  0  0  0
    1.9764    2.2318   -0.0685 H   0  0  0  0  0  0  0  0  0  0  0  0
    0.6841    2.8927    0.9427 H   0  0  0  0  0  0  0  0  0  0  0  0
    1.5720   -0.0384    0.8819 H   0  0  0  0  0  0  0  0  0  0  0  0
   -0.7763    1.2460    2.3797 H   0  0  0  0  0  0  0  0  0  0  0  0
   -0.3985   -0.4814    2.3509 H   0  0  0  0  0  0  0  0  0  0  0  0
    0.7148    0.6580    3.1268 H   0  0  0  0  0  0  0  0  0  0  0  0
   -0.9827    1.2359   -0.2399 H   0  0  0  0  0  0  0  0  0  0  0  0
   -0.0653    0.6179   -2.4796 H   0  0  0  0  0  0  0  0  0  0  0  0
    1.3985   -0.1236   -1.6910 H   0  0  0  0  0  0  0  0  0  0  0  0
    0.0730   -2.8921   -1.0704 H   0  0  0  0  0  0  0  0  0  0  0  0
    1.1208   -1.9785    0.0153 H   0  0  0  0  0  0  0  0  0  0  0  0
   -0.4780   -2.5025    0.5620 H   0  0  0  0  0  0  0  0  0  0  0  0
   -2.0285   -1.7553   -2.1056 H   0  0  0  0  0  0  0  0  0  0  0  0
   -2.6181   -1.3463   -0.4886 H   0  0  0  0  0  0  0  0  0  0  0  0
   -2.3783   -0.0712   -1.6916 H   0  0  0  0  0  0  0  0  0  0  0  0
  1  2  1  0  0  0  0
  1 11  1  0  0  0  0
  1  9  1  0  0  0  0
  2  3  1  0  0  0  0
  3 14  1  0  0  0  0
  3 13  1  0  0  0  0
  3 15  1  0  0  0  0
  4 16  1  6  0  0  0
  4  2  1  0  0  0  0
  5  6  1  0  0  0  0
  5  4  1  0  0  0  0
  6  7  1  0  0  0  0
  6  4  1  0  0  0  0
  7 20  1  0  0  0  0
  7 21  1  0  0  0  0
  8  6  1  0  0  0  0
  8 23  1  0  0  0  0
 10  1  1  0  0  0  0
 12  2  1  0  0  0  0
 17  5  1  0  0  0  0
 18  5  1  0  0  0  0
 19  7  1  0  0  0  0
 22  8  1  0  0  0  0
 24  8  1  0  0  0  0
M  END
