title
 OpenBabel02282109573D

 22 22  0  0  1  0  0  0  0  0999 V2000
   -1.5467    2.0431    0.8686 C   0  0  0  0  0  0  0  0  0  0  0  0
   -1.2395    0.6842    0.2212 C   0  0  0  0  0  0  0  0  0  0  0  0
   -2.0125    0.5120   -1.0951 C   0  0  0  0  0  0  0  0  0  0  0  0
    0.2547    0.5249    0.0011 C   0  0  1  0  0  0  0  0  0  0  0  0
    1.1957    0.1279    1.1267 C   0  0  0  0  0  0  0  0  0  0  0  0
    0.9731   -0.7929   -0.0530 C   0  0  1  0  0  0  0  0  0  0  0  0
    0.2756   -2.1224    0.1292 C   0  0  0  0  0  0  0  0  0  0  0  0
    1.9853   -0.8227   -1.0325 O   0  0  0  0  0  0  0  0  0  0  0  0
   -1.0074    2.1634    1.8133 H   0  0  0  0  0  0  0  0  0  0  0  0
   -1.2484    2.8655    0.2076 H   0  0  0  0  0  0  0  0  0  0  0  0
   -2.6175    2.1515    1.0709 H   0  0  0  0  0  0  0  0  0  0  0  0
   -1.5738   -0.0969    0.9169 H   0  0  0  0  0  0  0  0  0  0  0  0
   -1.7091    1.2715   -1.8252 H   0  0  0  0  0  0  0  0  0  0  0  0
   -1.8271   -0.4691   -1.5426 H   0  0  0  0  0  0  0  0  0  0  0  0
   -3.0914    0.6157   -0.9374 H   0  0  0  0  0  0  0  0  0  0  0  0
    0.6739    1.2525   -0.6912 H   0  0  0  0  0  0  0  0  0  0  0  0
    2.1520    0.6349    1.1941 H   0  0  0  0  0  0  0  0  0  0  0  0
    0.7564   -0.1486    2.0812 H   0  0  0  0  0  0  0  0  0  0  0  0
    0.9871   -2.8805    0.4809 H   0  0  0  0  0  0  0  0  0  0  0  0
   -0.5298   -2.0669    0.8655 H   0  0  0  0  0  0  0  0  0  0  0  0
   -0.1429   -2.4726   -0.8199 H   0  0  0  0  0  0  0  0  0  0  0  0
    2.6861   -1.4013   -0.7107 H   0  0  0  0  0  0  0  0  0  0  0  0
  1 11  1  0  0  0  0
  1  9  1  0  0  0  0
  2  1  1  0  0  0  0
  2 12  1  0  0  0  0
  3 15  1  0  0  0  0
  3  2  1  0  0  0  0
  4  6  1  6  0  0  0
  4  2  1  0  0  0  0
  4  5  1  0  0  0  0
  5 17  1  0  0  0  0
  5 18  1  0  0  0  0
  6  8  1  6  0  0  0
  6  7  1  0  0  0  0
  6  5  1  0  0  0  0
  7 19  1  0  0  0  0
  7 20  1  0  0  0  0
  8 22  1  0  0  0  0
 10  1  1  0  0  0  0
 13  3  1  0  0  0  0
 14  3  1  0  0  0  0
 16  4  1  0  0  0  0
 21  7  1  0  0  0  0
M  END
