title
 OpenBabel02282109573D

 22 22  0  0  1  0  0  0  0  0999 V2000
    1.5956    1.9798    0.6343 C   0  0  0  0  0  0  0  0  0  0  0  0
    0.8052    0.7001    0.9459 C   0  0  0  0  0  0  0  0  0  0  0  0
    0.1250    0.7720    2.3206 C   0  0  0  0  0  0  0  0  0  0  0  0
   -0.2286    0.4590   -0.1353 C   0  0  1  0  0  0  0  0  0  0  0  0
    0.2381    0.0718   -1.4341 O   0  0  0  0  0  0  0  0  0  0  0  0
   -0.6093   -0.8451   -0.7143 C   0  0  0  0  0  0  0  0  0  0  0  0
    0.0465   -2.1436   -0.2954 C   0  0  0  0  0  0  0  0  0  0  0  0
   -1.9952   -1.0020   -1.3067 C   0  0  0  0  0  0  0  0  0  0  0  0
    2.3765    2.1500    1.3824 H   0  0  0  0  0  0  0  0  0  0  0  0
    2.0689    1.9113   -0.3492 H   0  0  0  0  0  0  0  0  0  0  0  0
    0.9381    2.8573    0.6329 H   0  0  0  0  0  0  0  0  0  0  0  0
    1.5098   -0.1381    0.9472 H   0  0  0  0  0  0  0  0  0  0  0  0
   -0.6076    1.5872    2.3548 H   0  0  0  0  0  0  0  0  0  0  0  0
   -0.4004   -0.1585    2.5588 H   0  0  0  0  0  0  0  0  0  0  0  0
    0.8599    0.9568    3.1105 H   0  0  0  0  0  0  0  0  0  0  0  0
   -0.9963    1.2398   -0.1698 H   0  0  0  0  0  0  0  0  0  0  0  0
    0.0842   -2.8328   -1.1462 H   0  0  0  0  0  0  0  0  0  0  0  0
    1.0676   -1.9904    0.0555 H   0  0  0  0  0  0  0  0  0  0  0  0
   -0.5292   -2.6304    0.4995 H   0  0  0  0  0  0  0  0  0  0  0  0
   -1.9631   -1.6543   -2.1866 H   0  0  0  0  0  0  0  0  0  0  0  0
   -2.6819   -1.4529   -0.5818 H   0  0  0  0  0  0  0  0  0  0  0  0
   -2.3990   -0.0344   -1.6142 H   0  0  0  0  0  0  0  0  0  0  0  0
  1  2  1  0  0  0  0
  1  9  1  0  0  0  0
  2 12  1  0  0  0  0
  2  3  1  0  0  0  0
  3 13  1  0  0  0  0
  3 14  1  0  0  0  0
  3 15  1  0  0  0  0
  4 16  1  6  0  0  0
  4  2  1  0  0  0  0
  5  6  1  0  0  0  0
  5  4  1  0  0  0  0
  6  7  1  0  0  0  0
  6  4  1  0  0  0  0
  7 18  1  0  0  0  0
  7 19  1  0  0  0  0
  8  6  1  0  0  0  0
  8 21  1  0  0  0  0
 10  1  1  0  0  0  0
 11  1  1  0  0  0  0
 17  7  1  0  0  0  0
 20  8  1  0  0  0  0
 22  8  1  0  0  0  0
M  END
