22
title
C 1.595615 1.9797716 0.6342981
C 0.80520666 0.7001475 0.9458965
C 0.12500405 0.7719931 2.3206472
C -0.22855067 0.45903218 -0.13532391
O 0.2380768 0.07179356 -1.4340827
C -0.6092708 -0.84507453 -0.71426404
C 0.046480183 -2.1435502 -0.29535142
C -1.9951818 -1.0020357 -1.3067217
H 2.376527 2.1499734 1.3824499
H 2.0688608 1.9112539 -0.34918573
H 0.9380556 2.8572986 0.63285804
H 1.5098411 -0.13812982 0.94719136
H -0.60756266 1.5872154 2.354761
H -0.40038347 -0.1585326 2.558822
H 0.85991526 0.9567515 3.110458
H -0.99634385 1.2397504 -0.16975442
H 0.08421445 -2.8328195 -1.1462138
H 1.067647 -1.990362 0.055537973
H -0.5292212 -2.6304278 0.4995347
H -1.9631045 -1.6542603 -2.1866186
H -2.6818652 -1.4529229 -0.5817909
H -2.3989549 -0.034426082 -1.6142193
