title
 OpenBabel02282109573D

 22 22  0  0  1  0  0  0  0  0999 V2000
    0.8670    2.5349   -0.3184 C   0  0  0  0  0  0  0  0  0  0  0  0
    0.9091    1.0332   -0.0245 C   0  0  1  0  0  0  0  0  0  0  0  0
    1.5767    0.7702    1.2123 O   0  0  0  0  0  0  0  0  0  0  0  0
   -0.4740    0.4152   -0.0564 C   0  0  1  0  0  0  0  0  0  0  0  0
   -1.0453   -0.1819   -1.3259 C   0  0  0  0  0  0  0  0  0  0  0  0
   -0.7136   -1.0763   -0.1525 C   0  0  0  0  0  0  0  0  0  0  0  0
    0.4623   -2.0298   -0.2635 C   0  0  0  0  0  0  0  0  0  0  0  0
   -1.8738   -1.6344    0.6522 C   0  0  0  0  0  0  0  0  0  0  0  0
    1.8740    2.9589   -0.2787 H   0  0  0  0  0  0  0  0  0  0  0  0
    0.4393    2.7305   -1.3069 H   0  0  0  0  0  0  0  0  0  0  0  0
    0.2471    3.0563    0.4219 H   0  0  0  0  0  0  0  0  0  0  0  0
    1.5421    0.5491   -0.7759 H   0  0  0  0  0  0  0  0  0  0  0  0
    1.0341    1.1393    1.9179 H   0  0  0  0  0  0  0  0  0  0  0  0
   -1.1901    0.9537    0.5657 H   0  0  0  0  0  0  0  0  0  0  0  0
   -2.0866    0.0074   -1.5658 H   0  0  0  0  0  0  0  0  0  0  0  0
   -0.3936   -0.2241   -2.1939 H   0  0  0  0  0  0  0  0  0  0  0  0
    1.2491   -1.6479   -0.9184 H   0  0  0  0  0  0  0  0  0  0  0  0
    0.9118   -2.2134    0.7181 H   0  0  0  0  0  0  0  0  0  0  0  0
    0.1344   -2.9929   -0.6721 H   0  0  0  0  0  0  0  0  0  0  0  0
   -2.2608   -2.5551    0.1993 H   0  0  0  0  0  0  0  0  0  0  0  0
   -1.5633   -1.8753    1.6760 H   0  0  0  0  0  0  0  0  0  0  0  0
   -2.7011   -0.9201    0.7127 H   0  0  0  0  0  0  0  0  0  0  0  0
  1  9  1  0  0  0  0
  1  2  1  0  0  0  0
  1 11  1  0  0  0  0
  2 12  1  6  0  0  0
  2  3  1  0  0  0  0
  3 13  1  0  0  0  0
  4  2  1  0  0  0  0
  4 14  1  1  0  0  0
  5  6  1  0  0  0  0
  5  4  1  0  0  0  0
  6  4  1  0  0  0  0
  6  8  1  0  0  0  0
  7  6  1  0  0  0  0
  7 18  1  0  0  0  0
  8 22  1  0  0  0  0
  8 21  1  0  0  0  0
 10  1  1  0  0  0  0
 15  5  1  0  0  0  0
 16  5  1  0  0  0  0
 17  7  1  0  0  0  0
 19  7  1  0  0  0  0
 20  8  1  0  0  0  0
M  END
