20
title
C -0.72477996 2.5530705 -0.6055012
C -0.53930295 1.0419757 -0.76356655
O 0.11086591 0.727414 -1.9960351
C 0.186973 0.43873957 0.4206416
C -0.56101215 -0.15877531 1.603499
C 0.2441763 -1.0377775 0.67297226
C -0.43071362 -2.039138 -0.236189
O 1.5068568 -1.4553388 1.1360961
H 0.24737701 3.0538638 -0.5190937
H -1.2443591 2.9645278 -1.474876
H -1.3016611 2.786927 0.2950822
H -1.5275636 0.57724994 -0.8574409
H 1.0242463 1.0267159 -1.9274862
H 1.1094222 0.95354337 0.6846537
H -0.1609639 0.022961872 2.5946305
H -1.6448023 -0.20389806 1.5475174
H -1.4098674 -1.6909057 -0.57345706
H 0.18602869 -2.2298913 -1.1184995
H -0.5839701 -2.988644 0.29221576
H 1.3716273 -2.2286468 1.6955189
