title
 OpenBabel02282109573D

 20 20  0  0  1  0  0  0  0  0999 V2000
   -0.7248    2.5531   -0.6055 C   0  0  0  0  0  0  0  0  0  0  0  0
   -0.5393    1.0420   -0.7636 C   0  0  1  0  0  0  0  0  0  0  0  0
    0.1109    0.7274   -1.9960 O   0  0  0  0  0  0  0  0  0  0  0  0
    0.1870    0.4387    0.4206 C   0  0  1  0  0  0  0  0  0  0  0  0
   -0.5610   -0.1588    1.6035 C   0  0  0  0  0  0  0  0  0  0  0  0
    0.2442   -1.0378    0.6730 C   0  0  1  0  0  0  0  0  0  0  0  0
   -0.4307   -2.0391   -0.2362 C   0  0  0  0  0  0  0  0  0  0  0  0
    1.5069   -1.4553    1.1361 O   0  0  0  0  0  0  0  0  0  0  0  0
    0.2474    3.0539   -0.5191 H   0  0  0  0  0  0  0  0  0  0  0  0
   -1.2444    2.9645   -1.4749 H   0  0  0  0  0  0  0  0  0  0  0  0
   -1.3017    2.7869    0.2951 H   0  0  0  0  0  0  0  0  0  0  0  0
   -1.5276    0.5772   -0.8574 H   0  0  0  0  0  0  0  0  0  0  0  0
    1.0242    1.0267   -1.9275 H   0  0  0  0  0  0  0  0  0  0  0  0
    1.1094    0.9535    0.6847 H   0  0  0  0  0  0  0  0  0  0  0  0
   -0.1610    0.0230    2.5946 H   0  0  0  0  0  0  0  0  0  0  0  0
   -1.6448   -0.2039    1.5475 H   0  0  0  0  0  0  0  0  0  0  0  0
   -1.4099   -1.6909   -0.5735 H   0  0  0  0  0  0  0  0  0  0  0  0
    0.1860   -2.2299   -1.1185 H   0  0  0  0  0  0  0  0  0  0  0  0
   -0.5840   -2.9886    0.2922 H   0  0  0  0  0  0  0  0  0  0  0  0
    1.3716   -2.2286    1.6955 H   0  0  0  0  0  0  0  0  0  0  0  0
  1  9  1  0  0  0  0
  1 11  1  0  0  0  0
  2 12  1  6  0  0  0
  2  1  1  0  0  0  0
  2  4  1  0  0  0  0
  3 13  1  0  0  0  0
  3  2  1  0  0  0  0
  4  6  1  6  0  0  0
  4 14  1  0  0  0  0
  4  5  1  0  0  0  0
  5 15  1  0  0  0  0
  6  8  1  1  0  0  0
  6  5  1  0  0  0  0
  7 19  1  0  0  0  0
  7  6  1  0  0  0  0
  8 20  1  0  0  0  0
 10  1  1  0  0  0  0
 16  5  1  0  0  0  0
 17  7  1  0  0  0  0
 18  7  1  0  0  0  0
M  END
