18
title
C -0.8625387 2.104898 0.18626314
C -0.8340317 0.56415015 0.14894263
C -2.2752292 0.01806053 0.17822382
C -0.026453579 0.022084022 -1.0593551
C 1.1492511 -0.77629554 -0.47094348
O 2.0037873 -1.3525919 -1.1022507
C 1.022703 -0.69623184 1.0035393
C -0.050077938 0.028858745 1.3338869
H 0.1497182 2.5199785 0.15821275
H -1.4172462 2.4999957 -0.6713095
H -1.3511122 2.468372 1.097051
H -2.8450596 0.39085376 -0.6794198
H -2.2844439 -1.0757897 0.14432542
H -2.797447 0.3317986 1.088833
H -0.61830306 -0.63494265 -1.7039417
H 0.3662435 0.8190701 -1.6981591
H 1.7247963 -1.1741759 1.6749343
H -0.37300932 0.24363899 2.349096
