17
title
C -0.7661666 2.0512617 0.16722016
C -0.7687818 0.51856244 0.22387904
C -2.1915305 -0.047003713 0.1327084
O -0.013959268 0.02438942 -0.90530825
C 1.057461 -0.7102055 -0.4874698
N 1.8418766 -1.2292601 -1.3382276
C 1.040354 -0.72305876 0.98931456
C -0.006885329 -0.01849493 1.4110721
H 0.25693086 2.4340014 0.19604613
H -1.2393272 2.3902645 -0.7584199
H -1.320691 2.4688864 1.0133346
H -2.666822 0.28866446 -0.7930552
H -2.1705966 -1.1395185 0.13740316
H -2.7970831 0.2956816 0.9775105
H 2.58129 -1.7396585 -0.85880506
H 1.7833678 -1.2376817 1.5829809
H -0.3112461 0.17142922 2.4326496
