title
 OpenBabel02282109573D

 17 17  0  0  0  0  0  0  0  0999 V2000
   -0.7662    2.0513    0.1672 C   0  0  0  0  0  0  0  0  0  0  0  0
   -0.7688    0.5186    0.2239 C   0  0  0  0  0  0  0  0  0  0  0  0
   -2.1915   -0.0470    0.1327 C   0  0  0  0  0  0  0  0  0  0  0  0
   -0.0140    0.0244   -0.9053 O   0  0  0  0  0  0  0  0  0  0  0  0
    1.0575   -0.7102   -0.4875 C   0  0  0  0  0  0  0  0  0  0  0  0
    1.8419   -1.2293   -1.3382 N   0  0  0  0  0  0  0  0  0  0  0  0
    1.0404   -0.7231    0.9893 C   0  0  0  0  0  0  0  0  0  0  0  0
   -0.0069   -0.0185    1.4111 C   0  0  0  0  0  0  0  0  0  0  0  0
    0.2569    2.4340    0.1960 H   0  0  0  0  0  0  0  0  0  0  0  0
   -1.2393    2.3903   -0.7584 H   0  0  0  0  0  0  0  0  0  0  0  0
   -1.3207    2.4689    1.0133 H   0  0  0  0  0  0  0  0  0  0  0  0
   -2.6668    0.2887   -0.7931 H   0  0  0  0  0  0  0  0  0  0  0  0
   -2.1706   -1.1395    0.1374 H   0  0  0  0  0  0  0  0  0  0  0  0
   -2.7971    0.2957    0.9775 H   0  0  0  0  0  0  0  0  0  0  0  0
    2.5813   -1.7397   -0.8588 H   0  0  0  0  0  0  0  0  0  0  0  0
    1.7834   -1.2377    1.5830 H   0  0  0  0  0  0  0  0  0  0  0  0
   -0.3112    0.1714    2.4326 H   0  0  0  0  0  0  0  0  0  0  0  0
  1  9  1  0  0  0  0
  1  2  1  0  0  0  0
  1 11  1  0  0  0  0
  2  8  1  0  0  0  0
  3 13  1  0  0  0  0
  3  2  1  0  0  0  0
  3 14  1  0  0  0  0
  4  5  1  0  0  0  0
  4  2  1  0  0  0  0
  5  7  1  0  0  0  0
  6 15  1  0  0  0  0
  6  5  2  0  0  0  0
  7  8  2  0  0  0  0
  7 16  1  0  0  0  0
  8 17  1  0  0  0  0
 10  1  1  0  0  0  0
 12  3  1  0  0  0  0
M  END
