title
 OpenBabel02282109573D

 16 16  0  0  0  0  0  0  0  0999 V2000
   -0.7756    2.0565    0.1645 C   0  0  0  0  0  0  0  0  0  0  0  0
   -0.7793    0.5242    0.2196 C   0  0  0  0  0  0  0  0  0  0  0  0
   -2.2001   -0.0448    0.1251 C   0  0  0  0  0  0  0  0  0  0  0  0
   -0.0194    0.0301   -0.9047 O   0  0  0  0  0  0  0  0  0  0  0  0
    1.0563   -0.7071   -0.4785 C   0  0  0  0  0  0  0  0  0  0  0  0
    1.8322   -1.2189   -1.2350 O   0  0  0  0  0  0  0  0  0  0  0  0
    1.0269   -0.7149    1.0061 C   0  0  0  0  0  0  0  0  0  0  0  0
   -0.0247   -0.0097    1.4131 C   0  0  0  0  0  0  0  0  0  0  0  0
    0.2477    2.4388    0.1922 H   0  0  0  0  0  0  0  0  0  0  0  0
   -1.2512    2.3970   -0.7591 H   0  0  0  0  0  0  0  0  0  0  0  0
   -1.3279    2.4721    1.0130 H   0  0  0  0  0  0  0  0  0  0  0  0
   -2.6759    0.2941   -0.7990 H   0  0  0  0  0  0  0  0  0  0  0  0
   -2.1767   -1.1372    0.1259 H   0  0  0  0  0  0  0  0  0  0  0  0
   -2.8057    0.2932    0.9715 H   0  0  0  0  0  0  0  0  0  0  0  0
    1.7725   -1.2314    1.5924 H   0  0  0  0  0  0  0  0  0  0  0  0
   -0.3413    0.1858    2.4302 H   0  0  0  0  0  0  0  0  0  0  0  0
  1  9  1  0  0  0  0
  1  2  1  0  0  0  0
  1 11  1  0  0  0  0
  2  8  1  0  0  0  0
  3 13  1  0  0  0  0
  3  2  1  0  0  0  0
  3 14  1  0  0  0  0
  4  5  1  0  0  0  0
  4  2  1  0  0  0  0
  5  7  1  0  0  0  0
  6  5  2  0  0  0  0
  7  8  2  0  0  0  0
  7 15  1  0  0  0  0
  8 16  1  0  0  0  0
 10  1  1  0  0  0  0
 12  3  1  0  0  0  0
M  END
