title
 OpenBabel02282109573D

 18 18  0  0  0  0  0  0  0  0999 V2000
   -0.8464    1.8018    0.4087 C   0  0  0  0  0  0  0  0  0  0  0  0
   -0.9419    0.2988    0.1118 C   0  0  0  0  0  0  0  0  0  0  0  0
   -2.3922   -0.1632    0.0505 C   0  0  0  0  0  0  0  0  0  0  0  0
   -0.1115   -0.0860   -1.1264 C   0  0  0  0  0  0  0  0  0  0  0  0
    1.2681   -0.3934   -0.5480 C   0  0  0  0  0  0  0  0  0  0  0  0
    2.3103   -0.4856   -1.1388 O   0  0  0  0  0  0  0  0  0  0  0  0
    1.0654   -0.5547    0.9612 C   0  0  0  0  0  0  0  0  0  0  0  0
   -0.3220   -0.4491    1.1903 O   0  0  0  0  0  0  0  0  0  0  0  0
    0.1950    2.1382    0.4499 H   0  0  0  0  0  0  0  0  0  0  0  0
   -1.3535    2.3850   -0.3667 H   0  0  0  0  0  0  0  0  0  0  0  0
   -1.3138    2.0232    1.3721 H   0  0  0  0  0  0  0  0  0  0  0  0
   -2.9265    0.3422   -0.7596 H   0  0  0  0  0  0  0  0  0  0  0  0
   -2.4411   -1.2427   -0.1165 H   0  0  0  0  0  0  0  0  0  0  0  0
   -2.9015    0.0610    0.9923 H   0  0  0  0  0  0  0  0  0  0  0  0
   -0.4968   -1.0041   -1.5868 H   0  0  0  0  0  0  0  0  0  0  0  0
   -0.0537    0.6810   -1.9010 H   0  0  0  0  0  0  0  0  0  0  0  0
    1.4234   -1.5310    1.3055 H   0  0  0  0  0  0  0  0  0  0  0  0
    1.6466    0.2199    1.4871 H   0  0  0  0  0  0  0  0  0  0  0  0
  1  9  1  0  0  0  0
  1 11  1  0  0  0  0
  2  1  1  0  0  0  0
  2  8  1  0  0  0  0
  3  2  1  0  0  0  0
  3 14  1  0  0  0  0
  4  5  1  0  0  0  0
  4  2  1  0  0  0  0
  5  7  1  0  0  0  0
  6  5  2  0  0  0  0
  7  8  1  0  0  0  0
  7 17  1  0  0  0  0
  7 18  1  0  0  0  0
 10  1  1  0  0  0  0
 12  3  1  0  0  0  0
 13  3  1  0  0  0  0
 15  4  1  0  0  0  0
 16  4  1  0  0  0  0
M  END
