19
title
C -0.639344 1.9859667 0.010536927
C -0.8131763 0.48612556 -0.2458628
C -2.285615 0.09387214 -0.29023653
C -0.008215411 -0.000324776 -1.4729285
C 1.3595089 -0.3515982 -0.8763317
C 1.0251924 -0.7149983 0.5547387
N 1.7676796 -1.3653455 1.3431966
O -0.2117353 -0.23369871 0.87010854
H 0.4180651 2.2668993 0.02336933
H -1.1387001 2.5696564 -0.769307
H -1.073763 2.2569873 0.9767093
H -2.7802057 0.5716951 -1.1419005
H -2.3902314 -0.9898172 -0.39133635
H -2.799393 0.40630513 0.6234994
H -0.48114765 -0.8932758 -1.8935664
H 0.036674038 0.75673395 -2.2589486
H 1.8763758 -1.1707985 -1.3767346
H 2.0374272 0.5089564 -0.87664634
H 1.3171567 -1.4635658 2.2550073
