title
 OpenBabel02282109573D

 20 20  0  0  0  0  0  0  0  0999 V2000
   -0.6582    1.9061   -0.0390 C   0  0  0  0  0  0  0  0  0  0  0  0
   -0.9343    0.3972   -0.1745 C   0  0  0  0  0  0  0  0  0  0  0  0
   -2.4446    0.1549   -0.2538 C   0  0  0  0  0  0  0  0  0  0  0  0
   -0.1926   -0.1797   -1.4171 C   0  0  0  0  0  0  0  0  0  0  0  0
    1.2594   -0.4000   -0.9691 C   0  0  0  0  0  0  0  0  0  0  0  0
    1.1761   -0.6256    0.5472 C   0  0  0  0  0  0  0  0  0  0  0  0
    2.0891   -0.9503    1.2612 O   0  0  0  0  0  0  0  0  0  0  0  0
   -0.2671   -0.3682    0.9895 C   0  0  0  0  0  0  0  0  0  0  0  0
    0.4128    2.1258    0.0275 H   0  0  0  0  0  0  0  0  0  0  0  0
   -1.0572    2.4546   -0.8991 H   0  0  0  0  0  0  0  0  0  0  0  0
   -1.1307    2.3080    0.8637 H   0  0  0  0  0  0  0  0  0  0  0  0
   -2.8769    0.6574   -1.1266 H   0  0  0  0  0  0  0  0  0  0  0  0
   -2.6705   -0.9137   -0.3368 H   0  0  0  0  0  0  0  0  0  0  0  0
   -2.9566    0.5383    0.6356 H   0  0  0  0  0  0  0  0  0  0  0  0
   -0.6459   -1.1393   -1.6925 H   0  0  0  0  0  0  0  0  0  0  0  0
   -0.2817    0.4783   -2.2865 H   0  0  0  0  0  0  0  0  0  0  0  0
    1.7647   -1.2399   -1.4531 H   0  0  0  0  0  0  0  0  0  0  0  0
    1.8875    0.4819   -1.1414 H   0  0  0  0  0  0  0  0  0  0  0  0
   -0.3002    0.1404    1.9566 H   0  0  0  0  0  0  0  0  0  0  0  0
   -0.7401   -1.3511    1.1264 H   0  0  0  0  0  0  0  0  0  0  0  0
  1  9  1  0  0  0  0
  1 11  1  0  0  0  0
  2  1  1  0  0  0  0
  2  8  1  0  0  0  0
  3  2  1  0  0  0  0
  3 14  1  0  0  0  0
  4  5  1  0  0  0  0
  4  2  1  0  0  0  0
  5  6  1  0  0  0  0
  6  8  1  0  0  0  0
  6  7  2  0  0  0  0
  8 20  1  0  0  0  0
  8 19  1  0  0  0  0
 10  1  1  0  0  0  0
 12  3  1  0  0  0  0
 13  3  1  0  0  0  0
 15  4  1  0  0  0  0
 16  4  1  0  0  0  0
 17  5  1  0  0  0  0
 18  5  1  0  0  0  0
M  END
