title
 OpenBabel02282109573D

 19 19  0  0  0  0  0  0  0  0999 V2000
   -0.7313    2.2365   -0.2299 C   0  0  0  0  0  0  0  0  0  0  0  0
   -0.6900    0.7051   -0.2262 C   0  0  0  0  0  0  0  0  0  0  0  0
   -2.1160    0.1305   -0.1390 C   0  0  0  0  0  0  0  0  0  0  0  0
    0.0829    0.1332   -1.4513 C   0  0  0  0  0  0  0  0  0  0  0  0
    0.8149   -1.1081   -0.9198 C   0  0  0  0  0  0  0  0  0  0  0  0
    0.9474   -0.8576    0.5862 C   0  0  0  0  0  0  0  0  0  0  0  0
    1.6188   -1.4789    1.3803 O   0  0  0  0  0  0  0  0  0  0  0  0
    0.1385    0.2099    0.8748 N   0  0  0  0  0  0  0  0  0  0  0  0
    0.2809    2.6504   -0.2362 H   0  0  0  0  0  0  0  0  0  0  0  0
   -1.2624    2.6037   -1.1140 H   0  0  0  0  0  0  0  0  0  0  0  0
   -1.2539    2.6214    0.6531 H   0  0  0  0  0  0  0  0  0  0  0  0
   -2.7346    0.4953   -0.9656 H   0  0  0  0  0  0  0  0  0  0  0  0
   -2.1024   -0.9631   -0.1764 H   0  0  0  0  0  0  0  0  0  0  0  0
   -2.5986    0.4280    0.7982 H   0  0  0  0  0  0  0  0  0  0  0  0
   -0.5914   -0.0788   -2.2844 H   0  0  0  0  0  0  0  0  0  0  0  0
    0.8091    0.8762   -1.7952 H   0  0  0  0  0  0  0  0  0  0  0  0
    0.2374   -2.0290   -1.0573 H   0  0  0  0  0  0  0  0  0  0  0  0
    1.7963   -1.2756   -1.3670 H   0  0  0  0  0  0  0  0  0  0  0  0
   -0.0362    0.4566    1.8375 H   0  0  0  0  0  0  0  0  0  0  0  0
  1  2  1  0  0  0  0
  1 11  1  0  0  0  0
  2  3  1  0  0  0  0
  2  8  1  0  0  0  0
  3 14  1  0  0  0  0
  4  5  1  0  0  0  0
  4  2  1  0  0  0  0
  5  6  1  0  0  0  0
  6  8  1  0  0  0  0
  6  7  2  0  0  0  0
  8 19  1  0  0  0  0
  9  1  1  0  0  0  0
 10  1  1  0  0  0  0
 12  3  1  0  0  0  0
 13  3  1  0  0  0  0
 15  4  1  0  0  0  0
 16  4  1  0  0  0  0
 17  5  1  0  0  0  0
 18  5  1  0  0  0  0
M  END
