19
title
C -0.7313143 2.236531 -0.2298557
C -0.6899992 0.7051102 -0.22615238
C -2.1159897 0.13054296 -0.13900448
C 0.08293775 0.1332176 -1.4513007
C 0.814904 -1.1080848 -0.9197992
C 0.94735456 -0.8576369 0.5862401
O 1.6188245 -1.4789062 1.3803313
N 0.13848272 0.20987424 0.87483156
H 0.2808778 2.6504128 -0.23621447
H -1.2624277 2.6037295 -1.114022
H -1.2539144 2.6213772 0.6531445
H -2.7346172 0.49531856 -0.96562713
H -2.1023726 -0.96307075 -0.17641938
H -2.598571 0.42804846 0.79817367
H -0.5913723 -0.07875779 -2.2843683
H 0.80912507 0.8761975 -1.7951605
H 0.23740032 -2.028995 -1.0573487
H 1.7963123 -1.2756065 -1.3670399
H -0.036198646 0.45658222 1.8375028
