18
title
C -0.646239 1.9918464 -0.03057585
C -0.82333356 0.48744103 -0.25122198
C -2.2948182 0.091033 -0.26632547
C -0.038145754 -0.023908213 -1.4849497
C 1.3241432 -0.40475893 -0.9034576
C 1.0208417 -0.6986119 0.5627924
O 1.7073643 -1.2639598 1.3637431
O -0.20450094 -0.20148696 0.8733622
H 0.4112682 2.2732544 -0.043823756
H -1.1599766 2.556609 -0.8148199
H -1.0627146 2.2840664 0.9370743
H -2.7975154 0.5397503 -1.1290412
H -2.3981376 -0.9955508 -0.33086425
H -2.7997983 0.43208176 0.6417669
H -0.5351708 -0.9060226 -1.8999445
H 0.013148334 0.7311104 -2.2724037
H 1.7979641 -1.2696422 -1.3695524
H 2.0451567 0.41913688 -0.9410854
