title
 OpenBabel02282109573D

 18 18  0  0  0  0  0  0  0  0999 V2000
   -0.6945    1.9606   -0.1304 C   0  0  0  0  0  0  0  0  0  0  0  0
   -0.8863    0.4364   -0.2196 C   0  0  0  0  0  0  0  0  0  0  0  0
   -2.3709    0.0749   -0.2915 C   0  0  0  0  0  0  0  0  0  0  0  0
   -0.0799   -0.1567   -1.4107 C   0  0  0  0  0  0  0  0  0  0  0  0
    1.2117   -0.4215   -0.7999 N   0  0  0  0  0  0  0  0  0  0  0  0
    1.0800   -0.6211    0.5698 C   0  0  0  0  0  0  0  0  0  0  0  0
    1.9297   -1.0319    1.3274 O   0  0  0  0  0  0  0  0  0  0  0  0
   -0.2210   -0.2527    0.8926 N   0  0  0  0  0  0  0  0  0  0  0  0
    0.3684    2.2177   -0.1424 H   0  0  0  0  0  0  0  0  0  0  0  0
   -1.1836    2.4670   -0.9691 H   0  0  0  0  0  0  0  0  0  0  0  0
   -1.1320    2.3497    0.7954 H   0  0  0  0  0  0  0  0  0  0  0  0
   -2.8254    0.4856   -1.1994 H   0  0  0  0  0  0  0  0  0  0  0  0
   -2.5041   -1.0099   -0.2919 H   0  0  0  0  0  0  0  0  0  0  0  0
   -2.9151    0.4856    0.5656 H   0  0  0  0  0  0  0  0  0  0  0  0
   -0.5640   -1.0716   -1.7822 H   0  0  0  0  0  0  0  0  0  0  0  0
   -0.0037    0.5543   -2.2390 H   0  0  0  0  0  0  0  0  0  0  0  0
    1.9124   -0.9690   -1.2736 H   0  0  0  0  0  0  0  0  0  0  0  0
   -0.3777    0.0492    1.8425 H   0  0  0  0  0  0  0  0  0  0  0  0
  1 11  1  0  0  0  0
  2  1  1  0  0  0  0
  2  8  1  0  0  0  0
  3  2  1  0  0  0  0
  3 14  1  0  0  0  0
  4  5  1  0  0  0  0
  4  2  1  0  0  0  0
  5  6  1  0  0  0  0
  6  8  1  0  0  0  0
  6  7  2  0  0  0  0
  8 18  1  0  0  0  0
  9  1  1  0  0  0  0
 10  1  1  0  0  0  0
 12  3  1  0  0  0  0
 13  3  1  0  0  0  0
 15  4  1  0  0  0  0
 16  4  1  0  0  0  0
 17  5  1  0  0  0  0
M  END
