17
title
C -0.8820332 2.129965 -0.20832595
C -0.743847 0.61408395 -0.23797405
C -2.0957837 -0.09414162 -0.13669448
C 0.08413541 0.09998132 -1.4468141
N 0.8592493 -0.94547474 -0.8129359
C 0.97115237 -0.7338747 0.5462393
O 1.71422 -1.2731423 1.3179871
O 0.056438386 0.21374442 0.90544885
H 0.10208082 2.6057832 -0.19475038
H -1.4265697 2.4791684 -1.0916404
H -1.4316251 2.4484665 0.68155605
H -2.7555978 0.21803956 -0.9524976
H -1.9664464 -1.1788474 -0.19044548
H -2.5777185 0.14982851 0.8135491
H -0.56154054 -0.28781173 -2.2405386
H 0.713901 0.8958693 -1.8689394
H 1.6312709 -1.3997158 -1.2725723
