title
 OpenBabel02282109573D

 19 19  0  0  0  0  0  0  0  0999 V2000
   -1.0480    2.2226   -0.1189 C   0  0  0  0  0  0  0  0  0  0  0  0
   -0.7150    0.7291   -0.1312 C   0  0  0  0  0  0  0  0  0  0  0  0
   -2.0007   -0.1119   -0.2108 C   0  0  0  0  0  0  0  0  0  0  0  0
    0.2353    0.3549   -1.2899 C   0  0  0  0  0  0  0  0  0  0  0  0
    0.9539   -0.8093   -0.8545 O   0  0  0  0  0  0  0  0  0  0  0  0
    0.9480   -0.8810    0.5132 C   0  0  0  0  0  0  0  0  0  0  0  0
    1.5215   -1.7820    1.1857 N   0  0  0  0  0  0  0  0  0  0  0  0
    0.1491    0.2777    1.0659 C   0  0  0  0  0  0  0  0  0  0  0  0
   -0.1425    2.8344   -0.0467 H   0  0  0  0  0  0  0  0  0  0  0  0
   -1.5812    2.5159   -1.0303 H   0  0  0  0  0  0  0  0  0  0  0  0
   -1.6905    2.4728    0.7316 H   0  0  0  0  0  0  0  0  0  0  0  0
   -2.5819    0.1454   -1.1028 H   0  0  0  0  0  0  0  0  0  0  0  0
   -1.7756   -1.1823   -0.2523 H   0  0  0  0  0  0  0  0  0  0  0  0
   -2.6341    0.0638    0.6647 H   0  0  0  0  0  0  0  0  0  0  0  0
   -0.2850    0.1003   -2.2172 H   0  0  0  0  0  0  0  0  0  0  0  0
    0.9514    1.1610   -1.4982 H   0  0  0  0  0  0  0  0  0  0  0  0
    2.0053   -2.4350    0.5662 H   0  0  0  0  0  0  0  0  0  0  0  0
    0.8416    1.0727    1.3686 H   0  0  0  0  0  0  0  0  0  0  0  0
   -0.4191   -0.0196    1.9484 H   0  0  0  0  0  0  0  0  0  0  0  0
  1  9  1  0  0  0  0
  1 11  1  0  0  0  0
  2  1  1  0  0  0  0
  2  8  1  0  0  0  0
  3  2  1  0  0  0  0
  3 14  1  0  0  0  0
  4  5  1  0  0  0  0
  4  2  1  0  0  0  0
  5  6  1  0  0  0  0
  6  8  1  0  0  0  0
  6  7  2  0  0  0  0
  8 18  1  0  0  0  0
  8 19  1  0  0  0  0
 10  1  1  0  0  0  0
 12  3  1  0  0  0  0
 13  3  1  0  0  0  0
 15  4  1  0  0  0  0
 16  4  1  0  0  0  0
 17  7  1  0  0  0  0
M  END
