title
 OpenBabel02282109573D

 17 17  0  0  0  0  0  0  0  0999 V2000
   -0.8386    2.1723   -0.1125 C   0  0  0  0  0  0  0  0  0  0  0  0
   -0.7124    0.6581   -0.2008 C   0  0  0  0  0  0  0  0  0  0  0  0
   -2.0689   -0.0468   -0.1422 C   0  0  0  0  0  0  0  0  0  0  0  0
    0.1433    0.1776   -1.3887 C   0  0  0  0  0  0  0  0  0  0  0  0
    0.8950   -0.9071   -0.8430 O   0  0  0  0  0  0  0  0  0  0  0  0
    0.9178   -0.7838    0.5189 C   0  0  0  0  0  0  0  0  0  0  0  0
    1.5945   -1.4709    1.3255 N   0  0  0  0  0  0  0  0  0  0  0  0
    0.0890    0.2057    0.9174 O   0  0  0  0  0  0  0  0  0  0  0  0
    0.1488    2.6391   -0.0723 H   0  0  0  0  0  0  0  0  0  0  0  0
   -1.3751    2.5601   -0.9843 H   0  0  0  0  0  0  0  0  0  0  0  0
   -1.3935    2.4590    0.7847 H   0  0  0  0  0  0  0  0  0  0  0  0
   -2.7174    0.2996   -0.9532 H   0  0  0  0  0  0  0  0  0  0  0  0
   -1.9469   -1.1299   -0.2358 H   0  0  0  0  0  0  0  0  0  0  0  0
   -2.5608    0.1629    0.8109 H   0  0  0  0  0  0  0  0  0  0  0  0
   -0.4502   -0.1932   -2.2271 H   0  0  0  0  0  0  0  0  0  0  0  0
    0.8284    0.9569   -1.7437 H   0  0  0  0  0  0  0  0  0  0  0  0
    2.1810   -2.1268    0.8149 H   0  0  0  0  0  0  0  0  0  0  0  0
  1  9  1  0  0  0  0
  1 11  1  0  0  0  0
  2  3  1  0  0  0  0
  2  1  1  0  0  0  0
  2  8  1  0  0  0  0
  3 14  1  0  0  0  0
  4  5  1  0  0  0  0
  4  2  1  0  0  0  0
  5  6  1  0  0  0  0
  6  8  1  0  0  0  0
  6  7  2  0  0  0  0
 10  1  1  0  0  0  0
 12  3  1  0  0  0  0
 13  3  1  0  0  0  0
 15  4  1  0  0  0  0
 16  4  1  0  0  0  0
 17  7  1  0  0  0  0
M  END
