18
title
C -0.7534548 1.896038 -0.087311335
C -0.9601781 0.37390566 -0.17256245
C -2.4465976 0.038904667 -0.3163049
C -0.12276911 -0.2077829 -1.3360183
O 1.1931436 -0.4412385 -0.8118405
C 1.1552315 -0.55085784 0.5471046
O 2.1298764 -0.79271674 1.1959859
C -0.2768951 -0.32419458 1.0180451
H 0.3092413 2.1526165 -0.026100993
H -1.1694102 2.3963103 -0.9681637
H -1.2497908 2.3064902 0.79796326
H -2.8616266 0.47533593 -1.2318722
H -2.611203 -1.0430789 -0.3545095
H -3.0211196 0.43668774 0.5265011
H -0.5336098 -1.1603475 -1.693571
H -0.028189948 0.47433242 -2.1847146
H -0.28574073 0.24350595 1.9500946
H -0.72274375 -1.3052572 1.2225119
