title
 OpenBabel02282109573D

 16 16  0  0  0  0  0  0  0  0999 V2000
   -0.7552    1.9675   -0.0858 C   0  0  0  0  0  0  0  0  0  0  0  0
   -0.8675    0.4502   -0.2321 C   0  0  0  0  0  0  0  0  0  0  0  0
   -2.3119   -0.0295   -0.2546 C   0  0  0  0  0  0  0  0  0  0  0  0
   -0.0235   -0.0893   -1.4080 C   0  0  0  0  0  0  0  0  0  0  0  0
    1.2075   -0.4798   -0.8002 O   0  0  0  0  0  0  0  0  0  0  0  0
    1.0329   -0.6006    0.5436 C   0  0  0  0  0  0  0  0  0  0  0  0
    1.8497   -1.0293    1.2940 O   0  0  0  0  0  0  0  0  0  0  0  0
   -0.1989   -0.1631    0.8989 O   0  0  0  0  0  0  0  0  0  0  0  0
    0.2930    2.2810   -0.0942 H   0  0  0  0  0  0  0  0  0  0  0  0
   -1.2725    2.4698   -0.9094 H   0  0  0  0  0  0  0  0  0  0  0  0
   -1.2045    2.2913    0.8564 H   0  0  0  0  0  0  0  0  0  0  0  0
   -2.8234    0.3530   -1.1437 H   0  0  0  0  0  0  0  0  0  0  0  0
   -2.3550   -1.1216   -0.2702 H   0  0  0  0  0  0  0  0  0  0  0  0
   -2.8497    0.3262    0.6282 H   0  0  0  0  0  0  0  0  0  0  0  0
   -0.4836   -0.9637   -1.8820 H   0  0  0  0  0  0  0  0  0  0  0  0
    0.1833    0.6670   -2.1680 H   0  0  0  0  0  0  0  0  0  0  0  0
  1 11  1  0  0  0  0
  2  1  1  0  0  0  0
  2  8  1  0  0  0  0
  3  2  1  0  0  0  0
  3 14  1  0  0  0  0
  4  5  1  0  0  0  0
  4  2  1  0  0  0  0
  5  6  1  0  0  0  0
  6  8  1  0  0  0  0
  6  7  2  0  0  0  0
  9  1  1  0  0  0  0
 10  1  1  0  0  0  0
 12  3  1  0  0  0  0
 13  3  1  0  0  0  0
 15  4  1  0  0  0  0
 16  4  1  0  0  0  0
M  END
