17
title
C -0.9196081 2.064255 0.08167839
C -0.7247895 0.5791549 -0.16653146
C -2.032862 -0.18089709 -0.3806825
O 0.15588436 0.4106487 -1.2671348
C 1.0047697 -0.6864341 -0.98170096
C 0.9716228 -0.7980539 0.52727383
N 1.7383814 -1.5035877 1.2360499
O -0.034987178 0.003595925 0.9677404
H 0.048127566 2.5367928 0.26104385
H -1.3823355 2.5261595 -0.7940928
H -1.5653903 2.2254772 0.9482398
H -2.5622723 0.22781734 -1.2451854
H -1.8352472 -1.2409407 -0.5618768
H -2.6733136 -0.09506657 0.50089127
H 0.6505325 -1.6190587 -1.4441669
H 2.0104566 -0.47678456 -1.3523015
H 1.5012798 -1.4195187 2.225475
