16
title
C -0.6819506 1.9834075 -0.057379726
C -0.8081584 0.46823755 -0.1913101
C -2.243851 -0.021481236 -0.2512906
O -0.11620756 -0.000528117 -1.347416
C 1.1579554 -0.45322558 -0.94805145
C 1.0431852 -0.6676966 0.55517614
O 1.8196744 -1.1811792 1.3033828
O -0.15078188 -0.15002282 0.93530226
H 0.37065342 2.2781177 -0.028145079
H -1.1573712 2.4706724 -0.91231257
H -1.1633744 2.3273022 0.8615141
H -2.7304914 0.3811682 -1.1431836
H -2.2599988 -1.1120427 -0.30194524
H -2.7971764 0.30540532 0.6322675
H 1.4032661 -1.3892022 -1.4574156
H 1.9548148 0.2753353 -1.1580418
