title
 OpenBabel02282109573D

 17 17  0  0  1  0  0  0  0  0999 V2000
   -0.3185    2.0574   -0.1799 C   0  0  0  0  0  0  0  0  0  0  0  0
   -0.7833    0.5998   -0.2180 C   0  0  1  0  0  0  0  0  0  0  0  0
   -2.2000    0.5221   -0.2845 O   0  0  0  0  0  0  0  0  0  0  0  0
   -0.1046   -0.1740   -1.3909 C   0  0  0  0  0  0  0  0  0  0  0  0
    1.0787   -0.7336   -0.7677 N   0  0  0  0  0  0  0  0  0  0  0  0
    1.0086   -0.8413    0.5987 C   0  0  0  0  0  0  0  0  0  0  0  0
    1.8335   -1.3655    1.3123 O   0  0  0  0  0  0  0  0  0  0  0  0
   -0.3073   -0.1827    1.0167 C   0  0  0  0  0  0  0  0  0  0  0  0
    0.7724    2.1201   -0.1184 H   0  0  0  0  0  0  0  0  0  0  0  0
   -0.6316    2.5888   -1.0871 H   0  0  0  0  0  0  0  0  0  0  0  0
   -0.7467    2.5692    0.6865 H   0  0  0  0  0  0  0  0  0  0  0  0
   -2.5047    1.1344   -0.9629 H   0  0  0  0  0  0  0  0  0  0  0  0
   -0.7957   -0.9464   -1.7546 H   0  0  0  0  0  0  0  0  0  0  0  0
    0.1550    0.4827   -2.2290 H   0  0  0  0  0  0  0  0  0  0  0  0
    1.8029   -1.2175   -1.2752 H   0  0  0  0  0  0  0  0  0  0  0  0
   -0.1738    0.4294    1.9104 H   0  0  0  0  0  0  0  0  0  0  0  0
   -1.0319   -0.9695    1.2513 H   0  0  0  0  0  0  0  0  0  0  0  0
  1  9  1  0  0  0  0
  1 11  1  0  0  0  0
  2  3  1  6  0  0  0
  2  1  1  0  0  0  0
  2  8  1  0  0  0  0
  4  5  1  0  0  0  0
  4  2  1  0  0  0  0
  5  6  1  0  0  0  0
  6  8  1  0  0  0  0
  6  7  2  0  0  0  0
  8 17  1  0  0  0  0
  8 16  1  0  0  0  0
 10  1  1  0  0  0  0
 12  3  1  0  0  0  0
 13  4  1  0  0  0  0
 14  4  1  0  0  0  0
 15  5  1  0  0  0  0
M  END
