title
 OpenBabel02282109573D

 17 17  0  0  1  0  0  0  0  0999 V2000
   -0.2979    2.0204   -0.1036 C   0  0  0  0  0  0  0  0  0  0  0  0
   -0.7974    0.5766   -0.1782 C   0  0  1  0  0  0  0  0  0  0  0  0
   -2.2135    0.5247   -0.2510 O   0  0  0  0  0  0  0  0  0  0  0  0
   -0.1275   -0.2016   -1.3379 C   0  0  0  0  0  0  0  0  0  0  0  0
    1.0889   -0.7356   -0.8004 O   0  0  0  0  0  0  0  0  0  0  0  0
    1.0045   -0.8159    0.5673 C   0  0  0  0  0  0  0  0  0  0  0  0
    1.9139   -1.2734    1.3116 N   0  0  0  0  0  0  0  0  0  0  0  0
   -0.3267   -0.2636    1.0178 C   0  0  0  0  0  0  0  0  0  0  0  0
    0.7936    2.0562   -0.0325 H   0  0  0  0  0  0  0  0  0  0  0  0
   -0.5894    2.5792   -1.0014 H   0  0  0  0  0  0  0  0  0  0  0  0
   -0.7199    2.5237    0.7708 H   0  0  0  0  0  0  0  0  0  0  0  0
   -2.5097    1.1924   -0.8784 H   0  0  0  0  0  0  0  0  0  0  0  0
   -0.7877   -1.0161   -1.6592 H   0  0  0  0  0  0  0  0  0  0  0  0
    0.1294    0.4189   -2.2013 H   0  0  0  0  0  0  0  0  0  0  0  0
    2.7051   -1.5953    0.7508 H   0  0  0  0  0  0  0  0  0  0  0  0
   -0.2368    0.2868    1.9545 H   0  0  0  0  0  0  0  0  0  0  0  0
   -1.0355   -1.0847    1.1708 H   0  0  0  0  0  0  0  0  0  0  0  0
  1  9  1  0  0  0  0
  1 11  1  0  0  0  0
  2  3  1  6  0  0  0
  2  1  1  0  0  0  0
  2  8  1  0  0  0  0
  4  5  1  0  0  0  0
  4  2  1  0  0  0  0
  5  6  1  0  0  0  0
  6  8  1  0  0  0  0
  6  7  2  0  0  0  0
  8 17  1  0  0  0  0
  8 16  1  0  0  0  0
 10  1  1  0  0  0  0
 12  3  1  0  0  0  0
 13  4  1  0  0  0  0
 14  4  1  0  0  0  0
 15  7  1  0  0  0  0
M  END
