16
title
C -0.72120786 1.9423977 -0.10018547
C -0.90347874 0.42605934 -0.18402289
O -2.2755594 0.07605732 -0.2739277
C -0.07429625 -0.18562773 -1.3436024
O 1.2131051 -0.49807963 -0.7951018
C 1.1410557 -0.6127198 0.56420684
O 2.087489 -0.9142364 1.228
C -0.27928835 -0.29841265 1.0126116
H 0.33751303 2.2088966 -0.021040399
H -1.1174048 2.4303195 -0.9990151
H -1.2470143 2.3411977 0.771764
H -2.6970253 0.658141 -0.9151356
H -0.55895615 -1.1028241 -1.6962767
H 0.07611661 0.49405167 -2.1867232
H -0.2758947 0.26675105 1.9453025
H -0.81071824 -1.2405288 1.1855468
