18
title
C -0.6614085 2.2014253 -0.20590816
C -0.7225303 0.67005396 -0.21328634
C -2.1816008 0.18966624 -0.23524317
C 0.099265225 0.06153551 -1.3950751
O 0.97321457 -0.9015923 -0.7744248
C 0.8102539 -0.71539384 0.5653904
N 1.5903647 -1.5417213 1.3296199
N -0.04598605 0.13058564 0.9819029
H 0.3759386 2.5461586 -0.15822208
H -1.1251416 2.619994 -1.1065164
H -1.1887869 2.5965397 0.66687787
H -2.7138076 0.5833048 -1.1088958
H -2.227997 -0.90337497 -0.26608652
H -2.7012045 0.5237961 0.66704154
H -0.5157282 -0.4606795 -2.1328912
H 0.71663076 0.8068449 -1.9086525
H 2.4635305 -1.818536 0.9078993
H 1.6575279 -1.2594972 2.2949183
