title
 OpenBabel02282109573D

 22 22  0  0  0  0  0  0  0  0999 V2000
   -0.0110    2.8302    0.3403 C   0  0  0  0  0  0  0  0  0  0  0  0
    0.0140    1.3346    0.3007 C   0  0  0  0  0  0  0  0  0  0  0  0
   -0.3187    0.5427   -0.7197 C   0  0  0  0  0  0  0  0  0  0  0  0
   -0.1158   -0.9349   -0.4393 C   0  0  0  0  0  0  0  0  0  0  0  0
   -1.3326   -1.7808   -0.8478 C   0  0  0  0  0  0  0  0  0  0  0  0
    1.1374   -1.4487   -1.1799 C   0  0  0  0  0  0  0  0  0  0  0  0
    0.0995   -0.9305    1.1066 C   0  0  0  0  0  0  0  0  0  0  0  0
    0.4965    0.5166    1.4822 C   0  0  0  0  0  0  0  0  0  0  0  0
    0.9885    3.2379    0.5412 H   0  0  0  0  0  0  0  0  0  0  0  0
   -0.3669    3.2556   -0.6021 H   0  0  0  0  0  0  0  0  0  0  0  0
   -0.6603    3.1954    1.1466 H   0  0  0  0  0  0  0  0  0  0  0  0
   -0.6595    0.8959   -1.6893 H   0  0  0  0  0  0  0  0  0  0  0  0
   -1.4886   -1.7537   -1.9324 H   0  0  0  0  0  0  0  0  0  0  0  0
   -1.1956   -2.8298   -0.5603 H   0  0  0  0  0  0  0  0  0  0  0  0
   -2.2460   -1.4148   -0.3679 H   0  0  0  0  0  0  0  0  0  0  0  0
    2.0328   -0.9017   -0.8676 H   0  0  0  0  0  0  0  0  0  0  0  0
    1.3013   -2.5141   -0.9801 H   0  0  0  0  0  0  0  0  0  0  0  0
    1.0337   -1.3247   -2.2637 H   0  0  0  0  0  0  0  0  0  0  0  0
   -0.8434   -1.1871    1.6008 H   0  0  0  0  0  0  0  0  0  0  0  0
    0.8390   -1.6721    1.4231 H   0  0  0  0  0  0  0  0  0  0  0  0
    1.5828    0.6324    1.6089 H   0  0  0  0  0  0  0  0  0  0  0  0
    0.0489    0.8417    2.4296 H   0  0  0  0  0  0  0  0  0  0  0  0
  1  9  1  0  0  0  0
  1 11  1  0  0  0  0
  2  1  1  0  0  0  0
  2  8  1  0  0  0  0
  3  4  1  0  0  0  0
  3  2  2  0  0  0  0
  4  7  1  0  0  0  0
  5 14  1  0  0  0  0
  5  4  1  0  0  0  0
  5 15  1  0  0  0  0
  6 17  1  0  0  0  0
  6 16  1  0  0  0  0
  6  4  1  0  0  0  0
  7 20  1  0  0  0  0
  7  8  1  0  0  0  0
  7 19  1  0  0  0  0
  8 21  1  0  0  0  0
  8 22  1  0  0  0  0
 10  1  1  0  0  0  0
 12  3  1  0  0  0  0
 13  5  1  0  0  0  0
 18  6  1  0  0  0  0
M  END
