20
title
C 0.23630215 2.847615 -0.05162764
C 0.19585238 1.353827 -0.042655066
C -0.83140224 0.5398596 0.18033406
C -0.41383123 -0.9084029 0.089902535
C -0.583634 -1.6565502 1.4204782
C -1.1197557 -1.6568258 -1.050503
O 0.99625486 -0.83538795 -0.21604323
C 1.4211518 0.51531434 -0.3084118
H 0.94483143 3.229619 0.6942133
H 0.5717365 3.2293978 -1.0242258
H -0.74573797 3.2771206 0.1615272
H -1.849619 0.8382393 0.4012287
H -1.6416495 -1.7409782 1.6906278
H -0.16815907 -2.6658025 1.3405582
H -0.06192398 -1.1294746 2.223628
H -0.97779614 -1.1299617 -1.9977633
H -0.7085007 -2.6660943 -1.1497188
H -2.1945968 -1.7412279 -0.85789174
H 1.847578 0.7137274 -1.3060819
H 2.2226982 0.7139503 0.4227649
