title
 OpenBabel02282109573D

 20 20  0  0  1  0  0  0  0  0999 V2000
   -0.0123    2.8415    0.3810 C   0  0  0  0  0  0  0  0  0  0  0  0
   -0.0498    1.3478    0.3160 C   0  0  0  0  0  0  0  0  0  0  0  0
   -0.0820    0.5824   -0.7767 C   0  0  0  0  0  0  0  0  0  0  0  0
   -0.0279   -0.8988   -0.4629 C   0  0  1  0  0  0  0  0  0  0  0  0
   -0.9916   -1.7503   -1.2924 C   0  0  0  0  0  0  0  0  0  0  0  0
    1.3134   -1.4051   -0.6267 O   0  0  0  0  0  0  0  0  0  0  0  0
   -0.3199   -0.9252    1.0564 C   0  0  0  0  0  0  0  0  0  0  0  0
   -0.0103    0.4983    1.5703 C   0  0  0  0  0  0  0  0  0  0  0  0
    0.8915    3.1889    0.8982 H   0  0  0  0  0  0  0  0  0  0  0  0
   -0.0294    3.2937   -0.6143 H   0  0  0  0  0  0  0  0  0  0  0  0
   -0.8640    3.2344    0.9508 H   0  0  0  0  0  0  0  0  0  0  0  0
   -0.0883    0.9546   -1.7978 H   0  0  0  0  0  0  0  0  0  0  0  0
   -0.7402   -1.6928   -2.3584 H   0  0  0  0  0  0  0  0  0  0  0  0
   -0.9282   -2.7998   -0.9887 H   0  0  0  0  0  0  0  0  0  0  0  0
   -2.0254   -1.4103   -1.1744 H   0  0  0  0  0  0  0  0  0  0  0  0
    1.5887   -1.2126   -1.5295 H   0  0  0  0  0  0  0  0  0  0  0  0
   -1.3767   -1.1566    1.2189 H   0  0  0  0  0  0  0  0  0  0  0  0
    0.2725   -1.7040    1.5415 H   0  0  0  0  0  0  0  0  0  0  0  0
    0.9808    0.5636    2.0395 H   0  0  0  0  0  0  0  0  0  0  0  0
   -0.7288    0.8379    2.3262 H   0  0  0  0  0  0  0  0  0  0  0  0
  1  9  1  0  0  0  0
  1 11  1  0  0  0  0
  2  1  1  0  0  0  0
  2  8  1  0  0  0  0
  3  4  1  0  0  0  0
  3  2  2  0  0  0  0
  4  6  1  6  0  0  0
  4  7  1  0  0  0  0
  5 15  1  0  0  0  0
  5 14  1  0  0  0  0
  5  4  1  0  0  0  0
  7 17  1  0  0  0  0
  7 18  1  0  0  0  0
  7  8  1  0  0  0  0
  8 19  1  0  0  0  0
  8 20  1  0  0  0  0
 10  1  1  0  0  0  0
 12  3  1  0  0  0  0
 13  5  1  0  0  0  0
 16  6  1  0  0  0  0
M  END
