title
 OpenBabel02282109573D

 19 19  0  0  0  0  0  0  0  0999 V2000
    0.2654    2.7028    0.0191 C   0  0  0  0  0  0  0  0  0  0  0  0
    0.2009    1.2137   -0.0139 C   0  0  0  0  0  0  0  0  0  0  0  0
   -0.8120    0.4928    0.2431 N   0  0  0  0  0  0  0  0  0  0  0  0
   -0.4037   -0.9199    0.0807 C   0  0  0  0  0  0  0  0  0  0  0  0
   -0.5821   -1.6547    1.4151 C   0  0  0  0  0  0  0  0  0  0  0  0
   -1.2580   -1.5707   -1.0144 C   0  0  0  0  0  0  0  0  0  0  0  0
    1.0978   -0.8130   -0.3334 C   0  0  0  0  0  0  0  0  0  0  0  0
    1.3700    0.6016   -0.3604 O   0  0  0  0  0  0  0  0  0  0  0  0
    1.0281    3.0332    0.7312 H   0  0  0  0  0  0  0  0  0  0  0  0
    0.5496    3.0914   -0.9639 H   0  0  0  0  0  0  0  0  0  0  0  0
   -0.7047    3.1063    0.3066 H   0  0  0  0  0  0  0  0  0  0  0  0
   -1.6298   -1.6267    1.7268 H   0  0  0  0  0  0  0  0  0  0  0  0
   -0.2742   -2.7028    1.3280 H   0  0  0  0  0  0  0  0  0  0  0  0
    0.0174   -1.1840    2.2002 H   0  0  0  0  0  0  0  0  0  0  0  0
   -1.1413   -1.0400   -1.9641 H   0  0  0  0  0  0  0  0  0  0  0  0
   -0.9681   -2.6166   -1.1660 H   0  0  0  0  0  0  0  0  0  0  0  0
   -2.3157   -1.5415   -0.7382 H   0  0  0  0  0  0  0  0  0  0  0  0
    1.7771   -1.2809    0.3859 H   0  0  0  0  0  0  0  0  0  0  0  0
    1.3001   -1.2218   -1.3284 H   0  0  0  0  0  0  0  0  0  0  0  0
  1 11  1  0  0  0  0
  1  9  1  0  0  0  0
  2  1  1  0  0  0  0
  2  3  2  0  0  0  0
  4  3  1  0  0  0  0
  4  5  1  0  0  0  0
  5 12  1  0  0  0  0
  5 14  1  0  0  0  0
  6 17  1  0  0  0  0
  6  4  1  0  0  0  0
  7  4  1  0  0  0  0
  7 18  1  0  0  0  0
  8  7  1  0  0  0  0
  8  2  1  0  0  0  0
 10  1  1  0  0  0  0
 13  5  1  0  0  0  0
 15  6  1  0  0  0  0
 16  6  1  0  0  0  0
 19  7  1  0  0  0  0
M  END
