title
 OpenBabel02282109573D

 22 22  0  0  0  0  0  0  0  0999 V2000
   -0.8418    2.7226   -0.2004 C   0  0  0  0  0  0  0  0  0  0  0  0
   -0.3857    1.3038   -0.3331 C   0  0  0  0  0  0  0  0  0  0  0  0
   -0.5075    0.5082   -1.3978 C   0  0  0  0  0  0  0  0  0  0  0  0
    0.1104   -0.8487   -1.1816 C   0  0  0  0  0  0  0  0  0  0  0  0
    0.3601   -0.9065    0.3600 C   0  0  0  0  0  0  0  0  0  0  0  0
   -0.8133   -1.6370    1.0351 C   0  0  0  0  0  0  0  0  0  0  0  0
    1.6794   -1.6021    0.7121 C   0  0  0  0  0  0  0  0  0  0  0  0
    0.3455    0.5937    0.7858 C   0  0  0  0  0  0  0  0  0  0  0  0
    0.0010    3.3927    0.0147 H   0  0  0  0  0  0  0  0  0  0  0  0
   -1.3314    3.0772   -1.1117 H   0  0  0  0  0  0  0  0  0  0  0  0
   -1.5471    2.8378    0.6328 H   0  0  0  0  0  0  0  0  0  0  0  0
   -0.9681    0.8012   -2.3362 H   0  0  0  0  0  0  0  0  0  0  0  0
   -0.5295   -1.6732   -1.5209 H   0  0  0  0  0  0  0  0  0  0  0  0
    1.0518   -0.9444   -1.7426 H   0  0  0  0  0  0  0  0  0  0  0  0
   -0.8677   -2.6813    0.7078 H   0  0  0  0  0  0  0  0  0  0  0  0
   -0.7057   -1.6323    2.1256 H   0  0  0  0  0  0  0  0  0  0  0  0
   -1.7657   -1.1562    0.7879 H   0  0  0  0  0  0  0  0  0  0  0  0
    2.5315   -1.0968    0.2447 H   0  0  0  0  0  0  0  0  0  0  0  0
    1.8482   -1.6092    1.7951 H   0  0  0  0  0  0  0  0  0  0  0  0
    1.6812   -2.6439    0.3713 H   0  0  0  0  0  0  0  0  0  0  0  0
    1.3653    0.9941    0.8882 H   0  0  0  0  0  0  0  0  0  0  0  0
   -0.1343    0.7390    1.7630 H   0  0  0  0  0  0  0  0  0  0  0  0
  1  9  1  0  0  0  0
  1 11  1  0  0  0  0
  2  1  1  0  0  0  0
  2  8  1  0  0  0  0
  3  4  1  0  0  0  0
  3  2  2  0  0  0  0
  4  5  1  0  0  0  0
  5  7  1  0  0  0  0
  5  8  1  0  0  0  0
  5  6  1  0  0  0  0
  6 16  1  0  0  0  0
  7 19  1  0  0  0  0
  8 21  1  0  0  0  0
  8 22  1  0  0  0  0
 10  1  1  0  0  0  0
 12  3  1  0  0  0  0
 13  4  1  0  0  0  0
 14  4  1  0  0  0  0
 15  6  1  0  0  0  0
 17  6  1  0  0  0  0
 18  7  1  0  0  0  0
 20  7  1  0  0  0  0
M  END
