title
 OpenBabel02282109573D

 19 19  0  0  0  0  0  0  0  0999 V2000
   -0.5263    2.6295   -0.2397 C   0  0  0  0  0  0  0  0  0  0  0  0
   -0.3123    1.1620   -0.3949 C   0  0  0  0  0  0  0  0  0  0  0  0
   -0.4859    0.4861   -1.4578 N   0  0  0  0  0  0  0  0  0  0  0  0
   -0.1519   -0.9017   -1.1245 C   0  0  0  0  0  0  0  0  0  0  0  0
    0.2605   -0.8906    0.3802 C   0  0  0  0  0  0  0  0  0  0  0  0
   -0.6869   -1.6915    1.2684 C   0  0  0  0  0  0  0  0  0  0  0  0
    1.7218   -1.2678    0.6049 C   0  0  0  0  0  0  0  0  0  0  0  0
    0.1082    0.5220    0.7291 O   0  0  0  0  0  0  0  0  0  0  0  0
    0.4016    3.1172    0.0754 H   0  0  0  0  0  0  0  0  0  0  0  0
   -0.8603    3.0535   -1.1860 H   0  0  0  0  0  0  0  0  0  0  0  0
   -1.2742    2.8240    0.5355 H   0  0  0  0  0  0  0  0  0  0  0  0
   -1.0163   -1.5510   -1.3073 H   0  0  0  0  0  0  0  0  0  0  0  0
    0.6601   -1.2586   -1.7690 H   0  0  0  0  0  0  0  0  0  0  0  0
   -0.6188   -2.7581    1.0303 H   0  0  0  0  0  0  0  0  0  0  0  0
   -0.4393   -1.5584    2.3258 H   0  0  0  0  0  0  0  0  0  0  0  0
   -1.7213   -1.3716    1.1125 H   0  0  0  0  0  0  0  0  0  0  0  0
    2.3771   -0.6509   -0.0169 H   0  0  0  0  0  0  0  0  0  0  0  0
    2.0061   -1.1278    1.6520 H   0  0  0  0  0  0  0  0  0  0  0  0
    1.8872   -2.3174    0.3404 H   0  0  0  0  0  0  0  0  0  0  0  0
  1  9  1  0  0  0  0
  1 11  1  0  0  0  0
  2  1  1  0  0  0  0
  2  8  1  0  0  0  0
  3  4  1  0  0  0  0
  3  2  2  0  0  0  0
  4  5  1  0  0  0  0
  5  7  1  0  0  0  0
  5  8  1  0  0  0  0
  5  6  1  0  0  0  0
  6 15  1  0  0  0  0
  7 18  1  0  0  0  0
 10  1  1  0  0  0  0
 12  4  1  0  0  0  0
 13  4  1  0  0  0  0
 14  6  1  0  0  0  0
 16  6  1  0  0  0  0
 17  7  1  0  0  0  0
 19  7  1  0  0  0  0
M  END
