title
 OpenBabel02282109573D

 22 22  0  0  1  0  0  0  0  0999 V2000
   -1.0582    2.5719    0.2759 C   0  0  0  0  0  0  0  0  0  0  0  0
   -1.0203    1.0394    0.3002 C   0  0  1  0  0  0  0  0  0  0  0  0
   -0.2787    0.4102   -0.9099 C   0  0  0  0  0  0  0  0  0  0  0  0
    0.4876   -0.8380   -0.3747 C   0  0  0  0  0  0  0  0  0  0  0  0
   -0.3091   -2.1372   -0.6201 C   0  0  0  0  0  0  0  0  0  0  0  0
    1.8866   -0.9702   -0.9969 C   0  0  0  0  0  0  0  0  0  0  0  0
    0.5444   -0.5386    1.1139 C   0  0  0  0  0  0  0  0  0  0  0  0
   -0.2672    0.4516    1.4748 C   0  0  0  0  0  0  0  0  0  0  0  0
   -0.0439    2.9862    0.2641 H   0  0  0  0  0  0  0  0  0  0  0  0
   -1.5827    2.9389   -0.6128 H   0  0  0  0  0  0  0  0  0  0  0  0
   -1.5739    2.9720    1.1557 H   0  0  0  0  0  0  0  0  0  0  0  0
   -2.0615    0.6828    0.3312 H   0  0  0  0  0  0  0  0  0  0  0  0
   -0.9524    0.1610   -1.7355 H   0  0  0  0  0  0  0  0  0  0  0  0
    0.4446    1.1386   -1.2954 H   0  0  0  0  0  0  0  0  0  0  0  0
   -0.3705   -2.3601   -1.6916 H   0  0  0  0  0  0  0  0  0  0  0  0
    0.1685   -2.9923   -0.1288 H   0  0  0  0  0  0  0  0  0  0  0  0
   -1.3284   -2.0561   -0.2295 H   0  0  0  0  0  0  0  0  0  0  0  0
    2.4895   -0.0770   -0.8040 H   0  0  0  0  0  0  0  0  0  0  0  0
    2.4235   -1.8336   -0.5872 H   0  0  0  0  0  0  0  0  0  0  0  0
    1.8217   -1.1069   -2.0825 H   0  0  0  0  0  0  0  0  0  0  0  0
    1.1594   -1.1265    1.7891 H   0  0  0  0  0  0  0  0  0  0  0  0
   -0.4170    0.8026    2.4913 H   0  0  0  0  0  0  0  0  0  0  0  0
  1  2  1  0  0  0  0
  1 11  1  0  0  0  0
  2 12  1  1  0  0  0
  2  8  1  0  0  0  0
  3  4  1  0  0  0  0
  3  2  1  0  0  0  0
  4  7  1  0  0  0  0
  5  4  1  0  0  0  0
  5 17  1  0  0  0  0
  5 16  1  0  0  0  0
  6 18  1  0  0  0  0
  6 19  1  0  0  0  0
  6  4  1  0  0  0  0
  7  8  2  0  0  0  0
  7 21  1  0  0  0  0
  8 22  1  0  0  0  0
  9  1  1  0  0  0  0
 10  1  1  0  0  0  0
 13  3  1  0  0  0  0
 14  3  1  0  0  0  0
 15  5  1  0  0  0  0
 20  6  1  0  0  0  0
M  END
