title
 OpenBabel02282109573D

 20 20  0  0  1  0  0  0  0  0999 V2000
   -1.0180    2.6016    0.2441 C   0  0  0  0  0  0  0  0  0  0  0  0
   -1.0225    1.0694    0.3049 C   0  0  1  0  0  0  0  0  0  0  0  0
   -0.3245    0.3871   -0.9005 C   0  0  0  0  0  0  0  0  0  0  0  0
    0.4400   -0.8395   -0.3434 C   0  0  1  0  0  0  0  0  0  0  0  0
   -0.2788   -2.1707   -0.6023 C   0  0  0  0  0  0  0  0  0  0  0  0
    1.7286   -0.8594   -0.9710 O   0  0  0  0  0  0  0  0  0  0  0  0
    0.5191   -0.5213    1.1388 C   0  0  0  0  0  0  0  0  0  0  0  0
   -0.2679    0.4935    1.4834 C   0  0  0  0  0  0  0  0  0  0  0  0
    0.0069    2.9862    0.2050 H   0  0  0  0  0  0  0  0  0  0  0  0
   -1.5475    2.9613   -0.6444 H   0  0  0  0  0  0  0  0  0  0  0  0
   -1.5080    3.0358    1.1224 H   0  0  0  0  0  0  0  0  0  0  0  0
   -2.0720    0.7421    0.3614 H   0  0  0  0  0  0  0  0  0  0  0  0
   -1.0187    0.1193   -1.7017 H   0  0  0  0  0  0  0  0  0  0  0  0
    0.4241    1.0640   -1.3227 H   0  0  0  0  0  0  0  0  0  0  0  0
   -0.3107   -2.3771   -1.6768 H   0  0  0  0  0  0  0  0  0  0  0  0
    0.2410   -3.0010   -0.1078 H   0  0  0  0  0  0  0  0  0  0  0  0
   -1.3029   -2.1490   -0.2169 H   0  0  0  0  0  0  0  0  0  0  0  0
    2.1772   -1.6677   -0.7005 H   0  0  0  0  0  0  0  0  0  0  0  0
    1.1354   -1.1072    1.8142 H   0  0  0  0  0  0  0  0  0  0  0  0
   -0.3948    0.8773    2.4913 H   0  0  0  0  0  0  0  0  0  0  0  0
  1  2  1  0  0  0  0
  1 11  1  0  0  0  0
  2 12  1  1  0  0  0
  2  8  1  0  0  0  0
  3  4  1  0  0  0  0
  3  2  1  0  0  0  0
  4  6  1  6  0  0  0
  4  7  1  0  0  0  0
  5  4  1  0  0  0  0
  5 17  1  0  0  0  0
  5 16  1  0  0  0  0
  6 18  1  0  0  0  0
  7  8  2  0  0  0  0
  7 19  1  0  0  0  0
  8 20  1  0  0  0  0
  9  1  1  0  0  0  0
 10  1  1  0  0  0  0
 13  3  1  0  0  0  0
 14  3  1  0  0  0  0
 15  5  1  0  0  0  0
M  END
