20
title
C -0.6390874 2.5101902 0.17406878
C -0.93197256 1.0235957 0.38241962
O -0.48292667 0.27324015 -0.74924177
C 0.37457514 -0.81616426 -0.35319838
C -0.3158087 -2.144215 -0.70310575
C 1.7077774 -0.6816058 -1.1014862
C 0.5197165 -0.6250799 1.1396936
C -0.21775591 0.39724606 1.5516555
H 0.43882525 2.6827993 0.10382337
H -1.1083958 2.857762 -0.75062126
H -1.036795 3.1027331 1.0050809
H -2.0240817 0.8972809 0.4843492
H -0.49697044 -2.1998842 -1.7808473
H 0.30537057 -2.99889 -0.4145541
H -1.2755738 -2.2239943 -0.18571883
H 2.1872814 0.26985288 -0.8579524
H 2.3904603 -1.4953951 -0.83502513
H 1.53675 -0.7173495 -2.1816883
H 1.1427191 -1.2680305 1.7496345
H -0.32195193 0.7603048 2.5668566
