title
 OpenBabel02282109573D

 20 20  0  0  1  0  0  0  0  0999 V2000
   -0.6391    2.5102    0.1741 C   0  0  0  0  0  0  0  0  0  0  0  0
   -0.9320    1.0236    0.3824 C   0  0  1  0  0  0  0  0  0  0  0  0
   -0.4829    0.2732   -0.7492 O   0  0  0  0  0  0  0  0  0  0  0  0
    0.3746   -0.8162   -0.3532 C   0  0  0  0  0  0  0  0  0  0  0  0
   -0.3158   -2.1442   -0.7031 C   0  0  0  0  0  0  0  0  0  0  0  0
    1.7078   -0.6816   -1.1015 C   0  0  0  0  0  0  0  0  0  0  0  0
    0.5197   -0.6251    1.1397 C   0  0  0  0  0  0  0  0  0  0  0  0
   -0.2178    0.3972    1.5517 C   0  0  0  0  0  0  0  0  0  0  0  0
    0.4388    2.6828    0.1038 H   0  0  0  0  0  0  0  0  0  0  0  0
   -1.1084    2.8578   -0.7506 H   0  0  0  0  0  0  0  0  0  0  0  0
   -1.0368    3.1027    1.0051 H   0  0  0  0  0  0  0  0  0  0  0  0
   -2.0241    0.8973    0.4843 H   0  0  0  0  0  0  0  0  0  0  0  0
   -0.4970   -2.1999   -1.7808 H   0  0  0  0  0  0  0  0  0  0  0  0
    0.3054   -2.9989   -0.4146 H   0  0  0  0  0  0  0  0  0  0  0  0
   -1.2756   -2.2240   -0.1857 H   0  0  0  0  0  0  0  0  0  0  0  0
    2.1873    0.2699   -0.8580 H   0  0  0  0  0  0  0  0  0  0  0  0
    2.3905   -1.4954   -0.8350 H   0  0  0  0  0  0  0  0  0  0  0  0
    1.5368   -0.7173   -2.1817 H   0  0  0  0  0  0  0  0  0  0  0  0
    1.1427   -1.2680    1.7496 H   0  0  0  0  0  0  0  0  0  0  0  0
   -0.3220    0.7603    2.5669 H   0  0  0  0  0  0  0  0  0  0  0  0
  1  2  1  0  0  0  0
  1 11  1  0  0  0  0
  2 12  1  1  0  0  0
  2  8  1  0  0  0  0
  3  4  1  0  0  0  0
  3  2  1  0  0  0  0
  4  7  1  0  0  0  0
  5 14  1  0  0  0  0
  5  4  1  0  0  0  0
  5 15  1  0  0  0  0
  6 16  1  0  0  0  0
  6 17  1  0  0  0  0
  6  4  1  0  0  0  0
  7  8  2  0  0  0  0
  7 19  1  0  0  0  0
  8 20  1  0  0  0  0
  9  1  1  0  0  0  0
 10  1  1  0  0  0  0
 13  5  1  0  0  0  0
 18  6  1  0  0  0  0
M  END
