title
 OpenBabel02282109573D

 20 20  0  0  1  0  0  0  0  0999 V2000
   -0.7735    1.8016   -0.1870 C   0  0  0  0  0  0  0  0  0  0  0  0
   -0.8818    0.3011    0.1020 C   0  0  0  0  0  0  0  0  0  0  0  0
   -2.3208   -0.0975    0.4365 C   0  0  0  0  0  0  0  0  0  0  0  0
   -0.2790   -0.5635   -1.0361 C   0  0  0  0  0  0  0  0  0  0  0  0
    1.1456   -0.8602   -0.5660 C   0  0  1  0  0  0  0  0  0  0  0  0
    1.9720    0.2261   -0.9694 O   0  0  0  0  0  0  0  0  0  0  0  0
    0.9410   -0.9260    0.9505 C   0  0  0  0  0  0  0  0  0  0  0  0
   -0.0557    0.0270    1.2618 O   0  0  0  0  0  0  0  0  0  0  0  0
    0.2556    2.0562   -0.4476 H   0  0  0  0  0  0  0  0  0  0  0  0
   -1.4293    2.0885   -1.0161 H   0  0  0  0  0  0  0  0  0  0  0  0
   -1.0672    2.3744    0.6977 H   0  0  0  0  0  0  0  0  0  0  0  0
   -2.9813    0.0702   -0.4212 H   0  0  0  0  0  0  0  0  0  0  0  0
   -2.3758   -1.1556    0.7109 H   0  0  0  0  0  0  0  0  0  0  0  0
   -2.6952    0.4933    1.2777 H   0  0  0  0  0  0  0  0  0  0  0  0
   -0.8323   -1.5018   -1.1418 H   0  0  0  0  0  0  0  0  0  0  0  0
   -0.2795   -0.0542   -2.0016 H   0  0  0  0  0  0  0  0  0  0  0  0
    1.5319   -1.8085   -0.9662 H   0  0  0  0  0  0  0  0  0  0  0  0
    2.8146    0.1501   -0.5105 H   0  0  0  0  0  0  0  0  0  0  0  0
    0.6303   -1.9439    1.2421 H   0  0  0  0  0  0  0  0  0  0  0  0
    1.8514   -0.6820    1.5129 H   0  0  0  0  0  0  0  0  0  0  0  0
  1  2  1  0  0  0  0
  1 11  1  0  0  0  0
  2  3  1  0  0  0  0
  2  8  1  0  0  0  0
  3 13  1  0  0  0  0
  3 14  1  0  0  0  0
  4  5  1  0  0  0  0
  4  2  1  0  0  0  0
  5 17  1  6  0  0  0
  5  7  1  0  0  0  0
  6  5  1  0  0  0  0
  6 18  1  0  0  0  0
  7 19  1  0  0  0  0
  7  8  1  0  0  0  0
  7 20  1  0  0  0  0
  9  1  1  0  0  0  0
 10  1  1  0  0  0  0
 12  3  1  0  0  0  0
 15  4  1  0  0  0  0
 16  4  1  0  0  0  0
M  END
