title
 OpenBabel02282109573D

 22 22  0  0  1  0  0  0  0  0999 V2000
   -1.2523    2.3587    0.5223 C   0  0  0  0  0  0  0  0  0  0  0  0
   -1.0866    0.8922    0.1422 C   0  0  1  0  0  0  0  0  0  0  0  0
    0.0133    0.6200   -0.9018 C   0  0  0  0  0  0  0  0  0  0  0  0
    0.6504   -0.7101   -0.4392 C   0  0  0  0  0  0  0  0  0  0  0  0
   -0.1834   -1.9128   -0.9141 C   0  0  0  0  0  0  0  0  0  0  0  0
    2.1082   -0.8629   -0.8803 C   0  0  0  0  0  0  0  0  0  0  0  0
    0.5104   -0.5340    1.0845 C   0  0  0  0  0  0  0  0  0  0  0  0
   -0.7318    0.1186    1.3018 O   0  0  0  0  0  0  0  0  0  0  0  0
   -0.3080    2.7711    0.8932 H   0  0  0  0  0  0  0  0  0  0  0  0
   -1.5699    2.9489   -0.3445 H   0  0  0  0  0  0  0  0  0  0  0  0
   -2.0060    2.4688    1.3072 H   0  0  0  0  0  0  0  0  0  0  0  0
   -2.0528    0.5092   -0.2167 H   0  0  0  0  0  0  0  0  0  0  0  0
   -0.3818    0.5723   -1.9206 H   0  0  0  0  0  0  0  0  0  0  0  0
    0.7624    1.4204   -0.8746 H   0  0  0  0  0  0  0  0  0  0  0  0
   -0.2101   -1.9654   -2.0080 H   0  0  0  0  0  0  0  0  0  0  0  0
    0.2433   -2.8522   -0.5458 H   0  0  0  0  0  0  0  0  0  0  0  0
   -1.2138   -1.8521   -0.5516 H   0  0  0  0  0  0  0  0  0  0  0  0
    2.7152   -0.0119   -0.5532 H   0  0  0  0  0  0  0  0  0  0  0  0
    2.5540   -1.7732   -0.4634 H   0  0  0  0  0  0  0  0  0  0  0  0
    2.1857   -0.9309   -1.9709 H   0  0  0  0  0  0  0  0  0  0  0  0
    0.4966   -1.4848    1.6289 H   0  0  0  0  0  0  0  0  0  0  0  0
    1.3445    0.0702    1.4788 H   0  0  0  0  0  0  0  0  0  0  0  0
  1  9  1  0  0  0  0
  1 11  1  0  0  0  0
  2 12  1  6  0  0  0
  2  1  1  0  0  0  0
  2  8  1  0  0  0  0
  3 14  1  0  0  0  0
  3  4  1  0  0  0  0
  3  2  1  0  0  0  0
  4  7  1  0  0  0  0
  5 17  1  0  0  0  0
  5 16  1  0  0  0  0
  5  4  1  0  0  0  0
  6 18  1  0  0  0  0
  6 19  1  0  0  0  0
  6  4  1  0  0  0  0
  7  8  1  0  0  0  0
  7 22  1  0  0  0  0
  7 21  1  0  0  0  0
 10  1  1  0  0  0  0
 13  3  1  0  0  0  0
 15  5  1  0  0  0  0
 20  6  1  0  0  0  0
M  END
