22
title
C -1.2523012 2.3587453 0.52234334
C -1.0865788 0.89222234 0.14218928
C 0.013279588 0.6199988 -0.9018485
C 0.65038687 -0.71008706 -0.43921277
C -0.18342623 -1.9128002 -0.9141112
C 2.1081839 -0.86292136 -0.8803484
C 0.5104268 -0.5339557 1.0844612
O -0.7318011 0.11860422 1.3018165
H -0.30801204 2.7711198 0.89319557
H -1.5698677 2.9488828 -0.34445092
H -2.005951 2.4687781 1.3071988
H -2.0527503 0.5092498 -0.2166614
H -0.38180938 0.57231843 -1.9205705
H 0.7624089 1.4204384 -0.8746343
H -0.2100794 -1.965386 -2.007997
H 0.24333504 -2.8521717 -0.5457968
H -1.2138134 -1.8520893 -0.5515618
H 2.7151864 -0.011925843 -0.55321085
H 2.55404 -1.7732164 -0.4634128
H 2.1857393 -0.9308623 -1.9708737
H 0.49664 -1.4848045 1.6289407
H 1.3445332 0.07020769 1.478776
