title
 OpenBabel02282109573D

 22 22  0  0  1  0  0  0  0  0999 V2000
   -1.0969    2.4353   -0.2426 C   0  0  0  0  0  0  0  0  0  0  0  0
   -0.9858    0.9226   -0.3405 C   0  0  1  0  0  0  0  0  0  0  0  0
   -0.2710    0.3832   -1.5834 C   0  0  0  0  0  0  0  0  0  0  0  0
    0.1875   -0.9988   -1.1024 C   0  0  0  0  0  0  0  0  0  0  0  0
    0.4736   -0.7818    0.4088 C   0  0  0  0  0  0  0  0  0  0  0  0
   -0.0843   -1.9134    1.2765 C   0  0  0  0  0  0  0  0  0  0  0  0
    1.9638   -0.5619    0.6892 C   0  0  0  0  0  0  0  0  0  0  0  0
   -0.2082    0.4437    0.7546 O   0  0  0  0  0  0  0  0  0  0  0  0
   -0.1053    2.8950   -0.3019 H   0  0  0  0  0  0  0  0  0  0  0  0
   -1.7158    2.8284   -1.0556 H   0  0  0  0  0  0  0  0  0  0  0  0
   -1.5533    2.7272    0.7074 H   0  0  0  0  0  0  0  0  0  0  0  0
   -1.9991    0.4846   -0.2915 H   0  0  0  0  0  0  0  0  0  0  0  0
   -0.9166    0.3438   -2.4649 H   0  0  0  0  0  0  0  0  0  0  0  0
    0.5873    1.0224   -1.8214 H   0  0  0  0  0  0  0  0  0  0  0  0
   -0.6163   -1.7312   -1.2336 H   0  0  0  0  0  0  0  0  0  0  0  0
    1.0641   -1.3750   -1.6357 H   0  0  0  0  0  0  0  0  0  0  0  0
    0.3850   -2.8701    1.0222 H   0  0  0  0  0  0  0  0  0  0  0  0
    0.0990   -1.7120    2.3363 H   0  0  0  0  0  0  0  0  0  0  0  0
   -1.1642   -2.0123    1.1300 H   0  0  0  0  0  0  0  0  0  0  0  0
    2.3733    0.2102    0.0307 H   0  0  0  0  0  0  0  0  0  0  0  0
    2.1068   -0.2340    1.7230 H   0  0  0  0  0  0  0  0  0  0  0  0
    2.5332   -1.4849    0.5369 H   0  0  0  0  0  0  0  0  0  0  0  0
  1 11  1  0  0  0  0
  2 12  1  1  0  0  0
  2  1  1  0  0  0  0
  2  8  1  0  0  0  0
  3  4  1  0  0  0  0
  3  2  1  0  0  0  0
  4  5  1  0  0  0  0
  5  7  1  0  0  0  0
  5  8  1  0  0  0  0
  5  6  1  0  0  0  0
  6 18  1  0  0  0  0
  7 21  1  0  0  0  0
  9  1  1  0  0  0  0
 10  1  1  0  0  0  0
 13  3  1  0  0  0  0
 14  3  1  0  0  0  0
 15  4  1  0  0  0  0
 16  4  1  0  0  0  0
 17  6  1  0  0  0  0
 19  6  1  0  0  0  0
 20  7  1  0  0  0  0
 22  7  1  0  0  0  0
M  END
