22
title
C -1.096874 2.435258 -0.24260604
C -0.985833 0.92258173 -0.34054577
C -0.27102795 0.38320217 -1.5834486
C 0.18745904 -0.9988098 -1.1023949
C 0.47363678 -0.7818327 0.408817
C -0.08434053 -1.9133526 1.2764996
C 1.9638156 -0.56191015 0.68920684
O -0.20817275 0.44371822 0.7545675
H -0.105339184 2.8950362 -0.30187756
H -1.7158244 2.82842 -1.0556406
H -1.5532717 2.7271788 0.70743597
H -1.9991453 0.48461175 -0.29154477
H -0.9166168 0.34383222 -2.4649248
H 0.5872964 1.0224189 -1.8214195
H -0.6163182 -1.7312113 -1.2336053
H 1.0640901 -1.3749899 -1.635726
H 0.38495675 -2.870092 1.0222193
H 0.09899084 -1.7119509 2.336263
H -1.1641973 -2.0123272 1.1299683
H 2.3732533 0.21018669 0.030694462
H 2.106792 -0.23400167 1.7230122
H 2.5331793 -1.4848732 0.53686714
