22
title
C -0.9908237 2.5736265 -0.34409472
C -1.0273575 1.0462353 -0.37814155
C -0.2168735 0.41343945 -1.5283288
C 0.015092995 -1.0209388 -1.0435385
C 0.39933315 -0.83651245 0.4417335
C 0.22317913 -2.093593 1.2919456
O 1.758791 -0.37659955 0.53016037
C -0.46535805 0.3662814 0.9030239
H 0.037156727 2.9345636 -0.22436374
H -1.391351 3.0031922 -1.2690698
H -1.5820651 2.970137 0.4885324
H -2.0727093 0.731451 -0.49992076
H -0.7287855 0.47515598 -2.4932613
H 0.748443 0.9230373 -1.6253061
H -0.9127873 -1.6027173 -1.118243
H 0.7868016 -1.5645455 -1.6002278
H 0.84748614 -2.912867 0.9136806
H 0.51573265 -1.8971163 2.327858
H -0.8160979 -2.4377275 1.2832419
H 2.3255565 -1.0799783 0.19447383
H 0.17603019 1.046353 1.4704863
H -1.2692437 0.04381495 1.5707735
