title
 OpenBabel02282109573D

 22 22  0  0  1  0  0  0  0  0999 V2000
   -0.9908    2.5736   -0.3441 C   0  0  0  0  0  0  0  0  0  0  0  0
   -1.0274    1.0462   -0.3781 C   0  0  1  0  0  0  0  0  0  0  0  0
   -0.2169    0.4134   -1.5283 C   0  0  0  0  0  0  0  0  0  0  0  0
    0.0151   -1.0209   -1.0435 C   0  0  0  0  0  0  0  0  0  0  0  0
    0.3993   -0.8365    0.4417 C   0  0  1  0  0  0  0  0  0  0  0  0
    0.2232   -2.0936    1.2919 C   0  0  0  0  0  0  0  0  0  0  0  0
    1.7588   -0.3766    0.5302 O   0  0  0  0  0  0  0  0  0  0  0  0
   -0.4654    0.3663    0.9030 C   0  0  0  0  0  0  0  0  0  0  0  0
    0.0372    2.9346   -0.2244 H   0  0  0  0  0  0  0  0  0  0  0  0
   -1.3914    3.0032   -1.2691 H   0  0  0  0  0  0  0  0  0  0  0  0
   -1.5821    2.9701    0.4885 H   0  0  0  0  0  0  0  0  0  0  0  0
   -2.0727    0.7315   -0.4999 H   0  0  0  0  0  0  0  0  0  0  0  0
   -0.7288    0.4752   -2.4933 H   0  0  0  0  0  0  0  0  0  0  0  0
    0.7484    0.9230   -1.6253 H   0  0  0  0  0  0  0  0  0  0  0  0
   -0.9128   -1.6027   -1.1182 H   0  0  0  0  0  0  0  0  0  0  0  0
    0.7868   -1.5645   -1.6002 H   0  0  0  0  0  0  0  0  0  0  0  0
    0.8475   -2.9129    0.9137 H   0  0  0  0  0  0  0  0  0  0  0  0
    0.5157   -1.8971    2.3279 H   0  0  0  0  0  0  0  0  0  0  0  0
   -0.8161   -2.4377    1.2832 H   0  0  0  0  0  0  0  0  0  0  0  0
    2.3256   -1.0800    0.1945 H   0  0  0  0  0  0  0  0  0  0  0  0
    0.1760    1.0464    1.4705 H   0  0  0  0  0  0  0  0  0  0  0  0
   -1.2692    0.0438    1.5708 H   0  0  0  0  0  0  0  0  0  0  0  0
  1  9  1  0  0  0  0
  1 11  1  0  0  0  0
  2 12  1  6  0  0  0
  2  1  1  0  0  0  0
  2  8  1  0  0  0  0
  3  4  1  0  0  0  0
  3  2  1  0  0  0  0
  4  5  1  0  0  0  0
  5  7  1  1  0  0  0
  5  8  1  0  0  0  0
  5  6  1  0  0  0  0
  6 18  1  0  0  0  0
  8 21  1  0  0  0  0
  8 22  1  0  0  0  0
 10  1  1  0  0  0  0
 13  3  1  0  0  0  0
 14  3  1  0  0  0  0
 15  4  1  0  0  0  0
 16  4  1  0  0  0  0
 17  6  1  0  0  0  0
 19  6  1  0  0  0  0
 20  7  1  0  0  0  0
M  END
