22
title
C -1.4733429 2.399534 -0.31797278
C -1.077158 0.92699534 -0.2538883
C -0.24145967 0.4326056 -1.4391614
O 0.37502664 -0.7670302 -1.0051558
C 0.554298 -0.7467999 0.4317261
C -0.11301666 -2.0103443 0.9841929
C 2.0554247 -0.7452523 0.73240954
C -0.14889604 0.5482511 0.9122068
H -0.58736724 3.0424676 -0.37590638
H -2.0949588 2.607394 -1.1956404
H -2.0435295 2.6974325 0.5678006
H -1.9844798 0.31189802 -0.19973661
H -0.8337769 0.2098966 -2.3330657
H 0.5124461 1.1914424 -1.7151749
H 0.2896542 -2.8957856 0.4837169
H 0.063913174 -2.1104646 2.0602534
H -1.1933274 -1.9870969 0.81171507
H 2.5390773 0.118984066 0.2671395
H 2.2389233 -0.7010655 1.811548
H 2.5267043 -1.6516262 0.3404762
H 0.587938 1.3453132 1.0689656
H -0.68129236 0.40353432 1.8561144
