title
 OpenBabel02282109573D

 22 22  0  0  1  0  0  0  0  0999 V2000
   -1.4733    2.3995   -0.3180 C   0  0  0  0  0  0  0  0  0  0  0  0
   -1.0772    0.9270   -0.2539 C   0  0  1  0  0  0  0  0  0  0  0  0
   -0.2415    0.4326   -1.4392 C   0  0  0  0  0  0  0  0  0  0  0  0
    0.3750   -0.7670   -1.0052 O   0  0  0  0  0  0  0  0  0  0  0  0
    0.5543   -0.7468    0.4317 C   0  0  0  0  0  0  0  0  0  0  0  0
   -0.1130   -2.0103    0.9842 C   0  0  0  0  0  0  0  0  0  0  0  0
    2.0554   -0.7453    0.7324 C   0  0  0  0  0  0  0  0  0  0  0  0
   -0.1489    0.5483    0.9122 C   0  0  0  0  0  0  0  0  0  0  0  0
   -0.5874    3.0425   -0.3759 H   0  0  0  0  0  0  0  0  0  0  0  0
   -2.0950    2.6074   -1.1956 H   0  0  0  0  0  0  0  0  0  0  0  0
   -2.0435    2.6974    0.5678 H   0  0  0  0  0  0  0  0  0  0  0  0
   -1.9845    0.3119   -0.1997 H   0  0  0  0  0  0  0  0  0  0  0  0
   -0.8338    0.2099   -2.3331 H   0  0  0  0  0  0  0  0  0  0  0  0
    0.5124    1.1914   -1.7152 H   0  0  0  0  0  0  0  0  0  0  0  0
    0.2897   -2.8958    0.4837 H   0  0  0  0  0  0  0  0  0  0  0  0
    0.0639   -2.1105    2.0603 H   0  0  0  0  0  0  0  0  0  0  0  0
   -1.1933   -1.9871    0.8117 H   0  0  0  0  0  0  0  0  0  0  0  0
    2.5391    0.1190    0.2671 H   0  0  0  0  0  0  0  0  0  0  0  0
    2.2389   -0.7011    1.8115 H   0  0  0  0  0  0  0  0  0  0  0  0
    2.5267   -1.6516    0.3405 H   0  0  0  0  0  0  0  0  0  0  0  0
    0.5879    1.3453    1.0690 H   0  0  0  0  0  0  0  0  0  0  0  0
   -0.6813    0.4035    1.8561 H   0  0  0  0  0  0  0  0  0  0  0  0
  1  2  1  0  0  0  0
  1 11  1  0  0  0  0
  2 12  1  1  0  0  0
  2  8  1  0  0  0  0
  3  4  1  0  0  0  0
  3  2  1  0  0  0  0
  4  5  1  0  0  0  0
  5  7  1  0  0  0  0
  5  8  1  0  0  0  0
  5  6  1  0  0  0  0
  6 16  1  0  0  0  0
  7 19  1  0  0  0  0
  8 21  1  0  0  0  0
  8 22  1  0  0  0  0
  9  1  1  0  0  0  0
 10  1  1  0  0  0  0
 13  3  1  0  0  0  0
 14  3  1  0  0  0  0
 15  6  1  0  0  0  0
 17  6  1  0  0  0  0
 18  7  1  0  0  0  0
 20  7  1  0  0  0  0
M  END
