20
title
C -1.2043213 2.3946986 -0.22024219
C -1.0293632 0.8876605 -0.25076893
C -0.33204946 0.3173378 -1.4861339
O 0.24013652 -0.885802 -1.0058064
C 0.50682795 -0.7218669 0.39211142
C -0.08646832 -1.9210335 1.1281238
C 2.005319 -0.5593942 0.6342187
O -0.14068322 0.48638317 0.78915745
H -0.24011396 2.894759 -0.35145926
H -1.8806192 2.7173135 -1.0184497
H -1.6296074 2.7125475 0.73539037
H -2.00581 0.39302775 -0.12114087
H -1.012703 0.07699074 -2.3076704
H 0.43817452 1.0139048 -1.8541393
H 0.3574634 -2.8497183 0.75902694
H 0.10453715 -1.8405637 2.2016497
H -1.16586 -1.9637262 0.96299607
H 2.3878043 0.2805786 0.049208745
H 2.1995072 -0.36303848 1.6923075
H 2.5375564 -1.4678081 0.3398708
