title
 OpenBabel02282109573D

 20 20  0  0  1  0  0  0  0  0999 V2000
   -1.2043    2.3947   -0.2202 C   0  0  0  0  0  0  0  0  0  0  0  0
   -1.0294    0.8877   -0.2508 C   0  0  1  0  0  0  0  0  0  0  0  0
   -0.3320    0.3173   -1.4861 C   0  0  0  0  0  0  0  0  0  0  0  0
    0.2401   -0.8858   -1.0058 O   0  0  0  0  0  0  0  0  0  0  0  0
    0.5068   -0.7219    0.3921 C   0  0  0  0  0  0  0  0  0  0  0  0
   -0.0865   -1.9210    1.1281 C   0  0  0  0  0  0  0  0  0  0  0  0
    2.0053   -0.5594    0.6342 C   0  0  0  0  0  0  0  0  0  0  0  0
   -0.1407    0.4864    0.7892 O   0  0  0  0  0  0  0  0  0  0  0  0
   -0.2401    2.8948   -0.3515 H   0  0  0  0  0  0  0  0  0  0  0  0
   -1.8806    2.7173   -1.0184 H   0  0  0  0  0  0  0  0  0  0  0  0
   -1.6296    2.7125    0.7354 H   0  0  0  0  0  0  0  0  0  0  0  0
   -2.0058    0.3930   -0.1211 H   0  0  0  0  0  0  0  0  0  0  0  0
   -1.0127    0.0770   -2.3077 H   0  0  0  0  0  0  0  0  0  0  0  0
    0.4382    1.0139   -1.8541 H   0  0  0  0  0  0  0  0  0  0  0  0
    0.3575   -2.8497    0.7590 H   0  0  0  0  0  0  0  0  0  0  0  0
    0.1045   -1.8406    2.2016 H   0  0  0  0  0  0  0  0  0  0  0  0
   -1.1659   -1.9637    0.9630 H   0  0  0  0  0  0  0  0  0  0  0  0
    2.3878    0.2806    0.0492 H   0  0  0  0  0  0  0  0  0  0  0  0
    2.1995   -0.3630    1.6923 H   0  0  0  0  0  0  0  0  0  0  0  0
    2.5376   -1.4678    0.3399 H   0  0  0  0  0  0  0  0  0  0  0  0
  1 11  1  0  0  0  0
  2  1  1  0  0  0  0
  2 12  1  1  0  0  0
  2  8  1  0  0  0  0
  3  4  1  0  0  0  0
  3  2  1  0  0  0  0
  4  5  1  0  0  0  0
  5  7  1  0  0  0  0
  5  8  1  0  0  0  0
  5  6  1  0  0  0  0
  6 16  1  0  0  0  0
  7 19  1  0  0  0  0
  9  1  1  0  0  0  0
 10  1  1  0  0  0  0
 13  3  1  0  0  0  0
 14  3  1  0  0  0  0
 15  6  1  0  0  0  0
 17  6  1  0  0  0  0
 18  7  1  0  0  0  0
 20  7  1  0  0  0  0
M  END
