title
 OpenBabel02282109573D

 20 20  0  0  1  0  0  0  0  0999 V2000
   -0.9974    2.3544   -0.4839 C   0  0  0  0  0  0  0  0  0  0  0  0
   -0.9940    0.8733   -0.1567 C   0  0  1  0  0  0  0  0  0  0  0  0
   -0.7742    0.0771   -1.3207 O   0  0  0  0  0  0  0  0  0  0  0  0
    0.4003   -0.6927   -1.1166 C   0  0  0  0  0  0  0  0  0  0  0  0
    0.5785   -0.7091    0.4116 C   0  0  0  0  0  0  0  0  0  0  0  0
   -0.2516   -1.8172    1.0724 C   0  0  0  0  0  0  0  0  0  0  0  0
    2.0331   -0.7434    0.8612 C   0  0  0  0  0  0  0  0  0  0  0  0
    0.0477    0.5834    0.7488 O   0  0  0  0  0  0  0  0  0  0  0  0
   -0.0358    2.6431   -0.9162 H   0  0  0  0  0  0  0  0  0  0  0  0
   -1.7935    2.5747   -1.2000 H   0  0  0  0  0  0  0  0  0  0  0  0
   -1.1696    2.9390    0.4243 H   0  0  0  0  0  0  0  0  0  0  0  0
   -1.9670    0.5708    0.2670 H   0  0  0  0  0  0  0  0  0  0  0  0
    0.2485   -1.6883   -1.5454 H   0  0  0  0  0  0  0  0  0  0  0  0
    1.2668   -0.2247   -1.6063 H   0  0  0  0  0  0  0  0  0  0  0  0
    0.1816   -2.8014    0.8670 H   0  0  0  0  0  0  0  0  0  0  0  0
   -0.2794   -1.6704    2.1557 H   0  0  0  0  0  0  0  0  0  0  0  0
   -1.2785   -1.8157    0.6956 H   0  0  0  0  0  0  0  0  0  0  0  0
    2.5837    0.0992    0.4348 H   0  0  0  0  0  0  0  0  0  0  0  0
    2.0994   -0.6817    1.9512 H   0  0  0  0  0  0  0  0  0  0  0  0
    2.5131   -1.6746    0.5439 H   0  0  0  0  0  0  0  0  0  0  0  0
  1  2  1  0  0  0  0
  1 11  1  0  0  0  0
  2 12  1  1  0  0  0
  2  8  1  0  0  0  0
  3  4  1  0  0  0  0
  3  2  1  0  0  0  0
  4  5  1  0  0  0  0
  5  8  1  0  0  0  0
  5  7  1  0  0  0  0
  5  6  1  0  0  0  0
  6 16  1  0  0  0  0
  7 19  1  0  0  0  0
  9  1  1  0  0  0  0
 10  1  1  0  0  0  0
 13  4  1  0  0  0  0
 14  4  1  0  0  0  0
 15  6  1  0  0  0  0
 17  6  1  0  0  0  0
 18  7  1  0  0  0  0
 20  7  1  0  0  0  0
M  END
