22
title
C -0.65022665 1.8146604 -0.46831635
C -0.6122932 0.29493552 -0.4810909
C -1.8300624 -0.310776 -1.1602879
C 0.7321194 -0.3910609 -0.6707738
O 1.9120648 0.35615844 -0.7789001
C 0.066288754 -0.44774246 0.68247867
C 0.6722912 0.35352522 1.8242276
C -0.48892972 -1.7834986 1.1530786
H 0.30824354 2.252888 -0.1882054
H -0.9087915 2.1944559 -1.4644946
H -1.4117917 2.1879792 0.22608809
H -1.9654992 0.12693483 -2.1567724
H -1.7516787 -1.3923587 -1.289493
H -2.7458246 -0.11130035 -0.5903515
H 0.7362376 -1.3132348 -1.2558727
H 1.9289124 0.761352 -1.6523579
H 1.2401316 1.2158577 1.4775755
H -0.105516806 0.7014142 2.5141256
H 1.3605875 -0.27753448 2.3980184
H 0.28210112 -2.3396108 1.6989601
H -1.3355483 -1.6411333 1.8354733
H -0.8281446 -2.418809 0.33238378
