title
 OpenBabel02282109573D

 20 20  0  0  1  0  0  0  0  0999 V2000
   -0.6587    1.8026   -0.5383 C   0  0  0  0  0  0  0  0  0  0  0  0
   -0.6099    0.2862   -0.4683 C   0  0  0  0  0  0  0  0  0  0  0  0
   -1.8514   -0.3849   -1.0307 C   0  0  0  0  0  0  0  0  0  0  0  0
    0.7194   -0.4090   -0.6955 C   0  0  1  0  0  0  0  0  0  0  0  0
    1.8227    0.3967   -1.0050 O   0  0  0  0  0  0  0  0  0  0  0  0
    0.1024   -0.3885    0.6941 C   0  0  1  0  0  0  0  0  0  0  0  0
    0.7503    0.4000    1.8099 C   0  0  0  0  0  0  0  0  0  0  0  0
   -0.5132   -1.5778    1.1321 O   0  0  0  0  0  0  0  0  0  0  0  0
    0.3010    2.2637   -0.3042 H   0  0  0  0  0  0  0  0  0  0  0  0
   -0.9324    2.1185   -1.5511 H   0  0  0  0  0  0  0  0  0  0  0  0
   -1.4160    2.1997    0.1470 H   0  0  0  0  0  0  0  0  0  0  0  0
   -1.9777   -0.1202   -2.0867 H   0  0  0  0  0  0  0  0  0  0  0  0
   -1.8009   -1.4707   -0.9441 H   0  0  0  0  0  0  0  0  0  0  0  0
   -2.7476   -0.0523   -0.4943 H   0  0  0  0  0  0  0  0  0  0  0  0
    0.6808   -1.3640   -1.2225 H   0  0  0  0  0  0  0  0  0  0  0  0
    2.6075   -0.0067   -0.6195 H   0  0  0  0  0  0  0  0  0  0  0  0
    1.3100    1.2572    1.4330 H   0  0  0  0  0  0  0  0  0  0  0  0
    0.0005    0.7537    2.5244 H   0  0  0  0  0  0  0  0  0  0  0  0
    1.4546   -0.2383    2.3604 H   0  0  0  0  0  0  0  0  0  0  0  0
    0.1776   -2.1624    1.4639 H   0  0  0  0  0  0  0  0  0  0  0  0
  1  2  1  0  0  0  0
  1  9  1  0  0  0  0
  1 11  1  0  0  0  0
  2  6  1  0  0  0  0
  3 13  1  0  0  0  0
  3 14  1  0  0  0  0
  3  2  1  0  0  0  0
  4  2  1  0  0  0  0
  4  6  1  1  0  0  0
  5  4  1  0  0  0  0
  5 16  1  0  0  0  0
  6  8  1  1  0  0  0
  6  7  1  0  0  0  0
  7 19  1  0  0  0  0
  7 18  1  0  0  0  0
  8 20  1  0  0  0  0
 10  1  1  0  0  0  0
 12  3  1  0  0  0  0
 15  4  1  0  0  0  0
 17  7  1  0  0  0  0
M  END
