20
title
C -0.65865415 1.8026325 -0.53826445
C -0.60986584 0.2862371 -0.468307
C -1.8513838 -0.38489795 -1.0306566
C 0.71940017 -0.4089846 -0.6954551
O 1.8227392 0.39670077 -1.0049962
C 0.102377474 -0.38847256 0.6941381
C 0.75032485 0.40004104 1.8099328
O -0.51315695 -1.5778236 1.1321303
H 0.30102628 2.2637222 -0.304236
H -0.93235594 2.118549 -1.5510979
H -1.4160241 2.199714 0.14702907
H -1.9776943 -0.12017388 -2.0867205
H -1.800888 -1.4706529 -0.9441479
H -2.747587 -0.052333307 -0.49430045
H 0.68077457 -1.364028 -1.2225046
H 2.6074884 -0.006675193 -0.6195063
H 1.3099741 1.2571591 1.432951
H 0.0004543652 0.7537082 2.5244184
H 1.4545578 -0.23829259 2.3603828
H 0.17764819 -2.1623797 1.4639242
