title
 OpenBabel02282109573D

 22 22  0  0  1  0  0  0  0  0999 V2000
   -2.0105    1.1486   -0.0586 C   0  0  0  0  0  0  0  0  0  0  0  0
   -1.0805   -0.0194    0.1959 C   0  0  1  0  0  0  0  0  0  0  0  0
    0.0933   -0.4035   -0.7081 C   0  0  0  0  0  0  0  0  0  0  0  0
    0.3064   -1.8856   -0.9704 C   0  0  0  0  0  0  0  0  0  0  0  0
    0.4439    0.4525   -1.9138 C   0  0  0  0  0  0  0  0  0  0  0  0
    0.3479    0.1158    0.6928 C   0  0  1  0  0  0  0  0  0  0  0  0
    0.9889    1.4604    0.9640 C   0  0  0  0  0  0  0  0  0  0  0  0
    0.7945   -0.8687    1.6016 O   0  0  0  0  0  0  0  0  0  0  0  0
   -1.4962    2.0193   -0.4724 H   0  0  0  0  0  0  0  0  0  0  0  0
   -2.8014    0.8722   -0.7652 H   0  0  0  0  0  0  0  0  0  0  0  0
   -2.4986    1.4707    0.8686 H   0  0  0  0  0  0  0  0  0  0  0  0
   -1.5857   -0.8853    0.6201 H   0  0  0  0  0  0  0  0  0  0  0  0
   -0.3485   -2.2263   -1.7811 H   0  0  0  0  0  0  0  0  0  0  0  0
    1.3406   -2.0840   -1.2762 H   0  0  0  0  0  0  0  0  0  0  0  0
    0.1045   -2.4838   -0.0817 H   0  0  0  0  0  0  0  0  0  0  0  0
    0.2474    1.5161   -1.7685 H   0  0  0  0  0  0  0  0  0  0  0  0
    1.5051    0.3445   -2.1673 H   0  0  0  0  0  0  0  0  0  0  0  0
   -0.1340    0.1300   -2.7878 H   0  0  0  0  0  0  0  0  0  0  0  0
    0.6687    2.2381    0.2689 H   0  0  0  0  0  0  0  0  0  0  0  0
    0.7350    1.8030    1.9754 H   0  0  0  0  0  0  0  0  0  0  0  0
    2.0789    1.3757    0.9069 H   0  0  0  0  0  0  0  0  0  0  0  0
    0.4242   -0.6556    2.4653 H   0  0  0  0  0  0  0  0  0  0  0  0
  1  2  1  0  0  0  0
  1 11  1  0  0  0  0
  2 12  1  0  0  0  0
  2  6  1  1  0  0  0
  3  2  1  0  0  0  0
  3  6  1  0  0  0  0
  4  3  1  0  0  0  0
  4 15  1  0  0  0  0
  5 16  1  0  0  0  0
  5  3  1  0  0  0  0
  6  7  1  0  0  0  0
  6  8  1  1  0  0  0
  7 20  1  0  0  0  0
  8 22  1  0  0  0  0
  9  1  1  0  0  0  0
 10  1  1  0  0  0  0
 13  4  1  0  0  0  0
 14  4  1  0  0  0  0
 17  5  1  0  0  0  0
 18  5  1  0  0  0  0
 19  7  1  0  0  0  0
 21  7  1  0  0  0  0
M  END
