20
title
C -1.0412146 1.9794198 -0.51809317
C -0.93353784 0.47487506 -0.40148306
C 0.38628674 -0.26054737 -0.6433082
C 0.41478503 -1.5373787 -1.4500947
O 1.5427333 0.52965987 -0.78340644
C -0.2035454 -0.22771958 0.739173
C 0.46378112 0.5427373 1.8558079
O -0.7460447 -1.4602902 1.155856
H -0.07521261 2.4619367 -0.3523608
H -1.386529 2.26705 -1.5178672
H -1.7548021 2.392109 0.20380479
H -1.8083317 -0.07519213 -0.7418363
H 0.40499282 -1.3149023 -2.524842
H 1.3250085 -2.104355 -1.2296237
H -0.44619942 -2.1658 -1.2194934
H 1.5920364 0.81428987 -1.7028732
H 0.9877176 1.424243 1.4865417
H -0.27742404 0.86499923 2.5979035
H 1.1900512 -0.10051594 2.3620303
H -1.5120524 -1.2676 1.7078186
