title
 OpenBabel02282109573D

 24 24  0  0  0  0  0  0  0  0999 V2000
   -1.0357    1.7395   -0.3911 C   0  0  0  0  0  0  0  0  0  0  0  0
   -0.4336    0.3475   -0.5767 C   0  0  0  0  0  0  0  0  0  0  0  0
   -1.4799   -0.5725   -1.2188 C   0  0  0  0  0  0  0  0  0  0  0  0
    0.9178    0.2645   -1.3516 C   0  0  0  0  0  0  0  0  0  0  0  0
    1.4290   -0.7714   -0.3197 C   0  0  0  0  0  0  0  0  0  0  0  0
    0.3075   -0.3203    0.6664 C   0  0  0  0  0  0  0  0  0  0  0  0
    0.8514    0.7082    1.6663 C   0  0  0  0  0  0  0  0  0  0  0  0
   -0.4224   -1.4246    1.4296 C   0  0  0  0  0  0  0  0  0  0  0  0
   -0.3178    2.4535    0.0205 H   0  0  0  0  0  0  0  0  0  0  0  0
   -1.3781    2.1364   -1.3543 H   0  0  0  0  0  0  0  0  0  0  0  0
   -1.9050    1.7146    0.2772 H   0  0  0  0  0  0  0  0  0  0  0  0
   -1.8169   -0.1452   -2.1702 H   0  0  0  0  0  0  0  0  0  0  0  0
   -1.0833   -1.5697   -1.4326 H   0  0  0  0  0  0  0  0  0  0  0  0
   -2.3613   -0.6929   -0.5794 H   0  0  0  0  0  0  0  0  0  0  0  0
    0.8615   -0.0539   -2.3964 H   0  0  0  0  0  0  0  0  0  0  0  0
    1.4776    1.2034   -1.3109 H   0  0  0  0  0  0  0  0  0  0  0  0
    1.2914   -1.8014   -0.6611 H   0  0  0  0  0  0  0  0  0  0  0  0
    2.4591   -0.6633    0.0316 H   0  0  0  0  0  0  0  0  0  0  0  0
    1.4385    1.4929    1.1796 H   0  0  0  0  0  0  0  0  0  0  0  0
    0.0457    1.1930    2.2285 H   0  0  0  0  0  0  0  0  0  0  0  0
    1.5080    0.2120    2.3902 H   0  0  0  0  0  0  0  0  0  0  0  0
    0.2518   -1.8931    2.1564 H   0  0  0  0  0  0  0  0  0  0  0  0
   -1.2779   -1.0272    1.9894 H   0  0  0  0  0  0  0  0  0  0  0  0
   -0.7921   -2.2138    0.7700 H   0  0  0  0  0  0  0  0  0  0  0  0
  1  9  1  0  0  0  0
  1 11  1  0  0  0  0
  2  1  1  0  0  0  0
  2  6  1  0  0  0  0
  3 14  1  0  0  0  0
  3  2  1  0  0  0  0
  4 16  1  0  0  0  0
  4  2  1  0  0  0  0
  4  5  1  0  0  0  0
  5 18  1  0  0  0  0
  5  6  1  0  0  0  0
  6  8  1  0  0  0  0
  6  7  1  0  0  0  0
  7 20  1  0  0  0  0
  7 21  1  0  0  0  0
  8 23  1  0  0  0  0
  8 22  1  0  0  0  0
 10  1  1  0  0  0  0
 12  3  1  0  0  0  0
 13  3  1  0  0  0  0
 15  4  1  0  0  0  0
 17  5  1  0  0  0  0
 19  7  1  0  0  0  0
 24  8  1  0  0  0  0
M  END
