22
title
C -0.9542195 1.765403 -0.5035708
C -0.4117327 0.34146947 -0.6053501
C -1.504155 -0.5952051 -1.1355939
C 0.9253586 0.15105467 -1.3888131
C 1.4126816 -0.8313658 -0.2922072
C 0.31179374 -0.26792005 0.6553523
C 0.8607983 0.7510987 1.6510743
O -0.50349045 -1.2135483 1.3272222
H -0.19484694 2.4778283 -0.1683264
H -1.3129115 2.1047978 -1.4821914
H -1.7999427 1.820518 0.1916116
H -1.8454819 -0.24691962 -2.1170955
H -1.1488113 -1.6228801 -1.2442514
H -2.363723 -0.6181554 -0.4599964
H 0.8392605 -0.24157892 -2.4050586
H 1.521408 1.0679175 -1.4219965
H 1.2089121 -1.8741647 -0.5455788
H 2.4505305 -0.7438712 0.041588027
H 1.4980813 1.4977592 1.1683308
H 0.049992055 1.2694348 2.1711493
H 1.477395 0.23929277 2.401647
H -0.020736605 -1.532081 2.0972373
