title
 OpenBabel02282109573D

 20 20  0  0  1  0  0  0  0  0999 V2000
   -0.6097    1.8575   -0.5960 C   0  0  0  0  0  0  0  0  0  0  0  0
   -0.4332    0.3450   -0.5854 C   0  0  1  0  0  0  0  0  0  0  0  0
   -1.6548   -0.3064   -0.8718 O   0  0  0  0  0  0  0  0  0  0  0  0
    0.8166   -0.1528   -1.3518 C   0  0  0  0  0  0  0  0  0  0  0  0
    1.5056   -0.4326   -0.1208 O   0  0  0  0  0  0  0  0  0  0  0  0
    0.2844   -0.2754    0.6646 C   0  0  0  0  0  0  0  0  0  0  0  0
    0.5320    0.6037    1.8817 C   0  0  0  0  0  0  0  0  0  0  0  0
   -0.2647   -1.6406    1.0720 C   0  0  0  0  0  0  0  0  0  0  0  0
    0.3297    2.3771   -0.3934 H   0  0  0  0  0  0  0  0  0  0  0  0
   -0.9534    2.1839   -1.5864 H   0  0  0  0  0  0  0  0  0  0  0  0
   -1.3520    2.1721    0.1439 H   0  0  0  0  0  0  0  0  0  0  0  0
   -2.1072    0.1870   -1.5633 H   0  0  0  0  0  0  0  0  0  0  0  0
    0.6205   -1.0583   -1.9412 H   0  0  0  0  0  0  0  0  0  0  0  0
    1.3551    0.5770   -1.9687 H   0  0  0  0  0  0  0  0  0  0  0  0
    1.0021    1.5508    1.6098 H   0  0  0  0  0  0  0  0  0  0  0  0
   -0.4057    0.8128    2.4073 H   0  0  0  0  0  0  0  0  0  0  0  0
    1.1995    0.0862    2.5782 H   0  0  0  0  0  0  0  0  0  0  0  0
    0.4493   -2.1293    1.7422 H   0  0  0  0  0  0  0  0  0  0  0  0
   -1.2211   -1.5375    1.5929 H   0  0  0  0  0  0  0  0  0  0  0  0
   -0.4246   -2.2807    0.2031 H   0  0  0  0  0  0  0  0  0  0  0  0
  1  2  1  0  0  0  0
  1  9  1  0  0  0  0
  1 11  1  0  0  0  0
  2  3  1  6  0  0  0
  2  6  1  0  0  0  0
  4  2  1  0  0  0  0
  4  5  1  0  0  0  0
  5  6  1  0  0  0  0
  6  8  1  0  0  0  0
  6  7  1  0  0  0  0
  7 16  1  0  0  0  0
  7 17  1  0  0  0  0
  8 19  1  0  0  0  0
  8 18  1  0  0  0  0
 10  1  1  0  0  0  0
 12  3  1  0  0  0  0
 13  4  1  0  0  0  0
 14  4  1  0  0  0  0
 15  7  1  0  0  0  0
 20  8  1  0  0  0  0
M  END
