title
 OpenBabel02282109573D

 20 20  0  0  1  0  0  0  0  0999 V2000
   -0.4854    1.8490   -0.6216 C   0  0  0  0  0  0  0  0  0  0  0  0
   -0.4176    0.3227   -0.5848 C   0  0  1  0  0  0  0  0  0  0  0  0
   -1.7032   -0.2329   -0.7384 O   0  0  0  0  0  0  0  0  0  0  0  0
    0.7324   -0.2411   -1.4738 C   0  0  0  0  0  0  0  0  0  0  0  0
    1.6301   -0.2921   -0.2091 C   0  0  0  0  0  0  0  0  0  0  0  0
    0.3400   -0.2501    0.6671 C   0  0  1  0  0  0  0  0  0  0  0  0
    0.3505    0.5313    1.9721 C   0  0  0  0  0  0  0  0  0  0  0  0
   -0.1561   -1.5648    0.8796 O   0  0  0  0  0  0  0  0  0  0  0  0
    0.4951    2.3135   -0.4829 H   0  0  0  0  0  0  0  0  0  0  0  0
   -0.8602    2.1758   -1.6000 H   0  0  0  0  0  0  0  0  0  0  0  0
   -1.1639    2.2279    0.1483 H   0  0  0  0  0  0  0  0  0  0  0  0
   -2.1367    0.2232   -1.4674 H   0  0  0  0  0  0  0  0  0  0  0  0
    0.4764   -1.2422   -1.8234 H   0  0  0  0  0  0  0  0  0  0  0  0
    1.0671    0.3722   -2.3148 H   0  0  0  0  0  0  0  0  0  0  0  0
    2.2534   -1.1795   -0.0753 H   0  0  0  0  0  0  0  0  0  0  0  0
    2.2525    0.5996   -0.0916 H   0  0  0  0  0  0  0  0  0  0  0  0
    0.7151    1.5538    1.8412 H   0  0  0  0  0  0  0  0  0  0  0  0
   -0.6556    0.5672    2.4010 H   0  0  0  0  0  0  0  0  0  0  0  0
    1.0094    0.0396    2.6990 H   0  0  0  0  0  0  0  0  0  0  0  0
    0.4379   -1.9923    1.5061 H   0  0  0  0  0  0  0  0  0  0  0  0
  1  2  1  0  0  0  0
  1  9  1  0  0  0  0
  1 11  1  0  0  0  0
  2  6  1  1  0  0  0
  3  2  1  0  0  0  0
  4  2  1  0  0  0  0
  4  5  1  0  0  0  0
  5 16  1  0  0  0  0
  5 15  1  0  0  0  0
  5  6  1  0  0  0  0
  6  8  1  1  0  0  0
  6  7  1  0  0  0  0
  7 18  1  0  0  0  0
  7 19  1  0  0  0  0
  8 20  1  0  0  0  0
 10  1  1  0  0  0  0
 12  3  1  0  0  0  0
 13  4  1  0  0  0  0
 14  4  1  0  0  0  0
 17  7  1  0  0  0  0
M  END
