14
title
C -0.83870184 1.6954557 1.4207695
C 0.48700094 1.0280074 1.1679714
N 1.5946909 1.2708676 1.7495608
N 0.54431564 0.021767594 0.18954067
C -0.45230722 -0.4825175 -0.6168979
O -1.6116017 -0.12107267 -0.616633
C 0.03636713 -1.5298265 -1.5037293
C 0.40804455 -2.3972309 -2.2483969
H -1.2206303 2.1667972 0.51234645
H -1.5938845 0.96667534 1.7238182
H -0.71722746 2.4473872 2.2030718
H 1.4785248 2.0073016 2.443103
H 1.4699032 -0.37215522 0.08454726
H 0.72425014 -3.1654243 -2.911831
