title
 OpenBabel02282109573D

 13 12  0  0  0  0  0  0  0  0999 V2000
    0.4244    2.1930    0.7809 C   0  0  0  0  0  0  0  0  0  0  0  0
   -0.4738    1.0266    1.0761 C   0  0  0  0  0  0  0  0  0  0  0  0
   -1.1488    0.7530    2.0990 N   0  0  0  0  0  0  0  0  0  0  0  0
   -0.6519    0.1579   -0.0174 O   0  0  0  0  0  0  0  0  0  0  0  0
    0.4022   -0.5875   -0.4266 C   0  0  0  0  0  0  0  0  0  0  0  0
    1.4879   -0.5949    0.0924 O   0  0  0  0  0  0  0  0  0  0  0  0
    0.0387   -1.3834   -1.5755 C   0  0  0  0  0  0  0  0  0  0  0  0
   -0.2079   -2.0682   -2.5312 C   0  0  0  0  0  0  0  0  0  0  0  0
    1.4420    1.8398    0.5970 H   0  0  0  0  0  0  0  0  0  0  0  0
    0.0792    2.7112   -0.1197 H   0  0  0  0  0  0  0  0  0  0  0  0
    0.4308    2.8939    1.6173 H   0  0  0  0  0  0  0  0  0  0  0  0
   -1.0165    1.4677    2.8143 H   0  0  0  0  0  0  0  0  0  0  0  0
   -0.4279   -2.6744   -3.3763 H   0  0  0  0  0  0  0  0  0  0  0  0
  1  2  1  0  0  0  0
  1 11  1  0  0  0  0
  2  3  2  0  0  0  0
  3 12  1  0  0  0  0
  4  2  1  0  0  0  0
  5  4  1  0  0  0  0
  5  6  2  0  0  0  0
  7  5  1  0  0  0  0
  8  7  3  0  0  0  0
  9  1  1  0  0  0  0
 10  1  1  0  0  0  0
 13  8  1  0  0  0  0
M  END
