13
title
C 0.4244131 2.1929786 0.7808546
C -0.47380027 1.026647 1.0761192
N -1.1488173 0.75296277 2.0990152
O -0.65190506 0.15789427 -0.017366875
C 0.40217194 -0.58752877 -0.42664003
O 1.4878521 -0.59491366 0.09236784
C 0.03871987 -1.3834467 -1.5755441
C -0.20788163 -2.0681524 -2.5311565
H 1.4419675 1.8398058 0.5970197
H 0.0791918 2.7111962 -0.1196578
H 0.43083945 2.893942 1.6173015
H -1.0165 1.4676743 2.8143387
H -0.4278891 -2.6743598 -3.3762646
