14
title
C 0.6731783 2.1701646 1.1024538
C -0.5577825 1.3924267 0.6995148
O -1.6091504 1.4688109 1.2877572
C -0.43937677 0.48143825 -0.5308499
C 0.45896578 -0.73807067 -0.3297581
O 1.3481205 -0.7974474 0.49129885
C 0.177933 -1.8440778 -1.2257255
C -0.067504905 -2.7501605 -1.979228
H 1.0169573 2.7949667 0.26967433
H 0.45031002 2.7958941 1.9672048
H 1.4792993 1.4666392 1.3318666
H -1.4404107 0.15501717 -0.82219046
H -0.015048975 1.0430769 -1.3752742
H -0.27229512 -3.5607755 -2.6362624
