title
 OpenBabel02282109573D

 14 13  0  0  0  0  0  0  0  0999 V2000
    0.6732    2.1702    1.1025 C   0  0  0  0  0  0  0  0  0  0  0  0
   -0.5578    1.3924    0.6995 C   0  0  0  0  0  0  0  0  0  0  0  0
   -1.6092    1.4688    1.2878 O   0  0  0  0  0  0  0  0  0  0  0  0
   -0.4394    0.4814   -0.5308 C   0  0  0  0  0  0  0  0  0  0  0  0
    0.4590   -0.7381   -0.3298 C   0  0  0  0  0  0  0  0  0  0  0  0
    1.3481   -0.7974    0.4913 O   0  0  0  0  0  0  0  0  0  0  0  0
    0.1779   -1.8441   -1.2257 C   0  0  0  0  0  0  0  0  0  0  0  0
   -0.0675   -2.7502   -1.9792 C   0  0  0  0  0  0  0  0  0  0  0  0
    1.0170    2.7950    0.2697 H   0  0  0  0  0  0  0  0  0  0  0  0
    0.4503    2.7959    1.9672 H   0  0  0  0  0  0  0  0  0  0  0  0
    1.4793    1.4666    1.3319 H   0  0  0  0  0  0  0  0  0  0  0  0
   -1.4404    0.1550   -0.8222 H   0  0  0  0  0  0  0  0  0  0  0  0
   -0.0150    1.0431   -1.3753 H   0  0  0  0  0  0  0  0  0  0  0  0
   -0.2723   -3.5608   -2.6363 H   0  0  0  0  0  0  0  0  0  0  0  0
  1 11  1  0  0  0  0
  1 10  1  0  0  0  0
  2  1  1  0  0  0  0
  2  3  2  0  0  0  0
  4  5  1  0  0  0  0
  4  2  1  0  0  0  0
  5  6  2  0  0  0  0
  7  5  1  0  0  0  0
  8  7  3  0  0  0  0
  9  1  1  0  0  0  0
 12  4  1  0  0  0  0
 13  4  1  0  0  0  0
 14  8  1  0  0  0  0
M  END
