14
title
C 0.017603887 2.7550185 0.5718768
C 0.013218611 1.2758106 0.9368755
O 0.01925799 0.8685983 2.0694134
N 0.0011010831 0.45415586 -0.19585201
C -0.0065884823 -0.9432938 -0.27091286
N -0.0030496279 -1.7001207 0.7548426
C -0.01885851 -1.4148045 -1.6352831
C -0.029122533 -1.8298037 -2.7645583
H 0.8982033 3.0084376 -0.02814177
H -0.87186664 3.0175047 -0.010946903
H 0.029392345 3.336917 1.4923708
H -0.002841563 0.92141336 -1.0886012
H -0.010230874 -2.6743145 0.45590428
H -0.038281344 -2.2110195 -3.756618
