title
 OpenBabel02282109573D

 13 12  0  0  0  0  0  0  0  0999 V2000
   -0.0116    2.7603    0.6061 C   0  0  0  0  0  0  0  0  0  0  0  0
   -0.0198    1.2779    0.9440 C   0  0  0  0  0  0  0  0  0  0  0  0
   -0.0443    0.8427    2.0639 O   0  0  0  0  0  0  0  0  0  0  0  0
    0.0045    0.4666   -0.2066 N   0  0  0  0  0  0  0  0  0  0  0  0
    0.0052   -0.9299   -0.2671 C   0  0  0  0  0  0  0  0  0  0  0  0
   -0.0157   -1.6727    0.6803 O   0  0  0  0  0  0  0  0  0  0  0  0
    0.0350   -1.4045   -1.6469 C   0  0  0  0  0  0  0  0  0  0  0  0
    0.0594   -1.8227   -2.7741 C   0  0  0  0  0  0  0  0  0  0  0  0
    0.8868    3.0254    0.0385 H   0  0  0  0  0  0  0  0  0  0  0  0
   -0.8825    3.0261   -0.0027 H   0  0  0  0  0  0  0  0  0  0  0  0
   -0.0329    3.3281    1.5352 H   0  0  0  0  0  0  0  0  0  0  0  0
    0.0241    0.9368   -1.0997 H   0  0  0  0  0  0  0  0  0  0  0  0
    0.0808   -2.2105   -3.7638 H   0  0  0  0  0  0  0  0  0  0  0  0
  1  2  1  0  0  0  0
  1 11  1  0  0  0  0
  2  3  2  0  0  0  0
  4  2  1  0  0  0  0
  5  4  1  0  0  0  0
  5  6  2  0  0  0  0
  7  5  1  0  0  0  0
  8  7  3  0  0  0  0
  9  1  1  0  0  0  0
 10  1  1  0  0  0  0
 12  4  1  0  0  0  0
 13  8  1  0  0  0  0
M  END
