13
title
C -0.011634316 2.7603137 0.6060892
C -0.019848563 1.2779129 0.94395804
O -0.044265922 0.84271556 2.063945
N 0.0045373547 0.46664208 -0.20663905
C 0.0051881247 -0.9299203 -0.26714247
O -0.015689531 -1.6727194 0.6802684
C 0.03504103 -1.4045306 -1.6469008
C 0.059416696 -1.8226508 -2.7740822
H 0.88681716 3.0254045 0.038455073
H -0.8825198 3.0261219 -0.002661224
H -0.03291605 3.3281248 1.5351822
H 0.02412993 0.93683356 -1.0996996
H 0.0808449 -2.2105486 -3.763759
