title
 OpenBabel02282109573D

 13 12  0  0  0  0  0  0  0  0999 V2000
    1.3304    1.7407   -0.4130 N   0  0  0  0  0  0  0  0  0  0  0  0
    0.5717    1.4152    0.6643 C   0  0  0  0  0  0  0  0  0  0  0  0
    0.7118    1.8906    1.7724 O   0  0  0  0  0  0  0  0  0  0  0  0
   -0.5816    0.4313    0.3869 C   0  0  0  0  0  0  0  0  0  0  0  0
   -0.3197   -0.7130   -0.5793 C   0  0  0  0  0  0  0  0  0  0  0  0
    0.3913   -0.6201   -1.5629 O   0  0  0  0  0  0  0  0  0  0  0  0
   -1.0096   -1.9484   -0.2727 C   0  0  0  0  0  0  0  0  0  0  0  0
   -1.5961   -2.9639   -0.0007 C   0  0  0  0  0  0  0  0  0  0  0  0
    2.1404    2.3164   -0.2458 H   0  0  0  0  0  0  0  0  0  0  0  0
    1.2874    1.1578   -1.2377 H   0  0  0  0  0  0  0  0  0  0  0  0
   -0.9297    0.0551    1.3493 H   0  0  0  0  0  0  0  0  0  0  0  0
   -1.4098    1.0123   -0.0442 H   0  0  0  0  0  0  0  0  0  0  0  0
   -2.1064   -3.8687    0.2270 H   0  0  0  0  0  0  0  0  0  0  0  0
  1  9  1  0  0  0  0
  1  2  1  0  0  0  0
  2  3  2  0  0  0  0
  4  2  1  0  0  0  0
  4 11  1  0  0  0  0
  5  7  1  0  0  0  0
  5  4  1  0  0  0  0
  6  5  2  0  0  0  0
  7  8  3  0  0  0  0
  8 13  1  0  0  0  0
 10  1  1  0  0  0  0
 12  4  1  0  0  0  0
M  END
