12
title
N 0.55146027 2.630373 -0.011182801
C 0.89815307 1.2915055 0.06598673
O 2.0222275 0.8936221 0.22422428
N -0.24530612 0.46283516 0.0055070575
C -0.25634155 -0.9265826 -0.10007022
O 0.70600903 -1.6254005 -0.28997532
C -1.6093243 -1.4599962 0.02812507
C -2.7120745 -1.9291096 0.1264663
H 1.3524809 3.2373178 -0.10099071
H -0.24081515 2.8952053 -0.5766505
H -1.1447521 0.8968975 0.1496405
H -3.679048 -2.3621435 0.21453904
