13
title
C 0.2840336 2.3177257 0.68537486
C -0.5992516 1.1635323 1.0590631
N -1.2698718 0.94322187 2.0969129
O -0.7575959 0.21268584 0.030170051
C 0.3082957 -0.52116 -0.36577734
O 1.4189675 -0.4626226 0.07657352
C -0.14742982 -1.4679486 -1.4893596
O 0.6200591 -2.2069018 -2.0346532
H 1.3076938 1.966787 0.5333128
H -0.061413858 2.7658212 -0.25188217
H 0.2738791 3.0764594 1.469612
H -1.1495336 1.7010268 2.7685142
H -1.2243866 -1.4019145 -1.7390265
