title
 OpenBabel02282109573D

 14 13  0  0  0  0  0  0  0  0999 V2000
    0.0170    2.8101    0.9747 C   0  0  0  0  0  0  0  0  0  0  0  0
   -0.3169    1.4753    0.3373 C   0  0  0  0  0  0  0  0  0  0  0  0
   -1.3318    1.2694   -0.2955 O   0  0  0  0  0  0  0  0  0  0  0  0
    0.6443    0.4992    0.5442 N   0  0  0  0  0  0  0  0  0  0  0  0
    0.6572   -0.7858   -0.0050 C   0  0  0  0  0  0  0  0  0  0  0  0
    1.7649   -1.4036   -0.0881 N   0  0  0  0  0  0  0  0  0  0  0  0
   -0.6660   -1.4486   -0.3768 C   0  0  0  0  0  0  0  0  0  0  0  0
   -0.6615   -2.4500   -1.0460 O   0  0  0  0  0  0  0  0  0  0  0  0
    0.9272    3.2298    0.5328 H   0  0  0  0  0  0  0  0  0  0  0  0
   -0.8123    3.4953    0.8056 H   0  0  0  0  0  0  0  0  0  0  0  0
    0.1893    2.6991    2.0499 H   0  0  0  0  0  0  0  0  0  0  0  0
    1.5349    0.7769    0.9348 H   0  0  0  0  0  0  0  0  0  0  0  0
    1.5851   -2.3323   -0.4787 H   0  0  0  0  0  0  0  0  0  0  0  0
   -1.5853   -1.0012    0.0263 H   0  0  0  0  0  0  0  0  0  0  0  0
  1 11  1  0  0  0  0
  2  4  1  0  0  0  0
  2  1  1  0  0  0  0
  3  2  2  0  0  0  0
  4 12  1  0  0  0  0
  5  4  1  0  0  0  0
  6  5  2  0  0  0  0
  7  5  1  0  0  0  0
  7 14  1  0  0  0  0
  8  7  2  0  0  0  0
  9  1  1  0  0  0  0
 10  1  1  0  0  0  0
 13  6  1  0  0  0  0
M  END
