title
 OpenBabel02282109573D

 12 11  0  0  0  0  0  0  0  0999 V2000
    1.2526    1.6961   -0.7269 N   0  0  0  0  0  0  0  0  0  0  0  0
    0.9889    1.1577    0.4830 C   0  0  0  0  0  0  0  0  0  0  0  0
    1.4272    1.5251    1.5493 O   0  0  0  0  0  0  0  0  0  0  0  0
    0.0944    0.0463    0.4428 N   0  0  0  0  0  0  0  0  0  0  0  0
   -0.5108   -0.5362   -0.6235 C   0  0  0  0  0  0  0  0  0  0  0  0
   -0.4113   -0.2175   -1.7973 O   0  0  0  0  0  0  0  0  0  0  0  0
   -1.4037   -1.7197   -0.2302 C   0  0  0  0  0  0  0  0  0  0  0  0
   -1.5454   -2.0868    0.9054 O   0  0  0  0  0  0  0  0  0  0  0  0
    1.8819    2.4789   -0.7557 H   0  0  0  0  0  0  0  0  0  0  0  0
    0.8376    1.3090   -1.5633 H   0  0  0  0  0  0  0  0  0  0  0  0
   -0.1064   -0.3567    1.3503 H   0  0  0  0  0  0  0  0  0  0  0  0
   -1.8965   -2.1912   -1.1017 H   0  0  0  0  0  0  0  0  0  0  0  0
  1  2  1  0  0  0  0
  2  3  2  0  0  0  0
  4  2  1  0  0  0  0
  4 11  1  0  0  0  0
  5  7  1  0  0  0  0
  5  4  1  0  0  0  0
  6  5  2  0  0  0  0
  7  8  2  0  0  0  0
  9  1  1  0  0  0  0
 10  1  1  0  0  0  0
 12  7  1  0  0  0  0
M  END
