title
 OpenBabel02282109573D

 17 16  0  0  0  0  0  0  0  0999 V2000
    0.9937    2.4986    0.7562 C   0  0  0  0  0  0  0  0  0  0  0  0
    1.1394    1.0386    0.3196 C   0  0  0  0  0  0  0  0  0  0  0  0
    2.0763    0.2579    1.2567 C   0  0  0  0  0  0  0  0  0  0  0  0
   -0.1836    0.4236    0.3220 N   0  0  0  0  0  0  0  0  0  0  0  0
   -0.4369   -0.5459   -0.4635 C   0  0  0  0  0  0  0  0  0  0  0  0
    0.3964   -1.1994   -1.3544 N   0  0  0  0  0  0  0  0  0  0  0  0
   -1.7741   -1.1167   -0.4141 C   0  0  0  0  0  0  0  0  0  0  0  0
   -2.8315   -1.5831   -0.4085 N   0  0  0  0  0  0  0  0  0  0  0  0
    1.9654    3.0025    0.7586 H   0  0  0  0  0  0  0  0  0  0  0  0
    0.3239    3.0390    0.0819 H   0  0  0  0  0  0  0  0  0  0  0  0
    0.5693    2.5481    1.7634 H   0  0  0  0  0  0  0  0  0  0  0  0
    1.5821    1.0362   -0.6937 H   0  0  0  0  0  0  0  0  0  0  0  0
    1.6642    0.2450    2.2700 H   0  0  0  0  0  0  0  0  0  0  0  0
    2.1988   -0.7781    0.9276 H   0  0  0  0  0  0  0  0  0  0  0  0
    3.0636    0.7289    1.2895 H   0  0  0  0  0  0  0  0  0  0  0  0
    1.2508   -0.7315   -1.6130 H   0  0  0  0  0  0  0  0  0  0  0  0
   -0.0423   -1.7210   -2.0971 H   0  0  0  0  0  0  0  0  0  0  0  0
  1  9  1  0  0  0  0
  1 11  1  0  0  0  0
  2  4  1  0  0  0  0
  2  1  1  0  0  0  0
  2  3  1  0  0  0  0
  3 15  1  0  0  0  0
  3 13  1  0  0  0  0
  5  7  1  0  0  0  0
  5  4  2  0  0  0  0
  6  5  1  0  0  0  0
  7  8  3  0  0  0  0
 10  1  1  0  0  0  0
 12  2  1  0  0  0  0
 14  3  1  0  0  0  0
 16  6  1  0  0  0  0
 17  6  1  0  0  0  0
M  END
