18
title
C -0.89765984 2.2022517 0.78784055
C -1.1133671 0.6936248 1.002994
C -2.5896475 0.37422898 1.2544141
N -0.6726954 -0.040360253 -0.17802161
C 0.55100614 -0.40403643 -0.27329892
N 1.5947332 -0.2535598 0.6009287
C 0.9150265 -1.149945 -1.522793
O 2.0400636 -1.5128391 -1.7715669
H 0.15928476 2.4400887 0.6291502
H -1.4510418 2.5376575 -0.09450191
H -1.2493948 2.7698889 1.6550951
H -0.54162025 0.3839563 1.8950964
H -3.1924999 0.6745616 0.39179504
H -2.731192 -0.69940245 1.4063072
H -2.9582422 0.9008778 2.140647
H 1.5731683 0.47161505 1.2956796
H 2.498602 -0.507249 0.22918737
H 0.051882662 -1.324685 -2.191297
