title
 OpenBabel02282109573D

 18 17  0  0  0  0  0  0  0  0999 V2000
   -0.0470    1.6494   -1.7035 C   0  0  0  0  0  0  0  0  0  0  0  0
   -0.1511    0.1198   -1.6231 C   0  0  0  0  0  0  0  0  0  0  0  0
    0.5093   -0.5445   -2.8379 C   0  0  0  0  0  0  0  0  0  0  0  0
    0.4592   -0.4185   -0.3215 C   0  0  0  0  0  0  0  0  0  0  0  0
   -0.3385   -0.1045    0.9333 C   0  0  0  0  0  0  0  0  0  0  0  0
   -1.4298    0.4237    0.9267 O   0  0  0  0  0  0  0  0  0  0  0  0
    0.2940   -0.5096    2.1813 C   0  0  0  0  0  0  0  0  0  0  0  0
    0.8339   -0.8512    3.2016 C   0  0  0  0  0  0  0  0  0  0  0  0
    1.0022    1.9702   -1.7029 H   0  0  0  0  0  0  0  0  0  0  0  0
   -0.5047    2.0208   -2.6259 H   0  0  0  0  0  0  0  0  0  0  0  0
   -0.5536    2.1258   -0.8611 H   0  0  0  0  0  0  0  0  0  0  0  0
   -1.2151   -0.1448   -1.6158 H   0  0  0  0  0  0  0  0  0  0  0  0
    1.5823   -0.3211   -2.8776 H   0  0  0  0  0  0  0  0  0  0  0  0
    0.3968   -1.6337   -2.8128 H   0  0  0  0  0  0  0  0  0  0  0  0
    0.0629   -0.1827   -3.7697 H   0  0  0  0  0  0  0  0  0  0  0  0
    0.5575   -1.5136   -0.3573 H   0  0  0  0  0  0  0  0  0  0  0  0
    1.4840   -0.0485   -0.1768 H   0  0  0  0  0  0  0  0  0  0  0  0
    1.2947   -1.1453    4.1134 H   0  0  0  0  0  0  0  0  0  0  0  0
  1  9  1  0  0  0  0
  1  2  1  0  0  0  0
  1 11  1  0  0  0  0
  2 12  1  0  0  0  0
  2  4  1  0  0  0  0
  3 14  1  0  0  0  0
  3  2  1  0  0  0  0
  4 17  1  0  0  0  0
  4  5  1  0  0  0  0
  5  7  1  0  0  0  0
  6  5  2  0  0  0  0
  7  8  3  0  0  0  0
  8 18  1  0  0  0  0
 10  1  1  0  0  0  0
 13  3  1  0  0  0  0
 15  3  1  0  0  0  0
 16  4  1  0  0  0  0
M  END
