title
 OpenBabel02282109573D

 17 16  0  0  0  0  0  0  0  0999 V2000
    1.0890    2.5746    0.1533 C   0  0  0  0  0  0  0  0  0  0  0  0
    1.1921    1.0492    0.1689 C   0  0  0  0  0  0  0  0  0  0  0  0
    1.9364    0.5232    1.4037 C   0  0  0  0  0  0  0  0  0  0  0  0
   -0.1537    0.4833    0.0666 N   0  0  0  0  0  0  0  0  0  0  0  0
   -0.3872   -0.7726   -0.4041 C   0  0  0  0  0  0  0  0  0  0  0  0
    0.5364   -1.5330   -0.8661 N   0  0  0  0  0  0  0  0  0  0  0  0
   -1.7900   -1.1654   -0.3576 C   0  0  0  0  0  0  0  0  0  0  0  0
   -2.8917   -1.5158   -0.3300 N   0  0  0  0  0  0  0  0  0  0  0  0
    2.0860    3.0217    0.1893 H   0  0  0  0  0  0  0  0  0  0  0  0
    0.5843    2.9285   -0.7500 H   0  0  0  0  0  0  0  0  0  0  0  0
    0.5330    2.9413    1.0252 H   0  0  0  0  0  0  0  0  0  0  0  0
    1.7253    0.7096   -0.7246 H   0  0  0  0  0  0  0  0  0  0  0  0
    1.9908   -0.5673    1.3783 H   0  0  0  0  0  0  0  0  0  0  0  0
    2.9571    0.9178    1.4292 H   0  0  0  0  0  0  0  0  0  0  0  0
    1.4295    0.8299    2.3255 H   0  0  0  0  0  0  0  0  0  0  0  0
   -0.9061    0.9530    0.5438 H   0  0  0  0  0  0  0  0  0  0  0  0
    0.1516   -2.4079   -1.2112 H   0  0  0  0  0  0  0  0  0  0  0  0
  1  2  1  0  0  0  0
  1  9  1  0  0  0  0
  1 11  1  0  0  0  0
  2  3  1  0  0  0  0
  3 14  1  0  0  0  0
  3 15  1  0  0  0  0
  4  2  1  0  0  0  0
  4 16  1  0  0  0  0
  5  7  1  0  0  0  0
  5  4  1  0  0  0  0
  6  5  2  0  0  0  0
  7  8  3  0  0  0  0
 10  1  1  0  0  0  0
 12  2  1  0  0  0  0
 13  3  1  0  0  0  0
 17  6  1  0  0  0  0
M  END
