title
 OpenBabel02282109573D

 15 14  0  0  0  0  0  0  0  0999 V2000
    0.9672    2.5360    0.2641 C   0  0  0  0  0  0  0  0  0  0  0  0
    1.1568    1.0294    0.2116 C   0  0  0  0  0  0  0  0  0  0  0  0
    1.8825    0.4536    1.4206 C   0  0  0  0  0  0  0  0  0  0  0  0
   -0.1966    0.4629    0.1481 O   0  0  0  0  0  0  0  0  0  0  0  0
   -0.3238   -0.7289   -0.4231 C   0  0  0  0  0  0  0  0  0  0  0  0
    0.5421   -1.4145   -0.8974 O   0  0  0  0  0  0  0  0  0  0  0  0
   -1.7368   -1.1378   -0.4143 C   0  0  0  0  0  0  0  0  0  0  0  0
   -2.8302   -1.5089   -0.4329 N   0  0  0  0  0  0  0  0  0  0  0  0
    1.9432    3.0293    0.2787 H   0  0  0  0  0  0  0  0  0  0  0  0
    0.4139    2.8910   -0.6090 H   0  0  0  0  0  0  0  0  0  0  0  0
    0.4193    2.8277    1.1650 H   0  0  0  0  0  0  0  0  0  0  0  0
    1.6675    0.7311   -0.7077 H   0  0  0  0  0  0  0  0  0  0  0  0
    1.3425    0.6885    2.3428 H   0  0  0  0  0  0  0  0  0  0  0  0
    1.9865   -0.6300    1.3331 H   0  0  0  0  0  0  0  0  0  0  0  0
    2.8845    0.8879    1.4875 H   0  0  0  0  0  0  0  0  0  0  0  0
  1  9  1  0  0  0  0
  1 11  1  0  0  0  0
  2  1  1  0  0  0  0
  2  3  1  0  0  0  0
  3 15  1  0  0  0  0
  3 13  1  0  0  0  0
  4  2  1  0  0  0  0
  5  7  1  0  0  0  0
  5  4  1  0  0  0  0
  6  5  2  0  0  0  0
  8  7  3  0  0  0  0
 10  1  1  0  0  0  0
 12  2  1  0  0  0  0
 14  3  1  0  0  0  0
M  END
