title
 OpenBabel02282109573D

 16 15  0  0  1  0  0  0  0  0999 V2000
    0.8695    2.7906   -0.0890 C   0  0  0  0  0  0  0  0  0  0  0  0
    0.9633    1.2720   -0.1653 C   0  0  1  0  0  0  0  0  0  0  0  0
    1.8355    0.8478    0.8663 O   0  0  0  0  0  0  0  0  0  0  0  0
   -0.4191    0.6120   -0.0259 C   0  0  0  0  0  0  0  0  0  0  0  0
   -0.3719   -0.9024   -0.1063 C   0  0  0  0  0  0  0  0  0  0  0  0
    0.6615   -1.5430   -0.0462 O   0  0  0  0  0  0  0  0  0  0  0  0
   -1.6540   -1.5665   -0.2542 C   0  0  0  0  0  0  0  0  0  0  0  0
   -2.7303   -2.0915   -0.3760 C   0  0  0  0  0  0  0  0  0  0  0  0
    1.8669    3.2272   -0.1836 H   0  0  0  0  0  0  0  0  0  0  0  0
    0.2357    3.1886   -0.8873 H   0  0  0  0  0  0  0  0  0  0  0  0
    0.4541    3.0990    0.8759 H   0  0  0  0  0  0  0  0  0  0  0  0
    1.3719    0.9892   -1.1498 H   0  0  0  0  0  0  0  0  0  0  0  0
    1.9178   -0.1096    0.7639 H   0  0  0  0  0  0  0  0  0  0  0  0
   -0.8591    0.8730    0.9475 H   0  0  0  0  0  0  0  0  0  0  0  0
   -1.1201    0.9798   -0.7853 H   0  0  0  0  0  0  0  0  0  0  0  0
   -3.6721   -2.5732   -0.4838 H   0  0  0  0  0  0  0  0  0  0  0  0
  1 11  1  0  0  0  0
  2 12  1  6  0  0  0
  2  1  1  0  0  0  0
  2  4  1  0  0  0  0
  2  3  1  0  0  0  0
  4 14  1  0  0  0  0
  5  6  2  0  0  0  0
  5  4  1  0  0  0  0
  7  5  1  0  0  0  0
  8  7  3  0  0  0  0
  9  1  1  0  0  0  0
 10  1  1  0  0  0  0
 13  3  1  0  0  0  0
 15  4  1  0  0  0  0
 16  8  1  0  0  0  0
M  END
