title
 OpenBabel02282109573D

 15 14  0  0  1  0  0  0  0  0999 V2000
    1.1323    2.6428    0.2283 C   0  0  0  0  0  0  0  0  0  0  0  0
    0.9892    1.1261    0.1415 C   0  0  1  0  0  0  0  0  0  0  0  0
    0.8663    0.5226    1.4208 O   0  0  0  0  0  0  0  0  0  0  0  0
   -0.1827    0.7121   -0.7841 C   0  0  0  0  0  0  0  0  0  0  0  0
   -0.3234   -0.7940   -0.8085 C   0  0  0  0  0  0  0  0  0  0  0  0
    0.2327   -1.5188   -1.5933 O   0  0  0  0  0  0  0  0  0  0  0  0
   -1.2039   -1.3621    0.2364 C   0  0  0  0  0  0  0  0  0  0  0  0
   -1.9276   -1.7856    1.0328 N   0  0  0  0  0  0  0  0  0  0  0  0
    1.9687    2.8990    0.8837 H   0  0  0  0  0  0  0  0  0  0  0  0
    1.3135    3.0830   -0.7571 H   0  0  0  0  0  0  0  0  0  0  0  0
    0.2219    3.0978    0.6375 H   0  0  0  0  0  0  0  0  0  0  0  0
    1.9065    0.6957   -0.2757 H   0  0  0  0  0  0  0  0  0  0  0  0
    0.1252    0.9281    1.8858 H   0  0  0  0  0  0  0  0  0  0  0  0
   -1.1126    1.1719   -0.4290 H   0  0  0  0  0  0  0  0  0  0  0  0
    0.0153    1.0475   -1.8059 H   0  0  0  0  0  0  0  0  0  0  0  0
  1 11  1  0  0  0  0
  1  9  1  0  0  0  0
  2 12  1  6  0  0  0
  2  1  1  0  0  0  0
  2  3  1  0  0  0  0
  3 13  1  0  0  0  0
  4 14  1  0  0  0  0
  4  2  1  0  0  0  0
  5  4  1  0  0  0  0
  5  7  1  0  0  0  0
  6  5  2  0  0  0  0
  7  8  3  0  0  0  0
 10  1  1  0  0  0  0
 15  4  1  0  0  0  0
M  END
