17
title
C 2.0012493 0.46865705 -0.116721414
N 1.0656501 -0.2746154 0.71533656
C 1.6760763 -0.7121103 1.9607576
C -0.1726051 0.44808596 0.9252174
C -1.0434208 0.5315052 -0.32825324
O -1.681334 1.5232712 -0.6048526
C -1.1087558 -0.6657058 -1.1507357
C -1.209914 -1.6399755 -1.8503755
H 2.8794632 -0.14992464 -0.3237314
H 1.5363543 0.72140306 -1.0742878
H 2.3450465 1.4087414 0.3547407
H 1.9934762 0.12442406 2.6118708
H 0.9712876 -1.3320979 2.5232856
H 2.5603037 -1.3182191 1.7403566
H -0.76875 -0.0930488 1.6727871
H -0.04249578 1.4805827 1.2966335
H -1.2961361 -2.5010784 -2.4675176
