18
title
C -1.2945179 1.6603068 1.1510415
C -1.3682803 0.14516325 0.9135479
C -2.815158 -0.30917615 0.6842806
C -0.4804098 -0.2830369 -0.26277635
C 1.0037786 -0.18652946 -0.0070174136
O 1.5208136 0.06499129 1.0579798
C 1.9369587 -0.4537985 -1.1998684
O 1.5491761 -0.6887223 -2.313541
H -0.27142453 1.9820317 1.3603644
H -1.6572562 2.2114804 0.27469054
H -1.9172913 1.9492068 2.0036044
H -0.98395 -0.35476157 1.8112053
H -3.2374263 0.15489067 -0.21508668
H -2.8812635 -1.3954086 0.5605432
H -3.450585 -0.028515544 1.5302393
H -0.67410326 -1.3291669 -0.54427946
H -0.7074648 0.28477013 -1.1752932
H 3.0108962 -0.40148962 -0.92031765
