title
 OpenBabel02282109573D

 18 17  0  0  0  0  0  0  0  0999 V2000
    1.4452    1.8997    0.7026 C   0  0  0  0  0  0  0  0  0  0  0  0
    1.4780    0.3649    0.7339 C   0  0  0  0  0  0  0  0  0  0  0  0
    2.1446   -0.1787    1.9976 C   0  0  0  0  0  0  0  0  0  0  0  0
    0.1396   -0.2097    0.6120 N   0  0  0  0  0  0  0  0  0  0  0  0
   -0.5342   -0.2596   -0.5738 C   0  0  0  0  0  0  0  0  0  0  0  0
   -0.0221    0.0842   -1.6954 N   0  0  0  0  0  0  0  0  0  0  0  0
   -1.9432   -0.8024   -0.4509 C   0  0  0  0  0  0  0  0  0  0  0  0
   -2.6723   -0.9396   -1.3966 O   0  0  0  0  0  0  0  0  0  0  0  0
    2.4618    2.3045    0.7339 H   0  0  0  0  0  0  0  0  0  0  0  0
    0.9649    2.2479   -0.2144 H   0  0  0  0  0  0  0  0  0  0  0  0
    0.8950    2.2966    1.5636 H   0  0  0  0  0  0  0  0  0  0  0  0
    2.0267    0.0184   -0.1480 H   0  0  0  0  0  0  0  0  0  0  0  0
    1.5977    0.1326    2.8967 H   0  0  0  0  0  0  0  0  0  0  0  0
    2.1874   -1.2715    1.9833 H   0  0  0  0  0  0  0  0  0  0  0  0
    3.1642    0.2060    2.0861 H   0  0  0  0  0  0  0  0  0  0  0  0
   -0.3992   -0.3057    1.4591 H   0  0  0  0  0  0  0  0  0  0  0  0
   -0.7100   -0.0993   -2.4281 H   0  0  0  0  0  0  0  0  0  0  0  0
   -2.2731   -1.0726    0.5791 H   0  0  0  0  0  0  0  0  0  0  0  0
  1  9  1  0  0  0  0
  1  2  1  0  0  0  0
  1 11  1  0  0  0  0
  2  3  1  0  0  0  0
  3 15  1  0  0  0  0
  3 13  1  0  0  0  0
  4  2  1  0  0  0  0
  4 16  1  0  0  0  0
  5  7  1  0  0  0  0
  5  4  1  0  0  0  0
  6  5  2  0  0  0  0
  7 18  1  0  0  0  0
  8  7  2  0  0  0  0
 10  1  1  0  0  0  0
 12  2  1  0  0  0  0
 14  3  1  0  0  0  0
 17  6  1  0  0  0  0
M  END
