16
title
C 0.9989855 2.1476026 -0.48292053
C 1.2693638 0.9225407 0.38835144
O 1.8158303 1.2846705 1.6519672
C 0.027475031 0.041874427 0.58613676
C -0.41578957 -0.71714187 -0.6390909
O 0.14399543 -0.7066692 -1.7123729
C -1.6772659 -1.5856085 -0.50340796
O -2.3353024 -1.6521959 0.50045556
H 1.9057329 2.751972 -0.56847435
H 0.6798734 1.849927 -1.4847687
H 0.2107673 2.7723622 -0.042289507
H 2.0456753 0.3138701 -0.086893976
H 1.2229809 1.9269409 2.0578156
H 0.22449765 -0.6941626 1.3769854
H -0.8285733 0.6242719 0.95564926
H -1.9175084 -2.1385043 -1.4362196
