title
 OpenBabel02282109573D

 17 16  0  0  0  0  0  0  0  0999 V2000
    2.0725    0.7954    0.6148 C   0  0  0  0  0  0  0  0  0  0  0  0
    0.9206   -0.0612    0.8479 N   0  0  0  0  0  0  0  0  0  0  0  0
    1.0129   -0.8389    2.0725 C   0  0  0  0  0  0  0  0  0  0  0  0
   -0.3491    0.6396    0.6748 C   0  0  0  0  0  0  0  0  0  0  0  0
   -0.6219    0.5434   -0.8146 C   0  0  0  0  0  0  0  0  0  0  0  0
   -0.3916    1.4066   -1.6294 O   0  0  0  0  0  0  0  0  0  0  0  0
   -1.1601   -0.8066   -1.3097 C   0  0  0  0  0  0  0  0  0  0  0  0
   -1.6141   -1.6528   -0.5850 O   0  0  0  0  0  0  0  0  0  0  0  0
    2.9828    0.1892    0.5849 H   0  0  0  0  0  0  0  0  0  0  0  0
    1.9689    1.3067   -0.3461 H   0  0  0  0  0  0  0  0  0  0  0  0
    2.1953    1.5663    1.3981 H   0  0  0  0  0  0  0  0  0  0  0  0
    0.9933   -0.2159    2.9857 H   0  0  0  0  0  0  0  0  0  0  0  0
    0.1850   -1.5514    2.1189 H   0  0  0  0  0  0  0  0  0  0  0  0
    1.9489   -1.4059    2.0725 H   0  0  0  0  0  0  0  0  0  0  0  0
   -1.1334    0.1064    1.2164 H   0  0  0  0  0  0  0  0  0  0  0  0
   -0.3280    1.6901    1.0011 H   0  0  0  0  0  0  0  0  0  0  0  0
   -1.1408   -0.8950   -2.4169 H   0  0  0  0  0  0  0  0  0  0  0  0
  1  2  1  0  0  0  0
  1 11  1  0  0  0  0
  2  3  1  0  0  0  0
  3 13  1  0  0  0  0
  3 12  1  0  0  0  0
  4  2  1  0  0  0  0
  4 16  1  0  0  0  0
  4 15  1  0  0  0  0
  5  4  1  0  0  0  0
  6  5  2  0  0  0  0
  7  5  1  0  0  0  0
  7  8  2  0  0  0  0
  9  1  1  0  0  0  0
 10  1  1  0  0  0  0
 14  3  1  0  0  0  0
 17  7  1  0  0  0  0
M  END
