17
title
C 2.0724955 0.79542094 0.61481655
N 0.9205503 -0.061195448 0.8479472
C 1.0128697 -0.8388891 2.072533
C -0.3491314 0.6396209 0.6748495
C -0.62188286 0.5434228 -0.814644
O -0.39158612 1.4065949 -1.6294488
C -1.1601201 -0.8065596 -1.3096696
O -1.6140915 -1.6528233 -0.5850043
H 2.9828444 0.18916005 0.5849006
H 1.9688734 1.3067276 -0.34612098
H 2.1953013 1.5662869 1.3981143
H 0.9933312 -0.21589 2.9856932
H 0.18498965 -1.5514345 2.118942
H 1.9489458 -1.4059292 2.0724638
H -1.1333996 0.106422104 1.2164494
H -0.32804662 1.6900672 1.0011498
H -1.1407889 -0.8950156 -2.4169106
