21
title
C 0.695456 2.7401726 0.029081851
C 0.74413425 1.2251571 0.27091172
C 1.34914 0.9152142 1.6477157
C -0.6609908 0.62276787 0.095179304
C -0.75338715 -0.9192293 0.16663536
C -2.2037678 -1.4131181 -0.002063214
C 0.11532308 -1.543509 -0.83845943
N 0.79352206 -2.0305824 -1.6382408
H 1.6942396 3.1816366 0.10331293
H 0.2982796 2.974417 -0.96405905
H 0.057612136 3.2373154 0.770045
H 1.3952925 0.78247815 -0.49452165
H 1.4872411 -0.15815109 1.8096592
H 2.3316329 1.3860061 1.7523153
H 0.7108625 1.2990968 2.4531567
H -1.3289168 1.0240854 0.868962
H -1.0727909 0.9437627 -0.869343
H -0.39006978 -1.2516572 1.1465135
H -2.8326006 -0.98318154 0.7826755
H -2.607128 -1.1091743 -0.97213453
H -2.2614145 -2.5022242 0.06556569
