20
title
C -0.28430614 1.804042 -1.6660203
C -0.2142135 0.2711077 -1.6366054
C 0.5116157 -0.26342666 -2.878767
C 0.47328088 -0.25943875 -0.3656959
C -0.27058467 0.05947836 0.9475164
N -1.6225877 -0.5054377 0.9347283
C 0.532472 -0.3980645 2.1038725
N 1.1270677 -0.7842214 3.0176697
H 0.7173399 2.2468994 -1.6030388
H -0.7406536 2.1508267 -2.598601
H -0.88458776 2.207186 -0.8447314
H -1.2398725 -0.114808455 -1.641573
H 1.547784 0.094118565 -2.9165397
H 0.5375201 -1.3582355 -2.8884988
H 0.014139644 0.06803954 -3.79581
H 0.58333844 -1.3493671 -0.4357682
H 1.4896013 0.14682837 -0.29351574
H -0.3717044 1.1462507 1.0444942
H -1.568994 -1.5206026 0.9171576
H -2.1143212 -0.2582798 1.788177
