title
 OpenBabel02282109573D

 20 19  0  0  1  0  0  0  0  0999 V2000
   -0.5122    1.8445   -1.5462 C   0  0  0  0  0  0  0  0  0  0  0  0
   -0.2477    0.3349   -1.5716 C   0  0  0  0  0  0  0  0  0  0  0  0
    0.6470   -0.0411   -2.7544 C   0  0  0  0  0  0  0  0  0  0  0  0
    0.4280   -0.0895   -0.3364 N   0  0  0  0  0  0  0  0  0  0  0  0
   -0.3994   -0.1787    0.8655 C   0  0  1  0  0  0  0  0  0  0  0  0
   -1.3903   -1.3626    0.9159 C   0  0  0  0  0  0  0  0  0  0  0  0
    0.4859   -0.2258    2.0443 C   0  0  0  0  0  0  0  0  0  0  0  0
    1.1691   -0.2941    2.9735 N   0  0  0  0  0  0  0  0  0  0  0  0
    0.4301    2.3915   -1.4457 H   0  0  0  0  0  0  0  0  0  0  0  0
   -1.0062    2.1588   -2.4710 H   0  0  0  0  0  0  0  0  0  0  0  0
   -1.1629    2.1384   -0.7168 H   0  0  0  0  0  0  0  0  0  0  0  0
   -1.2160   -0.1800   -1.7056 H   0  0  0  0  0  0  0  0  0  0  0  0
    1.6270    0.4370   -2.6574 H   0  0  0  0  0  0  0  0  0  0  0  0
    0.7989   -1.1250   -2.8095 H   0  0  0  0  0  0  0  0  0  0  0  0
    0.1962    0.2808   -3.6971 H   0  0  0  0  0  0  0  0  0  0  0  0
    0.8980   -0.9770   -0.4825 H   0  0  0  0  0  0  0  0  0  0  0  0
   -0.9684    0.7549    0.9437 H   0  0  0  0  0  0  0  0  0  0  0  0
   -1.9787   -1.3423    1.8376 H   0  0  0  0  0  0  0  0  0  0  0  0
   -2.0778   -1.3146    0.0677 H   0  0  0  0  0  0  0  0  0  0  0  0
   -0.8506   -2.3135    0.8764 H   0  0  0  0  0  0  0  0  0  0  0  0
  1  9  1  0  0  0  0
  1 11  1  0  0  0  0
  2  1  1  0  0  0  0
  2  4  1  0  0  0  0
  3 13  1  0  0  0  0
  3  2  1  0  0  0  0
  4  5  1  0  0  0  0
  5  6  1  0  0  0  0
  5 17  1  1  0  0  0
  5  7  1  0  0  0  0
  6 18  1  0  0  0  0
  7  8  3  0  0  0  0
 10  1  1  0  0  0  0
 12  2  1  0  0  0  0
 14  3  1  0  0  0  0
 15  3  1  0  0  0  0
 16  4  1  0  0  0  0
 19  6  1  0  0  0  0
 20  6  1  0  0  0  0
M  END
