title
 OpenBabel02282109573D

 20 19  0  0  1  0  0  0  0  0999 V2000
    0.5014    1.8291   -0.9863 C   0  0  0  0  0  0  0  0  0  0  0  0
   -0.1506    0.5092   -1.4050 C   0  0  0  0  0  0  0  0  0  0  0  0
    0.3346    0.0388   -2.7726 C   0  0  0  0  0  0  0  0  0  0  0  0
    0.1362   -0.5585   -0.4996 O   0  0  0  0  0  0  0  0  0  0  0  0
   -0.6061   -0.5941    0.7094 C   0  0  1  0  0  0  0  0  0  0  0  0
   -0.7410   -2.0668    1.1125 C   0  0  0  0  0  0  0  0  0  0  0  0
    0.0201    0.1831    1.7913 C   0  0  0  0  0  0  0  0  0  0  0  0
    0.5275    0.7812    2.7026 C   0  0  0  0  0  0  0  0  0  0  0  0
    1.5873    1.7091   -0.9190 H   0  0  0  0  0  0  0  0  0  0  0  0
    0.2830    2.6073   -1.7254 H   0  0  0  0  0  0  0  0  0  0  0  0
    0.1374    2.1683   -0.0142 H   0  0  0  0  0  0  0  0  0  0  0  0
   -1.2445    0.6485   -1.4422 H   0  0  0  0  0  0  0  0  0  0  0  0
    1.4163   -0.1273   -2.7534 H   0  0  0  0  0  0  0  0  0  0  0  0
   -0.1510   -0.9003   -3.0504 H   0  0  0  0  0  0  0  0  0  0  0  0
    0.1141    0.7886   -3.5382 H   0  0  0  0  0  0  0  0  0  0  0  0
   -1.6128   -0.1822    0.5296 H   0  0  0  0  0  0  0  0  0  0  0  0
   -1.3033   -2.1598    2.0450 H   0  0  0  0  0  0  0  0  0  0  0  0
   -1.2571   -2.6161    0.3212 H   0  0  0  0  0  0  0  0  0  0  0  0
    0.2505   -2.5030    1.2556 H   0  0  0  0  0  0  0  0  0  0  0  0
    0.9788    1.3223    3.4973 H   0  0  0  0  0  0  0  0  0  0  0  0
  1  9  1  0  0  0  0
  1 11  1  0  0  0  0
  2  1  1  0  0  0  0
  2  4  1  0  0  0  0
  3 13  1  0  0  0  0
  3  2  1  0  0  0  0
  4  5  1  0  0  0  0
  5 16  1  6  0  0  0
  5  6  1  0  0  0  0
  5  7  1  0  0  0  0
  6 19  1  0  0  0  0
  6 17  1  0  0  0  0
  7  8  3  0  0  0  0
  8 20  1  0  0  0  0
 10  1  1  0  0  0  0
 12  2  1  0  0  0  0
 14  3  1  0  0  0  0
 15  3  1  0  0  0  0
 18  6  1  0  0  0  0
M  END
