title
 OpenBabel02282109573D

 19 18  0  0  1  0  0  0  0  0999 V2000
    0.5685    1.7958    1.0096 C   0  0  0  0  0  0  0  0  0  0  0  0
    1.2730    0.4955    0.6205 C   0  0  0  0  0  0  0  0  0  0  0  0
    2.2143   -0.0003    1.7123 C   0  0  0  0  0  0  0  0  0  0  0  0
    0.3462   -0.5777    0.3879 O   0  0  0  0  0  0  0  0  0  0  0  0
   -0.2726   -0.6309   -0.8738 C   0  0  1  0  0  0  0  0  0  0  0  0
   -0.6586   -2.0866   -1.1506 C   0  0  0  0  0  0  0  0  0  0  0  0
   -1.4771    0.2339   -0.9515 C   0  0  0  0  0  0  0  0  0  0  0  0
   -2.4238    0.8930   -1.0243 N   0  0  0  0  0  0  0  0  0  0  0  0
    1.3103    2.5739    1.2164 H   0  0  0  0  0  0  0  0  0  0  0  0
   -0.0899    2.1594    0.2177 H   0  0  0  0  0  0  0  0  0  0  0  0
   -0.0338    1.6436    1.9106 H   0  0  0  0  0  0  0  0  0  0  0  0
    1.8483    0.6574   -0.3058 H   0  0  0  0  0  0  0  0  0  0  0  0
    1.6563   -0.1947    2.6335 H   0  0  0  0  0  0  0  0  0  0  0  0
    2.7059   -0.9274    1.4064 H   0  0  0  0  0  0  0  0  0  0  0  0
    2.9811    0.7499    1.9257 H   0  0  0  0  0  0  0  0  0  0  0  0
    0.4208   -0.2813   -1.6553 H   0  0  0  0  0  0  0  0  0  0  0  0
    0.2453   -2.6995   -1.1515 H   0  0  0  0  0  0  0  0  0  0  0  0
   -1.3304   -2.4484   -0.3691 H   0  0  0  0  0  0  0  0  0  0  0  0
   -1.1594   -2.1767   -2.1177 H   0  0  0  0  0  0  0  0  0  0  0  0
  1  9  1  0  0  0  0
  1 11  1  0  0  0  0
  2  1  1  0  0  0  0
  2  3  1  0  0  0  0
  3 15  1  0  0  0  0
  3 13  1  0  0  0  0
  4  2  1  0  0  0  0
  5 16  1  6  0  0  0
  5  4  1  0  0  0  0
  6  5  1  0  0  0  0
  6 18  1  0  0  0  0
  7  5  1  0  0  0  0
  8  7  3  0  0  0  0
 10  1  1  0  0  0  0
 12  2  1  0  0  0  0
 14  3  1  0  0  0  0
 17  6  1  0  0  0  0
 19  6  1  0  0  0  0
M  END
