title
 OpenBabel02282109573D

 20 19  0  0  1  0  0  0  0  0999 V2000
   -0.1636    1.7942    0.9225 C   0  0  0  0  0  0  0  0  0  0  0  0
   -0.1844    0.2552    0.9481 C   0  0  1  0  0  0  0  0  0  0  0  0
    0.3988   -0.3603   -0.3504 C   0  0  0  0  0  0  0  0  0  0  0  0
   -0.3749    0.0100   -1.5272 N   0  0  0  0  0  0  0  0  0  0  0  0
    0.4180   -0.0536   -2.7474 C   0  0  0  0  0  0  0  0  0  0  0  0
   -1.6035   -0.7604   -1.6602 C   0  0  0  0  0  0  0  0  0  0  0  0
    0.5505   -0.2642    2.1048 C   0  0  0  0  0  0  0  0  0  0  0  0
    1.1447   -0.6731    3.0081 N   0  0  0  0  0  0  0  0  0  0  0  0
    0.8654    2.1652    0.8987 H   0  0  0  0  0  0  0  0  0  0  0  0
   -0.6777    2.1370    0.0228 H   0  0  0  0  0  0  0  0  0  0  0  0
   -0.6566    2.2103    1.8042 H   0  0  0  0  0  0  0  0  0  0  0  0
   -1.2222   -0.0815    1.0601 H   0  0  0  0  0  0  0  0  0  0  0  0
    1.4180    0.0201   -0.4728 H   0  0  0  0  0  0  0  0  0  0  0  0
    0.4798   -1.4559   -0.2293 H   0  0  0  0  0  0  0  0  0  0  0  0
    0.7653   -1.0756   -2.9901 H   0  0  0  0  0  0  0  0  0  0  0  0
   -0.1799    0.3050   -3.5909 H   0  0  0  0  0  0  0  0  0  0  0  0
    1.2966    0.5915   -2.6560 H   0  0  0  0  0  0  0  0  0  0  0  0
   -2.2316   -0.6471   -0.7723 H   0  0  0  0  0  0  0  0  0  0  0  0
   -2.1759   -0.3924   -2.5167 H   0  0  0  0  0  0  0  0  0  0  0  0
   -1.4180   -1.8411   -1.8095 H   0  0  0  0  0  0  0  0  0  0  0  0
  1  2  1  0  0  0  0
  1 11  1  0  0  0  0
  2 12  1  1  0  0  0
  2  7  1  0  0  0  0
  3 14  1  0  0  0  0
  3  2  1  0  0  0  0
  4  3  1  0  0  0  0
  5 17  1  0  0  0  0
  5  4  1  0  0  0  0
  6  4  1  0  0  0  0
  6 18  1  0  0  0  0
  7  8  3  0  0  0  0
  9  1  1  0  0  0  0
 10  1  1  0  0  0  0
 13  3  1  0  0  0  0
 15  5  1  0  0  0  0
 16  5  1  0  0  0  0
 19  6  1  0  0  0  0
 20  6  1  0  0  0  0
M  END
