20
title
C -0.16357256 1.7942383 0.92246205
C -0.18441811 0.25522032 0.9481108
C 0.39880428 -0.3603319 -0.35042503
N -0.37494242 0.00999325 -1.5272382
C 0.4180198 -0.05363854 -2.7473593
C -1.6034511 -0.76041895 -1.6601845
C 0.5505039 -0.26420945 2.1047559
N 1.1447269 -0.67309815 3.0080698
H 0.8654172 2.165191 0.8987346
H -0.6776715 2.1370275 0.022801904
H -0.65655637 2.2103155 1.8041612
H -1.2221594 -0.081481464 1.0601435
H 1.4179677 0.020102063 -0.4728109
H 0.47983173 -1.4559314 -0.22929314
H 0.7653046 -1.075577 -2.990065
H -0.17992051 0.30503407 -3.5909061
H 1.296649 0.591514 -2.6559603
H -2.231631 -0.64708686 -0.7722817
H -2.1758678 -0.3924101 -2.516704
H -1.4180496 -1.8411084 -1.8095239
