title
 OpenBabel02282109573D

 20 19  0  0  1  0  0  0  0  0999 V2000
   -0.1858    2.6950   -0.7987 C   0  0  0  0  0  0  0  0  0  0  0  0
   -0.1262    1.1674   -0.8122 C   0  0  1  0  0  0  0  0  0  0  0  0
    0.7136    0.6952   -1.8681 O   0  0  0  0  0  0  0  0  0  0  0  0
    0.4554    0.5994    0.4805 C   0  0  0  0  0  0  0  0  0  0  0  0
    0.4466   -0.9453    0.5391 C   0  0  1  0  0  0  0  0  0  0  0  0
    1.2412   -1.4636    1.7535 C   0  0  0  0  0  0  0  0  0  0  0  0
   -0.9195   -1.4690    0.5509 C   0  0  0  0  0  0  0  0  0  0  0  0
   -2.0451   -1.8922    0.5851 C   0  0  0  0  0  0  0  0  0  0  0  0
    0.8146    3.1172   -0.6590 H   0  0  0  0  0  0  0  0  0  0  0  0
   -0.5857    3.0763   -1.7452 H   0  0  0  0  0  0  0  0  0  0  0  0
   -0.8346    3.0574    0.0056 H   0  0  0  0  0  0  0  0  0  0  0  0
   -1.1443    0.7675   -0.9382 H   0  0  0  0  0  0  0  0  0  0  0  0
    0.3091    0.9439   -2.7046 H   0  0  0  0  0  0  0  0  0  0  0  0
    1.4933    0.9429    0.5699 H   0  0  0  0  0  0  0  0  0  0  0  0
   -0.1000    1.0007    1.3354 H   0  0  0  0  0  0  0  0  0  0  0  0
    0.9369   -1.2998   -0.3755 H   0  0  0  0  0  0  0  0  0  0  0  0
    0.7993   -1.1062    2.6890 H   0  0  0  0  0  0  0  0  0  0  0  0
    1.2475   -2.5563    1.7794 H   0  0  0  0  0  0  0  0  0  0  0  0
    2.2766   -1.1122    1.7054 H   0  0  0  0  0  0  0  0  0  0  0  0
   -3.0348   -2.2760    0.6047 H   0  0  0  0  0  0  0  0  0  0  0  0
  1  9  1  0  0  0  0
  1 11  1  0  0  0  0
  2 12  1  6  0  0  0
  2  1  1  0  0  0  0
  2  4  1  0  0  0  0
  3  2  1  0  0  0  0
  4  5  1  0  0  0  0
  4 14  1  0  0  0  0
  4 15  1  0  0  0  0
  5 16  1  6  0  0  0
  5  7  1  0  0  0  0
  5  6  1  0  0  0  0
  6 18  1  0  0  0  0
  6 17  1  0  0  0  0
  7  8  3  0  0  0  0
  8 20  1  0  0  0  0
 10  1  1  0  0  0  0
 13  3  1  0  0  0  0
 19  6  1  0  0  0  0
M  END
