19
title
C 0.7539079 2.7114806 0.30002627
C 0.74415475 1.1849991 0.3392398
O 1.3174862 0.68866944 1.5486208
C -0.6624317 0.60746515 0.1271835
C -0.6879207 -0.93666446 0.10113885
C -2.1188207 -1.5033244 0.15435699
C 0.016616775 -1.4390675 -1.0840874
N 0.56119096 -1.8235558 -2.028758
H 1.7652736 3.086752 0.47651973
H 0.40857875 3.0857673 -0.66872513
H 0.09341039 3.1271 1.0722662
H 1.4021759 0.8020384 -0.44986618
H 0.8751378 1.1272765 2.2843745
H -1.3124276 0.9415795 0.9473171
H -1.0929079 1.0006973 -0.8009596
H -0.12647496 -1.2833539 0.9765003
H -2.110901 -2.5959423 0.14150687
H -2.6131487 -1.1718525 1.0720559
H -2.70899 -1.1567799 -0.698987
