title
 OpenBabel02282109573D

 19 18  0  0  1  0  0  0  0  0999 V2000
    0.7539    2.7115    0.3000 C   0  0  0  0  0  0  0  0  0  0  0  0
    0.7442    1.1850    0.3392 C   0  0  1  0  0  0  0  0  0  0  0  0
    1.3175    0.6887    1.5486 O   0  0  0  0  0  0  0  0  0  0  0  0
   -0.6624    0.6075    0.1272 C   0  0  0  0  0  0  0  0  0  0  0  0
   -0.6879   -0.9367    0.1011 C   0  0  1  0  0  0  0  0  0  0  0  0
   -2.1188   -1.5033    0.1544 C   0  0  0  0  0  0  0  0  0  0  0  0
    0.0166   -1.4391   -1.0841 C   0  0  0  0  0  0  0  0  0  0  0  0
    0.5612   -1.8236   -2.0288 N   0  0  0  0  0  0  0  0  0  0  0  0
    1.7653    3.0868    0.4765 H   0  0  0  0  0  0  0  0  0  0  0  0
    0.4086    3.0858   -0.6687 H   0  0  0  0  0  0  0  0  0  0  0  0
    0.0934    3.1271    1.0723 H   0  0  0  0  0  0  0  0  0  0  0  0
    1.4022    0.8020   -0.4499 H   0  0  0  0  0  0  0  0  0  0  0  0
    0.8751    1.1273    2.2844 H   0  0  0  0  0  0  0  0  0  0  0  0
   -1.3124    0.9416    0.9473 H   0  0  0  0  0  0  0  0  0  0  0  0
   -1.0929    1.0007   -0.8010 H   0  0  0  0  0  0  0  0  0  0  0  0
   -0.1265   -1.2834    0.9765 H   0  0  0  0  0  0  0  0  0  0  0  0
   -2.1109   -2.5959    0.1415 H   0  0  0  0  0  0  0  0  0  0  0  0
   -2.6131   -1.1719    1.0721 H   0  0  0  0  0  0  0  0  0  0  0  0
   -2.7090   -1.1568   -0.6990 H   0  0  0  0  0  0  0  0  0  0  0  0
  1  2  1  0  0  0  0
  1  9  1  0  0  0  0
  1 11  1  0  0  0  0
  2 12  1  6  0  0  0
  2  3  1  0  0  0  0
  3 13  1  0  0  0  0
  4  2  1  0  0  0  0
  4 14  1  0  0  0  0
  5  4  1  0  0  0  0
  5  6  1  0  0  0  0
  5 16  1  1  0  0  0
  6 18  1  0  0  0  0
  7  5  1  0  0  0  0
  8  7  3  0  0  0  0
 10  1  1  0  0  0  0
 15  4  1  0  0  0  0
 17  6  1  0  0  0  0
 19  6  1  0  0  0  0
M  END
