title
 OpenBabel02282109573D

 18 17  0  0  1  0  0  0  0  0999 V2000
    1.0935    2.7264   -0.3116 C   0  0  0  0  0  0  0  0  0  0  0  0
    1.1231    1.2047   -0.2207 C   0  0  1  0  0  0  0  0  0  0  0  0
    1.8453    0.8693    0.9489 O   0  0  0  0  0  0  0  0  0  0  0  0
   -0.2992    0.6144   -0.2112 C   0  0  0  0  0  0  0  0  0  0  0  0
   -0.3163   -0.9247   -0.3098 C   0  0  1  0  0  0  0  0  0  0  0  0
    0.3539   -1.5389    0.8490 N   0  0  0  0  0  0  0  0  0  0  0  0
   -1.6957   -1.4234   -0.4915 C   0  0  0  0  0  0  0  0  0  0  0  0
   -2.7725   -1.8309   -0.5968 N   0  0  0  0  0  0  0  0  0  0  0  0
    2.1141    3.1160   -0.2750 H   0  0  0  0  0  0  0  0  0  0  0  0
    0.6244    3.0602   -1.2419 H   0  0  0  0  0  0  0  0  0  0  0  0
    0.5401    3.1479    0.5337 H   0  0  0  0  0  0  0  0  0  0  0  0
    1.6404    0.8119   -1.1169 H   0  0  0  0  0  0  0  0  0  0  0  0
    1.7321   -0.0853    1.0800 H   0  0  0  0  0  0  0  0  0  0  0  0
   -0.8143    0.9262    0.7057 H   0  0  0  0  0  0  0  0  0  0  0  0
   -0.8698    1.0147   -1.0559 H   0  0  0  0  0  0  0  0  0  0  0  0
    0.2527   -1.2169   -1.2011 H   0  0  0  0  0  0  0  0  0  0  0  0
   -0.1985   -1.3835    1.6885 H   0  0  0  0  0  0  0  0  0  0  0  0
    0.4263   -2.5444    0.7260 H   0  0  0  0  0  0  0  0  0  0  0  0
  1  9  1  0  0  0  0
  1  2  1  0  0  0  0
  1 11  1  0  0  0  0
  2 12  1  6  0  0  0
  2  4  1  0  0  0  0
  2  3  1  0  0  0  0
  3 13  1  0  0  0  0
  4 14  1  0  0  0  0
  5 16  1  6  0  0  0
  5  4  1  0  0  0  0
  5  6  1  0  0  0  0
  6 17  1  0  0  0  0
  7  5  1  0  0  0  0
  8  7  3  0  0  0  0
 10  1  1  0  0  0  0
 15  4  1  0  0  0  0
 18  6  1  0  0  0  0
M  END
