title
 OpenBabel02282109573D

 18 17  0  0  1  0  0  0  0  0999 V2000
   -0.9564    2.6545   -0.8642 C   0  0  0  0  0  0  0  0  0  0  0  0
   -0.8270    1.1333   -0.8673 C   0  0  1  0  0  0  0  0  0  0  0  0
   -0.0808    0.6929   -2.0151 O   0  0  0  0  0  0  0  0  0  0  0  0
   -0.1013    0.6029    0.3696 C   0  0  0  0  0  0  0  0  0  0  0  0
   -0.0271   -0.9405    0.4246 C   0  0  1  0  0  0  0  0  0  0  0  0
    0.8177   -1.4761   -0.5786 O   0  0  0  0  0  0  0  0  0  0  0  0
    0.4581   -1.3847    1.7334 C   0  0  0  0  0  0  0  0  0  0  0  0
    0.8363   -1.7236    2.8220 C   0  0  0  0  0  0  0  0  0  0  0  0
    0.0321    3.1218   -0.8239 H   0  0  0  0  0  0  0  0  0  0  0  0
   -1.4634    3.0041   -1.7708 H   0  0  0  0  0  0  0  0  0  0  0  0
   -1.5407    2.9954   -0.0037 H   0  0  0  0  0  0  0  0  0  0  0  0
   -1.8334    0.6846   -0.8988 H   0  0  0  0  0  0  0  0  0  0  0  0
   -0.5791    0.9108   -2.8089 H   0  0  0  0  0  0  0  0  0  0  0  0
    0.9190    1.0016    0.3984 H   0  0  0  0  0  0  0  0  0  0  0  0
   -0.6260    0.9641    1.2597 H   0  0  0  0  0  0  0  0  0  0  0  0
   -1.0570   -1.3267    0.3041 H   0  0  0  0  0  0  0  0  0  0  0  0
    0.6333   -0.9614   -1.3783 H   0  0  0  0  0  0  0  0  0  0  0  0
    1.1752   -2.0380    3.7779 H   0  0  0  0  0  0  0  0  0  0  0  0
  1  9  1  0  0  0  0
  1 11  1  0  0  0  0
  2 12  1  6  0  0  0
  2  1  1  0  0  0  0
  2  4  1  0  0  0  0
  3  2  1  0  0  0  0
  4 14  1  0  0  0  0
  4  5  1  0  0  0  0
  4 15  1  0  0  0  0
  5 16  1  6  0  0  0
  5  7  1  0  0  0  0
  6  5  1  0  0  0  0
  7  8  3  0  0  0  0
  8 18  1  0  0  0  0
 10  1  1  0  0  0  0
 13  3  1  0  0  0  0
 17  6  1  0  0  0  0
M  END
