title
 OpenBabel02282109573D

 17 16  0  0  1  0  0  0  0  0999 V2000
    1.1596    2.7140   -0.2408 C   0  0  0  0  0  0  0  0  0  0  0  0
    1.1347    1.1898   -0.1980 C   0  0  1  0  0  0  0  0  0  0  0  0
    1.8358    0.6986    0.9603 O   0  0  0  0  0  0  0  0  0  0  0  0
   -0.2890    0.6210   -0.2717 C   0  0  0  0  0  0  0  0  0  0  0  0
   -0.3086   -0.9225   -0.3118 C   0  0  1  0  0  0  0  0  0  0  0  0
    0.1867   -1.5117    0.8690 O   0  0  0  0  0  0  0  0  0  0  0  0
   -1.6869   -1.4023   -0.5196 C   0  0  0  0  0  0  0  0  0  0  0  0
   -2.7716   -1.7473   -0.7148 N   0  0  0  0  0  0  0  0  0  0  0  0
    2.1872    3.0777   -0.1590 H   0  0  0  0  0  0  0  0  0  0  0  0
    0.7313    3.0879   -1.1754 H   0  0  0  0  0  0  0  0  0  0  0  0
    0.5749    3.1371    0.5854 H   0  0  0  0  0  0  0  0  0  0  0  0
    1.7161    0.7954   -1.0406 H   0  0  0  0  0  0  0  0  0  0  0  0
    1.4892    1.1609    1.7332 H   0  0  0  0  0  0  0  0  0  0  0  0
   -0.8736    0.9573    0.5935 H   0  0  0  0  0  0  0  0  0  0  0  0
   -0.7830    1.0078   -1.1699 H   0  0  0  0  0  0  0  0  0  0  0  0
    0.2732   -1.2499   -1.1922 H   0  0  0  0  0  0  0  0  0  0  0  0
    0.9824   -1.0033    1.0964 H   0  0  0  0  0  0  0  0  0  0  0  0
  1  2  1  0  0  0  0
  1  9  1  0  0  0  0
  1 11  1  0  0  0  0
  2 12  1  6  0  0  0
  2  3  1  0  0  0  0
  3 13  1  0  0  0  0
  4  2  1  0  0  0  0
  4 14  1  0  0  0  0
  5 16  1  6  0  0  0
  5  4  1  0  0  0  0
  5  6  1  0  0  0  0
  6 17  1  0  0  0  0
  7  5  1  0  0  0  0
  8  7  3  0  0  0  0
 10  1  1  0  0  0  0
 15  4  1  0  0  0  0
M  END
