title
 OpenBabel02282109573D

 19 18  0  0  1  0  0  0  0  0999 V2000
    1.2924    1.8527    0.9476 C   0  0  0  0  0  0  0  0  0  0  0  0
    1.2945    0.4065    0.7633 N   0  0  0  0  0  0  0  0  0  0  0  0
    2.0928   -0.2538    1.7883 C   0  0  0  0  0  0  0  0  0  0  0  0
   -0.0473   -0.1502    0.6513 C   0  0  0  0  0  0  0  0  0  0  0  0
   -0.5950    0.0386   -0.7905 C   0  0  1  0  0  0  0  0  0  0  0  0
    0.2554   -0.5310   -1.8389 N   0  0  0  0  0  0  0  0  0  0  0  0
   -1.9495   -0.5200   -0.8753 C   0  0  0  0  0  0  0  0  0  0  0  0
   -3.0100   -0.9776   -0.9038 N   0  0  0  0  0  0  0  0  0  0  0  0
    2.3201    2.2270    0.9271 H   0  0  0  0  0  0  0  0  0  0  0  0
    0.7455    2.3448    0.1388 H   0  0  0  0  0  0  0  0  0  0  0  0
    0.8332    2.1603    1.9054 H   0  0  0  0  0  0  0  0  0  0  0  0
    1.6949   -0.1102    2.8096 H   0  0  0  0  0  0  0  0  0  0  0  0
    2.1417   -1.3282    1.5894 H   0  0  0  0  0  0  0  0  0  0  0  0
    3.1129    0.1423    1.7677 H   0  0  0  0  0  0  0  0  0  0  0  0
    0.0020   -1.2255    0.8505 H   0  0  0  0  0  0  0  0  0  0  0  0
   -0.7529    0.2845    1.3823 H   0  0  0  0  0  0  0  0  0  0  0  0
   -0.6851    1.1145   -0.9895 H   0  0  0  0  0  0  0  0  0  0  0  0
    1.2109   -0.2744   -1.5958 H   0  0  0  0  0  0  0  0  0  0  0  0
    0.2122   -1.5462   -1.7929 H   0  0  0  0  0  0  0  0  0  0  0  0
  1 11  1  0  0  0  0
  2  1  1  0  0  0  0
  2  3  1  0  0  0  0
  3 12  1  0  0  0  0
  4  2  1  0  0  0  0
  4 15  1  0  0  0  0
  4 16  1  0  0  0  0
  5 17  1  6  0  0  0
  5  4  1  0  0  0  0
  6 19  1  0  0  0  0
  6 18  1  0  0  0  0
  6  5  1  0  0  0  0
  7  5  1  0  0  0  0
  8  7  3  0  0  0  0
  9  1  1  0  0  0  0
 10  1  1  0  0  0  0
 13  3  1  0  0  0  0
 14  3  1  0  0  0  0
M  END
