19
title
C 1.2924421 1.8526534 0.9476421
N 1.2945026 0.40647742 0.7633266
C 2.0928154 -0.25376222 1.7882822
C -0.047349013 -0.1502001 0.6513096
C -0.59498066 0.038575646 -0.7904924
N 0.25535604 -0.5310208 -1.8388826
C -1.9495091 -0.5200012 -0.87525225
N -3.009975 -0.9775576 -0.9038217
H 2.3201058 2.2270148 0.927143
H 0.7455414 2.344755 0.13876574
H 0.83319604 2.1602569 1.9053867
H 1.6948732 -0.11019358 2.8095658
H 2.141682 -1.32816 1.5893619
H 3.1128857 0.14229026 1.767699
H 0.0020324802 -1.225489 0.8504859
H -0.75290805 0.28454867 1.3822535
H -0.68505746 1.1145457 -0.98953617
H 1.2108696 -0.27436498 -1.5958313
H 0.21219368 -1.5462137 -1.7928938
