title
 OpenBabel02282109573D

 22 21  0  0  1  0  0  0  0  0999 V2000
   -0.3986    1.6506   -1.7563 C   0  0  0  0  0  0  0  0  0  0  0  0
   -0.2370    0.1251   -1.7122 C   0  0  0  0  0  0  0  0  0  0  0  0
    0.5660   -0.3700   -2.9237 C   0  0  0  0  0  0  0  0  0  0  0  0
    0.4338   -0.3568   -0.4107 C   0  0  0  0  0  0  0  0  0  0  0  0
   -0.3050   -0.0221    0.9065 C   0  0  1  0  0  0  0  0  0  0  0  0
   -1.7127   -0.6377    0.9830 C   0  0  0  0  0  0  0  0  0  0  0  0
    0.5318   -0.5508    2.0554 C   0  0  0  0  0  0  0  0  0  0  0  0
    1.1068    0.1237    2.8697 O   0  0  0  0  0  0  0  0  0  0  0  0
    0.5742    2.1486   -1.6643 H   0  0  0  0  0  0  0  0  0  0  0  0
   -0.8443    1.9669   -2.7049 H   0  0  0  0  0  0  0  0  0  0  0  0
   -1.0395    2.0232   -0.9517 H   0  0  0  0  0  0  0  0  0  0  0  0
   -1.2360   -0.3264   -1.7737 H   0  0  0  0  0  0  0  0  0  0  0  0
    1.5791    0.0495   -2.9211 H   0  0  0  0  0  0  0  0  0  0  0  0
    0.6579   -1.4613   -2.9248 H   0  0  0  0  0  0  0  0  0  0  0  0
    0.0867   -0.0724   -3.8621 H   0  0  0  0  0  0  0  0  0  0  0  0
    0.5684   -1.4462   -0.4680 H   0  0  0  0  0  0  0  0  0  0  0  0
    1.4433    0.0739   -0.3616 H   0  0  0  0  0  0  0  0  0  0  0  0
   -0.3613    1.0628    1.0381 H   0  0  0  0  0  0  0  0  0  0  0  0
   -2.1895   -0.4114    1.9417 H   0  0  0  0  0  0  0  0  0  0  0  0
   -2.3583   -0.2483    0.1919 H   0  0  0  0  0  0  0  0  0  0  0  0
   -1.6726   -1.7278    0.8746 H   0  0  0  0  0  0  0  0  0  0  0  0
    0.5908   -1.6666    2.0926 H   0  0  0  0  0  0  0  0  0  0  0  0
  1  2  1  0  0  0  0
  1  9  1  0  0  0  0
  1 11  1  0  0  0  0
  2  4  1  0  0  0  0
  3 13  1  0  0  0  0
  3  2  1  0  0  0  0
  4 17  1  0  0  0  0
  4  5  1  0  0  0  0
  5  6  1  0  0  0  0
  5 18  1  1  0  0  0
  5  7  1  0  0  0  0
  6 19  1  0  0  0  0
  7 22  1  0  0  0  0
  7  8  2  0  0  0  0
 10  1  1  0  0  0  0
 12  2  1  0  0  0  0
 14  3  1  0  0  0  0
 15  3  1  0  0  0  0
 16  4  1  0  0  0  0
 20  6  1  0  0  0  0
 21  6  1  0  0  0  0
M  END
