20
title
C -0.16904332 1.8503667 -1.7811811
C -0.04504384 0.323142 -1.7001703
C 0.7085272 -0.22679147 -2.9183648
C 0.6395948 -0.1435777 -0.40180263
C -0.17145568 0.16015501 0.87243295
O -1.4494116 -0.41516075 0.81908154
C 0.5745609 -0.3319588 2.0934052
O 0.08626458 -1.1226772 2.8649876
H 0.8181176 2.3284748 -1.7550858
H -0.6550442 2.148895 -2.7156274
H -0.76491183 2.2622397 -0.96107054
H -1.0546714 -0.10423442 -1.6977484
H 1.7329324 0.16345228 -2.958844
H 0.76928115 -1.3197882 -2.8908842
H 0.20975931 0.05810886 -3.8503864
H 0.79671896 -1.2285215 -0.44932684
H 1.6314169 0.3231946 -0.31623372
H -0.25165206 1.256825 0.9866903
H -1.5105608 -0.98810893 1.599906
H 1.5984557 0.06959579 2.2396946
