title
 OpenBabel02282109573D

 20 19  0  0  1  0  0  0  0  0999 V2000
   -0.2912    1.8936   -1.6366 C   0  0  0  0  0  0  0  0  0  0  0  0
   -0.1672    0.3684   -1.6237 C   0  0  0  0  0  0  0  0  0  0  0  0
    0.6878   -0.1520   -2.7733 C   0  0  0  0  0  0  0  0  0  0  0  0
    0.4571   -0.0807   -0.4167 O   0  0  0  0  0  0  0  0  0  0  0  0
   -0.3831   -0.2109    0.7128 C   0  0  1  0  0  0  0  0  0  0  0  0
   -1.0569   -1.5786    0.8069 C   0  0  0  0  0  0  0  0  0  0  0  0
    0.4866    0.0883    1.9316 C   0  0  0  0  0  0  0  0  0  0  0  0
    0.2678   -0.3201    3.0414 O   0  0  0  0  0  0  0  0  0  0  0  0
    0.7010    2.3524   -1.5819 H   0  0  0  0  0  0  0  0  0  0  0  0
   -0.7812    2.2330   -2.5549 H   0  0  0  0  0  0  0  0  0  0  0  0
   -0.8835    2.2582   -0.7916 H   0  0  0  0  0  0  0  0  0  0  0  0
   -1.1715   -0.0761   -1.6967 H   0  0  0  0  0  0  0  0  0  0  0  0
    1.7038    0.2482   -2.6988 H   0  0  0  0  0  0  0  0  0  0  0  0
    0.7474   -1.2430   -2.7435 H   0  0  0  0  0  0  0  0  0  0  0  0
    0.2670    0.1508   -3.7367 H   0  0  0  0  0  0  0  0  0  0  0  0
   -1.1562    0.5791    0.7126 H   0  0  0  0  0  0  0  0  0  0  0  0
   -0.3030   -2.3691    0.7588 H   0  0  0  0  0  0  0  0  0  0  0  0
   -1.5880   -1.6630    1.7580 H   0  0  0  0  0  0  0  0  0  0  0  0
   -1.7682   -1.7241   -0.0104 H   0  0  0  0  0  0  0  0  0  0  0  0
    1.3536    0.7440    1.6961 H   0  0  0  0  0  0  0  0  0  0  0  0
  1  2  1  0  0  0  0
  1  9  1  0  0  0  0
  1 11  1  0  0  0  0
  2  4  1  0  0  0  0
  3 14  1  0  0  0  0
  3 13  1  0  0  0  0
  3  2  1  0  0  0  0
  4  5  1  0  0  0  0
  5 16  1  6  0  0  0
  5  6  1  0  0  0  0
  5  7  1  0  0  0  0
  6 18  1  0  0  0  0
  7  8  2  0  0  0  0
 10  1  1  0  0  0  0
 12  2  1  0  0  0  0
 15  3  1  0  0  0  0
 17  6  1  0  0  0  0
 19  6  1  0  0  0  0
 20  7  1  0  0  0  0
M  END
