20
title
C 0.68273824 2.8943193 0.33550695
C 0.803798 1.3715308 0.38627517
O 1.3159863 0.9341495 1.6441802
C -0.52874416 0.679337 0.05600732
C -0.48229212 -0.86831546 0.09334438
C -1.864091 -1.4973607 0.27802494
C 0.21306433 -1.4091146 -1.1402949
O -0.2323132 -2.2635622 -1.8647652
H 1.6355834 3.3592813 0.6015899
H 0.39410707 3.2369962 -0.6631941
H -0.080746815 3.2463286 1.0409747
H 1.5694723 1.0584056 -0.33340955
H 0.73028415 1.2708682 2.3321137
H -1.2765244 1.0140278 0.7886387
H -0.88919455 1.0258459 -0.9213795
H 0.16657199 -1.1309371 0.94250953
H -1.80155 -2.5878334 0.26941305
H -2.3083484 -1.179523 1.2260363
H -2.5396721 -1.2048633 -0.5319973
H 1.2071255 -0.95418525 -1.3557885
