title
 OpenBabel02282109573D

 19 18  0  0  1  0  0  0  0  0999 V2000
    0.8062    2.8815   -0.1406 C   0  0  0  0  0  0  0  0  0  0  0  0
    0.8455    1.3691    0.0795 C   0  0  1  0  0  0  0  0  0  0  0  0
    1.4429    1.0430    1.3311 O   0  0  0  0  0  0  0  0  0  0  0  0
   -0.5537    0.7435   -0.0752 C   0  0  0  0  0  0  0  0  0  0  0  0
   -0.5814   -0.7060   -0.0699 N   0  0  0  0  0  0  0  0  0  0  0  0
   -0.4461   -1.4260    1.1895 C   0  0  0  0  0  0  0  0  0  0  0  0
   -0.7992   -1.4026   -1.2232 C   0  0  0  0  0  0  0  0  0  0  0  0
   -0.8537   -2.6100   -1.3252 O   0  0  0  0  0  0  0  0  0  0  0  0
    1.8018    3.3058    0.0111 H   0  0  0  0  0  0  0  0  0  0  0  0
    0.4721    3.1320   -1.1523 H   0  0  0  0  0  0  0  0  0  0  0  0
    0.1181    3.3630    0.5664 H   0  0  0  0  0  0  0  0  0  0  0  0
    1.5042    0.9067   -0.6649 H   0  0  0  0  0  0  0  0  0  0  0  0
    0.9657    1.5195    2.0202 H   0  0  0  0  0  0  0  0  0  0  0  0
   -1.2058    1.1226    0.7267 H   0  0  0  0  0  0  0  0  0  0  0  0
   -0.9843    1.0871   -1.0226 H   0  0  0  0  0  0  0  0  0  0  0  0
   -1.2243   -1.1052    1.8940 H   0  0  0  0  0  0  0  0  0  0  0  0
   -0.5693   -2.4873    0.9744 H   0  0  0  0  0  0  0  0  0  0  0  0
    0.5308   -1.2417    1.6404 H   0  0  0  0  0  0  0  0  0  0  0  0
   -0.9272   -0.7237   -2.0904 H   0  0  0  0  0  0  0  0  0  0  0  0
  1  9  1  0  0  0  0
  1  2  1  0  0  0  0
  1 11  1  0  0  0  0
  2 12  1  6  0  0  0
  2  3  1  0  0  0  0
  3 13  1  0  0  0  0
  4  5  1  0  0  0  0
  4  2  1  0  0  0  0
  4 14  1  0  0  0  0
  5  6  1  0  0  0  0
  6 18  1  0  0  0  0
  6 16  1  0  0  0  0
  7  5  1  0  0  0  0
  8  7  2  0  0  0  0
 10  1  1  0  0  0  0
 15  4  1  0  0  0  0
 17  6  1  0  0  0  0
 19  7  1  0  0  0  0
M  END
