title
 OpenBabel02282109573D

 16 15  0  0  1  0  0  0  0  0999 V2000
   -0.6343    2.4035    1.0130 C   0  0  0  0  0  0  0  0  0  0  0  0
    0.4316    1.3407    0.8725 C   0  0  0  0  0  0  0  0  0  0  0  0
    1.2122    1.0716    1.7555 O   0  0  0  0  0  0  0  0  0  0  0  0
    0.4628    0.5593   -0.4441 C   0  0  0  0  0  0  0  0  0  0  0  0
   -0.0520   -0.8779   -0.1965 C   0  0  1  0  0  0  0  0  0  0  0  0
   -1.3966   -0.8650    0.2826 O   0  0  0  0  0  0  0  0  0  0  0  0
    0.0882   -1.7093   -1.3913 C   0  0  0  0  0  0  0  0  0  0  0  0
    0.1641   -2.3639   -2.3968 C   0  0  0  0  0  0  0  0  0  0  0  0
   -0.5610    2.8912    1.9856 H   0  0  0  0  0  0  0  0  0  0  0  0
   -0.5481    3.1465    0.2119 H   0  0  0  0  0  0  0  0  0  0  0  0
   -1.6146    1.9247    0.9053 H   0  0  0  0  0  0  0  0  0  0  0  0
   -0.1435    1.0339   -1.2219 H   0  0  0  0  0  0  0  0  0  0  0  0
    1.4998    0.5091   -0.7895 H   0  0  0  0  0  0  0  0  0  0  0  0
    0.5429   -1.3005    0.6211 H   0  0  0  0  0  0  0  0  0  0  0  0
   -1.9775   -0.8078   -0.4841 H   0  0  0  0  0  0  0  0  0  0  0  0
    0.2432   -2.9604   -3.2723 H   0  0  0  0  0  0  0  0  0  0  0  0
  1  9  1  0  0  0  0
  2  1  1  0  0  0  0
  2  3  2  0  0  0  0
  4  5  1  0  0  0  0
  4  2  1  0  0  0  0
  5  6  1  0  0  0  0
  5 14  1  1  0  0  0
  7  5  1  0  0  0  0
  8  7  3  0  0  0  0
 10  1  1  0  0  0  0
 11  1  1  0  0  0  0
 12  4  1  0  0  0  0
 13  4  1  0  0  0  0
 15  6  1  0  0  0  0
 16  8  1  0  0  0  0
M  END
