16
title
C -0.63434887 2.4035196 1.0130032
C 0.4316356 1.340715 0.8725322
O 1.2121724 1.071591 1.7555305
C 0.46280864 0.5592961 -0.44412386
C -0.051962834 -0.87785876 -0.19652285
O -1.3965989 -0.8649684 0.28255332
C 0.08822224 -1.7093347 -1.3912994
C 0.16405469 -2.3639011 -2.3968477
H -0.5609829 2.8912268 1.9856071
H -0.54812163 3.1464543 0.21185975
H -1.6146138 1.9246669 0.90531373
H -0.14348109 1.03388 -1.2218941
H 1.4997702 0.5090995 -0.7895272
H 0.5428751 -1.3004698 0.6211368
H -1.9775057 -0.8077651 -0.48409116
H 0.2431931 -2.9604495 -3.2722812
