title
 OpenBabel02282109573D

 18 17  0  0  1  0  0  0  0  0999 V2000
   -0.8346    1.6767   -0.6144 C   0  0  0  0  0  0  0  0  0  0  0  0
   -0.7466    0.1369   -0.6066 C   0  0  1  0  0  0  0  0  0  0  0  0
    0.0715   -0.3861    0.5919 C   0  0  0  0  0  0  0  0  0  0  0  0
    1.5688   -0.1201    0.4792 C   0  0  0  0  0  0  0  0  0  0  0  0
    2.3903   -0.4055    1.7231 C   0  0  0  0  0  0  0  0  0  0  0  0
    2.0759    0.2810   -0.5440 O   0  0  0  0  0  0  0  0  0  0  0  0
   -2.0775   -0.4672   -0.6151 C   0  0  0  0  0  0  0  0  0  0  0  0
   -3.1758   -0.9565   -0.6002 C   0  0  0  0  0  0  0  0  0  0  0  0
    0.1678    2.1073   -0.6636 H   0  0  0  0  0  0  0  0  0  0  0  0
   -1.4044    2.0241   -1.4797 H   0  0  0  0  0  0  0  0  0  0  0  0
   -1.3375    2.0396    0.2877 H   0  0  0  0  0  0  0  0  0  0  0  0
   -0.2134   -0.1709   -1.5142 H   0  0  0  0  0  0  0  0  0  0  0  0
   -0.3060    0.0319    1.5338 H   0  0  0  0  0  0  0  0  0  0  0  0
   -0.0533   -1.4731    0.6876 H   0  0  0  0  0  0  0  0  0  0  0  0
    2.1669   -1.4010    2.1212 H   0  0  0  0  0  0  0  0  0  0  0  0
    3.4533   -0.3233    1.4938 H   0  0  0  0  0  0  0  0  0  0  0  0
    2.1321    0.3149    2.5082 H   0  0  0  0  0  0  0  0  0  0  0  0
   -4.1445   -1.3911   -0.6050 H   0  0  0  0  0  0  0  0  0  0  0  0
  1  2  1  0  0  0  0
  1 11  1  0  0  0  0
  2 12  1  6  0  0  0
  2  3  1  0  0  0  0
  3 14  1  0  0  0  0
  3 13  1  0  0  0  0
  4  3  1  0  0  0  0
  4  5  1  0  0  0  0
  5 15  1  0  0  0  0
  5 17  1  0  0  0  0
  6  4  2  0  0  0  0
  7  2  1  0  0  0  0
  7  8  3  0  0  0  0
  9  1  1  0  0  0  0
 10  1  1  0  0  0  0
 16  5  1  0  0  0  0
 18  8  1  0  0  0  0
M  END
