title
 OpenBabel02282109573D

 16 15  0  0  1  0  0  0  0  0999 V2000
   -0.1229    2.0253    1.0487 C   0  0  0  0  0  0  0  0  0  0  0  0
   -0.1847    0.5079    0.8060 C   0  0  1  0  0  0  0  0  0  0  0  0
    0.4300    0.1129   -0.4506 N   0  0  0  0  0  0  0  0  0  0  0  0
   -0.3187   -0.3992   -1.4827 C   0  0  0  0  0  0  0  0  0  0  0  0
    0.4839   -0.8485   -2.6901 C   0  0  0  0  0  0  0  0  0  0  0  0
   -1.5291   -0.4948   -1.4182 O   0  0  0  0  0  0  0  0  0  0  0  0
    0.4290   -0.2282    1.9249 C   0  0  0  0  0  0  0  0  0  0  0  0
    0.9356   -0.7853    2.8014 N   0  0  0  0  0  0  0  0  0  0  0  0
    0.9130    2.3735    1.0924 H   0  0  0  0  0  0  0  0  0  0  0  0
   -0.6353    2.5380    0.2316 H   0  0  0  0  0  0  0  0  0  0  0  0
   -0.6113    2.2821    1.9923 H   0  0  0  0  0  0  0  0  0  0  0  0
   -1.2307    0.1950    0.7179 H   0  0  0  0  0  0  0  0  0  0  0  0
    1.4339    0.1460   -0.5261 H   0  0  0  0  0  0  0  0  0  0  0  0
    0.6965   -1.9188   -2.5988 H   0  0  0  0  0  0  0  0  0  0  0  0
   -0.1196   -0.7003   -3.5862 H   0  0  0  0  0  0  0  0  0  0  0  0
    1.4337   -0.3171   -2.7938 H   0  0  0  0  0  0  0  0  0  0  0  0
  1  9  1  0  0  0  0
  1 11  1  0  0  0  0
  2 12  1  6  0  0  0
  2  1  1  0  0  0  0
  2  7  1  0  0  0  0
  3  2  1  0  0  0  0
  4  6  2  0  0  0  0
  4  3  1  0  0  0  0
  5 14  1  0  0  0  0
  5  4  1  0  0  0  0
  7  8  3  0  0  0  0
 10  1  1  0  0  0  0
 13  3  1  0  0  0  0
 15  5  1  0  0  0  0
 16  5  1  0  0  0  0
M  END
