15
title
C -0.75966364 1.9007921 -0.5876987
C -0.6344179 0.36695656 -0.56869096
N 0.08728719 -0.14463623 0.58494353
C 1.4555709 -0.33101043 0.49048945
N 2.0595546 -0.6511769 1.6936213
O 2.0688334 -0.20154063 -0.5521876
C -1.9596525 -0.27095893 -0.64169735
N -3.0121882 -0.7451354 -0.68658596
H 0.24245936 2.3351758 -0.59835595
H -1.2996068 2.2321332 -1.4786705
H -1.2984616 2.2604754 0.29375145
H -0.0489434 0.051125444 -1.4378114
H -0.31606534 0.030702805 1.4925803
H 1.5204389 -1.1668426 2.3729062
H 3.0062149 -0.98003244 1.5789725
