15
title
C 0.800238 1.885159 -0.22329791
C 0.81110483 0.35504413 -0.25986215
O -0.5467537 -0.14648755 -0.22221442
C -1.047224 -0.37780783 1.0201787
N -2.3410645 -0.7988645 0.92028147
O -0.4453487 -0.20667903 2.0554352
C 1.438251 -0.17439292 -1.4661379
C 1.9849602 -0.57927066 -2.455835
H 1.8230191 2.266742 -0.2822111
H 0.22883692 2.2818418 -1.0659919
H 0.35189706 2.221671 0.7142801
H 1.3247582 -0.023789119 0.6290065
H -2.6815238 -1.1153961 0.028388677
H -2.7488294 -1.1881549 1.7525549
H 2.4678278 -0.94784594 -3.3270104
