14
title
C -0.20012477 1.9051704 0.8667589
C -0.18782027 0.37759647 0.80181897
O 0.47570404 -0.07428407 -0.38820297
C -0.35384306 -0.36579952 -1.4369437
N 0.38995513 -0.7487117 -2.5064795
O -1.5571709 -0.26424995 -1.4067153
C 0.5274589 -0.21691176 1.9395304
N 1.0711719 -0.6613747 2.8562102
H 0.81728643 2.2993598 0.8161063
H -0.78273946 2.289362 0.026609229
H -0.6630361 2.2389407 1.7990952
H -1.2137103 -0.0026982378 0.78705263
H 1.3615894 -0.97482765 -2.3812919
H -0.10402047 -1.1399001 -3.2892754
