title
 OpenBabel02282109573D

 14 13  0  0  1  0  0  0  0  0999 V2000
   -0.2001    1.9052    0.8668 C   0  0  0  0  0  0  0  0  0  0  0  0
   -0.1878    0.3776    0.8018 C   0  0  1  0  0  0  0  0  0  0  0  0
    0.4757   -0.0743   -0.3882 O   0  0  0  0  0  0  0  0  0  0  0  0
   -0.3538   -0.3658   -1.4369 C   0  0  0  0  0  0  0  0  0  0  0  0
    0.3900   -0.7487   -2.5065 N   0  0  0  0  0  0  0  0  0  0  0  0
   -1.5572   -0.2642   -1.4067 O   0  0  0  0  0  0  0  0  0  0  0  0
    0.5275   -0.2169    1.9395 C   0  0  0  0  0  0  0  0  0  0  0  0
    1.0712   -0.6614    2.8562 N   0  0  0  0  0  0  0  0  0  0  0  0
    0.8173    2.2994    0.8161 H   0  0  0  0  0  0  0  0  0  0  0  0
   -0.7827    2.2894    0.0266 H   0  0  0  0  0  0  0  0  0  0  0  0
   -0.6630    2.2389    1.7991 H   0  0  0  0  0  0  0  0  0  0  0  0
   -1.2137   -0.0027    0.7871 H   0  0  0  0  0  0  0  0  0  0  0  0
    1.3616   -0.9748   -2.3813 H   0  0  0  0  0  0  0  0  0  0  0  0
   -0.1040   -1.1399   -3.2893 H   0  0  0  0  0  0  0  0  0  0  0  0
  1 11  1  0  0  0  0
  2 12  1  6  0  0  0
  2  1  1  0  0  0  0
  2  7  1  0  0  0  0
  3  2  1  0  0  0  0
  4  6  2  0  0  0  0
  4  3  1  0  0  0  0
  5 13  1  0  0  0  0
  5  4  1  0  0  0  0
  7  8  3  0  0  0  0
  9  1  1  0  0  0  0
 10  1  1  0  0  0  0
 14  5  1  0  0  0  0
M  END
