14
title
N 0.8925207 2.613445 0.26439628
C 0.8976446 1.3633446 -0.27060956
O 1.8763883 0.86851776 -0.7924888
C -0.44231322 0.62246394 -0.21735579
C -0.19360593 -0.8706548 0.049233343
O 0.27046528 -1.1180532 1.3624872
C -1.4008754 -1.665062 -0.24863723
N -2.364169 -2.2720246 -0.44663456
H 1.7462034 3.1473 0.23878096
H 0.0921208 3.0012524 0.7308256
H -1.1223898 1.0329547 0.5370401
H -0.9268218 0.74439377 -1.1929928
H 0.6174019 -1.1859078 -0.6147999
H -0.45790806 -0.9711518 1.9769373
