title
 OpenBabel02282109573D

 16 15  0  0  1  0  0  0  0  0999 V2000
    0.3931    2.9013    1.0014 C   0  0  0  0  0  0  0  0  0  0  0  0
    0.4998    1.4039    0.7922 C   0  0  0  0  0  0  0  0  0  0  0  0
    1.4124    0.7543    1.2559 O   0  0  0  0  0  0  0  0  0  0  0  0
   -0.6030    0.7557   -0.0295 C   0  0  0  0  0  0  0  0  0  0  0  0
   -0.6209   -0.7854    0.0204 C   0  0  1  0  0  0  0  0  0  0  0  0
   -1.8319   -1.2634   -0.4992 O   0  0  0  0  0  0  0  0  0  0  0  0
    0.5467   -1.3937   -0.7399 C   0  0  0  0  0  0  0  0  0  0  0  0
    0.3561   -2.1564   -1.6587 O   0  0  0  0  0  0  0  0  0  0  0  0
    1.2933    3.2731    1.4918 H   0  0  0  0  0  0  0  0  0  0  0  0
    0.2430    3.4184    0.0475 H   0  0  0  0  0  0  0  0  0  0  0  0
   -0.4804    3.1265    1.6244 H   0  0  0  0  0  0  0  0  0  0  0  0
   -1.5795    1.1139    0.3164 H   0  0  0  0  0  0  0  0  0  0  0  0
   -0.5198    1.1048   -1.0681 H   0  0  0  0  0  0  0  0  0  0  0  0
   -0.4971   -1.0892    1.0737 H   0  0  0  0  0  0  0  0  0  0  0  0
   -1.5813   -1.8725   -1.2130 H   0  0  0  0  0  0  0  0  0  0  0  0
    1.5575   -1.1061   -0.4044 H   0  0  0  0  0  0  0  0  0  0  0  0
  1  9  1  0  0  0  0
  1 11  1  0  0  0  0
  2  1  1  0  0  0  0
  2  3  2  0  0  0  0
  4  5  1  0  0  0  0
  4 12  1  0  0  0  0
  4  2  1  0  0  0  0
  5 14  1  1  0  0  0
  6  5  1  0  0  0  0
  7 16  1  0  0  0  0
  7  5  1  0  0  0  0
  8  7  2  0  0  0  0
 10  1  1  0  0  0  0
 13  4  1  0  0  0  0
 15  6  1  0  0  0  0
M  END
