title
 OpenBabel02282109573D

 18 17  0  0  1  0  0  0  0  0999 V2000
    0.7891    1.8686   -0.5725 C   0  0  0  0  0  0  0  0  0  0  0  0
    0.8815    0.3570   -0.3021 C   0  0  1  0  0  0  0  0  0  0  0  0
   -0.4792   -0.3324   -0.2210 C   0  0  0  0  0  0  0  0  0  0  0  0
   -1.2043   -0.1009    1.0980 C   0  0  0  0  0  0  0  0  0  0  0  0
   -2.6363   -0.5976    1.1680 C   0  0  0  0  0  0  0  0  0  0  0  0
   -0.6682    0.4390    2.0403 O   0  0  0  0  0  0  0  0  0  0  0  0
    1.7970   -0.3086   -1.3090 C   0  0  0  0  0  0  0  0  0  0  0  0
    1.5621   -1.3332   -1.8986 O   0  0  0  0  0  0  0  0  0  0  0  0
    1.7840    2.3209   -0.6407 H   0  0  0  0  0  0  0  0  0  0  0  0
    0.2615    2.0716   -1.5111 H   0  0  0  0  0  0  0  0  0  0  0  0
    0.2523    2.3601    0.2416 H   0  0  0  0  0  0  0  0  0  0  0  0
    1.3799    0.2393    0.6727 H   0  0  0  0  0  0  0  0  0  0  0  0
   -1.1306   -0.0231   -1.0489 H   0  0  0  0  0  0  0  0  0  0  0  0
   -0.3552   -1.4151   -0.3560 H   0  0  0  0  0  0  0  0  0  0  0  0
   -2.7026   -1.6420    0.8450 H   0  0  0  0  0  0  0  0  0  0  0  0
   -3.0172   -0.4948    2.1847 H   0  0  0  0  0  0  0  0  0  0  0  0
   -3.2643   -0.0146    0.4842 H   0  0  0  0  0  0  0  0  0  0  0  0
    2.7584    0.2328   -1.4700 H   0  0  0  0  0  0  0  0  0  0  0  0
  1  2  1  0  0  0  0
  1 11  1  0  0  0  0
  2  3  1  0  0  0  0
  2 12  1  1  0  0  0
  3  4  1  0  0  0  0
  4  5  1  0  0  0  0
  4  6  2  0  0  0  0
  5 16  1  0  0  0  0
  7  2  1  0  0  0  0
  8  7  2  0  0  0  0
  9  1  1  0  0  0  0
 10  1  1  0  0  0  0
 13  3  1  0  0  0  0
 14  3  1  0  0  0  0
 15  5  1  0  0  0  0
 17  5  1  0  0  0  0
 18  7  1  0  0  0  0
M  END
