title
 OpenBabel02282109573D

 17 16  0  0  1  0  0  0  0  0999 V2000
   -0.0231    1.8807    1.0933 C   0  0  0  0  0  0  0  0  0  0  0  0
   -0.2011    0.4098    0.7230 C   0  0  1  0  0  0  0  0  0  0  0  0
    0.4645    0.0417   -0.5165 N   0  0  0  0  0  0  0  0  0  0  0  0
   -0.2246   -0.4073   -1.6153 C   0  0  0  0  0  0  0  0  0  0  0  0
    0.6204   -0.6268   -2.8589 C   0  0  0  0  0  0  0  0  0  0  0  0
   -1.4257   -0.5994   -1.5978 O   0  0  0  0  0  0  0  0  0  0  0  0
    0.2478   -0.5372    1.8323 C   0  0  0  0  0  0  0  0  0  0  0  0
    0.5147   -0.1997    2.9556 O   0  0  0  0  0  0  0  0  0  0  0  0
    1.0364    2.1314    1.2103 H   0  0  0  0  0  0  0  0  0  0  0  0
   -0.4526    2.5226    0.3207 H   0  0  0  0  0  0  0  0  0  0  0  0
   -0.5131    2.0886    2.0467 H   0  0  0  0  0  0  0  0  0  0  0  0
   -1.2613    0.1853    0.5381 H   0  0  0  0  0  0  0  0  0  0  0  0
    1.4491    0.2373   -0.6044 H   0  0  0  0  0  0  0  0  0  0  0  0
    1.6877   -0.7293   -2.6456 H   0  0  0  0  0  0  0  0  0  0  0  0
    0.2640   -1.5221   -3.3708 H   0  0  0  0  0  0  0  0  0  0  0  0
    0.4811    0.2211   -3.5373 H   0  0  0  0  0  0  0  0  0  0  0  0
    0.3154   -1.5997    1.5057 H   0  0  0  0  0  0  0  0  0  0  0  0
  1  9  1  0  0  0  0
  1 11  1  0  0  0  0
  2 12  1  6  0  0  0
  2  1  1  0  0  0  0
  2  7  1  0  0  0  0
  3  2  1  0  0  0  0
  4  6  2  0  0  0  0
  4  3  1  0  0  0  0
  5 14  1  0  0  0  0
  5  4  1  0  0  0  0
  7  8  2  0  0  0  0
 10  1  1  0  0  0  0
 13  3  1  0  0  0  0
 15  5  1  0  0  0  0
 16  5  1  0  0  0  0
 17  7  1  0  0  0  0
M  END
