16
title
C 0.9321961 1.8271644 -0.40094006
C 0.7307552 0.32530728 -0.20571038
N -0.6642922 -0.08921614 -0.19875269
C -1.2903867 -0.39593583 0.998549
N -2.6646152 -0.53825206 0.89043236
O -0.69440985 -0.5117661 2.0522633
C 1.4881662 -0.5123498 -1.229812
O 2.3453603 -0.092882454 -1.962418
H 1.9981636 2.0604494 -0.4441673
H 0.48642522 2.1639364 -1.3430625
H 0.47578362 2.381616 0.4223758
H 1.111057 0.022176536 0.7802224
H -1.2432091 0.2772739 -0.939875
H -3.0407562 -0.86375636 0.012714083
H -3.0767763 -0.9708833 1.7029682
H 1.171466 -1.5799397 -1.2443615
