title
 OpenBabel02282109573D

 16 15  0  0  1  0  0  0  0  0999 V2000
    0.7898    1.7734   -0.3653 C   0  0  0  0  0  0  0  0  0  0  0  0
    0.7151    0.2638   -0.1942 C   0  0  1  0  0  0  0  0  0  0  0  0
   -0.6472   -0.2048   -0.1925 O   0  0  0  0  0  0  0  0  0  0  0  0
   -1.2453   -0.3418    1.0188 C   0  0  0  0  0  0  0  0  0  0  0  0
   -2.6677   -0.8138    0.8525 C   0  0  0  0  0  0  0  0  0  0  0  0
   -0.6966   -0.1104    2.0645 O   0  0  0  0  0  0  0  0  0  0  0  0
    1.4181   -0.5100   -1.2989 C   0  0  0  0  0  0  0  0  0  0  0  0
    2.3671   -0.0962   -1.9098 O   0  0  0  0  0  0  0  0  0  0  0  0
    1.8328    2.0674   -0.5019 H   0  0  0  0  0  0  0  0  0  0  0  0
    0.2259    2.0873   -1.2479 H   0  0  0  0  0  0  0  0  0  0  0  0
    0.3865    2.2752    0.5167 H   0  0  0  0  0  0  0  0  0  0  0  0
    1.1735   -0.0308    0.7595 H   0  0  0  0  0  0  0  0  0  0  0  0
   -3.2412   -0.0702    0.2915 H   0  0  0  0  0  0  0  0  0  0  0  0
   -2.6915   -1.7433    0.2774 H   0  0  0  0  0  0  0  0  0  0  0  0
   -3.1169   -0.9658    1.8329 H   0  0  0  0  0  0  0  0  0  0  0  0
    0.9856   -1.5180   -1.4836 H   0  0  0  0  0  0  0  0  0  0  0  0
  1  2  1  0  0  0  0
  1 11  1  0  0  0  0
  2  3  1  0  0  0  0
  2 12  1  1  0  0  0
  3  4  1  0  0  0  0
  4  6  2  0  0  0  0
  5  4  1  0  0  0  0
  5 15  1  0  0  0  0
  7  2  1  0  0  0  0
  8  7  2  0  0  0  0
  9  1  1  0  0  0  0
 10  1  1  0  0  0  0
 13  5  1  0  0  0  0
 14  5  1  0  0  0  0
 16  7  1  0  0  0  0
M  END
