title
 OpenBabel02282109573D

 17 16  0  0  0  0  0  0  0  0999 V2000
    0.5144    1.7852   -0.4245 C   0  0  0  0  0  0  0  0  0  0  0  0
    0.6924    0.3424   -0.4759 N   0  0  0  0  0  0  0  0  0  0  0  0
    0.5846   -0.4129    0.7423 C   0  0  0  0  0  0  0  0  0  0  0  0
   -0.8451   -0.5158    1.3024 C   0  0  0  0  0  0  0  0  0  0  0  0
   -0.9669   -1.1832    2.6589 C   0  0  0  0  0  0  0  0  0  0  0  0
   -1.7945   -0.0876    0.6942 O   0  0  0  0  0  0  0  0  0  0  0  0
    0.8850   -0.2807   -1.6761 C   0  0  0  0  0  0  0  0  0  0  0  0
    0.9565    0.2681   -2.7532 O   0  0  0  0  0  0  0  0  0  0  0  0
    1.2457    2.2361    0.2574 H   0  0  0  0  0  0  0  0  0  0  0  0
    0.6716    2.1705   -1.4318 H   0  0  0  0  0  0  0  0  0  0  0  0
   -0.4953    2.0392   -0.0901 H   0  0  0  0  0  0  0  0  0  0  0  0
    0.9454   -1.4349    0.5679 H   0  0  0  0  0  0  0  0  0  0  0  0
    1.2374    0.0081    1.5216 H   0  0  0  0  0  0  0  0  0  0  0  0
   -0.4358   -2.1412    2.6771 H   0  0  0  0  0  0  0  0  0  0  0  0
   -0.5073   -0.5500    3.4270 H   0  0  0  0  0  0  0  0  0  0  0  0
   -2.0188   -1.3353    2.9017 H   0  0  0  0  0  0  0  0  0  0  0  0
    0.9856   -1.3780   -1.5531 H   0  0  0  0  0  0  0  0  0  0  0  0
  1 11  1  0  0  0  0
  1  9  1  0  0  0  0
  2  1  1  0  0  0  0
  2  3  1  0  0  0  0
  3  4  1  0  0  0  0
  3 13  1  0  0  0  0
  4  5  1  0  0  0  0
  5 14  1  0  0  0  0
  5 16  1  0  0  0  0
  5 15  1  0  0  0  0
  6  4  2  0  0  0  0
  7 17  1  0  0  0  0
  7  2  1  0  0  0  0
  8  7  2  0  0  0  0
 10  1  1  0  0  0  0
 12  3  1  0  0  0  0
M  END
