15
title
N 1.096284 1.8770976 0.57934546
C 0.732866 1.4933265 -0.67442054
O 1.1777447 1.9918501 -1.6895171
C -0.34124944 0.39702666 -0.7197354
C 0.00083704334 -0.86516213 0.10320701
O 0.080746666 -0.60149014 1.4840769
C -1.0537605 -1.9259548 -0.1461828
O -1.7259734 -2.3673306 0.7543987
H 1.8537766 2.5354466 0.6636665
H 0.8227637 1.320559 1.3755603
H -1.2881601 0.8061158 -0.3473985
H -0.468456 0.13808642 -1.773531
H 0.96387607 -1.2661409 -0.25426075
H -0.6336391 -1.1196418 1.8913677
H -1.1841385 -2.2585516 -1.1945794
