18
title
C 0.601467 3.1046674 0.6035883
N 0.5747936 1.6860527 0.9116132
C 0.12202607 0.8501302 0.06473513
C -0.43150803 1.1212919 -1.3086275
N 0.15818419 -0.48813823 0.49957812
C -0.23903023 -1.6490695 -0.13139494
C -0.017104462 -2.8933501 0.71688986
O -0.71777916 -1.6920917 -1.2467242
H 1.2239329 3.3379009 -0.2713377
H -0.3996037 3.5182726 0.41880134
H 1.0241306 3.639832 1.4580293
H 0.13682167 0.5787867 -2.067372
H -1.4576248 0.75590676 -1.3897557
H -0.40469104 2.1888943 -1.5245819
H 0.5455008 -0.56256574 1.430423
H 1.0418302 -3.0105414 0.9700594
H -0.57853454 -2.8321505 1.655105
H -0.35167235 -3.7624664 0.15207432
