title
 OpenBabel02282109573D

 18 17  0  0  0  0  0  0  0  0999 V2000
    0.6015    3.1047    0.6036 C   0  0  0  0  0  0  0  0  0  0  0  0
    0.5748    1.6861    0.9116 N   0  0  0  0  0  0  0  0  0  0  0  0
    0.1220    0.8501    0.0647 C   0  0  0  0  0  0  0  0  0  0  0  0
   -0.4315    1.1213   -1.3086 C   0  0  0  0  0  0  0  0  0  0  0  0
    0.1582   -0.4881    0.4996 N   0  0  0  0  0  0  0  0  0  0  0  0
   -0.2390   -1.6491   -0.1314 C   0  0  0  0  0  0  0  0  0  0  0  0
   -0.0171   -2.8934    0.7169 C   0  0  0  0  0  0  0  0  0  0  0  0
   -0.7178   -1.6921   -1.2467 O   0  0  0  0  0  0  0  0  0  0  0  0
    1.2239    3.3379   -0.2713 H   0  0  0  0  0  0  0  0  0  0  0  0
   -0.3996    3.5183    0.4188 H   0  0  0  0  0  0  0  0  0  0  0  0
    1.0241    3.6398    1.4580 H   0  0  0  0  0  0  0  0  0  0  0  0
    0.1368    0.5788   -2.0674 H   0  0  0  0  0  0  0  0  0  0  0  0
   -1.4576    0.7559   -1.3898 H   0  0  0  0  0  0  0  0  0  0  0  0
   -0.4047    2.1889   -1.5246 H   0  0  0  0  0  0  0  0  0  0  0  0
    0.5455   -0.5626    1.4304 H   0  0  0  0  0  0  0  0  0  0  0  0
    1.0418   -3.0105    0.9701 H   0  0  0  0  0  0  0  0  0  0  0  0
   -0.5785   -2.8322    1.6551 H   0  0  0  0  0  0  0  0  0  0  0  0
   -0.3517   -3.7625    0.1521 H   0  0  0  0  0  0  0  0  0  0  0  0
  1  2  1  0  0  0  0
  1 11  1  0  0  0  0
  3  5  1  0  0  0  0
  3  2  2  0  0  0  0
  4  3  1  0  0  0  0
  5 15  1  0  0  0  0
  6  5  1  0  0  0  0
  6  7  1  0  0  0  0
  7 16  1  0  0  0  0
  7 17  1  0  0  0  0
  8  6  2  0  0  0  0
  9  1  1  0  0  0  0
 10  1  1  0  0  0  0
 12  4  1  0  0  0  0
 13  4  1  0  0  0  0
 14  4  1  0  0  0  0
 18  7  1  0  0  0  0
M  END
