title
 OpenBabel02282109583D

 17 16  0  0  0  0  0  0  0  0999 V2000
   -0.7814    3.1117    0.3317 C   0  0  0  0  0  0  0  0  0  0  0  0
   -1.0661    1.7010    0.1421 N   0  0  0  0  0  0  0  0  0  0  0  0
   -0.1213    0.8469    0.1403 C   0  0  0  0  0  0  0  0  0  0  0  0
    1.3535    1.0915    0.3214 C   0  0  0  0  0  0  0  0  0  0  0  0
   -0.5441   -0.4806   -0.0351 N   0  0  0  0  0  0  0  0  0  0  0  0
    0.2092   -1.6273   -0.2270 C   0  0  0  0  0  0  0  0  0  0  0  0
   -0.5776   -2.7575   -0.3931 N   0  0  0  0  0  0  0  0  0  0  0  0
    1.4224   -1.6641   -0.2885 O   0  0  0  0  0  0  0  0  0  0  0  0
   -0.0950    3.5167   -0.4248 H   0  0  0  0  0  0  0  0  0  0  0  0
   -1.7182    3.6703    0.2559 H   0  0  0  0  0  0  0  0  0  0  0  0
   -0.3512    3.3277    1.3198 H   0  0  0  0  0  0  0  0  0  0  0  0
    1.7497    0.4781    1.1336 H   0  0  0  0  0  0  0  0  0  0  0  0
    1.9054    0.7936   -0.5725 H   0  0  0  0  0  0  0  0  0  0  0  0
    1.5383    2.1437    0.5350 H   0  0  0  0  0  0  0  0  0  0  0  0
   -1.5460   -0.5339   -0.1556 H   0  0  0  0  0  0  0  0  0  0  0  0
   -1.4770   -2.7971    0.0613 H   0  0  0  0  0  0  0  0  0  0  0  0
   -0.0451   -3.6124   -0.3457 H   0  0  0  0  0  0  0  0  0  0  0  0
  1 11  1  0  0  0  0
  2  1  1  0  0  0  0
  3  2  2  0  0  0  0
  3  4  1  0  0  0  0
  4 14  1  0  0  0  0
  4 12  1  0  0  0  0
  5  3  1  0  0  0  0
  6  5  1  0  0  0  0
  7 17  1  0  0  0  0
  7  6  1  0  0  0  0
  7 16  1  0  0  0  0
  8  6  2  0  0  0  0
  9  1  1  0  0  0  0
 10  1  1  0  0  0  0
 13  4  1  0  0  0  0
 15  5  1  0  0  0  0
M  END
