17
title
C -0.7813501 3.1117473 0.33166948
N -1.066078 1.7009561 0.1421183
C -0.12128373 0.8468777 0.14030084
C 1.3534905 1.0915315 0.3213605
N -0.54409397 -0.48058468 -0.03512591
C 0.20918715 -1.6272988 -0.2270427
N -0.577636 -2.757493 -0.39313895
O 1.4223626 -1.664104 -0.28846335
H -0.095049195 3.5166888 -0.4247611
H -1.7182295 3.6703296 0.25589374
H -0.35124776 3.3276546 1.3198378
H 1.7496885 0.47807556 1.1335596
H 1.905388 0.7935971 -0.5725051
H 1.5383433 2.1437063 0.5350212
H -1.5460031 -0.5339424 -0.15556616
H -1.4769826 -2.797111 0.06125322
H -0.045130037 -3.6123714 -0.34569585
