title
 OpenBabel02282109583D

 17 16  0  0  0  0  0  0  0  0999 V2000
   -0.8006    3.0656    0.2839 C   0  0  0  0  0  0  0  0  0  0  0  0
   -1.1349    1.6636    0.1389 N   0  0  0  0  0  0  0  0  0  0  0  0
   -0.1641    0.8333    0.1106 C   0  0  0  0  0  0  0  0  0  0  0  0
    1.1752    1.0741    0.2201 N   0  0  0  0  0  0  0  0  0  0  0  0
   -0.5285   -0.5275    0.0013 N   0  0  0  0  0  0  0  0  0  0  0  0
    0.2661   -1.6274   -0.1885 C   0  0  0  0  0  0  0  0  0  0  0  0
   -0.5019   -2.9342   -0.2786 C   0  0  0  0  0  0  0  0  0  0  0  0
    1.4850   -1.5813   -0.2688 O   0  0  0  0  0  0  0  0  0  0  0  0
   -0.2183    3.4569   -0.5683 H   0  0  0  0  0  0  0  0  0  0  0  0
   -1.7207    3.6531    0.3372 H   0  0  0  0  0  0  0  0  0  0  0  0
   -0.2202    3.2731    1.1975 H   0  0  0  0  0  0  0  0  0  0  0  0
    1.4865    2.0130    0.0408 H   0  0  0  0  0  0  0  0  0  0  0  0
    1.7925    0.3029   -0.0073 H   0  0  0  0  0  0  0  0  0  0  0  0
   -1.5313   -0.6409    0.0136 H   0  0  0  0  0  0  0  0  0  0  0  0
   -0.9722   -3.1662    0.6827 H   0  0  0  0  0  0  0  0  0  0  0  0
   -1.2930   -2.8796   -1.0331 H   0  0  0  0  0  0  0  0  0  0  0  0
    0.1948   -3.7306   -0.5369 H   0  0  0  0  0  0  0  0  0  0  0  0
  1 10  1  0  0  0  0
  1 11  1  0  0  0  0
  2  1  1  0  0  0  0
  3  2  2  0  0  0  0
  3  4  1  0  0  0  0
  5 14  1  0  0  0  0
  5  3  1  0  0  0  0
  6  5  1  0  0  0  0
  7  6  1  0  0  0  0
  7 15  1  0  0  0  0
  8  6  2  0  0  0  0
  9  1  1  0  0  0  0
 12  4  1  0  0  0  0
 13  4  1  0  0  0  0
 16  7  1  0  0  0  0
 17  7  1  0  0  0  0
M  END
