title
 OpenBabel02282109583D

 16 15  0  0  0  0  0  0  0  0999 V2000
    0.9972    2.8685    0.1345 C   0  0  0  0  0  0  0  0  0  0  0  0
    0.4562    1.5242   -0.3238 C   0  0  0  0  0  0  0  0  0  0  0  0
    0.1555    1.2897   -1.4771 O   0  0  0  0  0  0  0  0  0  0  0  0
    0.3436    0.6004    0.6950 N   0  0  0  0  0  0  0  0  0  0  0  0
   -0.0908   -0.7306    0.6447 C   0  0  0  0  0  0  0  0  0  0  0  0
   -0.0574   -1.3841    1.7348 N   0  0  0  0  0  0  0  0  0  0  0  0
   -0.5670   -1.2902   -0.6934 C   0  0  0  0  0  0  0  0  0  0  0  0
   -1.0460   -2.6128   -0.5448 O   0  0  0  0  0  0  0  0  0  0  0  0
    1.0246    3.5424   -0.7206 H   0  0  0  0  0  0  0  0  0  0  0  0
    0.3657    3.2992    0.9184 H   0  0  0  0  0  0  0  0  0  0  0  0
    2.0075    2.7606    0.5429 H   0  0  0  0  0  0  0  0  0  0  0  0
    0.6370    0.8719    1.6238 H   0  0  0  0  0  0  0  0  0  0  0  0
   -0.3733   -2.3369    1.5478 H   0  0  0  0  0  0  0  0  0  0  0  0
   -1.3080   -0.6200   -1.1398 H   0  0  0  0  0  0  0  0  0  0  0  0
    0.2709   -1.3219   -1.3950 H   0  0  0  0  0  0  0  0  0  0  0  0
   -1.9488   -2.5683   -0.2143 H   0  0  0  0  0  0  0  0  0  0  0  0
  1 11  1  0  0  0  0
  1 10  1  0  0  0  0
  2  1  1  0  0  0  0
  2  4  1  0  0  0  0
  3  2  2  0  0  0  0
  4 12  1  0  0  0  0
  5  4  1  0  0  0  0
  5  6  2  0  0  0  0
  7  8  1  0  0  0  0
  7  5  1  0  0  0  0
  8 16  1  0  0  0  0
  9  1  1  0  0  0  0
 13  6  1  0  0  0  0
 14  7  1  0  0  0  0
 15  7  1  0  0  0  0
M  END
