18
title
C -1.0433502 2.6461337 1.7320933
C -0.8940833 1.1346327 1.5830731
C -0.19508725 0.713483 0.3052876
N 0.21739018 1.5577286 -0.5440203
N -0.07707589 -0.69570374 0.20554616
C 0.50192285 -1.4160318 -0.8211378
C 0.46240532 -2.9218247 -0.615667
O 0.99943185 -0.89887047 -1.8020242
H -0.06677645 3.1348925 1.7267461
H -1.6175942 3.0630581 0.90201557
H -1.5530866 2.8867183 2.6696393
H -0.3352819 0.7201614 2.4347723
H -1.8801352 0.6486009 1.6133013
H 0.659016 1.0854071 -1.3335258
H -0.45972258 -1.229011 0.97140527
H -0.5695978 -3.277661 -0.52752054
H 0.9368634 -3.4017746 -1.4705716
H 0.9933293 -3.205579 0.29923522
