title
 OpenBabel02282109583D

 17 16  0  0  0  0  0  0  0  0999 V2000
   -0.8776    2.6276   -1.8618 C   0  0  0  0  0  0  0  0  0  0  0  0
   -0.8359    1.1182   -1.6404 C   0  0  0  0  0  0  0  0  0  0  0  0
   -0.1452    0.7093   -0.3535 C   0  0  0  0  0  0  0  0  0  0  0  0
    0.3475    1.5625    0.4420 N   0  0  0  0  0  0  0  0  0  0  0  0
   -0.1298   -0.6967   -0.1921 N   0  0  0  0  0  0  0  0  0  0  0  0
    0.4014   -1.3946    0.8822 C   0  0  0  0  0  0  0  0  0  0  0  0
    0.2548   -2.7678    0.7710 N   0  0  0  0  0  0  0  0  0  0  0  0
    0.9115   -0.8698    1.8535 O   0  0  0  0  0  0  0  0  0  0  0  0
    0.1320    3.0426   -1.8953 H   0  0  0  0  0  0  0  0  0  0  0  0
   -1.3861    2.8595   -2.8023 H   0  0  0  0  0  0  0  0  0  0  0  0
   -1.4041    3.1251   -1.0447 H   0  0  0  0  0  0  0  0  0  0  0  0
   -1.8557    0.7064   -1.6304 H   0  0  0  0  0  0  0  0  0  0  0  0
   -0.3257    0.6226   -2.4790 H   0  0  0  0  0  0  0  0  0  0  0  0
    0.7599    1.0995    1.2530 H   0  0  0  0  0  0  0  0  0  0  0  0
   -0.6314   -1.2283   -0.8862 H   0  0  0  0  0  0  0  0  0  0  0  0
    0.2469   -3.1856   -0.1468 H   0  0  0  0  0  0  0  0  0  0  0  0
    0.7952   -3.2739    1.4561 H   0  0  0  0  0  0  0  0  0  0  0  0
  1  2  1  0  0  0  0
  1 11  1  0  0  0  0
  2 12  1  0  0  0  0
  2  3  1  0  0  0  0
  3  5  1  0  0  0  0
  3  4  2  0  0  0  0
  4 14  1  0  0  0  0
  5  6  1  0  0  0  0
  6  8  2  0  0  0  0
  7  6  1  0  0  0  0
  7 17  1  0  0  0  0
  9  1  1  0  0  0  0
 10  1  1  0  0  0  0
 13  2  1  0  0  0  0
 15  5  1  0  0  0  0
 16  7  1  0  0  0  0
M  END
