title
 OpenBabel02282109583D

 18 17  0  0  0  0  0  0  0  0999 V2000
   -1.1474    2.1344    0.4635 C   0  0  0  0  0  0  0  0  0  0  0  0
   -0.7032    1.2145    1.6175 C   0  0  0  0  0  0  0  0  0  0  0  0
    0.1930    0.0922    1.1274 C   0  0  0  0  0  0  0  0  0  0  0  0
    1.3768    0.0471    1.3721 O   0  0  0  0  0  0  0  0  0  0  0  0
   -0.4701   -0.9900    0.2551 C   0  0  0  0  0  0  0  0  0  0  0  0
    0.0061   -0.8554   -1.1994 C   0  0  0  0  0  0  0  0  0  0  0  0
    1.3697   -1.4324   -1.4997 C   0  0  0  0  0  0  0  0  0  0  0  0
   -0.6786   -0.2979   -2.0245 O   0  0  0  0  0  0  0  0  0  0  0  0
   -0.2855    2.6467    0.0261 H   0  0  0  0  0  0  0  0  0  0  0  0
   -1.6421    1.5758   -0.3358 H   0  0  0  0  0  0  0  0  0  0  0  0
   -1.8410    2.8938    0.8341 H   0  0  0  0  0  0  0  0  0  0  0  0
   -0.1489    1.7788    2.3717 H   0  0  0  0  0  0  0  0  0  0  0  0
   -1.5872    0.7738    2.0953 H   0  0  0  0  0  0  0  0  0  0  0  0
   -0.1598   -1.9585    0.6589 H   0  0  0  0  0  0  0  0  0  0  0  0
   -1.5574   -0.9076    0.2712 H   0  0  0  0  0  0  0  0  0  0  0  0
    1.3208   -2.5267   -1.4441 H   0  0  0  0  0  0  0  0  0  0  0  0
    1.6965   -1.1344   -2.4965 H   0  0  0  0  0  0  0  0  0  0  0  0
    2.0824   -1.1073   -0.7350 H   0  0  0  0  0  0  0  0  0  0  0  0
  1 11  1  0  0  0  0
  1  2  1  0  0  0  0
  2 13  1  0  0  0  0
  2 12  1  0  0  0  0
  3  4  2  0  0  0  0
  3  2  1  0  0  0  0
  5 15  1  0  0  0  0
  5 14  1  0  0  0  0
  5  3  1  0  0  0  0
  6  5  1  0  0  0  0
  7 16  1  0  0  0  0
  7  6  1  0  0  0  0
  7 18  1  0  0  0  0
  8  6  2  0  0  0  0
  9  1  1  0  0  0  0
 10  1  1  0  0  0  0
 17  7  1  0  0  0  0
M  END
