17
title
C 1.2534788 2.4181585 0.54815316
C 1.8656576 1.2746116 -0.28445637
C 0.8173948 0.238901 -0.6441119
O 0.32965964 0.18999909 -1.7558956
C 0.40805346 -0.7337878 0.45884347
C -1.0962353 -1.0295933 0.5965616
N -1.7325442 -1.287242 -0.5767688
O -1.6238787 -1.0769845 1.6894068
H 2.0233235 3.1500216 0.80621594
H 0.47087687 2.9322176 -0.017051658
H 0.8134175 2.051158 1.480289
H 2.2843568 1.6646718 -1.2155166
H 2.668684 0.79414856 0.2873546
H 0.9109227 -1.6827763 0.22588319
H 0.7635012 -0.41063368 1.4373745
H -1.2887485 -0.9915999 -1.4367352
H -2.735588 -1.3782917 -0.5407806
