17
title
C -1.025144 2.4313564 2.0098076
C -0.8020612 0.9422785 1.7602057
C -0.20958893 0.6658425 0.37791464
O 0.050346803 1.5283229 -0.4199907
N -0.0040596602 -0.70371306 0.1461284
C 0.5196764 -1.3204056 -1.001609
C 0.58655125 -2.8358634 -0.8690258
O 0.87663823 -0.7221061 -1.982149
H -0.08473866 2.982407 1.9366091
H -1.706902 2.8516378 1.2668815
H -1.4489036 2.5937512 3.0045822
H -0.12912653 0.51517326 2.516214
H -1.7444143 0.3848452 1.8499528
H -0.26541114 -1.3212215 0.9001657
H -0.40987414 -3.2583973 -0.6997694
H 1.0002574 -3.2465045 -1.7890657
H 1.2207212 -3.1276586 -0.024814384
