16
title
C 2.1545234 2.5237215 -0.14882924
C 1.9001001 1.0288773 0.025278814
C 0.41402927 0.6780913 -0.06057788
O -0.45889124 1.5005764 -0.1649546
N 0.18639605 -0.7020708 -0.015625548
C -1.0592927 -1.3510729 0.10033244
N -0.92985326 -2.724774 -0.06599531
O -2.0983837 -0.80673724 0.36973804
H 3.2215207 2.7444453 -0.05728747
H 1.8110337 2.8662524 -1.1279866
H 1.6114211 3.097756 0.605004
H 2.444782 0.4477292 -0.7310004
H 2.274109 0.6801968 0.99755746
H 1.004673 -1.2886661 0.044753283
H -0.24881275 -3.06309 -0.72946006
H -1.8234679 -3.190974 -0.11923348
