title
 OpenBabel02282109583D

 16 15  0  0  0  0  0  0  0  0999 V2000
    2.1545    2.5237   -0.1488 C   0  0  0  0  0  0  0  0  0  0  0  0
    1.9001    1.0289    0.0253 C   0  0  0  0  0  0  0  0  0  0  0  0
    0.4140    0.6781   -0.0606 C   0  0  0  0  0  0  0  0  0  0  0  0
   -0.4589    1.5006   -0.1650 O   0  0  0  0  0  0  0  0  0  0  0  0
    0.1864   -0.7021   -0.0156 N   0  0  0  0  0  0  0  0  0  0  0  0
   -1.0593   -1.3511    0.1003 C   0  0  0  0  0  0  0  0  0  0  0  0
   -0.9299   -2.7248   -0.0660 N   0  0  0  0  0  0  0  0  0  0  0  0
   -2.0984   -0.8067    0.3697 O   0  0  0  0  0  0  0  0  0  0  0  0
    3.2215    2.7444   -0.0573 H   0  0  0  0  0  0  0  0  0  0  0  0
    1.8110    2.8663   -1.1280 H   0  0  0  0  0  0  0  0  0  0  0  0
    1.6114    3.0978    0.6050 H   0  0  0  0  0  0  0  0  0  0  0  0
    2.4448    0.4477   -0.7310 H   0  0  0  0  0  0  0  0  0  0  0  0
    2.2741    0.6802    0.9976 H   0  0  0  0  0  0  0  0  0  0  0  0
    1.0047   -1.2887    0.0448 H   0  0  0  0  0  0  0  0  0  0  0  0
   -0.2488   -3.0631   -0.7295 H   0  0  0  0  0  0  0  0  0  0  0  0
   -1.8235   -3.1910   -0.1192 H   0  0  0  0  0  0  0  0  0  0  0  0
  1  9  1  0  0  0  0
  1  2  1  0  0  0  0
  1 11  1  0  0  0  0
  2 13  1  0  0  0  0
  3  5  1  0  0  0  0
  3  2  1  0  0  0  0
  4  3  2  0  0  0  0
  5 14  1  0  0  0  0
  5  6  1  0  0  0  0
  6  8  2  0  0  0  0
  7  6  1  0  0  0  0
 10  1  1  0  0  0  0
 12  2  1  0  0  0  0
 15  7  1  0  0  0  0
 16  7  1  0  0  0  0
M  END
