17
title
C -0.8604152 2.6659486 0.5757975
N -0.7042445 1.2438504 0.34375152
C 0.31110376 0.5308878 0.88738114
O 1.143739 0.9784546 1.6560192
C 0.32922655 -0.966042 0.5199615
C -0.030517982 -1.3510102 -0.9106098
C 0.8071616 -2.4416368 -1.5396844
O -0.94845253 -0.828015 -1.5104269
H -0.17298238 2.9520571 1.3724405
H -0.6246774 3.2507472 -0.3214341
H -1.8857263 2.8985827 0.88154256
H -1.2532784 0.7797856 -0.3688875
H 1.3107373 -1.3492361 0.80210483
H -0.40554252 -1.4678515 1.1655432
H 0.8356413 -3.3244584 -0.8912149
H 0.40837687 -2.706883 -2.5192347
H 1.8421515 -2.094338 -1.6419619
