16
title
C 0.9078186 2.6609406 0.37227604
N 0.60625637 1.2448591 0.41479948
C 0.7189918 0.4476214 -0.6727278
O 1.1206441 0.8054106 -1.7664906
C 0.35556522 -1.0313697 -0.4274843
C -0.847614 -1.276943 0.47403836
N -1.7744246 -2.1396303 -0.014960532
O -0.96952647 -0.75137275 1.5720011
H 1.6276515 2.93137 1.1523051
H 1.3380232 2.8816018 -0.6052833
H 0.005345019 3.2684972 0.50862765
H 0.16881576 0.8342231 1.2322608
H 0.24614468 -1.4911518 -1.4105529
H 1.2169961 -1.5005109 0.06343109
H -1.7011468 -2.5491614 -0.9289461
H -2.5891519 -2.3344777 0.5443661
