17
title
C 0.9228718 2.6647255 -0.55770326
N 0.38623694 1.3238965 -0.46773624
C 0.5038983 0.5932508 0.66046
O 1.0450524 0.9383909 1.6970689
N -0.07075605 -0.7038072 0.60212404
C -0.7360899 -1.3622566 -0.40981427
C -1.1806014 -2.7554312 -0.018409291
N -0.9339039 -0.8091703 -1.5489068
H 1.6752533 2.7381897 -1.3514692
H 0.13207069 3.3954682 -0.7631756
H 1.3902885 2.9076638 0.3970761
H -0.09828946 0.8832535 -1.2474641
H 0.056905538 -1.1855882 1.477975
H -1.8544424 -2.718172 0.8442332
H -1.7014732 -3.2401042 -0.84540975
H -0.31946346 -3.3719573 0.2607089
H -1.4367025 -1.4314345 -2.1743166
