title
 OpenBabel02282109583D

 17 16  0  0  0  0  0  0  0  0999 V2000
    0.9229    2.6647   -0.5577 C   0  0  0  0  0  0  0  0  0  0  0  0
    0.3862    1.3239   -0.4677 N   0  0  0  0  0  0  0  0  0  0  0  0
    0.5039    0.5933    0.6605 C   0  0  0  0  0  0  0  0  0  0  0  0
    1.0451    0.9384    1.6971 O   0  0  0  0  0  0  0  0  0  0  0  0
   -0.0708   -0.7038    0.6021 N   0  0  0  0  0  0  0  0  0  0  0  0
   -0.7361   -1.3623   -0.4098 C   0  0  0  0  0  0  0  0  0  0  0  0
   -1.1806   -2.7554   -0.0184 C   0  0  0  0  0  0  0  0  0  0  0  0
   -0.9339   -0.8092   -1.5489 N   0  0  0  0  0  0  0  0  0  0  0  0
    1.6753    2.7382   -1.3515 H   0  0  0  0  0  0  0  0  0  0  0  0
    0.1321    3.3955   -0.7632 H   0  0  0  0  0  0  0  0  0  0  0  0
    1.3903    2.9077    0.3971 H   0  0  0  0  0  0  0  0  0  0  0  0
   -0.0983    0.8833   -1.2475 H   0  0  0  0  0  0  0  0  0  0  0  0
    0.0569   -1.1856    1.4780 H   0  0  0  0  0  0  0  0  0  0  0  0
   -1.8544   -2.7182    0.8442 H   0  0  0  0  0  0  0  0  0  0  0  0
   -1.7015   -3.2401   -0.8454 H   0  0  0  0  0  0  0  0  0  0  0  0
   -0.3195   -3.3720    0.2607 H   0  0  0  0  0  0  0  0  0  0  0  0
   -1.4367   -1.4314   -2.1743 H   0  0  0  0  0  0  0  0  0  0  0  0
  1  2  1  0  0  0  0
  1 11  1  0  0  0  0
  2  3  1  0  0  0  0
  3  4  2  0  0  0  0
  5  3  1  0  0  0  0
  5 13  1  0  0  0  0
  6  7  1  0  0  0  0
  6  5  1  0  0  0  0
  7 16  1  0  0  0  0
  7 14  1  0  0  0  0
  8  6  2  0  0  0  0
  9  1  1  0  0  0  0
 10  1  1  0  0  0  0
 12  2  1  0  0  0  0
 15  7  1  0  0  0  0
 17  8  1  0  0  0  0
M  END
