title
 OpenBabel02282109583D

 16 15  0  0  0  0  0  0  0  0999 V2000
    1.0858    2.5986   -0.5583 C   0  0  0  0  0  0  0  0  0  0  0  0
    0.5676    1.2499   -0.4594 N   0  0  0  0  0  0  0  0  0  0  0  0
    0.1073    0.7528    0.7068 C   0  0  0  0  0  0  0  0  0  0  0  0
    0.0620    1.3277    1.7778 O   0  0  0  0  0  0  0  0  0  0  0  0
   -0.3677   -0.5906    0.6376 N   0  0  0  0  0  0  0  0  0  0  0  0
   -0.4299   -1.4537   -0.4310 C   0  0  0  0  0  0  0  0  0  0  0  0
   -1.0094   -2.8155   -0.0970 C   0  0  0  0  0  0  0  0  0  0  0  0
   -0.0542   -1.1605   -1.5549 O   0  0  0  0  0  0  0  0  0  0  0  0
    2.1332    2.5963   -0.8802 H   0  0  0  0  0  0  0  0  0  0  0  0
    0.5046    3.1932   -1.2719 H   0  0  0  0  0  0  0  0  0  0  0  0
    1.0181    3.0605    0.4269 H   0  0  0  0  0  0  0  0  0  0  0  0
    0.5334    0.6312   -1.2623 H   0  0  0  0  0  0  0  0  0  0  0  0
   -0.6985   -0.9050    1.5376 H   0  0  0  0  0  0  0  0  0  0  0  0
   -1.0181   -3.4235   -1.0006 H   0  0  0  0  0  0  0  0  0  0  0  0
   -0.4097   -3.3138    0.6715 H   0  0  0  0  0  0  0  0  0  0  0  0
   -2.0301   -2.7188    0.2868 H   0  0  0  0  0  0  0  0  0  0  0  0
  1  2  1  0  0  0  0
  1 11  1  0  0  0  0
  2  3  1  0  0  0  0
  3  4  2  0  0  0  0
  5  3  1  0  0  0  0
  5 13  1  0  0  0  0
  6  7  1  0  0  0  0
  6  5  1  0  0  0  0
  7 16  1  0  0  0  0
  7 15  1  0  0  0  0
  8  6  2  0  0  0  0
  9  1  1  0  0  0  0
 10  1  1  0  0  0  0
 12  2  1  0  0  0  0
 14  7  1  0  0  0  0
M  END
