title
 OpenBabel02282109583D

 15 14  0  0  0  0  0  0  0  0999 V2000
    0.4680    2.7208   -0.2013 C   0  0  0  0  0  0  0  0  0  0  0  0
    0.4331    1.2996   -0.3416 O   0  0  0  0  0  0  0  0  0  0  0  0
   -0.7375    0.7172   -0.0823 C   0  0  0  0  0  0  0  0  0  0  0  0
   -1.7981    1.3791    0.1527 N   0  0  0  0  0  0  0  0  0  0  0  0
   -0.6419   -0.6783   -0.1808 N   0  0  0  0  0  0  0  0  0  0  0  0
    0.4671   -1.4752    0.1503 C   0  0  0  0  0  0  0  0  0  0  0  0
    0.2233   -2.8128   -0.1354 N   0  0  0  0  0  0  0  0  0  0  0  0
    1.4803   -1.0772    0.6695 O   0  0  0  0  0  0  0  0  0  0  0  0
    1.5037    3.0038   -0.3910 H   0  0  0  0  0  0  0  0  0  0  0  0
   -0.2018    3.1974   -0.9218 H   0  0  0  0  0  0  0  0  0  0  0  0
    0.1654    3.0167    0.8063 H   0  0  0  0  0  0  0  0  0  0  0  0
   -2.5849    0.7727    0.3689 H   0  0  0  0  0  0  0  0  0  0  0  0
   -1.5306   -1.1517   -0.2182 H   0  0  0  0  0  0  0  0  0  0  0  0
   -0.3221   -3.0253   -0.9575 H   0  0  0  0  0  0  0  0  0  0  0  0
    1.0483   -3.3842   -0.0295 H   0  0  0  0  0  0  0  0  0  0  0  0
  1 11  1  0  0  0  0
  2  1  1  0  0  0  0
  2  3  1  0  0  0  0
  3  4  2  0  0  0  0
  4 12  1  0  0  0  0
  5  3  1  0  0  0  0
  5  6  1  0  0  0  0
  6  8  2  0  0  0  0
  7 15  1  0  0  0  0
  7  6  1  0  0  0  0
  9  1  1  0  0  0  0
 10  1  1  0  0  0  0
 13  5  1  0  0  0  0
 14  7  1  0  0  0  0
M  END
