15
title
C 0.46801504 2.7208078 -0.20129547
O 0.43310174 1.2996202 -0.3416003
C -0.7375249 0.7171823 -0.08234925
N -1.7980844 1.3791356 0.15269788
N -0.6419057 -0.6783205 -0.18083422
C 0.4671341 -1.4751687 0.15026887
N 0.22333884 -2.8128364 -0.13536026
O 1.4802845 -1.0771892 0.6694767
H 1.5036824 3.003787 -0.39099327
H -0.20180272 3.1974397 -0.9217765
H 0.16536303 3.0167139 0.80628574
H -2.5848584 0.77271 0.3688827
H -1.5305701 -1.15168 -0.21822979
H -0.32206747 -3.025276 -0.9575145
H 1.0483325 -3.3841684 -0.02953096
