title
 OpenBabel02282109583D

 16 15  0  0  0  0  0  0  0  0999 V2000
    1.2624    2.7287   -0.1665 C   0  0  0  0  0  0  0  0  0  0  0  0
    1.2790    1.3704    0.2989 O   0  0  0  0  0  0  0  0  0  0  0  0
    0.5217    0.5128   -0.4046 C   0  0  0  0  0  0  0  0  0  0  0  0
   -0.1356    0.8296   -1.3660 O   0  0  0  0  0  0  0  0  0  0  0  0
    0.6065   -0.8892    0.1759 C   0  0  0  0  0  0  0  0  0  0  0  0
   -0.7895   -1.4458    0.5169 C   0  0  0  0  0  0  0  0  0  0  0  0
   -1.6538   -1.8523   -0.6545 C   0  0  0  0  0  0  0  0  0  0  0  0
   -1.1378   -1.5473    1.6673 O   0  0  0  0  0  0  0  0  0  0  0  0
    1.9216    3.2775    0.5055 H   0  0  0  0  0  0  0  0  0  0  0  0
    1.6259    2.7867   -1.1952 H   0  0  0  0  0  0  0  0  0  0  0  0
    0.2487    3.1341   -0.1270 H   0  0  0  0  0  0  0  0  0  0  0  0
    1.0709   -1.5230   -0.5880 H   0  0  0  0  0  0  0  0  0  0  0  0
    1.2157   -0.8901    1.0783 H   0  0  0  0  0  0  0  0  0  0  0  0
   -1.2040   -2.7195   -1.1536 H   0  0  0  0  0  0  0  0  0  0  0  0
   -2.6544   -2.1124   -0.3081 H   0  0  0  0  0  0  0  0  0  0  0  0
   -1.6870   -1.0431   -1.3897 H   0  0  0  0  0  0  0  0  0  0  0  0
  1 11  1  0  0  0  0
  1  2  1  0  0  0  0
  1  9  1  0  0  0  0
  3  5  1  0  0  0  0
  3  2  1  0  0  0  0
  4  3  2  0  0  0  0
  5  6  1  0  0  0  0
  5 13  1  0  0  0  0
  6  8  2  0  0  0  0
  7 15  1  0  0  0  0
  7  6  1  0  0  0  0
 10  1  1  0  0  0  0
 12  5  1  0  0  0  0
 14  7  1  0  0  0  0
 16  7  1  0  0  0  0
M  END
