title
 OpenBabel02282109583D

 15 14  0  0  0  0  0  0  0  0999 V2000
   -0.5359    2.7180    1.3826 C   0  0  0  0  0  0  0  0  0  0  0  0
   -1.0064    1.4723    0.8438 O   0  0  0  0  0  0  0  0  0  0  0  0
   -0.0665    0.5432    0.6254 C   0  0  0  0  0  0  0  0  0  0  0  0
    1.1105    0.7243    0.8512 O   0  0  0  0  0  0  0  0  0  0  0  0
   -0.6742   -0.7370    0.0940 C   0  0  0  0  0  0  0  0  0  0  0  0
    0.0993   -1.4494   -1.0324 C   0  0  0  0  0  0  0  0  0  0  0  0
    1.4497   -1.4417   -0.8995 N   0  0  0  0  0  0  0  0  0  0  0  0
   -0.4996   -2.0204   -1.9208 O   0  0  0  0  0  0  0  0  0  0  0  0
    0.1840    3.1804    0.7034 H   0  0  0  0  0  0  0  0  0  0  0  0
   -1.4209    3.3443    1.4891 H   0  0  0  0  0  0  0  0  0  0  0  0
   -0.0570    2.5600    2.3519 H   0  0  0  0  0  0  0  0  0  0  0  0
   -0.7270   -1.4360    0.9391 H   0  0  0  0  0  0  0  0  0  0  0  0
   -1.6907   -0.5662   -0.2558 H   0  0  0  0  0  0  0  0  0  0  0  0
    1.8810   -0.8086   -0.2404 H   0  0  0  0  0  0  0  0  0  0  0  0
    1.9914   -1.8419   -1.6482 H   0  0  0  0  0  0  0  0  0  0  0  0
  1 10  1  0  0  0  0
  1 11  1  0  0  0  0
  2  1  1  0  0  0  0
  3  2  1  0  0  0  0
  3  4  2  0  0  0  0
  5  3  1  0  0  0  0
  5 12  1  0  0  0  0
  6  7  1  0  0  0  0
  6  5  1  0  0  0  0
  7 14  1  0  0  0  0
  8  6  2  0  0  0  0
  9  1  1  0  0  0  0
 13  5  1  0  0  0  0
 15  7  1  0  0  0  0
M  END
