16
title
C -1.0294653 2.3866808 1.676441
O -0.8291095 0.99351716 1.4255592
C -0.17606606 0.7215342 0.26066187
O 0.21285944 1.5495443 -0.51402307
N -0.06445743 -0.6564819 0.17039539
C 0.5264067 -1.4226598 -0.8405373
C 0.42880005 -2.905515 -0.53926754
N 1.0611479 -0.88426286 -1.8583028
H -0.07276727 2.9116588 1.7388926
H -1.627295 2.8422556 0.88283825
H -1.5566382 2.4423385 2.6292737
H -0.46862796 -1.153829 0.9472441
H -0.6174556 -3.2184942 -0.44596812
H 0.893344 -3.4866068 -1.3368266
H 0.93112797 -3.1476252 0.40432826
H 1.4323895 -1.606661 -2.4734056
