15
title
N 1.2478447 1.9097923 -0.2916289
C 0.25462157 1.6914705 0.6100579
O 0.14283895 2.2784173 1.6667784
C -0.80204564 0.665607 0.15750791
C -0.25514966 -0.6336851 -0.4214366
O 0.62545305 -0.66416645 -1.2502786
C -0.90706235 -1.8961186 0.11738251
O -0.38965815 -3.0212014 -0.53394294
H 2.0148835 2.4921892 0.0050729425
H 1.3954772 1.2281296 -1.0243126
H -1.4627523 0.48676988 1.007203
H -1.3987005 1.1348411 -0.63588446
H -0.7262098 -1.903379 1.2077202
H -1.9988866 -1.7837083 -0.009898384
H -0.8018729 -3.8036916 -0.15646984
