15
title
N 1.0300955 2.7023435 -0.10200479
C 0.5081224 1.4933125 0.3162727
O 0.2447839 1.2587132 1.4799684
N 0.3636118 0.57915753 -0.7153075
C -0.09538482 -0.7387824 -0.64640087
N -0.026842881 -1.4254804 -1.715018
C -0.65321714 -1.248641 0.68065685
O -1.1932884 -2.5483153 0.5347465
H 0.974279 3.4248836 0.59834594
H 0.8783994 3.010362 -1.0494361
H 0.737113 0.8045364 -1.6270608
H -0.37640435 -2.3636746 -1.5162172
H 0.15234901 -1.3101821 1.416086
H -1.3776492 -0.534673 1.0850976
H -2.0616443 -2.4659457 0.1276349
