14
title
N 0.61717325 2.8420002 -0.037236918
C 0.9114316 1.4934689 0.069063604
O 2.017881 1.0537142 0.23627165
N -0.26443666 0.7059339 0.026931385
C -0.33363885 -0.6730261 -0.052579787
O 0.6028588 -1.4134452 -0.24207292
C -1.7478913 -1.244575 0.10755438
O -1.724497 -2.6268365 -0.060270537
H 1.4407852 3.4168646 -0.13390322
H -0.16206181 3.1269658 -0.6109923
H -1.1397039 1.1887188 0.16854021
H -2.1240907 -0.9643638 1.106327
H -2.4137187 -0.7670853 -0.6302228
H -0.7854523 -2.8459136 -0.18585047
