20
title
C 0.17125535 1.6349871 -1.7581427
C -0.03706473 0.114708535 -1.7883364
C 0.55601263 -0.50219786 -3.0607333
C 0.55342335 -0.55520386 -0.53730303
C -0.17215042 -0.23662753 0.7542394
O -1.3228793 0.14877875 0.7960873
C 0.5813472 -0.43611848 2.0636485
O -0.2446132 -0.22251777 3.1674275
H 1.2393667 1.8855095 -1.7574501
H -0.27713862 2.1060941 -2.6385138
H -0.28619048 2.083176 -0.87197214
H -1.1159054 -0.07832986 -1.7742382
H 1.6410714 -0.34909114 -3.1064723
H 0.36925012 -1.5803338 -3.11013
H 0.120713785 -0.045449574 -3.9551873
H 0.51272416 -1.6502208 -0.6413291
H 1.6190999 -0.31427076 -0.42274362
H 1.0090564 -1.4519073 2.075086
H 1.4415761 0.25680426 2.05769
H -1.0888538 0.07548135 2.7909408
