title
 OpenBabel02282109583D

 19 18  0  0  0  0  0  0  0  0999 V2000
    1.1925    2.5806    0.0254 C   0  0  0  0  0  0  0  0  0  0  0  0
    1.2731    1.0982    0.4038 C   0  0  0  0  0  0  0  0  0  0  0  0
    2.0011    0.8797    1.7350 C   0  0  0  0  0  0  0  0  0  0  0  0
   -0.0656    0.5079    0.4425 N   0  0  0  0  0  0  0  0  0  0  0  0
   -0.4485   -0.5512   -0.3070 C   0  0  0  0  0  0  0  0  0  0  0  0
    0.2765   -1.1301   -1.1053 O   0  0  0  0  0  0  0  0  0  0  0  0
   -1.8950   -1.0294   -0.1222 C   0  0  0  0  0  0  0  0  0  0  0  0
   -2.1416   -2.1217   -0.9551 O   0  0  0  0  0  0  0  0  0  0  0  0
    2.1946    3.0146   -0.0409 H   0  0  0  0  0  0  0  0  0  0  0  0
    0.6952    2.7115   -0.9394 H   0  0  0  0  0  0  0  0  0  0  0  0
    0.6344    3.1501    0.7787 H   0  0  0  0  0  0  0  0  0  0  0  0
    1.7948    0.5504   -0.3848 H   0  0  0  0  0  0  0  0  0  0  0  0
    2.0702   -0.1856    1.9708 H   0  0  0  0  0  0  0  0  0  0  0  0
    3.0150    1.2891    1.6907 H   0  0  0  0  0  0  0  0  0  0  0  0
    1.4762    1.3796    2.5580 H   0  0  0  0  0  0  0  0  0  0  0  0
   -0.7382    0.9076    1.0802 H   0  0  0  0  0  0  0  0  0  0  0  0
   -2.0510   -1.2929    0.9368 H   0  0  0  0  0  0  0  0  0  0  0  0
   -2.5773   -0.1935   -0.3478 H   0  0  0  0  0  0  0  0  0  0  0  0
   -1.2993   -2.2579   -1.4234 H   0  0  0  0  0  0  0  0  0  0  0  0
  1  2  1  0  0  0  0
  1 11  1  0  0  0  0
  2  4  1  0  0  0  0
  2  3  1  0  0  0  0
  3 13  1  0  0  0  0
  3 15  1  0  0  0  0
  4 16  1  0  0  0  0
  5  7  1  0  0  0  0
  5  4  1  0  0  0  0
  6  5  2  0  0  0  0
  7 17  1  0  0  0  0
  8  7  1  0  0  0  0
  9  1  1  0  0  0  0
 10  1  1  0  0  0  0
 12  2  1  0  0  0  0
 14  3  1  0  0  0  0
 18  7  1  0  0  0  0
 19  8  1  0  0  0  0
M  END
