19
title
C 0.9908796 2.7081873 0.28677562
C 1.1372182 1.1941181 0.30698666
C 1.8075329 0.6637399 1.5696905
O -0.21209446 0.6574202 0.209911
C -0.35337952 -0.5673987 -0.32559833
O 0.55511457 -1.253367 -0.7273395
C -1.8254662 -0.9754357 -0.36393848
N -2.0889888 -2.291297 -0.9182892
H 1.9766331 3.1809487 0.32743698
H 0.4872251 3.0380077 -0.6257907
H 0.40778783 3.0537593 1.1461556
H 1.6881944 0.84684926 -0.57157356
H 1.2339491 0.94627523 2.4582763
H 1.891668 -0.42440268 1.5304363
H 2.8147283 1.0817713 1.6631907
H -2.2181742 -0.91406125 0.6577605
H -2.370286 -0.21355851 -0.9338305
H -1.6952498 -2.3381922 -1.8543177
H -1.5659385 -2.9826317 -0.3874165
