title
 OpenBabel02282109583D

 19 18  0  0  0  0  0  0  0  0999 V2000
    0.9909    2.7082    0.2868 C   0  0  0  0  0  0  0  0  0  0  0  0
    1.1372    1.1941    0.3070 C   0  0  0  0  0  0  0  0  0  0  0  0
    1.8075    0.6637    1.5697 C   0  0  0  0  0  0  0  0  0  0  0  0
   -0.2121    0.6574    0.2099 O   0  0  0  0  0  0  0  0  0  0  0  0
   -0.3534   -0.5674   -0.3256 C   0  0  0  0  0  0  0  0  0  0  0  0
    0.5551   -1.2534   -0.7273 O   0  0  0  0  0  0  0  0  0  0  0  0
   -1.8255   -0.9754   -0.3639 C   0  0  0  0  0  0  0  0  0  0  0  0
   -2.0890   -2.2913   -0.9183 N   0  0  0  0  0  0  0  0  0  0  0  0
    1.9766    3.1809    0.3274 H   0  0  0  0  0  0  0  0  0  0  0  0
    0.4872    3.0380   -0.6258 H   0  0  0  0  0  0  0  0  0  0  0  0
    0.4078    3.0538    1.1462 H   0  0  0  0  0  0  0  0  0  0  0  0
    1.6882    0.8468   -0.5716 H   0  0  0  0  0  0  0  0  0  0  0  0
    1.2339    0.9463    2.4583 H   0  0  0  0  0  0  0  0  0  0  0  0
    1.8917   -0.4244    1.5304 H   0  0  0  0  0  0  0  0  0  0  0  0
    2.8147    1.0818    1.6632 H   0  0  0  0  0  0  0  0  0  0  0  0
   -2.2182   -0.9141    0.6578 H   0  0  0  0  0  0  0  0  0  0  0  0
   -2.3703   -0.2136   -0.9338 H   0  0  0  0  0  0  0  0  0  0  0  0
   -1.6952   -2.3382   -1.8543 H   0  0  0  0  0  0  0  0  0  0  0  0
   -1.5659   -2.9826   -0.3874 H   0  0  0  0  0  0  0  0  0  0  0  0
  1  2  1  0  0  0  0
  1  9  1  0  0  0  0
  1 11  1  0  0  0  0
  2  3  1  0  0  0  0
  3 15  1  0  0  0  0
  3 13  1  0  0  0  0
  4  2  1  0  0  0  0
  5  4  1  0  0  0  0
  6  5  2  0  0  0  0
  7  5  1  0  0  0  0
  7 16  1  0  0  0  0
  8 19  1  0  0  0  0
  8  7  1  0  0  0  0
 10  1  1  0  0  0  0
 12  2  1  0  0  0  0
 14  3  1  0  0  0  0
 17  7  1  0  0  0  0
 18  8  1  0  0  0  0
M  END
