title
 OpenBabel02282109583D

 18 17  0  0  1  0  0  0  0  0999 V2000
    1.2536    2.8327    0.1103 C   0  0  0  0  0  0  0  0  0  0  0  0
    1.0032    1.3282    0.1671 C   0  0  1  0  0  0  0  0  0  0  0  0
    1.0030    0.8455    1.5071 O   0  0  0  0  0  0  0  0  0  0  0  0
   -0.2989    0.9259   -0.5635 C   0  0  0  0  0  0  0  0  0  0  0  0
   -0.4338   -0.5827   -0.6194 C   0  0  0  0  0  0  0  0  0  0  0  0
    0.2093   -1.2581   -1.3965 O   0  0  0  0  0  0  0  0  0  0  0  0
   -1.3671   -1.2617    0.3651 C   0  0  0  0  0  0  0  0  0  0  0  0
   -1.3712   -2.6467    0.2023 O   0  0  0  0  0  0  0  0  0  0  0  0
    2.1707    3.0797    0.6519 H   0  0  0  0  0  0  0  0  0  0  0  0
    1.3545    3.1803   -0.9222 H   0  0  0  0  0  0  0  0  0  0  0  0
    0.4234    3.3854    0.5687 H   0  0  0  0  0  0  0  0  0  0  0  0
    1.8312    0.8002   -0.3184 H   0  0  0  0  0  0  0  0  0  0  0  0
    0.4266    1.4158    2.0284 H   0  0  0  0  0  0  0  0  0  0  0  0
   -1.1580    1.3790   -0.0534 H   0  0  0  0  0  0  0  0  0  0  0  0
   -0.2678    1.3018   -1.5911 H   0  0  0  0  0  0  0  0  0  0  0  0
   -1.0303   -0.9627    1.3727 H   0  0  0  0  0  0  0  0  0  0  0  0
   -2.3783   -0.8401    0.2340 H   0  0  0  0  0  0  0  0  0  0  0  0
   -0.7209   -2.8160   -0.4986 H   0  0  0  0  0  0  0  0  0  0  0  0
  1  2  1  0  0  0  0
  1 11  1  0  0  0  0
  1  9  1  0  0  0  0
  2 12  1  6  0  0  0
  2  3  1  0  0  0  0
  3 13  1  0  0  0  0
  4 14  1  0  0  0  0
  4  2  1  0  0  0  0
  5  4  1  0  0  0  0
  5  7  1  0  0  0  0
  6  5  2  0  0  0  0
  7 16  1  0  0  0  0
  8  7  1  0  0  0  0
 10  1  1  0  0  0  0
 15  4  1  0  0  0  0
 17  7  1  0  0  0  0
 18  8  1  0  0  0  0
M  END
