20
title
C 2.1432934 2.6254547 -0.15581617
C 1.9527396 1.1255461 -0.3654031
C 0.5502833 0.63058996 -0.054147877
O -0.3544742 1.405129 0.19318032
C 0.3386315 -0.87672234 -0.05738651
C -1.1315743 -1.294892 -0.23810329
C -1.2910525 -2.8098981 -0.25996822
O -1.9334298 -0.7982775 0.81684667
H 3.159802 2.9262283 -0.42344356
H 1.4390483 3.195389 -0.766317
H 1.9658641 2.900631 0.8872848
H 2.167601 0.84130675 -1.4058856
H 2.660076 0.53812593 0.23586279
H 0.9776194 -1.3329471 -0.82345766
H 0.7004094 -1.254423 0.9104684
H -1.4788436 -0.88893723 -1.2043195
H -0.72949374 -3.25593 -1.0866925
H -0.93574774 -3.2438798 0.6803719
H -2.3467674 -3.0691156 -0.3747883
H -1.7976793 0.16006446 0.8142881
