21
title
C 2.0093925 2.6253662 0.034747344
C 1.873944 1.1088861 -0.10896361
C 0.4140605 0.67372805 -0.2443749
O -0.42841586 1.3796518 -0.7731154
N 0.13733593 -0.56781435 0.25200582
C -1.1736964 -1.2022903 0.15098526
C -1.1499916 -2.3602412 -0.8549248
C -1.6583222 -1.6510828 1.5335017
H 3.0595782 2.9283166 -0.00042494136
H 1.4665929 3.1242611 -0.7703736
H 1.5861857 2.9707832 0.98289436
H 2.3919957 0.77378905 -1.0175527
H 2.3534038 0.5883274 0.7285693
H 0.8897242 -1.1020446 0.65773886
H -1.8316542 -0.41566846 -0.22729696
H -0.4625543 -3.1508076 -0.5301721
H -2.1447778 -2.8057277 -0.9562415
H -0.82806766 -2.0110571 -1.8397518
H -2.6588645 -2.0895326 1.4681203
H -0.99190867 -2.4121916 1.958262
H -1.6962701 -0.806389 2.2267385
