title
 OpenBabel02282109583D

 21 20  0  0  0  0  0  0  0  0999 V2000
    2.0094    2.6254    0.0347 C   0  0  0  0  0  0  0  0  0  0  0  0
    1.8739    1.1089   -0.1090 C   0  0  0  0  0  0  0  0  0  0  0  0
    0.4141    0.6737   -0.2444 C   0  0  0  0  0  0  0  0  0  0  0  0
   -0.4284    1.3797   -0.7731 O   0  0  0  0  0  0  0  0  0  0  0  0
    0.1373   -0.5678    0.2520 N   0  0  0  0  0  0  0  0  0  0  0  0
   -1.1737   -1.2023    0.1510 C   0  0  0  0  0  0  0  0  0  0  0  0
   -1.1500   -2.3602   -0.8549 C   0  0  0  0  0  0  0  0  0  0  0  0
   -1.6583   -1.6511    1.5335 C   0  0  0  0  0  0  0  0  0  0  0  0
    3.0596    2.9283   -0.0004 H   0  0  0  0  0  0  0  0  0  0  0  0
    1.4666    3.1243   -0.7704 H   0  0  0  0  0  0  0  0  0  0  0  0
    1.5862    2.9708    0.9829 H   0  0  0  0  0  0  0  0  0  0  0  0
    2.3920    0.7738   -1.0176 H   0  0  0  0  0  0  0  0  0  0  0  0
    2.3534    0.5883    0.7286 H   0  0  0  0  0  0  0  0  0  0  0  0
    0.8897   -1.1020    0.6577 H   0  0  0  0  0  0  0  0  0  0  0  0
   -1.8317   -0.4157   -0.2273 H   0  0  0  0  0  0  0  0  0  0  0  0
   -0.4626   -3.1508   -0.5302 H   0  0  0  0  0  0  0  0  0  0  0  0
   -2.1448   -2.8057   -0.9562 H   0  0  0  0  0  0  0  0  0  0  0  0
   -0.8281   -2.0111   -1.8398 H   0  0  0  0  0  0  0  0  0  0  0  0
   -2.6589   -2.0895    1.4681 H   0  0  0  0  0  0  0  0  0  0  0  0
   -0.9919   -2.4122    1.9583 H   0  0  0  0  0  0  0  0  0  0  0  0
   -1.6963   -0.8064    2.2267 H   0  0  0  0  0  0  0  0  0  0  0  0
  1 11  1  0  0  0  0
  2  1  1  0  0  0  0
  2 13  1  0  0  0  0
  3  2  1  0  0  0  0
  3  5  1  0  0  0  0
  4  3  2  0  0  0  0
  5 14  1  0  0  0  0
  6  5  1  0  0  0  0
  6  8  1  0  0  0  0
  7 16  1  0  0  0  0
  7  6  1  0  0  0  0
  8 20  1  0  0  0  0
  8 21  1  0  0  0  0
  9  1  1  0  0  0  0
 10  1  1  0  0  0  0
 12  2  1  0  0  0  0
 15  6  1  0  0  0  0
 17  7  1  0  0  0  0
 18  7  1  0  0  0  0
 19  8  1  0  0  0  0
M  END
