20
title
C -1.1333593 2.5196025 1.7642978
C -1.0357686 1.0137097 1.5341558
C -0.26654756 0.65821165 0.27634478
O 0.2264728 1.4539853 -0.48548305
O -0.20891047 -0.6794886 0.1183548
C 0.49437112 -1.1806606 -1.0502478
C 1.9905233 -1.2418107 -0.76026905
C -0.11869771 -2.5381343 -1.3611676
H -0.14026809 2.9668558 1.8548219
H -1.6365734 3.0116389 0.92820877
H -1.6935613 2.7317123 2.6792088
H -0.54620755 0.50899106 2.3755472
H -2.027765 0.55275863 1.4584911
H 0.31117398 -0.47770697 -1.8677684
H 2.5250585 -1.6419495 -1.6275653
H 2.3802693 -0.24375395 -0.5491549
H 2.190414 -1.8924199 0.09724712
H -1.1930646 -2.4470139 -1.5421551
H 0.34715134 -2.9650197 -2.2542968
H 0.032510098 -3.2327957 -0.52889
