title
 OpenBabel02282109583D

 19 18  0  0  0  0  0  0  0  0999 V2000
    2.1234    0.7284    0.2656 C   0  0  0  0  0  0  0  0  0  0  0  0
    1.2419   -0.2457    0.8973 N   0  0  0  0  0  0  0  0  0  0  0  0
    1.8113   -0.7543    2.1373 C   0  0  0  0  0  0  0  0  0  0  0  0
   -0.1019    0.2803    1.0742 C   0  0  0  0  0  0  0  0  0  0  0  0
   -0.9087    0.3116   -0.2174 C   0  0  0  0  0  0  0  0  0  0  0  0
   -1.7331    1.1734   -0.4378 O   0  0  0  0  0  0  0  0  0  0  0  0
   -0.7248   -0.8195   -1.2192 C   0  0  0  0  0  0  0  0  0  0  0  0
   -1.6056   -0.6835   -2.2954 O   0  0  0  0  0  0  0  0  0  0  0  0
    3.0939    0.2679    0.0590 H   0  0  0  0  0  0  0  0  0  0  0  0
    1.6992    1.0632   -0.6861 H   0  0  0  0  0  0  0  0  0  0  0  0
    2.2922    1.6231    0.8934 H   0  0  0  0  0  0  0  0  0  0  0  0
    1.9450    0.0265    2.9092 H   0  0  0  0  0  0  0  0  0  0  0  0
    1.1669   -1.5359    2.5508 H   0  0  0  0  0  0  0  0  0  0  0  0
    2.7917   -1.1954    1.9336 H   0  0  0  0  0  0  0  0  0  0  0  0
   -0.6510   -0.3892    1.7502 H   0  0  0  0  0  0  0  0  0  0  0  0
   -0.1378    1.2876    1.5256 H   0  0  0  0  0  0  0  0  0  0  0  0
    0.3228   -0.8327   -1.5526 H   0  0  0  0  0  0  0  0  0  0  0  0
   -0.8763   -1.7729   -0.6853 H   0  0  0  0  0  0  0  0  0  0  0  0
   -2.1184    0.1175   -2.1006 H   0  0  0  0  0  0  0  0  0  0  0  0
  1 11  1  0  0  0  0
  1  2  1  0  0  0  0
  2  4  1  0  0  0  0
  2  3  1  0  0  0  0
  3 13  1  0  0  0  0
  3 12  1  0  0  0  0
  4 16  1  0  0  0  0
  4 15  1  0  0  0  0
  5  4  1  0  0  0  0
  6  5  2  0  0  0  0
  7 18  1  0  0  0  0
  7  5  1  0  0  0  0
  8 19  1  0  0  0  0
  8  7  1  0  0  0  0
  9  1  1  0  0  0  0
 10  1  1  0  0  0  0
 14  3  1  0  0  0  0
 17  7  1  0  0  0  0
M  END
