title
 OpenBabel02282109583D

 21 20  0  0  0  0  0  0  0  0999 V2000
    1.6464    2.7749    0.1237 C   0  0  0  0  0  0  0  0  0  0  0  0
    1.4807    1.3352    0.1500 N   0  0  0  0  0  0  0  0  0  0  0  0
    0.3729    0.7107   -0.3476 C   0  0  0  0  0  0  0  0  0  0  0  0
   -0.5686    1.3193   -0.8284 O   0  0  0  0  0  0  0  0  0  0  0  0
    0.4114   -0.8155   -0.2855 C   0  0  0  0  0  0  0  0  0  0  0  0
   -0.9710   -1.4324   -0.0170 C   0  0  0  0  0  0  0  0  0  0  0  0
   -0.9457   -2.9480   -0.2463 C   0  0  0  0  0  0  0  0  0  0  0  0
   -1.4728   -1.0903    1.3918 C   0  0  0  0  0  0  0  0  0  0  0  0
    2.5113    3.0694   -0.4819 H   0  0  0  0  0  0  0  0  0  0  0  0
    0.7423    3.1945   -0.3189 H   0  0  0  0  0  0  0  0  0  0  0  0
    1.7726    3.1809    1.1336 H   0  0  0  0  0  0  0  0  0  0  0  0
    2.2173    0.7699    0.5371 H   0  0  0  0  0  0  0  0  0  0  0  0
    0.7826   -1.1615   -1.2595 H   0  0  0  0  0  0  0  0  0  0  0  0
    1.1365   -1.1584    0.4646 H   0  0  0  0  0  0  0  0  0  0  0  0
   -1.6571   -0.9756   -0.7390 H   0  0  0  0  0  0  0  0  0  0  0  0
   -0.2524   -3.4436    0.4447 H   0  0  0  0  0  0  0  0  0  0  0  0
   -1.9370   -3.3844   -0.0860 H   0  0  0  0  0  0  0  0  0  0  0  0
   -0.6318   -3.1956   -1.2661 H   0  0  0  0  0  0  0  0  0  0  0  0
   -1.5359   -0.0080    1.5363 H   0  0  0  0  0  0  0  0  0  0  0  0
   -2.4698   -1.5085    1.5634 H   0  0  0  0  0  0  0  0  0  0  0  0
   -0.8053   -1.5018    2.1596 H   0  0  0  0  0  0  0  0  0  0  0  0
  1  2  1  0  0  0  0
  1 11  1  0  0  0  0
  2 12  1  0  0  0  0
  3  5  1  0  0  0  0
  3  2  1  0  0  0  0
  4  3  2  0  0  0  0
  5  6  1  0  0  0  0
  5 14  1  0  0  0  0
  6  8  1  0  0  0  0
  7 17  1  0  0  0  0
  7  6  1  0  0  0  0
  7 16  1  0  0  0  0
  8 19  1  0  0  0  0
  8 20  1  0  0  0  0
  8 21  1  0  0  0  0
  9  1  1  0  0  0  0
 10  1  1  0  0  0  0
 13  5  1  0  0  0  0
 15  6  1  0  0  0  0
 18  7  1  0  0  0  0
M  END
