21
title
C 1.6464483 2.7749012 0.123661324
N 1.4807389 1.33523 0.14998339
C 0.372896 0.71065056 -0.3476403
O -0.5686385 1.3193188 -0.8283626
C 0.4114006 -0.81550443 -0.28550607
C -0.97102684 -1.4324013 -0.017027615
C -0.9456901 -2.948009 -0.24631338
C -1.4727578 -1.0902783 1.3918222
H 2.5113072 3.0694447 -0.4819082
H 0.74233925 3.1944716 -0.3189378
H 1.7726419 3.1808558 1.133628
H 2.2173426 0.7698631 0.5371475
H 0.7826345 -1.1614858 -1.2594622
H 1.1364527 -1.1584464 0.46462587
H -1.6571255 -0.97564876 -0.7389577
H -0.25243947 -3.4436393 0.44467923
H -1.9370041 -3.384438 -0.0860419
H -0.6318092 -3.1956153 -1.2661461
H -1.5359161 -0.008016015 1.5362736
H -2.4698498 -1.5084566 1.5633885
H -0.80531496 -1.5017525 2.1596
