20
title
C 1.5551553 2.8280544 -0.13609074
N 1.4775656 1.3818948 -0.036534827
C 0.24595566 0.7560121 -0.10654923
O -0.81247073 1.3624554 -0.07002008
N 0.3245669 -0.6198396 -0.22330457
C -0.8833752 -1.4338393 -0.078221284
C -0.6662136 -2.782676 -0.76595294
C -1.3048415 -1.5902116 1.3893874
H 2.4232433 3.1941862 0.41979328
H 1.6257316 3.182373 -1.1736007
H 0.6459577 3.2412827 0.30077046
H 2.2689588 0.86479574 -0.38647398
H 1.1799092 -1.0531187 0.09472192
H -1.6677382 -0.8805284 -0.6014526
H 0.13585778 -3.3509119 -0.2777952
H -1.5744252 -3.3901742 -0.7149075
H -0.39634293 -2.6479833 -1.81703
H -2.233023 -2.165916 1.4684163
H -0.5335615 -2.1156442 1.9656456
H -1.4701357 -0.60817605 1.8385942
