title
 OpenBabel02282109583D

 20 19  0  0  0  0  0  0  0  0999 V2000
    1.5552    2.8281   -0.1361 C   0  0  0  0  0  0  0  0  0  0  0  0
    1.4776    1.3819   -0.0365 N   0  0  0  0  0  0  0  0  0  0  0  0
    0.2460    0.7560   -0.1065 C   0  0  0  0  0  0  0  0  0  0  0  0
   -0.8125    1.3625   -0.0700 O   0  0  0  0  0  0  0  0  0  0  0  0
    0.3246   -0.6198   -0.2233 N   0  0  0  0  0  0  0  0  0  0  0  0
   -0.8834   -1.4338   -0.0782 C   0  0  0  0  0  0  0  0  0  0  0  0
   -0.6662   -2.7827   -0.7660 C   0  0  0  0  0  0  0  0  0  0  0  0
   -1.3048   -1.5902    1.3894 C   0  0  0  0  0  0  0  0  0  0  0  0
    2.4232    3.1942    0.4198 H   0  0  0  0  0  0  0  0  0  0  0  0
    1.6257    3.1824   -1.1736 H   0  0  0  0  0  0  0  0  0  0  0  0
    0.6460    3.2413    0.3008 H   0  0  0  0  0  0  0  0  0  0  0  0
    2.2690    0.8648   -0.3865 H   0  0  0  0  0  0  0  0  0  0  0  0
    1.1799   -1.0531    0.0947 H   0  0  0  0  0  0  0  0  0  0  0  0
   -1.6677   -0.8805   -0.6015 H   0  0  0  0  0  0  0  0  0  0  0  0
    0.1359   -3.3509   -0.2778 H   0  0  0  0  0  0  0  0  0  0  0  0
   -1.5744   -3.3902   -0.7149 H   0  0  0  0  0  0  0  0  0  0  0  0
   -0.3963   -2.6480   -1.8170 H   0  0  0  0  0  0  0  0  0  0  0  0
   -2.2330   -2.1659    1.4684 H   0  0  0  0  0  0  0  0  0  0  0  0
   -0.5336   -2.1156    1.9656 H   0  0  0  0  0  0  0  0  0  0  0  0
   -1.4701   -0.6082    1.8386 H   0  0  0  0  0  0  0  0  0  0  0  0
  1  2  1  0  0  0  0
  1 11  1  0  0  0  0
  1  9  1  0  0  0  0
  3  4  2  0  0  0  0
  3  2  1  0  0  0  0
  5  3  1  0  0  0  0
  5  6  1  0  0  0  0
  5 13  1  0  0  0  0
  6  8  1  0  0  0  0
  7 16  1  0  0  0  0
  7 15  1  0  0  0  0
  7  6  1  0  0  0  0
  8 18  1  0  0  0  0
  8 20  1  0  0  0  0
  8 19  1  0  0  0  0
 10  1  1  0  0  0  0
 12  2  1  0  0  0  0
 14  6  1  0  0  0  0
 17  7  1  0  0  0  0
M  END
