title
 OpenBabel02282109583D

 20 19  0  0  0  0  0  0  0  0999 V2000
   -0.8890    2.5639   -1.6085 C   0  0  0  0  0  0  0  0  0  0  0  0
   -0.8311    1.1424   -1.4391 O   0  0  0  0  0  0  0  0  0  0  0  0
   -0.0131    0.7108   -0.4558 C   0  0  0  0  0  0  0  0  0  0  0  0
    0.6204    1.4545    0.2519 O   0  0  0  0  0  0  0  0  0  0  0  0
    0.0093   -0.8038   -0.4012 C   0  0  0  0  0  0  0  0  0  0  0  0
    0.6106   -1.3696    0.8932 C   0  0  0  0  0  0  0  0  0  0  0  0
   -0.2878   -1.0801    2.1035 C   0  0  0  0  0  0  0  0  0  0  0  0
    0.8763   -2.8729    0.7466 C   0  0  0  0  0  0  0  0  0  0  0  0
    0.0992    2.9662   -1.8462 H   0  0  0  0  0  0  0  0  0  0  0  0
   -1.5800    2.7370   -2.4337 H   0  0  0  0  0  0  0  0  0  0  0  0
   -1.2522    3.0470   -0.6979 H   0  0  0  0  0  0  0  0  0  0  0  0
   -1.0085   -1.1754   -0.5672 H   0  0  0  0  0  0  0  0  0  0  0  0
    0.5915   -1.1381   -1.2706 H   0  0  0  0  0  0  0  0  0  0  0  0
    1.5669   -0.8583    1.0545 H   0  0  0  0  0  0  0  0  0  0  0  0
   -0.4442   -0.0059    2.2312 H   0  0  0  0  0  0  0  0  0  0  0  0
   -1.2676   -1.5604    1.9887 H   0  0  0  0  0  0  0  0  0  0  0  0
    0.1624   -1.4651    3.0242 H   0  0  0  0  0  0  0  0  0  0  0  0
    1.5536   -3.0821   -0.0885 H   0  0  0  0  0  0  0  0  0  0  0  0
    1.3293   -3.2803    1.6560 H   0  0  0  0  0  0  0  0  0  0  0  0
   -0.0549   -3.4235    0.5659 H   0  0  0  0  0  0  0  0  0  0  0  0
  1  2  1  0  0  0  0
  1 11  1  0  0  0  0
  2  3  1  0  0  0  0
  3  5  1  0  0  0  0
  3  4  2  0  0  0  0
  5  6  1  0  0  0  0
  6 14  1  0  0  0  0
  6  7  1  0  0  0  0
  7 15  1  0  0  0  0
  7 17  1  0  0  0  0
  8  6  1  0  0  0  0
  8 19  1  0  0  0  0
  9  1  1  0  0  0  0
 10  1  1  0  0  0  0
 12  5  1  0  0  0  0
 13  5  1  0  0  0  0
 16  7  1  0  0  0  0
 18  8  1  0  0  0  0
 20  8  1  0  0  0  0
M  END
