18
title
C -0.65555507 2.6036007 1.7122228
O -0.5344964 1.1756696 1.6228518
C -0.23424743 0.6929915 0.40772215
O -0.048158266 1.4042894 -0.5568629
C -0.17550187 -0.8183216 0.39949647
C 0.7073546 -1.3650583 -0.7382701
C 0.76894873 -2.8868701 -0.7147103
O 0.20417334 -0.97897923 -2.00242
H 0.28731415 3.0860703 1.4440725
H -1.4394666 2.9655259 1.0426596
H -0.9112007 2.8129783 2.7505832
H 0.16167201 -1.1683322 1.3793728
H -1.2008116 -1.1860074 0.26036242
H 1.7270284 -0.9670886 -0.59481865
H 1.3868918 -3.2442472 -1.5423609
H 1.1965905 -3.2512352 0.22435907
H -0.23380081 -3.3103964 -0.8322397
H 0.13571759 -0.013729466 -1.9765366
