title
 OpenBabel02282109583D

 18 17  0  0  1  0  0  0  0  0999 V2000
   -0.6556    2.6036    1.7122 C   0  0  0  0  0  0  0  0  0  0  0  0
   -0.5345    1.1757    1.6229 O   0  0  0  0  0  0  0  0  0  0  0  0
   -0.2342    0.6930    0.4077 C   0  0  0  0  0  0  0  0  0  0  0  0
   -0.0482    1.4043   -0.5569 O   0  0  0  0  0  0  0  0  0  0  0  0
   -0.1755   -0.8183    0.3995 C   0  0  0  0  0  0  0  0  0  0  0  0
    0.7074   -1.3651   -0.7383 C   0  0  1  0  0  0  0  0  0  0  0  0
    0.7689   -2.8869   -0.7147 C   0  0  0  0  0  0  0  0  0  0  0  0
    0.2042   -0.9790   -2.0024 O   0  0  0  0  0  0  0  0  0  0  0  0
    0.2873    3.0861    1.4441 H   0  0  0  0  0  0  0  0  0  0  0  0
   -1.4395    2.9655    1.0427 H   0  0  0  0  0  0  0  0  0  0  0  0
   -0.9112    2.8130    2.7506 H   0  0  0  0  0  0  0  0  0  0  0  0
    0.1617   -1.1683    1.3794 H   0  0  0  0  0  0  0  0  0  0  0  0
   -1.2008   -1.1860    0.2604 H   0  0  0  0  0  0  0  0  0  0  0  0
    1.7270   -0.9671   -0.5948 H   0  0  0  0  0  0  0  0  0  0  0  0
    1.3869   -3.2442   -1.5424 H   0  0  0  0  0  0  0  0  0  0  0  0
    1.1966   -3.2512    0.2244 H   0  0  0  0  0  0  0  0  0  0  0  0
   -0.2338   -3.3104   -0.8322 H   0  0  0  0  0  0  0  0  0  0  0  0
    0.1357   -0.0137   -1.9765 H   0  0  0  0  0  0  0  0  0  0  0  0
  1 11  1  0  0  0  0
  2  1  1  0  0  0  0
  3  2  1  0  0  0  0
  4  3  2  0  0  0  0
  5  3  1  0  0  0  0
  5 12  1  0  0  0  0
  6  7  1  0  0  0  0
  6 14  1  1  0  0  0
  6  5  1  0  0  0  0
  7 16  1  0  0  0  0
  8 18  1  0  0  0  0
  8  6  1  0  0  0  0
  9  1  1  0  0  0  0
 10  1  1  0  0  0  0
 13  5  1  0  0  0  0
 15  7  1  0  0  0  0
 17  7  1  0  0  0  0
M  END
