title
 OpenBabel02282109583D

 19 18  0  0  0  0  0  0  0  0999 V2000
    1.7877    2.5923    0.2336 C   0  0  0  0  0  0  0  0  0  0  0  0
    1.6336    1.1751    0.0916 O   0  0  0  0  0  0  0  0  0  0  0  0
    0.3620    0.7243    0.1426 C   0  0  0  0  0  0  0  0  0  0  0  0
   -0.5936    1.4388    0.2970 O   0  0  0  0  0  0  0  0  0  0  0  0
    0.3613   -0.7890   -0.0284 C   0  0  0  0  0  0  0  0  0  0  0  0
   -0.9500   -1.3889    0.0785 N   0  0  0  0  0  0  0  0  0  0  0  0
   -1.8162   -1.0651   -1.0476 C   0  0  0  0  0  0  0  0  0  0  0  0
   -0.8625   -2.8247    0.2897 C   0  0  0  0  0  0  0  0  0  0  0  0
    2.8591    2.7827    0.1698 H   0  0  0  0  0  0  0  0  0  0  0  0
    1.2574    3.1202   -0.5632 H   0  0  0  0  0  0  0  0  0  0  0  0
    1.3959    2.9288    1.1969 H   0  0  0  0  0  0  0  0  0  0  0  0
    0.8766   -1.0116   -0.9854 H   0  0  0  0  0  0  0  0  0  0  0  0
    1.0096   -1.1945    0.7564 H   0  0  0  0  0  0  0  0  0  0  0  0
   -1.4318   -1.4593   -2.0091 H   0  0  0  0  0  0  0  0  0  0  0  0
   -2.8059   -1.4998   -0.8784 H   0  0  0  0  0  0  0  0  0  0  0  0
   -1.9280    0.0166   -1.1274 H   0  0  0  0  0  0  0  0  0  0  0  0
   -0.2708   -3.0376    1.1859 H   0  0  0  0  0  0  0  0  0  0  0  0
   -1.8668   -3.2315    0.4422 H   0  0  0  0  0  0  0  0  0  0  0  0
   -0.4039   -3.3681   -0.5597 H   0  0  0  0  0  0  0  0  0  0  0  0
  1 11  1  0  0  0  0
  2  3  1  0  0  0  0
  2  1  1  0  0  0  0
  3  4  2  0  0  0  0
  5  6  1  0  0  0  0
  5  3  1  0  0  0  0
  5 13  1  0  0  0  0
  6  8  1  0  0  0  0
  7 15  1  0  0  0  0
  7  6  1  0  0  0  0
  8 18  1  0  0  0  0
  8 17  1  0  0  0  0
  9  1  1  0  0  0  0
 10  1  1  0  0  0  0
 12  5  1  0  0  0  0
 14  7  1  0  0  0  0
 16  7  1  0  0  0  0
 19  8  1  0  0  0  0
M  END
