19
title
C 1.7877032 2.5923388 0.23359872
O 1.633644 1.1750957 0.09162908
C 0.3620287 0.72427094 0.14260684
O -0.593561 1.4387536 0.29702535
C 0.36131677 -0.7890452 -0.028397169
N -0.9500399 -1.3889326 0.07845873
C -1.8162124 -1.065122 -1.0475901
C -0.86251503 -2.8247306 0.28965196
H 2.8591096 2.782718 0.16977534
H 1.2573617 3.1201627 -0.5632115
H 1.3959475 2.9288018 1.1968596
H 0.87658197 -1.0115551 -0.9853585
H 1.0096029 -1.1945132 0.7563786
H -1.4317994 -1.4593168 -2.0090654
H -2.8059003 -1.4997798 -0.87841797
H -1.9279964 0.016632192 -1.127385
H -0.27083865 -3.037615 1.1859009
H -1.8668284 -3.2315295 0.44220847
H -0.40386084 -3.368129 -0.5596935
