19
title
C -0.8098262 2.6240778 -1.4758122
O -0.7418575 1.2014878 -1.3698771
C -0.032728683 0.7484319 -0.30108804
O 0.500626 1.4658724 0.5177743
N -0.0008781054 -0.6108069 -0.3074494
C 0.55694956 -1.3746315 0.804854
C -0.4586084 -1.5485307 1.9425579
C 1.0829798 -2.7139955 0.28634614
H 0.18793742 3.0561223 -1.5903449
H -1.4127856 2.826074 -2.3619711
H -1.2789091 3.0606475 -0.59006137
H -0.5874351 -1.0803422 -0.979171
H 1.3930172 -0.776655 1.1791495
H -0.8019084 -0.57248014 2.2947893
H -1.3290107 -2.1238925 1.6066455
H -0.00709332 -2.078966 2.7872949
H 1.828679 -2.5656676 -0.49956506
H 1.5429081 -3.2843752 1.0981115
H 0.2690093 -3.3243914 -0.12432521
