title
 OpenBabel02282109583D

 21 20  0  0  0  0  0  0  0  0999 V2000
   -0.9610    1.6493    1.8580 C   0  0  0  0  0  0  0  0  0  0  0  0
   -1.0165    0.2255    1.8234 O   0  0  0  0  0  0  0  0  0  0  0  0
   -0.4426   -0.3712    0.7500 C   0  0  0  0  0  0  0  0  0  0  0  0
   -0.5829   -1.8742    0.8580 C   0  0  0  0  0  0  0  0  0  0  0  0
    0.1046    0.3238   -0.1551 N   0  0  0  0  0  0  0  0  0  0  0  0
    0.7259   -0.2979   -1.3150 C   0  0  0  0  0  0  0  0  0  0  0  0
    0.0107    0.1937   -2.5806 C   0  0  0  0  0  0  0  0  0  0  0  0
    2.2138    0.0769   -1.3379 C   0  0  0  0  0  0  0  0  0  0  0  0
    0.0749    2.0006    1.8591 H   0  0  0  0  0  0  0  0  0  0  0  0
   -1.4653    2.0817    0.9890 H   0  0  0  0  0  0  0  0  0  0  0  0
   -1.4663    1.9421    2.7799 H   0  0  0  0  0  0  0  0  0  0  0  0
   -1.1134   -2.1303    1.7750 H   0  0  0  0  0  0  0  0  0  0  0  0
   -1.1373   -2.2764    0.0053 H   0  0  0  0  0  0  0  0  0  0  0  0
    0.3981   -2.3575    0.8709 H   0  0  0  0  0  0  0  0  0  0  0  0
    0.6532   -1.3967   -1.2894 H   0  0  0  0  0  0  0  0  0  0  0  0
    0.0632    1.2852   -2.6441 H   0  0  0  0  0  0  0  0  0  0  0  0
    0.4715   -0.2311   -3.4785 H   0  0  0  0  0  0  0  0  0  0  0  0
   -1.0456   -0.0920   -2.5679 H   0  0  0  0  0  0  0  0  0  0  0  0
    2.7230   -0.2918   -0.4422 H   0  0  0  0  0  0  0  0  0  0  0  0
    2.7097   -0.3499   -2.2160 H   0  0  0  0  0  0  0  0  0  0  0  0
    2.3287    1.1650   -1.3663 H   0  0  0  0  0  0  0  0  0  0  0  0
  1  9  1  0  0  0  0
  1 11  1  0  0  0  0
  2  1  1  0  0  0  0
  3  4  1  0  0  0  0
  3  2  1  0  0  0  0
  4 14  1  0  0  0  0
  4 12  1  0  0  0  0
  5  3  2  0  0  0  0
  6 15  1  0  0  0  0
  6  5  1  0  0  0  0
  7 18  1  0  0  0  0
  7  6  1  0  0  0  0
  8  6  1  0  0  0  0
  8 19  1  0  0  0  0
 10  1  1  0  0  0  0
 13  4  1  0  0  0  0
 16  7  1  0  0  0  0
 17  7  1  0  0  0  0
 20  8  1  0  0  0  0
 21  8  1  0  0  0  0
M  END
