21
title
C -0.96100795 1.6493411 1.8580035
O -1.0164641 0.22546679 1.8233919
C -0.44260752 -0.37116528 0.7500316
C -0.5829301 -1.874184 0.85801804
N 0.104607925 0.32381484 -0.15508999
C 0.7258848 -0.29786718 -1.3149785
C 0.010706889 0.19369571 -2.580601
C 2.2138414 0.07686196 -1.3379353
H 0.07493292 2.0006015 1.8591247
H -1.4653417 2.0817432 0.98897785
H -1.4663093 1.9421121 2.7798553
H -1.1134309 -2.1303184 1.7749801
H -1.1372907 -2.2763593 0.005312068
H 0.39807487 -2.3575342 0.87089384
H 0.6532129 -1.3966898 -1.2894248
H 0.06318043 1.2851664 -2.6440618
H 0.47149312 -0.2310813 -3.4785097
H -1.0455763 -0.09201786 -2.567932
H 2.7230015 -0.29180086 -0.44218722
H 2.7096741 -0.34987664 -2.2160246
H 2.3287346 1.1650175 -1.3663195
