20
title
C 0.06947316 1.575598 -0.8743734
C -0.034499347 0.04890898 -0.76537687
C 0.62773985 -0.6412896 -1.9582083
O -0.031349797 -0.21980897 -3.1424065
C 0.5654226 -0.47253194 0.545021
C -0.25876266 -0.1537521 1.7894734
C 0.42917383 -0.39714858 3.1220002
O -1.3953754 0.25475985 1.7255446
H 1.1167798 1.9006833 -0.8222645
H -0.33944443 1.9158202 -1.8278826
H -0.48183122 2.0616083 -0.06600754
H -1.0960532 -0.2233647 -0.7764971
H 1.7006285 -0.3837916 -1.9880445
H 0.5575854 -1.7351205 -1.8370755
H 0.43219125 -0.5945239 -3.896475
H 0.6629845 -1.5692854 0.5194132
H 1.5883567 -0.09881123 0.6923763
H 0.9009042 -1.3852626 3.1478958
H 1.2290853 0.3398289 3.2615094
H -0.2908047 -0.30332968 3.9358046
