title
 OpenBabel02282109583D

 20 19  0  0  1  0  0  0  0  0999 V2000
    0.0695    1.5756   -0.8744 C   0  0  0  0  0  0  0  0  0  0  0  0
   -0.0345    0.0489   -0.7654 C   0  0  1  0  0  0  0  0  0  0  0  0
    0.6277   -0.6413   -1.9582 C   0  0  0  0  0  0  0  0  0  0  0  0
   -0.0313   -0.2198   -3.1424 O   0  0  0  0  0  0  0  0  0  0  0  0
    0.5654   -0.4725    0.5450 C   0  0  0  0  0  0  0  0  0  0  0  0
   -0.2588   -0.1538    1.7895 C   0  0  0  0  0  0  0  0  0  0  0  0
    0.4292   -0.3971    3.1220 C   0  0  0  0  0  0  0  0  0  0  0  0
   -1.3954    0.2548    1.7255 O   0  0  0  0  0  0  0  0  0  0  0  0
    1.1168    1.9007   -0.8223 H   0  0  0  0  0  0  0  0  0  0  0  0
   -0.3394    1.9158   -1.8279 H   0  0  0  0  0  0  0  0  0  0  0  0
   -0.4818    2.0616   -0.0660 H   0  0  0  0  0  0  0  0  0  0  0  0
   -1.0961   -0.2234   -0.7765 H   0  0  0  0  0  0  0  0  0  0  0  0
    1.7006   -0.3838   -1.9880 H   0  0  0  0  0  0  0  0  0  0  0  0
    0.5576   -1.7351   -1.8371 H   0  0  0  0  0  0  0  0  0  0  0  0
    0.4322   -0.5945   -3.8965 H   0  0  0  0  0  0  0  0  0  0  0  0
    0.6630   -1.5693    0.5194 H   0  0  0  0  0  0  0  0  0  0  0  0
    1.5884   -0.0988    0.6924 H   0  0  0  0  0  0  0  0  0  0  0  0
    0.9009   -1.3853    3.1479 H   0  0  0  0  0  0  0  0  0  0  0  0
    1.2291    0.3398    3.2615 H   0  0  0  0  0  0  0  0  0  0  0  0
   -0.2908   -0.3033    3.9358 H   0  0  0  0  0  0  0  0  0  0  0  0
  1  9  1  0  0  0  0
  1  2  1  0  0  0  0
  1 11  1  0  0  0  0
  2 12  1  6  0  0  0
  2  5  1  0  0  0  0
  3 14  1  0  0  0  0
  3  2  1  0  0  0  0
  4  3  1  0  0  0  0
  5 17  1  0  0  0  0
  5  6  1  0  0  0  0
  6  7  1  0  0  0  0
  7 18  1  0  0  0  0
  7 19  1  0  0  0  0
  7 20  1  0  0  0  0
  8  6  2  0  0  0  0
 10  1  1  0  0  0  0
 13  3  1  0  0  0  0
 15  4  1  0  0  0  0
 16  5  1  0  0  0  0
M  END
