title
 OpenBabel02282109583D

 19 18  0  0  1  0  0  0  0  0999 V2000
    0.9948    1.8484    0.0595 C   0  0  0  0  0  0  0  0  0  0  0  0
    0.9419    0.3145    0.0836 C   0  0  1  0  0  0  0  0  0  0  0  0
    1.6300   -0.2733    1.3138 C   0  0  0  0  0  0  0  0  0  0  0  0
    0.8685    0.1115    2.4557 O   0  0  0  0  0  0  0  0  0  0  0  0
   -0.4271   -0.1809    0.0414 N   0  0  0  0  0  0  0  0  0  0  0  0
   -1.0632   -0.4886   -1.1234 C   0  0  0  0  0  0  0  0  0  0  0  0
   -2.5124   -0.9292   -0.9739 C   0  0  0  0  0  0  0  0  0  0  0  0
   -0.5183   -0.4157   -2.2123 O   0  0  0  0  0  0  0  0  0  0  0  0
    2.0323    2.1982    0.0302 H   0  0  0  0  0  0  0  0  0  0  0  0
    0.4820    2.2235   -0.8293 H   0  0  0  0  0  0  0  0  0  0  0  0
    0.5173    2.2668    0.9496 H   0  0  0  0  0  0  0  0  0  0  0  0
    1.4357   -0.0730   -0.8120 H   0  0  0  0  0  0  0  0  0  0  0  0
    1.6713   -1.3682    1.2214 H   0  0  0  0  0  0  0  0  0  0  0  0
    2.6603    0.1070    1.3755 H   0  0  0  0  0  0  0  0  0  0  0  0
    1.2417   -0.3157    3.2316 H   0  0  0  0  0  0  0  0  0  0  0  0
   -0.9197   -0.2095    0.9195 H   0  0  0  0  0  0  0  0  0  0  0  0
   -2.8165   -1.0945    0.0631 H   0  0  0  0  0  0  0  0  0  0  0  0
   -3.1607   -0.1651   -1.4133 H   0  0  0  0  0  0  0  0  0  0  0  0
   -2.6596   -1.8489   -1.5446 H   0  0  0  0  0  0  0  0  0  0  0  0
  1  2  1  0  0  0  0
  1 11  1  0  0  0  0
  2 12  1  6  0  0  0
  2  3  1  0  0  0  0
  3 14  1  0  0  0  0
  3  4  1  0  0  0  0
  4 15  1  0  0  0  0
  5  2  1  0  0  0  0
  5 16  1  0  0  0  0
  6  7  1  0  0  0  0
  6  5  1  0  0  0  0
  7 17  1  0  0  0  0
  8  6  2  0  0  0  0
  9  1  1  0  0  0  0
 10  1  1  0  0  0  0
 13  3  1  0  0  0  0
 18  7  1  0  0  0  0
 19  7  1  0  0  0  0
M  END
