title
 OpenBabel02282109583D

 18 17  0  0  1  0  0  0  0  0999 V2000
   -0.5202    1.7333    0.8526 C   0  0  0  0  0  0  0  0  0  0  0  0
   -0.5598    0.1993    0.8025 C   0  0  1  0  0  0  0  0  0  0  0  0
   -1.9849   -0.3472    0.7935 C   0  0  0  0  0  0  0  0  0  0  0  0
   -2.5927    0.0576   -0.4310 O   0  0  0  0  0  0  0  0  0  0  0  0
    0.1331   -0.3412   -0.3618 N   0  0  0  0  0  0  0  0  0  0  0  0
    1.5054   -0.3866   -0.3972 C   0  0  0  0  0  0  0  0  0  0  0  0
    2.0291   -0.7197   -1.6444 N   0  0  0  0  0  0  0  0  0  0  0  0
    2.2122   -0.1443    0.5658 O   0  0  0  0  0  0  0  0  0  0  0  0
    0.5175    2.0732    0.8482 H   0  0  0  0  0  0  0  0  0  0  0  0
   -1.0446    2.1627   -0.0054 H   0  0  0  0  0  0  0  0  0  0  0  0
   -0.9993    2.1018    1.7662 H   0  0  0  0  0  0  0  0  0  0  0  0
   -0.0454   -0.1952    1.6835 H   0  0  0  0  0  0  0  0  0  0  0  0
   -1.9562   -1.4435    0.8721 H   0  0  0  0  0  0  0  0  0  0  0  0
   -2.5343    0.0487    1.6602 H   0  0  0  0  0  0  0  0  0  0  0  0
   -3.4664   -0.3389   -0.4849 H   0  0  0  0  0  0  0  0  0  0  0  0
   -0.3766   -0.2643   -1.2292 H   0  0  0  0  0  0  0  0  0  0  0  0
    1.4780   -1.3304   -2.2292 H   0  0  0  0  0  0  0  0  0  0  0  0
    3.0021   -0.9808   -1.5885 H   0  0  0  0  0  0  0  0  0  0  0  0
  1 11  1  0  0  0  0
  2  1  1  0  0  0  0
  2 12  1  1  0  0  0
  3  2  1  0  0  0  0
  3 13  1  0  0  0  0
  3 14  1  0  0  0  0
  4  3  1  0  0  0  0
  5  2  1  0  0  0  0
  6  5  1  0  0  0  0
  6  8  2  0  0  0  0
  7 18  1  0  0  0  0
  7  6  1  0  0  0  0
  9  1  1  0  0  0  0
 10  1  1  0  0  0  0
 15  4  1  0  0  0  0
 16  5  1  0  0  0  0
 17  7  1  0  0  0  0
M  END
