18
title
C -0.52019715 1.7333199 0.852649
C -0.55975676 0.19930512 0.8025287
C -1.9848708 -0.3472253 0.79347014
O -2.5927095 0.057587784 -0.43098155
N 0.13310806 -0.34119016 -0.3617876
C 1.5054265 -0.3865934 -0.39721397
N 2.0291464 -0.71971107 -1.6443652
O 2.2121766 -0.14426248 0.5658157
H 0.517545 2.0731964 0.84817386
H -1.0446442 2.1627176 -0.005401642
H -0.99929744 2.101784 1.7661754
H -0.045394737 -0.19523586 1.683462
H -1.9561789 -1.4435008 0.87211543
H -2.5343177 0.048678968 1.660217
H -3.4664207 -0.3388561 -0.4849495
H -0.37661377 -0.26426834 -1.2291867
H 1.4779564 -1.3304452 -2.229202
H 3.0021417 -0.9808488 -1.5885476
