title
 OpenBabel02282109583D

 17 16  0  0  1  0  0  0  0  0999 V2000
   -0.4696    1.7792    0.7826 C   0  0  0  0  0  0  0  0  0  0  0  0
   -0.5296    0.2571    0.7734 C   0  0  1  0  0  0  0  0  0  0  0  0
   -1.9480   -0.3023    0.7020 C   0  0  0  0  0  0  0  0  0  0  0  0
   -2.6475    0.1289   -0.4510 O   0  0  0  0  0  0  0  0  0  0  0  0
    0.1308   -0.2558   -0.4142 O   0  0  0  0  0  0  0  0  0  0  0  0
    1.4739   -0.4352   -0.3272 C   0  0  0  0  0  0  0  0  0  0  0  0
    1.9515   -0.9446   -1.5019 N   0  0  0  0  0  0  0  0  0  0  0  0
    2.1410   -0.2107    0.6552 O   0  0  0  0  0  0  0  0  0  0  0  0
    0.5690    2.1165    0.7743 H   0  0  0  0  0  0  0  0  0  0  0  0
   -0.9977    2.1863   -0.0830 H   0  0  0  0  0  0  0  0  0  0  0  0
   -0.9477    2.1645    1.6888 H   0  0  0  0  0  0  0  0  0  0  0  0
   -0.0124   -0.1492    1.6470 H   0  0  0  0  0  0  0  0  0  0  0  0
   -1.9019   -1.4007    0.7555 H   0  0  0  0  0  0  0  0  0  0  0  0
   -2.5186    0.0521    1.5665 H   0  0  0  0  0  0  0  0  0  0  0  0
   -2.1176   -0.1448   -1.2077 H   0  0  0  0  0  0  0  0  0  0  0  0
    1.3792   -0.8894   -2.3269 H   0  0  0  0  0  0  0  0  0  0  0  0
    2.9500   -0.9278   -1.6180 H   0  0  0  0  0  0  0  0  0  0  0  0
  1 11  1  0  0  0  0
  2  1  1  0  0  0  0
  2 12  1  1  0  0  0
  3 13  1  0  0  0  0
  3  2  1  0  0  0  0
  3 14  1  0  0  0  0
  4  3  1  0  0  0  0
  5  6  1  0  0  0  0
  5  2  1  0  0  0  0
  6  8  2  0  0  0  0
  7  6  1  0  0  0  0
  9  1  1  0  0  0  0
 10  1  1  0  0  0  0
 15  4  1  0  0  0  0
 16  7  1  0  0  0  0
 17  7  1  0  0  0  0
M  END
