22
title
C 1.960642 2.7469285 0.06611875
C 1.8250108 1.220985 0.06786958
C 0.38133496 0.7040273 -0.07387523
C -0.2605763 1.1092627 -1.4092499
C 0.34092838 -0.8196803 0.10774387
C -1.0454166 -1.4008679 0.36662987
C -1.1586449 -2.9142356 0.2886237
O -1.9999716 -0.70628864 0.63346267
H 2.9979846 3.0460095 0.24649836
H 1.6554717 3.1852531 -0.88869834
H 1.3433402 3.1981697 0.8511036
H 2.4416814 0.7977884 -0.73788786
H 2.2449346 0.8311429 1.0046035
H -0.22191887 1.138516 0.7332584
H 0.31617016 0.7154361 -2.255977
H -1.2813349 0.72606736 -1.4804347
H -0.31023723 2.1959238 -1.519242
H 0.78598064 -1.3340001 -0.7558862
H 0.96130574 -1.120733 0.96592754
H -0.36790282 -3.399229 0.8709176
H -2.1380622 -3.2338018 0.6466849
H -1.0308495 -3.2388415 -0.750955
