title
 OpenBabel02282109583D

 21 20  0  0  1  0  0  0  0  0999 V2000
   -1.0065    2.7305   -1.7143 C   0  0  0  0  0  0  0  0  0  0  0  0
   -0.8312    1.2098   -1.6508 C   0  0  0  0  0  0  0  0  0  0  0  0
   -0.2732    0.6836   -0.3162 C   0  0  1  0  0  0  0  0  0  0  0  0
   -1.2048    0.9697    0.8700 C   0  0  0  0  0  0  0  0  0  0  0  0
    0.0288   -0.8193   -0.4219 C   0  0  0  0  0  0  0  0  0  0  0  0
    0.8798   -1.3441    0.7346 C   0  0  0  0  0  0  0  0  0  0  0  0
    0.7183   -2.6729    1.0094 N   0  0  0  0  0  0  0  0  0  0  0  0
    1.6568   -0.6463    1.3583 O   0  0  0  0  0  0  0  0  0  0  0  0
   -0.0648    3.2449   -1.4917 H   0  0  0  0  0  0  0  0  0  0  0  0
   -1.3287    3.0444   -2.7122 H   0  0  0  0  0  0  0  0  0  0  0  0
   -1.7560    3.0873   -1.0016 H   0  0  0  0  0  0  0  0  0  0  0  0
   -1.7942    0.7218   -1.8593 H   0  0  0  0  0  0  0  0  0  0  0  0
   -0.1549    0.8991   -2.4581 H   0  0  0  0  0  0  0  0  0  0  0  0
    0.6847    1.1799   -0.1186 H   0  0  0  0  0  0  0  0  0  0  0  0
   -0.7730    0.5910    1.8001 H   0  0  0  0  0  0  0  0  0  0  0  0
   -1.3725    2.0422    1.0000 H   0  0  0  0  0  0  0  0  0  0  0  0
   -2.1836    0.4946    0.7254 H   0  0  0  0  0  0  0  0  0  0  0  0
   -0.9018   -1.3968   -0.5006 H   0  0  0  0  0  0  0  0  0  0  0  0
    0.5936   -1.0198   -1.3430 H   0  0  0  0  0  0  0  0  0  0  0  0
    0.1309   -3.2681    0.4529 H   0  0  0  0  0  0  0  0  0  0  0  0
    1.3251   -3.0940    1.6938 H   0  0  0  0  0  0  0  0  0  0  0  0
  1  2  1  0  0  0  0
  1  9  1  0  0  0  0
  1 11  1  0  0  0  0
  2  3  1  0  0  0  0
  3 14  1  1  0  0  0
  3  4  1  0  0  0  0
  4 16  1  0  0  0  0
  4 15  1  0  0  0  0
  5  3  1  0  0  0  0
  5  6  1  0  0  0  0
  6  7  1  0  0  0  0
  6  8  2  0  0  0  0
  7 21  1  0  0  0  0
 10  1  1  0  0  0  0
 12  2  1  0  0  0  0
 13  2  1  0  0  0  0
 17  4  1  0  0  0  0
 18  5  1  0  0  0  0
 19  5  1  0  0  0  0
 20  7  1  0  0  0  0
M  END
