title
 OpenBabel02282109583D

 20 19  0  0  1  0  0  0  0  0999 V2000
   -1.7213    1.6731   -1.4714 C   0  0  0  0  0  0  0  0  0  0  0  0
   -1.6359    0.1452   -1.4709 C   0  0  0  0  0  0  0  0  0  0  0  0
   -0.8842   -0.4392   -0.2664 C   0  0  1  0  0  0  0  0  0  0  0  0
   -0.9785   -1.9697   -0.2121 C   0  0  0  0  0  0  0  0  0  0  0  0
    0.5065    0.0164   -0.2777 N   0  0  0  0  0  0  0  0  0  0  0  0
    1.2146    0.1288    0.9000 C   0  0  0  0  0  0  0  0  0  0  0  0
    2.5782    0.3501    0.7152 N   0  0  0  0  0  0  0  0  0  0  0  0
    0.7116    0.0302    2.0042 O   0  0  0  0  0  0  0  0  0  0  0  0
   -0.7246    2.1232   -1.4577 H   0  0  0  0  0  0  0  0  0  0  0  0
   -2.2486    2.0385   -2.3578 H   0  0  0  0  0  0  0  0  0  0  0  0
   -2.2587    2.0362   -0.5887 H   0  0  0  0  0  0  0  0  0  0  0  0
   -2.6450   -0.2832   -1.4803 H   0  0  0  0  0  0  0  0  0  0  0  0
   -1.1548   -0.2042   -2.3964 H   0  0  0  0  0  0  0  0  0  0  0  0
   -1.3090   -0.0343    0.6568 H   0  0  0  0  0  0  0  0  0  0  0  0
   -2.0226   -2.2943   -0.1537 H   0  0  0  0  0  0  0  0  0  0  0  0
   -0.5357   -2.4239   -1.1069 H   0  0  0  0  0  0  0  0  0  0  0  0
   -0.4517   -2.3493    0.6669 H   0  0  0  0  0  0  0  0  0  0  0  0
    1.0385   -0.2158   -1.1044 H   0  0  0  0  0  0  0  0  0  0  0  0
    2.8511    0.8857   -0.0960 H   0  0  0  0  0  0  0  0  0  0  0  0
    3.0284    0.6521    1.5664 H   0  0  0  0  0  0  0  0  0  0  0  0
  1  2  1  0  0  0  0
  1  9  1  0  0  0  0
  1 11  1  0  0  0  0
  2  3  1  0  0  0  0
  3  4  1  0  0  0  0
  3 14  1  1  0  0  0
  4 15  1  0  0  0  0
  4 17  1  0  0  0  0
  5  3  1  0  0  0  0
  5  6  1  0  0  0  0
  6  8  2  0  0  0  0
  7  6  1  0  0  0  0
  7 20  1  0  0  0  0
 10  1  1  0  0  0  0
 12  2  1  0  0  0  0
 13  2  1  0  0  0  0
 16  4  1  0  0  0  0
 18  5  1  0  0  0  0
 19  7  1  0  0  0  0
M  END
