title
 OpenBabel02282109583D

 20 19  0  0  1  0  0  0  0  0999 V2000
    2.1913    1.5894   -0.4461 C   0  0  0  0  0  0  0  0  0  0  0  0
    2.0762    0.0656   -0.5306 C   0  0  0  0  0  0  0  0  0  0  0  0
    0.6395   -0.4356   -0.6509 C   0  0  1  0  0  0  0  0  0  0  0  0
    0.5365   -1.9487   -0.8086 C   0  0  0  0  0  0  0  0  0  0  0  0
   -0.0418   -0.0290    0.5673 O   0  0  0  0  0  0  0  0  0  0  0  0
   -1.3765    0.1544    0.4976 C   0  0  0  0  0  0  0  0  0  0  0  0
   -1.9222    0.5836    1.8398 C   0  0  0  0  0  0  0  0  0  0  0  0
   -2.0321   -0.0016   -0.5025 O   0  0  0  0  0  0  0  0  0  0  0  0
    3.2367    1.9001   -0.3606 H   0  0  0  0  0  0  0  0  0  0  0  0
    1.7726    2.0679   -1.3384 H   0  0  0  0  0  0  0  0  0  0  0  0
    1.6520    1.9727    0.4242 H   0  0  0  0  0  0  0  0  0  0  0  0
    2.6300   -0.3043   -1.4018 H   0  0  0  0  0  0  0  0  0  0  0  0
    2.5362   -0.3972    0.3514 H   0  0  0  0  0  0  0  0  0  0  0  0
    0.1320    0.0552   -1.4874 H   0  0  0  0  0  0  0  0  0  0  0  0
    1.0594   -2.2689   -1.7152 H   0  0  0  0  0  0  0  0  0  0  0  0
    0.9890   -2.4585    0.0481 H   0  0  0  0  0  0  0  0  0  0  0  0
   -0.5088   -2.2536   -0.8920 H   0  0  0  0  0  0  0  0  0  0  0  0
   -3.0023    0.7065    1.7700 H   0  0  0  0  0  0  0  0  0  0  0  0
   -1.6780   -0.1628    2.6008 H   0  0  0  0  0  0  0  0  0  0  0  0
   -1.4592    1.5251    2.1489 H   0  0  0  0  0  0  0  0  0  0  0  0
  1  9  1  0  0  0  0
  1 11  1  0  0  0  0
  2  1  1  0  0  0  0
  2 13  1  0  0  0  0
  3 14  1  6  0  0  0
  3  2  1  0  0  0  0
  3  5  1  0  0  0  0
  4  3  1  0  0  0  0
  4 16  1  0  0  0  0
  6  5  1  0  0  0  0
  6  7  1  0  0  0  0
  7 20  1  0  0  0  0
  7 19  1  0  0  0  0
  8  6  2  0  0  0  0
 10  1  1  0  0  0  0
 12  2  1  0  0  0  0
 15  4  1  0  0  0  0
 17  4  1  0  0  0  0
 18  7  1  0  0  0  0
M  END
