20
title
C 2.1913075 1.5893883 -0.44614524
C 2.0762358 0.06557533 -0.53056735
C 0.6394568 -0.43560135 -0.6509048
C 0.5365171 -1.948686 -0.8085759
O -0.04180282 -0.029045744 0.56733197
C -1.3764518 0.1544247 0.49762598
C -1.922191 0.58361137 1.8397502
O -2.0321198 -0.0015771737 -0.50246936
H 3.2367344 1.9000577 -0.36055896
H 1.7726231 2.0679226 -1.3384058
H 1.6520054 1.9727335 0.42419782
H 2.6300437 -0.3042905 -1.4017966
H 2.5362139 -0.39719766 0.35144207
H 0.13196498 0.05515456 -1.4874068
H 1.0594357 -2.2688944 -1.7151821
H 0.9890184 -2.4584777 0.04807434
H -0.5088369 -2.253616 -0.89198166
H -3.0022607 0.7065151 1.7699691
H -1.6780268 -0.16281582 2.6007624
H -1.4591902 1.5251431 2.148858
