title
 OpenBabel02282109583D

 19 18  0  0  1  0  0  0  0  0999 V2000
    2.1109    1.6882   -0.5549 C   0  0  0  0  0  0  0  0  0  0  0  0
    2.0707    0.1583   -0.5692 C   0  0  0  0  0  0  0  0  0  0  0  0
    0.6587   -0.4184   -0.6361 C   0  0  1  0  0  0  0  0  0  0  0  0
    0.6299   -1.9399   -0.7322 C   0  0  0  0  0  0  0  0  0  0  0  0
   -0.0147    0.0042    0.5767 O   0  0  0  0  0  0  0  0  0  0  0  0
   -1.3644    0.1014    0.5139 C   0  0  0  0  0  0  0  0  0  0  0  0
   -1.8606    0.4417    1.7428 N   0  0  0  0  0  0  0  0  0  0  0  0
   -2.0367   -0.1078   -0.4700 O   0  0  0  0  0  0  0  0  0  0  0  0
    3.1406    2.0541   -0.5033 H   0  0  0  0  0  0  0  0  0  0  0  0
    1.6532    2.1043   -1.4592 H   0  0  0  0  0  0  0  0  0  0  0  0
    1.5671    2.0839    0.3072 H   0  0  0  0  0  0  0  0  0  0  0  0
    2.6254   -0.2227   -1.4349 H   0  0  0  0  0  0  0  0  0  0  0  0
    2.5707   -0.2411    0.3221 H   0  0  0  0  0  0  0  0  0  0  0  0
    0.1107    0.0114   -1.4805 H   0  0  0  0  0  0  0  0  0  0  0  0
   -0.4013   -2.2968   -0.7753 H   0  0  0  0  0  0  0  0  0  0  0  0
    1.1452   -2.2705   -1.6395 H   0  0  0  0  0  0  0  0  0  0  0  0
    1.1278   -2.3921    0.1317 H   0  0  0  0  0  0  0  0  0  0  0  0
   -1.2298    0.8138    2.4322 H   0  0  0  0  0  0  0  0  0  0  0  0
   -2.8172    0.7507    1.7622 H   0  0  0  0  0  0  0  0  0  0  0  0
  1  9  1  0  0  0  0
  1 11  1  0  0  0  0
  2  1  1  0  0  0  0
  2 13  1  0  0  0  0
  3 14  1  6  0  0  0
  3  2  1  0  0  0  0
  3  5  1  0  0  0  0
  4  3  1  0  0  0  0
  4 17  1  0  0  0  0
  6  5  1  0  0  0  0
  6  7  1  0  0  0  0
  7 19  1  0  0  0  0
  7 18  1  0  0  0  0
  8  6  2  0  0  0  0
 10  1  1  0  0  0  0
 12  2  1  0  0  0  0
 15  4  1  0  0  0  0
 16  4  1  0  0  0  0
M  END
