title
 OpenBabel02282109583D

 20 19  0  0  1  0  0  0  0  0999 V2000
   -0.4599    2.7589    1.7536 C   0  0  0  0  0  0  0  0  0  0  0  0
   -0.8951    1.3101    1.5197 C   0  0  0  0  0  0  0  0  0  0  0  0
   -0.1434    0.6349    0.3670 C   0  0  1  0  0  0  0  0  0  0  0  0
    1.2690    0.6536    0.5775 O   0  0  0  0  0  0  0  0  0  0  0  0
   -0.6508   -0.7999    0.1049 C   0  0  0  0  0  0  0  0  0  0  0  0
   -0.0391   -1.3712   -1.1735 C   0  0  0  0  0  0  0  0  0  0  0  0
    1.2248   -2.1908   -1.0234 C   0  0  0  0  0  0  0  0  0  0  0  0
   -0.5360   -1.1314   -2.2503 O   0  0  0  0  0  0  0  0  0  0  0  0
    0.6161    2.8176    1.9375 H   0  0  0  0  0  0  0  0  0  0  0  0
   -0.6792    3.3796    0.8782 H   0  0  0  0  0  0  0  0  0  0  0  0
   -0.9813    3.1933    2.6115 H   0  0  0  0  0  0  0  0  0  0  0  0
   -0.7405    0.7168    2.4339 H   0  0  0  0  0  0  0  0  0  0  0  0
   -1.9704    1.2677    1.3098 H   0  0  0  0  0  0  0  0  0  0  0  0
   -0.2918    1.2179   -0.5499 H   0  0  0  0  0  0  0  0  0  0  0  0
    1.4393    0.2660    1.4441 H   0  0  0  0  0  0  0  0  0  0  0  0
   -0.4208   -1.4272    0.9754 H   0  0  0  0  0  0  0  0  0  0  0  0
   -1.7361   -0.7740   -0.0301 H   0  0  0  0  0  0  0  0  0  0  0  0
    1.0449   -3.0604   -0.3808 H   0  0  0  0  0  0  0  0  0  0  0  0
    1.5823   -2.5191   -2.0000 H   0  0  0  0  0  0  0  0  0  0  0  0
    1.9817   -1.5718   -0.5294 H   0  0  0  0  0  0  0  0  0  0  0  0
  1  9  1  0  0  0  0
  1 11  1  0  0  0  0
  2  1  1  0  0  0  0
  2 12  1  0  0  0  0
  3 14  1  6  0  0  0
  3  4  1  0  0  0  0
  3  2  1  0  0  0  0
  4 15  1  0  0  0  0
  5  3  1  0  0  0  0
  5 16  1  0  0  0  0
  6  7  1  0  0  0  0
  6  5  1  0  0  0  0
  7 20  1  0  0  0  0
  7 18  1  0  0  0  0
  8  6  2  0  0  0  0
 10  1  1  0  0  0  0
 13  2  1  0  0  0  0
 17  5  1  0  0  0  0
 19  7  1  0  0  0  0
M  END
