title
 OpenBabel02282109583D

 19 18  0  0  1  0  0  0  0  0999 V2000
    1.6157    2.8712   -0.5283 C   0  0  0  0  0  0  0  0  0  0  0  0
    1.6136    1.4991    0.1497 C   0  0  0  0  0  0  0  0  0  0  0  0
    0.3412    0.6892   -0.1203 C   0  0  1  0  0  0  0  0  0  0  0  0
    0.1338    0.5134   -1.5327 O   0  0  0  0  0  0  0  0  0  0  0  0
    0.3443   -0.6558    0.6232 C   0  0  0  0  0  0  0  0  0  0  0  0
   -0.9739   -1.4405    0.6308 C   0  0  0  0  0  0  0  0  0  0  0  0
   -1.6526   -1.4434   -0.5493 N   0  0  0  0  0  0  0  0  0  0  0  0
   -1.3517   -2.0396    1.6201 O   0  0  0  0  0  0  0  0  0  0  0  0
    2.5552    3.3997   -0.3430 H   0  0  0  0  0  0  0  0  0  0  0  0
    1.4828    2.7733   -1.6088 H   0  0  0  0  0  0  0  0  0  0  0  0
    0.7997    3.4965   -0.1501 H   0  0  0  0  0  0  0  0  0  0  0  0
    2.4811    0.9104   -0.1845 H   0  0  0  0  0  0  0  0  0  0  0  0
    1.7274    1.6140    1.2342 H   0  0  0  0  0  0  0  0  0  0  0  0
   -0.5286    1.2759    0.2001 H   0  0  0  0  0  0  0  0  0  0  0  0
    0.9064    0.0544   -1.8843 H   0  0  0  0  0  0  0  0  0  0  0  0
    1.1249   -1.2992    0.1917 H   0  0  0  0  0  0  0  0  0  0  0  0
    0.6078   -0.5050    1.6727 H   0  0  0  0  0  0  0  0  0  0  0  0
   -1.3537   -0.8477   -1.3077 H   0  0  0  0  0  0  0  0  0  0  0  0
   -2.5502   -1.8987   -0.5736 H   0  0  0  0  0  0  0  0  0  0  0  0
  1  9  1  0  0  0  0
  1 11  1  0  0  0  0
  1  2  1  0  0  0  0
  2 13  1  0  0  0  0
  3  2  1  0  0  0  0
  3 14  1  1  0  0  0
  3  5  1  0  0  0  0
  4  3  1  0  0  0  0
  5  6  1  0  0  0  0
  5 17  1  0  0  0  0
  6  8  2  0  0  0  0
  7  6  1  0  0  0  0
 10  1  1  0  0  0  0
 12  2  1  0  0  0  0
 15  4  1  0  0  0  0
 16  5  1  0  0  0  0
 18  7  1  0  0  0  0
 19  7  1  0  0  0  0
M  END
