19
title
C 1.615677 2.871213 -0.52830046
C 1.6136479 1.4990674 0.1497478
C 0.3411932 0.689218 -0.12027404
O 0.13378501 0.513359 -1.532673
C 0.34434545 -0.6557949 0.62316686
C -0.973945 -1.4405187 0.6308176
N -1.652629 -1.4434489 -0.5492724
O -1.3517212 -2.0395637 1.6201084
H 2.5551925 3.3997393 -0.3430412
H 1.4828191 2.7732568 -1.6088482
H 0.7996646 3.4964693 -0.15009241
H 2.4810965 0.9104475 -0.18452989
H 1.7274421 1.6139725 1.2341887
H -0.52860487 1.2758989 0.20011783
H 0.9063832 0.0543824 -1.8842578
H 1.1248704 -1.299224 0.19172193
H 0.6078296 -0.504963 1.6726699
H -1.3537394 -0.8477184 -1.3077476
H -2.5502138 -1.8987225 -0.5735752
