title
 OpenBabel02282109583D

 20 19  0  0  1  0  0  0  0  0999 V2000
    1.0003    2.1970   -0.9198 C   0  0  0  0  0  0  0  0  0  0  0  0
    0.8859    0.7925   -0.9004 O   0  0  0  0  0  0  0  0  0  0  0  0
   -0.4568    0.3138   -0.9005 C   0  0  1  0  0  0  0  0  0  0  0  0
   -0.9945    0.1790   -2.3262 C   0  0  0  0  0  0  0  0  0  0  0  0
   -0.4208   -1.0163   -0.1551 C   0  0  0  0  0  0  0  0  0  0  0  0
   -0.1526   -0.8438    1.3397 C   0  0  0  0  0  0  0  0  0  0  0  0
    0.4616   -2.0346    2.0496 C   0  0  0  0  0  0  0  0  0  0  0  0
   -0.4319    0.1773    1.9242 O   0  0  0  0  0  0  0  0  0  0  0  0
    2.0677    2.4331   -0.9127 H   0  0  0  0  0  0  0  0  0  0  0  0
    0.5541    2.6446   -1.8208 H   0  0  0  0  0  0  0  0  0  0  0  0
    0.5296    2.6499   -0.0350 H   0  0  0  0  0  0  0  0  0  0  0  0
   -1.0869    1.0059   -0.3249 H   0  0  0  0  0  0  0  0  0  0  0  0
   -0.9657    1.1405   -2.8474 H   0  0  0  0  0  0  0  0  0  0  0  0
   -0.3936   -0.5352   -2.8983 H   0  0  0  0  0  0  0  0  0  0  0  0
   -2.0339   -0.1655   -2.3213 H   0  0  0  0  0  0  0  0  0  0  0  0
   -1.3828   -1.5386   -0.2538 H   0  0  0  0  0  0  0  0  0  0  0  0
    0.3351   -1.6729   -0.6011 H   0  0  0  0  0  0  0  0  0  0  0  0
    1.4942   -2.1667    1.7049 H   0  0  0  0  0  0  0  0  0  0  0  0
    0.4578   -1.8745    3.1284 H   0  0  0  0  0  0  0  0  0  0  0  0
   -0.0748   -2.9574    1.8019 H   0  0  0  0  0  0  0  0  0  0  0  0
  1  9  1  0  0  0  0
  1  2  1  0  0  0  0
  1 11  1  0  0  0  0
  3  2  1  0  0  0  0
  3 12  1  1  0  0  0
  3  5  1  0  0  0  0
  4 15  1  0  0  0  0
  4  3  1  0  0  0  0
  5  6  1  0  0  0  0
  6  8  2  0  0  0  0
  6  7  1  0  0  0  0
  7 19  1  0  0  0  0
 10  1  1  0  0  0  0
 13  4  1  0  0  0  0
 14  4  1  0  0  0  0
 16  5  1  0  0  0  0
 17  5  1  0  0  0  0
 18  7  1  0  0  0  0
 20  7  1  0  0  0  0
M  END
