title
 OpenBabel02282109583D

 19 18  0  0  1  0  0  0  0  0999 V2000
   -1.5850    2.0105   -0.8014 C   0  0  0  0  0  0  0  0  0  0  0  0
   -1.2210    0.6741   -0.5231 O   0  0  0  0  0  0  0  0  0  0  0  0
   -0.5395    0.4831    0.7224 C   0  0  1  0  0  0  0  0  0  0  0  0
   -1.5035    0.5740    1.9072 C   0  0  0  0  0  0  0  0  0  0  0  0
    0.1394   -0.8920    0.6628 C   0  0  0  0  0  0  0  0  0  0  0  0
    1.3335   -0.9991   -0.2899 C   0  0  0  0  0  0  0  0  0  0  0  0
    1.0593   -0.6634   -1.5821 N   0  0  0  0  0  0  0  0  0  0  0  0
    2.4252   -1.3870    0.0814 O   0  0  0  0  0  0  0  0  0  0  0  0
   -0.7133    2.6816   -0.7719 H   0  0  0  0  0  0  0  0  0  0  0  0
   -2.0089    2.0241   -1.8086 H   0  0  0  0  0  0  0  0  0  0  0  0
   -2.3411    2.3921   -0.1028 H   0  0  0  0  0  0  0  0  0  0  0  0
    0.2321    1.2644    0.8225 H   0  0  0  0  0  0  0  0  0  0  0  0
   -0.9616    0.4325    2.8469 H   0  0  0  0  0  0  0  0  0  0  0  0
   -1.9965    1.5488    1.9548 H   0  0  0  0  0  0  0  0  0  0  0  0
   -2.2747   -0.1990    1.8304 H   0  0  0  0  0  0  0  0  0  0  0  0
    0.5154   -1.1576    1.6521 H   0  0  0  0  0  0  0  0  0  0  0  0
   -0.6190   -1.6317    0.3780 H   0  0  0  0  0  0  0  0  0  0  0  0
    0.1886   -0.2029   -1.7978 H   0  0  0  0  0  0  0  0  0  0  0  0
    1.8259   -0.6366   -2.2344 H   0  0  0  0  0  0  0  0  0  0  0  0
  1  9  1  0  0  0  0
  1  2  1  0  0  0  0
  1 11  1  0  0  0  0
  2  3  1  0  0  0  0
  3 12  1  1  0  0  0
  3  4  1  0  0  0  0
  4 14  1  0  0  0  0
  4 13  1  0  0  0  0
  5  3  1  0  0  0  0
  5 16  1  0  0  0  0
  6  8  2  0  0  0  0
  6  5  1  0  0  0  0
  7  6  1  0  0  0  0
 10  1  1  0  0  0  0
 15  4  1  0  0  0  0
 17  5  1  0  0  0  0
 18  7  1  0  0  0  0
 19  7  1  0  0  0  0
M  END
