17
title
N 1.2447307 1.8152401 0.7185535
C 0.9045784 1.3652269 -0.5221257
O 1.458014 1.7366887 -1.5391966
C -0.26624364 0.37702924 -0.5530301
C -0.28350705 -0.6867654 0.5495361
O -0.50990576 -0.13478605 1.8532395
C -1.3186514 -1.7879335 0.27429646
O -1.1120278 -2.4516535 -0.9578307
H 2.0405905 2.4270318 0.7950609
H 0.8286624 1.4084512 1.5430379
H -1.2044451 0.9498692 -0.5080806
H -0.2436821 -0.115177795 -1.5267774
H 0.7083435 -1.1516486 0.62239426
H -1.3843749 0.273202 1.851171
H -1.3255656 -2.4817746 1.127133
H -2.317663 -1.3371743 0.20804586
H -0.31209332 -2.9822388 -0.88398474
