title
 OpenBabel02282109583D

 22 21  0  0  1  0  0  0  0  0999 V2000
    0.9881    2.3888    0.0204 C   0  0  0  0  0  0  0  0  0  0  0  0
    1.1972    0.8955   -0.2069 C   0  0  0  0  0  0  0  0  0  0  0  0
    2.5555    0.4163    0.3110 C   0  0  0  0  0  0  0  0  0  0  0  0
    0.1353    0.2198    0.4722 O   0  0  0  0  0  0  0  0  0  0  0  0
   -0.2240   -1.0678   -0.0430 C   0  0  1  0  0  0  0  0  0  0  0  0
   -0.7058   -1.9110    1.1321 C   0  0  0  0  0  0  0  0  0  0  0  0
   -1.3120   -0.8660   -1.1075 C   0  0  0  0  0  0  0  0  0  0  0  0
   -2.4032   -0.1344   -0.5852 O   0  0  0  0  0  0  0  0  0  0  0  0
    1.7806    2.9694   -0.4611 H   0  0  0  0  0  0  0  0  0  0  0  0
    0.0260    2.7118   -0.3874 H   0  0  0  0  0  0  0  0  0  0  0  0
    0.9985    2.6121    1.0920 H   0  0  0  0  0  0  0  0  0  0  0  0
    1.1302    0.6876   -1.2859 H   0  0  0  0  0  0  0  0  0  0  0  0
    2.6805   -0.6613    0.1687 H   0  0  0  0  0  0  0  0  0  0  0  0
    3.3709    0.9200   -0.2182 H   0  0  0  0  0  0  0  0  0  0  0  0
    2.6483    0.6328    1.3799 H   0  0  0  0  0  0  0  0  0  0  0  0
    0.6497   -1.5458   -0.5092 H   0  0  0  0  0  0  0  0  0  0  0  0
   -0.9435   -2.9271    0.8023 H   0  0  0  0  0  0  0  0  0  0  0  0
    0.0645   -1.9635    1.9053 H   0  0  0  0  0  0  0  0  0  0  0  0
   -1.6086   -1.4707    1.5621 H   0  0  0  0  0  0  0  0  0  0  0  0
   -0.8774   -0.3597   -1.9857 H   0  0  0  0  0  0  0  0  0  0  0  0
   -1.6972   -1.8341   -1.4465 H   0  0  0  0  0  0  0  0  0  0  0  0
   -2.0035    0.5904   -0.0866 H   0  0  0  0  0  0  0  0  0  0  0  0
  1 11  1  0  0  0  0
  2  1  1  0  0  0  0
  2  3  1  0  0  0  0
  2  4  1  0  0  0  0
  3 15  1  0  0  0  0
  5 16  1  6  0  0  0
  5  4  1  0  0  0  0
  5  6  1  0  0  0  0
  6 19  1  0  0  0  0
  6 18  1  0  0  0  0
  7  8  1  0  0  0  0
  7  5  1  0  0  0  0
  8 22  1  0  0  0  0
  9  1  1  0  0  0  0
 10  1  1  0  0  0  0
 12  2  1  0  0  0  0
 13  3  1  0  0  0  0
 14  3  1  0  0  0  0
 17  6  1  0  0  0  0
 20  7  1  0  0  0  0
 21  7  1  0  0  0  0
M  END
