26
title
C -0.92727315 2.722832 1.8163145
C -0.7595009 1.2083135 1.6557419
C -0.037384823 0.7635333 0.36743987
C 1.418125 1.2515883 0.33173513
C -0.13483687 -0.7688612 0.22618471
C 0.415232 -1.3985206 -1.0682585
C 0.33805734 -2.9296677 -0.9814079
C -0.313627 -0.89500964 -2.3223543
H 0.03339754 3.237334 1.9143236
H -1.4490268 3.1557586 0.9549967
H -1.5142541 2.9575112 2.710086
H -0.22068329 0.8044257 2.5244942
H -1.7525545 0.7412007 1.6745268
H -0.5712251 1.2237571 -0.47619057
H 1.9968451 0.8078169 1.1515254
H 1.9133645 0.9837718 -0.6059809
H 1.4819578 2.338902 0.43031514
H 0.38254791 -1.2258765 1.0823385
H -1.1904783 -1.0612692 0.32415795
H 1.4758266 -1.1298352 -1.1626599
H -0.7019978 -3.2658293 -0.88921285
H 0.75954837 -3.4002378 -1.8760386
H 0.8865524 -3.3085773 -0.11242272
H 0.07506047 -1.3825132 -3.2227714
H -1.3867184 -1.1154648 -2.2640617
H -0.20376451 0.18477035 -2.460029
