title
 OpenBabel02282109583D

 26 25  0  0  1  0  0  0  0  0999 V2000
   -0.9273    2.7228    1.8163 C   0  0  0  0  0  0  0  0  0  0  0  0
   -0.7595    1.2083    1.6557 C   0  0  0  0  0  0  0  0  0  0  0  0
   -0.0374    0.7635    0.3674 C   0  0  1  0  0  0  0  0  0  0  0  0
    1.4181    1.2516    0.3317 C   0  0  0  0  0  0  0  0  0  0  0  0
   -0.1348   -0.7689    0.2262 C   0  0  0  0  0  0  0  0  0  0  0  0
    0.4152   -1.3985   -1.0683 C   0  0  0  0  0  0  0  0  0  0  0  0
    0.3381   -2.9297   -0.9814 C   0  0  0  0  0  0  0  0  0  0  0  0
   -0.3136   -0.8950   -2.3224 C   0  0  0  0  0  0  0  0  0  0  0  0
    0.0334    3.2373    1.9143 H   0  0  0  0  0  0  0  0  0  0  0  0
   -1.4490    3.1558    0.9550 H   0  0  0  0  0  0  0  0  0  0  0  0
   -1.5143    2.9575    2.7101 H   0  0  0  0  0  0  0  0  0  0  0  0
   -0.2207    0.8044    2.5245 H   0  0  0  0  0  0  0  0  0  0  0  0
   -1.7526    0.7412    1.6745 H   0  0  0  0  0  0  0  0  0  0  0  0
   -0.5712    1.2238   -0.4762 H   0  0  0  0  0  0  0  0  0  0  0  0
    1.9968    0.8078    1.1515 H   0  0  0  0  0  0  0  0  0  0  0  0
    1.9134    0.9838   -0.6060 H   0  0  0  0  0  0  0  0  0  0  0  0
    1.4820    2.3389    0.4303 H   0  0  0  0  0  0  0  0  0  0  0  0
    0.3825   -1.2259    1.0823 H   0  0  0  0  0  0  0  0  0  0  0  0
   -1.1905   -1.0613    0.3242 H   0  0  0  0  0  0  0  0  0  0  0  0
    1.4758   -1.1298   -1.1627 H   0  0  0  0  0  0  0  0  0  0  0  0
   -0.7020   -3.2658   -0.8892 H   0  0  0  0  0  0  0  0  0  0  0  0
    0.7595   -3.4002   -1.8760 H   0  0  0  0  0  0  0  0  0  0  0  0
    0.8866   -3.3086   -0.1124 H   0  0  0  0  0  0  0  0  0  0  0  0
    0.0751   -1.3825   -3.2228 H   0  0  0  0  0  0  0  0  0  0  0  0
   -1.3867   -1.1155   -2.2641 H   0  0  0  0  0  0  0  0  0  0  0  0
   -0.2038    0.1848   -2.4600 H   0  0  0  0  0  0  0  0  0  0  0  0
  1  9  1  0  0  0  0
  1 11  1  0  0  0  0
  2 13  1  0  0  0  0
  2  1  1  0  0  0  0
  2 12  1  0  0  0  0
  3 14  1  6  0  0  0
  3  2  1  0  0  0  0
  4  3  1  0  0  0  0
  4 17  1  0  0  0  0
  4 15  1  0  0  0  0
  5 19  1  0  0  0  0
  5  3  1  0  0  0  0
  5 18  1  0  0  0  0
  6  7  1  0  0  0  0
  6  5  1  0  0  0  0
  7 21  1  0  0  0  0
  7 23  1  0  0  0  0
  8 25  1  0  0  0  0
  8  6  1  0  0  0  0
 10  1  1  0  0  0  0
 16  4  1  0  0  0  0
 20  6  1  0  0  0  0
 22  7  1  0  0  0  0
 24  8  1  0  0  0  0
 26  8  1  0  0  0  0
M  END
