24
title
C -0.6824179 1.7436866 1.931762
C -0.011698834 0.38079077 2.1125774
C 0.6497412 -0.1493531 0.83775073
C 1.3975874 -1.4625471 1.0867432
O -0.3840886 -0.33153677 -0.12643306
C 0.008359917 -0.27267507 -1.4954292
C -1.0042477 -1.1034938 -2.2776003
C 0.06861139 1.1759416 -1.9895266
H 0.047642983 2.5108333 1.6487404
H -1.439887 1.6943476 1.1458157
H -1.1666541 2.0719712 2.8565462
H 0.7496245 0.43457022 2.9002364
H -0.75235194 -0.35919195 2.4411068
H 1.364424 0.6074602 0.4745582
H 0.7107277 -2.2183962 1.480882
H 1.8400742 -1.8531101 0.16540416
H 2.2071335 -1.3177706 1.8098044
H 1.0039586 -0.7286993 -1.6124948
H -1.0107555 -2.136303 -1.9193748
H -2.0099926 -0.6912781 -2.1465497
H -0.7672233 -1.1031969 -3.3458877
H 0.7749994 1.7710027 -1.4030718
H 0.38764477 1.2151966 -3.036429
H -0.91841155 1.6428607 -1.9104728
