title
 OpenBabel02282109583D

 24 23  0  0  1  0  0  0  0  0999 V2000
   -0.7798    2.7386    1.8072 C   0  0  0  0  0  0  0  0  0  0  0  0
   -0.7929    1.2152    1.6635 C   0  0  0  0  0  0  0  0  0  0  0  0
   -0.1341    0.7235    0.3674 C   0  0  1  0  0  0  0  0  0  0  0  0
    1.2164    1.1806    0.2650 O   0  0  0  0  0  0  0  0  0  0  0  0
   -0.2217   -0.8015    0.2186 C   0  0  0  0  0  0  0  0  0  0  0  0
    0.4099   -1.3727   -1.0642 C   0  0  0  0  0  0  0  0  0  0  0  0
    0.4981   -2.9026   -0.9852 C   0  0  0  0  0  0  0  0  0  0  0  0
   -0.3477   -0.9403   -2.3273 C   0  0  0  0  0  0  0  0  0  0  0  0
    0.2415    3.1221    1.7380 H   0  0  0  0  0  0  0  0  0  0  0  0
   -1.3653    3.2132    1.0118 H   0  0  0  0  0  0  0  0  0  0  0  0
   -1.2039    3.0520    2.7659 H   0  0  0  0  0  0  0  0  0  0  0  0
   -0.2730    0.7533    2.5163 H   0  0  0  0  0  0  0  0  0  0  0  0
   -1.8237    0.8406    1.6989 H   0  0  0  0  0  0  0  0  0  0  0  0
   -0.6401    1.2040   -0.4793 H   0  0  0  0  0  0  0  0  0  0  0  0
    1.7131    0.7737    0.9845 H   0  0  0  0  0  0  0  0  0  0  0  0
    0.2692   -1.2564    1.0929 H   0  0  0  0  0  0  0  0  0  0  0  0
   -1.2769   -1.1037    0.2753 H   0  0  0  0  0  0  0  0  0  0  0  0
    1.4286   -0.9706   -1.1283 H   0  0  0  0  0  0  0  0  0  0  0  0
   -0.4998   -3.3520   -0.9101 H   0  0  0  0  0  0  0  0  0  0  0  0
    0.9801   -3.3177   -1.8768 H   0  0  0  0  0  0  0  0  0  0  0  0
    1.0737   -3.2272   -0.1115 H   0  0  0  0  0  0  0  0  0  0  0  0
    0.1155   -1.3669   -3.2231 H   0  0  0  0  0  0  0  0  0  0  0  0
   -1.3890   -1.2846   -2.2974 H   0  0  0  0  0  0  0  0  0  0  0  0
   -0.3563    0.1465   -2.4496 H   0  0  0  0  0  0  0  0  0  0  0  0
  1 11  1  0  0  0  0
  2 13  1  0  0  0  0
  2  1  1  0  0  0  0
  2 12  1  0  0  0  0
  3 14  1  6  0  0  0
  3  2  1  0  0  0  0
  4  3  1  0  0  0  0
  4 15  1  0  0  0  0
  5 17  1  0  0  0  0
  5  3  1  0  0  0  0
  5 16  1  0  0  0  0
  6  7  1  0  0  0  0
  6  5  1  0  0  0  0
  7 19  1  0  0  0  0
  7 21  1  0  0  0  0
  8 23  1  0  0  0  0
  8  6  1  0  0  0  0
  9  1  1  0  0  0  0
 10  1  1  0  0  0  0
 18  6  1  0  0  0  0
 20  7  1  0  0  0  0
 22  8  1  0  0  0  0
 24  8  1  0  0  0  0
M  END
