24
title
C -0.779761 2.7386496 1.8071616
C -0.7928696 1.215157 1.6635264
C -0.13407935 0.72352475 0.36739716
O 1.2164171 1.1805831 0.2649947
C -0.22169389 -0.801453 0.21858127
C 0.40994513 -1.3727467 -1.0641855
C 0.49814725 -2.9026053 -0.985218
C -0.3476791 -0.94031024 -2.3272846
H 0.24149309 3.1220598 1.737951
H -1.3652807 3.2132022 1.0117749
H -1.2039388 3.0519645 2.765866
H -0.2730345 0.75334805 2.5163066
H -1.8236796 0.8405659 1.6988674
H -0.64008266 1.2040218 -0.4792942
H 1.713095 0.77367127 0.9844836
H 0.26915348 -1.2563853 1.0929267
H -1.2769034 -1.1037433 0.2752857
H 1.4285817 -0.9706197 -1.1282929
H -0.49980125 -3.3519938 -0.9101178
H 0.9800707 -3.3176768 -1.8767565
H 1.0737445 -3.2272098 -0.11153941
H 0.1154574 -1.3669024 -3.2231245
H -1.3890408 -1.2846296 -2.2974353
H -0.35630333 0.14650656 -2.4496317
