15
title
C -0.77900714 1.9067022 -0.020030793
C -0.47967783 0.414586 -0.050086115
C 0.37983766 -0.09547958 -1.2459593
C 1.4330254 -0.34142166 -0.1911836
N 2.6060574 -0.780689 -0.2037761
O 0.65238076 0.09929322 0.8577293
C -1.6435444 -0.39479923 0.27203348
C -2.6180346 -1.0515914 0.5218299
H 0.12567225 2.4749095 -0.25261328
H -1.5521233 2.1497557 -0.7545641
H -1.1369431 2.2005382 0.9697269
H 0.007907961 -0.99308 -1.7396215
H 0.6331865 0.6620071 -1.9893498
H 3.005244 -0.80322635 0.7361718
H -3.4747052 -1.6375864 0.74858826
