title
 OpenBabel02282109583D

 14 14  0  0  1  0  0  0  0  0999 V2000
   -0.8057    1.9038   -0.0172 C   0  0  0  0  0  0  0  0  0  0  0  0
   -0.4595    0.4237   -0.0479 C   0  0  1  0  0  0  0  0  0  0  0  0
    0.3849   -0.0894   -1.2511 C   0  0  0  0  0  0  0  0  0  0  0  0
    1.4470   -0.3304   -0.2021 C   0  0  0  0  0  0  0  0  0  0  0  0
    2.6185   -0.7631   -0.2160 N   0  0  0  0  0  0  0  0  0  0  0  0
    0.6609    0.1151    0.8519 O   0  0  0  0  0  0  0  0  0  0  0  0
   -1.6178   -0.4131    0.2822 C   0  0  0  0  0  0  0  0  0  0  0  0
   -2.5440   -1.0603    0.5223 N   0  0  0  0  0  0  0  0  0  0  0  0
    0.0828    2.4912   -0.2616 H   0  0  0  0  0  0  0  0  0  0  0  0
   -1.5920    2.1243   -0.7447 H   0  0  0  0  0  0  0  0  0  0  0  0
   -1.1589    2.1917    0.9759 H   0  0  0  0  0  0  0  0  0  0  0  0
    0.0131   -0.9885   -1.7425 H   0  0  0  0  0  0  0  0  0  0  0  0
    0.6261    0.6704   -1.9956 H   0  0  0  0  0  0  0  0  0  0  0  0
    3.0291   -0.7865    0.7186 H   0  0  0  0  0  0  0  0  0  0  0  0
  1 11  1  0  0  0  0
  2  1  1  0  0  0  0
  2  7  1  1  0  0  0
  2  6  1  0  0  0  0
  3  4  1  0  0  0  0
  3  2  1  0  0  0  0
  4  6  1  0  0  0  0
  5  4  2  0  0  0  0
  5 14  1  0  0  0  0
  7  8  3  0  0  0  0
  9  1  1  0  0  0  0
 10  1  1  0  0  0  0
 12  3  1  0  0  0  0
 13  3  1  0  0  0  0
M  END
