title
 OpenBabel02282109583D

 15 15  0  0  0  0  0  0  0  0999 V2000
   -0.6973    1.8714   -0.1197 C   0  0  0  0  0  0  0  0  0  0  0  0
   -0.4862    0.3516   -0.0883 C   0  0  0  0  0  0  0  0  0  0  0  0
    0.7080   -0.1250   -0.9977 C   0  0  0  0  0  0  0  0  0  0  0  0
    1.5331   -0.3288    0.2823 C   0  0  0  0  0  0  0  0  0  0  0  0
    2.6922   -0.5166    0.4961 O   0  0  0  0  0  0  0  0  0  0  0  0
    0.3038   -0.1361    1.1838 C   0  0  0  0  0  0  0  0  0  0  0  0
   -1.7388   -0.3563   -0.3240 C   0  0  0  0  0  0  0  0  0  0  0  0
   -2.7306   -0.9207   -0.5105 N   0  0  0  0  0  0  0  0  0  0  0  0
    0.2543    2.3818    0.0592 H   0  0  0  0  0  0  0  0  0  0  0  0
   -1.0827    2.1923   -1.0911 H   0  0  0  0  0  0  0  0  0  0  0  0
   -1.4057    2.1834    0.6524 H   0  0  0  0  0  0  0  0  0  0  0  0
    0.5154   -1.0715   -1.5109 H   0  0  0  0  0  0  0  0  0  0  0  0
    1.0884    0.6004   -1.7208 H   0  0  0  0  0  0  0  0  0  0  0  0
    0.3987    0.5815    2.0022 H   0  0  0  0  0  0  0  0  0  0  0  0
   -0.0581   -1.0873    1.5846 H   0  0  0  0  0  0  0  0  0  0  0  0
  1  2  1  0  0  0  0
  1  9  1  0  0  0  0
  1 11  1  0  0  0  0
  2  6  1  0  0  0  0
  3  2  1  0  0  0  0
  3  4  1  0  0  0  0
  4  5  2  0  0  0  0
  4  6  1  0  0  0  0
  6 15  1  0  0  0  0
  6 14  1  0  0  0  0
  7  2  1  0  0  0  0
  8  7  3  0  0  0  0
 10  1  1  0  0  0  0
 12  3  1  0  0  0  0
 13  3  1  0  0  0  0
M  END
