title
 OpenBabel02282109583D

 15 15  0  0  1  0  0  0  0  0999 V2000
   -0.4601    2.0707    0.0548 C   0  0  0  0  0  0  0  0  0  0  0  0
   -0.3929    0.5419    0.0092 C   0  0  1  0  0  0  0  0  0  0  0  0
    0.3705   -0.0682   -1.2246 C   0  0  0  0  0  0  0  0  0  0  0  0
    1.3654   -0.6409   -0.1902 C   0  0  0  0  0  0  0  0  0  0  0  0
    2.3399   -1.3401   -0.2230 O   0  0  0  0  0  0  0  0  0  0  0  0
    0.6893   -0.0310    0.8418 N   0  0  0  0  0  0  0  0  0  0  0  0
   -1.7007   -0.0577    0.2630 C   0  0  0  0  0  0  0  0  0  0  0  0
   -2.7822   -0.5332    0.4847 C   0  0  0  0  0  0  0  0  0  0  0  0
    0.5290    2.4934   -0.1413 H   0  0  0  0  0  0  0  0  0  0  0  0
   -1.1640    2.4430   -0.6948 H   0  0  0  0  0  0  0  0  0  0  0  0
   -0.7993    2.4136    1.0365 H   0  0  0  0  0  0  0  0  0  0  0  0
   -0.1822   -0.8269   -1.7782 H   0  0  0  0  0  0  0  0  0  0  0  0
    0.7907    0.6695   -1.9104 H   0  0  0  0  0  0  0  0  0  0  0  0
    0.7394   -0.1700    1.8414 H   0  0  0  0  0  0  0  0  0  0  0  0
   -3.7343   -0.9636    0.6763 H   0  0  0  0  0  0  0  0  0  0  0  0
  1 11  1  0  0  0  0
  2  1  1  0  0  0  0
  2  7  1  1  0  0  0
  2  6  1  0  0  0  0
  3  4  1  0  0  0  0
  3  2  1  0  0  0  0
  4  6  1  0  0  0  0
  5  4  2  0  0  0  0
  6 14  1  0  0  0  0
  7  8  3  0  0  0  0
  8 15  1  0  0  0  0
  9  1  1  0  0  0  0
 10  1  1  0  0  0  0
 12  3  1  0  0  0  0
 13  3  1  0  0  0  0
M  END
