title
 OpenBabel02282109583D

 13 13  0  0  1  0  0  0  0  0999 V2000
   -0.7554    1.9297   -0.0032 C   0  0  0  0  0  0  0  0  0  0  0  0
   -0.4592    0.4391   -0.0507 C   0  0  1  0  0  0  0  0  0  0  0  0
    0.3734   -0.0868   -1.2512 C   0  0  0  0  0  0  0  0  0  0  0  0
    1.4295   -0.3699   -0.1856 C   0  0  0  0  0  0  0  0  0  0  0  0
    2.5312   -0.7997   -0.1258 O   0  0  0  0  0  0  0  0  0  0  0  0
    0.6470    0.0852    0.8560 O   0  0  0  0  0  0  0  0  0  0  0  0
   -1.6436   -0.3652    0.2630 C   0  0  0  0  0  0  0  0  0  0  0  0
   -2.5930   -0.9841    0.4859 N   0  0  0  0  0  0  0  0  0  0  0  0
    0.1530    2.4908   -0.2365 H   0  0  0  0  0  0  0  0  0  0  0  0
   -1.5312    2.1850   -0.7302 H   0  0  0  0  0  0  0  0  0  0  0  0
   -1.1019    2.2162    0.9924 H   0  0  0  0  0  0  0  0  0  0  0  0
   -0.0118   -0.9758   -1.7508 H   0  0  0  0  0  0  0  0  0  0  0  0
    0.6538    0.6670   -1.9881 H   0  0  0  0  0  0  0  0  0  0  0  0
  1 11  1  0  0  0  0
  2  1  1  0  0  0  0
  2  7  1  1  0  0  0
  2  6  1  0  0  0  0
  3  4  1  0  0  0  0
  3  2  1  0  0  0  0
  4  5  2  0  0  0  0
  4  6  1  0  0  0  0
  7  8  3  0  0  0  0
  9  1  1  0  0  0  0
 10  1  1  0  0  0  0
 12  3  1  0  0  0  0
 13  3  1  0  0  0  0
M  END
