13
title
O 0.33417165 1.7442935 -0.5190918
C 0.3045472 0.34436592 -0.35897854
C 0.500262 -0.13357083 1.1262563
C -1.0199648 -0.36899874 1.1890936
O -1.777823 -0.6299556 2.071874
C -1.1860785 -0.11898349 -0.31877515
C 1.1610117 -0.32714847 -1.3430537
N 1.859489 -0.84357643 -2.1057594
H 1.2458614 2.047708 -0.435404
H 1.0719669 -1.0599484 1.2333618
H 0.9027125 0.62577105 1.8007926
H -1.8947351 0.6576935 -0.6130094
H -1.3888687 -1.0347565 -0.8799275
