title
 OpenBabel02282109583D

 15 15  0  0  1  0  0  0  0  0999 V2000
   -0.6166    1.8585   -0.0222 C   0  0  0  0  0  0  0  0  0  0  0  0
   -0.3445    0.3719   -0.0144 C   0  0  1  0  0  0  0  0  0  0  0  0
    0.4157   -0.2358   -1.2312 C   0  0  0  0  0  0  0  0  0  0  0  0
    1.5015   -0.5181   -0.2177 C   0  0  0  0  0  0  0  0  0  0  0  0
    2.6377   -1.0393   -0.2654 N   0  0  0  0  0  0  0  0  0  0  0  0
    0.7952    0.0099    0.8484 O   0  0  0  0  0  0  0  0  0  0  0  0
   -1.5468   -0.4641    0.3959 C   0  0  0  0  0  0  0  0  0  0  0  0
   -2.6847   -0.0798    0.3517 O   0  0  0  0  0  0  0  0  0  0  0  0
    0.2591    2.4096   -0.3736 H   0  0  0  0  0  0  0  0  0  0  0  0
   -1.4663    2.0725   -0.6754 H   0  0  0  0  0  0  0  0  0  0  0  0
   -0.8708    2.2043    0.9833 H   0  0  0  0  0  0  0  0  0  0  0  0
   -0.0253   -1.1266   -1.6840 H   0  0  0  0  0  0  0  0  0  0  0  0
    0.6741    0.4797   -2.0129 H   0  0  0  0  0  0  0  0  0  0  0  0
    3.0822   -1.0606    0.6538 H   0  0  0  0  0  0  0  0  0  0  0  0
   -1.2775   -1.4898    0.7332 H   0  0  0  0  0  0  0  0  0  0  0  0
  1  2  1  0  0  0  0
  1 11  1  0  0  0  0
  2  7  1  1  0  0  0
  2  6  1  0  0  0  0
  3  4  1  0  0  0  0
  3  2  1  0  0  0  0
  4  6  1  0  0  0  0
  5  4  2  0  0  0  0
  5 14  1  0  0  0  0
  7 15  1  0  0  0  0
  8  7  2  0  0  0  0
  9  1  1  0  0  0  0
 10  1  1  0  0  0  0
 12  3  1  0  0  0  0
 13  3  1  0  0  0  0
M  END
