15
title
C -0.286073 1.9569811 0.014204812
C -0.28972474 0.43691298 0.021676991
C 0.35496798 -0.27594006 -1.2228938
C 1.4147136 -0.81525445 -0.23330498
O 2.4025528 -1.4897476 -0.30545953
N 0.76928145 -0.20739059 0.820825
C -1.6542647 -0.14874168 0.35735387
O -2.6671042 0.48950744 0.46939632
H 0.7001359 2.3361015 -0.2659865
H -1.0299501 2.332845 -0.69244003
H -0.54687387 2.3515878 1.0006757
H -0.24931434 -1.0540117 -1.6950034
H 0.73489743 0.40827242 -1.9825741
H 1.0200795 -0.11326082 1.7951932
H -1.634065 -1.2540201 0.49800196
