14
title
C -0.5811285 2.0173755 0.22807807
C -0.38310626 0.5194682 0.08968036
C 0.30239585 -0.023763562 -1.1741713
C 1.4018495 -0.45002553 -0.20397446
O 2.4573445 -0.98946303 -0.23861629
O 0.7548767 0.047646943 0.91076654
C -1.6182328 -0.25042924 0.53785247
O -2.345555 -0.85036653 -0.20710507
H 0.3501822 2.5423465 -0.0014395341
H -1.3599094 2.3608181 -0.45986307
H -0.879354 2.2780266 1.2483609
H -0.22314118 -0.8432589 -1.6660639
H 0.61535186 0.7176469 -1.9106913
H -1.7942635 -0.20866767 1.6348442
