18
title
C -0.020587409 1.7983551 0.025770202
C -0.43222755 0.3213419 -0.072579555
C 0.5227306 -0.50732505 -1.0077444
C 1.2761129 -1.0330421 0.23258474
O 2.4837816 -0.30671087 0.39168692
C 0.10853071 -0.5365902 1.1292899
C -1.8530194 0.18699606 -0.346333
C -3.0290592 0.07040762 -0.57275665
H 1.0513674 1.8709483 0.22579059
H -0.23999839 2.3220403 -0.9096912
H -0.56687576 2.298205 0.83175445
H -0.00693261 -1.2967657 -1.5432018
H 1.1294816 0.06990778 -1.7084675
H 1.4668349 -2.1135757 0.25710586
H 2.8399062 -0.5114702 1.2626687
H 0.39141864 0.022435986 2.02578
H -0.57998496 -1.3384345 1.4041691
H -4.066652 -0.031581677 -0.77313495
