17
title
C 0.06602482 1.8034528 0.039283697
C -0.39596826 0.34345692 -0.06518985
C 0.5079034 -0.5255492 -1.0107813
C 1.2385535 -1.0936353 0.22555321
O 2.4740393 -0.42058334 0.3849945
C 0.0947848 -0.5506604 1.1287591
C -1.8264241 0.26784968 -0.33850798
N -2.9605367 0.19520739 -0.5541938
H 1.1398289 1.8255428 0.23823345
H -0.1307786 2.3407872 -0.89302886
H -0.4565926 2.3199177 0.84992427
H -0.059311442 -1.2848084 -1.5511231
H 1.1370559 0.030451773 -1.7080035
H 1.3784001 -2.1812732 0.24238086
H 2.8470247 -0.6754494 1.2355443
H 0.4012013 -0.0094912965 2.0274425
H -0.6307737 -1.3210628 1.3978089
