title
 OpenBabel02282109583D

 20 20  0  0  1  0  0  0  0  0999 V2000
   -0.7945    2.7969   -0.1141 C   0  0  0  0  0  0  0  0  0  0  0  0
   -0.7553    1.2775   -0.1254 C   0  0  1  0  0  0  0  0  0  0  0  0
    0.2683    0.5592   -1.0451 C   0  0  0  0  0  0  0  0  0  0  0  0
    0.5251   -0.4938    0.0920 C   0  0  1  0  0  0  0  0  0  0  0  0
    1.9827   -0.8814    0.3594 C   0  0  0  0  0  0  0  0  0  0  0  0
   -0.1293    0.5331    1.0844 C   0  0  0  0  0  0  0  0  0  0  0  0
   -0.3032   -1.6809   -0.0770 C   0  0  0  0  0  0  0  0  0  0  0  0
   -0.9817   -2.6648   -0.2161 C   0  0  0  0  0  0  0  0  0  0  0  0
    0.2006    3.2158    0.0767 H   0  0  0  0  0  0  0  0  0  0  0  0
   -1.1437    3.1936   -1.0741 H   0  0  0  0  0  0  0  0  0  0  0  0
   -1.4681    3.1724    0.6645 H   0  0  0  0  0  0  0  0  0  0  0  0
   -1.7569    0.8791   -0.3172 H   0  0  0  0  0  0  0  0  0  0  0  0
   -0.0791    0.1769   -2.0067 H   0  0  0  0  0  0  0  0  0  0  0  0
    1.1639    1.1693   -1.2042 H   0  0  0  0  0  0  0  0  0  0  0  0
    2.5974    0.0157    0.4851 H   0  0  0  0  0  0  0  0  0  0  0  0
    2.0662   -1.4865    1.2677 H   0  0  0  0  0  0  0  0  0  0  0  0
    2.3909   -1.4652   -0.4717 H   0  0  0  0  0  0  0  0  0  0  0  0
    0.6460    1.1354    1.5703 H   0  0  0  0  0  0  0  0  0  0  0  0
   -0.7985    0.1298    1.8466 H   0  0  0  0  0  0  0  0  0  0  0  0
   -1.5811   -3.5325   -0.3389 H   0  0  0  0  0  0  0  0  0  0  0  0
  1  9  1  0  0  0  0
  1 11  1  0  0  0  0
  2 12  1  6  0  0  0
  2  1  1  0  0  0  0
  2  6  1  0  0  0  0
  3  2  1  0  0  0  0
  3  4  1  0  0  0  0
  4  7  1  6  0  0  0
  4  5  1  0  0  0  0
  4  6  1  0  0  0  0
  5 15  1  0  0  0  0
  5 16  1  0  0  0  0
  6 18  1  0  0  0  0
  6 19  1  0  0  0  0
  8  7  3  0  0  0  0
 10  1  1  0  0  0  0
 13  3  1  0  0  0  0
 14  3  1  0  0  0  0
 17  5  1  0  0  0  0
 20  8  1  0  0  0  0
M  END
