title
 OpenBabel02282109583D

 19 19  0  0  1  0  0  0  0  0999 V2000
   -0.7483    2.8193   -0.1050 C   0  0  0  0  0  0  0  0  0  0  0  0
   -0.7409    1.2997   -0.1226 C   0  0  1  0  0  0  0  0  0  0  0  0
    0.2700    0.5668   -1.0460 C   0  0  0  0  0  0  0  0  0  0  0  0
    0.5244   -0.4835    0.0921 C   0  0  1  0  0  0  0  0  0  0  0  0
    1.9719   -0.9050    0.3579 C   0  0  0  0  0  0  0  0  0  0  0  0
   -0.1291    0.5403    1.0861 C   0  0  0  0  0  0  0  0  0  0  0  0
   -0.3231   -1.6624   -0.0812 C   0  0  0  0  0  0  0  0  0  0  0  0
   -0.9917   -2.5964   -0.2178 N   0  0  0  0  0  0  0  0  0  0  0  0
    0.2552    3.2160    0.0877 H   0  0  0  0  0  0  0  0  0  0  0  0
   -1.0894    3.2255   -1.0635 H   0  0  0  0  0  0  0  0  0  0  0  0
   -1.4147    3.2039    0.6747 H   0  0  0  0  0  0  0  0  0  0  0  0
   -1.7505    0.9229   -0.3163 H   0  0  0  0  0  0  0  0  0  0  0  0
   -0.0854    0.1875   -2.0055 H   0  0  0  0  0  0  0  0  0  0  0  0
    1.1755    1.1599   -1.2090 H   0  0  0  0  0  0  0  0  0  0  0  0
    2.5972   -0.0166    0.4860 H   0  0  0  0  0  0  0  0  0  0  0  0
    2.0452   -1.5125    1.2649 H   0  0  0  0  0  0  0  0  0  0  0  0
    2.3710   -1.4909   -0.4755 H   0  0  0  0  0  0  0  0  0  0  0  0
    0.6535    1.1252    1.5797 H   0  0  0  0  0  0  0  0  0  0  0  0
   -0.8057    0.1397    1.8428 H   0  0  0  0  0  0  0  0  0  0  0  0
  1  9  1  0  0  0  0
  1 11  1  0  0  0  0
  2 12  1  6  0  0  0
  2  1  1  0  0  0  0
  2  6  1  0  0  0  0
  3  2  1  0  0  0  0
  3  4  1  0  0  0  0
  4  7  1  6  0  0  0
  4  5  1  0  0  0  0
  4  6  1  0  0  0  0
  5 15  1  0  0  0  0
  5 16  1  0  0  0  0
  6 18  1  0  0  0  0
  6 19  1  0  0  0  0
  8  7  3  0  0  0  0
 10  1  1  0  0  0  0
 13  3  1  0  0  0  0
 14  3  1  0  0  0  0
 17  5  1  0  0  0  0
M  END
