18
title
C -0.17645931 2.776226 0.07368512
C -0.82284117 1.3977741 0.07668994
C -0.4475448 0.45053846 -1.0957094
C 0.3139943 -0.42325437 -0.044828866
C 1.8420091 -0.4029554 -0.16219927
N -0.26538223 0.4089496 1.0398885
C -0.1493122 -1.8205147 0.026642518
N -0.50563276 -2.9196 0.060258407
H 0.90224934 2.7195148 -0.108803965
H -0.6188521 3.407168 -0.7049822
H -0.332528 3.278884 1.0348837
H -1.9039366 1.5116668 0.21642296
H -1.2914089 -0.05175102 -1.5681658
H 0.19586867 0.87961966 -1.866573
H 2.197955 0.62557465 -0.267856
H 2.3020387 -0.8441167 0.7277516
H 2.1730518 -0.9771433 -1.0329224
H 0.41851735 0.7711747 1.6965013
