17
title
C -0.38542432 2.774104 0.11209628
C -0.7328246 1.3056707 0.015166707
C -0.19829737 0.48282766 -1.1765949
C 0.41310924 -0.4405594 -0.085667975
C 1.9145069 -0.6915966 -0.11307826
O 0.032490086 0.49082494 0.9506139
C -0.32226017 -1.7125473 0.064679146
N -0.89956045 -2.7082274 0.17056952
H 0.68106204 2.9367967 -0.07081471
H -0.95958865 3.3490329 -0.622532
H -0.62677145 3.1573882 1.1082758
H -1.8066554 1.1526921 0.18367442
H -0.9340519 0.0330379 -1.842105
H 0.56784695 0.99597394 -1.761685
H 2.4383283 0.25936288 -0.23629583
H 2.2382286 -1.1531873 0.82359576
H 2.178427 -1.3583322 -0.93948954
