title
 OpenBabel02282109583D

 18 18  0  0  1  0  0  0  0  0999 V2000
   -0.7183    2.8371   -0.0945 C   0  0  0  0  0  0  0  0  0  0  0  0
   -0.7402    1.3177   -0.1160 C   0  0  1  0  0  0  0  0  0  0  0  0
    0.2532    0.5707   -1.0489 C   0  0  0  0  0  0  0  0  0  0  0  0
    0.5019   -0.4760    0.0836 C   0  0  1  0  0  0  0  0  0  0  0  0
    1.9006   -0.8107    0.3280 N   0  0  0  0  0  0  0  0  0  0  0  0
   -0.1256    0.5458    1.0846 C   0  0  0  0  0  0  0  0  0  0  0  0
   -0.3492   -1.6667   -0.0814 C   0  0  0  0  0  0  0  0  0  0  0  0
   -0.9831   -2.6270   -0.2052 N   0  0  0  0  0  0  0  0  0  0  0  0
    0.2942    3.2131    0.0898 H   0  0  0  0  0  0  0  0  0  0  0  0
   -1.0612    3.2517   -1.0488 H   0  0  0  0  0  0  0  0  0  0  0  0
   -1.3706    3.2315    0.6924 H   0  0  0  0  0  0  0  0  0  0  0  0
   -1.7586    0.9613   -0.3010 H   0  0  0  0  0  0  0  0  0  0  0  0
   -0.1134    0.1980   -2.0068 H   0  0  0  0  0  0  0  0  0  0  0  0
    1.1748    1.1391   -1.2009 H   0  0  0  0  0  0  0  0  0  0  0  0
    1.9769   -1.3910    1.1605 H   0  0  0  0  0  0  0  0  0  0  0  0
    2.2612   -1.3722   -0.4402 H   0  0  0  0  0  0  0  0  0  0  0  0
    0.6850    1.1070    1.5573 H   0  0  0  0  0  0  0  0  0  0  0  0
   -0.7981    0.1531    1.8491 H   0  0  0  0  0  0  0  0  0  0  0  0
  1  9  1  0  0  0  0
  1 11  1  0  0  0  0
  2 12  1  6  0  0  0
  2  1  1  0  0  0  0
  2  6  1  0  0  0  0
  3  2  1  0  0  0  0
  3  4  1  0  0  0  0
  4  7  1  6  0  0  0
  4  5  1  0  0  0  0
  4  6  1  0  0  0  0
  5 15  1  0  0  0  0
  6 17  1  0  0  0  0
  6 18  1  0  0  0  0
  8  7  3  0  0  0  0
 10  1  1  0  0  0  0
 13  3  1  0  0  0  0
 14  3  1  0  0  0  0
 16  5  1  0  0  0  0
M  END
