18
title
C -0.7183248 2.8370523 -0.094483115
C -0.74015003 1.3176867 -0.11604509
C 0.25319406 0.57067114 -1.0489377
C 0.5019173 -0.4759611 0.083577305
N 1.9006146 -0.81071854 0.32801422
C -0.12563184 0.54579717 1.0846251
C -0.3492235 -1.6667353 -0.08143796
N -0.98314863 -2.6269941 -0.20520586
H 0.29421267 3.2131038 0.08981606
H -1.0611502 3.251738 -1.0487765
H -1.3705603 3.231497 0.6923883
H -1.7586237 0.9612613 -0.30103046
H -0.11341659 0.19802286 -2.0068135
H 1.1747776 1.1391242 -1.20088
H 1.9769336 -1.3909887 1.1604621
H 2.2611568 -1.372233 -0.4402428
H 0.685041 1.1069717 1.5573121
H -0.7980539 0.15306927 1.8490921
