18
title
C -0.7368246 2.8309739 -0.13396206
C -0.7450434 1.3108915 -0.14479683
C 0.283743 0.56518966 -1.0390506
C 0.4765986 -0.4843847 0.09110045
O 1.8389041 -0.8131795 0.29205182
C -0.16486314 0.5496937 1.079319
C -0.3406844 -1.6831641 -0.074226074
C -0.9968236 -2.6863592 -0.1752641
H 0.26613638 3.217258 0.080578245
H -1.0503879 3.237192 -1.1021798
H -1.4171094 3.2273228 0.6281187
H -1.7537795 0.94392055 -0.360623
H -0.03233096 0.19930206 -2.0171003
H 1.2127285 1.1337124 -1.1419324
H 1.8797431 -1.5678501 0.8895771
H 0.63945985 1.1147915 1.5599613
H -0.85497713 0.17079411 1.8356721
H -1.5773733 -3.5697572 -0.27843004
