title
 OpenBabel02282109583D

 17 17  0  0  1  0  0  0  0  0999 V2000
   -0.6642    2.8559   -0.1228 C   0  0  0  0  0  0  0  0  0  0  0  0
   -0.7138    1.3370   -0.1373 C   0  0  1  0  0  0  0  0  0  0  0  0
    0.2912    0.5678   -1.0403 C   0  0  0  0  0  0  0  0  0  0  0  0
    0.4778   -0.4776    0.0918 C   0  0  1  0  0  0  0  0  0  0  0  0
    1.8204   -0.8590    0.2730 O   0  0  0  0  0  0  0  0  0  0  0  0
   -0.1460    0.5596    1.0839 C   0  0  0  0  0  0  0  0  0  0  0  0
   -0.3822   -1.6602   -0.0762 C   0  0  0  0  0  0  0  0  0  0  0  0
   -1.0468   -2.6010   -0.1771 N   0  0  0  0  0  0  0  0  0  0  0  0
    0.3498    3.2144    0.0870 H   0  0  0  0  0  0  0  0  0  0  0  0
   -0.9728    3.2710   -1.0883 H   0  0  0  0  0  0  0  0  0  0  0  0
   -1.3301    3.2668    0.6437 H   0  0  0  0  0  0  0  0  0  0  0  0
   -1.7332    0.9978   -0.3475 H   0  0  0  0  0  0  0  0  0  0  0  0
   -0.0414    0.2048   -2.0134 H   0  0  0  0  0  0  0  0  0  0  0  0
    1.2332    1.1116   -1.1534 H   0  0  0  0  0  0  0  0  0  0  0  0
    1.8687   -1.5055    0.9869 H   0  0  0  0  0  0  0  0  0  0  0  0
    0.6711    1.1045    1.5657 H   0  0  0  0  0  0  0  0  0  0  0  0
   -0.8411    0.1899    1.8398 H   0  0  0  0  0  0  0  0  0  0  0  0
  1  9  1  0  0  0  0
  1 11  1  0  0  0  0
  2 12  1  6  0  0  0
  2  1  1  0  0  0  0
  2  6  1  0  0  0  0
  3  2  1  0  0  0  0
  3  4  1  0  0  0  0
  4  7  1  6  0  0  0
  4  5  1  0  0  0  0
  4  6  1  0  0  0  0
  5 15  1  0  0  0  0
  6 16  1  0  0  0  0
  6 17  1  0  0  0  0
  8  7  3  0  0  0  0
 10  1  1  0  0  0  0
 13  3  1  0  0  0  0
 14  3  1  0  0  0  0
M  END
