17
title
C -0.6641979 2.855891 -0.12275119
C -0.7138017 1.3369666 -0.13731031
C 0.2911689 0.5678088 -1.0402522
C 0.47780666 -0.47761086 0.09179382
O 1.8204209 -0.85901004 0.27302387
C -0.1460434 0.55961835 1.0838823
C -0.38219482 -1.6601548 -0.07623499
N -1.0468385 -2.600996 -0.17705259
H 0.34979817 3.2144268 0.086965665
H -0.97280806 3.2709622 -1.0883465
H -1.3301026 3.2668345 0.64374304
H -1.7331951 0.997829 -0.34749708
H -0.0414146 0.20482512 -2.0134137
H 1.2331802 1.1116368 -1.1534339
H 1.8687295 -1.5055323 0.986876
H 0.67109627 1.1044769 1.5657185
H -0.8411058 0.18991537 1.839773
