title
 OpenBabel02282109583D

 18 18  0  0  0  0  0  0  0  0999 V2000
    0.3564    2.5326   -1.1610 C   0  0  0  0  0  0  0  0  0  0  0  0
    0.3437    1.0894   -1.0773 N   0  0  0  0  0  0  0  0  0  0  0  0
   -0.8956    0.4158   -0.6580 C   0  0  0  0  0  0  0  0  0  0  0  0
   -0.0221   -0.6454    0.0872 C   0  0  0  0  0  0  0  0  0  0  0  0
    0.2662   -1.8979   -0.7486 C   0  0  0  0  0  0  0  0  0  0  0  0
    1.1034    0.4364    0.0005 C   0  0  0  0  0  0  0  0  0  0  0  0
   -0.4613   -0.9921    1.4314 C   0  0  0  0  0  0  0  0  0  0  0  0
   -0.8099   -1.2714    2.4980 N   0  0  0  0  0  0  0  0  0  0  0  0
    1.3654    2.8795   -1.4069 H   0  0  0  0  0  0  0  0  0  0  0  0
   -0.3151    2.8622   -1.9605 H   0  0  0  0  0  0  0  0  0  0  0  0
    0.0418    3.0248   -0.2215 H   0  0  0  0  0  0  0  0  0  0  0  0
   -1.5069    1.0062    0.0421 H   0  0  0  0  0  0  0  0  0  0  0  0
   -1.5288    0.0479   -1.4723 H   0  0  0  0  0  0  0  0  0  0  0  0
    0.5921   -1.5972   -1.7474 H   0  0  0  0  0  0  0  0  0  0  0  0
    1.0532   -2.5015   -0.2878 H   0  0  0  0  0  0  0  0  0  0  0  0
   -0.6293   -2.5189   -0.8421 H   0  0  0  0  0  0  0  0  0  0  0  0
    2.1033    0.0853   -0.2758 H   0  0  0  0  0  0  0  0  0  0  0  0
    1.1678    1.0337    0.9233 H   0  0  0  0  0  0  0  0  0  0  0  0
  1  2  1  0  0  0  0
  1 11  1  0  0  0  0
  2  3  1  0  0  0  0
  2  6  1  0  0  0  0
  3 12  1  0  0  0  0
  3  4  1  0  0  0  0
  4  7  1  0  0  0  0
  5 15  1  0  0  0  0
  5  4  1  0  0  0  0
  6  4  1  0  0  0  0
  6 18  1  0  0  0  0
  7  8  3  0  0  0  0
  9  1  1  0  0  0  0
 10  1  1  0  0  0  0
 13  3  1  0  0  0  0
 14  5  1  0  0  0  0
 16  5  1  0  0  0  0
 17  6  1  0  0  0  0
M  END
