17
title
C 0.33072078 2.5712478 -1.0579003
N 0.33830592 1.1267886 -1.0689433
C -0.8883819 0.4115496 -0.6884185
C -0.01684517 -0.6441587 0.05839696
N 0.24846473 -1.8188968 -0.761807
C 1.120847 0.417192 -0.046578024
C -0.45136154 -0.9726112 1.4215014
N -0.7902815 -1.2766895 2.4851298
H 1.3323601 2.9473705 -1.2905155
H -0.3524816 2.9426367 -1.8287209
H 0.019065317 2.999894 -0.08603964
H -1.5386055 0.96958035 0.0025344149
H -1.481243 0.026060075 -1.5242693
H 0.9654256 -2.3924286 -0.32505557
H -0.5859846 -2.396786 -0.8206467
H 2.0904381 0.036090225 -0.3833091
H 1.2472355 0.9774037 0.8924606
