17
title
C 0.34008363 2.5306144 -1.1555703
N 0.35267556 1.0880212 -1.0990233
C -0.8820961 0.38744617 -0.70731795
C -0.03182294 -0.62404954 0.11014472
O 0.1681236 -1.7908739 -0.6669918
C 1.1142678 0.43292904 -0.023549099
C -0.46505368 -0.946398 1.4620769
C -0.79062825 -1.2415117 2.5815682
H 1.3451601 2.9018753 -1.3822365
H -0.3274638 2.8649428 -1.95686
H 0.0051632035 3.0029233 -0.21115609
H -1.548945 0.9792606 -0.062372107
H -1.4521203 -0.052964915 -1.530993
H 0.7111139 -2.3975933 -0.15163995
H 2.0924134 0.03764541 -0.3191147
H 1.2189658 1.0426584 0.88752675
H -1.0907881 -1.4958278 3.5681663
