16
title
O 1.0913856 1.8578752 -1.2846627
C 1.0455285 0.45209616 -1.2491543
C 1.2703059 -0.16444936 0.16369264
C -0.27392963 -0.2255561 0.336443
O -0.6569054 1.0181984 0.9389718
C -0.3937458 -0.1460087 -1.2205205
C -0.8780849 -1.358012 1.0195062
C -1.4014486 -2.291698 1.5678732
H 0.5357443 2.169372 -0.55794764
H 1.7025434 0.10073727 -2.0468152
H 1.7071788 -1.1639396 0.120859794
H 1.7981551 0.44793576 0.8972638
H -1.6205004 1.0601838 0.9358662
H -1.1983639 0.482414 -1.6108437
H -0.44401053 -1.1393836 -1.6728572
H -1.8535742 -3.117732 2.059305
