title
 OpenBabel02282109583D

 15 15  0  0  1  0  0  0  0  0999 V2000
    1.1617    1.7927   -1.3615 O   0  0  0  0  0  0  0  0  0  0  0  0
    1.0624    0.3949   -1.2652 C   0  0  1  0  0  0  0  0  0  0  0  0
    1.2652   -0.1741    0.1720 C   0  0  0  0  0  0  0  0  0  0  0  0
   -0.2784   -0.1818    0.3364 C   0  0  1  0  0  0  0  0  0  0  0  0
   -0.6452    1.0630    0.9217 O   0  0  0  0  0  0  0  0  0  0  0  0
   -0.3977   -0.1541   -1.2191 C   0  0  0  0  0  0  0  0  0  0  0  0
   -0.9032   -1.3012    1.0471 C   0  0  0  0  0  0  0  0  0  0  0  0
   -1.4150   -2.1844    1.5896 N   0  0  0  0  0  0  0  0  0  0  0  0
    0.6315    2.1664   -0.6460 H   0  0  0  0  0  0  0  0  0  0  0  0
    1.7059   -0.0154   -2.0449 H   0  0  0  0  0  0  0  0  0  0  0  0
    1.6774   -1.1848    0.1700 H   0  0  0  0  0  0  0  0  0  0  0  0
    1.8014    0.4511    0.8881 H   0  0  0  0  0  0  0  0  0  0  0  0
   -1.6032    1.1599    0.8573 H   0  0  0  0  0  0  0  0  0  0  0  0
   -1.1826    0.4877   -1.6266 H   0  0  0  0  0  0  0  0  0  0  0  0
   -0.4820   -1.1585   -1.6405 H   0  0  0  0  0  0  0  0  0  0  0  0
  1  2  1  0  0  0  0
  1  9  1  0  0  0  0
  2 10  1  6  0  0  0
  2  6  1  0  0  0  0
  2  3  1  0  0  0  0
  3  4  1  0  0  0  0
  3 12  1  0  0  0  0
  4  5  1  0  0  0  0
  4  7  1  1  0  0  0
  6  4  1  0  0  0  0
  7  8  3  0  0  0  0
 11  3  1  0  0  0  0
 13  5  1  0  0  0  0
 14  6  1  0  0  0  0
 15  6  1  0  0  0  0
M  END
