15
title
O 1.1616704 1.792683 -1.361513
C 1.0624343 0.39486703 -1.2651658
C 1.2652287 -0.17409529 0.17201404
C -0.2784417 -0.18180545 0.3363965
O -0.64518553 1.0629537 0.92172974
C -0.3976858 -0.15410204 -1.219085
C -0.903218 -1.3011836 1.047108
N -1.4150026 -2.1844437 1.589625
H 0.6314789 2.1664312 -0.6459682
H 1.7058622 -0.015389074 -2.0448542
H 1.6773812 -1.1848203 0.17004542
H 1.8014023 0.45105457 0.88805646
H -1.6032438 1.159944 0.85734695
H -1.1825631 0.48765138 -1.6265608
H -0.48204723 -1.1585401 -1.6405083
