title
 OpenBabel02282109583D

 20 20  0  0  1  0  0  0  0  0999 V2000
   -2.6414    1.3904   -0.5527 C   0  0  0  0  0  0  0  0  0  0  0  0
   -1.5915    0.3161   -0.3141 C   0  0  1  0  0  0  0  0  0  0  0  0
   -0.2997    0.3380   -1.1752 C   0  0  0  0  0  0  0  0  0  0  0  0
    0.5625    0.0445    0.1051 C   0  0  1  0  0  0  0  0  0  0  0  0
    1.8251    0.8649    0.3153 C   0  0  0  0  0  0  0  0  0  0  0  0
   -0.7049    0.4155    0.9566 C   0  0  0  0  0  0  0  0  0  0  0  0
    0.8345   -1.4367    0.2108 C   0  0  0  0  0  0  0  0  0  0  0  0
    1.9099   -1.9328    0.4339 O   0  0  0  0  0  0  0  0  0  0  0  0
   -2.1965    2.3910   -0.5045 H   0  0  0  0  0  0  0  0  0  0  0  0
   -3.1072    1.2796   -1.5382 H   0  0  0  0  0  0  0  0  0  0  0  0
   -3.4373    1.3428    0.1989 H   0  0  0  0  0  0  0  0  0  0  0  0
   -2.0618   -0.6719   -0.3675 H   0  0  0  0  0  0  0  0  0  0  0  0
   -0.2283   -0.3737   -2.0028 H   0  0  0  0  0  0  0  0  0  0  0  0
   -0.0772    1.3376   -1.5610 H   0  0  0  0  0  0  0  0  0  0  0  0
    1.6068    1.9342    0.2351 H   0  0  0  0  0  0  0  0  0  0  0  0
    2.2581    0.6725    1.3015 H   0  0  0  0  0  0  0  0  0  0  0  0
    2.5866    0.6099   -0.4278 H   0  0  0  0  0  0  0  0  0  0  0  0
   -0.6259    1.4426    1.3260 H   0  0  0  0  0  0  0  0  0  0  0  0
   -0.9511   -0.2354    1.8006 H   0  0  0  0  0  0  0  0  0  0  0  0
   -0.0653   -2.0809    0.0629 H   0  0  0  0  0  0  0  0  0  0  0  0
  1  9  1  0  0  0  0
  1  2  1  0  0  0  0
  1 11  1  0  0  0  0
  2 12  1  6  0  0  0
  2  6  1  0  0  0  0
  3  2  1  0  0  0  0
  3  4  1  0  0  0  0
  4  7  1  1  0  0  0
  4  5  1  0  0  0  0
  4  6  1  0  0  0  0
  5 16  1  0  0  0  0
  6 18  1  0  0  0  0
  6 19  1  0  0  0  0
  7  8  2  0  0  0  0
 10  1  1  0  0  0  0
 13  3  1  0  0  0  0
 14  3  1  0  0  0  0
 15  5  1  0  0  0  0
 17  5  1  0  0  0  0
 20  7  1  0  0  0  0
M  END
