title
 OpenBabel02282109583D

 18 18  0  0  1  0  0  0  0  0999 V2000
   -2.1211    1.3641    1.2178 C   0  0  0  0  0  0  0  0  0  0  0  0
   -1.3074    0.2056    0.6829 C   0  0  1  0  0  0  0  0  0  0  0  0
   -0.8603    0.2323   -0.7950 C   0  0  0  0  0  0  0  0  0  0  0  0
    0.5655    0.1192   -0.2274 C   0  0  1  0  0  0  0  0  0  0  0  0
    1.5933    1.1810   -0.5805 C   0  0  0  0  0  0  0  0  0  0  0  0
    0.0787    0.2511    1.1381 O   0  0  0  0  0  0  0  0  0  0  0  0
    1.1726   -1.2748   -0.3411 C   0  0  0  0  0  0  0  0  0  0  0  0
    0.8603   -2.1060   -1.1533 O   0  0  0  0  0  0  0  0  0  0  0  0
   -1.6812    2.3206    0.9194 H   0  0  0  0  0  0  0  0  0  0  0  0
   -3.1464    1.3160    0.8348 H   0  0  0  0  0  0  0  0  0  0  0  0
   -2.1632    1.3311    2.3110 H   0  0  0  0  0  0  0  0  0  0  0  0
   -1.7647   -0.7485    0.9764 H   0  0  0  0  0  0  0  0  0  0  0  0
   -1.1688   -0.6033   -1.4231 H   0  0  0  0  0  0  0  0  0  0  0  0
   -1.0619    1.1779   -1.3027 H   0  0  0  0  0  0  0  0  0  0  0  0
    1.1829    2.1756   -0.3865 H   0  0  0  0  0  0  0  0  0  0  0  0
    2.4992    1.0616    0.0236 H   0  0  0  0  0  0  0  0  0  0  0  0
    1.8698    1.1109   -1.6380 H   0  0  0  0  0  0  0  0  0  0  0  0
    1.9384   -1.4751    0.4426 H   0  0  0  0  0  0  0  0  0  0  0  0
  1 11  1  0  0  0  0
  2 12  1  1  0  0  0
  2  6  1  0  0  0  0
  2  1  1  0  0  0  0
  3  4  1  0  0  0  0
  3  2  1  0  0  0  0
  4  7  1  6  0  0  0
  4  6  1  0  0  0  0
  5 15  1  0  0  0  0
  5  4  1  0  0  0  0
  5 16  1  0  0  0  0
  7 18  1  0  0  0  0
  8  7  2  0  0  0  0
  9  1  1  0  0  0  0
 10  1  1  0  0  0  0
 13  3  1  0  0  0  0
 14  3  1  0  0  0  0
 17  5  1  0  0  0  0
M  END
