18
title
C -0.8616664 2.9314134 -0.10688814
C -0.8770374 1.4111923 -0.15426719
C 0.16022316 0.687743 -1.0561428
C 0.3853636 -0.3722182 0.0744523
O 1.6998156 -0.7307616 0.35573247
C -0.3102055 0.62639606 1.0604178
C -0.45219037 -1.6054181 -0.14672919
O 0.012152702 -2.7189791 -0.07429148
H 0.1417661 3.3041635 0.1269895
H -1.1629803 3.3622913 -1.0680534
H -1.5468575 3.31243 0.6583693
H -1.8889457 1.0621299 -0.38924307
H -0.15615186 0.33544385 -2.0417995
H 1.0814172 1.2670242 -1.1636841
H 1.7223428 -1.7012647 0.33491382
H 0.47174445 1.1873857 1.5796249
H -1.0097495 0.22410016 1.7983311
H -1.523732 -1.4383982 -0.38035578
