title
 OpenBabel02282109583D

 16 16  0  0  1  0  0  0  0  0999 V2000
    1.7373    1.1164   -2.0738 O   0  0  0  0  0  0  0  0  0  0  0  0
    1.0397    0.2282   -1.2427 C   0  0  1  0  0  0  0  0  0  0  0  0
    1.1718    0.3551    0.2971 C   0  0  0  0  0  0  0  0  0  0  0  0
   -0.3596    0.0462    0.4303 C   0  0  1  0  0  0  0  0  0  0  0  0
   -1.0852    0.8537    1.3014 O   0  0  0  0  0  0  0  0  0  0  0  0
   -0.4984    0.3606   -1.0993 C   0  0  0  0  0  0  0  0  0  0  0  0
   -0.6161   -1.4077    0.7317 C   0  0  0  0  0  0  0  0  0  0  0  0
   -1.3590   -1.7566    1.6184 O   0  0  0  0  0  0  0  0  0  0  0  0
    1.5141    2.0149   -1.8077 H   0  0  0  0  0  0  0  0  0  0  0  0
    1.3242   -0.7706   -1.5867 H   0  0  0  0  0  0  0  0  0  0  0  0
    1.8888   -0.2833    0.8189 H   0  0  0  0  0  0  0  0  0  0  0  0
    1.3287    1.3943    0.6016 H   0  0  0  0  0  0  0  0  0  0  0  0
   -1.5734    0.2479    1.8824 H   0  0  0  0  0  0  0  0  0  0  0  0
   -0.8213    1.4017   -1.1957 H   0  0  0  0  0  0  0  0  0  0  0  0
   -1.1421   -0.2724   -1.7148 H   0  0  0  0  0  0  0  0  0  0  0  0
   -0.0853   -2.1450    0.0948 H   0  0  0  0  0  0  0  0  0  0  0  0
  1  9  1  0  0  0  0
  1  2  1  0  0  0  0
  2 10  1  6  0  0  0
  2  6  1  0  0  0  0
  2  3  1  0  0  0  0
  3  4  1  0  0  0  0
  3 12  1  0  0  0  0
  3 11  1  0  0  0  0
  4  7  1  1  0  0  0
  4  5  1  0  0  0  0
  5 13  1  0  0  0  0
  6  4  1  0  0  0  0
  7  8  2  0  0  0  0
 14  6  1  0  0  0  0
 15  6  1  0  0  0  0
 16  7  1  0  0  0  0
M  END
