17
title
C -0.73515767 1.8420093 -0.3218332
C -0.41705674 0.3609985 -0.29916367
C -1.6193699 -0.5162336 0.036446784
O -2.1270444 -0.22568208 1.3221843
C 0.517724 -0.18540052 -1.403517
C 1.4768625 -0.4440722 -0.26295093
N 2.6250212 -0.93779397 -0.17054158
O 0.64091164 0.07005643 0.70868134
H 0.17722076 2.4343483 -0.429157
H -1.3983976 2.0692148 -1.1632645
H -1.2429309 2.1314144 0.60124546
H -2.4295797 -0.328456 -0.6767483
H -1.3296232 -1.5747015 -0.053757805
H -1.3975303 -0.36016792 1.9393133
H 0.17351276 -1.079289 -1.9278092
H 0.8659466 0.55159193 -2.1291652
H 2.950911 -0.94089234 0.7976115
