title
 OpenBabel02282109583D

 18 18  0  0  0  0  0  0  0  0999 V2000
   -0.7070    1.9789    0.1336 C   0  0  0  0  0  0  0  0  0  0  0  0
   -0.3529    0.4954    0.1343 C   0  0  0  0  0  0  0  0  0  0  0  0
   -1.5825   -0.3760   -0.1045 C   0  0  0  0  0  0  0  0  0  0  0  0
   -2.0941   -0.0792   -1.3944 O   0  0  0  0  0  0  0  0  0  0  0  0
    0.8272    0.0750   -0.8087 C   0  0  0  0  0  0  0  0  0  0  0  0
    1.4754   -0.6285    0.3899 C   0  0  0  0  0  0  0  0  0  0  0  0
    2.3836   -1.3979    0.5135 O   0  0  0  0  0  0  0  0  0  0  0  0
    0.4594   -0.0193    1.3705 C   0  0  0  0  0  0  0  0  0  0  0  0
    0.1857    2.5968    0.2763 H   0  0  0  0  0  0  0  0  0  0  0  0
   -1.1743    2.2618   -0.8132 H   0  0  0  0  0  0  0  0  0  0  0  0
   -1.4104    2.2153    0.9406 H   0  0  0  0  0  0  0  0  0  0  0  0
   -1.3024   -1.4396   -0.0266 H   0  0  0  0  0  0  0  0  0  0  0  0
   -2.3302   -0.1749    0.6804 H   0  0  0  0  0  0  0  0  0  0  0  0
   -2.8630   -0.6343   -1.5527 H   0  0  0  0  0  0  0  0  0  0  0  0
    0.5764   -0.5478   -1.6707 H   0  0  0  0  0  0  0  0  0  0  0  0
    1.4308    0.9202   -1.1570 H   0  0  0  0  0  0  0  0  0  0  0  0
    0.9016    0.7885    1.9635 H   0  0  0  0  0  0  0  0  0  0  0  0
   -0.0332   -0.7184    2.0535 H   0  0  0  0  0  0  0  0  0  0  0  0
  1  2  1  0  0  0  0
  1  9  1  0  0  0  0
  1 11  1  0  0  0  0
  2  8  1  0  0  0  0
  3 12  1  0  0  0  0
  3  2  1  0  0  0  0
  3 13  1  0  0  0  0
  4  3  1  0  0  0  0
  5  2  1  0  0  0  0
  5  6  1  0  0  0  0
  6  7  2  0  0  0  0
  6  8  1  0  0  0  0
  8 17  1  0  0  0  0
  8 18  1  0  0  0  0
 10  1  1  0  0  0  0
 14  4  1  0  0  0  0
 15  5  1  0  0  0  0
 16  5  1  0  0  0  0
M  END
