18
title
C -0.70699966 1.9788631 0.13363674
C -0.35291728 0.495388 0.13430622
C -1.5825247 -0.3760095 -0.1045379
O -2.094109 -0.07920136 -1.3944074
C 0.82715017 0.07503209 -0.8087202
C 1.475357 -0.6284623 0.38990077
O 2.3836272 -1.3978907 0.5135431
C 0.4594182 -0.019343248 1.3704882
H 0.1857272 2.5967526 0.27629074
H -1.1743249 2.2617886 -0.81319976
H -1.410384 2.2152543 0.9406379
H -1.3024048 -1.4396313 -0.02656089
H -2.3302114 -0.17494549 0.68042725
H -2.8629642 -0.6343354 -1.5526799
H 0.5763792 -0.54779685 -1.6707397
H 1.4307911 0.9202364 -1.1569684
H 0.90158397 0.7885411 1.9635164
H -0.03316037 -0.7184073 2.053517
