17
title
C -0.30618265 1.9564946 -0.17613503
C -0.34637842 0.43259215 -0.20759769
C -1.7600689 -0.111305274 0.014353739
O -2.2633584 0.22004788 1.2980937
C 0.4332053 -0.24698892 -1.3774217
C 1.4164567 -0.7447917 -0.29312173
O 2.46222 -1.333148 -0.27631387
N 0.6299544 -0.21307227 0.7104946
H 0.719101 2.3253458 -0.27186534
H -0.90072364 2.3733873 -0.9955731
H -0.7297879 2.3240252 0.76294047
H -2.4482675 0.33585316 -0.7113631
H -1.7595383 -1.1993841 -0.14414863
H -1.7777103 -0.31168506 1.9377475
H -0.09933906 -1.0367993 -1.9120561
H 0.8852334 0.440419 -2.0945413
H 0.90909696 0.05323922 1.6452862
