16
title
C -0.6745434 1.8696239 -0.31254888
C -0.41118208 0.377725 -0.3043635
C -1.6476583 -0.46193978 0.0022253105
O -2.1787043 -0.15869093 1.2742753
C 0.52004623 -0.18599859 -1.3976352
C 1.4604456 -0.4850481 -0.23165025
O 2.5297854 -0.9744179 -0.06358371
O 0.62134963 0.039024845 0.71923167
H 0.259663 2.4301558 -0.4013153
H -1.3194615 2.1309264 -1.1580164
H -1.1820109 2.1654637 0.60834
H -2.433043 -0.24647006 -0.730519
H -1.3891321 -1.5287954 -0.08524734
H -1.4789095 -0.33343813 1.9152884
H 0.16769904 -1.0716327 -1.9306815
H 0.91196424 0.54073733 -2.1111894
