title
 OpenBabel02282109583D

 19 19  0  0  1  0  0  0  0  0999 V2000
   -1.2022    2.2734   -0.8432 C   0  0  0  0  0  0  0  0  0  0  0  0
   -1.4005    0.7632   -0.6806 C   0  0  0  0  0  0  0  0  0  0  0  0
   -0.4842    0.1144    0.3537 C   0  0  1  0  0  0  0  0  0  0  0  0
   -0.6472    0.6425    1.7685 C   0  0  0  0  0  0  0  0  0  0  0  0
   -0.3417   -1.4249    0.2254 C   0  0  0  0  0  0  0  0  0  0  0  0
    1.0737   -1.1111   -0.2028 C   0  0  0  0  0  0  0  0  0  0  0  0
    2.0620   -1.7994   -0.5557 N   0  0  0  0  0  0  0  0  0  0  0  0
    0.9338    0.2520   -0.0747 O   0  0  0  0  0  0  0  0  0  0  0  0
   -0.1537    2.5007   -1.0569 H   0  0  0  0  0  0  0  0  0  0  0  0
   -1.8068    2.6514   -1.6725 H   0  0  0  0  0  0  0  0  0  0  0  0
   -1.4945    2.8261    0.0545 H   0  0  0  0  0  0  0  0  0  0  0  0
   -2.4390    0.5412   -0.4026 H   0  0  0  0  0  0  0  0  0  0  0  0
   -1.2232    0.2696   -1.6434 H   0  0  0  0  0  0  0  0  0  0  0  0
   -1.6719    0.4788    2.1188 H   0  0  0  0  0  0  0  0  0  0  0  0
    0.0365    0.1299    2.4507 H   0  0  0  0  0  0  0  0  0  0  0  0
   -0.4350    1.7135    1.8169 H   0  0  0  0  0  0  0  0  0  0  0  0
   -0.4215   -1.9893    1.1563 H   0  0  0  0  0  0  0  0  0  0  0  0
   -0.9586   -1.8976   -0.5413 H   0  0  0  0  0  0  0  0  0  0  0  0
    2.8637   -1.2041   -0.7727 H   0  0  0  0  0  0  0  0  0  0  0  0
  1  2  1  0  0  0  0
  1 11  1  0  0  0  0
  2 12  1  0  0  0  0
  3  2  1  6  0  0  0
  3  4  1  0  0  0  0
  4 16  1  0  0  0  0
  4 14  1  0  0  0  0
  4 15  1  0  0  0  0
  5  3  1  0  0  0  0
  5 17  1  0  0  0  0
  6  8  1  0  0  0  0
  6  5  1  0  0  0  0
  7  6  2  0  0  0  0
  8  3  1  0  0  0  0
  9  1  1  0  0  0  0
 10  1  1  0  0  0  0
 13  2  1  0  0  0  0
 18  5  1  0  0  0  0
 19  7  1  0  0  0  0
M  END
