title
 OpenBabel02282109583D

 19 19  0  0  1  0  0  0  0  0999 V2000
   -0.4783    2.1968    1.6402 C   0  0  0  0  0  0  0  0  0  0  0  0
   -0.2411    0.6833    1.6226 C   0  0  0  0  0  0  0  0  0  0  0  0
    0.4531    0.1554    0.3594 C   0  0  1  0  0  0  0  0  0  0  0  0
    1.8679    0.7031    0.1720 C   0  0  0  0  0  0  0  0  0  0  0  0
    0.3320   -1.3938    0.1681 C   0  0  0  0  0  0  0  0  0  0  0  0
   -0.4966   -1.0724   -1.0976 C   0  0  0  0  0  0  0  0  0  0  0  0
   -1.0321   -1.7050   -1.9682 O   0  0  0  0  0  0  0  0  0  0  0  0
   -0.3843    0.2744   -0.8579 N   0  0  0  0  0  0  0  0  0  0  0  0
    0.4587    2.7617    1.6419 H   0  0  0  0  0  0  0  0  0  0  0  0
   -1.0630    2.5152    0.7699 H   0  0  0  0  0  0  0  0  0  0  0  0
   -1.0382    2.4888    2.5333 H   0  0  0  0  0  0  0  0  0  0  0  0
    0.3593    0.3918    2.4938 H   0  0  0  0  0  0  0  0  0  0  0  0
   -1.2042    0.1687    1.7181 H   0  0  0  0  0  0  0  0  0  0  0  0
    2.4884    0.4772    1.0456 H   0  0  0  0  0  0  0  0  0  0  0  0
    2.3388    0.2586   -0.7095 H   0  0  0  0  0  0  0  0  0  0  0  0
    1.8644    1.7894    0.0378 H   0  0  0  0  0  0  0  0  0  0  0  0
    1.2697   -1.9144   -0.0358 H   0  0  0  0  0  0  0  0  0  0  0  0
   -0.2201   -1.9214    0.9484 H   0  0  0  0  0  0  0  0  0  0  0  0
   -0.6568    1.0708   -1.4160 H   0  0  0  0  0  0  0  0  0  0  0  0
  1  9  1  0  0  0  0
  1 11  1  0  0  0  0
  2  1  1  0  0  0  0
  2 13  1  0  0  0  0
  2 12  1  0  0  0  0
  3  4  1  6  0  0  0
  3  2  1  0  0  0  0
  4 14  1  0  0  0  0
  5  3  1  0  0  0  0
  5 18  1  0  0  0  0
  6  8  1  0  0  0  0
  6  5  1  0  0  0  0
  7  6  2  0  0  0  0
  8  3  1  0  0  0  0
 10  1  1  0  0  0  0
 15  4  1  0  0  0  0
 16  4  1  0  0  0  0
 17  5  1  0  0  0  0
 19  8  1  0  0  0  0
M  END
