18
title
C 1.1554792 2.355767 0.58509994
O 1.2055933 0.95317894 0.73808664
C 0.0052877385 0.26152432 0.4609004
C -1.1328248 0.62753755 1.4109503
C -0.4177449 0.23849078 -1.0551031
C -0.38843694 -1.2943417 -0.9737503
O -0.80900824 -2.1675112 -1.6756895
C 0.29426762 -1.2678162 0.39825833
H 2.1796339 2.72063 0.6936239
H 0.7822261 2.6477518 -0.4079015
H 0.53059965 2.8412402 1.3470353
H -1.4622737 1.6619552 1.2749124
H -1.9998254 -0.01679461 1.2347642
H -0.8140527 0.497288 2.4498115
H -1.3659824 0.6956805 -1.348448
H 0.38115963 0.61266 -1.7039003
H 1.3695664 -1.4557017 0.31847954
H -0.12880507 -1.9070607 1.1766914
