16
title
O 1.555548 1.9968864 0.04979177
C 1.5159465 0.5870976 0.24700516
C 0.055766355 0.23813187 0.4973987
O -0.426381 0.95204675 1.609586
C -0.8300587 0.3025356 -0.79870737
C -0.8370179 -1.2315083 -0.7957475
O -1.1365765 -2.0653002 -1.6001647
C -0.21389602 -1.2866212 0.6079432
H 2.4705684 2.2901592 0.074470386
H 1.8994592 0.045736868 -0.630942
H 2.1088142 0.29087082 1.1244457
H -0.099367015 1.8554078 1.5049897
H -1.8213435 0.7085774 -0.5738023
H -0.42673063 0.8006047 -1.6832566
H 0.63601154 -1.9596741 0.75093496
H -0.9647685 -1.4895906 1.3782068
