20
title
C -1.0035678 1.8374467 0.103105746
C -0.47812265 0.4053722 0.1067938
C -1.6095364 -0.58869886 -0.14755683
O -2.1408296 -0.34173828 -1.4420648
C 0.7604601 0.10982893 -0.7982013
C 1.3827771 -0.702957 0.36740243
O 2.7627528 -0.6183407 0.6232332
C 0.37711275 -0.027599698 1.339073
H -0.19140443 2.554585 0.26074076
H -1.4894159 2.0692058 -0.8486472
H -1.7405216 1.9870325 0.9018258
H -1.2317569 -1.6204646 -0.07002169
H -2.381426 -0.4635334 0.63026226
H -2.8584845 -0.9618307 -1.598894
H 0.57911545 -0.39583075 -1.748677
H 1.3383682 1.0211244 -0.98998535
H 1.1792742 -1.7722578 0.26359344
H 2.9934757 0.3138753 0.6960117
H 0.83005637 0.8417071 1.8288277
H -0.096072935 -0.6487818 2.105922
