title
 OpenBabel02282109583D

 20 20  0  0  1  0  0  0  0  0999 V2000
   -0.5185    2.6151    0.1690 C   0  0  0  0  0  0  0  0  0  0  0  0
   -1.0982    1.2215    0.0283 C   0  0  1  0  0  0  0  0  0  0  0  0
   -0.7794    0.4183   -1.2519 C   0  0  0  0  0  0  0  0  0  0  0  0
   -0.1023   -0.5956   -0.3011 C   0  0  1  0  0  0  0  0  0  0  0  0
   -0.7604   -1.9603   -0.1770 C   0  0  0  0  0  0  0  0  0  0  0  0
    1.4223   -0.6926   -0.3988 C   0  0  0  0  0  0  0  0  0  0  0  0
    1.9637   -1.1561    0.8214 O   0  0  0  0  0  0  0  0  0  0  0  0
   -0.4163    0.2432    0.8579 O   0  0  0  0  0  0  0  0  0  0  0  0
    0.5414    2.6313   -0.1036 H   0  0  0  0  0  0  0  0  0  0  0  0
   -1.0545    3.3178   -0.4788 H   0  0  0  0  0  0  0  0  0  0  0  0
   -0.6124    2.9647    1.2021 H   0  0  0  0  0  0  0  0  0  0  0  0
   -2.1677    1.2373    0.2773 H   0  0  0  0  0  0  0  0  0  0  0  0
   -1.6436    0.0380   -1.7986 H   0  0  0  0  0  0  0  0  0  0  0  0
   -0.1031    0.9183   -1.9501 H   0  0  0  0  0  0  0  0  0  0  0  0
   -0.6368   -2.5297   -1.1050 H   0  0  0  0  0  0  0  0  0  0  0  0
   -0.2967   -2.5238    0.6369 H   0  0  0  0  0  0  0  0  0  0  0  0
   -1.8296   -1.8574    0.0278 H   0  0  0  0  0  0  0  0  0  0  0  0
    1.7186   -1.4038   -1.1783 H   0  0  0  0  0  0  0  0  0  0  0  0
    1.8331    0.2936   -0.6689 H   0  0  0  0  0  0  0  0  0  0  0  0
    1.5748   -0.5890    1.5006 H   0  0  0  0  0  0  0  0  0  0  0  0
  1 11  1  0  0  0  0
  2  1  1  0  0  0  0
  2 12  1  1  0  0  0
  2  8  1  0  0  0  0
  3  4  1  0  0  0  0
  3  2  1  0  0  0  0
  4  6  1  6  0  0  0
  4  5  1  0  0  0  0
  4  8  1  0  0  0  0
  5 17  1  0  0  0  0
  5 16  1  0  0  0  0
  6  7  1  0  0  0  0
  7 20  1  0  0  0  0
  9  1  1  0  0  0  0
 10  1  1  0  0  0  0
 13  3  1  0  0  0  0
 14  3  1  0  0  0  0
 15  5  1  0  0  0  0
 18  6  1  0  0  0  0
 19  6  1  0  0  0  0
M  END
