20
title
C -0.6642241 2.6286092 -0.18756025
C -1.2665749 1.2367845 -0.34814274
C -0.55128205 0.29600042 -1.3682784
C -0.011961121 -0.56205976 -0.1886532
O -0.19635119 -1.9703549 -0.26267144
C 1.4799544 -0.39802063 0.08329898
O 1.8545679 -1.0258228 1.2916461
C -0.93733585 0.2176605 0.78743714
H 0.41334507 2.5865998 0.0057562855
H -0.8142331 3.2291954 -1.0915445
H -1.1271555 3.1621778 0.6498105
H -2.3391788 1.3358076 -0.5375845
H -1.2436583 -0.27129853 -1.9967111
H 0.2026063 0.7544227 -2.0170376
H -1.1382401 -2.1592104 -0.21369201
H 2.0344863 -0.8066442 -0.7779366
H 1.7384139 0.6608188 0.17560774
H 1.4688183 -1.9094616 1.2480198
H -0.45476988 0.60620713 1.6880577
H -1.8071578 -0.37259352 1.0950869
