title
 OpenBabel02282109583D

 20 20  0  0  1  0  0  0  0  0999 V2000
   -0.6642    2.6286   -0.1876 C   0  0  0  0  0  0  0  0  0  0  0  0
   -1.2666    1.2368   -0.3481 C   0  0  1  0  0  0  0  0  0  0  0  0
   -0.5513    0.2960   -1.3683 C   0  0  0  0  0  0  0  0  0  0  0  0
   -0.0120   -0.5621   -0.1887 C   0  0  1  0  0  0  0  0  0  0  0  0
   -0.1964   -1.9704   -0.2627 O   0  0  0  0  0  0  0  0  0  0  0  0
    1.4800   -0.3980    0.0833 C   0  0  0  0  0  0  0  0  0  0  0  0
    1.8546   -1.0258    1.2916 O   0  0  0  0  0  0  0  0  0  0  0  0
   -0.9373    0.2177    0.7874 C   0  0  0  0  0  0  0  0  0  0  0  0
    0.4133    2.5866    0.0058 H   0  0  0  0  0  0  0  0  0  0  0  0
   -0.8142    3.2292   -1.0915 H   0  0  0  0  0  0  0  0  0  0  0  0
   -1.1272    3.1622    0.6498 H   0  0  0  0  0  0  0  0  0  0  0  0
   -2.3392    1.3358   -0.5376 H   0  0  0  0  0  0  0  0  0  0  0  0
   -1.2437   -0.2713   -1.9967 H   0  0  0  0  0  0  0  0  0  0  0  0
    0.2026    0.7544   -2.0170 H   0  0  0  0  0  0  0  0  0  0  0  0
   -1.1382   -2.1592   -0.2137 H   0  0  0  0  0  0  0  0  0  0  0  0
    2.0345   -0.8066   -0.7779 H   0  0  0  0  0  0  0  0  0  0  0  0
    1.7384    0.6608    0.1756 H   0  0  0  0  0  0  0  0  0  0  0  0
    1.4688   -1.9095    1.2480 H   0  0  0  0  0  0  0  0  0  0  0  0
   -0.4548    0.6062    1.6881 H   0  0  0  0  0  0  0  0  0  0  0  0
   -1.8072   -0.3726    1.0951 H   0  0  0  0  0  0  0  0  0  0  0  0
  1  9  1  0  0  0  0
  1 11  1  0  0  0  0
  2 12  1  6  0  0  0
  2  1  1  0  0  0  0
  2  8  1  0  0  0  0
  3  2  1  0  0  0  0
  3  4  1  0  0  0  0
  4  5  1  6  0  0  0
  4  6  1  0  0  0  0
  4  8  1  0  0  0  0
  5 15  1  0  0  0  0
  6 17  1  0  0  0  0
  6  7  1  0  0  0  0
  8 20  1  0  0  0  0
  8 19  1  0  0  0  0
 10  1  1  0  0  0  0
 13  3  1  0  0  0  0
 14  3  1  0  0  0  0
 16  6  1  0  0  0  0
 18  7  1  0  0  0  0
M  END
