title
 OpenBabel02282109583D

 22 22  0  0  1  0  0  0  0  0999 V2000
   -1.2425    2.5348    0.6659 C   0  0  0  0  0  0  0  0  0  0  0  0
   -1.4346    1.0145    0.6155 C   0  0  0  0  0  0  0  0  0  0  0  0
   -0.4493    0.2674   -0.2910 C   0  0  1  0  0  0  0  0  0  0  0  0
   -0.5988    0.6729   -1.7616 C   0  0  0  0  0  0  0  0  0  0  0  0
    1.0463    0.2685    0.1719 C   0  0  0  0  0  0  0  0  0  0  0  0
    1.1084   -1.2508   -0.1333 C   0  0  1  0  0  0  0  0  0  0  0  0
    1.8363   -2.1074    0.7114 O   0  0  0  0  0  0  0  0  0  0  0  0
   -0.4418   -1.2874   -0.1229 C   0  0  0  0  0  0  0  0  0  0  0  0
   -0.2236    2.7953    0.9730 H   0  0  0  0  0  0  0  0  0  0  0  0
   -1.4263    3.0034   -0.3057 H   0  0  0  0  0  0  0  0  0  0  0  0
   -1.9312    2.9898    1.3845 H   0  0  0  0  0  0  0  0  0  0  0  0
   -1.3417    0.6125    1.6330 H   0  0  0  0  0  0  0  0  0  0  0  0
   -2.4596    0.7849    0.2924 H   0  0  0  0  0  0  0  0  0  0  0  0
   -0.3667    1.7317   -1.9147 H   0  0  0  0  0  0  0  0  0  0  0  0
    0.0721    0.0971   -2.4071 H   0  0  0  0  0  0  0  0  0  0  0  0
   -1.6231    0.4989   -2.1117 H   0  0  0  0  0  0  0  0  0  0  0  0
    1.7498    0.9254   -0.3465 H   0  0  0  0  0  0  0  0  0  0  0  0
    1.1291    0.4497    1.2503 H   0  0  0  0  0  0  0  0  0  0  0  0
    1.5037   -1.4377   -1.1354 H   0  0  0  0  0  0  0  0  0  0  0  0
    1.5144   -1.9800    1.6101 H   0  0  0  0  0  0  0  0  0  0  0  0
   -0.8168   -1.5827    0.8642 H   0  0  0  0  0  0  0  0  0  0  0  0
   -0.9481   -1.8898   -0.8823 H   0  0  0  0  0  0  0  0  0  0  0  0
  1  9  1  0  0  0  0
  1 11  1  0  0  0  0
  2  1  1  0  0  0  0
  2 12  1  0  0  0  0
  3  4  1  6  0  0  0
  3  8  1  0  0  0  0
  3  5  1  0  0  0  0
  3  2  1  0  0  0  0
  5 18  1  0  0  0  0
  6 19  1  6  0  0  0
  6  8  1  0  0  0  0
  6  5  1  0  0  0  0
  6  7  1  0  0  0  0
  7 20  1  0  0  0  0
  8 21  1  0  0  0  0
 10  1  1  0  0  0  0
 13  2  1  0  0  0  0
 14  4  1  0  0  0  0
 15  4  1  0  0  0  0
 16  4  1  0  0  0  0
 17  5  1  0  0  0  0
 22  8  1  0  0  0  0
M  END
