title
 OpenBabel02282109583D

 19 19  0  0  0  0  0  0  0  0999 V2000
   -1.4298    2.5694   -0.3570 C   0  0  0  0  0  0  0  0  0  0  0  0
   -1.1703    1.1480   -0.3324 N   0  0  0  0  0  0  0  0  0  0  0  0
   -0.1523    0.5908   -1.2473 C   0  0  0  0  0  0  0  0  0  0  0  0
    0.2016   -0.4374   -0.1402 C   0  0  0  0  0  0  0  0  0  0  0  0
   -0.5147   -1.6584   -0.2577 O   0  0  0  0  0  0  0  0  0  0  0  0
    1.6466   -0.8321    0.0902 C   0  0  0  0  0  0  0  0  0  0  0  0
    1.7747   -1.6156    1.2610 O   0  0  0  0  0  0  0  0  0  0  0  0
   -0.4694    0.5689    0.8332 C   0  0  0  0  0  0  0  0  0  0  0  0
   -0.5170    3.1781   -0.2108 H   0  0  0  0  0  0  0  0  0  0  0  0
   -1.8753    2.8506   -1.3172 H   0  0  0  0  0  0  0  0  0  0  0  0
   -2.1418    2.8311    0.4330 H   0  0  0  0  0  0  0  0  0  0  0  0
   -0.5351    0.1936   -2.1933 H   0  0  0  0  0  0  0  0  0  0  0  0
    0.6802    1.2859   -1.4524 H   0  0  0  0  0  0  0  0  0  0  0  0
   -1.4526   -1.4408   -0.3032 H   0  0  0  0  0  0  0  0  0  0  0  0
    2.0155   -1.3677   -0.8001 H   0  0  0  0  0  0  0  0  0  0  0  0
    2.2647    0.0598    0.2281 H   0  0  0  0  0  0  0  0  0  0  0  0
    1.0980   -2.2997    1.1884 H   0  0  0  0  0  0  0  0  0  0  0  0
    0.2651    1.2523    1.2900 H   0  0  0  0  0  0  0  0  0  0  0  0
   -1.1163    0.1607    1.6171 H   0  0  0  0  0  0  0  0  0  0  0  0
  1  2  1  0  0  0  0
  1  9  1  0  0  0  0
  1 11  1  0  0  0  0
  2  8  1  0  0  0  0
  3  2  1  0  0  0  0
  3  4  1  0  0  0  0
  4  6  1  0  0  0  0
  4  8  1  0  0  0  0
  5  4  1  0  0  0  0
  6 16  1  0  0  0  0
  6  7  1  0  0  0  0
  8 18  1  0  0  0  0
  8 19  1  0  0  0  0
 10  1  1  0  0  0  0
 12  3  1  0  0  0  0
 13  3  1  0  0  0  0
 14  5  1  0  0  0  0
 15  6  1  0  0  0  0
 17  7  1  0  0  0  0
M  END
