21
title
C 1.3409586 2.2351441 0.37742984
O 1.2469546 0.8428914 0.58086675
C -0.05827564 0.29167444 0.53157675
C -0.9677884 0.84299 1.6215106
C -0.6405323 0.20062067 -0.91505784
N -0.11186391 -1.1700683 -1.0188261
C -0.9200508 -2.177033 -1.66229
C 0.09064978 -1.2475102 0.4390868
H 2.4056802 2.4692707 0.30017498
H 0.8471324 2.5554783 -0.55169284
H 0.9182733 2.8145757 1.2104225
H -1.2027745 1.8998561 1.4597898
H -1.9140432 0.2961259 1.646081
H -0.48596817 0.74525195 2.6000235
H -1.7421751 0.25412226 -0.9206595
H -0.25021833 0.89937 -1.6633798
H -1.038774 -1.9368238 -2.7244897
H -0.42507523 -3.1518888 -1.5940853
H -1.9321895 -2.2778394 -1.2211068
H 1.0609168 -1.6470501 0.7505544
H -0.71496934 -1.778101 0.9722746
