18
title
O 1.5253882 1.8657304 -0.034534693
C 1.3769081 0.4613275 0.17674294
C -0.081235744 0.24454091 0.5599631
O -0.4008405 1.0347546 1.6808426
C -1.058806 0.31536046 -0.65862
C -1.0715559 -1.2289447 -0.7028996
O -0.17617914 -1.6752485 -1.7115487
C -0.4635552 -1.2448337 0.729429
H 2.4598594 2.065306 -0.13501239
H 1.6192915 -0.114645876 -0.7245469
H 2.01679 0.119624875 1.0047951
H 0.03518822 1.8849041 1.5345778
H -2.021831 0.72456264 -0.3468727
H -0.7134578 0.8169812 -1.5643932
H -2.051449 -1.7088107 -0.815652
H -0.040162183 -2.6203115 -1.586888
H 0.34197524 -1.9614507 0.920237
H -1.2292721 -1.345035 1.5026952
