19
title
C 1.0445782 2.466341 -0.5715262
C 0.9223316 0.9756315 -0.37406394
N 1.7785932 0.07381134 -0.6284966
O -0.2950156 0.69066536 0.14532785
C -0.6280115 -0.667823 0.41446748
C 0.052848905 -1.2403529 1.6333729
C -2.068757 -0.97037524 0.12186532
C -0.97219604 -1.5195327 -0.76972693
H 0.24592957 2.8271477 -1.2267768
H 0.93208337 2.9826365 0.38680568
H 2.0109437 2.7262206 -1.0064096
H 2.6226504 0.4909192 -1.0147831
H -0.14164156 -0.6134607 2.5102882
H -0.33277217 -2.2426662 1.84114
H 1.1309955 -1.3085403 1.4754933
H -2.593054 -1.646141 0.7886424
H -2.6704319 -0.15839 -0.27003047
H -0.8534663 -1.0770688 -1.7510915
H -0.7323749 -2.5758748 -0.7207901
