title
 OpenBabel02282109583D

 20 20  0  0  0  0  0  0  0  0999 V2000
    1.1843    1.3551   -1.6789 C   0  0  0  0  0  0  0  0  0  0  0  0
    1.0848    1.0338   -0.1989 C   0  0  0  0  0  0  0  0  0  0  0  0
    2.0692    0.9042    0.4934 O   0  0  0  0  0  0  0  0  0  0  0  0
   -0.3188    0.8534    0.3800 C   0  0  0  0  0  0  0  0  0  0  0  0
   -0.7569   -0.6136    0.3759 C   0  0  0  0  0  0  0  0  0  0  0  0
    0.0910   -1.5415    1.2267 C   0  0  0  0  0  0  0  0  0  0  0  0
   -2.2416   -0.8841    0.3180 C   0  0  0  0  0  0  0  0  0  0  0  0
   -1.3767   -1.1692   -0.8875 C   0  0  0  0  0  0  0  0  0  0  0  0
    0.6419    0.6082   -2.2688 H   0  0  0  0  0  0  0  0  0  0  0  0
    0.7135    2.3238   -1.8842 H   0  0  0  0  0  0  0  0  0  0  0  0
    2.2304    1.3845   -1.9862 H   0  0  0  0  0  0  0  0  0  0  0  0
   -0.2978    1.2217    1.4116 H   0  0  0  0  0  0  0  0  0  0  0  0
   -1.0413    1.4508   -0.1865 H   0  0  0  0  0  0  0  0  0  0  0  0
    0.0734   -1.2310    2.2777 H   0  0  0  0  0  0  0  0  0  0  0  0
   -0.2853   -2.5677    1.1732 H   0  0  0  0  0  0  0  0  0  0  0  0
    1.1367   -1.5429    0.9065 H   0  0  0  0  0  0  0  0  0  0  0  0
   -2.6241   -1.7268    0.8844 H   0  0  0  0  0  0  0  0  0  0  0  0
   -2.9200   -0.0388    0.2690 H   0  0  0  0  0  0  0  0  0  0  0  0
   -1.4846   -0.5166   -1.7477 H   0  0  0  0  0  0  0  0  0  0  0  0
   -1.1753   -2.2041   -1.1432 H   0  0  0  0  0  0  0  0  0  0  0  0
  1  2  1  0  0  0  0
  2  4  1  0  0  0  0
  2  3  2  0  0  0  0
  4 12  1  0  0  0  0
  5  4  1  0  0  0  0
  5  6  1  0  0  0  0
  6 14  1  0  0  0  0
  7  5  1  0  0  0  0
  7 17  1  0  0  0  0
  8  7  1  0  0  0  0
  8  5  1  0  0  0  0
  9  1  1  0  0  0  0
 10  1  1  0  0  0  0
 11  1  1  0  0  0  0
 13  4  1  0  0  0  0
 15  6  1  0  0  0  0
 16  6  1  0  0  0  0
 18  7  1  0  0  0  0
 19  8  1  0  0  0  0
 20  8  1  0  0  0  0
M  END
