19
title
C 0.42153695 2.1904151 -0.05026396
C -0.80346525 1.3022592 0.08239583
O -1.7685174 1.6384603 0.7283361
C -0.7659998 -0.047996514 -0.6405949
C 0.27535847 -1.0081531 -0.073776685
C 0.10305737 -1.3544885 1.3917207
C 0.8689063 -2.0154645 -0.99001116
N 1.6819791 -0.8788384 -0.5110943
H 1.3121051 1.6735327 0.32330272
H 0.6072711 2.4260354 -1.1049299
H 0.26825458 3.11479 0.50759256
H -1.7663642 -0.48295867 -0.55377036
H -0.5587651 0.12279213 -1.7052059
H -0.85719115 -1.8532015 1.5614771
H 0.9065517 -2.0168936 1.7211351
H 0.12552007 -0.45776367 2.0202248
H 1.1684905 -2.9859662 -0.60371417
H 0.5471856 -2.0241535 -2.0283413
H 1.7600428 -0.18726957 -1.2531493
