title
 OpenBabel02282109583D

 19 19  0  0  1  0  0  0  0  0999 V2000
    0.4215    2.1904   -0.0503 C   0  0  0  0  0  0  0  0  0  0  0  0
   -0.8035    1.3023    0.0824 C   0  0  0  0  0  0  0  0  0  0  0  0
   -1.7685    1.6385    0.7283 O   0  0  0  0  0  0  0  0  0  0  0  0
   -0.7660   -0.0480   -0.6406 C   0  0  0  0  0  0  0  0  0  0  0  0
    0.2754   -1.0082   -0.0738 C   0  0  1  0  0  0  0  0  0  0  0  0
    0.1031   -1.3545    1.3917 C   0  0  0  0  0  0  0  0  0  0  0  0
    0.8689   -2.0155   -0.9900 C   0  0  0  0  0  0  0  0  0  0  0  0
    1.6820   -0.8788   -0.5111 N   0  0  0  0  0  0  0  0  0  0  0  0
    1.3121    1.6735    0.3233 H   0  0  0  0  0  0  0  0  0  0  0  0
    0.6073    2.4260   -1.1049 H   0  0  0  0  0  0  0  0  0  0  0  0
    0.2683    3.1148    0.5076 H   0  0  0  0  0  0  0  0  0  0  0  0
   -1.7664   -0.4830   -0.5538 H   0  0  0  0  0  0  0  0  0  0  0  0
   -0.5588    0.1228   -1.7052 H   0  0  0  0  0  0  0  0  0  0  0  0
   -0.8572   -1.8532    1.5615 H   0  0  0  0  0  0  0  0  0  0  0  0
    0.9066   -2.0169    1.7211 H   0  0  0  0  0  0  0  0  0  0  0  0
    0.1255   -0.4578    2.0202 H   0  0  0  0  0  0  0  0  0  0  0  0
    1.1685   -2.9860   -0.6037 H   0  0  0  0  0  0  0  0  0  0  0  0
    0.5472   -2.0242   -2.0283 H   0  0  0  0  0  0  0  0  0  0  0  0
    1.7600   -0.1873   -1.2531 H   0  0  0  0  0  0  0  0  0  0  0  0
  1  2  1  0  0  0  0
  1  9  1  0  0  0  0
  1 11  1  0  0  0  0
  2  3  2  0  0  0  0
  4 12  1  0  0  0  0
  4  2  1  0  0  0  0
  5  4  1  6  0  0  0
  5  6  1  0  0  0  0
  6 14  1  0  0  0  0
  6 15  1  0  0  0  0
  6 16  1  0  0  0  0
  7 17  1  0  0  0  0
  7  8  1  0  0  0  0
  7  5  1  0  0  0  0
  8  5  1  0  0  0  0
 10  1  1  0  0  0  0
 13  4  1  0  0  0  0
 18  7  1  0  0  0  0
 19  8  1  0  0  0  0
M  END
