19
title
C 1.0754212 2.5775156 -0.37877676
C 0.88063073 1.0677298 -0.33110783
O 1.7454046 0.28669316 -0.6812543
N -0.33899298 0.6597594 0.1427627
C -0.6525407 -0.72563404 0.39102057
C 0.047535744 -1.3377789 1.5885583
C -2.0656931 -1.135279 0.05561094
C -0.91901565 -1.5776747 -0.82185286
H 0.13479522 3.1344688 -0.4087536
H 1.6379179 2.8960676 0.50522655
H 1.6728987 2.8237748 -1.2578616
H -0.95730555 1.3549973 0.5302877
H -0.2090021 -0.80372685 2.5107534
H -0.24066088 -2.3857617 1.7139608
H 1.1309899 -1.2930952 1.4488883
H -2.5427315 -1.866495 0.69896334
H -2.7349536 -0.37638718 -0.33582017
H -0.81174344 -1.1090769 -1.7919044
H -0.60653895 -2.6149943 -0.78363484
