title
 OpenBabel02282109583D

 19 19  0  0  0  0  0  0  0  0999 V2000
    1.0754    2.5775   -0.3788 C   0  0  0  0  0  0  0  0  0  0  0  0
    0.8806    1.0677   -0.3311 C   0  0  0  0  0  0  0  0  0  0  0  0
    1.7454    0.2867   -0.6813 O   0  0  0  0  0  0  0  0  0  0  0  0
   -0.3390    0.6598    0.1428 N   0  0  0  0  0  0  0  0  0  0  0  0
   -0.6525   -0.7256    0.3910 C   0  0  0  0  0  0  0  0  0  0  0  0
    0.0475   -1.3378    1.5886 C   0  0  0  0  0  0  0  0  0  0  0  0
   -2.0657   -1.1353    0.0556 C   0  0  0  0  0  0  0  0  0  0  0  0
   -0.9190   -1.5777   -0.8219 C   0  0  0  0  0  0  0  0  0  0  0  0
    0.1348    3.1345   -0.4088 H   0  0  0  0  0  0  0  0  0  0  0  0
    1.6379    2.8961    0.5052 H   0  0  0  0  0  0  0  0  0  0  0  0
    1.6729    2.8238   -1.2579 H   0  0  0  0  0  0  0  0  0  0  0  0
   -0.9573    1.3550    0.5303 H   0  0  0  0  0  0  0  0  0  0  0  0
   -0.2090   -0.8037    2.5108 H   0  0  0  0  0  0  0  0  0  0  0  0
   -0.2407   -2.3858    1.7140 H   0  0  0  0  0  0  0  0  0  0  0  0
    1.1310   -1.2931    1.4489 H   0  0  0  0  0  0  0  0  0  0  0  0
   -2.5427   -1.8665    0.6990 H   0  0  0  0  0  0  0  0  0  0  0  0
   -2.7350   -0.3764   -0.3358 H   0  0  0  0  0  0  0  0  0  0  0  0
   -0.8117   -1.1091   -1.7919 H   0  0  0  0  0  0  0  0  0  0  0  0
   -0.6065   -2.6150   -0.7836 H   0  0  0  0  0  0  0  0  0  0  0  0
  1  2  1  0  0  0  0
  1 10  1  0  0  0  0
  2  4  1  0  0  0  0
  3  2  2  0  0  0  0
  4  5  1  0  0  0  0
  4 12  1  0  0  0  0
  5  6  1  0  0  0  0
  6 14  1  0  0  0  0
  6 13  1  0  0  0  0
  7  5  1  0  0  0  0
  7 16  1  0  0  0  0
  8 19  1  0  0  0  0
  8  7  1  0  0  0  0
  8  5  1  0  0  0  0
  9  1  1  0  0  0  0
 11  1  1  0  0  0  0
 15  6  1  0  0  0  0
 17  7  1  0  0  0  0
 18  8  1  0  0  0  0
M  END
