18
title
C 1.0426527 2.4661157 -0.55898196
C 0.89851546 0.97653455 -0.35198146
O 1.7435007 0.15268072 -0.58807975
O -0.3306634 0.6929964 0.14630204
C -0.6360751 -0.67823416 0.40641075
C 0.055112332 -1.2353265 1.6260469
C -2.0621119 -1.0205863 0.09353299
C -0.9392535 -1.5308533 -0.7888041
H 0.25385788 2.8334606 -1.2213078
H 0.9323858 2.9878612 0.3960895
H 2.021217 2.6795177 -0.987191
H -0.16412422 -0.6211129 2.5058715
H -0.29695824 -2.251322 1.8256159
H 1.1365759 -1.2678485 1.4760419
H -2.5735836 -1.7170634 0.7486398
H -2.6836915 -0.22463694 -0.2999615
H -0.8252706 -1.0794094 -1.7669303
H -0.6694668 -2.5800617 -0.74369675
