19
title
C 1.1506203 1.5975199 0.16943364
C 1.0461735 0.11918956 -0.16170219
C -0.24186012 -0.2933007 -0.85970354
C -1.549099 -0.04821041 -0.09662109
N -1.5004494 -0.2982381 1.2455772
O -2.5700772 0.29598972 -0.65857184
C 2.3103297 -0.591845 -0.5749392
C 1.7063929 -0.87271535 0.78061473
H 2.1045408 1.8274167 0.65380186
H 1.0815529 2.2055435 -0.73972374
H 0.34680495 1.9154283 0.84220785
H -0.35145363 0.23562972 -1.8111283
H -0.20670924 -1.3640565 -1.0980481
H -0.6317043 -0.48118502 1.7162559
H -2.3278189 -0.11698244 1.789617
H 2.2426453 -1.3669767 -1.3307796
H 3.22865 -0.015562171 -0.612191
H 2.2195556 -0.487154 1.6558148
H 1.238501 -1.8409826 0.93107426
