18
title
C 0.70818955 1.6325212 -0.9643121
C 0.47390592 0.13581045 -0.9445217
C -0.88370866 -0.30162957 -0.40615708
C -1.0415295 -0.041221764 1.0970488
N -0.15896578 -0.74550027 1.8637135
O -1.8887802 0.7007667 1.5558329
C 1.1659588 -0.71603245 -1.9454672
N 1.5901415 -0.74545866 -0.5303172
H 1.7052026 1.8720297 -1.3485552
H -0.027885452 2.133933 -1.601363
H 0.61469126 2.0579512 0.04066605
H -1.6862513 0.23827274 -0.91331685
H -1.0164483 -1.3724756 -0.59134907
H 0.63656265 -1.1839211 1.4195533
H -0.13180186 -0.5435762 2.8501363
H 0.6980775 -1.6289667 -2.3031185
H 1.8218151 -0.23370293 -2.6655192
H 2.439284 -0.19756292 -0.41584343
