17
title
C 0.95257497 1.6696969 -0.7046335
C 0.9588547 0.22949928 -0.25608206
C 2.1888645 -0.6208144 -0.37765968
C 1.6728296 -0.2076932 0.98698574
O -0.2318326 -0.4809945 -0.58575106
C -1.336834 -0.20144822 0.15989299
N -2.3677697 -1.0040061 -0.24557973
O -1.3935356 0.6035593 1.0580311
H 1.9226599 2.1323707 -0.5018639
H 0.7627749 1.7363236 -1.7813388
H 0.18235305 2.2322621 -0.1722688
H 2.0457392 -1.6534538 -0.67398643
H 3.0912554 -0.15720698 -0.7607563
H 2.2161403 0.54299366 1.5498849
H 1.1953183 -0.9671357 1.5941291
H -2.2938163 -1.4755536 -1.1308936
H -3.2837942 -0.74203485 0.075397864
