17
title
N -0.07023832 1.0581242 -1.7903411
C -0.925578 0.9893105 -0.7313299
O -2.1250474 1.1669261 -0.8281859
C -0.25017223 0.7140455 0.6184049
C 0.63897324 -0.51221955 0.64505404
O 1.8260508 -0.2633362 -0.0866381
C 0.7143954 -1.361544 1.8830569
C 0.030903365 -1.8862716 0.6275269
H -0.47117767 1.1494282 -2.7095606
H 0.881042 0.7402345 -1.6832128
H 0.3515028 1.586115 0.90290236
H -1.0546185 0.6089227 1.347143
H 2.256298 -1.1029831 -0.27542096
H 1.68246 -1.7816764 2.1366954
H 0.10236612 -1.1010243 2.7397027
H -1.0502478 -1.9721857 0.6175555
H 0.5394002 -2.6654255 0.06660735
