title
 OpenBabel02282109583D

 22 22  0  0  0  0  0  0  0  0999 V2000
   -2.4306    0.7467    1.3354 C   0  0  0  0  0  0  0  0  0  0  0  0
   -0.9438    0.4465    1.0967 C   0  0  0  0  0  0  0  0  0  0  0  0
   -0.3780   -0.4069    2.2412 C   0  0  0  0  0  0  0  0  0  0  0  0
   -0.7482   -0.2014   -0.2909 C   0  0  0  0  0  0  0  0  0  0  0  0
    0.6747   -0.2305   -0.8216 C   0  0  0  0  0  0  0  0  0  0  0  0
    1.5860   -1.0284   -0.1010 O   0  0  0  0  0  0  0  0  0  0  0  0
    0.9176   -0.1260   -2.3090 C   0  0  0  0  0  0  0  0  0  0  0  0
    1.2939    1.0139   -1.3800 C   0  0  0  0  0  0  0  0  0  0  0  0
   -2.8375    1.4111    0.5652 H   0  0  0  0  0  0  0  0  0  0  0  0
   -3.0237   -0.1762    1.3249 H   0  0  0  0  0  0  0  0  0  0  0  0
   -2.5852    1.2256    2.3080 H   0  0  0  0  0  0  0  0  0  0  0  0
   -0.4037    1.4036    1.0878 H   0  0  0  0  0  0  0  0  0  0  0  0
   -0.8998   -1.3712    2.2969 H   0  0  0  0  0  0  0  0  0  0  0  0
    0.6851   -0.6072    2.1011 H   0  0  0  0  0  0  0  0  0  0  0  0
   -0.5172    0.0955    3.2046 H   0  0  0  0  0  0  0  0  0  0  0  0
   -1.1462   -1.2282   -0.2726 H   0  0  0  0  0  0  0  0  0  0  0  0
   -1.3615    0.3412   -1.0210 H   0  0  0  0  0  0  0  0  0  0  0  0
    1.3053   -1.9461   -0.1920 H   0  0  0  0  0  0  0  0  0  0  0  0
    1.7307   -0.7192   -2.7122 H   0  0  0  0  0  0  0  0  0  0  0  0
    0.0698    0.0027   -2.9738 H   0  0  0  0  0  0  0  0  0  0  0  0
    0.6997    1.9209   -1.4059 H   0  0  0  0  0  0  0  0  0  0  0  0
    2.3481    1.1647   -1.1797 H   0  0  0  0  0  0  0  0  0  0  0  0
  1 11  1  0  0  0  0
  2  1  1  0  0  0  0
  2  3  1  0  0  0  0
  3 13  1  0  0  0  0
  3 15  1  0  0  0  0
  4 16  1  0  0  0  0
  4  2  1  0  0  0  0
  5  4  1  0  0  0  0
  5  6  1  0  0  0  0
  7  8  1  0  0  0  0
  7  5  1  0  0  0  0
  8 22  1  0  0  0  0
  8  5  1  0  0  0  0
  9  1  1  0  0  0  0
 10  1  1  0  0  0  0
 12  2  1  0  0  0  0
 14  3  1  0  0  0  0
 17  4  1  0  0  0  0
 18  6  1  0  0  0  0
 19  7  1  0  0  0  0
 20  7  1  0  0  0  0
 21  8  1  0  0  0  0
M  END
