title
 OpenBabel02282109583D

 22 22  0  0  0  0  0  0  0  0999 V2000
   -0.1719    1.8436   -1.6623 C   0  0  0  0  0  0  0  0  0  0  0  0
    0.0430    0.3699   -1.3131 C   0  0  0  0  0  0  0  0  0  0  0  0
    0.9945   -0.3150   -2.2928 C   0  0  0  0  0  0  0  0  0  0  0  0
    0.6169    0.2606   -0.0025 O   0  0  0  0  0  0  0  0  0  0  0  0
   -0.2168   -0.2351    1.0081 C   0  0  0  0  0  0  0  0  0  0  0  0
   -1.2877    0.7192    1.4936 C   0  0  0  0  0  0  0  0  0  0  0  0
   -0.4853   -1.7236    1.0151 C   0  0  0  0  0  0  0  0  0  0  0  0
    0.4956   -1.1085    1.9963 C   0  0  0  0  0  0  0  0  0  0  0  0
    0.7813    2.3807   -1.6237 H   0  0  0  0  0  0  0  0  0  0  0  0
   -0.5851    1.9483   -2.6711 H   0  0  0  0  0  0  0  0  0  0  0  0
   -0.8587    2.3225   -0.9597 H   0  0  0  0  0  0  0  0  0  0  0  0
   -0.9221   -0.1551   -1.3255 H   0  0  0  0  0  0  0  0  0  0  0  0
    1.9812    0.1572   -2.2491 H   0  0  0  0  0  0  0  0  0  0  0  0
    1.1138   -1.3729   -2.0430 H   0  0  0  0  0  0  0  0  0  0  0  0
    0.6221   -0.2409   -3.3197 H   0  0  0  0  0  0  0  0  0  0  0  0
   -2.0213    0.9351    0.7091 H   0  0  0  0  0  0  0  0  0  0  0  0
   -1.8296    0.2945    2.3438 H   0  0  0  0  0  0  0  0  0  0  0  0
   -0.8382    1.6662    1.8103 H   0  0  0  0  0  0  0  0  0  0  0  0
   -1.4401   -2.0789    1.3882 H   0  0  0  0  0  0  0  0  0  0  0  0
   -0.0696   -2.3114    0.2049 H   0  0  0  0  0  0  0  0  0  0  0  0
    1.5499   -1.2808    1.8146 H   0  0  0  0  0  0  0  0  0  0  0  0
    0.2155   -1.0435    3.0421 H   0  0  0  0  0  0  0  0  0  0  0  0
  1  9  1  0  0  0  0
  1  2  1  0  0  0  0
  1 11  1  0  0  0  0
  2  4  1  0  0  0  0
  3 13  1  0  0  0  0
  3 14  1  0  0  0  0
  3  2  1  0  0  0  0
  4  5  1  0  0  0  0
  5  7  1  0  0  0  0
  5  6  1  0  0  0  0
  5  8  1  0  0  0  0
  6 18  1  0  0  0  0
  6 17  1  0  0  0  0
  7 19  1  0  0  0  0
  7  8  1  0  0  0  0
  8 22  1  0  0  0  0
 10  1  1  0  0  0  0
 12  2  1  0  0  0  0
 15  3  1  0  0  0  0
 16  6  1  0  0  0  0
 20  7  1  0  0  0  0
 21  8  1  0  0  0  0
M  END
