20
title
C -0.36949235 2.7635658 -0.7513784
C -0.6248916 1.2684995 -0.5825285
O -0.27555743 0.5425826 -1.7703067
C 0.0599278 0.68700093 0.6682511
C 0.1319065 -0.83452946 0.6354154
O -1.0267277 -1.4596751 0.15445356
C 1.4498671 -1.5186458 0.34289998
C 0.8338101 -1.57391 1.7291896
H 0.7015475 2.964411 -0.87733614
H -0.8954775 3.145047 -1.6305733
H -0.7107899 3.3202474 0.1276943
H -1.7022765 1.0973074 -0.4892782
H 0.68409884 0.5577555 -1.8584213
H 1.073575 1.0972992 0.76844984
H -0.5025626 1.0231566 1.5487041
H -1.065987 -1.2300622 -0.7848201
H 1.4084421 -2.4239182 -0.2522744
H 2.341828 -0.9161981 0.20015208
H 1.2985373 -1.0028219 2.5259802
H 0.39033112 -2.5130963 2.0385702
