20
title
C -0.29424673 2.1318252 -0.781991
C -0.2409968 0.61426526 -0.7632374
C -1.4856794 -0.025100358 -1.3514059
C 1.0790169 -0.072981365 -0.9910578
C 0.46171096 -0.1009422 0.40651375
C 1.132732 0.6883202 1.5260358
C -0.09013731 -1.3505143 0.86450046
C -0.5340861 -2.3824487 1.2973044
H 0.6320823 2.5973604 -0.44006294
H -0.47667408 2.4832258 -1.8042784
H -1.1119341 2.5066273 -0.15553182
H -1.6106434 0.28213805 -2.3962545
H -1.4396179 -1.1151224 -1.3178807
H -2.3824 0.28618914 -0.8032415
H 1.0900853 -0.9995302 -1.5543588
H 1.967193 0.53922904 -1.1141999
H 1.6311888 1.5848132 1.1522462
H 0.40395263 0.99199826 2.2844064
H 1.8874387 0.06813543 2.0192873
H -0.9280454 -3.2961078 1.667347
