title
 OpenBabel02282109583D

 20 20  0  0  1  0  0  0  0  0999 V2000
   -0.2942    2.1318   -0.7820 C   0  0  0  0  0  0  0  0  0  0  0  0
   -0.2410    0.6143   -0.7632 C   0  0  0  0  0  0  0  0  0  0  0  0
   -1.4857   -0.0251   -1.3514 C   0  0  0  0  0  0  0  0  0  0  0  0
    1.0790   -0.0730   -0.9911 C   0  0  0  0  0  0  0  0  0  0  0  0
    0.4617   -0.1009    0.4065 C   0  0  1  0  0  0  0  0  0  0  0  0
    1.1327    0.6883    1.5260 C   0  0  0  0  0  0  0  0  0  0  0  0
   -0.0901   -1.3505    0.8645 C   0  0  0  0  0  0  0  0  0  0  0  0
   -0.5341   -2.3824    1.2973 C   0  0  0  0  0  0  0  0  0  0  0  0
    0.6321    2.5974   -0.4401 H   0  0  0  0  0  0  0  0  0  0  0  0
   -0.4767    2.4832   -1.8043 H   0  0  0  0  0  0  0  0  0  0  0  0
   -1.1119    2.5066   -0.1555 H   0  0  0  0  0  0  0  0  0  0  0  0
   -1.6106    0.2821   -2.3963 H   0  0  0  0  0  0  0  0  0  0  0  0
   -1.4396   -1.1151   -1.3179 H   0  0  0  0  0  0  0  0  0  0  0  0
   -2.3824    0.2862   -0.8032 H   0  0  0  0  0  0  0  0  0  0  0  0
    1.0901   -0.9995   -1.5544 H   0  0  0  0  0  0  0  0  0  0  0  0
    1.9672    0.5392   -1.1142 H   0  0  0  0  0  0  0  0  0  0  0  0
    1.6312    1.5848    1.1522 H   0  0  0  0  0  0  0  0  0  0  0  0
    0.4040    0.9920    2.2844 H   0  0  0  0  0  0  0  0  0  0  0  0
    1.8874    0.0681    2.0193 H   0  0  0  0  0  0  0  0  0  0  0  0
   -0.9280   -3.2961    1.6673 H   0  0  0  0  0  0  0  0  0  0  0  0
  1  2  1  0  0  0  0
  1  9  1  0  0  0  0
  1 11  1  0  0  0  0
  2  5  1  0  0  0  0
  3 13  1  0  0  0  0
  3 14  1  0  0  0  0
  3  2  1  0  0  0  0
  4  2  1  0  0  0  0
  4  5  1  0  0  0  0
  5  7  1  1  0  0  0
  5  6  1  0  0  0  0
  6 19  1  0  0  0  0
  6 18  1  0  0  0  0
  7  8  3  0  0  0  0
  8 20  1  0  0  0  0
 10  1  1  0  0  0  0
 12  3  1  0  0  0  0
 15  4  1  0  0  0  0
 16  4  1  0  0  0  0
 17  6  1  0  0  0  0
M  END
