title
 OpenBabel02282109583D

 19 19  0  0  1  0  0  0  0  0999 V2000
   -0.2976    2.1358   -0.7889 C   0  0  0  0  0  0  0  0  0  0  0  0
   -0.2412    0.6188   -0.7694 C   0  0  0  0  0  0  0  0  0  0  0  0
   -1.4888   -0.0311   -1.3407 C   0  0  0  0  0  0  0  0  0  0  0  0
    1.0773   -0.0675   -0.9959 C   0  0  0  0  0  0  0  0  0  0  0  0
    0.4699   -0.0796    0.4058 C   0  0  1  0  0  0  0  0  0  0  0  0
    1.1381    0.6989    1.5326 C   0  0  0  0  0  0  0  0  0  0  0  0
   -0.0884   -1.3326    0.8543 C   0  0  0  0  0  0  0  0  0  0  0  0
   -0.5300   -2.3308    1.2402 N   0  0  0  0  0  0  0  0  0  0  0  0
    0.6288    2.6030   -0.4499 H   0  0  0  0  0  0  0  0  0  0  0  0
   -0.4827    2.4828   -1.8117 H   0  0  0  0  0  0  0  0  0  0  0  0
   -1.1152    2.5082   -0.1618 H   0  0  0  0  0  0  0  0  0  0  0  0
   -1.6223    0.2692   -2.3859 H   0  0  0  0  0  0  0  0  0  0  0  0
   -1.4400   -1.1215   -1.3045 H   0  0  0  0  0  0  0  0  0  0  0  0
   -2.3812    0.2805   -0.7868 H   0  0  0  0  0  0  0  0  0  0  0  0
    1.0896   -0.9997   -1.5497 H   0  0  0  0  0  0  0  0  0  0  0  0
    1.9675    0.5410   -1.1196 H   0  0  0  0  0  0  0  0  0  0  0  0
    1.6380    1.5926    1.1560 H   0  0  0  0  0  0  0  0  0  0  0  0
    0.4085    1.0063    2.2881 H   0  0  0  0  0  0  0  0  0  0  0  0
    1.8915    0.0778    2.0261 H   0  0  0  0  0  0  0  0  0  0  0  0
  1  2  1  0  0  0  0
  1  9  1  0  0  0  0
  1 11  1  0  0  0  0
  2  5  1  0  0  0  0
  3 13  1  0  0  0  0
  3 14  1  0  0  0  0
  3  2  1  0  0  0  0
  4  2  1  0  0  0  0
  4  5  1  0  0  0  0
  5  7  1  1  0  0  0
  5  6  1  0  0  0  0
  6 19  1  0  0  0  0
  6 18  1  0  0  0  0
  7  8  3  0  0  0  0
 10  1  1  0  0  0  0
 12  3  1  0  0  0  0
 15  4  1  0  0  0  0
 16  4  1  0  0  0  0
 17  6  1  0  0  0  0
M  END
