18
title
C -0.24611557 2.143053 -0.7417268
C -0.24930832 0.62732726 -0.76491225
C -1.5205566 0.020885166 -1.3286567
C 1.0494751 -0.092749655 -1.0110663
C 0.476471 -0.098745346 0.39609918
N 1.1897198 0.58405346 1.4464104
C -0.115634404 -1.338833 0.8581324
N -0.61374646 -2.314543 1.2302661
H 0.66226494 2.5517855 -0.29313782
H -0.32032278 2.5367327 -1.7613288
H -1.1029346 2.527904 -0.17683181
H -1.656717 0.33085874 -2.3710501
H -1.5036885 -1.0708066 -1.3005698
H -2.397806 0.3545647 -0.7635788
H 1.0339023 -1.0238931 -1.5659856
H 1.9533496 0.49324435 -1.1500775
H 1.96173 1.1296595 1.0884591
H 0.5835447 1.1916246 1.9864361
