title
 OpenBabel02282109583D

 18 18  0  0  1  0  0  0  0  0999 V2000
   -0.2461    2.1431   -0.7417 C   0  0  0  0  0  0  0  0  0  0  0  0
   -0.2493    0.6273   -0.7649 C   0  0  0  0  0  0  0  0  0  0  0  0
   -1.5206    0.0209   -1.3287 C   0  0  0  0  0  0  0  0  0  0  0  0
    1.0495   -0.0927   -1.0111 C   0  0  0  0  0  0  0  0  0  0  0  0
    0.4765   -0.0987    0.3961 C   0  0  1  0  0  0  0  0  0  0  0  0
    1.1897    0.5841    1.4464 N   0  0  0  0  0  0  0  0  0  0  0  0
   -0.1156   -1.3388    0.8581 C   0  0  0  0  0  0  0  0  0  0  0  0
   -0.6137   -2.3145    1.2303 N   0  0  0  0  0  0  0  0  0  0  0  0
    0.6623    2.5518   -0.2931 H   0  0  0  0  0  0  0  0  0  0  0  0
   -0.3203    2.5367   -1.7613 H   0  0  0  0  0  0  0  0  0  0  0  0
   -1.1029    2.5279   -0.1768 H   0  0  0  0  0  0  0  0  0  0  0  0
   -1.6567    0.3309   -2.3711 H   0  0  0  0  0  0  0  0  0  0  0  0
   -1.5037   -1.0708   -1.3006 H   0  0  0  0  0  0  0  0  0  0  0  0
   -2.3978    0.3546   -0.7636 H   0  0  0  0  0  0  0  0  0  0  0  0
    1.0339   -1.0239   -1.5660 H   0  0  0  0  0  0  0  0  0  0  0  0
    1.9533    0.4932   -1.1501 H   0  0  0  0  0  0  0  0  0  0  0  0
    1.9617    1.1297    1.0885 H   0  0  0  0  0  0  0  0  0  0  0  0
    0.5835    1.1916    1.9864 H   0  0  0  0  0  0  0  0  0  0  0  0
  1  9  1  0  0  0  0
  1 11  1  0  0  0  0
  2  1  1  0  0  0  0
  2  5  1  0  0  0  0
  3 13  1  0  0  0  0
  3  2  1  0  0  0  0
  3 14  1  0  0  0  0
  4  2  1  0  0  0  0
  4  5  1  0  0  0  0
  5  7  1  1  0  0  0
  5  6  1  0  0  0  0
  6 18  1  0  0  0  0
  7  8  3  0  0  0  0
 10  1  1  0  0  0  0
 12  3  1  0  0  0  0
 15  4  1  0  0  0  0
 16  4  1  0  0  0  0
 17  6  1  0  0  0  0
M  END
