title
 OpenBabel02282109583D

 17 17  0  0  1  0  0  0  0  0999 V2000
   -0.2872    2.1406   -0.7040 C   0  0  0  0  0  0  0  0  0  0  0  0
   -0.2551    0.6253   -0.7729 C   0  0  0  0  0  0  0  0  0  0  0  0
   -1.4984   -0.0024   -1.3740 C   0  0  0  0  0  0  0  0  0  0  0  0
    1.0714   -0.0542   -1.0158 C   0  0  0  0  0  0  0  0  0  0  0  0
    0.4437   -0.0998    0.3724 C   0  0  1  0  0  0  0  0  0  0  0  0
    0.9799    0.7013    1.3839 O   0  0  0  0  0  0  0  0  0  0  0  0
   -0.0855   -1.3620    0.8454 C   0  0  0  0  0  0  0  0  0  0  0  0
   -0.4837   -2.3737    1.2416 N   0  0  0  0  0  0  0  0  0  0  0  0
    0.6004    2.5440   -0.2159 H   0  0  0  0  0  0  0  0  0  0  0  0
   -0.3506    2.5558   -1.7157 H   0  0  0  0  0  0  0  0  0  0  0  0
   -1.1643    2.4836   -0.1452 H   0  0  0  0  0  0  0  0  0  0  0  0
   -1.6228    0.3342   -2.4090 H   0  0  0  0  0  0  0  0  0  0  0  0
   -1.4502   -1.0941   -1.3779 H   0  0  0  0  0  0  0  0  0  0  0  0
   -2.3929    0.2914   -0.8148 H   0  0  0  0  0  0  0  0  0  0  0  0
    1.0944   -0.9696   -1.5970 H   0  0  0  0  0  0  0  0  0  0  0  0
    1.9570    0.5676   -1.0943 H   0  0  0  0  0  0  0  0  0  0  0  0
    1.7800    0.2763    1.7140 H   0  0  0  0  0  0  0  0  0  0  0  0
  1  9  1  0  0  0  0
  1 11  1  0  0  0  0
  2  1  1  0  0  0  0
  2  5  1  0  0  0  0
  3 14  1  0  0  0  0
  3  2  1  0  0  0  0
  4  2  1  0  0  0  0
  4  5  1  0  0  0  0
  5  7  1  1  0  0  0
  5  6  1  0  0  0  0
  6 17  1  0  0  0  0
  7  8  3  0  0  0  0
 10  1  1  0  0  0  0
 12  3  1  0  0  0  0
 13  3  1  0  0  0  0
 15  4  1  0  0  0  0
 16  4  1  0  0  0  0
M  END
