title
 OpenBabel02282109583D

 19 19  0  0  1  0  0  0  0  0999 V2000
   -0.2816    2.1377   -0.8023 C   0  0  0  0  0  0  0  0  0  0  0  0
   -0.2704    0.6223   -0.7208 C   0  0  0  0  0  0  0  0  0  0  0  0
   -1.4866   -0.0202   -1.3591 C   0  0  0  0  0  0  0  0  0  0  0  0
    1.0460   -0.0047   -0.9253 N   0  0  0  0  0  0  0  0  0  0  0  0
    0.4231   -0.0786    0.4268 C   0  0  1  0  0  0  0  0  0  0  0  0
    1.1543    0.6705    1.5305 C   0  0  0  0  0  0  0  0  0  0  0  0
   -0.0940   -1.3552    0.8595 C   0  0  0  0  0  0  0  0  0  0  0  0
   -0.4840   -2.4193    1.2652 C   0  0  0  0  0  0  0  0  0  0  0  0
    0.6587    2.5740   -0.4658 H   0  0  0  0  0  0  0  0  0  0  0  0
   -0.4361    2.4491   -1.8415 H   0  0  0  0  0  0  0  0  0  0  0  0
   -1.0991    2.5548   -0.2043 H   0  0  0  0  0  0  0  0  0  0  0  0
   -1.5074    0.2053   -2.4317 H   0  0  0  0  0  0  0  0  0  0  0  0
   -1.4895   -1.1043   -1.2296 H   0  0  0  0  0  0  0  0  0  0  0  0
   -2.4110    0.3729   -0.9219 H   0  0  0  0  0  0  0  0  0  0  0  0
    0.9389   -0.9015   -1.3953 H   0  0  0  0  0  0  0  0  0  0  0  0
    1.6186    1.5797    1.1483 H   0  0  0  0  0  0  0  0  0  0  0  0
    0.4683    0.9328    2.3419 H   0  0  0  0  0  0  0  0  0  0  0  0
    1.9436    0.0375    1.9466 H   0  0  0  0  0  0  0  0  0  0  0  0
   -0.8367   -3.3581    1.6143 H   0  0  0  0  0  0  0  0  0  0  0  0
  1  2  1  0  0  0  0
  1  9  1  0  0  0  0
  1 11  1  0  0  0  0
  2  5  1  0  0  0  0
  3 13  1  0  0  0  0
  3 14  1  0  0  0  0
  3  2  1  0  0  0  0
  4  2  1  0  0  0  0
  4  5  1  0  0  0  0
  5  7  1  1  0  0  0
  5  6  1  0  0  0  0
  6 18  1  0  0  0  0
  6 17  1  0  0  0  0
  7  8  3  0  0  0  0
  8 19  1  0  0  0  0
 10  1  1  0  0  0  0
 12  3  1  0  0  0  0
 15  4  1  0  0  0  0
 16  6  1  0  0  0  0
M  END
