18
title
C -0.29646638 2.141561 -0.80418605
C -0.27239048 0.62690735 -0.72523355
C -1.4883658 -0.032911047 -1.347241
N 1.0467607 0.010161952 -0.92815644
C 0.43767697 -0.056639716 0.42398208
C 1.1639338 0.6781089 1.5379251
C -0.088451855 -1.3388664 0.84597903
N -0.4844147 -2.3662007 1.203104
H 0.6415683 2.5847657 -0.4704023
H -0.456739 2.4500854 -1.8429041
H -1.1161482 2.5498686 -0.20394623
H -1.5265276 0.19820847 -2.4176044
H -1.4765726 -1.1186792 -1.227789
H -2.411062 0.344424 -0.89431
H 0.95805264 -0.8871333 -1.4010074
H 1.6136825 1.5963033 1.1614314
H 0.47853535 0.9233991 2.3546197
H 1.9638323 0.050140455 1.9407784
