title
 OpenBabel02282109583D

 18 18  0  0  1  0  0  0  0  0999 V2000
   -0.2965    2.1416   -0.8042 C   0  0  0  0  0  0  0  0  0  0  0  0
   -0.2724    0.6269   -0.7252 C   0  0  0  0  0  0  0  0  0  0  0  0
   -1.4884   -0.0329   -1.3472 C   0  0  0  0  0  0  0  0  0  0  0  0
    1.0468    0.0102   -0.9282 N   0  0  0  0  0  0  0  0  0  0  0  0
    0.4377   -0.0566    0.4240 C   0  0  1  0  0  0  0  0  0  0  0  0
    1.1639    0.6781    1.5379 C   0  0  0  0  0  0  0  0  0  0  0  0
   -0.0885   -1.3389    0.8460 C   0  0  0  0  0  0  0  0  0  0  0  0
   -0.4844   -2.3662    1.2031 N   0  0  0  0  0  0  0  0  0  0  0  0
    0.6416    2.5848   -0.4704 H   0  0  0  0  0  0  0  0  0  0  0  0
   -0.4567    2.4501   -1.8429 H   0  0  0  0  0  0  0  0  0  0  0  0
   -1.1161    2.5499   -0.2039 H   0  0  0  0  0  0  0  0  0  0  0  0
   -1.5265    0.1982   -2.4176 H   0  0  0  0  0  0  0  0  0  0  0  0
   -1.4766   -1.1187   -1.2278 H   0  0  0  0  0  0  0  0  0  0  0  0
   -2.4111    0.3444   -0.8943 H   0  0  0  0  0  0  0  0  0  0  0  0
    0.9581   -0.8871   -1.4010 H   0  0  0  0  0  0  0  0  0  0  0  0
    1.6137    1.5963    1.1614 H   0  0  0  0  0  0  0  0  0  0  0  0
    0.4785    0.9234    2.3546 H   0  0  0  0  0  0  0  0  0  0  0  0
    1.9638    0.0501    1.9408 H   0  0  0  0  0  0  0  0  0  0  0  0
  1  2  1  0  0  0  0
  1  9  1  0  0  0  0
  1 11  1  0  0  0  0
  2  5  1  0  0  0  0
  3 13  1  0  0  0  0
  3 14  1  0  0  0  0
  3  2  1  0  0  0  0
  4  2  1  0  0  0  0
  4  5  1  0  0  0  0
  5  7  1  1  0  0  0
  5  6  1  0  0  0  0
  6 18  1  0  0  0  0
  6 17  1  0  0  0  0
  7  8  3  0  0  0  0
 10  1  1  0  0  0  0
 12  3  1  0  0  0  0
 15  4  1  0  0  0  0
 16  6  1  0  0  0  0
M  END
