title
 OpenBabel02282109583D

 17 17  0  0  1  0  0  0  0  0999 V2000
   -0.2029    2.1492   -0.7171 C   0  0  0  0  0  0  0  0  0  0  0  0
   -0.2142    0.6351   -0.7462 C   0  0  1  0  0  0  0  0  0  0  0  0
   -1.4660    0.1094   -1.2341 N   0  0  0  0  0  0  0  0  0  0  0  0
    1.0919   -0.0951   -0.9799 C   0  0  0  0  0  0  0  0  0  0  0  0
    0.4771   -0.1079    0.4147 C   0  0  1  0  0  0  0  0  0  0  0  0
    1.1560    0.5528    1.4986 N   0  0  0  0  0  0  0  0  0  0  0  0
   -0.1460   -1.3529    0.8196 C   0  0  0  0  0  0  0  0  0  0  0  0
   -0.6845   -2.3335    1.1163 N   0  0  0  0  0  0  0  0  0  0  0  0
    0.7344    2.5513   -0.3257 H   0  0  0  0  0  0  0  0  0  0  0  0
   -0.3341    2.5400   -1.7322 H   0  0  0  0  0  0  0  0  0  0  0  0
   -1.0329    2.5220   -0.1099 H   0  0  0  0  0  0  0  0  0  0  0  0
   -1.4827    0.1101   -2.2496 H   0  0  0  0  0  0  0  0  0  0  0  0
   -1.6237   -0.8448   -0.9263 H   0  0  0  0  0  0  0  0  0  0  0  0
    1.0708   -1.0232   -1.5396 H   0  0  0  0  0  0  0  0  0  0  0  0
    2.0090    0.4771   -1.0881 H   0  0  0  0  0  0  0  0  0  0  0  0
    1.9528    1.0845    1.1754 H   0  0  0  0  0  0  0  0  0  0  0  0
    0.5383    1.1714    2.0123 H   0  0  0  0  0  0  0  0  0  0  0  0
  1  9  1  0  0  0  0
  1 11  1  0  0  0  0
  2  1  1  0  0  0  0
  2  5  1  1  0  0  0
  3 13  1  0  0  0  0
  3  2  1  0  0  0  0
  4  2  1  0  0  0  0
  4  5  1  0  0  0  0
  5  7  1  1  0  0  0
  5  6  1  0  0  0  0
  6 17  1  0  0  0  0
  7  8  3  0  0  0  0
 10  1  1  0  0  0  0
 12  3  1  0  0  0  0
 14  4  1  0  0  0  0
 15  4  1  0  0  0  0
 16  6  1  0  0  0  0
M  END
