17
title
C -0.20289992 2.1491966 -0.71709913
C -0.21418445 0.635137 -0.7462406
N -1.4659994 0.1094098 -1.2340791
C 1.0919445 -0.09513772 -0.9798618
C 0.47714457 -0.10792763 0.41473693
N 1.1560283 0.55276567 1.4986069
C -0.14600359 -1.3529234 0.81959146
N -0.6844971 -2.3335378 1.1163267
H 0.7343507 2.551264 -0.32573608
H -0.3340851 2.5400145 -1.7321731
H -1.0329475 2.5220416 -0.10990977
H -1.4827293 0.11011993 -2.249559
H -1.6236783 -0.8447838 -0.92631805
H 1.0707998 -1.0232258 -1.5395696
H 2.0089636 0.4770954 -1.0880747
H 1.9528189 1.0844749 1.1754162
H 0.53829205 1.1714116 2.0123425
