16
title
C -0.2511064 2.1473777 -0.6820592
C -0.22284558 0.6351965 -0.7517048
N -1.4528581 0.08627869 -1.2686158
C 1.1120604 -0.053654596 -0.9846333
C 0.4455622 -0.10777609 0.3913072
O 0.9592201 0.6657665 1.4318339
C -0.11504808 -1.3768926 0.8075663
N -0.5505971 -2.3995593 1.1298153
H 0.6518609 2.546299 -0.21949811
H -0.3353179 2.5599358 -1.6938405
H -1.1200571 2.4775517 -0.10748186
H -1.5147743 0.25632432 -2.268321
H -1.5103993 -0.9174085 -1.128466
H 1.1307645 -0.9667432 -1.569516
H 2.009225 0.55473465 -1.0357717
H 1.761822 0.24111615 1.7569932
