title
 OpenBabel02282109583D

 18 18  0  0  1  0  0  0  0  0999 V2000
   -0.2903    2.1282   -0.7814 C   0  0  0  0  0  0  0  0  0  0  0  0
   -0.2061    0.6180   -0.7390 C   0  0  1  0  0  0  0  0  0  0  0  0
   -1.3747   -0.0094   -1.1920 O   0  0  0  0  0  0  0  0  0  0  0  0
    1.0937   -0.1003   -0.9875 C   0  0  0  0  0  0  0  0  0  0  0  0
    0.4716   -0.1141    0.4155 C   0  0  1  0  0  0  0  0  0  0  0  0
    1.1624    0.6599    1.5320 C   0  0  0  0  0  0  0  0  0  0  0  0
   -0.1239   -1.3475    0.8596 C   0  0  0  0  0  0  0  0  0  0  0  0
   -0.5848   -2.3684    1.2973 C   0  0  0  0  0  0  0  0  0  0  0  0
    0.6237    2.6112   -0.4303 H   0  0  0  0  0  0  0  0  0  0  0  0
   -0.4592    2.4594   -1.8136 H   0  0  0  0  0  0  0  0  0  0  0  0
   -1.1300    2.4812   -0.1750 H   0  0  0  0  0  0  0  0  0  0  0  0
   -1.4213    0.1114   -2.1470 H   0  0  0  0  0  0  0  0  0  0  0  0
    1.0486   -1.0250   -1.5506 H   0  0  0  0  0  0  0  0  0  0  0  0
    2.0007    0.4817   -1.1174 H   0  0  0  0  0  0  0  0  0  0  0  0
    1.6755    1.5476    1.1550 H   0  0  0  0  0  0  0  0  0  0  0  0
    0.4427    0.9753    2.2937 H   0  0  0  0  0  0  0  0  0  0  0  0
    1.9077    0.0236    2.0184 H   0  0  0  0  0  0  0  0  0  0  0  0
   -1.0108   -3.2693    1.6628 H   0  0  0  0  0  0  0  0  0  0  0  0
  1  2  1  0  0  0  0
  1  9  1  0  0  0  0
  1 11  1  0  0  0  0
  2  5  1  1  0  0  0
  3  2  1  0  0  0  0
  4  2  1  0  0  0  0
  4  5  1  0  0  0  0
  5  7  1  1  0  0  0
  5  6  1  0  0  0  0
  6 17  1  0  0  0  0
  6 16  1  0  0  0  0
  7  8  3  0  0  0  0
  8 18  1  0  0  0  0
 10  1  1  0  0  0  0
 12  3  1  0  0  0  0
 13  4  1  0  0  0  0
 14  4  1  0  0  0  0
 15  6  1  0  0  0  0
M  END
