18
title
C -0.2902976 2.1281574 -0.78144497
C -0.20606378 0.61797816 -0.7389558
O -1.3747487 -0.009426436 -1.1919962
C 1.0936975 -0.10026946 -0.98754776
C 0.47155848 -0.114104174 0.41554022
C 1.1623842 0.6598622 1.5319643
C -0.123878375 -1.3475204 0.8595979
C -0.5848368 -2.368412 1.297349
H 0.62371254 2.6111922 -0.4303295
H -0.4591538 2.4594214 -1.8135613
H -1.1299628 2.4811711 -0.17496473
H -1.421302 0.111377396 -2.147032
H 1.0485779 -1.0250145 -1.550571
H 2.00073 0.4817426 -1.11742
H 1.6754955 1.5476006 1.1550213
H 0.4427174 0.9753245 2.2936697
H 1.9076569 0.023582796 2.0183809
H -1.0108014 -3.2692933 1.6627893
