title
 OpenBabel02282109583D

 17 17  0  0  1  0  0  0  0  0999 V2000
   -0.2832    2.1351   -0.7967 C   0  0  0  0  0  0  0  0  0  0  0  0
   -0.2030    0.6255   -0.7484 C   0  0  1  0  0  0  0  0  0  0  0  0
   -1.3752   -0.0097   -1.1734 O   0  0  0  0  0  0  0  0  0  0  0  0
    1.0904   -0.1017   -0.9946 C   0  0  0  0  0  0  0  0  0  0  0  0
    0.4781   -0.0943    0.4115 C   0  0  1  0  0  0  0  0  0  0  0  0
    1.1714    0.6629    1.5358 C   0  0  0  0  0  0  0  0  0  0  0  0
   -0.1331   -1.3275    0.8474 C   0  0  0  0  0  0  0  0  0  0  0  0
   -0.5877   -2.3113    1.2513 N   0  0  0  0  0  0  0  0  0  0  0  0
    0.6362    2.6163   -0.4575 H   0  0  0  0  0  0  0  0  0  0  0  0
   -0.4612    2.4591   -1.8288 H   0  0  0  0  0  0  0  0  0  0  0  0
   -1.1160    2.4919   -0.1838 H   0  0  0  0  0  0  0  0  0  0  0  0
   -1.4330    0.0746   -2.1317 H   0  0  0  0  0  0  0  0  0  0  0  0
    1.0412   -1.0317   -1.5486 H   0  0  0  0  0  0  0  0  0  0  0  0
    2.0026    0.4714   -1.1249 H   0  0  0  0  0  0  0  0  0  0  0  0
    1.6842    1.5495    1.1579 H   0  0  0  0  0  0  0  0  0  0  0  0
    0.4541    0.9786    2.2990 H   0  0  0  0  0  0  0  0  0  0  0  0
    1.9171    0.0233    2.0164 H   0  0  0  0  0  0  0  0  0  0  0  0
  1  2  1  0  0  0  0
  1  9  1  0  0  0  0
  1 11  1  0  0  0  0
  2  5  1  1  0  0  0
  3  2  1  0  0  0  0
  4  2  1  0  0  0  0
  4  5  1  0  0  0  0
  5  7  1  1  0  0  0
  5  6  1  0  0  0  0
  6 17  1  0  0  0  0
  6 16  1  0  0  0  0
  7  8  3  0  0  0  0
 10  1  1  0  0  0  0
 12  3  1  0  0  0  0
 13  4  1  0  0  0  0
 14  4  1  0  0  0  0
 15  6  1  0  0  0  0
M  END
