title
 OpenBabel02282109583D

 16 16  0  0  1  0  0  0  0  0999 V2000
   -0.1717    2.1472   -0.7591 C   0  0  0  0  0  0  0  0  0  0  0  0
   -0.2051    0.6367   -0.7458 C   0  0  1  0  0  0  0  0  0  0  0  0
   -1.4280    0.0848   -1.1356 O   0  0  0  0  0  0  0  0  0  0  0  0
    1.0335   -0.1715   -1.0314 C   0  0  0  0  0  0  0  0  0  0  0  0
    0.4889   -0.1284    0.3915 C   0  0  1  0  0  0  0  0  0  0  0  0
    1.2738    0.5074    1.4180 N   0  0  0  0  0  0  0  0  0  0  0  0
   -0.1889   -1.3198    0.8645 C   0  0  0  0  0  0  0  0  0  0  0  0
   -0.7247   -2.2581    1.2752 N   0  0  0  0  0  0  0  0  0  0  0  0
    0.7603    2.5420   -0.3480 H   0  0  0  0  0  0  0  0  0  0  0  0
   -0.2681    2.5198   -1.7851 H   0  0  0  0  0  0  0  0  0  0  0  0
   -1.0076    2.5456   -0.1759 H   0  0  0  0  0  0  0  0  0  0  0  0
   -1.4780    0.0988   -2.0979 H   0  0  0  0  0  0  0  0  0  0  0  0
    0.9147   -1.1014   -1.5747 H   0  0  0  0  0  0  0  0  0  0  0  0
    1.9731    0.3446   -1.2042 H   0  0  0  0  0  0  0  0  0  0  0  0
    2.0327    1.0521    1.0309 H   0  0  0  0  0  0  0  0  0  0  0  0
    0.7082    1.1081    2.0080 H   0  0  0  0  0  0  0  0  0  0  0  0
  1  2  1  0  0  0  0
  1  9  1  0  0  0  0
  1 11  1  0  0  0  0
  2  5  1  1  0  0  0
  3  2  1  0  0  0  0
  4  2  1  0  0  0  0
  4  5  1  0  0  0  0
  5  7  1  1  0  0  0
  5  6  1  0  0  0  0
  6 16  1  0  0  0  0
  7  8  3  0  0  0  0
 10  1  1  0  0  0  0
 12  3  1  0  0  0  0
 13  4  1  0  0  0  0
 14  4  1  0  0  0  0
 15  6  1  0  0  0  0
M  END
