title
 OpenBabel02282109583D

 16 16  0  0  1  0  0  0  0  0999 V2000
   -0.2596    2.1358   -0.6943 C   0  0  0  0  0  0  0  0  0  0  0  0
   -0.2181    0.6259   -0.7442 C   0  0  1  0  0  0  0  0  0  0  0  0
   -1.3866    0.0265   -1.2285 O   0  0  0  0  0  0  0  0  0  0  0  0
    1.0831   -0.0988   -1.0075 C   0  0  0  0  0  0  0  0  0  0  0  0
    0.4389   -0.1388    0.3834 C   0  0  1  0  0  0  0  0  0  0  0  0
    1.0106    0.6670    1.3808 O   0  0  0  0  0  0  0  0  0  0  0  0
   -0.1285   -1.3754    0.8517 C   0  0  0  0  0  0  0  0  0  0  0  0
   -0.5445   -2.4121    1.2969 C   0  0  0  0  0  0  0  0  0  0  0  0
    0.6275    2.5422   -0.2072 H   0  0  0  0  0  0  0  0  0  0  0  0
   -0.3185    2.5442   -1.7105 H   0  0  0  0  0  0  0  0  0  0  0  0
   -1.1437    2.4662   -0.1414 H   0  0  0  0  0  0  0  0  0  0  0  0
   -1.4220    0.1808   -2.1792 H   0  0  0  0  0  0  0  0  0  0  0  0
    1.0413   -1.0075   -1.5966 H   0  0  0  0  0  0  0  0  0  0  0  0
    1.9913    0.4886   -1.0906 H   0  0  0  0  0  0  0  0  0  0  0  0
    1.7078    0.1522    1.8027 H   0  0  0  0  0  0  0  0  0  0  0  0
   -0.9400   -3.3195    1.6811 H   0  0  0  0  0  0  0  0  0  0  0  0
  1  9  1  0  0  0  0
  1 11  1  0  0  0  0
  2  1  1  0  0  0  0
  2  5  1  1  0  0  0
  3  2  1  0  0  0  0
  4  2  1  0  0  0  0
  4  5  1  0  0  0  0
  5  7  1  1  0  0  0
  5  6  1  0  0  0  0
  6 15  1  0  0  0  0
  7  8  3  0  0  0  0
  8 16  1  0  0  0  0
 10  1  1  0  0  0  0
 12  3  1  0  0  0  0
 13  4  1  0  0  0  0
 14  4  1  0  0  0  0
M  END
