20
title
C -0.4113355 2.144312 -0.7608635
C -0.28571934 0.63114095 -0.69724536
C -1.4963855 -0.07788363 -1.2786665
C 1.0664458 0.013841957 -0.86804765
C 0.45652437 0.015667826 0.526814
C 1.0210587 0.9021354 1.6253079
C -0.020644762 -1.2985474 1.0399394
O -0.22169474 -2.2948587 0.38378814
H 0.49716562 2.6637034 -0.45048523
H -0.623619 2.4477255 -1.7924514
H -1.2389532 2.5032864 -0.13848427
H -1.612901 0.20442459 -2.3314319
H -1.4037822 -1.1621388 -1.2248044
H -2.4140503 0.21811587 -0.7568068
H 1.1265197 -0.95681554 -1.3497331
H 1.9202462 0.66506815 -1.0280814
H 1.461898 1.8187909 1.2322751
H 0.24855642 1.188547 2.348405
H 1.8096226 0.37661895 2.175891
H -0.18346436 -1.3147439 2.1425455
