title
 OpenBabel02282109583D

 20 20  0  0  1  0  0  0  0  0999 V2000
   -0.4113    2.1443   -0.7609 C   0  0  0  0  0  0  0  0  0  0  0  0
   -0.2857    0.6311   -0.6972 C   0  0  0  0  0  0  0  0  0  0  0  0
   -1.4964   -0.0779   -1.2787 C   0  0  0  0  0  0  0  0  0  0  0  0
    1.0664    0.0138   -0.8680 C   0  0  0  0  0  0  0  0  0  0  0  0
    0.4565    0.0157    0.5268 C   0  0  1  0  0  0  0  0  0  0  0  0
    1.0211    0.9021    1.6253 C   0  0  0  0  0  0  0  0  0  0  0  0
   -0.0206   -1.2985    1.0399 C   0  0  0  0  0  0  0  0  0  0  0  0
   -0.2217   -2.2949    0.3838 O   0  0  0  0  0  0  0  0  0  0  0  0
    0.4972    2.6637   -0.4505 H   0  0  0  0  0  0  0  0  0  0  0  0
   -0.6236    2.4477   -1.7925 H   0  0  0  0  0  0  0  0  0  0  0  0
   -1.2390    2.5033   -0.1385 H   0  0  0  0  0  0  0  0  0  0  0  0
   -1.6129    0.2044   -2.3314 H   0  0  0  0  0  0  0  0  0  0  0  0
   -1.4038   -1.1621   -1.2248 H   0  0  0  0  0  0  0  0  0  0  0  0
   -2.4141    0.2181   -0.7568 H   0  0  0  0  0  0  0  0  0  0  0  0
    1.1265   -0.9568   -1.3497 H   0  0  0  0  0  0  0  0  0  0  0  0
    1.9202    0.6651   -1.0281 H   0  0  0  0  0  0  0  0  0  0  0  0
    1.4619    1.8188    1.2323 H   0  0  0  0  0  0  0  0  0  0  0  0
    0.2486    1.1885    2.3484 H   0  0  0  0  0  0  0  0  0  0  0  0
    1.8096    0.3766    2.1759 H   0  0  0  0  0  0  0  0  0  0  0  0
   -0.1835   -1.3147    2.1425 H   0  0  0  0  0  0  0  0  0  0  0  0
  1  2  1  0  0  0  0
  1  9  1  0  0  0  0
  1 11  1  0  0  0  0
  2  5  1  0  0  0  0
  3 13  1  0  0  0  0
  3 14  1  0  0  0  0
  3  2  1  0  0  0  0
  4  2  1  0  0  0  0
  4  5  1  0  0  0  0
  5  7  1  1  0  0  0
  5  6  1  0  0  0  0
  6 19  1  0  0  0  0
  6 18  1  0  0  0  0
  7 20  1  0  0  0  0
  8  7  2  0  0  0  0
 10  1  1  0  0  0  0
 12  3  1  0  0  0  0
 15  4  1  0  0  0  0
 16  4  1  0  0  0  0
 17  6  1  0  0  0  0
M  END
