19
title
C -0.40527862 2.1472888 -0.7807688
C -0.3236236 0.63602 -0.6525694
C -1.5060174 -0.072728045 -1.2876264
N 1.0176052 0.07210814 -0.7948493
C 0.4074675 0.03437721 0.5467521
C 1.0323719 0.87563807 1.643903
C -0.045462027 -1.3055274 1.0235001
O -0.10200563 -2.3003545 0.33626464
H 0.52380246 2.6352265 -0.48677528
H -0.59790134 2.4117546 -1.8264658
H -1.2271073 2.5509686 -0.17970178
H -1.5162067 0.1392744 -2.363034
H -1.4673939 -1.1536473 -1.1548173
H -2.4499109 0.29930907 -0.8741788
H 0.9546937 -0.872495 -1.1795171
H 1.3432289 1.8527564 1.2773255
H 0.32692584 1.027172 2.4686587
H 1.9207263 0.37833616 2.048522
H -0.31666356 -1.344983 2.1011772
