title
 OpenBabel02282109583D

 18 18  0  0  1  0  0  0  0  0999 V2000
   -0.4382    2.1533   -0.7729 C   0  0  0  0  0  0  0  0  0  0  0  0
   -0.3532    0.6467   -0.6210 C   0  0  0  0  0  0  0  0  0  0  0  0
   -1.4698   -0.0988   -1.3234 C   0  0  0  0  0  0  0  0  0  0  0  0
    0.9483    0.0754   -0.7696 O   0  0  0  0  0  0  0  0  0  0  0  0
    0.3819    0.0380    0.5408 C   0  0  1  0  0  0  0  0  0  0  0  0
    1.0668    0.8571    1.6187 C   0  0  0  0  0  0  0  0  0  0  0  0
   -0.0290   -1.3269    1.0334 C   0  0  0  0  0  0  0  0  0  0  0  0
   -0.1166   -2.3220    0.3619 O   0  0  0  0  0  0  0  0  0  0  0  0
    0.4257    2.6682   -0.3538 H   0  0  0  0  0  0  0  0  0  0  0  0
   -0.4923    2.4055   -1.8375 H   0  0  0  0  0  0  0  0  0  0  0  0
   -1.3453    2.5386   -0.2957 H   0  0  0  0  0  0  0  0  0  0  0  0
   -1.4618    0.1628   -2.3870 H   0  0  0  0  0  0  0  0  0  0  0  0
   -1.3485   -1.1770   -1.2337 H   0  0  0  0  0  0  0  0  0  0  0  0
   -2.4442    0.1941   -0.9179 H   0  0  0  0  0  0  0  0  0  0  0  0
    1.3902    1.8280    1.2471 H   0  0  0  0  0  0  0  0  0  0  0  0
    0.3975    1.0164    2.4708 H   0  0  0  0  0  0  0  0  0  0  0  0
    1.9539    0.3292    1.9858 H   0  0  0  0  0  0  0  0  0  0  0  0
   -0.2501   -1.3503    2.1257 H   0  0  0  0  0  0  0  0  0  0  0  0
  1  2  1  0  0  0  0
  1  9  1  0  0  0  0
  1 11  1  0  0  0  0
  2  5  1  0  0  0  0
  3 13  1  0  0  0  0
  3 14  1  0  0  0  0
  3  2  1  0  0  0  0
  4  2  1  0  0  0  0
  4  5  1  0  0  0  0
  5  7  1  1  0  0  0
  5  6  1  0  0  0  0
  6 17  1  0  0  0  0
  6 16  1  0  0  0  0
  7 18  1  0  0  0  0
  8  7  2  0  0  0  0
 10  1  1  0  0  0  0
 12  3  1  0  0  0  0
 15  6  1  0  0  0  0
M  END
