18
title
C -0.43781257 2.1877427 -0.6891291
C -0.32359082 0.6827935 -0.78934205
O -1.5184172 0.068476975 -1.2100365
C 0.9577534 0.022825357 -1.1901739
C 0.44579983 -0.11732352 0.25615826
C 1.1799951 0.5611357 1.3943559
C -0.09314574 -1.4679606 0.59376705
O 0.021984596 -1.9748688 1.68421
H 0.49557614 2.6559234 -0.3711108
H -0.69777477 2.6036596 -1.6703813
H -1.2284138 2.465794 0.014130431
H -1.6649729 0.31167752 -2.1311707
H 0.8894689 -0.8544532 -1.8256283
H 1.8473468 0.6269828 -1.3337044
H 1.7062514 1.4595141 1.0653329
H 0.49061722 0.8390885 2.1971664
H 1.9123547 -0.12796569 1.823099
H -0.6012315 -1.994865 -0.23724644
