title
 OpenBabel02282109583D

 18 18  0  0  1  0  0  0  0  0999 V2000
   -0.4378    2.1877   -0.6891 C   0  0  0  0  0  0  0  0  0  0  0  0
   -0.3236    0.6828   -0.7893 C   0  0  1  0  0  0  0  0  0  0  0  0
   -1.5184    0.0685   -1.2100 O   0  0  0  0  0  0  0  0  0  0  0  0
    0.9578    0.0228   -1.1902 C   0  0  0  0  0  0  0  0  0  0  0  0
    0.4458   -0.1173    0.2562 C   0  0  1  0  0  0  0  0  0  0  0  0
    1.1800    0.5611    1.3944 C   0  0  0  0  0  0  0  0  0  0  0  0
   -0.0931   -1.4680    0.5938 C   0  0  0  0  0  0  0  0  0  0  0  0
    0.0220   -1.9749    1.6842 O   0  0  0  0  0  0  0  0  0  0  0  0
    0.4956    2.6559   -0.3711 H   0  0  0  0  0  0  0  0  0  0  0  0
   -0.6978    2.6037   -1.6704 H   0  0  0  0  0  0  0  0  0  0  0  0
   -1.2284    2.4658    0.0141 H   0  0  0  0  0  0  0  0  0  0  0  0
   -1.6650    0.3117   -2.1312 H   0  0  0  0  0  0  0  0  0  0  0  0
    0.8895   -0.8545   -1.8256 H   0  0  0  0  0  0  0  0  0  0  0  0
    1.8473    0.6270   -1.3337 H   0  0  0  0  0  0  0  0  0  0  0  0
    1.7063    1.4595    1.0653 H   0  0  0  0  0  0  0  0  0  0  0  0
    0.4906    0.8391    2.1972 H   0  0  0  0  0  0  0  0  0  0  0  0
    1.9124   -0.1280    1.8231 H   0  0  0  0  0  0  0  0  0  0  0  0
   -0.6012   -1.9949   -0.2372 H   0  0  0  0  0  0  0  0  0  0  0  0
  1  9  1  0  0  0  0
  1 11  1  0  0  0  0
  2  1  1  0  0  0  0
  2  5  1  1  0  0  0
  3  2  1  0  0  0  0
  4  2  1  0  0  0  0
  4  5  1  0  0  0  0
  5  7  1  1  0  0  0
  5  6  1  0  0  0  0
  6 17  1  0  0  0  0
  6 16  1  0  0  0  0
  7  8  2  0  0  0  0
 10  1  1  0  0  0  0
 12  3  1  0  0  0  0
 13  4  1  0  0  0  0
 14  4  1  0  0  0  0
 15  6  1  0  0  0  0
 18  7  1  0  0  0  0
M  END
