16
title
C -0.44123423 2.182447 -0.5689733
C -0.37706986 0.6900992 -0.78872615
O -1.5840034 0.09867959 -1.2012967
C 0.8928126 0.035736248 -1.2587271
C 0.42588714 -0.15034468 0.19060077
O 1.1359696 0.49301398 1.1910392
C -0.081748575 -1.4806337 0.59664357
O 0.139555 -1.909564 1.709492
H 0.49025175 2.5588508 -0.14330922
H -0.625554 2.6985235 -1.5186572
H -1.2582632 2.4233475 0.11706234
H -1.73783 0.35488275 -2.1182723
H 0.8105984 -0.81427515 -1.9281918
H 1.7819017 0.64616954 -1.3713318
H 1.1042615 -0.12314762 1.9421942
H -0.6576488 -2.0470166 -0.15384243
