22
title
C -0.4361256 2.173429 -0.9710142
C -0.41046193 0.65546757 -0.8780944
C -1.6399273 0.039948754 -1.5316473
C 0.91659915 -0.056883283 -1.0260378
C 0.24882117 -0.0033421603 0.33330595
C 0.8769754 0.8470414 1.4279207
C -0.31915227 -1.2945433 0.88805234
O 0.75561833 -2.046061 1.4492089
H 0.46892813 2.6400673 -0.5788662
H -0.53661585 2.4834542 -2.017912
H -1.2908319 2.5899537 -0.4241143
H -1.7422373 0.41797197 -2.5558178
H -1.5926973 -1.0487533 -1.5963852
H -2.5577538 0.30692673 -0.9934511
H 0.9320028 -1.0092334 -1.5471792
H 1.8119226 0.53929687 -1.1741796
H 1.4708198 1.6726785 1.0320637
H 0.11303636 1.2706901 2.091924
H 1.5377226 0.22171019 2.0340075
H -1.0726216 -1.0627048 1.6594278
H -0.8197704 -1.876916 0.104929216
H 0.379796 -2.8043272 1.9056493
