title
 OpenBabel02282109583D

 22 22  0  0  1  0  0  0  0  0999 V2000
   -0.4361    2.1734   -0.9710 C   0  0  0  0  0  0  0  0  0  0  0  0
   -0.4105    0.6555   -0.8781 C   0  0  0  0  0  0  0  0  0  0  0  0
   -1.6399    0.0399   -1.5316 C   0  0  0  0  0  0  0  0  0  0  0  0
    0.9166   -0.0569   -1.0260 C   0  0  0  0  0  0  0  0  0  0  0  0
    0.2488   -0.0033    0.3333 C   0  0  1  0  0  0  0  0  0  0  0  0
    0.8770    0.8470    1.4279 C   0  0  0  0  0  0  0  0  0  0  0  0
   -0.3192   -1.2945    0.8881 C   0  0  0  0  0  0  0  0  0  0  0  0
    0.7556   -2.0461    1.4492 O   0  0  0  0  0  0  0  0  0  0  0  0
    0.4689    2.6401   -0.5789 H   0  0  0  0  0  0  0  0  0  0  0  0
   -0.5366    2.4835   -2.0179 H   0  0  0  0  0  0  0  0  0  0  0  0
   -1.2908    2.5900   -0.4241 H   0  0  0  0  0  0  0  0  0  0  0  0
   -1.7422    0.4180   -2.5558 H   0  0  0  0  0  0  0  0  0  0  0  0
   -1.5927   -1.0488   -1.5964 H   0  0  0  0  0  0  0  0  0  0  0  0
   -2.5578    0.3069   -0.9935 H   0  0  0  0  0  0  0  0  0  0  0  0
    0.9320   -1.0092   -1.5472 H   0  0  0  0  0  0  0  0  0  0  0  0
    1.8119    0.5393   -1.1742 H   0  0  0  0  0  0  0  0  0  0  0  0
    1.4708    1.6727    1.0321 H   0  0  0  0  0  0  0  0  0  0  0  0
    0.1130    1.2707    2.0919 H   0  0  0  0  0  0  0  0  0  0  0  0
    1.5377    0.2217    2.0340 H   0  0  0  0  0  0  0  0  0  0  0  0
   -1.0726   -1.0627    1.6594 H   0  0  0  0  0  0  0  0  0  0  0  0
   -0.8198   -1.8769    0.1049 H   0  0  0  0  0  0  0  0  0  0  0  0
    0.3798   -2.8043    1.9056 H   0  0  0  0  0  0  0  0  0  0  0  0
  1  2  1  0  0  0  0
  1  9  1  0  0  0  0
  1 11  1  0  0  0  0
  2  5  1  0  0  0  0
  3 14  1  0  0  0  0
  3  2  1  0  0  0  0
  4  2  1  0  0  0  0
  4  5  1  0  0  0  0
  5  7  1  1  0  0  0
  5  6  1  0  0  0  0
  6 19  1  0  0  0  0
  6 18  1  0  0  0  0
  7  8  1  0  0  0  0
  7 20  1  0  0  0  0
  8 22  1  0  0  0  0
 10  1  1  0  0  0  0
 12  3  1  0  0  0  0
 13  3  1  0  0  0  0
 15  4  1  0  0  0  0
 16  4  1  0  0  0  0
 17  6  1  0  0  0  0
 21  7  1  0  0  0  0
M  END
