20
title
C -0.31407452 2.1392083 -0.6014805
C -0.38054678 0.6370021 -0.8044194
C -1.7548486 0.13744597 -1.2144096
C 0.83907163 -0.04643782 -1.4086816
C 0.5491467 -0.22857113 0.04941404
O 1.435304 0.42675075 0.9194595
C 0.12581825 -1.5619245 0.61878043
O -0.43911913 -1.3861787 1.9206731
H 0.6647502 2.4451666 -0.2298426
H -0.51460296 2.667044 -1.5411086
H -1.0656703 2.4690018 0.12655526
H -2.0781157 0.63309306 -2.1378043
H -1.7754927 -0.9388011 -1.4049478
H -2.5102925 0.3610133 -0.4500361
H 0.68281186 -0.88774663 -2.077635
H 1.6990118 0.56899995 -1.6515921
H 1.0616454 0.30371627 1.8026423
H -0.5572231 -2.099931 -0.048827052
H 1.0120828 -2.186638 0.77053005
H -1.2840563 -0.93673795 1.8095748
