title
 OpenBabel02282109583D

 20 20  0  0  1  0  0  0  0  0999 V2000
   -0.3141    2.1392   -0.6015 C   0  0  0  0  0  0  0  0  0  0  0  0
   -0.3805    0.6370   -0.8044 C   0  0  0  0  0  0  0  0  0  0  0  0
   -1.7548    0.1374   -1.2144 C   0  0  0  0  0  0  0  0  0  0  0  0
    0.8391   -0.0464   -1.4087 C   0  0  0  0  0  0  0  0  0  0  0  0
    0.5491   -0.2286    0.0494 C   0  0  1  0  0  0  0  0  0  0  0  0
    1.4353    0.4268    0.9195 O   0  0  0  0  0  0  0  0  0  0  0  0
    0.1258   -1.5619    0.6188 C   0  0  0  0  0  0  0  0  0  0  0  0
   -0.4391   -1.3862    1.9207 O   0  0  0  0  0  0  0  0  0  0  0  0
    0.6648    2.4452   -0.2298 H   0  0  0  0  0  0  0  0  0  0  0  0
   -0.5146    2.6670   -1.5411 H   0  0  0  0  0  0  0  0  0  0  0  0
   -1.0657    2.4690    0.1266 H   0  0  0  0  0  0  0  0  0  0  0  0
   -2.0781    0.6331   -2.1378 H   0  0  0  0  0  0  0  0  0  0  0  0
   -1.7755   -0.9388   -1.4049 H   0  0  0  0  0  0  0  0  0  0  0  0
   -2.5103    0.3610   -0.4500 H   0  0  0  0  0  0  0  0  0  0  0  0
    0.6828   -0.8877   -2.0776 H   0  0  0  0  0  0  0  0  0  0  0  0
    1.6990    0.5690   -1.6516 H   0  0  0  0  0  0  0  0  0  0  0  0
    1.0616    0.3037    1.8026 H   0  0  0  0  0  0  0  0  0  0  0  0
   -0.5572   -2.0999   -0.0488 H   0  0  0  0  0  0  0  0  0  0  0  0
    1.0121   -2.1866    0.7705 H   0  0  0  0  0  0  0  0  0  0  0  0
   -1.2841   -0.9367    1.8096 H   0  0  0  0  0  0  0  0  0  0  0  0
  1  9  1  0  0  0  0
  1 11  1  0  0  0  0
  2  1  1  0  0  0  0
  2  5  1  0  0  0  0
  3  2  1  0  0  0  0
  3 14  1  0  0  0  0
  4  2  1  0  0  0  0
  4  5  1  0  0  0  0
  5  7  1  0  0  0  0
  5  6  1  1  0  0  0
  6 17  1  0  0  0  0
  7 19  1  0  0  0  0
  7  8  1  0  0  0  0
 10  1  1  0  0  0  0
 12  3  1  0  0  0  0
 13  3  1  0  0  0  0
 15  4  1  0  0  0  0
 16  4  1  0  0  0  0
 18  7  1  0  0  0  0
 20  8  1  0  0  0  0
M  END
