20
title
C -0.35207492 2.1547773 -1.066888
C -0.3350011 0.6545023 -0.8701282
O -1.515446 0.03604637 -1.3305138
C 0.9504762 -0.13218184 -1.0103091
C 0.27113488 0.010918243 0.3522659
C 0.939971 0.85751414 1.4208317
C -0.39364573 -1.2385043 0.91155785
O 0.54046965 -2.094839 1.5620136
H 0.56166244 2.631763 -0.7069899
H -0.4482938 2.392897 -2.1337652
H -1.2060624 2.600015 -0.5464538
H -1.5407641 0.13320778 -2.2889786
H 0.87837857 -1.0922191 -1.5132374
H 1.8777933 0.4046583 -1.185517
H 1.5939329 1.6264604 1.0028032
H 0.1960931 1.3548746 2.0543954
H 1.5447838 0.21134762 2.0634782
H -1.1187218 -0.96237195 1.6853814
H -0.9391538 -1.7638797 0.12070971
H 1.1960195 -2.3493183 0.9036898
