title
 OpenBabel02282109583D

 20 20  0  0  1  0  0  0  0  0999 V2000
   -0.3521    2.1548   -1.0669 C   0  0  0  0  0  0  0  0  0  0  0  0
   -0.3350    0.6545   -0.8701 C   0  0  1  0  0  0  0  0  0  0  0  0
   -1.5154    0.0360   -1.3305 O   0  0  0  0  0  0  0  0  0  0  0  0
    0.9505   -0.1322   -1.0103 C   0  0  0  0  0  0  0  0  0  0  0  0
    0.2711    0.0109    0.3523 C   0  0  1  0  0  0  0  0  0  0  0  0
    0.9400    0.8575    1.4208 C   0  0  0  0  0  0  0  0  0  0  0  0
   -0.3936   -1.2385    0.9116 C   0  0  0  0  0  0  0  0  0  0  0  0
    0.5405   -2.0948    1.5620 O   0  0  0  0  0  0  0  0  0  0  0  0
    0.5617    2.6318   -0.7070 H   0  0  0  0  0  0  0  0  0  0  0  0
   -0.4483    2.3929   -2.1338 H   0  0  0  0  0  0  0  0  0  0  0  0
   -1.2061    2.6000   -0.5465 H   0  0  0  0  0  0  0  0  0  0  0  0
   -1.5408    0.1332   -2.2890 H   0  0  0  0  0  0  0  0  0  0  0  0
    0.8784   -1.0922   -1.5132 H   0  0  0  0  0  0  0  0  0  0  0  0
    1.8778    0.4047   -1.1855 H   0  0  0  0  0  0  0  0  0  0  0  0
    1.5939    1.6265    1.0028 H   0  0  0  0  0  0  0  0  0  0  0  0
    0.1961    1.3549    2.0544 H   0  0  0  0  0  0  0  0  0  0  0  0
    1.5448    0.2113    2.0635 H   0  0  0  0  0  0  0  0  0  0  0  0
   -1.1187   -0.9624    1.6854 H   0  0  0  0  0  0  0  0  0  0  0  0
   -0.9392   -1.7639    0.1207 H   0  0  0  0  0  0  0  0  0  0  0  0
    1.1960   -2.3493    0.9037 H   0  0  0  0  0  0  0  0  0  0  0  0
  1  2  1  0  0  0  0
  1  9  1  0  0  0  0
  1 11  1  0  0  0  0
  2  5  1  1  0  0  0
  3  2  1  0  0  0  0
  4  2  1  0  0  0  0
  4  5  1  0  0  0  0
  5  7  1  1  0  0  0
  5  6  1  0  0  0  0
  6 16  1  0  0  0  0
  6 17  1  0  0  0  0
  7  8  1  0  0  0  0
  7 18  1  0  0  0  0
 10  1  1  0  0  0  0
 12  3  1  0  0  0  0
 13  4  1  0  0  0  0
 14  4  1  0  0  0  0
 15  6  1  0  0  0  0
 19  7  1  0  0  0  0
 20  8  1  0  0  0  0
M  END
