title
 OpenBabel02282109583D

 22 22  0  0  1  0  0  0  0  0999 V2000
    1.3563    2.4745   -0.3738 C   0  0  0  0  0  0  0  0  0  0  0  0
    1.2881    1.0338    0.1511 C   0  0  0  0  0  0  0  0  0  0  0  0
   -0.1060    0.4193    0.0799 C   0  0  1  0  0  0  0  0  0  0  0  0
   -1.1500    1.1432    0.9150 C   0  0  0  0  0  0  0  0  0  0  0  0
   -0.5602   -0.1666   -1.2531 C   0  0  0  0  0  0  0  0  0  0  0  0
   -0.2588   -1.0793   -0.0836 C   0  0  1  0  0  0  0  0  0  0  0  0
    0.9128   -2.0373   -0.1261 C   0  0  0  0  0  0  0  0  0  0  0  0
   -1.3628   -1.6268    0.6017 O   0  0  0  0  0  0  0  0  0  0  0  0
    2.3869    2.8428   -0.3604 H   0  0  0  0  0  0  0  0  0  0  0  0
    0.9917    2.5334   -1.4051 H   0  0  0  0  0  0  0  0  0  0  0  0
    0.7546    3.1587    0.2314 H   0  0  0  0  0  0  0  0  0  0  0  0
    1.9964    0.4262   -0.4203 H   0  0  0  0  0  0  0  0  0  0  0  0
    1.6373    1.0100    1.1925 H   0  0  0  0  0  0  0  0  0  0  0  0
   -1.3355    2.1495    0.5257 H   0  0  0  0  0  0  0  0  0  0  0  0
   -2.0935    0.5978    0.9248 H   0  0  0  0  0  0  0  0  0  0  0  0
   -0.8137    1.2447    1.9538 H   0  0  0  0  0  0  0  0  0  0  0  0
   -1.6028   -0.0412   -1.5278 H   0  0  0  0  0  0  0  0  0  0  0  0
    0.1338   -0.1490   -2.0886 H   0  0  0  0  0  0  0  0  0  0  0  0
    1.7618   -1.6418   -0.6867 H   0  0  0  0  0  0  0  0  0  0  0  0
    1.2473   -2.2860    0.8864 H   0  0  0  0  0  0  0  0  0  0  0  0
    0.6098   -2.9716   -0.6159 H   0  0  0  0  0  0  0  0  0  0  0  0
   -1.7037   -2.3531    0.0683 H   0  0  0  0  0  0  0  0  0  0  0  0
  1  9  1  0  0  0  0
  1  2  1  0  0  0  0
  1 11  1  0  0  0  0
  2 13  1  0  0  0  0
  3  6  1  1  0  0  0
  3  2  1  0  0  0  0
  3  4  1  0  0  0  0
  4 15  1  0  0  0  0
  4 16  1  0  0  0  0
  5  6  1  0  0  0  0
  5  3  1  0  0  0  0
  6  8  1  1  0  0  0
  7  6  1  0  0  0  0
  7 20  1  0  0  0  0
 10  1  1  0  0  0  0
 12  2  1  0  0  0  0
 14  4  1  0  0  0  0
 17  5  1  0  0  0  0
 18  5  1  0  0  0  0
 19  7  1  0  0  0  0
 21  7  1  0  0  0  0
 22  8  1  0  0  0  0
M  END
