22
title
C -0.39122754 2.4292495 1.374168
C -0.76163983 0.96569014 1.1001421
C -0.00041277756 0.37599796 -0.07552868
O -0.23626374 1.0718848 -1.2798749
C 1.3838437 -0.21045159 0.11322349
C 0.21113388 -1.1128935 -0.24910337
C -0.29807556 -2.0882194 0.79821134
C 0.1677138 -1.6806682 -1.6572696
H 0.6783369 2.53436 1.5883818
H -0.63152736 3.065749 0.5162279
H -0.94437003 2.8197513 2.233344
H -0.5739732 0.37469164 2.0008917
H -1.8365432 0.8951137 0.89161056
H 0.2700002 1.8900741 -1.2493125
H 2.1195753 -0.00759594 -0.65890986
H 1.7899274 -0.27074 1.1188341
H -0.17853339 -1.7180032 1.8189827
H -1.3594673 -2.3167481 0.6451283
H 0.25403342 -3.0327659 0.72853506
H 0.8121143 -2.5645108 -1.7307543
H -0.8505651 -1.9906257 -1.9202958
H 0.4912006 -0.9476037 -2.3962026
