title
 OpenBabel02282109583D

 20 20  0  0  1  0  0  0  0  0999 V2000
    1.2655    2.5266   -0.3358 C   0  0  0  0  0  0  0  0  0  0  0  0
    1.2997    1.0643    0.1254 C   0  0  0  0  0  0  0  0  0  0  0  0
   -0.0521    0.3881    0.0293 C   0  0  1  0  0  0  0  0  0  0  0  0
   -1.0300    0.9728    0.8711 O   0  0  0  0  0  0  0  0  0  0  0  0
   -0.5550   -0.2027   -1.2779 C   0  0  0  0  0  0  0  0  0  0  0  0
   -0.2452   -1.1072   -0.0913 C   0  0  1  0  0  0  0  0  0  0  0  0
    0.9004   -2.0867   -0.1448 C   0  0  0  0  0  0  0  0  0  0  0  0
   -1.3280   -1.6427    0.6119 O   0  0  0  0  0  0  0  0  0  0  0  0
    2.2539    2.9881   -0.2551 H   0  0  0  0  0  0  0  0  0  0  0  0
    0.9420    2.6053   -1.3796 H   0  0  0  0  0  0  0  0  0  0  0  0
    0.5762    3.1143    0.2791 H   0  0  0  0  0  0  0  0  0  0  0  0
    2.0278    0.5084   -0.4736 H   0  0  0  0  0  0  0  0  0  0  0  0
    1.6424    1.0141    1.1662 H   0  0  0  0  0  0  0  0  0  0  0  0
   -1.4744    1.6735    0.3836 H   0  0  0  0  0  0  0  0  0  0  0  0
   -1.6052   -0.0686   -1.5183 H   0  0  0  0  0  0  0  0  0  0  0  0
    0.1158   -0.2015   -2.1317 H   0  0  0  0  0  0  0  0  0  0  0  0
    1.7271   -1.7172   -0.7556 H   0  0  0  0  0  0  0  0  0  0  0  0
    1.2741   -2.3004    0.8617 H   0  0  0  0  0  0  0  0  0  0  0  0
    0.5523   -3.0287   -0.5809 H   0  0  0  0  0  0  0  0  0  0  0  0
   -1.7440   -0.8940    1.0629 H   0  0  0  0  0  0  0  0  0  0  0  0
  1  9  1  0  0  0  0
  1  2  1  0  0  0  0
  1 11  1  0  0  0  0
  2 13  1  0  0  0  0
  3  6  1  1  0  0  0
  3  2  1  0  0  0  0
  3  4  1  0  0  0  0
  5  6  1  0  0  0  0
  5  3  1  0  0  0  0
  6  8  1  1  0  0  0
  7  6  1  0  0  0  0
  7 18  1  0  0  0  0
  8 20  1  0  0  0  0
 10  1  1  0  0  0  0
 12  2  1  0  0  0  0
 14  4  1  0  0  0  0
 15  5  1  0  0  0  0
 16  5  1  0  0  0  0
 17  7  1  0  0  0  0
 19  7  1  0  0  0  0
M  END
