20
title
C 1.2654989 2.5266297 -0.33575273
C 1.2996801 1.0643165 0.12542209
C -0.052073848 0.38805014 0.029276641
O -1.0300186 0.9727945 0.8711444
C -0.55503213 -0.20274867 -1.2778847
C -0.24522127 -1.1071576 -0.09129776
C 0.9003538 -2.0867205 -0.14481184
O -1.3279719 -1.6427027 0.6119073
H 2.2539077 2.9880564 -0.2550657
H 0.9420162 2.6053414 -1.3795613
H 0.57615805 3.114337 0.27906346
H 2.027768 0.50840074 -0.4736322
H 1.6423692 1.0141039 1.1662499
H -1.4743991 1.6735446 0.38356268
H -1.6051662 -0.06857861 -1.5183498
H 0.11581718 -0.2014729 -2.1316895
H 1.7271376 -1.7172345 -0.7556105
H 1.2740878 -2.3003616 0.86166
H 0.5522508 -3.028676 -0.5809013
H -1.7439711 -0.8939891 1.0628874
