20
title
C 1.2100618 2.2794237 -0.38885465
O 1.0725162 1.0092013 0.21628456
C -0.19901107 0.4308924 0.08168468
C -1.289547 1.0867319 0.8997212
C -0.5280719 -0.18140745 -1.2744972
C -0.17325829 -1.0631214 -0.08679887
C 1.1344765 -1.819897 -0.07111395
O -1.2319655 -1.7362362 0.5494582
H 2.2639081 2.5562541 -0.30618382
H 0.9281531 2.25616 -1.4513965
H 0.6065573 3.0481536 0.113050684
H -1.5353351 2.0816972 0.5142396
H -2.1935618 0.47756296 0.8851337
H -0.963089 1.1922342 1.939391
H -1.5641222 -0.16539466 -1.5963506
H 0.20734604 -0.08048547 -2.0658975
H 1.943983 -1.2135204 -0.47865334
H 1.394291 -2.1000445 0.9544656
H 1.052508 -2.7385573 -0.6652217
H -1.4526112 -2.5042315 0.011018069
