title
 OpenBabel02282109583D

 20 20  0  0  1  0  0  0  0  0999 V2000
    1.2101    2.2794   -0.3889 C   0  0  0  0  0  0  0  0  0  0  0  0
    1.0725    1.0092    0.2163 O   0  0  0  0  0  0  0  0  0  0  0  0
   -0.1990    0.4309    0.0817 C   0  0  1  0  0  0  0  0  0  0  0  0
   -1.2895    1.0867    0.8997 C   0  0  0  0  0  0  0  0  0  0  0  0
   -0.5281   -0.1814   -1.2745 C   0  0  0  0  0  0  0  0  0  0  0  0
   -0.1733   -1.0631   -0.0868 C   0  0  1  0  0  0  0  0  0  0  0  0
    1.1345   -1.8199   -0.0711 C   0  0  0  0  0  0  0  0  0  0  0  0
   -1.2320   -1.7362    0.5495 O   0  0  0  0  0  0  0  0  0  0  0  0
    2.2639    2.5563   -0.3062 H   0  0  0  0  0  0  0  0  0  0  0  0
    0.9282    2.2562   -1.4514 H   0  0  0  0  0  0  0  0  0  0  0  0
    0.6066    3.0482    0.1131 H   0  0  0  0  0  0  0  0  0  0  0  0
   -1.5353    2.0817    0.5142 H   0  0  0  0  0  0  0  0  0  0  0  0
   -2.1936    0.4776    0.8851 H   0  0  0  0  0  0  0  0  0  0  0  0
   -0.9631    1.1922    1.9394 H   0  0  0  0  0  0  0  0  0  0  0  0
   -1.5641   -0.1654   -1.5964 H   0  0  0  0  0  0  0  0  0  0  0  0
    0.2073   -0.0805   -2.0659 H   0  0  0  0  0  0  0  0  0  0  0  0
    1.9440   -1.2135   -0.4787 H   0  0  0  0  0  0  0  0  0  0  0  0
    1.3943   -2.1000    0.9545 H   0  0  0  0  0  0  0  0  0  0  0  0
    1.0525   -2.7386   -0.6652 H   0  0  0  0  0  0  0  0  0  0  0  0
   -1.4526   -2.5042    0.0110 H   0  0  0  0  0  0  0  0  0  0  0  0
  1  9  1  0  0  0  0
  1 11  1  0  0  0  0
  1  2  1  0  0  0  0
  3  6  1  1  0  0  0
  3  2  1  0  0  0  0
  3  4  1  0  0  0  0
  4 14  1  0  0  0  0
  5  6  1  0  0  0  0
  5  3  1  0  0  0  0
  6  7  1  0  0  0  0
  6  8  1  1  0  0  0
  7 18  1  0  0  0  0
 10  1  1  0  0  0  0
 12  4  1  0  0  0  0
 13  4  1  0  0  0  0
 15  5  1  0  0  0  0
 16  5  1  0  0  0  0
 17  7  1  0  0  0  0
 19  7  1  0  0  0  0
 20  8  1  0  0  0  0
M  END
