title
 OpenBabel02282109583D

 24 24  0  0  0  0  0  0  0  0999 V2000
   -0.3551    1.7238    0.8505 C   0  0  0  0  0  0  0  0  0  0  0  0
   -0.4273    0.1932    0.6777 C   0  0  0  0  0  0  0  0  0  0  0  0
    0.2095   -0.4577    1.9242 C   0  0  0  0  0  0  0  0  0  0  0  0
   -1.9198   -0.1938    0.6068 C   0  0  0  0  0  0  0  0  0  0  0  0
    0.3122   -0.3029   -0.5926 C   0  0  0  0  0  0  0  0  0  0  0  0
    0.0839   -1.7638   -0.9616 C   0  0  0  0  0  0  0  0  0  0  0  0
    0.5295    0.6180   -1.7736 C   0  0  0  0  0  0  0  0  0  0  0  0
    1.6966    0.2222   -0.9001 C   0  0  0  0  0  0  0  0  0  0  0  0
    0.6724    2.0992    0.8579 H   0  0  0  0  0  0  0  0  0  0  0  0
   -0.9062    2.2508    0.0661 H   0  0  0  0  0  0  0  0  0  0  0  0
   -0.8073    2.0041    1.8075 H   0  0  0  0  0  0  0  0  0  0  0  0
   -0.3131   -0.1412    2.8335 H   0  0  0  0  0  0  0  0  0  0  0  0
    0.1639   -1.5499    1.8855 H   0  0  0  0  0  0  0  0  0  0  0  0
    1.2610   -0.1699    2.0236 H   0  0  0  0  0  0  0  0  0  0  0  0
   -2.3824    0.1886   -0.3096 H   0  0  0  0  0  0  0  0  0  0  0  0
   -2.0661   -1.2771    0.6326 H   0  0  0  0  0  0  0  0  0  0  0  0
   -2.4635    0.2302    1.4580 H   0  0  0  0  0  0  0  0  0  0  0  0
   -0.9547   -1.9558   -1.2488 H   0  0  0  0  0  0  0  0  0  0  0  0
    0.7124   -2.0429   -1.8129 H   0  0  0  0  0  0  0  0  0  0  0  0
    0.3341   -2.4419   -0.1390 H   0  0  0  0  0  0  0  0  0  0  0  0
    0.4611    0.1873   -2.7674 H   0  0  0  0  0  0  0  0  0  0  0  0
    0.1905    1.6452   -1.7207 H   0  0  0  0  0  0  0  0  0  0  0  0
    2.1278    0.9842   -0.2606 H   0  0  0  0  0  0  0  0  0  0  0  0
    2.4271   -0.4759   -1.2960 H   0  0  0  0  0  0  0  0  0  0  0  0
  1  9  1  0  0  0  0
  1 11  1  0  0  0  0
  2  1  1  0  0  0  0
  2  3  1  0  0  0  0
  3 14  1  0  0  0  0
  3 12  1  0  0  0  0
  4 16  1  0  0  0  0
  4  2  1  0  0  0  0
  4 17  1  0  0  0  0
  5  2  1  0  0  0  0
  6  5  1  0  0  0  0
  6 20  1  0  0  0  0
  7 22  1  0  0  0  0
  7  8  1  0  0  0  0
  7  5  1  0  0  0  0
  8  5  1  0  0  0  0
  8 23  1  0  0  0  0
 10  1  1  0  0  0  0
 13  3  1  0  0  0  0
 15  4  1  0  0  0  0
 18  6  1  0  0  0  0
 19  6  1  0  0  0  0
 21  7  1  0  0  0  0
 24  8  1  0  0  0  0
M  END
