title
 OpenBabel02282109583D

 22 22  0  0  0  0  0  0  0  0999 V2000
   -0.0477    1.8183    0.8023 C   0  0  0  0  0  0  0  0  0  0  0  0
   -0.3796    0.3256    0.6242 C   0  0  0  0  0  0  0  0  0  0  0  0
   -0.0175   -0.4376    1.9080 C   0  0  0  0  0  0  0  0  0  0  0  0
   -1.7890    0.1710    0.3897 O   0  0  0  0  0  0  0  0  0  0  0  0
    0.2947   -0.2248   -0.6465 C   0  0  0  0  0  0  0  0  0  0  0  0
   -0.2647    0.3319   -1.9483 C   0  0  0  0  0  0  0  0  0  0  0  0
    1.7763   -0.5191   -0.6288 C   0  0  0  0  0  0  0  0  0  0  0  0
    0.7831   -1.6539   -0.7032 C   0  0  0  0  0  0  0  0  0  0  0  0
    1.0274    1.9703    0.9385 H   0  0  0  0  0  0  0  0  0  0  0  0
   -0.3737    2.4002   -0.0622 H   0  0  0  0  0  0  0  0  0  0  0  0
   -0.5559    2.2180    1.6879 H   0  0  0  0  0  0  0  0  0  0  0  0
   -0.4919    0.0503    2.7673 H   0  0  0  0  0  0  0  0  0  0  0  0
   -0.3872   -1.4640    1.8634 H   0  0  0  0  0  0  0  0  0  0  0  0
    1.0588   -0.4535    2.1020 H   0  0  0  0  0  0  0  0  0  0  0  0
   -2.2525    0.5674    1.1349 H   0  0  0  0  0  0  0  0  0  0  0  0
   -0.1225    1.4149   -2.0272 H   0  0  0  0  0  0  0  0  0  0  0  0
    0.2428   -0.1244   -2.8038 H   0  0  0  0  0  0  0  0  0  0  0  0
   -1.3339    0.1260   -2.0304 H   0  0  0  0  0  0  0  0  0  0  0  0
    2.3486   -0.2692   -1.5162 H   0  0  0  0  0  0  0  0  0  0  0  0
    2.3303   -0.3938    0.2954 H   0  0  0  0  0  0  0  0  0  0  0  0
    0.6795   -2.2904    0.1665 H   0  0  0  0  0  0  0  0  0  0  0  0
    0.6722   -2.1804   -1.6452 H   0  0  0  0  0  0  0  0  0  0  0  0
  1  9  1  0  0  0  0
  1 11  1  0  0  0  0
  2  1  1  0  0  0  0
  2  3  1  0  0  0  0
  3 14  1  0  0  0  0
  3 12  1  0  0  0  0
  4  2  1  0  0  0  0
  4 15  1  0  0  0  0
  5  7  1  0  0  0  0
  5  2  1  0  0  0  0
  6  5  1  0  0  0  0
  7 20  1  0  0  0  0
  8  5  1  0  0  0  0
  8  7  1  0  0  0  0
  8 21  1  0  0  0  0
 10  1  1  0  0  0  0
 13  3  1  0  0  0  0
 16  6  1  0  0  0  0
 17  6  1  0  0  0  0
 18  6  1  0  0  0  0
 19  7  1  0  0  0  0
 22  8  1  0  0  0  0
M  END
