21
title
C -0.601463 1.8278456 0.5503382
C -0.2905362 0.32778832 0.67747205
C 0.4993489 0.035884198 1.9621522
O -1.528702 -0.39842895 0.7121943
C 0.45818838 -0.1908488 -0.56508386
C 1.7680248 0.49497232 -0.90276
C 0.290844 -1.6185213 -0.93871427
N -0.34243414 -0.5534556 -1.7475961
H 0.3058726 2.437041 0.56665933
H -1.1403667 2.030669 -0.3793249
H -1.2274212 2.1539233 1.3896194
H -0.06794265 0.3671772 2.8401766
H 0.6844433 -1.0371281 2.0577388
H 1.4596137 0.5589063 1.9778305
H -2.0529075 -0.049512897 1.439305
H 2.5030406 0.39206427 -0.0978502
H 2.1873937 0.046145733 -1.8059796
H 1.6275337 1.5615947 -1.1036166
H 1.1091658 -2.140879 -1.4278651
H -0.35467088 -2.238002 -0.32593107
H -1.3254932 -0.5188794 -1.4852127
