title
 OpenBabel02282109583D

 21 21  0  0  1  0  0  0  0  0999 V2000
   -0.6015    1.8278    0.5503 C   0  0  0  0  0  0  0  0  0  0  0  0
   -0.2905    0.3278    0.6775 C   0  0  0  0  0  0  0  0  0  0  0  0
    0.4993    0.0359    1.9622 C   0  0  0  0  0  0  0  0  0  0  0  0
   -1.5287   -0.3984    0.7122 O   0  0  0  0  0  0  0  0  0  0  0  0
    0.4582   -0.1908   -0.5651 C   0  0  1  0  0  0  0  0  0  0  0  0
    1.7680    0.4950   -0.9028 C   0  0  0  0  0  0  0  0  0  0  0  0
    0.2908   -1.6185   -0.9387 C   0  0  0  0  0  0  0  0  0  0  0  0
   -0.3424   -0.5535   -1.7476 N   0  0  0  0  0  0  0  0  0  0  0  0
    0.3059    2.4370    0.5667 H   0  0  0  0  0  0  0  0  0  0  0  0
   -1.1404    2.0307   -0.3793 H   0  0  0  0  0  0  0  0  0  0  0  0
   -1.2274    2.1539    1.3896 H   0  0  0  0  0  0  0  0  0  0  0  0
   -0.0679    0.3672    2.8402 H   0  0  0  0  0  0  0  0  0  0  0  0
    0.6844   -1.0371    2.0577 H   0  0  0  0  0  0  0  0  0  0  0  0
    1.4596    0.5589    1.9778 H   0  0  0  0  0  0  0  0  0  0  0  0
   -2.0529   -0.0495    1.4393 H   0  0  0  0  0  0  0  0  0  0  0  0
    2.5030    0.3921   -0.0979 H   0  0  0  0  0  0  0  0  0  0  0  0
    2.1874    0.0461   -1.8060 H   0  0  0  0  0  0  0  0  0  0  0  0
    1.6275    1.5616   -1.1036 H   0  0  0  0  0  0  0  0  0  0  0  0
    1.1092   -2.1409   -1.4279 H   0  0  0  0  0  0  0  0  0  0  0  0
   -0.3547   -2.2380   -0.3259 H   0  0  0  0  0  0  0  0  0  0  0  0
   -1.3255   -0.5189   -1.4852 H   0  0  0  0  0  0  0  0  0  0  0  0
  1  9  1  0  0  0  0
  1  2  1  0  0  0  0
  1 11  1  0  0  0  0
  2  4  1  0  0  0  0
  2  3  1  0  0  0  0
  3 14  1  0  0  0  0
  3 13  1  0  0  0  0
  3 12  1  0  0  0  0
  4 15  1  0  0  0  0
  5  6  1  6  0  0  0
  5  2  1  0  0  0  0
  6 16  1  0  0  0  0
  7  5  1  0  0  0  0
  7 20  1  0  0  0  0
  8 21  1  0  0  0  0
  8  7  1  0  0  0  0
  8  5  1  0  0  0  0
 10  1  1  0  0  0  0
 17  6  1  0  0  0  0
 18  6  1  0  0  0  0
 19  7  1  0  0  0  0
M  END
