title
 OpenBabel02282109583D

 20 20  0  0  0  0  0  0  0  0999 V2000
   -0.1330    1.8928    0.6190 C   0  0  0  0  0  0  0  0  0  0  0  0
   -0.3719    0.3696    0.6356 C   0  0  0  0  0  0  0  0  0  0  0  0
    0.0770   -0.2160    1.9742 C   0  0  0  0  0  0  0  0  0  0  0  0
   -1.7717    0.1068    0.5420 O   0  0  0  0  0  0  0  0  0  0  0  0
    0.3050   -0.2715   -0.5862 C   0  0  0  0  0  0  0  0  0  0  0  0
   -0.3495    0.1044   -1.7856 O   0  0  0  0  0  0  0  0  0  0  0  0
    1.7846   -0.5241   -0.6813 C   0  0  0  0  0  0  0  0  0  0  0  0
    0.8039   -1.6814   -0.6148 C   0  0  0  0  0  0  0  0  0  0  0  0
    0.9295    2.1356    0.7248 H   0  0  0  0  0  0  0  0  0  0  0  0
   -0.4979    2.3390   -0.3125 H   0  0  0  0  0  0  0  0  0  0  0  0
   -0.6836    2.3600    1.4395 H   0  0  0  0  0  0  0  0  0  0  0  0
   -0.4621    0.2885    2.7808 H   0  0  0  0  0  0  0  0  0  0  0  0
   -0.1631   -1.2797    2.0315 H   0  0  0  0  0  0  0  0  0  0  0  0
    1.1482   -0.0770    2.1443 H   0  0  0  0  0  0  0  0  0  0  0  0
   -1.9870    0.1793   -0.3971 H   0  0  0  0  0  0  0  0  0  0  0  0
   -0.0522    0.9901   -2.0216 H   0  0  0  0  0  0  0  0  0  0  0  0
    2.2570   -0.3241   -1.6371 H   0  0  0  0  0  0  0  0  0  0  0  0
    2.4090   -0.3274    0.1830 H   0  0  0  0  0  0  0  0  0  0  0  0
    0.7676   -2.2754    0.2895 H   0  0  0  0  0  0  0  0  0  0  0  0
    0.6217   -2.2307   -1.5309 H   0  0  0  0  0  0  0  0  0  0  0  0
  1  2  1  0  0  0  0
  1  9  1  0  0  0  0
  1 11  1  0  0  0  0
  2  3  1  0  0  0  0
  3 13  1  0  0  0  0
  3 14  1  0  0  0  0
  3 12  1  0  0  0  0
  4  2  1  0  0  0  0
  5  2  1  0  0  0  0
  6  5  1  0  0  0  0
  7  8  1  0  0  0  0
  7  5  1  0  0  0  0
  7 18  1  0  0  0  0
  8  5  1  0  0  0  0
  8 19  1  0  0  0  0
 10  1  1  0  0  0  0
 15  4  1  0  0  0  0
 16  6  1  0  0  0  0
 17  7  1  0  0  0  0
 20  8  1  0  0  0  0
M  END
