22
title
C -0.8473611 1.3633317 0.73631614
C -0.78853333 -0.16577947 0.5663441
C -0.14344308 -0.79532117 1.8180693
C -2.2278845 -0.69696635 0.41058058
C 0.011286706 -0.621339 -0.6637813
C 0.29509768 0.23889284 -1.8814332
C 1.4219124 -0.21767905 -0.98623407
O 2.0646987 0.69792676 -0.14120965
H 0.15194425 1.7950463 0.80802166
H -1.3724985 1.838651 -0.09909938
H -1.3988302 1.6113477 1.6498861
H -0.7344647 -0.5746572 2.7140768
H -0.07970795 -1.8851826 1.7216172
H 0.8683872 -0.40911046 1.9674594
H -2.6994686 -0.298812 -0.4943195
H -2.2445915 -1.7906657 0.3448609
H -2.8441894 -0.40534863 1.2680956
H -0.18421498 -1.6670458 -0.8946898
H 0.19561931 -0.18997805 -2.873125
H 0.0342668 1.2893384 -1.8162973
H 2.0796492 -0.9999258 -1.3661877
H 2.6120808 1.2716984 -0.68736947
