title
 OpenBabel02282109583D

 22 22  0  0  1  0  0  0  0  0999 V2000
   -0.8474    1.3633    0.7363 C   0  0  0  0  0  0  0  0  0  0  0  0
   -0.7885   -0.1658    0.5663 C   0  0  0  0  0  0  0  0  0  0  0  0
   -0.1434   -0.7953    1.8181 C   0  0  0  0  0  0  0  0  0  0  0  0
   -2.2279   -0.6970    0.4106 C   0  0  0  0  0  0  0  0  0  0  0  0
    0.0113   -0.6213   -0.6638 C   0  0  1  0  0  0  0  0  0  0  0  0
    0.2951    0.2389   -1.8814 C   0  0  0  0  0  0  0  0  0  0  0  0
    1.4219   -0.2177   -0.9862 C   0  0  1  0  0  0  0  0  0  0  0  0
    2.0647    0.6979   -0.1412 O   0  0  0  0  0  0  0  0  0  0  0  0
    0.1519    1.7950    0.8080 H   0  0  0  0  0  0  0  0  0  0  0  0
   -1.3725    1.8387   -0.0991 H   0  0  0  0  0  0  0  0  0  0  0  0
   -1.3988    1.6113    1.6499 H   0  0  0  0  0  0  0  0  0  0  0  0
   -0.7345   -0.5747    2.7141 H   0  0  0  0  0  0  0  0  0  0  0  0
   -0.0797   -1.8852    1.7216 H   0  0  0  0  0  0  0  0  0  0  0  0
    0.8684   -0.4091    1.9675 H   0  0  0  0  0  0  0  0  0  0  0  0
   -2.6995   -0.2988   -0.4943 H   0  0  0  0  0  0  0  0  0  0  0  0
   -2.2446   -1.7907    0.3449 H   0  0  0  0  0  0  0  0  0  0  0  0
   -2.8442   -0.4053    1.2681 H   0  0  0  0  0  0  0  0  0  0  0  0
   -0.1842   -1.6670   -0.8947 H   0  0  0  0  0  0  0  0  0  0  0  0
    0.1956   -0.1900   -2.8731 H   0  0  0  0  0  0  0  0  0  0  0  0
    0.0343    1.2893   -1.8163 H   0  0  0  0  0  0  0  0  0  0  0  0
    2.0796   -0.9999   -1.3662 H   0  0  0  0  0  0  0  0  0  0  0  0
    2.6121    1.2717   -0.6874 H   0  0  0  0  0  0  0  0  0  0  0  0
  1  9  1  0  0  0  0
  1 11  1  0  0  0  0
  2  1  1  0  0  0  0
  2  3  1  0  0  0  0
  3 14  1  0  0  0  0
  3 12  1  0  0  0  0
  4  2  1  0  0  0  0
  4 17  1  0  0  0  0
  5  7  1  1  0  0  0
  5  2  1  0  0  0  0
  6 20  1  0  0  0  0
  6  7  1  0  0  0  0
  6  5  1  0  0  0  0
  7 21  1  6  0  0  0
  7  8  1  0  0  0  0
 10  1  1  0  0  0  0
 13  3  1  0  0  0  0
 15  4  1  0  0  0  0
 16  4  1  0  0  0  0
 18  5  1  0  0  0  0
 19  6  1  0  0  0  0
 22  8  1  0  0  0  0
M  END
