title
 OpenBabel02282109583D

 20 20  0  0  1  0  0  0  0  0999 V2000
   -0.3623    2.3177    0.3248 C   0  0  0  0  0  0  0  0  0  0  0  0
   -0.3179    0.7884    0.4035 C   0  0  0  0  0  0  0  0  0  0  0  0
    0.3038    0.3555    1.7410 C   0  0  0  0  0  0  0  0  0  0  0  0
   -1.6852    0.3690    0.3508 O   0  0  0  0  0  0  0  0  0  0  0  0
    0.4167    0.2462   -0.8366 C   0  0  1  0  0  0  0  0  0  0  0  0
    1.7191   -0.5331   -0.7897 C   0  0  0  0  0  0  0  0  0  0  0  0
    0.4301   -1.2180   -1.1617 C   0  0  1  0  0  0  0  0  0  0  0  0
   -0.2085   -2.0655   -0.2390 O   0  0  0  0  0  0  0  0  0  0  0  0
    0.6487    2.7359    0.3097 H   0  0  0  0  0  0  0  0  0  0  0  0
   -0.8868    2.6331   -0.5817 H   0  0  0  0  0  0  0  0  0  0  0  0
   -0.8983    2.7247    1.1867 H   0  0  0  0  0  0  0  0  0  0  0  0
   -0.3146    0.7426    2.5557 H   0  0  0  0  0  0  0  0  0  0  0  0
    0.3390   -0.7330    1.8261 H   0  0  0  0  0  0  0  0  0  0  0  0
    1.3183    0.7485    1.8623 H   0  0  0  0  0  0  0  0  0  0  0  0
   -1.6739   -0.5960    0.3403 H   0  0  0  0  0  0  0  0  0  0  0  0
    0.2885    0.8852   -1.7058 H   0  0  0  0  0  0  0  0  0  0  0  0
    2.4621   -0.3621   -1.5615 H   0  0  0  0  0  0  0  0  0  0  0  0
    2.1286   -0.7634    0.1872 H   0  0  0  0  0  0  0  0  0  0  0  0
    0.2814   -1.5076   -2.2010 H   0  0  0  0  0  0  0  0  0  0  0  0
    0.2736   -2.8973   -0.1950 H   0  0  0  0  0  0  0  0  0  0  0  0
  1  2  1  0  0  0  0
  1 11  1  0  0  0  0
  2  3  1  0  0  0  0
  3 13  1  0  0  0  0
  3 14  1  0  0  0  0
  3 12  1  0  0  0  0
  4  2  1  0  0  0  0
  5  7  1  6  0  0  0
  5  6  1  0  0  0  0
  5  2  1  0  0  0  0
  6 18  1  0  0  0  0
  7 19  1  6  0  0  0
  7  6  1  0  0  0  0
  7  8  1  0  0  0  0
  8 20  1  0  0  0  0
  9  1  1  0  0  0  0
 10  1  1  0  0  0  0
 15  4  1  0  0  0  0
 16  5  1  0  0  0  0
 17  6  1  0  0  0  0
M  END
