title
 OpenBabel02282109583D

 24 24  0  0  1  0  0  0  0  0999 V2000
    0.6765   -0.5873   -2.3394 C   0  0  0  0  0  0  0  0  0  0  0  0
   -0.6071   -0.1193   -1.6840 C   0  0  1  0  0  0  0  0  0  0  0  0
   -1.4031   -1.0292   -0.7748 C   0  0  0  0  0  0  0  0  0  0  0  0
   -0.7994    0.2406   -0.2231 C   0  0  1  0  0  0  0  0  0  0  0  0
    0.2298    0.3280    0.9126 C   0  0  0  0  0  0  0  0  0  0  0  0
    0.9863    1.6650    0.7784 C   0  0  0  0  0  0  0  0  0  0  0  0
   -0.5592    0.3263    2.2399 C   0  0  0  0  0  0  0  0  0  0  0  0
    1.2506   -0.8230    0.9628 C   0  0  0  0  0  0  0  0  0  0  0  0
    1.1820   -1.3633   -1.7615 H   0  0  0  0  0  0  0  0  0  0  0  0
    0.4571   -1.0119   -3.3257 H   0  0  0  0  0  0  0  0  0  0  0  0
    1.3842    0.2363   -2.4888 H   0  0  0  0  0  0  0  0  0  0  0  0
   -1.2068    0.4970   -2.3508 H   0  0  0  0  0  0  0  0  0  0  0  0
   -2.4802   -1.0986   -0.8864 H   0  0  0  0  0  0  0  0  0  0  0  0
   -0.9308   -1.9697   -0.5080 H   0  0  0  0  0  0  0  0  0  0  0  0
   -1.5309    1.0396   -0.1055 H   0  0  0  0  0  0  0  0  0  0  0  0
    0.2915    2.5121    0.7756 H   0  0  0  0  0  0  0  0  0  0  0  0
    1.6832    1.8085    1.6119 H   0  0  0  0  0  0  0  0  0  0  0  0
    1.5611    1.7015   -0.1525 H   0  0  0  0  0  0  0  0  0  0  0  0
   -1.1097   -0.6116    2.3683 H   0  0  0  0  0  0  0  0  0  0  0  0
    0.1148    0.4433    3.0958 H   0  0  0  0  0  0  0  0  0  0  0  0
   -1.2848    1.1464    2.2716 H   0  0  0  0  0  0  0  0  0  0  0  0
    1.9378   -0.8049    0.1143 H   0  0  0  0  0  0  0  0  0  0  0  0
    1.8560   -0.7359    1.8717 H   0  0  0  0  0  0  0  0  0  0  0  0
    0.7629   -1.8024    0.9909 H   0  0  0  0  0  0  0  0  0  0  0  0
  1  9  1  0  0  0  0
  1  2  1  0  0  0  0
  2  3  1  0  0  0  0
  2  4  1  1  0  0  0
  3 14  1  0  0  0  0
  3  4  1  0  0  0  0
  4 15  1  1  0  0  0
  4  5  1  0  0  0  0
  5  8  1  0  0  0  0
  5  7  1  0  0  0  0
  6  5  1  0  0  0  0
  6 17  1  0  0  0  0
  7 21  1  0  0  0  0
  7 19  1  0  0  0  0
  7 20  1  0  0  0  0
  8 24  1  0  0  0  0
  8 23  1  0  0  0  0
 10  1  1  0  0  0  0
 11  1  1  0  0  0  0
 12  2  1  0  0  0  0
 13  3  1  0  0  0  0
 16  6  1  0  0  0  0
 18  6  1  0  0  0  0
 22  8  1  0  0  0  0
M  END
