title
 OpenBabel02282109583D

 22 22  0  0  1  0  0  0  0  0999 V2000
   -2.4213   -0.2910   -0.1610 C   0  0  0  0  0  0  0  0  0  0  0  0
   -1.2863   -0.4851   -1.1483 C   0  0  1  0  0  0  0  0  0  0  0  0
   -0.5032    0.6910   -1.6861 C   0  0  0  0  0  0  0  0  0  0  0  0
    0.1918   -0.3449   -0.8413 C   0  0  1  0  0  0  0  0  0  0  0  0
    0.8144   -0.0094    0.5171 C   0  0  0  0  0  0  0  0  0  0  0  0
    0.9365   -1.2804    1.3703 C   0  0  0  0  0  0  0  0  0  0  0  0
    2.1918    0.6274    0.2978 C   0  0  0  0  0  0  0  0  0  0  0  0
    0.0584    0.9803    1.2274 O   0  0  0  0  0  0  0  0  0  0  0  0
   -2.3055    0.6269    0.4188 H   0  0  0  0  0  0  0  0  0  0  0  0
   -3.3743   -0.2137   -0.6963 H   0  0  0  0  0  0  0  0  0  0  0  0
   -2.5117   -1.1341    0.5351 H   0  0  0  0  0  0  0  0  0  0  0  0
   -1.4969   -1.2665   -1.8755 H   0  0  0  0  0  0  0  0  0  0  0  0
   -0.2822    0.7510   -2.7464 H   0  0  0  0  0  0  0  0  0  0  0  0
   -0.6883    1.6466   -1.2059 H   0  0  0  0  0  0  0  0  0  0  0  0
    0.8155   -1.0461   -1.3926 H   0  0  0  0  0  0  0  0  0  0  0  0
    1.5514   -2.0351    0.8702 H   0  0  0  0  0  0  0  0  0  0  0  0
    1.3942   -1.0480    2.3369 H   0  0  0  0  0  0  0  0  0  0  0  0
   -0.0489   -1.7264    1.5486 H   0  0  0  0  0  0  0  0  0  0  0  0
    2.0874    1.5614   -0.2604 H   0  0  0  0  0  0  0  0  0  0  0  0
    2.6624    0.8507    1.2595 H   0  0  0  0  0  0  0  0  0  0  0  0
    2.8478   -0.0420   -0.2666 H   0  0  0  0  0  0  0  0  0  0  0  0
   -0.6673    0.5332    1.6723 H   0  0  0  0  0  0  0  0  0  0  0  0
  1  9  1  0  0  0  0
  1 11  1  0  0  0  0
  2  4  1  1  0  0  0
  2  1  1  0  0  0  0
  3 14  1  0  0  0  0
  3  2  1  0  0  0  0
  3  4  1  0  0  0  0
  4 15  1  6  0  0  0
  4  5  1  0  0  0  0
  5  8  1  0  0  0  0
  5  6  1  0  0  0  0
  6 18  1  0  0  0  0
  6 17  1  0  0  0  0
  7  5  1  0  0  0  0
  7 20  1  0  0  0  0
  8 22  1  0  0  0  0
 10  1  1  0  0  0  0
 12  2  1  0  0  0  0
 13  3  1  0  0  0  0
 16  6  1  0  0  0  0
 19  7  1  0  0  0  0
 21  7  1  0  0  0  0
M  END
