title
 OpenBabel02282109583D

 21 21  0  0  1  0  0  0  0  0999 V2000
    1.4812    0.0476   -1.8900 C   0  0  0  0  0  0  0  0  0  0  0  0
    0.2584   -0.7770   -1.5644 C   0  0  1  0  0  0  0  0  0  0  0  0
    0.3517   -1.7433   -0.4626 N   0  0  0  0  0  0  0  0  0  0  0  0
   -0.5978   -0.6229   -0.3483 C   0  0  1  0  0  0  0  0  0  0  0  0
   -0.4099    0.4352    0.7570 C   0  0  0  0  0  0  0  0  0  0  0  0
   -1.7211    0.5555    1.5515 C   0  0  0  0  0  0  0  0  0  0  0  0
    0.7467    0.1125    1.7023 C   0  0  0  0  0  0  0  0  0  0  0  0
   -0.0934    1.7151    0.1859 O   0  0  0  0  0  0  0  0  0  0  0  0
    1.9790    0.4106   -0.9921 H   0  0  0  0  0  0  0  0  0  0  0  0
    2.1936   -0.5531   -2.4666 H   0  0  0  0  0  0  0  0  0  0  0  0
    1.2073    0.9189   -2.4937 H   0  0  0  0  0  0  0  0  0  0  0  0
   -0.2839   -1.1118   -2.4500 H   0  0  0  0  0  0  0  0  0  0  0  0
   -0.1350   -2.6067   -0.6853 H   0  0  0  0  0  0  0  0  0  0  0  0
   -1.6469   -0.8727   -0.5118 H   0  0  0  0  0  0  0  0  0  0  0  0
   -1.9839   -0.3939    2.0302 H   0  0  0  0  0  0  0  0  0  0  0  0
   -1.6252    1.3231    2.3239 H   0  0  0  0  0  0  0  0  0  0  0  0
   -2.5507    0.8373    0.8915 H   0  0  0  0  0  0  0  0  0  0  0  0
    1.6872    0.0018    1.1620 H   0  0  0  0  0  0  0  0  0  0  0  0
    0.8515    0.9215    2.4310 H   0  0  0  0  0  0  0  0  0  0  0  0
    0.5586   -0.8246    2.2310 H   0  0  0  0  0  0  0  0  0  0  0  0
   -0.7686    1.9179   -0.4704 H   0  0  0  0  0  0  0  0  0  0  0  0
  1  2  1  0  0  0  0
  1  9  1  0  0  0  0
  2  3  1  0  0  0  0
  2  4  1  1  0  0  0
  3  4  1  0  0  0  0
  4 14  1  6  0  0  0
  4  5  1  0  0  0  0
  5  6  1  0  0  0  0
  5  7  1  0  0  0  0
  6 15  1  0  0  0  0
  6 16  1  0  0  0  0
  7 20  1  0  0  0  0
  7 19  1  0  0  0  0
  8  5  1  0  0  0  0
 10  1  1  0  0  0  0
 11  1  1  0  0  0  0
 12  2  1  0  0  0  0
 13  3  1  0  0  0  0
 17  6  1  0  0  0  0
 18  7  1  0  0  0  0
 21  8  1  0  0  0  0
M  END
