title
 OpenBabel02282109583D

 22 22  0  0  1  0  0  0  0  0999 V2000
   -0.0695    1.0834   -2.2709 C   0  0  0  0  0  0  0  0  0  0  0  0
   -0.4161   -0.2628   -1.6853 C   0  0  1  0  0  0  0  0  0  0  0  0
    0.6481   -1.0811   -1.1762 O   0  0  0  0  0  0  0  0  0  0  0  0
   -0.3932   -0.6928   -0.2738 C   0  0  1  0  0  0  0  0  0  0  0  0
   -0.0438    0.0625    1.0093 C   0  0  0  0  0  0  0  0  0  0  0  0
    1.0179    1.1600    0.8329 C   0  0  0  0  0  0  0  0  0  0  0  0
   -1.3454    0.6665    1.5695 C   0  0  0  0  0  0  0  0  0  0  0  0
    0.5034   -0.9911    1.9976 C   0  0  0  0  0  0  0  0  0  0  0  0
    0.7313    1.5802   -1.7274 H   0  0  0  0  0  0  0  0  0  0  0  0
    0.2542    0.9568   -3.3097 H   0  0  0  0  0  0  0  0  0  0  0  0
   -0.9504    1.7351   -2.2781 H   0  0  0  0  0  0  0  0  0  0  0  0
   -1.1125   -0.8256   -2.3143 H   0  0  0  0  0  0  0  0  0  0  0  0
   -1.0803   -1.5173   -0.0525 H   0  0  0  0  0  0  0  0  0  0  0  0
    0.6198    2.0409    0.3230 H   0  0  0  0  0  0  0  0  0  0  0  0
    1.3757    1.4891    1.8141 H   0  0  0  0  0  0  0  0  0  0  0  0
    1.8745    0.7845    0.2670 H   0  0  0  0  0  0  0  0  0  0  0  0
   -2.1097   -0.1036    1.7227 H   0  0  0  0  0  0  0  0  0  0  0  0
   -1.1617    1.1478    2.5359 H   0  0  0  0  0  0  0  0  0  0  0  0
   -1.7579    1.4200    0.8905 H   0  0  0  0  0  0  0  0  0  0  0  0
    1.4246   -1.4414    1.6149 H   0  0  0  0  0  0  0  0  0  0  0  0
    0.7241   -0.5326    2.9672 H   0  0  0  0  0  0  0  0  0  0  0  0
   -0.2207   -1.7961    2.1643 H   0  0  0  0  0  0  0  0  0  0  0  0
  1  9  1  0  0  0  0
  1  2  1  0  0  0  0
  2  3  1  0  0  0  0
  2  4  1  1  0  0  0
  3  4  1  0  0  0  0
  4 13  1  1  0  0  0
  4  5  1  0  0  0  0
  5  7  1  0  0  0  0
  5  8  1  0  0  0  0
  6  5  1  0  0  0  0
  6 15  1  0  0  0  0
  7 17  1  0  0  0  0
  7 18  1  0  0  0  0
  8 22  1  0  0  0  0
  8 21  1  0  0  0  0
 10  1  1  0  0  0  0
 11  1  1  0  0  0  0
 12  2  1  0  0  0  0
 14  6  1  0  0  0  0
 16  6  1  0  0  0  0
 19  7  1  0  0  0  0
 20  8  1  0  0  0  0
M  END
