22
title
C -0.06952784 1.083379 -2.2709367
C -0.41614744 -0.26275435 -1.6853116
O 0.64810574 -1.0810858 -1.1762071
C -0.39316222 -0.69282395 -0.2737806
C -0.04382405 0.06252133 1.0092506
C 1.017933 1.1600001 0.8328528
C -1.3453597 0.66645145 1.5695233
C 0.50336516 -0.9911329 1.9976315
H 0.731336 1.5801854 -1.7273573
H 0.25420883 0.9568397 -3.3097484
H -0.9504118 1.7350782 -2.2781384
H -1.1125116 -0.8256468 -2.3142505
H -1.080327 -1.5173163 -0.05252782
H 0.61982787 2.0409362 0.322952
H 1.375677 1.4891261 1.8141193
H 1.8745028 0.78445274 0.26700482
H -2.1097183 -0.10357771 1.7227099
H -1.1616905 1.1477878 2.5358796
H -1.7579144 1.4200027 0.89050764
H 1.4246227 -1.4413935 1.6148875
H 0.7241019 -0.5325959 2.9671636
H -0.22074565 -1.7960614 2.1642714
