title
 OpenBabel02282109583D

 24 24  0  0  0  0  0  0  0  0999 V2000
   -1.0817    1.6896    0.8036 C   0  0  0  0  0  0  0  0  0  0  0  0
   -1.0204    0.1618    0.6183 C   0  0  0  0  0  0  0  0  0  0  0  0
   -0.2901   -0.4705    1.8166 C   0  0  0  0  0  0  0  0  0  0  0  0
   -2.4573   -0.3892    0.5574 C   0  0  0  0  0  0  0  0  0  0  0  0
   -0.3162   -0.1985   -0.7164 C   0  0  0  0  0  0  0  0  0  0  0  0
    1.1258    0.2429   -0.8733 C   0  0  0  0  0  0  0  0  0  0  0  0
    2.2707   -0.6563   -0.4722 C   0  0  0  0  0  0  0  0  0  0  0  0
    1.9923   -0.3955   -1.9311 C   0  0  0  0  0  0  0  0  0  0  0  0
   -0.0844    2.1284    0.9074 H   0  0  0  0  0  0  0  0  0  0  0  0
   -1.5754    2.1730   -0.0471 H   0  0  0  0  0  0  0  0  0  0  0  0
   -1.6469    1.9467    1.7062 H   0  0  0  0  0  0  0  0  0  0  0  0
   -0.8135   -0.2429    2.7520 H   0  0  0  0  0  0  0  0  0  0  0  0
   -0.2415   -1.5610    1.7205 H   0  0  0  0  0  0  0  0  0  0  0  0
    0.7337   -0.0968    1.9053 H   0  0  0  0  0  0  0  0  0  0  0  0
   -3.0136    0.0435   -0.2818 H   0  0  0  0  0  0  0  0  0  0  0  0
   -2.4587   -1.4779    0.4326 H   0  0  0  0  0  0  0  0  0  0  0  0
   -3.0072   -0.1584    1.4765 H   0  0  0  0  0  0  0  0  0  0  0  0
   -0.3633   -1.2882   -0.8520 H   0  0  0  0  0  0  0  0  0  0  0  0
   -0.9082    0.2317   -1.5370 H   0  0  0  0  0  0  0  0  0  0  0  0
    1.2957    1.3060   -0.7269 H   0  0  0  0  0  0  0  0  0  0  0  0
    3.1528   -0.2092   -0.0264 H   0  0  0  0  0  0  0  0  0  0  0  0
    2.0288   -1.6389   -0.0805 H   0  0  0  0  0  0  0  0  0  0  0  0
    1.5624   -1.2024   -2.5162 H   0  0  0  0  0  0  0  0  0  0  0  0
    2.6818    0.2327   -2.4845 H   0  0  0  0  0  0  0  0  0  0  0  0
  1  9  1  0  0  0  0
  1 11  1  0  0  0  0
  2  1  1  0  0  0  0
  2  3  1  0  0  0  0
  3 14  1  0  0  0  0
  3 12  1  0  0  0  0
  4  2  1  0  0  0  0
  4 17  1  0  0  0  0
  5  2  1  0  0  0  0
  6 20  1  0  0  0  0
  6  5  1  0  0  0  0
  6  7  1  0  0  0  0
  7 22  1  0  0  0  0
  7 21  1  0  0  0  0
  8  6  1  0  0  0  0
  8  7  1  0  0  0  0
 10  1  1  0  0  0  0
 13  3  1  0  0  0  0
 15  4  1  0  0  0  0
 16  4  1  0  0  0  0
 18  5  1  0  0  0  0
 19  5  1  0  0  0  0
 23  8  1  0  0  0  0
 24  8  1  0  0  0  0
M  END
