22
title
C -0.96410704 1.450329 0.60231096
C -0.9529988 -0.08452518 0.7272944
C -0.33481735 -0.48969996 2.0786688
C -2.4003084 -0.60680294 0.665323
C -0.16818017 -0.7229459 -0.44857436
C 1.2851516 -0.33178285 -0.57093114
C 1.9633402 -0.2647993 -1.8721064
O 1.5778795 0.928179 -1.1893555
H 0.04457098 1.8685833 0.64764696
H -1.4062619 1.7650329 -0.34889942
H -1.5545765 1.8954718 1.4108212
H -0.93576044 -0.0998237 2.9072354
H -0.28934115 -1.5796591 2.186046
H 0.67912906 -0.09592369 2.2004235
H -2.8763485 -0.3413433 -0.28519237
H -2.4359643 -1.6976545 0.76466066
H -3.0050232 -0.1782488 1.4718871
H -0.21642935 -1.8167549 -0.3496284
H -0.66827035 -0.46863937 -1.3912495
H 1.9119874 -0.5411225 0.2969169
H 3.0361 -0.44252032 -1.9373637
H 1.402531 -0.4853102 -2.7799783
