22
title
C -0.91116035 1.6205829 1.0600502
C -0.8845418 0.12773907 0.6943514
C -0.12325814 -0.6776439 1.7571746
C -2.313521 -0.40242317 0.5448189
O -0.32086542 -0.06461118 -0.6195359
C 1.0022404 0.3145054 -0.8310462
C 2.113119 -0.70094687 -0.7055589
C 1.6387812 -0.23668763 -2.0675364
H 0.092917055 2.019401 1.2318233
H -1.3823065 2.1987238 0.2596535
H -1.4843845 1.7744585 1.9794278
H -0.6124917 -0.5727013 2.7308617
H -0.10601202 -1.7398975 1.4961185
H 0.9083578 -0.33154386 1.8596313
H -2.8485265 0.16167422 -0.22430024
H -2.2966354 -1.4541327 0.2456612
H -2.861719 -0.3155085 1.4874738
H 1.2374893 1.3450093 -0.5708915
H 3.0833097 -0.3736128 -0.34638932
H 1.8304223 -1.7027568 -0.4044259
H 1.0390719 -0.9325919 -2.6430907
H 2.2773683 0.41128403 -2.6571705
