title
 OpenBabel02282109583D

 20 20  0  0  1  0  0  0  0  0999 V2000
   -0.3156    1.4774    1.3291 C   0  0  0  0  0  0  0  0  0  0  0  0
    0.0909    0.0081    1.1212 C   0  0  0  0  0  0  0  0  0  0  0  0
    0.8052   -0.5281    2.3639 C   0  0  0  0  0  0  0  0  0  0  0  0
   -1.0743   -0.8008    0.9685 O   0  0  0  0  0  0  0  0  0  0  0  0
    1.0017   -0.1711   -0.1214 C   0  0  0  0  0  0  0  0  0  0  0  0
    0.4373    0.4348   -1.3881 C   0  0  1  0  0  0  0  0  0  0  0  0
    0.2086   -0.3511   -2.6074 C   0  0  0  0  0  0  0  0  0  0  0  0
   -0.8911    0.0127   -1.7671 O   0  0  0  0  0  0  0  0  0  0  0  0
    0.5587    2.1291    1.4389 H   0  0  0  0  0  0  0  0  0  0  0  0
   -0.9142    1.8429    0.4894 H   0  0  0  0  0  0  0  0  0  0  0  0
   -0.9249    1.5636    2.2329 H   0  0  0  0  0  0  0  0  0  0  0  0
    0.1232   -0.5046    3.2186 H   0  0  0  0  0  0  0  0  0  0  0  0
    1.1176   -1.5649    2.2092 H   0  0  0  0  0  0  0  0  0  0  0  0
    1.6874    0.0727    2.6056 H   0  0  0  0  0  0  0  0  0  0  0  0
   -1.4044   -0.6605    0.0710 H   0  0  0  0  0  0  0  0  0  0  0  0
    1.9845    0.2787    0.0648 H   0  0  0  0  0  0  0  0  0  0  0  0
    1.1535   -1.2470   -0.2589 H   0  0  0  0  0  0  0  0  0  0  0  0
    0.5832    1.5078   -1.5106 H   0  0  0  0  0  0  0  0  0  0  0  0
    0.2193    0.1353   -3.5812 H   0  0  0  0  0  0  0  0  0  0  0  0
    0.4609   -1.4103   -2.6126 H   0  0  0  0  0  0  0  0  0  0  0  0
  1  9  1  0  0  0  0
  1 11  1  0  0  0  0
  2  1  1  0  0  0  0
  2  3  1  0  0  0  0
  3 14  1  0  0  0  0
  3 12  1  0  0  0  0
  4  2  1  0  0  0  0
  5 16  1  0  0  0  0
  5  2  1  0  0  0  0
  6 18  1  6  0  0  0
  6  5  1  0  0  0  0
  7  8  1  0  0  0  0
  7  6  1  0  0  0  0
  8  6  1  0  0  0  0
 10  1  1  0  0  0  0
 13  3  1  0  0  0  0
 15  4  1  0  0  0  0
 17  5  1  0  0  0  0
 19  7  1  0  0  0  0
 20  7  1  0  0  0  0
M  END
