title
 OpenBabel02282109583D

 20 21  0  0  1  0  0  0  0  0999 V2000
    0.2748    2.4646   -0.1479 C   0  0  0  0  0  0  0  0  0  0  0  0
    0.3005    0.9602   -0.1518 C   0  0  1  0  0  0  0  0  0  0  0  0
    0.9232    0.0097   -1.2181 C   0  0  0  0  0  0  0  0  0  0  0  0
    0.3247   -0.9528   -0.1487 C   0  0  1  0  0  0  0  0  0  0  0  0
    0.3371   -2.4573   -0.1399 C   0  0  0  0  0  0  0  0  0  0  0  0
    0.9365    0.0134    0.9166 C   0  0  0  0  0  0  0  0  0  0  0  0
   -0.9236   -0.0120   -0.1759 C   0  0  1  0  0  0  0  0  0  0  0  0
   -1.8760   -0.0224    0.8531 O   0  0  0  0  0  0  0  0  0  0  0  0
    1.2846    2.8835   -0.0788 H   0  0  0  0  0  0  0  0  0  0  0  0
   -0.1882    2.8511   -1.0625 H   0  0  0  0  0  0  0  0  0  0  0  0
   -0.3049    2.8408    0.7024 H   0  0  0  0  0  0  0  0  0  0  0  0
    0.4549    0.0022   -2.2078 H   0  0  0  0  0  0  0  0  0  0  0  0
    2.0138    0.0234   -1.2927 H   0  0  0  0  0  0  0  0  0  0  0  0
    1.3571   -2.8504   -0.0681 H   0  0  0  0  0  0  0  0  0  0  0  0
   -0.2341   -2.8452    0.7109 H   0  0  0  0  0  0  0  0  0  0  0  0
   -0.1148   -2.8584   -1.0538 H   0  0  0  0  0  0  0  0  0  0  0  0
    2.0284    0.0273    0.9860 H   0  0  0  0  0  0  0  0  0  0  0  0
    0.5079    0.0096    1.9259 H   0  0  0  0  0  0  0  0  0  0  0  0
   -1.4980   -0.0208   -1.1077 H   0  0  0  0  0  0  0  0  0  0  0  0
   -1.4248   -0.0152    1.7033 H   0  0  0  0  0  0  0  0  0  0  0  0
  1  9  1  0  0  0  0
  1 11  1  0  0  0  0
  2  7  1  1  0  0  0
  2  1  1  0  0  0  0
  2  6  1  0  0  0  0
  3  2  1  0  0  0  0
  3  4  1  0  0  0  0
  4  7  1  1  0  0  0
  4  5  1  0  0  0  0
  4  6  1  0  0  0  0
  5 14  1  0  0  0  0
  5 15  1  0  0  0  0
  6 17  1  0  0  0  0
  6 18  1  0  0  0  0
  7 19  1  6  0  0  0
  7  8  1  0  0  0  0
  8 20  1  0  0  0  0
 10  1  1  0  0  0  0
 12  3  1  0  0  0  0
 13  3  1  0  0  0  0
 16  5  1  0  0  0  0
M  END
