title
 OpenBabel02282109583D

 18 19  0  0  1  0  0  0  0  0999 V2000
    0.2935    2.3956   -0.0853 C   0  0  0  0  0  0  0  0  0  0  0  0
    0.2339    0.9126   -0.2615 C   0  0  1  0  0  0  0  0  0  0  0  0
    0.9169   -0.0142   -1.2900 C   0  0  0  0  0  0  0  0  0  0  0  0
    0.2933   -0.9112   -0.1992 C   0  0  1  0  0  0  0  0  0  0  0  0
    0.4488   -2.3716    0.0777 C   0  0  0  0  0  0  0  0  0  0  0  0
    0.8040    0.0546    0.8300 O   0  0  0  0  0  0  0  0  0  0  0  0
   -0.9991   -0.0414   -0.2573 C   0  0  1  0  0  0  0  0  0  0  0  0
   -1.8237   -0.0300    0.8604 O   0  0  0  0  0  0  0  0  0  0  0  0
    1.3222    2.7287    0.0811 H   0  0  0  0  0  0  0  0  0  0  0  0
   -0.0947    2.8969   -0.9775 H   0  0  0  0  0  0  0  0  0  0  0  0
   -0.3164    2.7004    0.7710 H   0  0  0  0  0  0  0  0  0  0  0  0
    0.4971   -0.0624   -2.2991 H   0  0  0  0  0  0  0  0  0  0  0  0
    2.0069    0.0216   -1.2824 H   0  0  0  0  0  0  0  0  0  0  0  0
    1.4966   -2.6250    0.2642 H   0  0  0  0  0  0  0  0  0  0  0  0
   -0.1419   -2.6563    0.9541 H   0  0  0  0  0  0  0  0  0  0  0  0
    0.0962   -2.9568   -0.7774 H   0  0  0  0  0  0  0  0  0  0  0  0
   -1.6182   -0.0923   -1.1565 H   0  0  0  0  0  0  0  0  0  0  0  0
   -1.2105    0.0156    1.6101 H   0  0  0  0  0  0  0  0  0  0  0  0
  1  9  1  0  0  0  0
  1 11  1  0  0  0  0
  2  7  1  6  0  0  0
  2  1  1  0  0  0  0
  2  6  1  0  0  0  0
  3 13  1  0  0  0  0
  3  2  1  0  0  0  0
  3  4  1  0  0  0  0
  4  7  1  6  0  0  0
  4  5  1  0  0  0  0
  4  6  1  0  0  0  0
  5 14  1  0  0  0  0
  5 15  1  0  0  0  0
  7 17  1  6  0  0  0
  7  8  1  0  0  0  0
  8 18  1  0  0  0  0
 10  1  1  0  0  0  0
 12  3  1  0  0  0  0
 16  5  1  0  0  0  0
M  END
