title
 OpenBabel02282109583D

 22 23  0  0  1  0  0  0  0  0999 V2000
   -1.0393    1.9317   -0.1642 C   0  0  0  0  0  0  0  0  0  0  0  0
   -0.8561    0.4209   -0.1384 C   0  0  1  0  0  0  0  0  0  0  0  0
    0.3094   -0.2890   -0.9113 C   0  0  1  0  0  0  0  0  0  0  0  0
    0.5529   -0.2892   -2.3975 C   0  0  0  0  0  0  0  0  0  0  0  0
    1.2789    0.1994    0.2091 C   0  0  0  0  0  0  0  0  0  0  0  0
    0.0042   -0.2942    0.9609 C   0  0  1  0  0  0  0  0  0  0  0  0
   -0.2371   -0.3025    2.4474 C   0  0  0  0  0  0  0  0  0  0  0  0
    0.0328   -1.5221    0.0012 C   0  0  0  0  0  0  0  0  0  0  0  0
   -0.1107    2.4878   -0.0111 H   0  0  0  0  0  0  0  0  0  0  0  0
   -1.4590    2.2512   -1.1250 H   0  0  0  0  0  0  0  0  0  0  0  0
   -1.7430    2.2464    0.6150 H   0  0  0  0  0  0  0  0  0  0  0  0
   -1.8284   -0.0646   -0.2983 H   0  0  0  0  0  0  0  0  0  0  0  0
    0.7076    0.7281   -2.7746 H   0  0  0  0  0  0  0  0  0  0  0  0
    1.4418   -0.8771   -2.6523 H   0  0  0  0  0  0  0  0  0  0  0  0
   -0.2986   -0.7196   -2.9367 H   0  0  0  0  0  0  0  0  0  0  0  0
    2.1834   -0.4000    0.3549 H   0  0  0  0  0  0  0  0  0  0  0  0
    1.5173    1.2643    0.2509 H   0  0  0  0  0  0  0  0  0  0  0  0
   -0.2110    0.7126    2.8596 H   0  0  0  0  0  0  0  0  0  0  0  0
   -1.2154   -0.7350    2.6858 H   0  0  0  0  0  0  0  0  0  0  0  0
    0.5253   -0.8926    2.9682 H   0  0  0  0  0  0  0  0  0  0  0  0
   -0.9160   -2.0462   -0.1550 H   0  0  0  0  0  0  0  0  0  0  0  0
    0.8607   -2.2259    0.1342 H   0  0  0  0  0  0  0  0  0  0  0  0
  1  2  1  0  0  0  0
  1  9  1  0  0  0  0
  1 11  1  0  0  0  0
  2  3  1  6  0  0  0
  3  4  1  6  0  0  0
  3  8  1  0  0  0  0
  3  5  1  0  0  0  0
  5 17  1  0  0  0  0
  5 16  1  0  0  0  0
  5  6  1  0  0  0  0
  6  2  1  6  0  0  0
  6  7  1  0  0  0  0
  7 19  1  0  0  0  0
  7 18  1  0  0  0  0
  7 20  1  0  0  0  0
  8 22  1  0  0  0  0
  8  6  1  0  0  0  0
 10  1  1  0  0  0  0
 12  2  1  0  0  0  0
 13  4  1  0  0  0  0
 14  4  1  0  0  0  0
 15  4  1  0  0  0  0
 21  8  1  0  0  0  0
M  END
