title
 OpenBabel02282109583D

 20 21  0  0  1  0  0  0  0  0999 V2000
   -1.0622    2.0148   -0.1759 C   0  0  0  0  0  0  0  0  0  0  0  0
   -0.8622    0.5079   -0.1467 C   0  0  1  0  0  0  0  0  0  0  0  0
    0.3182   -0.2180   -0.8635 C   0  0  1  0  0  0  0  0  0  0  0  0
    0.5483   -0.4566   -2.3233 C   0  0  0  0  0  0  0  0  0  0  0  0
    1.3012    0.2852    0.2249 C   0  0  0  0  0  0  0  0  0  0  0  0
    0.0114   -0.2241    0.9187 C   0  0  1  0  0  0  0  0  0  0  0  0
   -0.2596   -0.4726    2.3698 C   0  0  0  0  0  0  0  0  0  0  0  0
    0.0437   -1.3965    0.0028 O   0  0  0  0  0  0  0  0  0  0  0  0
   -0.1387    2.5773   -0.0148 H   0  0  0  0  0  0  0  0  0  0  0  0
   -1.4764    2.3281   -1.1408 H   0  0  0  0  0  0  0  0  0  0  0  0
   -1.7759    2.3221    0.5966 H   0  0  0  0  0  0  0  0  0  0  0  0
   -1.8032   -0.0270   -0.3105 H   0  0  0  0  0  0  0  0  0  0  0  0
    0.7296    0.4917   -2.8395 H   0  0  0  0  0  0  0  0  0  0  0  0
    1.4172   -1.1039   -2.4765 H   0  0  0  0  0  0  0  0  0  0  0  0
   -0.3253   -0.9354   -2.7764 H   0  0  0  0  0  0  0  0  0  0  0  0
    2.1754   -0.3514    0.3732 H   0  0  0  0  0  0  0  0  0  0  0  0
    1.5474    1.3483    0.2709 H   0  0  0  0  0  0  0  0  0  0  0  0
   -0.2628    0.4721    2.9231 H   0  0  0  0  0  0  0  0  0  0  0  0
   -1.2337   -0.9537    2.5015 H   0  0  0  0  0  0  0  0  0  0  0  0
    0.5090   -1.1216    2.8006 H   0  0  0  0  0  0  0  0  0  0  0  0
  1  2  1  0  0  0  0
  1  9  1  0  0  0  0
  1 11  1  0  0  0  0
  2 12  1  6  0  0  0
  3  2  1  1  0  0  0
  3  8  1  0  0  0  0
  3  5  1  0  0  0  0
  4  3  1  0  0  0  0
  5 17  1  0  0  0  0
  5 16  1  0  0  0  0
  5  6  1  0  0  0  0
  6  2  1  6  0  0  0
  6  7  1  0  0  0  0
  7 19  1  0  0  0  0
  7 20  1  0  0  0  0
  7 18  1  0  0  0  0
  8  6  1  0  0  0  0
 10  1  1  0  0  0  0
 13  4  1  0  0  0  0
 14  4  1  0  0  0  0
 15  4  1  0  0  0  0
M  END
