18
title
C -1.031922 1.9339106 -0.15981603
C -0.85472405 0.4244529 -0.13566305
C 0.30479822 -0.28679302 -0.890707
O 0.4469323 -0.22559187 -2.2623558
C 1.2997044 0.20756826 0.20859732
C 0.011811823 -0.29177603 0.9397733
O -0.2813932 -0.23795852 2.2875497
C 0.033554107 -1.5401006 0.0011574418
H -0.1013228 2.4865272 -0.011058068
H -1.4529096 2.2474387 -1.1206604
H -1.729452 2.2429454 0.6254981
H -1.8218004 -0.06771975 -0.2917629
H 1.2325 -0.7234155 -2.5125334
H 2.199993 -0.39942893 0.35103676
H 1.5302678 1.272013 0.2484204
H 0.38762233 -0.7371899 2.7678819
H -0.91779596 -2.0553684 -0.15252076
H 0.8668206 -2.237749 0.13262399
