20
title
C -0.9253674 2.123245 -0.14662655
C -0.81644315 0.6002663 -0.1994693
C -2.1868575 -0.033726495 -0.44520584
C 0.27394283 0.00611772 -1.1722617
C 0.9232663 -0.69738376 0.026116867
O 1.3760693 -2.0066507 0.007630934
C 1.3664255 0.29929784 1.0563852
C -0.09506314 -0.095032796 0.9766661
H 0.042451564 2.5997465 0.036018748
H -1.3152734 2.518358 -1.0918616
H -1.6074126 2.439372 0.6510788
H -2.6096175 0.30135202 -1.3992171
H -2.1172028 -1.1261122 -0.4698121
H -2.892418 0.23864324 0.34871
H -0.15440273 -0.69906664 -1.8884526
H 0.901283 0.72590643 -1.7099096
H 2.3069427 -2.0001874 -0.2412117
H 1.8916056 -0.14003597 1.8990664
H 1.707473 1.29509 0.7821146
H -0.5964023 -0.5511098 1.823164
