18
title
C -0.92946833 2.1177213 -0.15266258
C -0.7792724 0.6024279 -0.20130594
O -2.044044 -0.020630512 -0.37357464
C 0.30815572 -0.00013503863 -1.172142
C 0.93796533 -0.7121628 0.03317248
O 1.3894455 -2.0194926 0.016862787
C 1.3680935 0.2819107 1.0709326
C -0.09273381 -0.10887734 0.97104377
H 0.025293402 2.6188924 0.02876959
H -1.3207241 2.4957447 -1.105798
H -1.6288501 2.402207 0.63933504
H -2.440905 0.3357581 -1.1761583
H -0.16401513 -0.7053068 -1.8588139
H 0.94725674 0.6962422 -1.727125
H 2.3263285 -2.013116 -0.20817345
H 1.8759983 -0.15905419 1.9231097
H 1.7148561 1.2785187 0.80612177
H -0.629782 -0.55572087 1.7983094
