21
title
C 0.31218833 2.530709 -0.53798956
C 0.24439918 1.0336283 -0.50096923
C -1.0356702 0.1818497 -0.58406514
C -0.39388847 -0.849313 0.41879544
C -1.0704266 -0.80019295 1.7896392
C -0.25262105 -2.290787 -0.06685754
C 0.8878233 0.018745523 0.40407118
N 1.4001901 0.2564694 -0.94163865
H 1.3239796 2.8713856 -0.3030589
H 0.05347147 2.9103863 -1.5340635
H -0.38482922 2.9772823 0.17946038
H -1.9211721 0.66980946 -0.1673803
H -1.2829237 -0.19095494 -1.584851
H -2.0754309 -1.2349977 1.7494388
H -0.49228436 -1.3629353 2.532018
H -1.1623476 0.22960226 2.1509452
H 0.26642847 -2.3548512 -1.0291958
H 0.30957797 -2.8955564 0.653822
H -1.2360847 -2.7569048 -0.19743174
H 1.5702384 0.14881866 1.2393067
H 1.1625988 -0.48540416 -1.597849
