title
 OpenBabel02282109583D

 19 20  0  0  1  0  0  0  0  0999 V2000
    0.3563    2.5322   -0.6324 C   0  0  0  0  0  0  0  0  0  0  0  0
    0.2497    1.0408   -0.5287 C   0  0  2  0  0  0  0  0  0  0  0  0
   -1.0512    0.2213   -0.5712 C   0  0  0  0  0  0  0  0  0  0  0  0
   -0.4033   -0.7894    0.4482 C   0  0  1  0  0  0  0  0  0  0  0  0
   -1.1006   -0.8486    1.8003 C   0  0  0  0  0  0  0  0  0  0  0  0
   -0.1369   -2.0908   -0.0561 O   0  0  0  0  0  0  0  0  0  0  0  0
    0.8717    0.0652    0.4352 C   0  0  1  0  0  0  0  0  0  0  0  0
    1.3843    0.2111   -0.9215 N   0  0  0  0  0  0  0  0  0  0  0  0
    1.3765    2.8562   -0.4115 H   0  0  0  0  0  0  0  0  0  0  0  0
    0.1077    2.8725   -1.6448 H   0  0  0  0  0  0  0  0  0  0  0  0
   -0.3295    3.0275    0.0636 H   0  0  0  0  0  0  0  0  0  0  0  0
   -1.9169    0.7423   -0.1520 H   0  0  0  0  0  0  0  0  0  0  0  0
   -1.3192   -0.1920   -1.5497 H   0  0  0  0  0  0  0  0  0  0  0  0
   -2.0902   -1.3131    1.7101 H   0  0  0  0  0  0  0  0  0  0  0  0
   -0.5070   -1.4404    2.5041 H   0  0  0  0  0  0  0  0  0  0  0  0
   -1.2396    0.1530    2.2188 H   0  0  0  0  0  0  0  0  0  0  0  0
   -0.9766   -2.5536   -0.1500 H   0  0  0  0  0  0  0  0  0  0  0  0
    1.5470    0.2151    1.2716 H   0  0  0  0  0  0  0  0  0  0  0  0
    1.1241   -0.5866   -1.4995 H   0  0  0  0  0  0  0  0  0  0  0  0
  1  2  1  0  0  0  0
  1  9  1  0  0  0  0
  1 11  1  0  0  0  0
  2  7  1  1  0  0  0
  3  2  1  0  0  0  0
  3 12  1  0  0  0  0
  3  4  1  0  0  0  0
  4  7  1  1  0  0  0
  4  5  1  0  0  0  0
  5 16  1  0  0  0  0
  5 15  1  0  0  0  0
  6  4  1  0  0  0  0
  7 18  1  1  0  0  0
  8  2  1  0  0  0  0
  8  7  1  0  0  0  0
 10  1  1  0  0  0  0
 13  3  1  0  0  0  0
 14  5  1  0  0  0  0
 17  6  1  0  0  0  0
 19  8  1  0  0  0  0
M  END
