title
 OpenBabel02282109583D

 22 23  0  0  1  0  0  0  0  0999 V2000
   -0.6313    2.5182    0.0382 C   0  0  0  0  0  0  0  0  0  0  0  0
   -0.6223    1.0172   -0.0147 C   0  0  2  0  0  0  0  0  0  0  0  0
   -1.5678    0.1580    0.7772 C   0  0  0  0  0  0  0  0  0  0  0  0
   -0.0857   -0.0117    0.9863 C   0  0  1  0  0  0  0  0  0  0  0  0
    0.5684   -0.8264   -0.1492 C   0  0  0  0  0  0  0  0  0  0  0  0
    2.0929   -0.7029   -0.1001 C   0  0  0  0  0  0  0  0  0  0  0  0
    0.1542   -2.2911   -0.2860 C   0  0  0  0  0  0  0  0  0  0  0  0
   -0.0546    0.1881   -1.1789 C   0  0  0  0  0  0  0  0  0  0  0  0
    0.3502    2.9353   -0.2161 H   0  0  0  0  0  0  0  0  0  0  0  0
   -1.3597    2.9373   -0.6675 H   0  0  0  0  0  0  0  0  0  0  0  0
   -0.8986    2.8782    1.0375 H   0  0  0  0  0  0  0  0  0  0  0  0
   -2.0858    0.6653    1.5861 H   0  0  0  0  0  0  0  0  0  0  0  0
   -2.1627   -0.6146    0.2946 H   0  0  0  0  0  0  0  0  0  0  0  0
    0.3698    0.1560    1.9576 H   0  0  0  0  0  0  0  0  0  0  0  0
    2.5054   -1.2641    0.7469 H   0  0  0  0  0  0  0  0  0  0  0  0
    2.5492   -1.0961   -1.0158 H   0  0  0  0  0  0  0  0  0  0  0  0
    2.4029    0.3416    0.0108 H   0  0  0  0  0  0  0  0  0  0  0  0
   -0.9329   -2.4096   -0.3112 H   0  0  0  0  0  0  0  0  0  0  0  0
    0.5560   -2.7259   -1.2089 H   0  0  0  0  0  0  0  0  0  0  0  0
    0.5348   -2.8855    0.5529 H   0  0  0  0  0  0  0  0  0  0  0  0
   -0.7965   -0.2190   -1.8751 H   0  0  0  0  0  0  0  0  0  0  0  0
    0.7104    0.7142   -1.7571 H   0  0  0  0  0  0  0  0  0  0  0  0
  1 11  1  0  0  0  0
  2  1  1  0  0  0  0
  2  3  1  0  0  0  0
  2  4  1  1  0  0  0
  3  4  1  0  0  0  0
  3 12  1  0  0  0  0
  4 14  1  1  0  0  0
  5  6  1  0  0  0  0
  5  4  1  0  0  0  0
  6 17  1  0  0  0  0
  6 15  1  0  0  0  0
  7  5  1  0  0  0  0
  7 20  1  0  0  0  0
  8  5  1  0  0  0  0
  8  2  1  0  0  0  0
  9  1  1  0  0  0  0
 10  1  1  0  0  0  0
 13  3  1  0  0  0  0
 16  6  1  0  0  0  0
 18  7  1  0  0  0  0
 19  7  1  0  0  0  0
 21  8  1  0  0  0  0
 22  8  1  0  0  0  0
M  END
