20
title
C -0.53658646 2.4288561 -0.029895553
C -0.5882963 0.93927413 0.07284294
C -1.5816072 0.123948276 0.8425969
C -0.095688224 -0.076187074 1.0801624
C 0.54712576 -0.7814321 -0.12159359
C 2.058897 -0.5919519 -0.16283102
C 0.144966 -2.212224 -0.4450901
O -0.08656621 0.18095839 -1.0372698
H 0.47856575 2.7750597 -0.24813183
H -1.1930475 2.7797456 -0.834622
H -0.87205607 2.890565 0.90329206
H -2.0917962 0.645569 1.6472389
H -2.1808205 -0.6273487 0.33655006
H 0.3724777 0.05684346 2.0474868
H 2.5488389 -1.2276627 0.5833522
H 2.4477057 -0.85863763 -1.1504387
H 2.3239033 0.44849628 0.043037407
H -0.9367835 -2.3499103 -0.38720632
H 0.46650344 -2.472269 -1.458984
H 0.62044626 -2.9103415 0.2519366
