title
 OpenBabel02282109583D

 20 21  0  0  1  0  0  0  0  0999 V2000
   -0.5366    2.4289   -0.0299 C   0  0  0  0  0  0  0  0  0  0  0  0
   -0.5883    0.9393    0.0728 C   0  0  2  0  0  0  0  0  0  0  0  0
   -1.5816    0.1239    0.8426 C   0  0  0  0  0  0  0  0  0  0  0  0
   -0.0957   -0.0762    1.0802 C   0  0  1  0  0  0  0  0  0  0  0  0
    0.5471   -0.7814   -0.1216 C   0  0  0  0  0  0  0  0  0  0  0  0
    2.0589   -0.5920   -0.1628 C   0  0  0  0  0  0  0  0  0  0  0  0
    0.1450   -2.2122   -0.4451 C   0  0  0  0  0  0  0  0  0  0  0  0
   -0.0866    0.1810   -1.0373 O   0  0  0  0  0  0  0  0  0  0  0  0
    0.4786    2.7751   -0.2481 H   0  0  0  0  0  0  0  0  0  0  0  0
   -1.1930    2.7797   -0.8346 H   0  0  0  0  0  0  0  0  0  0  0  0
   -0.8721    2.8906    0.9033 H   0  0  0  0  0  0  0  0  0  0  0  0
   -2.0918    0.6456    1.6472 H   0  0  0  0  0  0  0  0  0  0  0  0
   -2.1808   -0.6273    0.3366 H   0  0  0  0  0  0  0  0  0  0  0  0
    0.3725    0.0568    2.0475 H   0  0  0  0  0  0  0  0  0  0  0  0
    2.5488   -1.2277    0.5834 H   0  0  0  0  0  0  0  0  0  0  0  0
    2.4477   -0.8586   -1.1504 H   0  0  0  0  0  0  0  0  0  0  0  0
    2.3239    0.4485    0.0430 H   0  0  0  0  0  0  0  0  0  0  0  0
   -0.9368   -2.3499   -0.3872 H   0  0  0  0  0  0  0  0  0  0  0  0
    0.4665   -2.4723   -1.4590 H   0  0  0  0  0  0  0  0  0  0  0  0
    0.6204   -2.9103    0.2519 H   0  0  0  0  0  0  0  0  0  0  0  0
  1  2  1  0  0  0  0
  1 11  1  0  0  0  0
  2  3  1  0  0  0  0
  2  4  1  1  0  0  0
  3  4  1  0  0  0  0
  3 12  1  0  0  0  0
  4 14  1  1  0  0  0
  5  4  1  0  0  0  0
  6  5  1  0  0  0  0
  6 17  1  0  0  0  0
  6 15  1  0  0  0  0
  7 18  1  0  0  0  0
  7  5  1  0  0  0  0
  7 20  1  0  0  0  0
  8  5  1  0  0  0  0
  8  2  1  0  0  0  0
  9  1  1  0  0  0  0
 10  1  1  0  0  0  0
 13  3  1  0  0  0  0
 16  6  1  0  0  0  0
 19  7  1  0  0  0  0
M  END
