title
 OpenBabel02282109583D

 20 21  0  0  1  0  0  0  0  0999 V2000
   -0.7106    2.5246    0.0390 C   0  0  0  0  0  0  0  0  0  0  0  0
   -0.6473    1.0257   -0.0205 C   0  0  2  0  0  0  0  0  0  0  0  0
   -1.5496    0.1226    0.7721 C   0  0  0  0  0  0  0  0  0  0  0  0
   -0.0626    0.0238    0.9856 C   0  0  1  0  0  0  0  0  0  0  0  0
    0.5864   -0.7718   -0.1453 C   0  0  1  0  0  0  0  0  0  0  0  0
    2.1103   -0.7302   -0.1195 C   0  0  0  0  0  0  0  0  0  0  0  0
    0.1182   -2.1118   -0.1854 O   0  0  0  0  0  0  0  0  0  0  0  0
   -0.0507    0.2229   -1.1865 C   0  0  0  0  0  0  0  0  0  0  0  0
    0.2538    2.9784   -0.2186 H   0  0  0  0  0  0  0  0  0  0  0  0
   -1.4572    2.9190   -0.6615 H   0  0  0  0  0  0  0  0  0  0  0  0
   -0.9859    2.8703    1.0410 H   0  0  0  0  0  0  0  0  0  0  0  0
   -2.0929    0.6037    1.5799 H   0  0  0  0  0  0  0  0  0  0  0  0
   -2.0812   -0.6970    0.2971 H   0  0  0  0  0  0  0  0  0  0  0  0
    0.3946    0.2029    1.9529 H   0  0  0  0  0  0  0  0  0  0  0  0
    2.4890   -1.3136    0.7259 H   0  0  0  0  0  0  0  0  0  0  0  0
    2.5271   -1.1520   -1.0429 H   0  0  0  0  0  0  0  0  0  0  0  0
    2.4785    0.2960   -0.0268 H   0  0  0  0  0  0  0  0  0  0  0  0
    0.5317   -2.5484   -0.9381 H   0  0  0  0  0  0  0  0  0  0  0  0
   -0.7725   -0.2226   -1.8788 H   0  0  0  0  0  0  0  0  0  0  0  0
    0.7030    0.7727   -1.7579 H   0  0  0  0  0  0  0  0  0  0  0  0
  1 11  1  0  0  0  0
  2  1  1  0  0  0  0
  2  3  1  0  0  0  0
  2  4  1  1  0  0  0
  3  4  1  0  0  0  0
  3 12  1  0  0  0  0
  4  5  1  6  0  0  0
  4 14  1  0  0  0  0
  5  7  1  6  0  0  0
  5  6  1  0  0  0  0
  6 17  1  0  0  0  0
  6 15  1  0  0  0  0
  8  5  1  0  0  0  0
  8  2  1  0  0  0  0
  9  1  1  0  0  0  0
 10  1  1  0  0  0  0
 13  3  1  0  0  0  0
 16  6  1  0  0  0  0
 18  7  1  0  0  0  0
 19  8  1  0  0  0  0
 20  8  1  0  0  0  0
M  END
