20
title
C -0.23341246 2.5311067 -0.010497667
C -0.19352672 1.0202264 -0.019988323
C 0.76153445 0.19478144 -0.9555456
C 0.40454832 -0.95506054 0.05397773
C 1.2081717 -2.2300808 0.16779095
C 0.42919627 0.17293365 1.1474807
C -1.1158272 -1.0420283 -0.18729007
C -1.5020809 0.23357321 -0.23487741
H 0.76367056 2.9542532 0.14959058
H -0.6129469 2.9235601 -0.9609837
H -0.88582075 2.9053104 0.78688973
H 0.45788065 0.06380201 -1.9977152
H 1.8085178 0.5141902 -0.8910809
H 2.2690217 -2.0178256 0.33631575
H 0.8556091 -2.8476157 1.0019623
H 1.1298708 -2.8308117 -0.74570847
H 1.4440043 0.49024138 1.4154887
H -0.18059884 0.02182449 2.042354
H -1.6900322 -1.9533347 -0.28765476
H -2.482772 0.6646974 -0.3853465
