18
title
C -0.21670261 2.5418894 -0.028344475
C -0.19454296 1.0312077 -0.021305809
C 0.7536701 0.19070509 -0.95777506
C 0.3837664 -0.9264545 0.058833197
O 1.1566694 -2.082882 0.09852395
C 0.42999995 0.19705805 1.157105
C -1.1392498 -1.0225389 -0.17146845
C -1.5127106 0.25641164 -0.22140594
H 0.7858884 2.9546504 0.12179791
H -0.5970079 2.9271908 -0.981297
H -0.86066854 2.931431 0.76831543
H 0.4451425 0.048967987 -1.9958522
H 1.8029486 0.4963384 -0.8916662
H 0.8145818 -2.6531305 0.7952781
H 1.4509284 0.5032002 1.4081988
H -0.17887095 0.06101826 2.054765
H -1.7092882 -1.9358387 -0.27569324
H -2.4892333 0.6976548 -0.3708301
