title
 OpenBabel02282109583D

 20 21  0  0  1  0  0  0  0  0999 V2000
   -0.2780    2.5502   -0.0166 C   0  0  0  0  0  0  0  0  0  0  0  0
   -0.1745    1.0441   -0.0160 C   0  0  1  0  0  0  0  0  0  0  0  0
    0.7847    0.2425   -0.9579 C   0  0  0  0  0  0  0  0  0  0  0  0
    0.4711   -0.8849    0.0626 C   0  0  1  0  0  0  0  0  0  0  0  0
    1.2099   -2.1895    0.1614 C   0  0  0  0  0  0  0  0  0  0  0  0
    0.4650    0.2215    1.1519 C   0  0  0  0  0  0  0  0  0  0  0  0
   -0.9392   -1.1177   -0.1535 O   0  0  0  0  0  0  0  0  0  0  0  0
   -1.4586    0.2246   -0.2188 C   0  0  0  0  0  0  0  0  0  0  0  0
    0.7016    3.0143    0.1362 H   0  0  0  0  0  0  0  0  0  0  0  0
   -0.6775    2.9199   -0.9682 H   0  0  0  0  0  0  0  0  0  0  0  0
   -0.9422    2.9024    0.7813 H   0  0  0  0  0  0  0  0  0  0  0  0
    0.4783    0.0768   -1.9946 H   0  0  0  0  0  0  0  0  0  0  0  0
    1.8158    0.5992   -0.9068 H   0  0  0  0  0  0  0  0  0  0  0  0
    2.2770   -2.0157    0.3264 H   0  0  0  0  0  0  0  0  0  0  0  0
    0.8218   -2.7876    0.9918 H   0  0  0  0  0  0  0  0  0  0  0  0
    1.0896   -2.7688   -0.7594 H   0  0  0  0  0  0  0  0  0  0  0  0
    1.4639    0.5760    1.4155 H   0  0  0  0  0  0  0  0  0  0  0  0
   -0.1343    0.0365    2.0479 H   0  0  0  0  0  0  0  0  0  0  0  0
   -2.2021    0.3851    0.5727 H   0  0  0  0  0  0  0  0  0  0  0  0
   -1.9347    0.4028   -1.1917 H   0  0  0  0  0  0  0  0  0  0  0  0
  1  9  1  0  0  0  0
  1 11  1  0  0  0  0
  2  1  1  1  0  0  0
  2  6  1  0  0  0  0
  3 13  1  0  0  0  0
  3  2  1  0  0  0  0
  3  4  1  0  0  0  0
  4  5  1  1  0  0  0
  4  6  1  0  0  0  0
  5 14  1  0  0  0  0
  5 15  1  0  0  0  0
  6 17  1  0  0  0  0
  6 18  1  0  0  0  0
  7  4  1  0  0  0  0
  8  7  1  0  0  0  0
  8  2  1  0  0  0  0
  8 19  1  0  0  0  0
 10  1  1  0  0  0  0
 12  3  1  0  0  0  0
 16  5  1  0  0  0  0
 20  8  1  0  0  0  0
M  END
