title
 OpenBabel02282109583D

 20 21  0  0  1  0  0  0  0  0999 V2000
   -0.0200    2.4564    0.2096 C   0  0  0  0  0  0  0  0  0  0  0  0
    0.1497    0.9636    0.1956 C   0  0  1  0  0  0  0  0  0  0  0  0
    0.8944    0.1833   -0.9143 C   0  0  0  0  0  0  0  0  0  0  0  0
   -0.1207   -0.8841   -0.4393 C   0  0  1  0  0  0  0  0  0  0  0  0
   -0.6688   -1.9762   -1.3136 C   0  0  0  0  0  0  0  0  0  0  0  0
    0.3781   -1.2260    0.9866 C   0  0  0  0  0  0  0  0  0  0  0  0
    0.5918    0.2337    1.4881 C   0  0  0  0  0  0  0  0  0  0  0  0
   -1.0600    0.2092   -0.1573 O   0  0  0  0  0  0  0  0  0  0  0  0
    0.9329    2.9466    0.4353 H   0  0  0  0  0  0  0  0  0  0  0  0
   -0.3766    2.8193   -0.7584 H   0  0  0  0  0  0  0  0  0  0  0  0
   -0.7440    2.7526    0.9762 H   0  0  0  0  0  0  0  0  0  0  0  0
    0.6507    0.5608   -1.9090 H   0  0  0  0  0  0  0  0  0  0  0  0
    1.9660   -0.0097   -0.8091 H   0  0  0  0  0  0  0  0  0  0  0  0
    0.1025   -2.7272   -1.5146 H   0  0  0  0  0  0  0  0  0  0  0  0
   -1.5092   -2.4763   -0.8206 H   0  0  0  0  0  0  0  0  0  0  0  0
   -1.0198   -1.5748   -2.2683 H   0  0  0  0  0  0  0  0  0  0  0  0
   -0.3888   -1.7611    1.5518 H   0  0  0  0  0  0  0  0  0  0  0  0
    1.2917   -1.8277    0.9840 H   0  0  0  0  0  0  0  0  0  0  0  0
    1.6258    0.4549    1.7683 H   0  0  0  0  0  0  0  0  0  0  0  0
   -0.0587    0.4939    2.3267 H   0  0  0  0  0  0  0  0  0  0  0  0
  1  9  1  0  0  0  0
  1 11  1  0  0  0  0
  2  1  1  6  0  0  0
  2  7  1  0  0  0  0
  3 13  1  0  0  0  0
  3  4  1  0  0  0  0
  3  2  1  0  0  0  0
  4  5  1  6  0  0  0
  4  8  1  0  0  0  0
  4  6  1  0  0  0  0
  5 15  1  0  0  0  0
  6  7  1  0  0  0  0
  6 17  1  0  0  0  0
  7 19  1  0  0  0  0
  7 20  1  0  0  0  0
  8  2  1  0  0  0  0
 10  1  1  0  0  0  0
 12  3  1  0  0  0  0
 14  5  1  0  0  0  0
 16  5  1  0  0  0  0
 18  6  1  0  0  0  0
M  END
