20
title
C -0.27232945 2.544003 -0.052019592
C -0.2252513 1.0347507 -0.031845212
C 0.7372939 0.21787389 -0.9525807
C 0.45680678 -0.8984001 0.07848805
O 1.3428879 -1.9729322 0.14430135
C 0.4010421 0.23489864 1.1521686
C -1.0386217 -1.1956693 -0.15657148
C -1.5581329 0.27229092 -0.23850234
H 0.72110194 2.9785867 0.100326955
H -0.6557841 2.9139457 -1.0103812
H -0.9297962 2.9287832 0.73654467
H 0.44423681 0.045763686 -1.9929178
H 1.7688175 0.57407707 -0.89939356
H 0.99093217 -2.6172147 0.76800996
H 1.3988707 0.5909738 1.4190699
H -0.2061786 0.07953836 2.0504231
H -1.1973169 -1.7648906 -1.0770403
H -1.4813583 -1.7593793 0.67249066
H -2.2887425 0.5092883 0.54166466
H -2.015241 0.504322 -1.2057369
