title
 OpenBabel02282109583D

 18 19  0  0  1  0  0  0  0  0999 V2000
   -0.0427    2.8132    0.0255 C   0  0  0  0  0  0  0  0  0  0  0  0
   -0.0198    1.3095    0.0119 C   0  0  1  0  0  0  0  0  0  0  0  0
    0.6067    0.3819   -1.0756 C   0  0  0  0  0  0  0  0  0  0  0  0
    0.0089   -0.5884   -0.0053 C   0  0  1  0  0  0  0  0  0  0  0  0
    0.6228    0.3627    1.0729 C   0  0  0  0  0  0  0  0  0  0  0  0
   -1.2461    0.3440    0.0125 C   0  0  0  0  0  0  0  0  0  0  0  0
    0.0307   -2.0226   -0.0183 C   0  0  0  0  0  0  0  0  0  0  0  0
    0.0489   -3.2257   -0.0293 C   0  0  0  0  0  0  0  0  0  0  0  0
    0.9734    3.2231    0.0206 H   0  0  0  0  0  0  0  0  0  0  0  0
   -0.5672    3.2074   -0.8518 H   0  0  0  0  0  0  0  0  0  0  0  0
   -0.5522    3.1917    0.9185 H   0  0  0  0  0  0  0  0  0  0  0  0
    0.1231    0.3735   -2.0563 H   0  0  0  0  0  0  0  0  0  0  0  0
    1.6968    0.3892   -1.1635 H   0  0  0  0  0  0  0  0  0  0  0  0
    1.7140    0.3685    1.1446 H   0  0  0  0  0  0  0  0  0  0  0  0
    0.1541    0.3367    2.0606 H   0  0  0  0  0  0  0  0  0  0  0  0
   -1.8533    0.3165    0.9217 H   0  0  0  0  0  0  0  0  0  0  0  0
   -1.8671    0.3328   -0.8876 H   0  0  0  0  0  0  0  0  0  0  0  0
    0.0651   -4.2872   -0.0389 H   0  0  0  0  0  0  0  0  0  0  0  0
  1 11  1  0  0  0  0
  2  6  1  0  0  0  0
  2  1  1  1  0  0  0
  2  5  1  0  0  0  0
  3  4  1  0  0  0  0
  3  2  1  0  0  0  0
  4  7  1  6  0  0  0
  4  6  1  0  0  0  0
  4  5  1  0  0  0  0
  5 14  1  0  0  0  0
  5 15  1  0  0  0  0
  6 16  1  0  0  0  0
  8  7  3  0  0  0  0
  9  1  1  0  0  0  0
 10  1  1  0  0  0  0
 12  3  1  0  0  0  0
 13  3  1  0  0  0  0
 17  6  1  0  0  0  0
 18  8  1  0  0  0  0
M  END
