17
title
C -0.04180509 2.8249521 0.025297357
C -0.019441646 1.322101 0.011774284
C 0.60814184 0.39323258 -1.0776656
C 0.008318178 -0.566346 -0.0050959503
C 0.6243419 0.37422526 1.0751116
C -1.2485704 0.35612255 0.012324035
C 0.029439857 -2.0072231 -0.017853305
N 0.046427365 -3.1636863 -0.028058255
H 0.97455716 3.2330441 0.020111986
H -0.56638396 3.21811 -0.85209876
H -0.55117315 3.2021458 0.91849685
H 0.12356549 0.38233054 -2.057125
H 1.6975538 0.39740664 -1.1636221
H 1.7149267 0.3769433 1.1445762
H 0.15475172 0.3458616 2.0614564
H -1.8538312 0.32656068 0.92166275
H -1.8675462 0.3423199 -0.88825935
