16
title
C -0.062344477 2.78346 0.02135703
C 0.06232961 1.2905421 0.0104533415
C 0.6595083 0.37545213 -1.0989466
C 0.04721313 -0.5434381 -0.008425157
C 0.719277 0.35214147 1.0697289
N -1.1667861 0.37320134 -0.036021143
C -0.06833792 -1.9819372 -0.016540939
N -0.14429918 -3.1354415 -0.009740639
H 0.9257992 3.252802 -0.018016923
H -0.64207834 3.1237364 -0.84180427
H -0.56502527 3.1298168 0.9305956
H 0.1275072 0.37725934 -2.0499396
H 1.7446473 0.35603175 -1.2046074
H 1.8109821 0.33030888 1.1395285
H 0.24742131 0.333338 2.0561647
H -1.6078957 0.35763654 0.89057267
