16
title
C -0.112688765 2.7304895 0.019774511
C 0.11326074 1.2530687 0.005106849
C 0.71026736 0.3496237 -1.1067964
C 0.09151326 -0.55520034 -0.0056749475
C 0.7613788 0.3360308 1.0765133
O -1.0831118 0.36172548 0.027540714
C -0.11863968 -1.97112 -0.009510483
C -0.2674966 -3.1639588 -0.013331774
H 0.84464175 3.2609038 0.0062876157
H -0.6922008 3.0386147 -0.85564023
H -0.65978444 3.0253153 0.9202826
H 0.1645634 0.3522524 -2.050913
H 1.7956662 0.32673803 -1.2327114
H 1.8514812 0.31196102 1.151154
H 0.26049677 0.3266172 2.0451112
H -0.40553057 -4.2170277 -0.016530119
