15
title
C -0.107629135 2.743093 0.019961929
C 0.11940572 1.2676815 0.005390869
C 0.7137145 0.35988954 -1.1084151
C 0.08758511 -0.5299079 -0.005357451
C 0.7632182 0.34593192 1.079513
O -1.0818714 0.36883268 0.026810953
C -0.12823506 -1.9565539 -0.00958518
N -0.26426488 -3.1040583 -0.013850135
H 0.850232 3.2721126 0.0022035877
H -0.6899262 3.0493662 -0.8538569
H -0.6506065 3.0378127 0.92259765
H 0.1677724 0.36259064 -2.0518014
H 1.7985822 0.33134165 -1.2309024
H 1.8525089 0.31614283 1.1524363
H 0.26050353 0.33643553 2.0465827
