16
title
C -0.16292691 2.7839787 -0.14410749
C 0.030664584 1.304778 -0.045069437
C 0.7089116 0.31974924 -1.0374982
C -0.043198373 -0.48760676 0.04776883
C 0.55622727 0.44723237 1.1389008
O -1.1879772 0.43624002 -0.07535577
C -0.3274714 -1.9512918 0.13945396
O 0.5122871 -2.801824 -0.008751493
H 0.8043525 3.2946708 -0.10822465
H -0.6573146 3.0425766 -1.0851704
H -0.7786693 3.1465719 0.68427634
H 0.26029754 0.27758658 -2.0306401
H 1.7991246 0.26518083 -1.0509325
H 1.6334312 0.40011877 1.3121942
H -0.03053288 0.51335603 2.0558865
H -1.3883277 -2.1917307 0.37256792
