title
 OpenBabel02282109583D

 16 17  0  0  1  0  0  0  0  0999 V2000
    0.0482    2.6812    0.0079 O   0  0  0  0  0  0  0  0  0  0  0  0
    0.1328    1.3064    0.0034 C   0  0  1  0  0  0  0  0  0  0  0  0
    0.7737    0.3701    1.0788 C   0  0  0  0  0  0  0  0  0  0  0  0
    0.1196   -0.5562   -0.0018 C   0  0  1  0  0  0  0  0  0  0  0  0
   -1.1122    0.3884    0.0095 C   0  0  0  0  0  0  0  0  0  0  0  0
    0.7584    0.3764   -1.0863 C   0  0  0  0  0  0  0  0  0  0  0  0
    0.1393   -2.0410   -0.0067 C   0  0  0  0  0  0  0  0  0  0  0  0
   -0.8436   -2.7397   -0.0052 O   0  0  0  0  0  0  0  0  0  0  0  0
    0.9394    3.0474    0.0031 H   0  0  0  0  0  0  0  0  0  0  0  0
    1.8656    0.3549    1.1390 H   0  0  0  0  0  0  0  0  0  0  0  0
    0.3058    0.3584    2.0659 H   0  0  0  0  0  0  0  0  0  0  0  0
   -1.7160    0.3866    0.9190 H   0  0  0  0  0  0  0  0  0  0  0  0
   -1.7287    0.3918   -0.8914 H   0  0  0  0  0  0  0  0  0  0  0  0
    0.2767    0.3702   -2.0668 H   0  0  0  0  0  0  0  0  0  0  0  0
    1.8494    0.3614   -1.1620 H   0  0  0  0  0  0  0  0  0  0  0  0
    1.1620   -2.4852   -0.0124 H   0  0  0  0  0  0  0  0  0  0  0  0
  2  1  1  1  0  0  0
  2  5  1  0  0  0  0
  2  3  1  0  0  0  0
  3 10  1  0  0  0  0
  3 11  1  0  0  0  0
  4  7  1  6  0  0  0
  4  5  1  0  0  0  0
  4  3  1  0  0  0  0
  5 12  1  0  0  0  0
  6  4  1  0  0  0  0
  6  2  1  0  0  0  0
  7  8  2  0  0  0  0
  9  1  1  0  0  0  0
 13  5  1  0  0  0  0
 14  6  1  0  0  0  0
 15  6  1  0  0  0  0
 16  7  1  0  0  0  0
M  END
