title
 OpenBabel02282109583D

 20 21  0  0  1  0  0  0  0  0999 V2000
    0.0689    2.8742   -0.1380 C   0  0  0  0  0  0  0  0  0  0  0  0
    0.0821    1.3689   -0.1524 C   0  0  1  0  0  0  0  0  0  0  0  0
    0.7046    0.4370   -1.2418 C   0  0  0  0  0  0  0  0  0  0  0  0
    0.1010   -0.5197   -0.1745 C   0  0  1  0  0  0  0  0  0  0  0  0
    0.1173   -2.0203   -0.1945 C   0  0  0  0  0  0  0  0  0  0  0  0
   -0.5457   -2.4840    0.9746 O   0  0  0  0  0  0  0  0  0  0  0  0
    0.7184    0.4150    0.9063 C   0  0  0  0  0  0  0  0  0  0  0  0
   -1.1482    0.4088   -0.1550 C   0  0  0  0  0  0  0  0  0  0  0  0
    1.0874    3.2782   -0.1411 H   0  0  0  0  0  0  0  0  0  0  0  0
   -0.4527    3.2731   -1.0152 H   0  0  0  0  0  0  0  0  0  0  0  0
   -0.4393    3.2543    0.7552 H   0  0  0  0  0  0  0  0  0  0  0  0
    0.2233    0.4434   -2.2252 H   0  0  0  0  0  0  0  0  0  0  0  0
    1.7958    0.4487   -1.3312 H   0  0  0  0  0  0  0  0  0  0  0  0
   -0.3834   -2.3805   -1.1087 H   0  0  0  0  0  0  0  0  0  0  0  0
    1.1608   -2.3754   -0.2310 H   0  0  0  0  0  0  0  0  0  0  0  0
   -0.5383   -3.4454    0.9610 H   0  0  0  0  0  0  0  0  0  0  0  0
    1.8108    0.4242    0.9789 H   0  0  0  0  0  0  0  0  0  0  0  0
    0.2506    0.3922    1.8940 H   0  0  0  0  0  0  0  0  0  0  0  0
   -1.7577    0.3855    0.7521 H   0  0  0  0  0  0  0  0  0  0  0  0
   -1.7694    0.4123   -1.0567 H   0  0  0  0  0  0  0  0  0  0  0  0
  1 11  1  0  0  0  0
  2  1  1  1  0  0  0
  2  7  1  0  0  0  0
  3  4  1  0  0  0  0
  3  2  1  0  0  0  0
  4  5  1  6  0  0  0
  4  8  1  0  0  0  0
  4  7  1  0  0  0  0
  5  6  1  0  0  0  0
  7 17  1  0  0  0  0
  7 18  1  0  0  0  0
  8  2  1  0  0  0  0
  8 19  1  0  0  0  0
  9  1  1  0  0  0  0
 10  1  1  0  0  0  0
 12  3  1  0  0  0  0
 13  3  1  0  0  0  0
 14  5  1  0  0  0  0
 15  5  1  0  0  0  0
 16  6  1  0  0  0  0
 20  8  1  0  0  0  0
M  END
