title
 OpenBabel02282109583D

 18 19  0  0  1  0  0  0  0  0999 V2000
   -0.0898    2.7510   -0.0670 C   0  0  0  0  0  0  0  0  0  0  0  0
    0.1935    1.2837   -0.1341 C   0  0  1  0  0  0  0  0  0  0  0  0
    0.7822    0.4366   -1.2975 C   0  0  0  0  0  0  0  0  0  0  0  0
    0.2469   -0.5162   -0.2036 C   0  0  1  0  0  0  0  0  0  0  0  0
   -0.0247   -1.9911   -0.2075 C   0  0  0  0  0  0  0  0  0  0  0  0
   -0.7361   -2.3730    0.9544 O   0  0  0  0  0  0  0  0  0  0  0  0
    0.9157    0.3616    0.8822 C   0  0  0  0  0  0  0  0  0  0  0  0
   -0.9683    0.3456   -0.0986 O   0  0  0  0  0  0  0  0  0  0  0  0
    0.8453    3.3185   -0.1056 H   0  0  0  0  0  0  0  0  0  0  0  0
   -0.7183    3.0606   -0.9075 H   0  0  0  0  0  0  0  0  0  0  0  0
   -0.6071    2.9996    0.8646 H   0  0  0  0  0  0  0  0  0  0  0  0
    0.2024    0.4553   -2.2218 H   0  0  0  0  0  0  0  0  0  0  0  0
    1.8616    0.4738   -1.4658 H   0  0  0  0  0  0  0  0  0  0  0  0
   -0.5730   -2.2515   -1.1273 H   0  0  0  0  0  0  0  0  0  0  0  0
    0.9185   -2.5483   -0.2102 H   0  0  0  0  0  0  0  0  0  0  0  0
   -1.4573   -1.7386    1.0482 H   0  0  0  0  0  0  0  0  0  0  0  0
    2.0080    0.3899    0.9172 H   0  0  0  0  0  0  0  0  0  0  0  0
    0.4566    0.3073    1.8697 H   0  0  0  0  0  0  0  0  0  0  0  0
  1 11  1  0  0  0  0
  2  8  1  0  0  0  0
  2  1  1  1  0  0  0
  2  7  1  0  0  0  0
  3  4  1  0  0  0  0
  3  2  1  0  0  0  0
  4  5  1  6  0  0  0
  4  8  1  0  0  0  0
  4  7  1  0  0  0  0
  5  6  1  0  0  0  0
  6 16  1  0  0  0  0
  7 17  1  0  0  0  0
  7 18  1  0  0  0  0
  9  1  1  0  0  0  0
 10  1  1  0  0  0  0
 12  3  1  0  0  0  0
 13  3  1  0  0  0  0
 14  5  1  0  0  0  0
 15  5  1  0  0  0  0
M  END
