22
title
C 2.08661 2.0693781 -0.009359286
C 1.9971677 0.5388475 -0.015518172
C 0.58097535 0.018581096 -0.0051508336
C -0.53569394 0.267137 -1.0679196
C -1.1927228 -0.65019435 0.0077762264
C -2.6012459 -1.1807041 0.018033648
C 0.13128695 -1.4736732 -0.006815851
C -0.5170298 0.2591131 1.0787191
H 3.1284862 2.4036152 -0.017344017
H 1.5909916 2.4976876 -0.8868595
H 1.6071213 2.4896095 0.880913
H 2.5144846 0.14299834 -0.8997102
H 2.5302787 0.1350191 0.855587
H -0.92791754 1.286243 -1.1460054
H -0.37703422 -0.17440909 -2.0575616
H -2.7988977 -1.7947375 -0.8678127
H -2.783368 -1.8017536 0.90231556
H -3.3313594 -0.36352825 0.027676208
H 0.34200153 -2.0481868 -0.9150775
H 0.35774764 -2.0549324 0.8933298
H -0.34122542 -0.18981016 2.062125
H -0.90775377 1.2775868 1.171222
