title
 OpenBabel02282109583D

 20 21  0  0  1  0  0  0  0  0999 V2000
    1.9519    2.0587    0.0592 C   0  0  0  0  0  0  0  0  0  0  0  0
    1.9586    0.5274    0.0034 C   0  0  0  0  0  0  0  0  0  0  0  0
    0.5843   -0.0596   -0.1306 C   0  0  1  0  0  0  0  0  0  0  0  0
   -0.5321    0.2239   -1.1725 C   0  0  0  0  0  0  0  0  0  0  0  0
   -1.1241   -0.6354   -0.0258 C   0  0  1  0  0  0  0  0  0  0  0  0
   -2.5489   -0.9880    0.2666 C   0  0  0  0  0  0  0  0  0  0  0  0
    0.1336   -1.5417   -0.0777 C   0  0  0  0  0  0  0  0  0  0  0  0
   -0.4068    0.2354    0.9456 O   0  0  0  0  0  0  0  0  0  0  0  0
    2.9628    2.4492    0.2078 H   0  0  0  0  0  0  0  0  0  0  0  0
    1.5594    2.4870   -0.8688 H   0  0  0  0  0  0  0  0  0  0  0  0
    1.3224    2.4089    0.8816 H   0  0  0  0  0  0  0  0  0  0  0  0
    2.5656    0.1750   -0.8403 H   0  0  0  0  0  0  0  0  0  0  0  0
    2.4167    0.1183    0.9123 H   0  0  0  0  0  0  0  0  0  0  0  0
   -0.8896    1.2543   -1.2062 H   0  0  0  0  0  0  0  0  0  0  0  0
   -0.4397   -0.2299   -2.1634 H   0  0  0  0  0  0  0  0  0  0  0  0
   -2.9512   -1.6289   -0.5244 H   0  0  0  0  0  0  0  0  0  0  0  0
   -2.6249   -1.5230    1.2182 H   0  0  0  0  0  0  0  0  0  0  0  0
   -3.1636   -0.0846    0.3264 H   0  0  0  0  0  0  0  0  0  0  0  0
    0.2881   -2.1609   -0.9660 H   0  0  0  0  0  0  0  0  0  0  0  0
    0.3669   -2.0625    0.8529 H   0  0  0  0  0  0  0  0  0  0  0  0
  1  9  1  0  0  0  0
  1 11  1  0  0  0  0
  2  1  1  0  0  0  0
  2 13  1  0  0  0  0
  3  7  1  0  0  0  0
  3  2  1  6  0  0  0
  3  8  1  0  0  0  0
  4  3  1  0  0  0  0
  4  5  1  0  0  0  0
  5  6  1  1  0  0  0
  5  8  1  0  0  0  0
  6 18  1  0  0  0  0
  6 17  1  0  0  0  0
  7  5  1  0  0  0  0
  7 20  1  0  0  0  0
 10  1  1  0  0  0  0
 12  2  1  0  0  0  0
 14  4  1  0  0  0  0
 15  4  1  0  0  0  0
 16  6  1  0  0  0  0
 19  7  1  0  0  0  0
M  END
