20
title
C -1.0531445 2.0336874 1.8630204
C -0.9924753 0.50540835 1.7602513
C -0.29830286 0.012095528 0.5161457
C 1.1786503 0.2889813 0.075656086
C 0.57106966 -0.6115272 -1.019199
O 1.2840344 -1.0294266 -2.1276474
C -0.058207247 -1.4766222 0.11516014
C -0.70868814 0.27761754 -0.9685246
H -0.048656497 2.4692185 1.8725561
H -1.5951234 2.4658716 1.0155027
H -1.5619082 2.3459258 2.7800677
H -0.47609755 0.09742524 2.6390624
H -2.0099 0.09336765 1.7856772
H 1.4234554 1.31361 -0.21682009
H 1.9640232 -0.15544604 0.69366324
H 0.7059453 -1.5737891 -2.6728742
H 0.63550466 -2.0466099 0.73984635
H -0.94829804 -2.060797 -0.14050683
H -1.6451633 -0.18086426 -1.3029479
H -0.6056014 1.3023057 -1.3357426
