title
 OpenBabel02282109583D

 20 21  0  0  1  0  0  0  0  0999 V2000
   -1.0531    2.0337    1.8630 C   0  0  0  0  0  0  0  0  0  0  0  0
   -0.9925    0.5054    1.7603 C   0  0  0  0  0  0  0  0  0  0  0  0
   -0.2983    0.0121    0.5161 C   0  0  1  0  0  0  0  0  0  0  0  0
    1.1787    0.2890    0.0757 C   0  0  0  0  0  0  0  0  0  0  0  0
    0.5711   -0.6115   -1.0192 C   0  0  1  0  0  0  0  0  0  0  0  0
    1.2840   -1.0294   -2.1276 O   0  0  0  0  0  0  0  0  0  0  0  0
   -0.0582   -1.4766    0.1152 C   0  0  0  0  0  0  0  0  0  0  0  0
   -0.7087    0.2776   -0.9685 C   0  0  0  0  0  0  0  0  0  0  0  0
   -0.0487    2.4692    1.8726 H   0  0  0  0  0  0  0  0  0  0  0  0
   -1.5951    2.4659    1.0155 H   0  0  0  0  0  0  0  0  0  0  0  0
   -1.5619    2.3459    2.7801 H   0  0  0  0  0  0  0  0  0  0  0  0
   -0.4761    0.0974    2.6391 H   0  0  0  0  0  0  0  0  0  0  0  0
   -2.0099    0.0934    1.7857 H   0  0  0  0  0  0  0  0  0  0  0  0
    1.4235    1.3136   -0.2168 H   0  0  0  0  0  0  0  0  0  0  0  0
    1.9640   -0.1554    0.6937 H   0  0  0  0  0  0  0  0  0  0  0  0
    0.7059   -1.5738   -2.6729 H   0  0  0  0  0  0  0  0  0  0  0  0
    0.6355   -2.0466    0.7398 H   0  0  0  0  0  0  0  0  0  0  0  0
   -0.9483   -2.0608   -0.1405 H   0  0  0  0  0  0  0  0  0  0  0  0
   -1.6452   -0.1809   -1.3029 H   0  0  0  0  0  0  0  0  0  0  0  0
   -0.6056    1.3023   -1.3357 H   0  0  0  0  0  0  0  0  0  0  0  0
  1  9  1  0  0  0  0
  1 11  1  0  0  0  0
  2 13  1  0  0  0  0
  2  1  1  0  0  0  0
  2 12  1  0  0  0  0
  3  2  1  1  0  0  0
  4  3  1  0  0  0  0
  4 15  1  0  0  0  0
  5  6  1  6  0  0  0
  5  8  1  0  0  0  0
  5  4  1  0  0  0  0
  5  7  1  0  0  0  0
  7  3  1  0  0  0  0
  7 17  1  0  0  0  0
  8  3  1  0  0  0  0
 10  1  1  0  0  0  0
 14  4  1  0  0  0  0
 16  6  1  0  0  0  0
 18  7  1  0  0  0  0
 19  8  1  0  0  0  0
 20  8  1  0  0  0  0
M  END
