20
title
C -0.96839416 1.9696544 1.6803256
O -0.91241544 0.55898476 1.6027526
C -0.27340958 0.08002915 0.48154363
C 1.2140548 0.28075498 0.046771146
C 0.5733121 -0.681916 -1.0020802
C 1.2519233 -1.3039917 -2.1909702
C -0.09913054 -1.4247365 0.19821762
C -0.6690915 0.2633342 -1.019022
H 0.036161274 2.4150345 1.7100917
H -1.5167377 2.401764 0.8312131
H -1.4937898 2.2184727 2.6048849
H 1.5033667 1.2704991 -0.31840768
H 1.9773777 -0.14890829 0.70191586
H 2.0995002 -1.9249473 -1.8810704
H 0.5589152 -1.9398348 -2.7526226
H 1.6314335 -0.5368781 -2.8749113
H 0.56708604 -1.9744496 0.8690896
H -1.0094262 -1.9890425 -0.023178956
H -1.6175907 -0.18214217 -1.3326833
H -0.5187977 1.2517867 -1.4629009
