title
 OpenBabel02282109583D

 20 21  0  0  1  0  0  0  0  0999 V2000
   -0.9684    1.9697    1.6803 C   0  0  0  0  0  0  0  0  0  0  0  0
   -0.9124    0.5590    1.6028 O   0  0  0  0  0  0  0  0  0  0  0  0
   -0.2734    0.0800    0.4815 C   0  0  1  0  0  0  0  0  0  0  0  0
    1.2141    0.2808    0.0468 C   0  0  0  0  0  0  0  0  0  0  0  0
    0.5733   -0.6819   -1.0021 C   0  0  1  0  0  0  0  0  0  0  0  0
    1.2519   -1.3040   -2.1910 C   0  0  0  0  0  0  0  0  0  0  0  0
   -0.0991   -1.4247    0.1982 C   0  0  0  0  0  0  0  0  0  0  0  0
   -0.6691    0.2633   -1.0190 C   0  0  0  0  0  0  0  0  0  0  0  0
    0.0362    2.4150    1.7101 H   0  0  0  0  0  0  0  0  0  0  0  0
   -1.5167    2.4018    0.8312 H   0  0  0  0  0  0  0  0  0  0  0  0
   -1.4938    2.2185    2.6049 H   0  0  0  0  0  0  0  0  0  0  0  0
    1.5034    1.2705   -0.3184 H   0  0  0  0  0  0  0  0  0  0  0  0
    1.9774   -0.1489    0.7019 H   0  0  0  0  0  0  0  0  0  0  0  0
    2.0995   -1.9249   -1.8811 H   0  0  0  0  0  0  0  0  0  0  0  0
    0.5589   -1.9398   -2.7526 H   0  0  0  0  0  0  0  0  0  0  0  0
    1.6314   -0.5369   -2.8749 H   0  0  0  0  0  0  0  0  0  0  0  0
    0.5671   -1.9744    0.8691 H   0  0  0  0  0  0  0  0  0  0  0  0
   -1.0094   -1.9890   -0.0232 H   0  0  0  0  0  0  0  0  0  0  0  0
   -1.6176   -0.1821   -1.3327 H   0  0  0  0  0  0  0  0  0  0  0  0
   -0.5188    1.2518   -1.4629 H   0  0  0  0  0  0  0  0  0  0  0  0
  1  9  1  0  0  0  0
  1 11  1  0  0  0  0
  2  1  1  0  0  0  0
  3  2  1  1  0  0  0
  4  3  1  0  0  0  0
  4 13  1  0  0  0  0
  5  6  1  6  0  0  0
  5  4  1  0  0  0  0
  5  7  1  0  0  0  0
  6 14  1  0  0  0  0
  7  3  1  0  0  0  0
  7 17  1  0  0  0  0
  8  5  1  0  0  0  0
  8  3  1  0  0  0  0
 10  1  1  0  0  0  0
 12  4  1  0  0  0  0
 15  6  1  0  0  0  0
 16  6  1  0  0  0  0
 18  7  1  0  0  0  0
 19  8  1  0  0  0  0
 20  8  1  0  0  0  0
M  END
