title
 OpenBabel02282109583D

 18 19  0  0  1  0  0  0  0  0999 V2000
    1.9267    1.9417   -0.0136 O   0  0  0  0  0  0  0  0  0  0  0  0
    1.9791    0.5218   -0.0269 C   0  0  0  0  0  0  0  0  0  0  0  0
    0.5730    0.0038   -0.0037 C   0  0  1  0  0  0  0  0  0  0  0  0
   -0.5435    0.2632   -1.0635 C   0  0  0  0  0  0  0  0  0  0  0  0
   -1.1778   -0.6379    0.0175 C   0  0  1  0  0  0  0  0  0  0  0  0
   -2.4864   -1.0770   -0.0416 O   0  0  0  0  0  0  0  0  0  0  0  0
    0.1338   -1.4896   -0.0015 C   0  0  0  0  0  0  0  0  0  0  0  0
   -0.5022    0.2668    1.0936 C   0  0  0  0  0  0  0  0  0  0  0  0
    2.8283    2.2750   -0.0400 H   0  0  0  0  0  0  0  0  0  0  0  0
    2.4921    0.1479   -0.9283 H   0  0  0  0  0  0  0  0  0  0  0  0
    2.5273    0.1325    0.8471 H   0  0  0  0  0  0  0  0  0  0  0  0
   -0.9183    1.2864   -1.1328 H   0  0  0  0  0  0  0  0  0  0  0  0
   -0.3948   -0.1871   -2.0489 H   0  0  0  0  0  0  0  0  0  0  0  0
   -2.6734   -1.5848    0.7552 H   0  0  0  0  0  0  0  0  0  0  0  0
    0.3323   -2.0623   -0.9119 H   0  0  0  0  0  0  0  0  0  0  0  0
    0.3654   -2.0651    0.9005 H   0  0  0  0  0  0  0  0  0  0  0  0
   -0.3153   -0.1839    2.0738 H   0  0  0  0  0  0  0  0  0  0  0  0
   -0.8697    1.2916    1.1781 H   0  0  0  0  0  0  0  0  0  0  0  0
  2  1  1  0  0  0  0
  2 11  1  0  0  0  0
  3  2  1  6  0  0  0
  3  7  1  0  0  0  0
  3  8  1  0  0  0  0
  4  3  1  0  0  0  0
  4  5  1  0  0  0  0
  5  6  1  1  0  0  0
  5  8  1  0  0  0  0
  6 14  1  0  0  0  0
  7  5  1  0  0  0  0
  7 16  1  0  0  0  0
  8 18  1  0  0  0  0
  8 17  1  0  0  0  0
  9  1  1  0  0  0  0
 10  2  1  0  0  0  0
 12  4  1  0  0  0  0
 13  4  1  0  0  0  0
 15  7  1  0  0  0  0
M  END
