22
title
C -1.3468143 1.7455614 -0.2276453
C -1.1221081 0.23275559 -0.20438848
C -2.424226 -0.5212969 -0.45390984
C 0.0917107 -0.19579603 -1.1000447
C 0.9402751 -0.32908672 0.16965246
C 2.1664338 -1.1621467 0.3860178
C 2.257537 0.3478025 0.42103994
C -0.30628434 -0.22177665 1.0553912
H -0.41285458 2.2884772 -0.04864822
H -1.7419474 2.0697062 -1.197574
H -2.0636218 2.0487077 0.5445277
H -2.8517635 -0.26049417 -1.4295139
H -2.2661455 -1.6049783 -0.43778273
H -3.1730552 -0.28146738 0.31051576
H -0.07696746 -1.1531028 -1.6050725
H 0.42432848 0.535694 -1.8435508
H 2.260988 -1.7012645 1.3237756
H 2.591918 -1.6796618 -0.46845257
H 2.7439218 0.8490727 -0.41035983
H 2.4128296 0.82745945 1.3827472
H -0.2642273 0.49074593 1.8854852
H -0.6400504 -1.1898601 1.4444363
