20
title
C -1.7226394 1.8405535 -0.29065055
C -1.0751656 0.4632834 -0.19045809
C -2.1054235 -0.6498715 -0.39352202
C 0.20387246 0.24771725 -1.0748848
C 0.89813733 -0.3242658 0.15994564
C 1.6896195 -1.5492239 0.28844443
O 2.2882802 -0.25097266 0.41504952
C -0.19075476 0.21923392 1.0834616
H -0.986408 2.637967 -0.14555556
H -2.1866596 1.9875416 -1.2729903
H -2.5048006 1.9645847 0.46747372
H -2.5783393 -0.57156515 -1.3791572
H -1.644961 -1.6410592 -0.3224002
H -2.896838 -0.5945413 0.3626922
H 0.104701534 -0.4022409 -1.948604
H 0.6589973 1.1933838 -1.3853259
H 1.6433618 -2.1325095 1.2078764
H 1.974302 -2.1085725 -0.6025115
H 0.12068905 1.1545353 1.5588703
H -0.58958507 -0.452338 1.8487014
