18
title
C -1.2765698 1.7561698 -0.23624878
C -1.0928066 0.24341533 -0.21187226
O -2.3232646 -0.43499365 -0.37275666
C 0.09254393 -0.25797248 -1.1131494
C 0.91589165 -0.42796358 0.16478632
C 2.2021084 -1.0732827 0.411451
O 2.07924 0.35751972 0.40092972
C -0.33019027 -0.2812641 1.0395522
H -0.32781819 2.2721655 -0.06056541
H -1.6564996 2.0850434 -1.2120199
H -1.9900417 2.0644977 0.53432095
H -2.7722878 -0.06442185 -1.1403781
H -0.15536585 -1.2119651 -1.5864276
H 0.4957349 0.43597272 -1.8550699
H 2.4100537 -1.5159416 1.3852991
H 2.764549 -1.4989253 -0.4192272
H -0.24622467 0.39329812 1.8946365
H -0.737575 -1.2427307 1.3626366
