title
 OpenBabel02282109583D

 18 19  0  0  1  0  0  0  0  0999 V2000
   -1.2766    1.7562   -0.2362 C   0  0  0  0  0  0  0  0  0  0  0  0
   -1.0928    0.2434   -0.2119 C   0  0  1  0  0  0  0  0  0  0  0  0
   -2.3233   -0.4350   -0.3728 O   0  0  0  0  0  0  0  0  0  0  0  0
    0.0925   -0.2580   -1.1131 C   0  0  0  0  0  0  0  0  0  0  0  0
    0.9159   -0.4280    0.1648 C   0  0  1  0  0  0  0  0  0  0  0  0
    2.2021   -1.0733    0.4115 C   0  0  0  0  0  0  0  0  0  0  0  0
    2.0792    0.3575    0.4009 O   0  0  0  0  0  0  0  0  0  0  0  0
   -0.3302   -0.2813    1.0396 C   0  0  0  0  0  0  0  0  0  0  0  0
   -0.3278    2.2722   -0.0606 H   0  0  0  0  0  0  0  0  0  0  0  0
   -1.6565    2.0850   -1.2120 H   0  0  0  0  0  0  0  0  0  0  0  0
   -1.9900    2.0645    0.5343 H   0  0  0  0  0  0  0  0  0  0  0  0
   -2.7723   -0.0644   -1.1404 H   0  0  0  0  0  0  0  0  0  0  0  0
   -0.1554   -1.2120   -1.5864 H   0  0  0  0  0  0  0  0  0  0  0  0
    0.4957    0.4360   -1.8551 H   0  0  0  0  0  0  0  0  0  0  0  0
    2.4101   -1.5159    1.3853 H   0  0  0  0  0  0  0  0  0  0  0  0
    2.7645   -1.4989   -0.4192 H   0  0  0  0  0  0  0  0  0  0  0  0
   -0.2462    0.3933    1.8946 H   0  0  0  0  0  0  0  0  0  0  0  0
   -0.7376   -1.2427    1.3626 H   0  0  0  0  0  0  0  0  0  0  0  0
  1  2  1  0  0  0  0
  1  9  1  0  0  0  0
  1 11  1  0  0  0  0
  2  3  1  6  0  0  0
  2  8  1  0  0  0  0
  4  2  1  0  0  0  0
  4  5  1  0  0  0  0
  5  7  1  1  0  0  0
  5  6  1  0  0  0  0
  5  8  1  0  0  0  0
  6 15  1  0  0  0  0
  7  6  1  0  0  0  0
  8 18  1  0  0  0  0
  8 17  1  0  0  0  0
 10  1  1  0  0  0  0
 12  3  1  0  0  0  0
 13  4  1  0  0  0  0
 14  4  1  0  0  0  0
 16  6  1  0  0  0  0
M  END
