title
 OpenBabel02282109583D

 24 24  0  0  0  0  0  0  0  0999 V2000
   -0.3521    1.4838    1.1817 C   0  0  0  0  0  0  0  0  0  0  0  0
   -0.5046   -0.0228    0.9049 C   0  0  0  0  0  0  0  0  0  0  0  0
    0.1629   -0.8124    2.0472 C   0  0  0  0  0  0  0  0  0  0  0  0
   -2.0040   -0.3730    0.8498 C   0  0  0  0  0  0  0  0  0  0  0  0
    0.1454   -0.4474   -0.4273 C   0  0  0  0  0  0  0  0  0  0  0  0
   -0.2293    0.2336   -1.7772 C   0  0  0  0  0  0  0  0  0  0  0  0
    1.2412    0.0360   -2.2331 C   0  0  0  0  0  0  0  0  0  0  0  0
    1.6404   -0.1455   -0.7441 C   0  0  0  0  0  0  0  0  0  0  0  0
    0.6986    1.7826    1.2484 H   0  0  0  0  0  0  0  0  0  0  0  0
   -0.8268    2.0919    0.4054 H   0  0  0  0  0  0  0  0  0  0  0  0
   -0.8260    1.7437    2.1346 H   0  0  0  0  0  0  0  0  0  0  0  0
   -0.2898   -0.5648    3.0138 H   0  0  0  0  0  0  0  0  0  0  0  0
    0.0567   -1.8926    1.8960 H   0  0  0  0  0  0  0  0  0  0  0  0
    1.2328   -0.5878    2.1136 H   0  0  0  0  0  0  0  0  0  0  0  0
   -2.5102    0.1712    0.0453 H   0  0  0  0  0  0  0  0  0  0  0  0
   -2.1538   -1.4443    0.6745 H   0  0  0  0  0  0  0  0  0  0  0  0
   -2.5031   -0.1161    1.7908 H   0  0  0  0  0  0  0  0  0  0  0  0
   -0.0129   -1.5284   -0.5373 H   0  0  0  0  0  0  0  0  0  0  0  0
   -1.0182   -0.2264   -2.3778 H   0  0  0  0  0  0  0  0  0  0  0  0
   -0.4663    1.2942   -1.6507 H   0  0  0  0  0  0  0  0  0  0  0  0
    1.3673   -0.8903   -2.8012 H   0  0  0  0  0  0  0  0  0  0  0  0
    1.7135    0.8492   -2.7894 H   0  0  0  0  0  0  0  0  0  0  0  0
    1.9710    0.8001   -0.3040 H   0  0  0  0  0  0  0  0  0  0  0  0
    2.3777   -0.9148   -0.5014 H   0  0  0  0  0  0  0  0  0  0  0  0
  1  9  1  0  0  0  0
  1 11  1  0  0  0  0
  2  1  1  0  0  0  0
  2  3  1  0  0  0  0
  3 14  1  0  0  0  0
  3 12  1  0  0  0  0
  4  2  1  0  0  0  0
  4 17  1  0  0  0  0
  5  2  1  0  0  0  0
  6 20  1  0  0  0  0
  6  5  1  0  0  0  0
  7  6  1  0  0  0  0
  7  8  1  0  0  0  0
  8 24  1  0  0  0  0
  8  5  1  0  0  0  0
  8 23  1  0  0  0  0
 10  1  1  0  0  0  0
 13  3  1  0  0  0  0
 15  4  1  0  0  0  0
 16  4  1  0  0  0  0
 18  5  1  0  0  0  0
 19  6  1  0  0  0  0
 21  7  1  0  0  0  0
 22  7  1  0  0  0  0
M  END
