22
title
C -0.49737883 1.5284623 0.8598061
C -0.48172325 -0.009629735 0.8796846
C 0.3634253 -0.4914682 2.074721
C -1.915033 -0.55628806 0.99265367
C 0.15398467 -0.5810764 -0.3970024
C -0.32413778 -0.1299663 -1.7985125
C 1.1513561 0.2543921 -2.017525
O 1.486187 -0.0661562 -0.6519943
H 0.5103564 1.921487 0.7015287
H -1.1477394 1.9232944 0.072310135
H -0.87033266 1.916931 1.8131605
H -0.034386065 -0.09947624 3.0167723
H 0.36682886 -1.5852519 2.141501
H 1.3998533 -0.15660469 1.9744064
H -2.5371099 -0.23034744 0.15175067
H -1.9249777 -1.6519349 1.014146
H -2.3909614 -0.20248197 1.9132732
H 0.18858021 -1.6775377 -0.30304307
H -0.72006243 -0.9165098 -2.4423082
H -1.0165253 0.7130743 -1.7983241
H 1.6940982 -0.38141504 -2.729078
H 1.3570031 1.304914 -2.253463
