title
 OpenBabel02282109583D

 22 22  0  0  0  0  0  0  0  0999 V2000
   -0.2949    1.4449    1.0787 C   0  0  0  0  0  0  0  0  0  0  0  0
   -0.5118   -0.0688    0.8916 C   0  0  0  0  0  0  0  0  0  0  0  0
    0.1353   -0.8199    2.0708 C   0  0  0  0  0  0  0  0  0  0  0  0
   -2.0240   -0.3618    0.8673 C   0  0  0  0  0  0  0  0  0  0  0  0
    0.1056   -0.6017   -0.4188 C   0  0  0  0  0  0  0  0  0  0  0  0
   -0.2038    0.1193   -1.7527 C   0  0  0  0  0  0  0  0  0  0  0  0
    1.1833    0.4587   -1.9474 O   0  0  0  0  0  0  0  0  0  0  0  0
    1.5755   -0.2590   -0.7608 C   0  0  0  0  0  0  0  0  0  0  0  0
    0.7666    1.7061    1.1209 H   0  0  0  0  0  0  0  0  0  0  0  0
   -0.7520    2.0284    0.2741 H   0  0  0  0  0  0  0  0  0  0  0  0
   -0.7494    1.7739    2.0191 H   0  0  0  0  0  0  0  0  0  0  0  0
   -0.2920   -0.4923    3.0247 H   0  0  0  0  0  0  0  0  0  0  0  0
   -0.0227   -1.9010    1.9879 H   0  0  0  0  0  0  0  0  0  0  0  0
    1.2153   -0.6411    2.1141 H   0  0  0  0  0  0  0  0  0  0  0  0
   -2.5169    0.1508    0.0338 H   0  0  0  0  0  0  0  0  0  0  0  0
   -2.2191   -1.4350    0.7635 H   0  0  0  0  0  0  0  0  0  0  0  0
   -2.5028   -0.0234    1.7924 H   0  0  0  0  0  0  0  0  0  0  0  0
   -0.0941   -1.6764   -0.4705 H   0  0  0  0  0  0  0  0  0  0  0  0
   -0.5833   -0.5266   -2.5551 H   0  0  0  0  0  0  0  0  0  0  0  0
   -0.8393    1.0116   -1.6946 H   0  0  0  0  0  0  0  0  0  0  0  0
    2.1093    0.3846   -0.0507 H   0  0  0  0  0  0  0  0  0  0  0  0
    2.2129   -1.1212   -0.9962 H   0  0  0  0  0  0  0  0  0  0  0  0
  1  9  1  0  0  0  0
  1 11  1  0  0  0  0
  2  1  1  0  0  0  0
  2  3  1  0  0  0  0
  3 14  1  0  0  0  0
  3 12  1  0  0  0  0
  4  2  1  0  0  0  0
  4 17  1  0  0  0  0
  5  2  1  0  0  0  0
  6 20  1  0  0  0  0
  6  5  1  0  0  0  0
  7  6  1  0  0  0  0
  7  8  1  0  0  0  0
  8  5  1  0  0  0  0
  8 21  1  0  0  0  0
 10  1  1  0  0  0  0
 13  3  1  0  0  0  0
 15  4  1  0  0  0  0
 16  4  1  0  0  0  0
 18  5  1  0  0  0  0
 19  6  1  0  0  0  0
 22  8  1  0  0  0  0
M  END
