title
 OpenBabel02282109583D

 20 20  0  0  0  0  0  0  0  0999 V2000
    0.2736    1.9392    1.0767 C   0  0  0  0  0  0  0  0  0  0  0  0
   -0.0094    0.4369    0.9272 C   0  0  0  0  0  0  0  0  0  0  0  0
    0.4957   -0.3393    2.1527 C   0  0  0  0  0  0  0  0  0  0  0  0
   -1.4159    0.2225    0.7633 O   0  0  0  0  0  0  0  0  0  0  0  0
    0.6460   -0.1012   -0.3475 C   0  0  0  0  0  0  0  0  0  0  0  0
    0.2651   -1.5183   -0.8344 C   0  0  0  0  0  0  0  0  0  0  0  0
   -0.0981   -1.0189   -2.1373 O   0  0  0  0  0  0  0  0  0  0  0  0
    0.0832    0.3479   -1.7157 C   0  0  0  0  0  0  0  0  0  0  0  0
    1.3465    2.1367    1.1686 H   0  0  0  0  0  0  0  0  0  0  0  0
   -0.1091    2.4905    0.2131 H   0  0  0  0  0  0  0  0  0  0  0  0
   -0.2146    2.3352    1.9749 H   0  0  0  0  0  0  0  0  0  0  0  0
    0.0105    0.0253    3.0657 H   0  0  0  0  0  0  0  0  0  0  0  0
    0.2705   -1.4048    2.0526 H   0  0  0  0  0  0  0  0  0  0  0  0
    1.5764   -0.2221    2.2825 H   0  0  0  0  0  0  0  0  0  0  0  0
   -1.8607    0.5512    1.5511 H   0  0  0  0  0  0  0  0  0  0  0  0
    1.7272    0.0398   -0.2721 H   0  0  0  0  0  0  0  0  0  0  0  0
    1.0757   -2.2547   -0.8892 H   0  0  0  0  0  0  0  0  0  0  0  0
   -0.5935   -1.9551   -0.3114 H   0  0  0  0  0  0  0  0  0  0  0  0
   -0.8703    0.8850   -1.6526 H   0  0  0  0  0  0  0  0  0  0  0  0
    0.7690    0.8927   -2.3755 H   0  0  0  0  0  0  0  0  0  0  0  0
  1  9  1  0  0  0  0
  1 11  1  0  0  0  0
  2  1  1  0  0  0  0
  2  3  1  0  0  0  0
  3 14  1  0  0  0  0
  3 12  1  0  0  0  0
  4  2  1  0  0  0  0
  4 15  1  0  0  0  0
  5 16  1  0  0  0  0
  5  2  1  0  0  0  0
  6  5  1  0  0  0  0
  6 18  1  0  0  0  0
  7  8  1  0  0  0  0
  7  6  1  0  0  0  0
  8 19  1  0  0  0  0
  8  5  1  0  0  0  0
 10  1  1  0  0  0  0
 13  3  1  0  0  0  0
 17  6  1  0  0  0  0
 20  8  1  0  0  0  0
M  END
