20
title
C 0.27362752 1.9392421 1.0766507
C -0.009415591 0.43694305 0.92719656
C 0.4956738 -0.33926678 2.1526508
O -1.415891 0.222464 0.7632691
C 0.64599496 -0.101151116 -0.34750682
C 0.2651105 -1.5182755 -0.83441454
O -0.09810873 -1.0188676 -2.1372688
C 0.08323435 0.34794518 -1.7157203
H 1.3465344 2.1367123 1.1686207
H -0.109125786 2.4905083 0.21313322
H -0.21464229 2.3352265 1.9749001
H 0.010457764 0.025261277 3.0657482
H 0.27048957 -1.404793 2.0526366
H 1.5764035 -0.22208077 2.2825456
H -1.8606709 0.5512196 1.5511266
H 1.7272197 0.03983938 -0.27207965
H 1.0756865 -2.254665 -0.8891689
H -0.59352756 -1.9551036 -0.3113647
H -0.8703158 0.88498724 -1.6525735
H 0.76895076 0.89272785 -2.375497
