14
title
C -0.04064172 4.402772 -0.004773298
C -0.016524062 2.9528637 -0.004586374
C 0.00688 1.7419463 -0.004810435
C 0.03440969 0.38657272 -0.005234448
C 0.05642464 -0.82768 -0.0052788346
C 0.09514858 -2.276088 -0.0069090924
C -1.2441088 -2.9636495 0.16415264
O 1.1387858 -2.8814723 -0.13763401
H 0.56948256 4.8037715 0.81228757
H 0.35897815 4.800147 -0.94446903
H -1.0602173 4.784635 0.116650656
H -1.7060798 -2.6586154 1.1093063
H -1.927167 -2.6625564 -0.6374413
H -1.1023619 -4.0453153 0.14865226
