18
title
C 0.055076446 4.384055 0.21751927
C 0.06956811 2.932172 0.20186092
C 0.08169913 1.721844 0.18865561
C 0.096227005 0.36156154 0.17395854
C 0.10762999 -0.84977984 0.1582228
C 0.116767265 -2.3095062 0.13133007
C -1.3172592 -2.875324 0.19330473
C 0.8765452 -2.8377583 -1.1032189
H 1.0725137 4.791645 0.21737552
H -0.4635563 4.7859755 -0.6604351
H -0.45556277 4.7667513 1.108639
H 0.6521226 -2.6559374 1.0271528
H -1.2892246 -3.9692962 0.22050785
H -1.8428429 -2.519377 1.0829886
H -1.890599 -2.567208 -0.6862216
H 1.9000702 -2.455393 -1.1289476
H 0.9145039 -3.9315631 -1.0820088
H 0.37480015 -2.5283082 -2.025017
