title
 OpenBabel02282109583D

 18 17  0  0  0  0  0  0  0  0999 V2000
    0.7056    4.1936   -0.0501 C   0  0  0  0  0  0  0  0  0  0  0  0
    0.7352    2.7385   -0.0002 C   0  0  0  0  0  0  0  0  0  0  0  0
    0.7751    1.5357    0.0429 C   0  0  0  0  0  0  0  0  0  0  0  0
    0.7922    0.0780    0.0914 C   0  0  0  0  0  0  0  0  0  0  0  0
   -0.6111   -0.5313   -0.0554 C   0  0  0  0  0  0  0  0  0  0  0  0
   -0.6089   -2.0535   -0.0067 C   0  0  0  0  0  0  0  0  0  0  0  0
   -1.9610   -2.7312   -0.1451 C   0  0  0  0  0  0  0  0  0  0  0  0
    0.4129   -2.6861    0.1344 O   0  0  0  0  0  0  0  0  0  0  0  0
    1.3142    4.5773   -0.8767 H   0  0  0  0  0  0  0  0  0  0  0  0
   -0.3145    4.5683   -0.1908 H   0  0  0  0  0  0  0  0  0  0  0  0
    1.0929    4.6329    0.8761 H   0  0  0  0  0  0  0  0  0  0  0  0
    1.4393   -0.3237   -0.6967 H   0  0  0  0  0  0  0  0  0  0  0  0
    1.2345   -0.2686    1.0323 H   0  0  0  0  0  0  0  0  0  0  0  0
   -1.2786   -0.1564    0.7313 H   0  0  0  0  0  0  0  0  0  0  0  0
   -1.0737   -0.2116   -0.9982 H   0  0  0  0  0  0  0  0  0  0  0  0
   -2.4310   -2.4550   -1.0957 H   0  0  0  0  0  0  0  0  0  0  0  0
   -1.8395   -3.8138   -0.0963 H   0  0  0  0  0  0  0  0  0  0  0  0
   -2.6376   -2.3995    0.6505 H   0  0  0  0  0  0  0  0  0  0  0  0
  1  2  1  0  0  0  0
  1 11  1  0  0  0  0
  2  3  3  0  0  0  0
  3  4  1  0  0  0  0
  4 13  1  0  0  0  0
  5  6  1  0  0  0  0
  5  4  1  0  0  0  0
  5 14  1  0  0  0  0
  6  8  2  0  0  0  0
  7 17  1  0  0  0  0
  7  6  1  0  0  0  0
  7 18  1  0  0  0  0
  9  1  1  0  0  0  0
 10  1  1  0  0  0  0
 12  4  1  0  0  0  0
 15  5  1  0  0  0  0
 16  7  1  0  0  0  0
M  END
