17
title
C 0.7207193 4.2037196 -0.05574159
C 0.7394562 2.7479563 -0.020247633
C 0.7711926 1.5445167 0.011070565
C 0.78012174 0.08640817 0.047209818
C -0.63084143 -0.5120652 -0.07164201
C -0.611219 -2.0363972 0.026488762
N -1.7986437 -2.640392 -0.27546865
O 0.37760767 -2.668637 0.3439528
H 1.308743 4.590472 -0.89564645
H -0.2998125 4.588095 -0.16404831
H 1.1375481 4.6312757 0.8630767
H 1.4066938 -0.31076643 -0.75972784
H 1.2375867 -0.27582547 0.9739222
H -1.2708734 -0.1178312 0.72740084
H -1.0980726 -0.20667097 -1.0148292
H -2.6350012 -2.11568 -0.46183977
H -1.8705 -3.6367824 -0.15062447
