title
 OpenBabel02282109583D

 16 15  0  0  0  0  0  0  0  0999 V2000
    0.7146    3.8275   -0.4666 C   0  0  0  0  0  0  0  0  0  0  0  0
    0.7745    2.4456   -0.0129 C   0  0  0  0  0  0  0  0  0  0  0  0
    0.8369    1.2989    0.3494 C   0  0  0  0  0  0  0  0  0  0  0  0
    0.8830   -0.0868    0.8119 C   0  0  0  0  0  0  0  0  0  0  0  0
   -0.4172   -0.7518    0.7654 N   0  0  0  0  0  0  0  0  0  0  0  0
   -0.6439   -1.7363   -0.1782 C   0  0  0  0  0  0  0  0  0  0  0  0
   -1.9814   -2.0950   -0.2963 N   0  0  0  0  0  0  0  0  0  0  0  0
    0.2339   -2.2418   -0.8518 O   0  0  0  0  0  0  0  0  0  0  0  0
    1.5911    4.0827   -1.0723 H   0  0  0  0  0  0  0  0  0  0  0  0
   -0.1738    4.0029   -1.0833 H   0  0  0  0  0  0  0  0  0  0  0  0
    0.6777    4.5267    0.3760 H   0  0  0  0  0  0  0  0  0  0  0  0
    1.5468   -0.6876    0.1825 H   0  0  0  0  0  0  0  0  0  0  0  0
    1.2794   -0.1232    1.8348 H   0  0  0  0  0  0  0  0  0  0  0  0
   -1.2060   -0.1828    1.0325 H   0  0  0  0  0  0  0  0  0  0  0  0
   -2.5600   -2.0157    0.5268 H   0  0  0  0  0  0  0  0  0  0  0  0
   -2.1017   -2.9626   -0.7969 H   0  0  0  0  0  0  0  0  0  0  0  0
  1  2  1  0  0  0  0
  1 11  1  0  0  0  0
  2  3  3  0  0  0  0
  3  4  1  0  0  0  0
  4 13  1  0  0  0  0
  5  4  1  0  0  0  0
  5 14  1  0  0  0  0
  6  5  1  0  0  0  0
  7  6  1  0  0  0  0
  7 15  1  0  0  0  0
  8  6  2  0  0  0  0
  9  1  1  0  0  0  0
 10  1  1  0  0  0  0
 12  4  1  0  0  0  0
 16  7  1  0  0  0  0
M  END
