title
 OpenBabel02282109583D

 16 15  0  0  0  0  0  0  0  0999 V2000
    0.7696    4.0600    0.2278 C   0  0  0  0  0  0  0  0  0  0  0  0
    0.7707    2.6122    0.0830 C   0  0  0  0  0  0  0  0  0  0  0  0
    0.7662    1.4150   -0.0355 C   0  0  0  0  0  0  0  0  0  0  0  0
    0.8024   -0.0280   -0.1880 C   0  0  0  0  0  0  0  0  0  0  0  0
   -0.5184   -0.5607    0.0636 O   0  0  0  0  0  0  0  0  0  0  0  0
   -0.6172   -1.9030   -0.0476 C   0  0  0  0  0  0  0  0  0  0  0  0
   -2.0292   -2.3570    0.2330 C   0  0  0  0  0  0  0  0  0  0  0  0
    0.3105   -2.6177   -0.3330 O   0  0  0  0  0  0  0  0  0  0  0  0
    1.4621    4.3830    1.0126 H   0  0  0  0  0  0  0  0  0  0  0  0
    1.0646    4.5544   -0.7040 H   0  0  0  0  0  0  0  0  0  0  0  0
   -0.2283    4.4244    0.4952 H   0  0  0  0  0  0  0  0  0  0  0  0
    1.1160   -0.3196   -1.1964 H   0  0  0  0  0  0  0  0  0  0  0  0
    1.5097   -0.4899    0.5095 H   0  0  0  0  0  0  0  0  0  0  0  0
   -2.7215   -1.8821   -0.4679 H   0  0  0  0  0  0  0  0  0  0  0  0
   -2.0866   -3.4405    0.1380 H   0  0  0  0  0  0  0  0  0  0  0  0
   -2.3272   -2.0526    1.2402 H   0  0  0  0  0  0  0  0  0  0  0  0
  1 11  1  0  0  0  0
  1  9  1  0  0  0  0
  2  1  1  0  0  0  0
  3  2  3  0  0  0  0
  4  3  1  0  0  0  0
  4  5  1  0  0  0  0
  4 13  1  0  0  0  0
  6  5  1  0  0  0  0
  6  7  1  0  0  0  0
  7 16  1  0  0  0  0
  8  6  2  0  0  0  0
 10  1  1  0  0  0  0
 12  4  1  0  0  0  0
 14  7  1  0  0  0  0
 15  7  1  0  0  0  0
M  END
