15
title
C 0.75228703 4.085428 -0.014570147
C 0.75789195 2.6312191 0.034464903
C 0.7580534 1.4287878 0.07348654
C 0.80277 -0.021939289 0.1285422
O -0.52574414 -0.53813577 -0.089215904
C -0.6093976 -1.8911533 -0.027989047
N -1.8879664 -2.288382 -0.2983668
O 0.32118535 -2.628014 0.20251273
H 1.4211951 4.4607515 -0.79660106
H -0.25289163 4.4649534 -0.22823115
H 1.0746927 4.5186543 0.9384515
H 1.4750506 -0.4304533 -0.634118
H 1.1705132 -0.37544942 1.0979595
H -2.6259336 -1.6059813 -0.2633997
H -2.1126807 -3.2428532 -0.07711531
