title
 OpenBabel02282109583D

 15 14  0  0  0  0  0  0  0  0999 V2000
    0.7523    4.0854   -0.0146 C   0  0  0  0  0  0  0  0  0  0  0  0
    0.7579    2.6312    0.0345 C   0  0  0  0  0  0  0  0  0  0  0  0
    0.7581    1.4288    0.0735 C   0  0  0  0  0  0  0  0  0  0  0  0
    0.8028   -0.0219    0.1285 C   0  0  0  0  0  0  0  0  0  0  0  0
   -0.5257   -0.5381   -0.0892 O   0  0  0  0  0  0  0  0  0  0  0  0
   -0.6094   -1.8912   -0.0280 C   0  0  0  0  0  0  0  0  0  0  0  0
   -1.8880   -2.2884   -0.2984 N   0  0  0  0  0  0  0  0  0  0  0  0
    0.3212   -2.6280    0.2025 O   0  0  0  0  0  0  0  0  0  0  0  0
    1.4212    4.4608   -0.7966 H   0  0  0  0  0  0  0  0  0  0  0  0
   -0.2529    4.4650   -0.2282 H   0  0  0  0  0  0  0  0  0  0  0  0
    1.0747    4.5187    0.9385 H   0  0  0  0  0  0  0  0  0  0  0  0
    1.4751   -0.4305   -0.6341 H   0  0  0  0  0  0  0  0  0  0  0  0
    1.1705   -0.3754    1.0980 H   0  0  0  0  0  0  0  0  0  0  0  0
   -2.6259   -1.6060   -0.2634 H   0  0  0  0  0  0  0  0  0  0  0  0
   -2.1127   -3.2429   -0.0771 H   0  0  0  0  0  0  0  0  0  0  0  0
  1  2  1  0  0  0  0
  1 11  1  0  0  0  0
  2  3  3  0  0  0  0
  3  4  1  0  0  0  0
  4 13  1  0  0  0  0
  5  6  1  0  0  0  0
  5  4  1  0  0  0  0
  6  8  2  0  0  0  0
  7 14  1  0  0  0  0
  7 15  1  0  0  0  0
  7  6  1  0  0  0  0
  9  1  1  0  0  0  0
 10  1  1  0  0  0  0
 12  4  1  0  0  0  0
M  END
