22
title
C 0.7956484 4.178446 -0.21102868
C 0.8248245 2.7224448 -0.19961378
C 0.8597928 1.5186677 -0.1911587
C 0.86566556 0.059466865 -0.17725378
C -0.5493341 -0.54423237 -0.05408883
C -0.59482104 -2.0807269 -0.12500106
C 0.13212232 -2.7482212 1.0514671
C -2.0490904 -2.5655434 -0.20288043
H 1.3811331 4.597134 0.6153142
H 1.2084557 4.5796256 -1.1435484
H -0.22780772 4.5581274 -0.114415914
H 1.3376449 -0.31553766 -1.0961869
H 1.4963273 -0.291604 0.64878464
H -1.0007098 -0.2058079 0.8875878
H -1.1691358 -0.12854692 -0.85703045
H -0.08884998 -2.38681 -1.0528886
H 1.1932759 -2.484629 1.0879649
H -0.31879836 -2.4513605 2.0062869
H 0.06846909 -3.8391273 0.9808172
H -2.5694077 -2.1321514 -1.0634074
H -2.0995786 -3.6557267 -0.29284766
H -2.6046965 -2.2816446 0.6990287
