title
 OpenBabel02282109583D

 20 19  0  0  1  0  0  0  0  0999 V2000
    0.8516    4.1940    0.1715 C   0  0  0  0  0  0  0  0  0  0  0  0
    0.8523    2.7376    0.1654 C   0  0  0  0  0  0  0  0  0  0  0  0
    0.8671    1.5333    0.1601 C   0  0  0  0  0  0  0  0  0  0  0  0
    0.8496    0.0749    0.1527 C   0  0  0  0  0  0  0  0  0  0  0  0
   -0.5731   -0.5138    0.2189 C   0  0  0  0  0  0  0  0  0  0  0  0
   -0.5818   -2.0452    0.1423 C   0  0  1  0  0  0  0  0  0  0  0  0
   -1.9918   -2.6234    0.2606 C   0  0  0  0  0  0  0  0  0  0  0  0
    0.0706   -2.5129   -1.0386 O   0  0  0  0  0  0  0  0  0  0  0  0
    1.8717    4.5931    0.1403 H   0  0  0  0  0  0  0  0  0  0  0  0
    0.3142    4.5980   -0.6939 H   0  0  0  0  0  0  0  0  0  0  0  0
    0.3705    4.5913    1.0724 H   0  0  0  0  0  0  0  0  0  0  0  0
    1.3425   -0.3086   -0.7480 H   0  0  0  0  0  0  0  0  0  0  0  0
    1.4359   -0.3071    0.9997 H   0  0  0  0  0  0  0  0  0  0  0  0
   -1.0634   -0.1902    1.1442 H   0  0  0  0  0  0  0  0  0  0  0  0
   -1.1725   -0.1071   -0.6072 H   0  0  0  0  0  0  0  0  0  0  0  0
    0.0348   -2.4419    0.9596 H   0  0  0  0  0  0  0  0  0  0  0  0
   -2.6375   -2.2392   -0.5393 H   0  0  0  0  0  0  0  0  0  0  0  0
   -1.9626   -3.7135    0.1821 H   0  0  0  0  0  0  0  0  0  0  0  0
   -2.4530   -2.3546    1.2164 H   0  0  0  0  0  0  0  0  0  0  0  0
   -0.4653   -2.2414   -1.7927 H   0  0  0  0  0  0  0  0  0  0  0  0
  1 11  1  0  0  0  0
  2  1  1  0  0  0  0
  3  2  3  0  0  0  0
  4  3  1  0  0  0  0
  4  5  1  0  0  0  0
  4 13  1  0  0  0  0
  5 14  1  0  0  0  0
  6  5  1  0  0  0  0
  6  7  1  0  0  0  0
  6 16  1  1  0  0  0
  7 19  1  0  0  0  0
  8  6  1  0  0  0  0
  9  1  1  0  0  0  0
 10  1  1  0  0  0  0
 12  4  1  0  0  0  0
 15  5  1  0  0  0  0
 17  7  1  0  0  0  0
 18  7  1  0  0  0  0
 20  8  1  0  0  0  0
M  END
