20
title
C 0.8516079 4.1940107 0.17153835
C 0.8522844 2.7375605 0.16543996
C 0.86712706 1.5332689 0.16012919
C 0.8495597 0.07491375 0.15267257
C -0.5730835 -0.5138242 0.2188739
C -0.58177185 -2.0451643 0.14225976
C -1.991788 -2.6233914 0.26064926
O 0.07060309 -2.5128639 -1.0386348
H 1.8717496 4.5931206 0.14032522
H 0.31421298 4.5979753 -0.69389504
H 0.37045074 4.5912795 1.0724448
H 1.3424805 -0.3086207 -0.7479807
H 1.43588 -0.30712485 0.9997081
H -1.0633928 -0.1901648 1.1442341
H -1.1724714 -0.1071341 -0.6071866
H 0.034753453 -2.441869 0.9595674
H -2.6374705 -2.2391517 -0.5393086
H -1.962556 -3.7134974 0.18207261
H -2.4530294 -2.3545754 1.216417
H -0.4653498 -2.241382 -1.7926934
