title
 OpenBabel02282109583D

 20 19  0  0  0  0  0  0  0  0999 V2000
    0.8942    4.0586   -0.2452 C   0  0  0  0  0  0  0  0  0  0  0  0
    0.8780    2.6111   -0.0962 C   0  0  0  0  0  0  0  0  0  0  0  0
    0.8565    1.4141    0.0236 C   0  0  0  0  0  0  0  0  0  0  0  0
    0.8560   -0.0347    0.1800 C   0  0  0  0  0  0  0  0  0  0  0  0
   -0.4321   -0.5498   -0.1053 O   0  0  0  0  0  0  0  0  0  0  0  0
   -0.5033   -1.9723   -0.1521 C   0  0  0  0  0  0  0  0  0  0  0  0
   -0.4450   -2.5986    1.2451 C   0  0  0  0  0  0  0  0  0  0  0  0
   -1.8025   -2.3080   -0.8758 C   0  0  0  0  0  0  0  0  0  0  0  0
    1.6491    4.3776   -0.9723 H   0  0  0  0  0  0  0  0  0  0  0  0
   -0.0769    4.4263   -0.5946 H   0  0  0  0  0  0  0  0  0  0  0  0
    1.1144    4.5575    0.7050 H   0  0  0  0  0  0  0  0  0  0  0  0
    1.6025   -0.4847   -0.4983 H   0  0  0  0  0  0  0  0  0  0  0  0
    1.1712   -0.2908    1.2044 H   0  0  0  0  0  0  0  0  0  0  0  0
    0.3471   -2.3497   -0.7469 H   0  0  0  0  0  0  0  0  0  0  0  0
   -0.5324   -3.6877    1.1779 H   0  0  0  0  0  0  0  0  0  0  0  0
    0.4959   -2.3757    1.7565 H   0  0  0  0  0  0  0  0  0  0  0  0
   -1.2681   -2.2222    1.8610 H   0  0  0  0  0  0  0  0  0  0  0  0
   -1.8171   -1.8462   -1.8663 H   0  0  0  0  0  0  0  0  0  0  0  0
   -1.9132   -3.3905   -0.9901 H   0  0  0  0  0  0  0  0  0  0  0  0
   -2.6595   -1.9299   -0.3095 H   0  0  0  0  0  0  0  0  0  0  0  0
  1  2  1  0  0  0  0
  1 11  1  0  0  0  0
  2  3  3  0  0  0  0
  3  4  1  0  0  0  0
  4 13  1  0  0  0  0
  5  4  1  0  0  0  0
  6  5  1  0  0  0  0
  6  7  1  0  0  0  0
  7 16  1  0  0  0  0
  7 17  1  0  0  0  0
  8 20  1  0  0  0  0
  8  6  1  0  0  0  0
  9  1  1  0  0  0  0
 10  1  1  0  0  0  0
 12  4  1  0  0  0  0
 14  6  1  0  0  0  0
 15  7  1  0  0  0  0
 18  8  1  0  0  0  0
 19  8  1  0  0  0  0
M  END
