14
title
C 0.012178086 2.8608315 1.4037762
C -0.03126113 1.3515738 1.5309675
O -0.07916429 0.7795182 2.5982795
C -0.011259887 0.6203275 0.2754866
C 0.005828493 0.01516166 -0.76752555
C 0.025234237 -0.71864974 -2.0322385
C 0.038833864 -2.1732836 -1.8752204
C 0.05041995 -3.3675618 -1.7600564
H 0.9190529 3.1670563 0.87110007
H -0.839974 3.2133899 0.81264347
H -0.008781502 3.311934 2.3968017
H -0.847176 -0.41955015 -2.6300683
H 0.9010557 -0.40143225 -2.6154413
H 0.060224134 -4.423756 -1.6491956
