13
title
C 1.3903825 2.8959544 0.0033375267
C 1.5331508 1.3892888 -0.0074232044
O 2.6013334 0.82009315 -0.02137609
C 0.28200257 0.6423381 0.00018836188
C -0.75040984 0.021063006 0.0064836275
C -2.0050986 -0.7238385 0.014630451
C -1.8254197 -2.181451 0.006263748
N -1.7069826 -3.3294609 -0.000113272086
H 2.3794527 3.355709 -0.0034448635
H 0.81657076 3.225714 -0.86960524
H 0.8337327 3.2147617 0.8913297
H -2.596726 -0.45156226 0.8983961
H -2.6127853 -0.4434764 -0.85560596
