title
 OpenBabel02282109583D

 13 12  0  0  0  0  0  0  0  0999 V2000
    1.3568    2.7246    0.0656 N   0  0  0  0  0  0  0  0  0  0  0  0
    1.4870    1.3696   -0.0390 C   0  0  0  0  0  0  0  0  0  0  0  0
    2.5576    0.8055   -0.1478 O   0  0  0  0  0  0  0  0  0  0  0  0
    0.2165    0.6554   -0.0178 C   0  0  0  0  0  0  0  0  0  0  0  0
   -0.8016    0.0125   -0.0047 C   0  0  0  0  0  0  0  0  0  0  0  0
   -2.0418   -0.7637    0.0083 C   0  0  0  0  0  0  0  0  0  0  0  0
   -1.8306   -2.2110    0.0513 C   0  0  0  0  0  0  0  0  0  0  0  0
   -1.6705   -3.3996    0.0873 C   0  0  0  0  0  0  0  0  0  0  0  0
    2.1944    3.2821    0.1001 H   0  0  0  0  0  0  0  0  0  0  0  0
    0.4628    3.1595    0.2105 H   0  0  0  0  0  0  0  0  0  0  0  0
   -2.6513   -0.4552    0.8691 H   0  0  0  0  0  0  0  0  0  0  0  0
   -2.6348   -0.5048   -0.8800 H   0  0  0  0  0  0  0  0  0  0  0  0
   -1.5190   -4.4503    0.1184 H   0  0  0  0  0  0  0  0  0  0  0  0
  1  9  1  0  0  0  0
  1 10  1  0  0  0  0
  2  4  1  0  0  0  0
  2  1  1  0  0  0  0
  3  2  2  0  0  0  0
  4  5  3  0  0  0  0
  5  6  1  0  0  0  0
  6  7  1  0  0  0  0
  6 11  1  0  0  0  0
  7  8  3  0  0  0  0
  8 13  1  0  0  0  0
 12  6  1  0  0  0  0
M  END
