title
 OpenBabel02282109583D

 14 13  0  0  0  0  0  0  0  0999 V2000
    1.5487    2.8848    0.0001 C   0  0  0  0  0  0  0  0  0  0  0  0
    1.6500    1.4102   -0.3287 C   0  0  0  0  0  0  0  0  0  0  0  0
    2.6897    0.8686   -0.6369 O   0  0  0  0  0  0  0  0  0  0  0  0
    0.4044    0.6655   -0.2515 C   0  0  0  0  0  0  0  0  0  0  0  0
   -0.6343    0.0529   -0.1938 C   0  0  0  0  0  0  0  0  0  0  0  0
   -1.8410   -0.7499   -0.1098 C   0  0  0  0  0  0  0  0  0  0  0  0
   -1.5615   -2.1888    0.3470 C   0  0  0  0  0  0  0  0  0  0  0  0
   -2.3023   -2.8028    1.0624 O   0  0  0  0  0  0  0  0  0  0  0  0
    2.5321    3.3479   -0.0915 H   0  0  0  0  0  0  0  0  0  0  0  0
    0.8384    3.3731   -0.6758 H   0  0  0  0  0  0  0  0  0  0  0  0
    1.1642    3.0170    1.0172 H   0  0  0  0  0  0  0  0  0  0  0  0
   -2.5917   -0.3130    0.5562 H   0  0  0  0  0  0  0  0  0  0  0  0
   -2.3007   -0.8224   -1.1077 H   0  0  0  0  0  0  0  0  0  0  0  0
   -0.6223   -2.6236   -0.0549 H   0  0  0  0  0  0  0  0  0  0  0  0
  1 11  1  0  0  0  0
  2  4  1  0  0  0  0
  2  1  1  0  0  0  0
  3  2  2  0  0  0  0
  4  5  3  0  0  0  0
  5  6  1  0  0  0  0
  6  7  1  0  0  0  0
  6 12  1  0  0  0  0
  7  8  2  0  0  0  0
  9  1  1  0  0  0  0
 10  1  1  0  0  0  0
 13  6  1  0  0  0  0
 14  7  1  0  0  0  0
M  END
