14
title
C 1.5487031 2.8848298 9.366562e-05
C 1.6500267 1.410162 -0.32874432
O 2.6897175 0.8686255 -0.63690805
C 0.40435556 0.66549 -0.25153595
C -0.634337 0.052924465 -0.19376197
C -1.840999 -0.7499108 -0.10984876
C -1.5614961 -2.1888463 0.34699404
O -2.3023431 -2.8028414 1.0623673
H 2.532143 3.3478866 -0.09152168
H 0.83837247 3.3731027 -0.6758042
H 1.1642154 3.0170152 1.0172371
H -2.591744 -0.31301254 0.5562278
H -2.3007 -0.82235473 -1.1077343
H -0.6223138 -2.623558 -0.054930396
