13
title
N 1.6129603 2.6861858 0.013905527
C 1.6341165 1.3839629 -0.39132822
O 2.618476 0.8366051 -0.8479153
C 0.35725808 0.69771034 -0.2370099
C -0.6745933 0.08236317 -0.1391082
C -1.8783237 -0.72059065 -0.009932509
C -1.5759777 -2.1721554 0.38702613
O -2.276158 -2.8078399 1.1246121
H 2.4707384 3.2118962 -0.026662318
H 0.79873556 3.0945623 0.43795845
H -2.585629 -0.3048285 0.71460557
H -2.3984177 -0.76260597 -0.9793432
H -0.6621407 -2.595255 -0.08020887
