13
title
N 0.18368734 3.1768613 0.3109043
C 0.38514498 1.8924683 -0.10703787
O 1.4513395 1.4815176 -0.5011167
C -0.9020387 1.0359747 -0.09611556
C -0.64787847 -0.38872 -0.014033186
C -0.4606587 -1.5805573 0.060450695
C -0.24610093 -2.921399 0.14613882
C -0.059844993 -4.111882 0.2231439
H 0.9844214 3.7862914 0.35280418
H -0.66494066 3.4714286 0.76090336
H -1.5611266 1.3501036 0.7235901
H -1.4423339 1.2673588 -1.0250912
H 0.109455146 -5.1578126 0.28861645
