title
 OpenBabel02282109583D

 13 12  0  0  0  0  0  0  0  0999 V2000
    0.1837    3.1769    0.3109 N   0  0  0  0  0  0  0  0  0  0  0  0
    0.3851    1.8925   -0.1070 C   0  0  0  0  0  0  0  0  0  0  0  0
    1.4513    1.4815   -0.5011 O   0  0  0  0  0  0  0  0  0  0  0  0
   -0.9020    1.0360   -0.0961 C   0  0  0  0  0  0  0  0  0  0  0  0
   -0.6479   -0.3887   -0.0140 C   0  0  0  0  0  0  0  0  0  0  0  0
   -0.4607   -1.5806    0.0605 C   0  0  0  0  0  0  0  0  0  0  0  0
   -0.2461   -2.9214    0.1461 C   0  0  0  0  0  0  0  0  0  0  0  0
   -0.0598   -4.1119    0.2231 C   0  0  0  0  0  0  0  0  0  0  0  0
    0.9844    3.7863    0.3528 H   0  0  0  0  0  0  0  0  0  0  0  0
   -0.6649    3.4714    0.7609 H   0  0  0  0  0  0  0  0  0  0  0  0
   -1.5611    1.3501    0.7236 H   0  0  0  0  0  0  0  0  0  0  0  0
   -1.4423    1.2674   -1.0251 H   0  0  0  0  0  0  0  0  0  0  0  0
    0.1095   -5.1578    0.2886 H   0  0  0  0  0  0  0  0  0  0  0  0
  1  9  1  0  0  0  0
  1 10  1  0  0  0  0
  2  4  1  0  0  0  0
  2  1  1  0  0  0  0
  3  2  2  0  0  0  0
  4  5  1  0  0  0  0
  4 11  1  0  0  0  0
  5  6  3  0  0  0  0
  6  7  1  0  0  0  0
  7  8  3  0  0  0  0
  8 13  1  0  0  0  0
 12  4  1  0  0  0  0
M  END
