12
title
N 0.20234907 3.2237136 0.18833536
C 0.4072071 1.9083024 -0.10128728
O 1.4849826 1.4428923 -0.38637367
C -0.8946215 1.0706424 -0.08071826
C -0.6503698 -0.35520282 -0.0058642225
C -0.46877974 -1.5460762 0.061326835
C -0.26593542 -2.8938615 0.14019822
N -0.10091795 -4.0416117 0.20901243
H 1.0016541 3.8362007 0.19478853
H -0.6826721 3.5838308 0.4988574
H -1.5350751 1.3825655 0.7539059
H -1.4509636 1.3023533 -0.9992105
