13
title
N 0.36092097 3.301706 0.16460545
C 0.5629168 1.9791243 -0.09958683
O 1.6487069 1.5050672 -0.34043267
C -0.7436733 1.154093 -0.11102624
C -0.5250414 -0.2770177 -0.039716136
C -0.37202585 -1.4719819 0.023269268
C -0.130853 -2.8900678 0.09145512
O -0.9871849 -3.7234914 0.28131142
H 1.1659691 3.9054136 0.19949408
H -0.529538 3.6706426 0.4481902
H -1.4025927 1.4743694 0.70623326
H -1.2789408 1.3958263 -1.0399122
H 0.9323114 -3.1721022 -0.047138236
