title
 OpenBabel02282109583D

 17 16  0  0  0  0  0  0  0  0999 V2000
   -0.0223    3.1013    0.8290 C   0  0  0  0  0  0  0  0  0  0  0  0
   -0.0283    1.6258    1.1086 C   0  0  0  0  0  0  0  0  0  0  0  0
   -0.0566    1.1648    2.2891 N   0  0  0  0  0  0  0  0  0  0  0  0
    0.0010    0.9322   -0.0669 O   0  0  0  0  0  0  0  0  0  0  0  0
    0.0007   -0.4881   -0.0087 C   0  0  0  0  0  0  0  0  0  0  0  0
    0.0360   -0.9921   -1.4547 C   0  0  0  0  0  0  0  0  0  0  0  0
    0.0387   -2.4472   -1.5202 C   0  0  0  0  0  0  0  0  0  0  0  0
    0.0401   -3.6484   -1.5425 C   0  0  0  0  0  0  0  0  0  0  0  0
    0.8727    3.3756    0.2619 H   0  0  0  0  0  0  0  0  0  0  0  0
   -0.8886    3.3745    0.2184 H   0  0  0  0  0  0  0  0  0  0  0  0
   -0.0458    3.6504    1.7689 H   0  0  0  0  0  0  0  0  0  0  0  0
   -0.0565    0.1465    2.3200 H   0  0  0  0  0  0  0  0  0  0  0  0
    0.8767   -0.8507    0.5436 H   0  0  0  0  0  0  0  0  0  0  0  0
   -0.9005   -0.8520    0.5006 H   0  0  0  0  0  0  0  0  0  0  0  0
   -0.8303   -0.5875   -1.9909 H   0  0  0  0  0  0  0  0  0  0  0  0
    0.9266   -0.5861   -1.9484 H   0  0  0  0  0  0  0  0  0  0  0  0
    0.0413   -4.7098   -1.5778 H   0  0  0  0  0  0  0  0  0  0  0  0
  1  2  1  0  0  0  0
  1 11  1  0  0  0  0
  2  3  2  0  0  0  0
  3 12  1  0  0  0  0
  4  5  1  0  0  0  0
  4  2  1  0  0  0  0
  5 14  1  0  0  0  0
  5 13  1  0  0  0  0
  6  5  1  0  0  0  0
  7  6  1  0  0  0  0
  8  7  3  0  0  0  0
  9  1  1  0  0  0  0
 10  1  1  0  0  0  0
 15  6  1  0  0  0  0
 16  6  1  0  0  0  0
 17  8  1  0  0  0  0
M  END
