17
title
C -0.022306051 3.1013482 0.8289803
C -0.028260292 1.625792 1.1086153
N -0.056606844 1.1648195 2.2891123
O 0.0010487705 0.932207 -0.06689204
C 0.0006698731 -0.48807663 -0.008730903
C 0.03602222 -0.99211186 -1.4547186
C 0.038747698 -2.4471557 -1.5201869
C 0.04012023 -3.648412 -1.5424695
H 0.8727098 3.3756425 0.26191384
H -0.8886131 3.3744836 0.21844678
H -0.045841582 3.6504405 1.7689469
H -0.056519844 0.14653094 2.3200197
H 0.8766912 -0.85072726 0.5436484
H -0.9005312 -0.8520214 0.5006278
H -0.8302962 -0.58745617 -1.9909155
H 0.9266127 -0.5860953 -1.9484427
H 0.04129772 -4.709766 -1.5778122
