title
 OpenBabel02282109583D

 16 15  0  0  0  0  0  0  0  0999 V2000
    0.7761    3.1309    0.0113 C   0  0  0  0  0  0  0  0  0  0  0  0
    1.0940    1.6642   -0.0006 C   0  0  0  0  0  0  0  0  0  0  0  0
    2.2824    1.2284   -0.0150 N   0  0  0  0  0  0  0  0  0  0  0  0
   -0.0698    0.9403    0.0067 O   0  0  0  0  0  0  0  0  0  0  0  0
    0.0252   -0.4736   -0.0030 C   0  0  0  0  0  0  0  0  0  0  0  0
   -1.4157   -0.9961    0.0079 C   0  0  0  0  0  0  0  0  0  0  0  0
   -1.4618   -2.4552   -0.0007 C   0  0  0  0  0  0  0  0  0  0  0  0
   -1.4788   -3.6102   -0.0076 N   0  0  0  0  0  0  0  0  0  0  0  0
    1.7022    3.7034    0.0061 H   0  0  0  0  0  0  0  0  0  0  0  0
    0.1725    3.3944   -0.8627 H   0  0  0  0  0  0  0  0  0  0  0  0
    0.1889    3.3837    0.8996 H   0  0  0  0  0  0  0  0  0  0  0  0
    2.3441    0.2118   -0.0217 H   0  0  0  0  0  0  0  0  0  0  0  0
    0.5525   -0.8233   -0.8995 H   0  0  0  0  0  0  0  0  0  0  0  0
    0.5699   -0.8342    0.8787 H   0  0  0  0  0  0  0  0  0  0  0  0
   -1.9339   -0.6213    0.8965 H   0  0  0  0  0  0  0  0  0  0  0  0
   -1.9512   -0.6104   -0.8658 H   0  0  0  0  0  0  0  0  0  0  0  0
  1 11  1  0  0  0  0
  2  4  1  0  0  0  0
  2  1  1  0  0  0  0
  3  2  2  0  0  0  0
  5  4  1  0  0  0  0
  5  6  1  0  0  0  0
  5 14  1  0  0  0  0
  6 15  1  0  0  0  0
  7  6  1  0  0  0  0
  8  7  3  0  0  0  0
  9  1  1  0  0  0  0
 10  1  1  0  0  0  0
 12  3  1  0  0  0  0
 13  5  1  0  0  0  0
 16  6  1  0  0  0  0
M  END
