18
title
C 0.7768656 3.3498383 0.010638052
C 0.9445128 1.8399984 0.001217044
O 2.035203 1.3178785 -0.0124992365
C -0.34149778 1.0198177 0.008900693
C -0.10624046 -0.48927298 -0.0015135057
C -1.427434 -1.2832278 0.0066378145
C -1.222533 -2.7266695 -0.0031114276
C -1.0288615 -3.9128397 -0.0114257885
H 1.755406 3.8311439 0.0037107335
H 0.19974542 3.6762865 -0.86187315
H 0.21665514 3.6671765 0.8974088
H -0.9300139 1.3220608 0.88757396
H -0.94644165 1.331508 -0.85520315
H 0.4820984 -0.7644567 -0.88153875
H 0.498556 -0.77394027 0.8642241
H -2.0185373 -1.006157 0.8901414
H -2.0350578 -0.9966578 -0.8625129
H -0.8657607 -4.9618125 -0.018700715
