title
 OpenBabel02282109583D

 17 16  0  0  0  0  0  0  0  0999 V2000
    0.0043    3.3479    0.8724 C   0  0  0  0  0  0  0  0  0  0  0  0
   -0.0149    1.8355    0.9982 C   0  0  0  0  0  0  0  0  0  0  0  0
   -0.0560    1.2790    2.0705 O   0  0  0  0  0  0  0  0  0  0  0  0
    0.0206    1.0491   -0.3103 C   0  0  0  0  0  0  0  0  0  0  0  0
   -0.0012   -0.4641   -0.1023 C   0  0  0  0  0  0  0  0  0  0  0  0
    0.0357   -1.2235   -1.4425 C   0  0  0  0  0  0  0  0  0  0  0  0
    0.0156   -2.6746   -1.2680 C   0  0  0  0  0  0  0  0  0  0  0  0
   -0.0008   -3.8201   -1.1176 N   0  0  0  0  0  0  0  0  0  0  0  0
    0.9056    3.6763    0.3427 H   0  0  0  0  0  0  0  0  0  0  0  0
   -0.8530    3.6939    0.2841 H   0  0  0  0  0  0  0  0  0  0  0  0
   -0.0242    3.8017    1.8635 H   0  0  0  0  0  0  0  0  0  0  0  0
   -0.8285    1.3763   -0.9273 H   0  0  0  0  0  0  0  0  0  0  0  0
    0.9150    1.3591   -0.8696 H   0  0  0  0  0  0  0  0  0  0  0  0
    0.8490   -0.7644    0.5160 H   0  0  0  0  0  0  0  0  0  0  0  0
   -0.8963   -0.7472    0.4581 H   0  0  0  0  0  0  0  0  0  0  0  0
   -0.8199   -0.9402   -2.0674 H   0  0  0  0  0  0  0  0  0  0  0  0
    0.9363   -0.9576   -2.0091 H   0  0  0  0  0  0  0  0  0  0  0  0
  1  2  1  0  0  0  0
  1 11  1  0  0  0  0
  2  3  2  0  0  0  0
  4  5  1  0  0  0  0
  4  2  1  0  0  0  0
  5 15  1  0  0  0  0
  5 14  1  0  0  0  0
  6  7  1  0  0  0  0
  6  5  1  0  0  0  0
  7  8  3  0  0  0  0
  9  1  1  0  0  0  0
 10  1  1  0  0  0  0
 12  4  1  0  0  0  0
 13  4  1  0  0  0  0
 16  6  1  0  0  0  0
 17  6  1  0  0  0  0
M  END
