title
 OpenBabel02282109583D

 16 15  0  0  0  0  0  0  0  0999 V2000
    0.6769    3.2614   -0.0410 C   0  0  0  0  0  0  0  0  0  0  0  0
    0.8639    1.7545    0.0191 C   0  0  0  0  0  0  0  0  0  0  0  0
    1.9467    1.2288    0.0353 O   0  0  0  0  0  0  0  0  0  0  0  0
   -0.4357    0.9515    0.0518 C   0  0  0  0  0  0  0  0  0  0  0  0
   -0.1640   -0.4170   -0.0091 O   0  0  0  0  0  0  0  0  0  0  0  0
   -1.3412   -1.2020    0.0424 C   0  0  0  0  0  0  0  0  0  0  0  0
   -1.0000   -2.6158   -0.0272 C   0  0  0  0  0  0  0  0  0  0  0  0
   -0.7512   -3.7888   -0.0830 C   0  0  0  0  0  0  0  0  0  0  0  0
    1.6325    3.7542    0.1403 H   0  0  0  0  0  0  0  0  0  0  0  0
    0.3103    3.5491   -1.0335 H   0  0  0  0  0  0  0  0  0  0  0  0
   -0.0654    3.6039    0.6879 H   0  0  0  0  0  0  0  0  0  0  0  0
   -0.9796    1.2220    0.9767 H   0  0  0  0  0  0  0  0  0  0  0  0
   -1.0777    1.2831   -0.7856 H   0  0  0  0  0  0  0  0  0  0  0  0
   -1.8990   -0.9995    0.9732 H   0  0  0  0  0  0  0  0  0  0  0  0
   -2.0159   -0.9414   -0.7915 H   0  0  0  0  0  0  0  0  0  0  0  0
   -0.5196   -4.8241   -0.1326 H   0  0  0  0  0  0  0  0  0  0  0  0
  1  2  1  0  0  0  0
  1  9  1  0  0  0  0
  1 11  1  0  0  0  0
  2  3  2  0  0  0  0
  2  4  1  0  0  0  0
  4 12  1  0  0  0  0
  5  6  1  0  0  0  0
  5  4  1  0  0  0  0
  6 14  1  0  0  0  0
  7  6  1  0  0  0  0
  8  7  3  0  0  0  0
 10  1  1  0  0  0  0
 13  4  1  0  0  0  0
 15  6  1  0  0  0  0
 16  8  1  0  0  0  0
M  END
