title
 OpenBabel02282109583D

 16 15  0  0  0  0  0  0  0  0999 V2000
    1.0586    3.0889   -0.0050 C   0  0  0  0  0  0  0  0  0  0  0  0
    0.8945    1.5831    0.1083 C   0  0  0  0  0  0  0  0  0  0  0  0
    1.4801    0.9165    0.9434 O   0  0  0  0  0  0  0  0  0  0  0  0
    0.0559    1.0084   -0.8070 N   0  0  0  0  0  0  0  0  0  0  0  0
   -0.1294   -0.4284   -0.8579 C   0  0  0  0  0  0  0  0  0  0  0  0
   -1.0083   -0.9409    0.3084 C   0  0  0  0  0  0  0  0  0  0  0  0
   -1.2476   -2.3774    0.2160 C   0  0  0  0  0  0  0  0  0  0  0  0
   -1.4290   -3.5140    0.1135 N   0  0  0  0  0  0  0  0  0  0  0  0
    1.0288    3.5218    0.9966 H   0  0  0  0  0  0  0  0  0  0  0  0
    2.0443    3.3056   -0.4283 H   0  0  0  0  0  0  0  0  0  0  0  0
    0.2989    3.5660   -0.6297 H   0  0  0  0  0  0  0  0  0  0  0  0
   -0.4239    1.5858   -1.4760 H   0  0  0  0  0  0  0  0  0  0  0  0
   -0.5871   -0.6861   -1.8155 H   0  0  0  0  0  0  0  0  0  0  0  0
    0.8467   -0.9174   -0.8006 H   0  0  0  0  0  0  0  0  0  0  0  0
   -0.4997   -0.7128    1.2494 H   0  0  0  0  0  0  0  0  0  0  0  0
   -1.9710   -0.4184    0.3121 H   0  0  0  0  0  0  0  0  0  0  0  0
  1  2  1  0  0  0  0
  1  9  1  0  0  0  0
  2  3  2  0  0  0  0
  4  2  1  0  0  0  0
  5  4  1  0  0  0  0
  5 14  1  0  0  0  0
  5  6  1  0  0  0  0
  6 16  1  0  0  0  0
  6 15  1  0  0  0  0
  7  6  1  0  0  0  0
  8  7  3  0  0  0  0
 10  1  1  0  0  0  0
 11  1  1  0  0  0  0
 12  4  1  0  0  0  0
 13  5  1  0  0  0  0
M  END
