title
 OpenBabel02282109583D

 17 16  0  0  0  0  0  0  0  0999 V2000
    0.8278    3.1137    0.3450 N   0  0  0  0  0  0  0  0  0  0  0  0
    0.9165    1.8289   -0.1103 C   0  0  0  0  0  0  0  0  0  0  0  0
    1.9477    1.3693   -0.5599 O   0  0  0  0  0  0  0  0  0  0  0  0
   -0.3822    1.0264   -0.0227 C   0  0  0  0  0  0  0  0  0  0  0  0
   -0.1242   -0.4777    0.0798 C   0  0  0  0  0  0  0  0  0  0  0  0
   -1.4251   -1.2987   -0.0090 C   0  0  0  0  0  0  0  0  0  0  0  0
   -1.1985   -2.7344    0.1045 C   0  0  0  0  0  0  0  0  0  0  0  0
   -0.9874   -3.9136    0.2021 C   0  0  0  0  0  0  0  0  0  0  0  0
    1.6266    3.7155    0.2286 H   0  0  0  0  0  0  0  0  0  0  0  0
   -0.0383    3.5154    0.6576 H   0  0  0  0  0  0  0  0  0  0  0  0
   -0.9919    1.3798    0.8182 H   0  0  0  0  0  0  0  0  0  0  0  0
   -0.9585    1.2454   -0.9330 H   0  0  0  0  0  0  0  0  0  0  0  0
    0.5626   -0.7738   -0.7166 H   0  0  0  0  0  0  0  0  0  0  0  0
    0.3836   -0.7046    1.0229 H   0  0  0  0  0  0  0  0  0  0  0  0
   -2.1208   -0.9785    0.7786 H   0  0  0  0  0  0  0  0  0  0  0  0
   -1.9292   -1.0836   -0.9610 H   0  0  0  0  0  0  0  0  0  0  0  0
   -0.8083   -4.9566    0.2857 H   0  0  0  0  0  0  0  0  0  0  0  0
  1 10  1  0  0  0  0
  2  4  1  0  0  0  0
  2  1  1  0  0  0  0
  3  2  2  0  0  0  0
  4  5  1  0  0  0  0
  4 11  1  0  0  0  0
  5 14  1  0  0  0  0
  6  5  1  0  0  0  0
  6  7  1  0  0  0  0
  6 15  1  0  0  0  0
  7  8  3  0  0  0  0
  8 17  1  0  0  0  0
  9  1  1  0  0  0  0
 12  4  1  0  0  0  0
 13  5  1  0  0  0  0
 16  6  1  0  0  0  0
M  END
