17
title
N 0.82775027 3.1137202 0.34504518
C 0.9164894 1.8289148 -0.110318184
O 1.9476954 1.369291 -0.5598925
C -0.38223356 1.0263631 -0.022687959
C -0.124186754 -0.47766393 0.07975247
C -1.425112 -1.2987233 -0.009020569
C -1.198528 -2.734424 0.10446882
C -0.9874241 -3.9136128 0.20210378
H 1.626647 3.7154546 0.22855093
H -0.038256586 3.5153637 0.6576493
H -0.9919322 1.3798144 0.81816626
H -0.95848304 1.2453886 -0.93299615
H 0.56262314 -0.7737872 -0.7165841
H 0.3835899 -0.70457166 1.0229003
H -2.1208317 -0.97848934 0.7785702
H -1.9292133 -1.0835575 -0.9610256
H -0.8082742 -4.9566326 0.28572598
