16
title
N 0.8408328 3.1470902 0.25385743
C 0.9365785 1.8410181 -0.12765232
O 1.9747643 1.3501842 -0.52415067
C -0.36965525 1.0482421 -0.036009252
C -0.11104054 -0.45377514 0.08822868
C -1.4158293 -1.267035 -0.004834899
C -1.1939753 -2.704993 0.13420723
N -1.0077302 -3.8395817 0.24866115
H 1.6513869 3.7352285 0.14925873
H -0.02455712 3.5630121 0.5488629
H -0.9798615 1.4143077 0.79885155
H -0.9418026 1.2572882 -0.95090044
H 0.5829129 -0.76035357 -0.6974897
H 0.38579053 -0.66953325 1.0391843
H -2.1227486 -0.95311546 0.77285063
H -1.9100167 -1.0853002 -0.9669256
