title
 OpenBabel02282109583D

 16 15  0  0  0  0  0  0  0  0999 V2000
    1.0983    2.9230    0.0431 N   0  0  0  0  0  0  0  0  0  0  0  0
    0.8756    1.5638   -0.1472 C   0  0  0  0  0  0  0  0  0  0  0  0
    1.3879    0.9305   -1.0524 O   0  0  0  0  0  0  0  0  0  0  0  0
    0.0470    0.9898    0.7917 N   0  0  0  0  0  0  0  0  0  0  0  0
   -0.0992   -0.4582    0.8323 C   0  0  0  0  0  0  0  0  0  0  0  0
   -1.0820   -0.9696   -0.2434 C   0  0  0  0  0  0  0  0  0  0  0  0
   -1.2794   -2.4101   -0.1621 C   0  0  0  0  0  0  0  0  0  0  0  0
   -1.4224   -3.5995   -0.0616 C   0  0  0  0  0  0  0  0  0  0  0  0
    1.5110    3.3595   -0.7675 H   0  0  0  0  0  0  0  0  0  0  0  0
    0.3570    3.4642    0.4629 H   0  0  0  0  0  0  0  0  0  0  0  0
   -0.1064    1.4916    1.6507 H   0  0  0  0  0  0  0  0  0  0  0  0
    0.8716   -0.9400    0.6806 H   0  0  0  0  0  0  0  0  0  0  0  0
   -0.4653   -0.7325    1.8246 H   0  0  0  0  0  0  0  0  0  0  0  0
   -2.0411   -0.4495   -0.1297 H   0  0  0  0  0  0  0  0  0  0  0  0
   -0.6806   -0.6948   -1.2242 H   0  0  0  0  0  0  0  0  0  0  0  0
   -1.5546   -4.6505    0.0082 H   0  0  0  0  0  0  0  0  0  0  0  0
  1 10  1  0  0  0  0
  2  1  1  0  0  0  0
  2  4  1  0  0  0  0
  3  2  2  0  0  0  0
  4  5  1  0  0  0  0
  4 11  1  0  0  0  0
  5 13  1  0  0  0  0
  6  7  1  0  0  0  0
  6 14  1  0  0  0  0
  6  5  1  0  0  0  0
  7  8  3  0  0  0  0
  8 16  1  0  0  0  0
  9  1  1  0  0  0  0
 12  5  1  0  0  0  0
 15  6  1  0  0  0  0
M  END
