15
title
N 0.78539354 2.9659348 -0.07524756
C 1.028779 1.6227995 -0.016787954
O 2.120197 1.1057425 -0.014461584
O -0.14724432 0.942875 0.0036337783
C -0.020092001 -0.4843542 0.011686701
C -1.4433792 -1.0467697 0.014863191
C -1.4472919 -2.5035307 0.026544843
C -1.4217675 -3.7046463 0.036293317
H 1.5688848 3.5673087 0.11196703
H -0.13542412 3.304192 0.146103
H 0.5355286 -0.8145096 -0.8700983
H 0.5354929 -0.8052167 0.897148
H -1.9786842 -0.65968364 0.8902156
H -1.9768217 -0.6733267 -0.86742646
H -1.4109967 -4.7663617 0.044498723
