title
 OpenBabel02282109583D

 15 14  0  0  0  0  0  0  0  0999 V2000
    0.7854    2.9659   -0.0752 N   0  0  0  0  0  0  0  0  0  0  0  0
    1.0288    1.6228   -0.0168 C   0  0  0  0  0  0  0  0  0  0  0  0
    2.1202    1.1057   -0.0145 O   0  0  0  0  0  0  0  0  0  0  0  0
   -0.1472    0.9429    0.0036 O   0  0  0  0  0  0  0  0  0  0  0  0
   -0.0201   -0.4844    0.0117 C   0  0  0  0  0  0  0  0  0  0  0  0
   -1.4434   -1.0468    0.0149 C   0  0  0  0  0  0  0  0  0  0  0  0
   -1.4473   -2.5035    0.0265 C   0  0  0  0  0  0  0  0  0  0  0  0
   -1.4218   -3.7046    0.0363 C   0  0  0  0  0  0  0  0  0  0  0  0
    1.5689    3.5673    0.1120 H   0  0  0  0  0  0  0  0  0  0  0  0
   -0.1354    3.3042    0.1461 H   0  0  0  0  0  0  0  0  0  0  0  0
    0.5355   -0.8145   -0.8701 H   0  0  0  0  0  0  0  0  0  0  0  0
    0.5355   -0.8052    0.8971 H   0  0  0  0  0  0  0  0  0  0  0  0
   -1.9787   -0.6597    0.8902 H   0  0  0  0  0  0  0  0  0  0  0  0
   -1.9768   -0.6733   -0.8674 H   0  0  0  0  0  0  0  0  0  0  0  0
   -1.4110   -4.7664    0.0445 H   0  0  0  0  0  0  0  0  0  0  0  0
  1  2  1  0  0  0  0
  1  9  1  0  0  0  0
  1 10  1  0  0  0  0
  2  3  2  0  0  0  0
  2  4  1  0  0  0  0
  4  5  1  0  0  0  0
  5  6  1  0  0  0  0
  5 12  1  0  0  0  0
  6  7  1  0  0  0  0
  6 13  1  0  0  0  0
  7  8  3  0  0  0  0
  8 15  1  0  0  0  0
 11  5  1  0  0  0  0
 14  6  1  0  0  0  0
M  END
