title
 OpenBabel02282109583D

 17 16  0  0  0  0  0  0  0  0999 V2000
    0.8869    3.1839    0.0893 C   0  0  0  0  0  0  0  0  0  0  0  0
    1.1883    1.7209   -0.0634 C   0  0  0  0  0  0  0  0  0  0  0  0
    2.3564    1.2949   -0.3087 N   0  0  0  0  0  0  0  0  0  0  0  0
    0.0421    0.9946    0.1024 O   0  0  0  0  0  0  0  0  0  0  0  0
    0.1240   -0.4195   -0.0122 C   0  0  0  0  0  0  0  0  0  0  0  0
   -1.2814   -0.9766    0.2051 C   0  0  0  0  0  0  0  0  0  0  0  0
   -1.2789   -2.4855    0.3291 C   0  0  0  0  0  0  0  0  0  0  0  0
   -1.9554   -3.2286   -0.3313 O   0  0  0  0  0  0  0  0  0  0  0  0
    1.8018    3.7598   -0.0398 H   0  0  0  0  0  0  0  0  0  0  0  0
    0.1447    3.4960   -0.6520 H   0  0  0  0  0  0  0  0  0  0  0  0
    0.4605    3.3814    1.0776 H   0  0  0  0  0  0  0  0  0  0  0  0
    2.4066    0.2804   -0.3867 H   0  0  0  0  0  0  0  0  0  0  0  0
    0.5031   -0.6981   -1.0045 H   0  0  0  0  0  0  0  0  0  0  0  0
    0.8201   -0.8188    0.7397 H   0  0  0  0  0  0  0  0  0  0  0  0
   -1.6650   -0.5649    1.1489 H   0  0  0  0  0  0  0  0  0  0  0  0
   -1.9560   -0.6808   -0.6012 H   0  0  0  0  0  0  0  0  0  0  0  0
   -0.5886   -2.8816    1.1110 H   0  0  0  0  0  0  0  0  0  0  0  0
  1 11  1  0  0  0  0
  2  1  1  0  0  0  0
  2  4  1  0  0  0  0
  3  2  2  0  0  0  0
  5  4  1  0  0  0  0
  5  6  1  0  0  0  0
  5 14  1  0  0  0  0
  6  7  1  0  0  0  0
  6 15  1  0  0  0  0
  7 17  1  0  0  0  0
  8  7  2  0  0  0  0
  9  1  1  0  0  0  0
 10  1  1  0  0  0  0
 12  3  1  0  0  0  0
 13  5  1  0  0  0  0
 16  6  1  0  0  0  0
M  END
