17
title
C 0.7911513 2.9698057 0.34153274
C 0.97688913 1.5992786 -0.28232324
O 2.0003042 1.2837859 -0.8476366
C -0.19605993 0.6378085 -0.15935355
C 0.14880802 -0.7743873 -0.641543
N -1.000403 -1.6712786 -0.62935925
C -1.5386595 -2.1429927 0.52252555
O -1.1576222 -1.8416957 1.635911
H 1.6388068 3.6098397 0.094023466
H -0.14120947 3.4321563 -0.00021473847
H 0.71496916 2.8715973 1.4307052
H -0.5379604 0.60020834 0.880637
H -1.0359634 1.0491277 -0.73689777
H 0.54803455 -0.7387187 -1.6563694
H 0.9305252 -1.1914371 -0.00022262118
H -1.3832892 -1.9916142 -1.5034493
H -2.377737 -2.8432858 0.33720785
