title
 OpenBabel02282109583D

 16 15  0  0  0  0  0  0  0  0999 V2000
    0.8963    3.2769    0.2537 C   0  0  0  0  0  0  0  0  0  0  0  0
    1.1343    1.7961    0.0351 C   0  0  0  0  0  0  0  0  0  0  0  0
    2.2461    1.3242   -0.0480 O   0  0  0  0  0  0  0  0  0  0  0  0
   -0.1050    0.9170   -0.0761 C   0  0  0  0  0  0  0  0  0  0  0  0
    0.2444   -0.5365   -0.3690 C   0  0  0  0  0  0  0  0  0  0  0  0
   -0.9613   -1.2981   -0.5075 O   0  0  0  0  0  0  0  0  0  0  0  0
   -1.1871   -2.3000    0.3626 C   0  0  0  0  0  0  0  0  0  0  0  0
   -2.1701   -2.9762    0.3295 O   0  0  0  0  0  0  0  0  0  0  0  0
    1.8505    3.7926    0.3661 H   0  0  0  0  0  0  0  0  0  0  0  0
    0.3482    3.6999   -0.5959 H   0  0  0  0  0  0  0  0  0  0  0  0
    0.2774    3.4410    1.1427 H   0  0  0  0  0  0  0  0  0  0  0  0
   -0.6777    0.9929    0.8579 H   0  0  0  0  0  0  0  0  0  0  0  0
   -0.7657    1.3139   -0.8567 H   0  0  0  0  0  0  0  0  0  0  0  0
    0.7979   -0.6209   -1.3071 H   0  0  0  0  0  0  0  0  0  0  0  0
    0.8746   -0.9520    0.4248 H   0  0  0  0  0  0  0  0  0  0  0  0
   -0.3664   -2.4212    1.0974 H   0  0  0  0  0  0  0  0  0  0  0  0
  1  9  1  0  0  0  0
  1 11  1  0  0  0  0
  2  1  1  0  0  0  0
  3  2  2  0  0  0  0
  4  2  1  0  0  0  0
  4 12  1  0  0  0  0
  5  4  1  0  0  0  0
  5 15  1  0  0  0  0
  6  5  1  0  0  0  0
  6  7  1  0  0  0  0
  7 16  1  0  0  0  0
  8  7  2  0  0  0  0
 10  1  1  0  0  0  0
 13  4  1  0  0  0  0
 14  5  1  0  0  0  0
M  END
