title
 OpenBabel02282109583D

 17 16  0  0  0  0  0  0  0  0999 V2000
    0.7157    3.2270   -0.3212 C   0  0  0  0  0  0  0  0  0  0  0  0
    0.8408    1.7245   -0.1715 C   0  0  0  0  0  0  0  0  0  0  0  0
    1.5427    1.0514   -0.8913 O   0  0  0  0  0  0  0  0  0  0  0  0
    0.0483    1.0755    0.9731 C   0  0  0  0  0  0  0  0  0  0  0  0
    0.0369   -0.3738    0.9624 N   0  0  0  0  0  0  0  0  0  0  0  0
   -0.8497   -0.9613   -0.0362 C   0  0  0  0  0  0  0  0  0  0  0  0
   -1.0263   -2.4500    0.2173 C   0  0  0  0  0  0  0  0  0  0  0  0
   -1.3235   -3.2517   -0.6283 O   0  0  0  0  0  0  0  0  0  0  0  0
    1.4622    3.5975   -1.0247 H   0  0  0  0  0  0  0  0  0  0  0  0
   -0.2849    3.4749   -0.6954 H   0  0  0  0  0  0  0  0  0  0  0  0
    0.8265    3.7296    0.6456 H   0  0  0  0  0  0  0  0  0  0  0  0
    0.4978    1.4366    1.9111 H   0  0  0  0  0  0  0  0  0  0  0  0
   -0.9802    1.4578    0.9742 H   0  0  0  0  0  0  0  0  0  0  0  0
    0.9860   -0.6846    0.7714 H   0  0  0  0  0  0  0  0  0  0  0  0
   -1.8481   -0.5137    0.0843 H   0  0  0  0  0  0  0  0  0  0  0  0
   -0.5509   -0.8095   -1.0832 H   0  0  0  0  0  0  0  0  0  0  0  0
   -0.8699   -2.7391    1.2815 H   0  0  0  0  0  0  0  0  0  0  0  0
  1  2  1  0  0  0  0
  1 11  1  0  0  0  0
  2  4  1  0  0  0  0
  3  2  2  0  0  0  0
  4 13  1  0  0  0  0
  4 12  1  0  0  0  0
  5  4  1  0  0  0  0
  6 15  1  0  0  0  0
  6  7  1  0  0  0  0
  6  5  1  0  0  0  0
  7 17  1  0  0  0  0
  8  7  2  0  0  0  0
  9  1  1  0  0  0  0
 10  1  1  0  0  0  0
 14  5  1  0  0  0  0
 16  6  1  0  0  0  0
M  END
