title
 OpenBabel02282109583D

 16 15  0  0  0  0  0  0  0  0999 V2000
    0.8495    3.3424   -0.2030 C   0  0  0  0  0  0  0  0  0  0  0  0
    1.0107    1.8355   -0.1083 C   0  0  0  0  0  0  0  0  0  0  0  0
    2.0814    1.2856   -0.1360 O   0  0  0  0  0  0  0  0  0  0  0  0
   -0.2986    1.0568    0.0202 C   0  0  0  0  0  0  0  0  0  0  0  0
   -0.0466   -0.3169   -0.0014 O   0  0  0  0  0  0  0  0  0  0  0  0
   -1.2004   -1.1060    0.1367 C   0  0  0  0  0  0  0  0  0  0  0  0
   -0.7774   -2.5659    0.1039 C   0  0  0  0  0  0  0  0  0  0  0  0
   -1.5526   -3.4806    0.1838 O   0  0  0  0  0  0  0  0  0  0  0  0
    1.8255    3.8197   -0.1110 H   0  0  0  0  0  0  0  0  0  0  0  0
    0.4114    3.6085   -1.1722 H   0  0  0  0  0  0  0  0  0  0  0  0
    0.1732    3.7222    0.5703 H   0  0  0  0  0  0  0  0  0  0  0  0
   -0.7926    1.3665    0.9597 H   0  0  0  0  0  0  0  0  0  0  0  0
   -0.9770    1.3627   -0.7968 H   0  0  0  0  0  0  0  0  0  0  0  0
   -1.7253   -0.9110    1.0876 H   0  0  0  0  0  0  0  0  0  0  0  0
   -1.9270   -0.9282   -0.6742 H   0  0  0  0  0  0  0  0  0  0  0  0
    0.3199   -2.7088    0.0001 H   0  0  0  0  0  0  0  0  0  0  0  0
  1  9  1  0  0  0  0
  1  2  1  0  0  0  0
  1 11  1  0  0  0  0
  2  4  1  0  0  0  0
  3  2  2  0  0  0  0
  4 12  1  0  0  0  0
  5  4  1  0  0  0  0
  5  6  1  0  0  0  0
  6 14  1  0  0  0  0
  7  6  1  0  0  0  0
  7  8  2  0  0  0  0
 10  1  1  0  0  0  0
 13  4  1  0  0  0  0
 15  6  1  0  0  0  0
 16  7  1  0  0  0  0
M  END
