16
title
C 0.8494584 3.3424246 -0.20296264
C 1.0106785 1.8355197 -0.108291805
O 2.0814097 1.2855868 -0.13596454
C -0.2985921 1.0568452 0.020246357
O -0.046622757 -0.3169496 -0.0014382829
C -1.2004431 -1.1059973 0.13673376
C -0.777408 -2.565923 0.10392245
O -1.5526422 -3.4806097 0.18381262
H 1.8254943 3.8196723 -0.11103412
H 0.41142768 3.608543 -1.1722325
H 0.17316222 3.7222445 0.57031614
H -0.7926413 1.3665358 0.95968163
H -0.9770242 1.36275 -0.79681563
H -1.7253464 -0.9109669 1.0875976
H -1.9269711 -0.9282124 -0.6742426
H 0.319857 -2.7087958 8.869866e-05
