title
 OpenBabel02282109583D

 16 15  0  0  0  0  0  0  0  0999 V2000
    0.8554    3.1999   -0.1826 C   0  0  0  0  0  0  0  0  0  0  0  0
    1.1050    1.7154   -0.2852 C   0  0  0  0  0  0  0  0  0  0  0  0
    2.1501    1.1909   -0.5713 O   0  0  0  0  0  0  0  0  0  0  0  0
   -0.0244    1.0212   -0.0080 O   0  0  0  0  0  0  0  0  0  0  0  0
    0.1004   -0.4079   -0.0666 C   0  0  0  0  0  0  0  0  0  0  0  0
   -1.2682   -0.9952    0.2621 C   0  0  0  0  0  0  0  0  0  0  0  0
   -1.3117   -2.4899    0.0227 C   0  0  0  0  0  0  0  0  0  0  0  0
   -1.6798   -3.3026    0.8291 O   0  0  0  0  0  0  0  0  0  0  0  0
    0.5209    3.4547    0.8270 H   0  0  0  0  0  0  0  0  0  0  0  0
    1.7726    3.7380   -0.4177 H   0  0  0  0  0  0  0  0  0  0  0  0
    0.0601    3.4960   -0.8725 H   0  0  0  0  0  0  0  0  0  0  0  0
    0.4375   -0.7016   -1.0668 H   0  0  0  0  0  0  0  0  0  0  0  0
    0.8645   -0.7357    0.6450 H   0  0  0  0  0  0  0  0  0  0  0  0
   -1.5591   -0.7878    1.2944 H   0  0  0  0  0  0  0  0  0  0  0  0
   -2.0092   -0.5333   -0.4057 H   0  0  0  0  0  0  0  0  0  0  0  0
   -0.9786   -2.8024   -0.9949 H   0  0  0  0  0  0  0  0  0  0  0  0
  1  9  1  0  0  0  0
  2  1  1  0  0  0  0
  2  4  1  0  0  0  0
  3  2  2  0  0  0  0
  5  4  1  0  0  0  0
  5  6  1  0  0  0  0
  5 13  1  0  0  0  0
  6 14  1  0  0  0  0
  7  6  1  0  0  0  0
  7  8  2  0  0  0  0
 10  1  1  0  0  0  0
 11  1  1  0  0  0  0
 12  5  1  0  0  0  0
 15  6  1  0  0  0  0
 16  7  1  0  0  0  0
M  END
