title
 OpenBabel02282109583D

 17 16  0  0  0  0  0  0  0  0999 V2000
    0.9309    3.2092    0.0455 N   0  0  0  0  0  0  0  0  0  0  0  0
    1.0199    1.8953   -0.3110 C   0  0  0  0  0  0  0  0  0  0  0  0
    2.0503    1.4013   -0.7258 O   0  0  0  0  0  0  0  0  0  0  0  0
   -0.2800    1.1010   -0.1717 C   0  0  0  0  0  0  0  0  0  0  0  0
   -0.0159   -0.3899    0.0482 C   0  0  0  0  0  0  0  0  0  0  0  0
   -1.2998   -1.2332    0.0044 C   0  0  0  0  0  0  0  0  0  0  0  0
   -1.0045   -2.7106    0.1355 C   0  0  0  0  0  0  0  0  0  0  0  0
   -1.5015   -3.4459    0.9487 O   0  0  0  0  0  0  0  0  0  0  0  0
    1.7392    3.7956   -0.0829 H   0  0  0  0  0  0  0  0  0  0  0  0
    0.0764    3.6248    0.3710 H   0  0  0  0  0  0  0  0  0  0  0  0
   -0.8987    1.5137    0.6342 H   0  0  0  0  0  0  0  0  0  0  0  0
   -0.8488    1.2453   -1.1009 H   0  0  0  0  0  0  0  0  0  0  0  0
    0.6926   -0.7281   -0.7145 H   0  0  0  0  0  0  0  0  0  0  0  0
    0.4851   -0.5318    1.0128 H   0  0  0  0  0  0  0  0  0  0  0  0
   -2.0075   -0.9501    0.7897 H   0  0  0  0  0  0  0  0  0  0  0  0
   -1.7954   -1.0843   -0.9670 H   0  0  0  0  0  0  0  0  0  0  0  0
   -0.2589   -3.0923   -0.6017 H   0  0  0  0  0  0  0  0  0  0  0  0
  1 10  1  0  0  0  0
  2  4  1  0  0  0  0
  2  1  1  0  0  0  0
  3  2  2  0  0  0  0
  4  5  1  0  0  0  0
  4 11  1  0  0  0  0
  5 14  1  0  0  0  0
  6  5  1  0  0  0  0
  6  7  1  0  0  0  0
  6 15  1  0  0  0  0
  7  8  2  0  0  0  0
  9  1  1  0  0  0  0
 12  4  1  0  0  0  0
 13  5  1  0  0  0  0
 16  6  1  0  0  0  0
 17  7  1  0  0  0  0
M  END
