17
title
N 0.9308514 3.2092342 0.045514714
C 1.019887 1.8953414 -0.31100878
O 2.0502563 1.4012532 -0.7258347
C -0.2799886 1.101008 -0.17166817
C -0.015873326 -0.3899044 0.04816955
C -1.2997504 -1.2332252 0.0044289115
C -1.0045257 -2.7105572 0.13548282
O -1.5014521 -3.4458902 0.9486816
H 1.7391974 3.795569 -0.082893975
H 0.076448485 3.624847 0.37102386
H -0.8986824 1.5137371 0.6341735
H -0.848751 1.2453245 -1.1008755
H 0.6926106 -0.7280726 -0.7144787
H 0.4851141 -0.5318069 1.0128025
H -2.0075092 -0.9501471 0.7897435
H -1.7953726 -1.0843204 -0.9669899
H -0.25888866 -3.092312 -0.6016947
