16
title
N 0.9228032 2.6701474 -0.5479785
C 0.9021736 1.6333946 0.33742183
O 1.7113249 1.5279994 1.2407639
C -0.23759829 0.63718325 0.14037995
C 0.19760145 -0.7741053 0.5554093
N -0.9056189 -1.724118 0.5842591
C -1.4792336 -2.202328 -0.54752636
O -1.1635514 -1.873137 -1.6735834
H 1.6742213 3.3374925 -0.48075306
H 0.33030966 2.6898868 -1.359108
H -1.0738798 0.9624684 0.77199054
H -0.5966966 0.6232108 -0.89193034
H 0.9536815 -1.1407785 -0.14576767
H 0.65401465 -0.73164916 1.5449756
H -1.2426914 -2.0588179 1.4718785
H -2.2793748 -2.9389014 -0.33297557
