title
 OpenBabel02282109583D

 16 15  0  0  0  0  0  0  0  0999 V2000
    0.9228    2.6701   -0.5480 N   0  0  0  0  0  0  0  0  0  0  0  0
    0.9022    1.6334    0.3374 C   0  0  0  0  0  0  0  0  0  0  0  0
    1.7113    1.5280    1.2408 O   0  0  0  0  0  0  0  0  0  0  0  0
   -0.2376    0.6372    0.1404 C   0  0  0  0  0  0  0  0  0  0  0  0
    0.1976   -0.7741    0.5554 C   0  0  0  0  0  0  0  0  0  0  0  0
   -0.9056   -1.7241    0.5843 N   0  0  0  0  0  0  0  0  0  0  0  0
   -1.4792   -2.2023   -0.5475 C   0  0  0  0  0  0  0  0  0  0  0  0
   -1.1636   -1.8731   -1.6736 O   0  0  0  0  0  0  0  0  0  0  0  0
    1.6742    3.3375   -0.4808 H   0  0  0  0  0  0  0  0  0  0  0  0
    0.3303    2.6899   -1.3591 H   0  0  0  0  0  0  0  0  0  0  0  0
   -1.0739    0.9625    0.7720 H   0  0  0  0  0  0  0  0  0  0  0  0
   -0.5967    0.6232   -0.8919 H   0  0  0  0  0  0  0  0  0  0  0  0
    0.9537   -1.1408   -0.1458 H   0  0  0  0  0  0  0  0  0  0  0  0
    0.6540   -0.7316    1.5450 H   0  0  0  0  0  0  0  0  0  0  0  0
   -1.2427   -2.0588    1.4719 H   0  0  0  0  0  0  0  0  0  0  0  0
   -2.2794   -2.9389   -0.3330 H   0  0  0  0  0  0  0  0  0  0  0  0
  1  9  1  0  0  0  0
  1  2  1  0  0  0  0
  2  3  2  0  0  0  0
  4  2  1  0  0  0  0
  4  5  1  0  0  0  0
  4 11  1  0  0  0  0
  5  6  1  0  0  0  0
  5 14  1  0  0  0  0
  6 15  1  0  0  0  0
  7 16  1  0  0  0  0
  7  6  1  0  0  0  0
  8  7  2  0  0  0  0
 10  1  1  0  0  0  0
 12  4  1  0  0  0  0
 13  5  1  0  0  0  0
M  END
