title
 OpenBabel02282109583D

 16 15  0  0  0  0  0  0  0  0999 V2000
    0.9891    3.1438    0.0080 N   0  0  0  0  0  0  0  0  0  0  0  0
    1.1481    1.7902   -0.0012 C   0  0  0  0  0  0  0  0  0  0  0  0
    2.2428    1.2585   -0.0148 O   0  0  0  0  0  0  0  0  0  0  0  0
   -0.1529    0.9940    0.0065 C   0  0  0  0  0  0  0  0  0  0  0  0
    0.1185   -0.5014   -0.0044 C   0  0  0  0  0  0  0  0  0  0  0  0
   -1.1528   -1.1565    0.0040 O   0  0  0  0  0  0  0  0  0  0  0  0
   -1.1236   -2.5020   -0.0019 C   0  0  0  0  0  0  0  0  0  0  0  0
   -2.2026   -3.1576    0.0044 N   0  0  0  0  0  0  0  0  0  0  0  0
    1.8125    3.7226    0.0033 H   0  0  0  0  0  0  0  0  0  0  0  0
    0.0854    3.5825    0.0191 H   0  0  0  0  0  0  0  0  0  0  0  0
   -0.7450    1.2567    0.8911 H   0  0  0  0  0  0  0  0  0  0  0  0
   -0.7614    1.2665   -0.8638 H   0  0  0  0  0  0  0  0  0  0  0  0
    0.6905   -0.7800   -0.8963 H   0  0  0  0  0  0  0  0  0  0  0  0
    0.7072   -0.7898    0.8735 H   0  0  0  0  0  0  0  0  0  0  0  0
   -0.1071   -2.9200   -0.0125 H   0  0  0  0  0  0  0  0  0  0  0  0
   -1.9998   -4.1551   -0.0017 H   0  0  0  0  0  0  0  0  0  0  0  0
  1 10  1  0  0  0  0
  2  4  1  0  0  0  0
  2  1  1  0  0  0  0
  3  2  2  0  0  0  0
  4 11  1  0  0  0  0
  5  6  1  0  0  0  0
  5  4  1  0  0  0  0
  5 14  1  0  0  0  0
  7  6  1  0  0  0  0
  7  8  2  0  0  0  0
  9  1  1  0  0  0  0
 12  4  1  0  0  0  0
 13  5  1  0  0  0  0
 15  7  1  0  0  0  0
 16  8  1  0  0  0  0
M  END
