title
 OpenBabel02282109583D

 15 14  0  0  0  0  0  0  0  0999 V2000
    0.9116    3.1216    0.1312 N   0  0  0  0  0  0  0  0  0  0  0  0
    1.1159    1.7751    0.1175 C   0  0  0  0  0  0  0  0  0  0  0  0
    2.2193    1.2759    0.2357 O   0  0  0  0  0  0  0  0  0  0  0  0
   -0.1475    0.9327   -0.0458 C   0  0  0  0  0  0  0  0  0  0  0  0
    0.2046   -0.4966   -0.4419 C   0  0  0  0  0  0  0  0  0  0  0  0
   -0.9965   -1.2696   -0.5535 O   0  0  0  0  0  0  0  0  0  0  0  0
   -1.1549   -2.3211    0.2717 C   0  0  0  0  0  0  0  0  0  0  0  0
   -2.1284   -3.0119    0.2590 O   0  0  0  0  0  0  0  0  0  0  0  0
    1.7033    3.7241    0.2863 H   0  0  0  0  0  0  0  0  0  0  0  0
   -0.0025    3.5311    0.0536 H   0  0  0  0  0  0  0  0  0  0  0  0
   -0.6916    0.9266    0.9070 H   0  0  0  0  0  0  0  0  0  0  0  0
   -0.8205    1.3765   -0.7872 H   0  0  0  0  0  0  0  0  0  0  0  0
    0.7017   -0.5205   -1.4149 H   0  0  0  0  0  0  0  0  0  0  0  0
    0.8873   -0.9359    0.2918 H   0  0  0  0  0  0  0  0  0  0  0  0
   -0.2900   -2.4670    0.9487 H   0  0  0  0  0  0  0  0  0  0  0  0
  1  9  1  0  0  0  0
  2  1  1  0  0  0  0
  2  3  2  0  0  0  0
  4  2  1  0  0  0  0
  4 11  1  0  0  0  0
  5  4  1  0  0  0  0
  5 14  1  0  0  0  0
  6  5  1  0  0  0  0
  6  7  1  0  0  0  0
  7 15  1  0  0  0  0
  8  7  2  0  0  0  0
 10  1  1  0  0  0  0
 12  4  1  0  0  0  0
 13  5  1  0  0  0  0
M  END
