15
title
N 0.9116226 3.1216464 0.13119987
C 1.1159252 1.7751468 0.1174837
O 2.2193282 1.27592 0.23565319
C -0.14745237 0.93271375 -0.045831632
C 0.20464276 -0.4965608 -0.44187543
O -0.9964764 -1.2695673 -0.553545
C -1.1548641 -2.3211398 0.2716932
O -2.1284027 -3.0118928 0.25901112
H 1.7033144 3.724133 0.2862699
H -0.0025205805 3.531068 0.053647444
H -0.69164324 0.9265918 0.90702224
H -0.8204887 1.3765306 -0.78715867
H 0.7017432 -0.5205107 -1.414884
H 0.88725525 -0.93590665 0.29184127
H -0.2899671 -2.4669585 0.9487395
