15
title
N 0.9683562 2.0129013 -1.2571967
C 1.0865965 1.6965348 0.054672316
O 1.8337483 2.2452905 0.8392195
C 0.18066435 0.5570188 0.5243637
O -0.58310455 0.028871708 -0.5471246
C -1.4704219 -0.99677676 -0.16662873
C -0.76664954 -2.336795 0.027777642
O -1.2579733 -3.274526 0.5953699
H 1.5297561 2.7599883 -1.629647
H 0.3216138 1.5148532 -1.8439728
H 0.8226922 -0.20699018 0.98525375
H -0.47401994 0.95398617 1.3139565
H -2.0395339 -0.7461528 0.7400385
H -2.1888378 -1.1187239 -0.9872554
H 0.24449424 -2.380954 -0.43953964
