title
 OpenBabel02282109583D

 15 14  0  0  0  0  0  0  0  0999 V2000
    0.8765    3.0275   -0.3351 N   0  0  0  0  0  0  0  0  0  0  0  0
    1.1299    1.6939   -0.1937 C   0  0  0  0  0  0  0  0  0  0  0  0
    2.2230    1.1802   -0.1897 O   0  0  0  0  0  0  0  0  0  0  0  0
   -0.0423    1.0108   -0.0926 O   0  0  0  0  0  0  0  0  0  0  0  0
    0.1018   -0.4092    0.0255 C   0  0  0  0  0  0  0  0  0  0  0  0
   -1.3035   -1.0018    0.0588 C   0  0  0  0  0  0  0  0  0  0  0  0
   -1.2799   -2.5132   -0.0261 C   0  0  0  0  0  0  0  0  0  0  0  0
   -1.8431   -3.2514    0.7385 O   0  0  0  0  0  0  0  0  0  0  0  0
    1.6614    3.6450   -0.2210 H   0  0  0  0  0  0  0  0  0  0  0  0
   -0.0399    3.3774   -0.1136 H   0  0  0  0  0  0  0  0  0  0  0  0
    0.6798   -0.7897   -0.8235 H   0  0  0  0  0  0  0  0  0  0  0  0
    0.6611   -0.6470    0.9359 H   0  0  0  0  0  0  0  0  0  0  0  0
   -1.8483   -0.7009    0.9566 H   0  0  0  0  0  0  0  0  0  0  0  0
   -1.8516   -0.6317   -0.8193 H   0  0  0  0  0  0  0  0  0  0  0  0
   -0.6939   -2.9165   -0.8851 H   0  0  0  0  0  0  0  0  0  0  0  0
  1  9  1  0  0  0  0
  1  2  1  0  0  0  0
  1 10  1  0  0  0  0
  2  3  2  0  0  0  0
  2  4  1  0  0  0  0
  4  5  1  0  0  0  0
  5  6  1  0  0  0  0
  5 12  1  0  0  0  0
  6 13  1  0  0  0  0
  7  6  1  0  0  0  0
  7  8  2  0  0  0  0
 11  5  1  0  0  0  0
 14  6  1  0  0  0  0
 15  7  1  0  0  0  0
M  END
