18
title
C -0.36578894 2.3267002 1.9000579
C -0.9055001 0.9157192 1.5928985
C -2.4460547 0.90326285 1.5377116
C -0.32890388 0.38808972 0.3554757
C 0.13899164 -0.03455125 -0.6697679
C 0.70986617 -0.5514953 -1.9157163
C 1.5121535 -1.7638069 -1.7364322
C 2.1722245 -2.7577004 -1.6027774
H 0.7253194 2.3249042 1.9656147
H -0.65711254 3.0301065 1.1137589
H -0.7697562 2.688674 2.8509738
H -0.5947973 0.25293708 2.412763
H -2.808157 1.5583092 0.739143
H -2.8247733 -0.104253404 1.3471768
H -2.862489 1.2566285 2.4864852
H -0.09646053 -0.7573458 -2.633545
H 1.3306028 0.2235625 -2.3866596
H 2.754827 -3.636522 -1.478526
