17
title
C 1.4836723 2.5096447 0.6153054
C 1.7265172 1.2484903 -0.23754986
C 2.7629187 0.31426346 0.41865355
C 0.4729724 0.5386435 -0.49483132
C -0.5591397 -0.04925381 -0.6858707
C -1.8115952 -0.76171553 -0.9275473
C -2.1578608 -1.700671 0.14877704
N -2.44094 -2.4415336 0.9878669
H 2.423111 3.0516899 0.76161486
H 0.76853526 3.1810563 0.13296717
H 1.0864466 2.2389746 1.5982462
H 2.1299934 1.5702974 -1.2077601
H 3.7082667 0.8458226 0.5652775
H 2.4071999 -0.030851351 1.3940593
H 2.952152 -0.56421053 -0.20346966
H -2.6438112 -0.054888714 -1.041888
H -1.7611287 -1.3265319 -1.8676
