title
 OpenBabel02282109583D

 17 16  0  0  0  0  0  0  0  0999 V2000
    1.4837    2.5096    0.6153 C   0  0  0  0  0  0  0  0  0  0  0  0
    1.7265    1.2485   -0.2375 C   0  0  0  0  0  0  0  0  0  0  0  0
    2.7629    0.3143    0.4187 C   0  0  0  0  0  0  0  0  0  0  0  0
    0.4730    0.5386   -0.4948 C   0  0  0  0  0  0  0  0  0  0  0  0
   -0.5591   -0.0493   -0.6859 C   0  0  0  0  0  0  0  0  0  0  0  0
   -1.8116   -0.7617   -0.9275 C   0  0  0  0  0  0  0  0  0  0  0  0
   -2.1579   -1.7007    0.1488 C   0  0  0  0  0  0  0  0  0  0  0  0
   -2.4409   -2.4415    0.9879 N   0  0  0  0  0  0  0  0  0  0  0  0
    2.4231    3.0517    0.7616 H   0  0  0  0  0  0  0  0  0  0  0  0
    0.7685    3.1811    0.1330 H   0  0  0  0  0  0  0  0  0  0  0  0
    1.0864    2.2390    1.5982 H   0  0  0  0  0  0  0  0  0  0  0  0
    2.1300    1.5703   -1.2078 H   0  0  0  0  0  0  0  0  0  0  0  0
    3.7083    0.8458    0.5653 H   0  0  0  0  0  0  0  0  0  0  0  0
    2.4072   -0.0309    1.3941 H   0  0  0  0  0  0  0  0  0  0  0  0
    2.9522   -0.5642   -0.2035 H   0  0  0  0  0  0  0  0  0  0  0  0
   -2.6438   -0.0549   -1.0419 H   0  0  0  0  0  0  0  0  0  0  0  0
   -1.7611   -1.3265   -1.8676 H   0  0  0  0  0  0  0  0  0  0  0  0
  1  9  1  0  0  0  0
  1 11  1  0  0  0  0
  2  3  1  0  0  0  0
  2  1  1  0  0  0  0
  3 13  1  0  0  0  0
  3 14  1  0  0  0  0
  4  2  1  0  0  0  0
  5  4  3  0  0  0  0
  6  5  1  0  0  0  0
  6  7  1  0  0  0  0
  7  8  3  0  0  0  0
 10  1  1  0  0  0  0
 12  2  1  0  0  0  0
 15  3  1  0  0  0  0
 16  6  1  0  0  0  0
 17  6  1  0  0  0  0
M  END
