16
title
C -0.30348656 2.3108711 1.9002961
C -0.88424563 0.9326723 1.5529116
O -2.3070562 0.9706911 1.4638568
C -0.276573 0.3819514 0.33598074
C 0.20532903 -0.041476008 -0.6824879
C 0.7905628 -0.5686681 -1.9172364
C 1.4742686 -1.8513874 -1.7408367
C 2.0395536 -2.902017 -1.6087362
H 0.7765456 2.2492452 2.062401
H -0.48505688 3.019333 1.0854133
H -0.7815924 2.6883342 2.8079097
H -0.6831966 0.24739927 2.3853195
H -2.5318346 1.4480449 0.6574697
H 0.0017380435 -0.6804122 -2.6741407
H 1.496313 0.1635508 -2.333413
H 2.5366347 -3.8322444 -1.486175
