title
 OpenBabel02282109583D

 16 15  0  0  1  0  0  0  0  0999 V2000
   -0.3035    2.3109    1.9003 C   0  0  0  0  0  0  0  0  0  0  0  0
   -0.8842    0.9327    1.5529 C   0  0  1  0  0  0  0  0  0  0  0  0
   -2.3071    0.9707    1.4639 O   0  0  0  0  0  0  0  0  0  0  0  0
   -0.2766    0.3820    0.3360 C   0  0  0  0  0  0  0  0  0  0  0  0
    0.2053   -0.0415   -0.6825 C   0  0  0  0  0  0  0  0  0  0  0  0
    0.7906   -0.5687   -1.9172 C   0  0  0  0  0  0  0  0  0  0  0  0
    1.4743   -1.8514   -1.7408 C   0  0  0  0  0  0  0  0  0  0  0  0
    2.0396   -2.9020   -1.6087 C   0  0  0  0  0  0  0  0  0  0  0  0
    0.7765    2.2492    2.0624 H   0  0  0  0  0  0  0  0  0  0  0  0
   -0.4851    3.0193    1.0854 H   0  0  0  0  0  0  0  0  0  0  0  0
   -0.7816    2.6883    2.8079 H   0  0  0  0  0  0  0  0  0  0  0  0
   -0.6832    0.2474    2.3853 H   0  0  0  0  0  0  0  0  0  0  0  0
   -2.5318    1.4480    0.6575 H   0  0  0  0  0  0  0  0  0  0  0  0
    0.0017   -0.6804   -2.6741 H   0  0  0  0  0  0  0  0  0  0  0  0
    1.4963    0.1636   -2.3334 H   0  0  0  0  0  0  0  0  0  0  0  0
    2.5366   -3.8322   -1.4862 H   0  0  0  0  0  0  0  0  0  0  0  0
  1  9  1  0  0  0  0
  1 11  1  0  0  0  0
  2  1  1  0  0  0  0
  2 12  1  1  0  0  0
  3  2  1  0  0  0  0
  4  2  1  0  0  0  0
  5  4  3  0  0  0  0
  6  7  1  0  0  0  0
  6  5  1  0  0  0  0
  7  8  3  0  0  0  0
  8 16  1  0  0  0  0
 10  1  1  0  0  0  0
 13  3  1  0  0  0  0
 14  6  1  0  0  0  0
 15  6  1  0  0  0  0
M  END
