title
 OpenBabel02282109583D

 15 14  0  0  1  0  0  0  0  0999 V2000
    2.2124    1.3101   -1.0989 C   0  0  0  0  0  0  0  0  0  0  0  0
    1.8571    0.9397    0.3479 C   0  0  1  0  0  0  0  0  0  0  0  0
    1.5834    2.0909    1.1389 O   0  0  0  0  0  0  0  0  0  0  0  0
    0.7513   -0.0264    0.3975 C   0  0  0  0  0  0  0  0  0  0  0  0
   -0.1827   -0.7841    0.4243 C   0  0  0  0  0  0  0  0  0  0  0  0
   -1.3077   -1.7147    0.4715 C   0  0  0  0  0  0  0  0  0  0  0  0
   -2.3602   -1.3955   -0.5029 C   0  0  0  0  0  0  0  0  0  0  0  0
   -3.1930   -1.1512   -1.2642 N   0  0  0  0  0  0  0  0  0  0  0  0
    3.0350    2.0296   -1.0953 H   0  0  0  0  0  0  0  0  0  0  0  0
    2.5123    0.4247   -1.6668 H   0  0  0  0  0  0  0  0  0  0  0  0
    1.3508    1.7601   -1.6025 H   0  0  0  0  0  0  0  0  0  0  0  0
    2.7361    0.4864    0.8218 H   0  0  0  0  0  0  0  0  0  0  0  0
    0.7657    2.4817    0.8104 H   0  0  0  0  0  0  0  0  0  0  0  0
   -0.9644   -2.7399    0.2820 H   0  0  0  0  0  0  0  0  0  0  0  0
   -1.7582   -1.7240    1.4724 H   0  0  0  0  0  0  0  0  0  0  0  0
  1  9  1  0  0  0  0
  1  2  1  0  0  0  0
  2  4  1  0  0  0  0
  2 12  1  1  0  0  0
  2  3  1  0  0  0  0
  4  5  3  0  0  0  0
  5  6  1  0  0  0  0
  6 15  1  0  0  0  0
  7  6  1  0  0  0  0
  8  7  3  0  0  0  0
 10  1  1  0  0  0  0
 11  1  1  0  0  0  0
 13  3  1  0  0  0  0
 14  6  1  0  0  0  0
M  END
