18
title
C 1.8310757 2.6089797 -0.13915789
C 1.9197122 1.1014057 -0.4496164
C 2.807622 0.3688778 0.5762526
C 0.5869929 0.49973783 -0.5142369
C -0.5184955 0.022561269 -0.5590258
C -1.8346903 -0.5998085 -0.57055193
C -1.9087474 -1.8165104 0.35460222
O -2.8712668 -2.0943866 1.0163049
H 2.8312917 3.0537248 -0.13732487
H 1.2221366 3.129446 -0.8828602
H 1.3800604 2.773673 0.8442062
H 2.3876715 0.9895563 -1.4377481
H 3.8122249 0.8033805 0.5851313
H 2.386222 0.45696655 1.582323
H 2.8929453 -0.6941939 0.3362761
H -2.6314049 0.09465833 -0.28409156
H -2.0768251 -0.9609727 -1.5824859
H -0.9899878 -2.442733 0.35679936
