title
 OpenBabel02282109583D

 17 16  0  0  0  0  0  0  0  0999 V2000
   -1.3800    2.4883    1.1637 C   0  0  0  0  0  0  0  0  0  0  0  0
   -1.3893    0.9557    1.1628 C   0  0  0  0  0  0  0  0  0  0  0  0
   -2.8171    0.3987    1.1640 C   0  0  0  0  0  0  0  0  0  0  0  0
   -0.7049    0.4848   -0.0385 N   0  0  0  0  0  0  0  0  0  0  0  0
    0.3179   -0.2193    0.1064 C   0  0  0  0  0  0  0  0  0  0  0  0
    0.9867   -0.6798   -1.0007 O   0  0  0  0  0  0  0  0  0  0  0  0
    2.0978   -1.4421   -0.8066 C   0  0  0  0  0  0  0  0  0  0  0  0
    2.7318   -1.8782   -1.7139 O   0  0  0  0  0  0  0  0  0  0  0  0
   -0.3566    2.8742    1.1774 H   0  0  0  0  0  0  0  0  0  0  0  0
   -1.8751    2.8710    0.2664 H   0  0  0  0  0  0  0  0  0  0  0  0
   -1.9051    2.8719    2.0438 H   0  0  0  0  0  0  0  0  0  0  0  0
   -0.8735    0.6011    2.0732 H   0  0  0  0  0  0  0  0  0  0  0  0
   -3.3518    0.7239    0.2666 H   0  0  0  0  0  0  0  0  0  0  0  0
   -2.8115   -0.6950    1.1781 H   0  0  0  0  0  0  0  0  0  0  0  0
   -3.3632    0.7522    2.0440 H   0  0  0  0  0  0  0  0  0  0  0  0
    0.7643   -0.5266    1.0619 H   0  0  0  0  0  0  0  0  0  0  0  0
    2.3308   -1.6008    0.2620 H   0  0  0  0  0  0  0  0  0  0  0  0
  1  9  1  0  0  0  0
  1 11  1  0  0  0  0
  2  1  1  0  0  0  0
  2  3  1  0  0  0  0
  2 12  1  0  0  0  0
  3 14  1  0  0  0  0
  3 15  1  0  0  0  0
  4  5  2  0  0  0  0
  4  2  1  0  0  0  0
  5 16  1  0  0  0  0
  6  7  1  0  0  0  0
  6  5  1  0  0  0  0
  7 17  1  0  0  0  0
  8  7  2  0  0  0  0
 10  1  1  0  0  0  0
 13  3  1  0  0  0  0
M  END
