18
title
C -1.8131812 1.2809707 0.75206643
C -1.7768247 -0.25028113 0.70638555
C -3.1894028 -0.8453044 0.6858744
C -0.97149223 -0.7628993 -0.5163016
C 0.42814103 -0.368167 -0.5108343
C 1.5938936 -0.041146338 -0.49104396
C 2.9040976 0.32604766 -0.46962205
C 4.066945 0.65191036 -0.45074764
H -0.8042216 1.7023648 0.7681663
H -2.333329 1.6852405 -0.12487468
H -2.3431199 1.6315427 1.6432451
H -1.2613688 -0.61014414 1.6059123
H -3.7379355 -0.5234811 -0.20759746
H -3.166261 -1.9402517 0.68814665
H -3.7621217 -0.5202305 1.559967
H -1.0331174 -1.8586934 -0.5551993
H -1.4487983 -0.39893612 -1.4375798
H 5.088907 0.938275 -0.43431953
