title
 OpenBabel02282109583D

 18 17  0  0  0  0  0  0  0  0999 V2000
   -1.8132    1.2810    0.7521 C   0  0  0  0  0  0  0  0  0  0  0  0
   -1.7768   -0.2503    0.7064 C   0  0  0  0  0  0  0  0  0  0  0  0
   -3.1894   -0.8453    0.6859 C   0  0  0  0  0  0  0  0  0  0  0  0
   -0.9715   -0.7629   -0.5163 C   0  0  0  0  0  0  0  0  0  0  0  0
    0.4281   -0.3682   -0.5108 C   0  0  0  0  0  0  0  0  0  0  0  0
    1.5939   -0.0411   -0.4910 C   0  0  0  0  0  0  0  0  0  0  0  0
    2.9041    0.3260   -0.4696 C   0  0  0  0  0  0  0  0  0  0  0  0
    4.0669    0.6519   -0.4507 C   0  0  0  0  0  0  0  0  0  0  0  0
   -0.8042    1.7024    0.7682 H   0  0  0  0  0  0  0  0  0  0  0  0
   -2.3333    1.6852   -0.1249 H   0  0  0  0  0  0  0  0  0  0  0  0
   -2.3431    1.6315    1.6432 H   0  0  0  0  0  0  0  0  0  0  0  0
   -1.2614   -0.6101    1.6059 H   0  0  0  0  0  0  0  0  0  0  0  0
   -3.7379   -0.5235   -0.2076 H   0  0  0  0  0  0  0  0  0  0  0  0
   -3.1663   -1.9403    0.6881 H   0  0  0  0  0  0  0  0  0  0  0  0
   -3.7621   -0.5202    1.5600 H   0  0  0  0  0  0  0  0  0  0  0  0
   -1.0331   -1.8587   -0.5552 H   0  0  0  0  0  0  0  0  0  0  0  0
   -1.4488   -0.3989   -1.4376 H   0  0  0  0  0  0  0  0  0  0  0  0
    5.0889    0.9383   -0.4343 H   0  0  0  0  0  0  0  0  0  0  0  0
  1  9  1  0  0  0  0
  1 11  1  0  0  0  0
  2  1  1  0  0  0  0
  2 12  1  0  0  0  0
  3 14  1  0  0  0  0
  3  2  1  0  0  0  0
  3 15  1  0  0  0  0
  4  5  1  0  0  0  0
  4  2  1  0  0  0  0
  5  6  3  0  0  0  0
  6  7  1  0  0  0  0
  7  8  3  0  0  0  0
  8 18  1  0  0  0  0
 10  1  1  0  0  0  0
 13  3  1  0  0  0  0
 16  4  1  0  0  0  0
 17  4  1  0  0  0  0
M  END
