title
 OpenBabel02282109583D

 17 16  0  0  0  0  0  0  0  0999 V2000
    1.5432    1.3267    1.2005 C   0  0  0  0  0  0  0  0  0  0  0  0
    1.5253   -0.2055    1.1945 C   0  0  0  0  0  0  0  0  0  0  0  0
    2.2334   -0.7822    2.4256 C   0  0  0  0  0  0  0  0  0  0  0  0
    0.0761   -0.7571    1.1217 C   0  0  0  0  0  0  0  0  0  0  0  0
   -0.6337   -0.3874   -0.0904 C   0  0  0  0  0  0  0  0  0  0  0  0
   -1.2075   -0.0797   -1.1091 C   0  0  0  0  0  0  0  0  0  0  0  0
   -1.8595    0.2663   -2.2572 C   0  0  0  0  0  0  0  0  0  0  0  0
   -2.4138    0.5615   -3.2348 N   0  0  0  0  0  0  0  0  0  0  0  0
    2.5712    1.7012    1.2119 H   0  0  0  0  0  0  0  0  0  0  0  0
    1.0440    1.7377    0.3185 H   0  0  0  0  0  0  0  0  0  0  0  0
    1.0359    1.7201    2.0895 H   0  0  0  0  0  0  0  0  0  0  0  0
    2.0493   -0.5553    0.2962 H   0  0  0  0  0  0  0  0  0  0  0  0
    1.7316   -0.4706    3.3494 H   0  0  0  0  0  0  0  0  0  0  0  0
    2.2514   -1.8769    2.4058 H   0  0  0  0  0  0  0  0  0  0  0  0
    3.2682   -0.4306    2.4766 H   0  0  0  0  0  0  0  0  0  0  0  0
    0.0964   -1.8522    1.1947 H   0  0  0  0  0  0  0  0  0  0  0  0
   -0.4928   -0.4011    1.9918 H   0  0  0  0  0  0  0  0  0  0  0  0
  1  9  1  0  0  0  0
  1 11  1  0  0  0  0
  2  1  1  0  0  0  0
  2  3  1  0  0  0  0
  3 15  1  0  0  0  0
  3 13  1  0  0  0  0
  4  2  1  0  0  0  0
  4 16  1  0  0  0  0
  4 17  1  0  0  0  0
  5  4  1  0  0  0  0
  6  5  3  0  0  0  0
  7  6  1  0  0  0  0
  8  7  3  0  0  0  0
 10  1  1  0  0  0  0
 12  2  1  0  0  0  0
 14  3  1  0  0  0  0
M  END
