15
title
C 0.7012272 3.291932 0.009339173
C 0.7498532 1.7654314 -0.031896204
O 1.4847798 1.2253053 1.0496118
C -0.6804396 1.1664891 -0.09817054
C -0.6906785 -0.28212443 -0.18767539
C -0.69475687 -1.4871756 -0.2726398
C -0.70219076 -2.8487463 -0.3666097
N -0.71226513 -4.0077844 -0.44759572
H 1.7158366 3.693232 0.06769682
H 0.21503697 3.7030387 -0.8809438
H 0.14302431 3.6407306 0.8873857
H 1.2931182 1.4406272 -0.9258753
H 1.1104732 1.5637803 1.87105
H -1.2410394 1.4804285 0.7938073
H -1.2126254 1.5873221 -0.9609494
