16
title
C 0.6155494 3.2126193 0.11155979
N 0.69156456 1.7590607 0.11841326
C 1.484928 1.2636836 1.2354981
C -0.6432584 1.1711949 0.0811085
C -0.62418205 -0.26732203 -0.16355966
C -0.6315442 -1.4591582 -0.35938606
C -0.6369757 -2.8064227 -0.5812166
N -0.64201754 -3.952999 -0.76785403
H 1.6269592 3.6267664 0.07657873
H 0.07738544 3.5550654 -0.7779058
H 0.10813291 3.6276722 1.0033516
H 1.0582114 1.5326147 2.2206945
H 1.5647068 0.1749399 1.1830117
H 2.4931543 1.6826291 1.1759512
H -1.2197663 1.3569502 1.011536
H -1.2082084 1.6488109 -0.72942364
