title
 OpenBabel02282109583D

 16 15  0  0  0  0  0  0  0  0999 V2000
    0.6155    3.2126    0.1116 C   0  0  0  0  0  0  0  0  0  0  0  0
    0.6916    1.7591    0.1184 N   0  0  0  0  0  0  0  0  0  0  0  0
    1.4849    1.2637    1.2355 C   0  0  0  0  0  0  0  0  0  0  0  0
   -0.6433    1.1712    0.0811 C   0  0  0  0  0  0  0  0  0  0  0  0
   -0.6242   -0.2673   -0.1636 C   0  0  0  0  0  0  0  0  0  0  0  0
   -0.6315   -1.4592   -0.3594 C   0  0  0  0  0  0  0  0  0  0  0  0
   -0.6370   -2.8064   -0.5812 C   0  0  0  0  0  0  0  0  0  0  0  0
   -0.6420   -3.9530   -0.7679 N   0  0  0  0  0  0  0  0  0  0  0  0
    1.6270    3.6268    0.0766 H   0  0  0  0  0  0  0  0  0  0  0  0
    0.0774    3.5551   -0.7779 H   0  0  0  0  0  0  0  0  0  0  0  0
    0.1081    3.6277    1.0034 H   0  0  0  0  0  0  0  0  0  0  0  0
    1.0582    1.5326    2.2207 H   0  0  0  0  0  0  0  0  0  0  0  0
    1.5647    0.1749    1.1830 H   0  0  0  0  0  0  0  0  0  0  0  0
    2.4932    1.6826    1.1760 H   0  0  0  0  0  0  0  0  0  0  0  0
   -1.2198    1.3570    1.0115 H   0  0  0  0  0  0  0  0  0  0  0  0
   -1.2082    1.6488   -0.7294 H   0  0  0  0  0  0  0  0  0  0  0  0
  1  2  1  0  0  0  0
  1 11  1  0  0  0  0
  2  3  1  0  0  0  0
  3 12  1  0  0  0  0
  4  2  1  0  0  0  0
  4 15  1  0  0  0  0
  5  4  1  0  0  0  0
  6  5  3  0  0  0  0
  7  6  1  0  0  0  0
  8  7  3  0  0  0  0
  9  1  1  0  0  0  0
 10  1  1  0  0  0  0
 13  3  1  0  0  0  0
 14  3  1  0  0  0  0
 16  4  1  0  0  0  0
M  END
