title
 OpenBabel02282109583D

 18 17  0  0  0  0  0  0  0  0999 V2000
    0.8724    3.3692   -0.0287 C   0  0  0  0  0  0  0  0  0  0  0  0
    0.9474    1.8384    0.0014 C   0  0  0  0  0  0  0  0  0  0  0  0
    1.7242    1.3387    1.2244 C   0  0  0  0  0  0  0  0  0  0  0  0
   -0.4811    1.2414   -0.0454 C   0  0  0  0  0  0  0  0  0  0  0  0
   -0.5245   -0.2077   -0.1627 C   0  0  0  0  0  0  0  0  0  0  0  0
   -0.5611   -1.4114   -0.2689 C   0  0  0  0  0  0  0  0  0  0  0  0
   -0.5712   -2.8446   -0.3950 C   0  0  0  0  0  0  0  0  0  0  0  0
   -1.5707   -3.5254   -0.4420 O   0  0  0  0  0  0  0  0  0  0  0  0
    1.8747    3.8083   -0.0272 H   0  0  0  0  0  0  0  0  0  0  0  0
    0.3490    3.7297   -0.9205 H   0  0  0  0  0  0  0  0  0  0  0  0
    0.3411    3.7533    0.8504 H   0  0  0  0  0  0  0  0  0  0  0  0
    1.4699    1.4987   -0.9020 H   0  0  0  0  0  0  0  0  0  0  0  0
    2.7458    1.7310    1.2234 H   0  0  0  0  0  0  0  0  0  0  0  0
    1.2425    1.6666    2.1535 H   0  0  0  0  0  0  0  0  0  0  0  0
    1.7801    0.2465    1.2428 H   0  0  0  0  0  0  0  0  0  0  0  0
   -1.0320    1.5408    0.8577 H   0  0  0  0  0  0  0  0  0  0  0  0
   -1.0343    1.6745   -0.8894 H   0  0  0  0  0  0  0  0  0  0  0  0
    0.4387   -3.3011   -0.4483 H   0  0  0  0  0  0  0  0  0  0  0  0
  1  9  1  0  0  0  0
  1  2  1  0  0  0  0
  1 11  1  0  0  0  0
  2  3  1  0  0  0  0
  3 15  1  0  0  0  0
  3 14  1  0  0  0  0
  4  2  1  0  0  0  0
  4 16  1  0  0  0  0
  5  4  1  0  0  0  0
  6  5  3  0  0  0  0
  7  6  1  0  0  0  0
  8  7  2  0  0  0  0
 10  1  1  0  0  0  0
 12  2  1  0  0  0  0
 13  3  1  0  0  0  0
 17  4  1  0  0  0  0
 18  7  1  0  0  0  0
M  END
