22
title
C -0.24382752 1.611357 -2.176672
C -0.16531684 0.08149589 -2.0737255
C 0.550538 -0.5035981 -3.2990053
C 0.5186678 -0.3891016 -0.776666
C -0.22338633 -0.02762029 0.5141905
C 0.46576422 -0.61069375 1.765365
C -0.2235225 -0.27807185 3.0063071
C -0.811654 0.010033374 4.0144415
H 0.75930727 2.0550225 -2.1587732
H -0.7217042 1.9140419 -3.114249
H -0.8187886 2.052963 -1.3576598
H -1.1932937 -0.30997178 -2.066735
H 1.5875889 -0.15051663 -3.3521175
H 0.57403976 -1.5979562 -3.2648232
H 0.05288281 -0.20699306 -4.2281976
H 0.63662803 -1.4806982 -0.82057804
H 1.537986 0.023121148 -0.740532
H -0.2933804 1.0586748 0.63048416
H -1.2533637 -0.40191415 0.47070703
H 0.5357299 -1.7023346 1.6683332
H 1.500569 -0.24621497 1.8142599
H -1.3225484 0.2582123 4.911205
