20
title
C -0.2746902 1.5655261 -2.0830967
C -0.17808717 0.03438118 -2.024115
C 0.53138536 -0.5159261 -3.2681835
C 0.53620845 -0.4547576 -0.75645554
N -0.18341278 -0.08984436 0.46227205
C 0.45774287 -0.6100457 1.662959
C -0.25479573 -0.18307532 2.8707218
N -0.8010444 0.1718542 3.8244271
H 0.72078216 2.025166 -2.0485425
H -0.754262 1.8869342 -3.012995
H -0.86895305 1.9758219 -1.2602534
H -1.1970632 -0.37207818 -1.9935914
H 1.5592929 -0.13999432 -3.3356595
H 0.576295 -1.6100206 -3.2538888
H 0.009411434 -0.21431105 -4.1814814
H 0.59894925 -1.5505002 -0.78317344
H 1.5803597 -0.08318063 -0.759485
H -0.2522984 0.9193899 0.5364889
H 0.44441992 -1.7067091 1.6247162
H 1.5187136 -0.31716397 1.7752303
