title
 OpenBabel02282109583D

 20 19  0  0  0  0  0  0  0  0999 V2000
    1.1615    3.0868   -0.0765 C   0  0  0  0  0  0  0  0  0  0  0  0
    1.1812    1.5536   -0.0502 C   0  0  0  0  0  0  0  0  0  0  0  0
    1.9532    1.0155    1.1607 C   0  0  0  0  0  0  0  0  0  0  0  0
   -0.2456    1.0090   -0.0835 C   0  0  0  0  0  0  0  0  0  0  0  0
   -0.1999   -0.4017   -0.1880 O   0  0  0  0  0  0  0  0  0  0  0  0
   -1.4849   -0.9871   -0.1918 C   0  0  0  0  0  0  0  0  0  0  0  0
   -1.3751   -2.4359   -0.3053 C   0  0  0  0  0  0  0  0  0  0  0  0
   -1.3137   -3.6315   -0.3982 C   0  0  0  0  0  0  0  0  0  0  0  0
    2.1796    3.4879   -0.0853 H   0  0  0  0  0  0  0  0  0  0  0  0
    0.6429    3.4704   -0.9618 H   0  0  0  0  0  0  0  0  0  0  0  0
    0.6562    3.4904    0.8091 H   0  0  0  0  0  0  0  0  0  0  0  0
    1.6763    1.1950   -0.9624 H   0  0  0  0  0  0  0  0  0  0  0  0
    1.9383   -0.0766    1.1763 H   0  0  0  0  0  0  0  0  0  0  0  0
    2.9959    1.3484    1.1401 H   0  0  0  0  0  0  0  0  0  0  0  0
    1.5078    1.3742    2.0969 H   0  0  0  0  0  0  0  0  0  0  0  0
   -0.7875    1.3065    0.8327 H   0  0  0  0  0  0  0  0  0  0  0  0
   -0.7986    1.4338   -0.9391 H   0  0  0  0  0  0  0  0  0  0  0  0
   -2.0312   -0.7284    0.7321 H   0  0  0  0  0  0  0  0  0  0  0  0
   -2.0865   -0.5951   -1.0305 H   0  0  0  0  0  0  0  0  0  0  0  0
   -1.2520   -4.6884   -0.4807 H   0  0  0  0  0  0  0  0  0  0  0  0
  1  2  1  0  0  0  0
  1 11  1  0  0  0  0
  2  3  1  0  0  0  0
  3 13  1  0  0  0  0
  3 15  1  0  0  0  0
  4  2  1  0  0  0  0
  4 16  1  0  0  0  0
  5  4  1  0  0  0  0
  6  5  1  0  0  0  0
  6 18  1  0  0  0  0
  7  6  1  0  0  0  0
  8  7  3  0  0  0  0
  9  1  1  0  0  0  0
 10  1  1  0  0  0  0
 12  2  1  0  0  0  0
 14  3  1  0  0  0  0
 17  4  1  0  0  0  0
 19  6  1  0  0  0  0
 20  8  1  0  0  0  0
M  END
