title
 OpenBabel02282109583D

 19 18  0  0  0  0  0  0  0  0999 V2000
    1.7629    1.5788    0.8111 C   0  0  0  0  0  0  0  0  0  0  0  0
    1.7705    0.0460    0.8595 C   0  0  0  0  0  0  0  0  0  0  0  0
    2.5402   -0.4816    2.0767 C   0  0  0  0  0  0  0  0  0  0  0  0
    0.3510   -0.5164    0.8580 C   0  0  0  0  0  0  0  0  0  0  0  0
   -0.2997   -0.1233   -0.3426 O   0  0  0  0  0  0  0  0  0  0  0  0
   -1.6257   -0.5754   -0.4088 C   0  0  0  0  0  0  0  0  0  0  0  0
   -2.2268   -0.1326   -1.6711 C   0  0  0  0  0  0  0  0  0  0  0  0
   -2.7274    0.2015   -2.6562 N   0  0  0  0  0  0  0  0  0  0  0  0
    2.7823    1.9713    0.7437 H   0  0  0  0  0  0  0  0  0  0  0  0
    1.1971    1.9402   -0.0505 H   0  0  0  0  0  0  0  0  0  0  0  0
    1.3054    1.9949    1.7171 H   0  0  0  0  0  0  0  0  0  0  0  0
    2.2579   -0.3272   -0.0508 H   0  0  0  0  0  0  0  0  0  0  0  0
    2.0759   -0.1488    3.0126 H   0  0  0  0  0  0  0  0  0  0  0  0
    2.5770   -1.5761    2.0908 H   0  0  0  0  0  0  0  0  0  0  0  0
    3.5701   -0.1126    2.0715 H   0  0  0  0  0  0  0  0  0  0  0  0
    0.3708   -1.6166    0.9278 H   0  0  0  0  0  0  0  0  0  0  0  0
   -0.2112   -0.1407    1.7309 H   0  0  0  0  0  0  0  0  0  0  0  0
   -1.6850   -1.6757   -0.3606 H   0  0  0  0  0  0  0  0  0  0  0  0
   -2.2330   -0.1837    0.4243 H   0  0  0  0  0  0  0  0  0  0  0  0
  1  2  1  0  0  0  0
  1 11  1  0  0  0  0
  2  3  1  0  0  0  0
  3 14  1  0  0  0  0
  3 13  1  0  0  0  0
  4  2  1  0  0  0  0
  4 16  1  0  0  0  0
  4 17  1  0  0  0  0
  5  4  1  0  0  0  0
  6 18  1  0  0  0  0
  6  5  1  0  0  0  0
  6 19  1  0  0  0  0
  7  6  1  0  0  0  0
  8  7  3  0  0  0  0
  9  1  1  0  0  0  0
 10  1  1  0  0  0  0
 12  2  1  0  0  0  0
 15  3  1  0  0  0  0
M  END
