title
 OpenBabel02282109583D

 20 19  0  0  0  0  0  0  0  0999 V2000
    1.2050    2.8743    0.4856 C   0  0  0  0  0  0  0  0  0  0  0  0
    1.3575    1.3649    0.3339 C   0  0  0  0  0  0  0  0  0  0  0  0
    2.1676    0.7496    1.4789 C   0  0  0  0  0  0  0  0  0  0  0  0
    0.0364    0.8343    0.2699 O   0  0  0  0  0  0  0  0  0  0  0  0
   -0.0661   -0.4787   -0.2290 C   0  0  0  0  0  0  0  0  0  0  0  0
   -1.5588   -0.7741   -0.4240 C   0  0  0  0  0  0  0  0  0  0  0  0
   -1.7948   -2.1193   -0.9297 C   0  0  0  0  0  0  0  0  0  0  0  0
   -1.9591   -3.2341   -1.3478 C   0  0  0  0  0  0  0  0  0  0  0  0
    2.1839    3.3627    0.5007 H   0  0  0  0  0  0  0  0  0  0  0  0
    0.6214    3.2842   -0.3428 H   0  0  0  0  0  0  0  0  0  0  0  0
    0.6859    3.1107    1.4199 H   0  0  0  0  0  0  0  0  0  0  0  0
    1.8689    1.1490   -0.6200 H   0  0  0  0  0  0  0  0  0  0  0  0
    1.6700    0.9356    2.4363 H   0  0  0  0  0  0  0  0  0  0  0  0
    2.2883   -0.3307    1.3584 H   0  0  0  0  0  0  0  0  0  0  0  0
    3.1683    1.1916    1.5178 H   0  0  0  0  0  0  0  0  0  0  0  0
    0.4640   -0.5769   -1.1898 H   0  0  0  0  0  0  0  0  0  0  0  0
    0.3656   -1.2180    0.4615 H   0  0  0  0  0  0  0  0  0  0  0  0
   -2.0695   -0.6331    0.5359 H   0  0  0  0  0  0  0  0  0  0  0  0
   -1.9765   -0.0285   -1.1106 H   0  0  0  0  0  0  0  0  0  0  0  0
   -2.1193   -4.2165   -1.7169 H   0  0  0  0  0  0  0  0  0  0  0  0
  1  9  1  0  0  0  0
  1 11  1  0  0  0  0
  2  1  1  0  0  0  0
  2  3  1  0  0  0  0
  3 15  1  0  0  0  0
  3 13  1  0  0  0  0
  4  2  1  0  0  0  0
  5  4  1  0  0  0  0
  5 17  1  0  0  0  0
  6  5  1  0  0  0  0
  6 18  1  0  0  0  0
  7  6  1  0  0  0  0
  8  7  3  0  0  0  0
 10  1  1  0  0  0  0
 12  2  1  0  0  0  0
 14  3  1  0  0  0  0
 16  5  1  0  0  0  0
 19  6  1  0  0  0  0
 20  8  1  0  0  0  0
M  END
