20
title
C 1.2050495 2.8743305 0.48557773
C 1.3575071 1.364921 0.3338631
C 2.1676226 0.74955773 1.4788588
O 0.036393907 0.83428895 0.26989424
C -0.06612226 -0.47867006 -0.22901031
C -1.5587662 -0.774123 -0.42402938
C -1.7947787 -2.1192997 -0.9297374
C -1.9591197 -3.2340705 -1.3478153
H 2.18385 3.3626716 0.50072485
H 0.6213878 3.2841666 -0.34278378
H 0.6859298 3.110654 1.4199271
H 1.868947 1.1490475 -0.6199766
H 1.6700048 0.9355843 2.4362643
H 2.2883015 -0.33069068 1.3584422
H 3.1683102 1.191585 1.5178219
H 0.46398345 -0.5768922 -1.1898365
H 0.36561385 -1.2179589 0.46146697
H -2.0695043 -0.6331416 0.5359415
H -1.976529 -0.028518131 -1.1106422
H -2.119345 -4.2164965 -1.716925
