19
title
C -1.5189228 1.9787264 1.1533401
C -1.6136098 0.4545106 1.0486053
C -3.049605 -0.022677133 0.8668346
O -0.8820834 -0.049349762 -0.07069356
C 0.51576126 -0.036248006 0.06654423
C 1.0763038 -0.8123181 -1.1336783
C 2.534383 -0.8661506 -1.1219567
N 3.6890175 -0.89858985 -1.0948497
H -0.48922968 2.316472 1.3010982
H -1.9078418 2.4458327 0.24277048
H -2.1075857 2.3369129 2.0036142
H -1.1973532 0.005855849 1.9663668
H -3.47607 0.39805922 -0.049246144
H -3.084264 -1.1125635 0.7919172
H -3.6692073 0.29038215 1.7120583
H 0.92605126 0.9839636 0.06765836
H 0.8287183 -0.51953423 1.0055386
H 0.6729599 -1.8300827 -1.1280786
H 0.7372266 -0.33680347 -2.0598924
