title
 OpenBabel02282109583D

 19 18  0  0  0  0  0  0  0  0999 V2000
   -1.5189    1.9787    1.1533 C   0  0  0  0  0  0  0  0  0  0  0  0
   -1.6136    0.4545    1.0486 C   0  0  0  0  0  0  0  0  0  0  0  0
   -3.0496   -0.0227    0.8668 C   0  0  0  0  0  0  0  0  0  0  0  0
   -0.8821   -0.0493   -0.0707 O   0  0  0  0  0  0  0  0  0  0  0  0
    0.5158   -0.0362    0.0665 C   0  0  0  0  0  0  0  0  0  0  0  0
    1.0763   -0.8123   -1.1337 C   0  0  0  0  0  0  0  0  0  0  0  0
    2.5344   -0.8662   -1.1220 C   0  0  0  0  0  0  0  0  0  0  0  0
    3.6890   -0.8986   -1.0948 N   0  0  0  0  0  0  0  0  0  0  0  0
   -0.4892    2.3165    1.3011 H   0  0  0  0  0  0  0  0  0  0  0  0
   -1.9078    2.4458    0.2428 H   0  0  0  0  0  0  0  0  0  0  0  0
   -2.1076    2.3369    2.0036 H   0  0  0  0  0  0  0  0  0  0  0  0
   -1.1974    0.0059    1.9664 H   0  0  0  0  0  0  0  0  0  0  0  0
   -3.4761    0.3981   -0.0492 H   0  0  0  0  0  0  0  0  0  0  0  0
   -3.0843   -1.1126    0.7919 H   0  0  0  0  0  0  0  0  0  0  0  0
   -3.6692    0.2904    1.7121 H   0  0  0  0  0  0  0  0  0  0  0  0
    0.9261    0.9840    0.0677 H   0  0  0  0  0  0  0  0  0  0  0  0
    0.8287   -0.5195    1.0055 H   0  0  0  0  0  0  0  0  0  0  0  0
    0.6730   -1.8301   -1.1281 H   0  0  0  0  0  0  0  0  0  0  0  0
    0.7372   -0.3368   -2.0599 H   0  0  0  0  0  0  0  0  0  0  0  0
  1  9  1  0  0  0  0
  1 11  1  0  0  0  0
  2  1  1  0  0  0  0
  2 12  1  0  0  0  0
  3  2  1  0  0  0  0
  3 15  1  0  0  0  0
  4  5  1  0  0  0  0
  4  2  1  0  0  0  0
  5 16  1  0  0  0  0
  5 17  1  0  0  0  0
  6 18  1  0  0  0  0
  6  7  1  0  0  0  0
  6  5  1  0  0  0  0
  7  8  3  0  0  0  0
 10  1  1  0  0  0  0
 13  3  1  0  0  0  0
 14  3  1  0  0  0  0
 19  6  1  0  0  0  0
M  END
