title
 OpenBabel02282109583D

 20 19  0  0  1  0  0  0  0  0999 V2000
    1.2496    3.1365   -0.0195 C   0  0  0  0  0  0  0  0  0  0  0  0
    1.2554    1.6079   -0.0519 C   0  0  1  0  0  0  0  0  0  0  0  0
    1.9975    1.0729    1.0431 O   0  0  0  0  0  0  0  0  0  0  0  0
   -0.1610    1.0196   -0.1132 C   0  0  0  0  0  0  0  0  0  0  0  0
   -0.1762   -0.5073   -0.2183 C   0  0  0  0  0  0  0  0  0  0  0  0
   -1.6051   -1.0860   -0.2048 C   0  0  0  0  0  0  0  0  0  0  0  0
   -1.6348   -2.5393   -0.3172 C   0  0  0  0  0  0  0  0  0  0  0  0
   -1.6326   -3.7376   -0.4126 C   0  0  0  0  0  0  0  0  0  0  0  0
    2.2722    3.5184    0.0429 H   0  0  0  0  0  0  0  0  0  0  0  0
    0.7762    3.5523   -0.9147 H   0  0  0  0  0  0  0  0  0  0  0  0
    0.6929    3.5045    0.8520 H   0  0  0  0  0  0  0  0  0  0  0  0
    1.8107    1.2734   -0.9377 H   0  0  0  0  0  0  0  0  0  0  0  0
    1.5919    1.3978    1.8551 H   0  0  0  0  0  0  0  0  0  0  0  0
   -0.7119    1.3374    0.7858 H   0  0  0  0  0  0  0  0  0  0  0  0
   -0.6925    1.4610   -0.9670 H   0  0  0  0  0  0  0  0  0  0  0  0
    0.3259   -0.8210   -1.1412 H   0  0  0  0  0  0  0  0  0  0  0  0
    0.4010   -0.9333    0.6071 H   0  0  0  0  0  0  0  0  0  0  0  0
   -2.1137   -0.7819    0.7201 H   0  0  0  0  0  0  0  0  0  0  0  0
   -2.1878   -0.6462   -1.0256 H   0  0  0  0  0  0  0  0  0  0  0  0
   -1.6407   -4.7959   -0.4960 H   0  0  0  0  0  0  0  0  0  0  0  0
  1  9  1  0  0  0  0
  1 11  1  0  0  0  0
  2 12  1  6  0  0  0
  2  1  1  0  0  0  0
  2  3  1  0  0  0  0
  3 13  1  0  0  0  0
  4  2  1  0  0  0  0
  4 14  1  0  0  0  0
  5  6  1  0  0  0  0
  5  4  1  0  0  0  0
  5 17  1  0  0  0  0
  6 18  1  0  0  0  0
  7  6  1  0  0  0  0
  8  7  3  0  0  0  0
 10  1  1  0  0  0  0
 15  4  1  0  0  0  0
 16  5  1  0  0  0  0
 19  6  1  0  0  0  0
 20  8  1  0  0  0  0
M  END
