19
title
C 1.2761368 3.1477416 -0.01625333
C 1.2741691 1.6199653 -0.054732654
O 2.008021 1.072627 1.0384939
C -0.1466177 1.0401894 -0.12092176
C -0.15993087 -0.4871636 -0.22030488
C -1.5920302 -1.0560578 -0.20088328
C -1.6233593 -2.5135303 -0.30476788
N -1.6325053 -3.6660166 -0.38912207
H 2.3008459 3.5234342 0.045626357
H 0.80389214 3.5696688 -0.9091067
H 0.72271407 3.5153875 0.85748833
H 1.8275015 1.2856594 -0.9418266
H 1.6374468 1.435641 1.8510207
H -0.6996313 1.3605793 0.7752556
H -0.672347 1.4791151 -0.9792204
H 0.33892766 -0.8055709 -1.1427374
H 0.41685632 -0.9086245 0.6072949
H -2.1040366 -0.7647434 0.72412455
H -2.1808505 -0.63902074 -1.026779
