title
 OpenBabel02282109583D

 19 18  0  0  1  0  0  0  0  0999 V2000
    1.2761    3.1477   -0.0163 C   0  0  0  0  0  0  0  0  0  0  0  0
    1.2742    1.6200   -0.0547 C   0  0  1  0  0  0  0  0  0  0  0  0
    2.0080    1.0726    1.0385 O   0  0  0  0  0  0  0  0  0  0  0  0
   -0.1466    1.0402   -0.1209 C   0  0  0  0  0  0  0  0  0  0  0  0
   -0.1599   -0.4872   -0.2203 C   0  0  0  0  0  0  0  0  0  0  0  0
   -1.5920   -1.0561   -0.2009 C   0  0  0  0  0  0  0  0  0  0  0  0
   -1.6234   -2.5135   -0.3048 C   0  0  0  0  0  0  0  0  0  0  0  0
   -1.6325   -3.6660   -0.3891 N   0  0  0  0  0  0  0  0  0  0  0  0
    2.3008    3.5234    0.0456 H   0  0  0  0  0  0  0  0  0  0  0  0
    0.8039    3.5697   -0.9091 H   0  0  0  0  0  0  0  0  0  0  0  0
    0.7227    3.5154    0.8575 H   0  0  0  0  0  0  0  0  0  0  0  0
    1.8275    1.2857   -0.9418 H   0  0  0  0  0  0  0  0  0  0  0  0
    1.6374    1.4356    1.8510 H   0  0  0  0  0  0  0  0  0  0  0  0
   -0.6996    1.3606    0.7753 H   0  0  0  0  0  0  0  0  0  0  0  0
   -0.6723    1.4791   -0.9792 H   0  0  0  0  0  0  0  0  0  0  0  0
    0.3389   -0.8056   -1.1427 H   0  0  0  0  0  0  0  0  0  0  0  0
    0.4169   -0.9086    0.6073 H   0  0  0  0  0  0  0  0  0  0  0  0
   -2.1040   -0.7647    0.7241 H   0  0  0  0  0  0  0  0  0  0  0  0
   -2.1809   -0.6390   -1.0268 H   0  0  0  0  0  0  0  0  0  0  0  0
  1  9  1  0  0  0  0
  1 11  1  0  0  0  0
  2 12  1  6  0  0  0
  2  1  1  0  0  0  0
  2  3  1  0  0  0  0
  3 13  1  0  0  0  0
  4  2  1  0  0  0  0
  4 14  1  0  0  0  0
  5  6  1  0  0  0  0
  5  4  1  0  0  0  0
  5 17  1  0  0  0  0
  6 18  1  0  0  0  0
  7  6  1  0  0  0  0
  8  7  3  0  0  0  0
 10  1  1  0  0  0  0
 15  4  1  0  0  0  0
 16  5  1  0  0  0  0
 19  6  1  0  0  0  0
M  END
