18
title
C 1.3728608 1.8577498 -0.8978376
C 1.2518313 1.3460993 0.5338716
O 1.4254909 2.3789833 1.4971304
C -0.07889442 0.63419485 0.79142904
O -0.1785367 -0.47504225 -0.077688664
C -1.3756855 -1.204895 0.10477192
C -1.4194014 -2.3322427 -0.8171051
C -1.4808631 -3.2681541 -1.5667399
H 2.3454444 2.332079 -1.0533499
H 1.2552322 1.035915 -1.6081328
H 0.5898855 2.598298 -1.1097981
H 2.057429 0.63037944 0.73311424
H 0.84326446 3.1071575 1.2536618
H -0.120554015 0.3175877 1.8453176
H -0.91666824 1.3367307 0.6233887
H -1.4489257 -1.5707476 1.1432252
H -2.2522712 -0.55519605 -0.062033273
H -1.5285895 -4.094844 -2.2316236
