17
title
C 0.12280033 1.4442394 2.2166135
C 0.08444906 -0.0795149 2.073454
O -1.2445809 -0.5747442 2.0357614
C 0.8567725 -0.57361436 0.85012335
O 0.18822087 -0.06337322 -0.29909173
C 0.72743326 -0.5390277 -1.5054656
C -0.037622906 0.015449668 -2.6265888
N -0.6243819 0.43860722 -3.526092
H 1.1474109 1.8020784 2.364478
H -0.27973497 1.9254396 1.3205369
H -0.47886047 1.7475184 3.076618
H 0.54442227 -0.53958714 2.956176
H -1.6134549 -0.30292967 1.1866984
H 1.9027017 -0.22910063 0.8708523
H 0.85036695 -1.6736389 0.8274607
H 1.7833261 -0.24510938 -1.6206816
H 0.6886041 -1.639095 -1.5612372
