22
title
C 1.2841339 3.2293384 -0.07873501
C 1.3951889 1.6986457 -0.05489787
C 2.3648014 1.2463709 1.0464183
C -0.00015412056 1.0632879 0.0888321
C -0.03730653 -0.46193057 -0.06576682
C -1.4695737 -1.0244033 -0.015741423
C -1.4843137 -2.534123 -0.062096372
O -2.071811 -3.199161 -0.87578124
H 2.2644248 3.6957896 -0.22106142
H 0.6289855 3.5706053 -0.88713545
H 0.8721244 3.6067135 0.8650321
H 1.8081436 1.3767579 -1.0222644
H 1.9828001 1.5189518 2.0379882
H 2.5276675 0.16467388 1.0370299
H 3.341899 1.7255917 0.92631453
H -0.4218317 1.3388182 1.0665754
H -0.6661155 1.5072998 -0.6629378
H 0.42696968 -0.7453516 -1.0193301
H 0.5604858 -0.9369908 0.72168803
H -1.9401016 -0.7188526 0.9307941
H -2.0829144 -0.6424578 -0.8372762
H -0.878917 -3.019329 0.74120104
