title
 OpenBabel02282109583D

 21 20  0  0  0  0  0  0  0  0999 V2000
   -0.6039    1.4578   -2.0225 C   0  0  0  0  0  0  0  0  0  0  0  0
   -0.1605   -0.0121   -2.0541 C   0  0  0  0  0  0  0  0  0  0  0  0
    0.8448   -0.2495   -3.1892 C   0  0  0  0  0  0  0  0  0  0  0  0
    0.4301   -0.4749   -0.7101 C   0  0  0  0  0  0  0  0  0  0  0  0
   -0.5694   -0.4638    0.4528 C   0  0  0  0  0  0  0  0  0  0  0  0
    0.0002   -0.9956    1.6816 N   0  0  0  0  0  0  0  0  0  0  0  0
    0.1760   -0.2532    2.8071 C   0  0  0  0  0  0  0  0  0  0  0  0
   -0.1427    0.9095    2.9413 O   0  0  0  0  0  0  0  0  0  0  0  0
    0.2440    2.1157   -1.7972 H   0  0  0  0  0  0  0  0  0  0  0  0
   -1.0103    1.7619   -2.9926 H   0  0  0  0  0  0  0  0  0  0  0  0
   -1.3763    1.6429   -1.2705 H   0  0  0  0  0  0  0  0  0  0  0  0
   -1.0482   -0.6294   -2.2578 H   0  0  0  0  0  0  0  0  0  0  0  0
    1.7558    0.3409   -3.0347 H   0  0  0  0  0  0  0  0  0  0  0  0
    1.1378   -1.3030   -3.2516 H   0  0  0  0  0  0  0  0  0  0  0  0
    0.4235    0.0400   -4.1574 H   0  0  0  0  0  0  0  0  0  0  0  0
    0.8203   -1.4954   -0.8293 H   0  0  0  0  0  0  0  0  0  0  0  0
    1.2898    0.1551   -0.4462 H   0  0  0  0  0  0  0  0  0  0  0  0
   -0.8905    0.5512    0.6926 H   0  0  0  0  0  0  0  0  0  0  0  0
   -1.4638   -1.0414    0.1824 H   0  0  0  0  0  0  0  0  0  0  0  0
    0.3320   -1.9473    1.6895 H   0  0  0  0  0  0  0  0  0  0  0  0
    0.6524   -0.8446    3.6148 H   0  0  0  0  0  0  0  0  0  0  0  0
  1  9  1  0  0  0  0
  1 11  1  0  0  0  0
  2  1  1  0  0  0  0
  2  4  1  0  0  0  0
  3 13  1  0  0  0  0
  3  2  1  0  0  0  0
  4 17  1  0  0  0  0
  4  5  1  0  0  0  0
  5 18  1  0  0  0  0
  5  6  1  0  0  0  0
  6 20  1  0  0  0  0
  6  7  1  0  0  0  0
  7  8  2  0  0  0  0
  7 21  1  0  0  0  0
 10  1  1  0  0  0  0
 12  2  1  0  0  0  0
 14  3  1  0  0  0  0
 15  3  1  0  0  0  0
 16  4  1  0  0  0  0
 19  5  1  0  0  0  0
M  END
