21
title
C -0.6038932 1.4578133 -2.0225134
C -0.16047405 -0.012093564 -2.0540812
C 0.8447853 -0.24948387 -3.1891906
C 0.43006486 -0.4748824 -0.7101245
C -0.56935126 -0.4637904 0.4527906
N 0.00024991226 -0.9956008 1.6816424
C 0.1759633 -0.25318143 2.8070962
O -0.142717 0.9095214 2.941333
H 0.24403061 2.1156707 -1.7972376
H -1.0103498 1.7619125 -2.9926252
H -1.3762946 1.642933 -1.270516
H -1.0482434 -0.6294079 -2.2578378
H 1.755845 0.34086147 -3.0346775
H 1.1377819 -1.302954 -3.2515628
H 0.42350537 0.03995779 -4.157399
H 0.82029456 -1.4954118 -0.8293091
H 1.2897867 0.1550551 -0.4462326
H -0.8905145 0.5512338 0.6925961
H -1.4637728 -1.0413604 0.1823729
H 0.33204156 -1.9473106 1.6894788
H 0.6523591 -0.84463197 3.6148074
