20
title
C -0.5109592 1.6953198 -2.1698265
C -0.28818825 0.17574438 -2.1328797
C 0.6736569 -0.25672865 -3.2477434
C 0.2283397 -0.3137611 -0.76787186
C -0.74315464 -0.088253945 0.38598776
O -0.27402505 -0.75685406 1.5669568
C 0.21395311 -0.0069146873 2.5699177
O 0.65826154 -0.4752861 3.5745878
H 0.42029658 2.2318852 -1.9513005
H -0.85046756 2.0139077 -3.1605806
H -1.2639278 2.0250738 -1.4471792
H -1.2563981 -0.31272492 -2.3170621
H 1.6601743 0.20256463 -3.1134245
H 0.8107867 -1.3428127 -3.2583268
H 0.29849234 0.045378555 -4.230742
H 0.43725625 -1.3885118 -0.82028043
H 1.1826823 0.17758834 -0.5343344
H -0.88273436 0.97824144 0.5996437
H -1.7248937 -0.51763195 0.16139913
H 0.15039977 1.0803767 2.3622704
