title
 OpenBabel02282109583D

 20 19  0  0  0  0  0  0  0  0999 V2000
    1.3143    3.1460   -0.2557 C   0  0  0  0  0  0  0  0  0  0  0  0
    1.3312    1.6152   -0.1665 C   0  0  0  0  0  0  0  0  0  0  0  0
    2.1519    1.1253    1.0328 C   0  0  0  0  0  0  0  0  0  0  0  0
   -0.0980    1.0777   -0.1174 C   0  0  0  0  0  0  0  0  0  0  0  0
   -0.0671   -0.3373   -0.1652 O   0  0  0  0  0  0  0  0  0  0  0  0
   -1.3341   -0.9323   -0.0964 C   0  0  0  0  0  0  0  0  0  0  0  0
   -1.1565   -2.4396   -0.1580 C   0  0  0  0  0  0  0  0  0  0  0  0
   -2.0683   -3.2215   -0.1159 O   0  0  0  0  0  0  0  0  0  0  0  0
    2.3320    3.5419   -0.3255 H   0  0  0  0  0  0  0  0  0  0  0  0
    0.7586    3.4949   -1.1327 H   0  0  0  0  0  0  0  0  0  0  0  0
    0.8494    3.5881    0.6336 H   0  0  0  0  0  0  0  0  0  0  0  0
    1.7867    1.2171   -1.0830 H   0  0  0  0  0  0  0  0  0  0  0  0
    1.7466    1.5242    1.9709 H   0  0  0  0  0  0  0  0  0  0  0  0
    2.1375    0.0348    1.0957 H   0  0  0  0  0  0  0  0  0  0  0  0
    3.1932    1.4535    0.9548 H   0  0  0  0  0  0  0  0  0  0  0  0
   -0.5997    1.4135    0.8075 H   0  0  0  0  0  0  0  0  0  0  0  0
   -0.6848    1.4684   -0.9656 H   0  0  0  0  0  0  0  0  0  0  0  0
   -1.8648   -0.6766    0.8369 H   0  0  0  0  0  0  0  0  0  0  0  0
   -1.9871   -0.6197   -0.9297 H   0  0  0  0  0  0  0  0  0  0  0  0
   -0.0942   -2.7578   -0.2468 H   0  0  0  0  0  0  0  0  0  0  0  0
  1  2  1  0  0  0  0
  1 11  1  0  0  0  0
  2  4  1  0  0  0  0
  2  3  1  0  0  0  0
  3 14  1  0  0  0  0
  3 13  1  0  0  0  0
  4 16  1  0  0  0  0
  5  4  1  0  0  0  0
  5  6  1  0  0  0  0
  6 18  1  0  0  0  0
  7  8  2  0  0  0  0
  7  6  1  0  0  0  0
  9  1  1  0  0  0  0
 10  1  1  0  0  0  0
 12  2  1  0  0  0  0
 15  3  1  0  0  0  0
 17  4  1  0  0  0  0
 19  6  1  0  0  0  0
 20  7  1  0  0  0  0
M  END
