title
 OpenBabel02282109583D

 20 19  0  0  0  0  0  0  0  0999 V2000
    1.1900    2.9676    0.5432 C   0  0  0  0  0  0  0  0  0  0  0  0
    1.4207    1.4811    0.2961 C   0  0  0  0  0  0  0  0  0  0  0  0
    2.3982    0.8735    1.3064 C   0  0  0  0  0  0  0  0  0  0  0  0
    0.1363    0.8634    0.3563 O   0  0  0  0  0  0  0  0  0  0  0  0
    0.0632   -0.4343   -0.1856 C   0  0  0  0  0  0  0  0  0  0  0  0
   -1.4137   -0.8296   -0.2473 C   0  0  0  0  0  0  0  0  0  0  0  0
   -1.6012   -2.2873   -0.5956 C   0  0  0  0  0  0  0  0  0  0  0  0
   -2.2750   -2.7001   -1.5036 O   0  0  0  0  0  0  0  0  0  0  0  0
    2.1303    3.5217    0.4694 H   0  0  0  0  0  0  0  0  0  0  0  0
    0.4863    3.3715   -0.1890 H   0  0  0  0  0  0  0  0  0  0  0  0
    0.7728    3.1256    1.5428 H   0  0  0  0  0  0  0  0  0  0  0  0
    1.8280    1.3442   -0.7203 H   0  0  0  0  0  0  0  0  0  0  0  0
    2.0046    0.9768    2.3228 H   0  0  0  0  0  0  0  0  0  0  0  0
    2.5798   -0.1877    1.1136 H   0  0  0  0  0  0  0  0  0  0  0  0
    3.3636    1.3868    1.2560 H   0  0  0  0  0  0  0  0  0  0  0  0
    0.5065   -0.4591   -1.1949 H   0  0  0  0  0  0  0  0  0  0  0  0
    0.6179   -1.1616    0.4297 H   0  0  0  0  0  0  0  0  0  0  0  0
   -1.8400   -0.6660    0.7526 H   0  0  0  0  0  0  0  0  0  0  0  0
   -1.9609   -0.2100   -0.9612 H   0  0  0  0  0  0  0  0  0  0  0  0
   -1.0554   -2.9930    0.0753 H   0  0  0  0  0  0  0  0  0  0  0  0
  1 11  1  0  0  0  0
  2  4  1  0  0  0  0
  2  1  1  0  0  0  0
  2  3  1  0  0  0  0
  3 13  1  0  0  0  0
  5  4  1  0  0  0  0
  5 17  1  0  0  0  0
  6  5  1  0  0  0  0
  6 18  1  0  0  0  0
  7  6  1  0  0  0  0
  7 20  1  0  0  0  0
  8  7  2  0  0  0  0
  9  1  1  0  0  0  0
 10  1  1  0  0  0  0
 12  2  1  0  0  0  0
 14  3  1  0  0  0  0
 15  3  1  0  0  0  0
 16  5  1  0  0  0  0
 19  6  1  0  0  0  0
M  END
