20
title
C 1.3487113 3.20561 -0.048490718
C 1.3549821 1.678263 -0.10608464
O 2.216592 1.1269242 0.88926905
C -0.057700314 1.0846249 -0.013679939
C -0.07626251 -0.44126043 -0.14406417
C -1.4807833 -1.0423118 0.032470647
C -1.4556993 -2.55262 -0.009128052
O -2.1116726 -3.2379813 -0.7503585
H 2.3704011 3.5916047 -0.09699676
H 0.77494 3.6326678 -0.8772383
H 0.8932901 3.5572855 0.8862922
H 1.8063657 1.3600605 -1.0547687
H 1.924849 1.4636046 1.7441493
H -0.5011453 1.3796538 0.94971764
H -0.6880221 1.5359446 -0.7907761
H 0.3183646 -0.726462 -1.127839
H 0.6102829 -0.86532676 0.5972015
H -1.8754894 -0.7482232 1.0168393
H -2.1782644 -0.68350685 -0.7305795
H -0.7507581 -3.015275 0.7225621
