19
title
C 1.1965495 2.7650454 -0.5372801
C 1.2654296 1.3711896 0.08422677
O 1.7515687 1.4250462 1.4276966
C -0.07458628 0.63033104 0.008749867
C 0.02384924 -0.80091465 0.551727
N -1.2505493 -1.5074078 0.55609345
C -1.7804799 -2.055462 -0.56617785
O -1.2621064 -2.0234127 -1.6637337
H 2.1626391 3.2691822 -0.44796732
H 0.9260915 2.712923 -1.5965041
H 0.44043797 3.379455 -0.03156291
H 2.022407 0.78196746 -0.44920465
H 1.1858344 2.035267 1.9142867
H -0.82965064 1.1912161 0.57880616
H -0.4203484 0.5902601 -1.0293379
H 0.72083986 -1.3757104 -0.0665587
H 0.41582197 -0.7850667 1.5709326
H -1.7790902 -1.5649167 1.411062
H -2.7522688 -2.5517943 -0.36857978
