19
title
C 1.4434042 3.0765162 0.05525669
C 1.4571248 1.5513637 -0.032287728
O 2.1758373 0.9734699 1.0581439
C 0.04408253 0.9648259 -0.14215823
C 0.057306774 -0.5501274 -0.27657506
O -1.2993524 -0.9996973 -0.33385637
C -1.4963837 -2.3236237 -0.20480195
N -2.6569355 -2.8071065 -0.32381612
H 2.463141 3.4592676 0.14818956
H 0.98273486 3.5213423 -0.8323825
H 0.8696697 3.4097269 0.9293079
H 2.0334058 1.2523075 -0.9175791
H 1.775032 1.2951916 1.8738326
H -0.5398834 1.2380567 0.7468733
H -0.47336638 1.4007025 -1.004209
H 0.5852845 -0.85128105 -1.1923178
H 0.57662594 -0.99998486 0.57724094
H -0.57650375 -2.8856506 0.012155232
H -2.6268547 -3.8144946 -0.18117313
