title
 OpenBabel02282109583D

 19 18  0  0  1  0  0  0  0  0999 V2000
    1.4434    3.0765    0.0553 C   0  0  0  0  0  0  0  0  0  0  0  0
    1.4571    1.5514   -0.0323 C   0  0  1  0  0  0  0  0  0  0  0  0
    2.1758    0.9735    1.0581 O   0  0  0  0  0  0  0  0  0  0  0  0
    0.0441    0.9648   -0.1422 C   0  0  0  0  0  0  0  0  0  0  0  0
    0.0573   -0.5501   -0.2766 C   0  0  0  0  0  0  0  0  0  0  0  0
   -1.2994   -0.9997   -0.3339 O   0  0  0  0  0  0  0  0  0  0  0  0
   -1.4964   -2.3236   -0.2048 C   0  0  0  0  0  0  0  0  0  0  0  0
   -2.6569   -2.8071   -0.3238 N   0  0  0  0  0  0  0  0  0  0  0  0
    2.4631    3.4593    0.1482 H   0  0  0  0  0  0  0  0  0  0  0  0
    0.9827    3.5213   -0.8324 H   0  0  0  0  0  0  0  0  0  0  0  0
    0.8697    3.4097    0.9293 H   0  0  0  0  0  0  0  0  0  0  0  0
    2.0334    1.2523   -0.9176 H   0  0  0  0  0  0  0  0  0  0  0  0
    1.7750    1.2952    1.8738 H   0  0  0  0  0  0  0  0  0  0  0  0
   -0.5399    1.2381    0.7469 H   0  0  0  0  0  0  0  0  0  0  0  0
   -0.4734    1.4007   -1.0042 H   0  0  0  0  0  0  0  0  0  0  0  0
    0.5853   -0.8513   -1.1923 H   0  0  0  0  0  0  0  0  0  0  0  0
    0.5766   -1.0000    0.5772 H   0  0  0  0  0  0  0  0  0  0  0  0
   -0.5765   -2.8857    0.0122 H   0  0  0  0  0  0  0  0  0  0  0  0
   -2.6269   -3.8145   -0.1812 H   0  0  0  0  0  0  0  0  0  0  0  0
  1  9  1  0  0  0  0
  1 11  1  0  0  0  0
  2 12  1  6  0  0  0
  2  1  1  0  0  0  0
  2  3  1  0  0  0  0
  3 13  1  0  0  0  0
  4  2  1  0  0  0  0
  4 14  1  0  0  0  0
  5  4  1  0  0  0  0
  5 17  1  0  0  0  0
  6  5  1  0  0  0  0
  6  7  1  0  0  0  0
  7 18  1  0  0  0  0
  8  7  2  0  0  0  0
  8 19  1  0  0  0  0
 10  1  1  0  0  0  0
 15  4  1  0  0  0  0
 16  5  1  0  0  0  0
M  END
