title
 OpenBabel02282109583D

 18 17  0  0  1  0  0  0  0  0999 V2000
    1.3026    3.0670    0.2818 C   0  0  0  0  0  0  0  0  0  0  0  0
    1.4195    1.5752   -0.0242 C   0  0  1  0  0  0  0  0  0  0  0  0
    2.1842    0.8952    0.9718 O   0  0  0  0  0  0  0  0  0  0  0  0
    0.0497    0.9108   -0.2178 C   0  0  0  0  0  0  0  0  0  0  0  0
    0.1770   -0.5658   -0.5731 C   0  0  0  0  0  0  0  0  0  0  0  0
   -1.1218   -1.1452   -0.7596 O   0  0  0  0  0  0  0  0  0  0  0  0
   -1.5208   -2.0994    0.0994 C   0  0  0  0  0  0  0  0  0  0  0  0
   -2.5924   -2.6229    0.0363 O   0  0  0  0  0  0  0  0  0  0  0  0
    2.2948    3.5012    0.4298 H   0  0  0  0  0  0  0  0  0  0  0  0
    0.8056    3.6020   -0.5333 H   0  0  0  0  0  0  0  0  0  0  0  0
    0.7150    3.2316    1.1939 H   0  0  0  0  0  0  0  0  0  0  0  0
    2.0054    1.4464   -0.9436 H   0  0  0  0  0  0  0  0  0  0  0  0
    1.7974    1.1038    1.8299 H   0  0  0  0  0  0  0  0  0  0  0  0
   -0.5398    1.0117    0.7039 H   0  0  0  0  0  0  0  0  0  0  0  0
   -0.5076    1.4279   -1.0070 H   0  0  0  0  0  0  0  0  0  0  0  0
    0.7198   -0.6953   -1.5152 H   0  0  0  0  0  0  0  0  0  0  0  0
    0.7269   -1.0996    0.2095 H   0  0  0  0  0  0  0  0  0  0  0  0
   -0.7494   -2.3412    0.8578 H   0  0  0  0  0  0  0  0  0  0  0  0
  1  9  1  0  0  0  0
  1 11  1  0  0  0  0
  2 12  1  6  0  0  0
  2  1  1  0  0  0  0
  2  3  1  0  0  0  0
  3 13  1  0  0  0  0
  4  2  1  0  0  0  0
  4 14  1  0  0  0  0
  5  4  1  0  0  0  0
  5 17  1  0  0  0  0
  6  5  1  0  0  0  0
  6  7  1  0  0  0  0
  7 18  1  0  0  0  0
  8  7  2  0  0  0  0
 10  1  1  0  0  0  0
 15  4  1  0  0  0  0
 16  5  1  0  0  0  0
M  END
