17
title
C -1.4280429 2.8082657 1.3611676
N -0.17900328 2.192594 0.9666215
C -0.23581104 1.2428881 0.14904438
O 0.9039777 0.64405465 -0.27820757
C 0.7518911 -0.45494887 -1.1407439
C 0.21887119 -1.7136564 -0.44579676
C 0.37059185 -3.0022058 -1.22953
O -0.2950128 -1.6579101 0.6436475
H -1.3999053 3.8791468 1.1292262
H -2.3172362 2.3723836 0.8765166
H -1.5529096 2.7207856 2.4463906
H -1.1568685 0.8403863 -0.29688314
H 0.080167614 -0.2266898 -1.985161
H 1.7392882 -0.655699 -1.5681137
H 0.07748886 -2.869104 -2.276585
H 1.4237479 -3.3076115 -1.228027
H -0.22907506 -3.7881107 -0.7694582
