title
 OpenBabel02282109583D

 21 20  0  0  0  0  0  0  0  0999 V2000
    1.4152    3.5867    0.0560 C   0  0  0  0  0  0  0  0  0  0  0  0
    1.4735    2.1561    0.2667 N   0  0  0  0  0  0  0  0  0  0  0  0
    0.4047    1.5081    0.1275 C   0  0  0  0  0  0  0  0  0  0  0  0
    0.3827    0.1707    0.2847 O   0  0  0  0  0  0  0  0  0  0  0  0
   -0.8991   -0.4574    0.2085 C   0  0  0  0  0  0  0  0  0  0  0  0
   -0.6982   -1.9677    0.1111 C   0  0  0  0  0  0  0  0  0  0  0  0
   -2.0558   -2.6787    0.1742 C   0  0  0  0  0  0  0  0  0  0  0  0
    0.0847   -2.3471   -1.1515 C   0  0  0  0  0  0  0  0  0  0  0  0
    2.1048    3.8698   -0.7477 H   0  0  0  0  0  0  0  0  0  0  0  0
    0.4115    3.9630   -0.2038 H   0  0  0  0  0  0  0  0  0  0  0  0
    1.7526    4.1067    0.9601 H   0  0  0  0  0  0  0  0  0  0  0  0
   -0.5695    1.9529   -0.1340 H   0  0  0  0  0  0  0  0  0  0  0  0
   -1.4851   -0.2044    1.1029 H   0  0  0  0  0  0  0  0  0  0  0  0
   -1.4465   -0.0879   -0.6717 H   0  0  0  0  0  0  0  0  0  0  0  0
   -0.1071   -2.2651    0.9872 H   0  0  0  0  0  0  0  0  0  0  0  0
   -2.6893   -2.3972   -0.6755 H   0  0  0  0  0  0  0  0  0  0  0  0
   -1.9251   -3.7643    0.1407 H   0  0  0  0  0  0  0  0  0  0  0  0
   -2.5995   -2.4353    1.0933 H   0  0  0  0  0  0  0  0  0  0  0  0
    0.2789   -3.4238   -1.1797 H   0  0  0  0  0  0  0  0  0  0  0  0
   -0.4822   -2.0875   -2.0541 H   0  0  0  0  0  0  0  0  0  0  0  0
    1.0425   -1.8233   -1.1902 H   0  0  0  0  0  0  0  0  0  0  0  0
  1  2  1  0  0  0  0
  1 11  1  0  0  0  0
  3  2  2  0  0  0  0
  3  4  1  0  0  0  0
  5  4  1  0  0  0  0
  5 13  1  0  0  0  0
  6  7  1  0  0  0  0
  6  5  1  0  0  0  0
  6 15  1  0  0  0  0
  7 18  1  0  0  0  0
  8  6  1  0  0  0  0
  9  1  1  0  0  0  0
 10  1  1  0  0  0  0
 12  3  1  0  0  0  0
 14  5  1  0  0  0  0
 16  7  1  0  0  0  0
 17  7  1  0  0  0  0
 19  8  1  0  0  0  0
 20  8  1  0  0  0  0
 21  8  1  0  0  0  0
M  END
