title
 OpenBabel02282109583D

 19 18  0  0  1  0  0  0  0  0999 V2000
   -0.5660    3.0139   -2.0201 C   0  0  0  0  0  0  0  0  0  0  0  0
    0.3418    2.1504   -1.2950 N   0  0  0  0  0  0  0  0  0  0  0  0
   -0.1492    1.4156   -0.4017 C   0  0  0  0  0  0  0  0  0  0  0  0
    0.6405    0.6135    0.3444 O   0  0  0  0  0  0  0  0  0  0  0  0
   -0.0149   -0.3199    1.1991 C   0  0  0  0  0  0  0  0  0  0  0  0
   -0.2271   -1.6776    0.5136 C   0  0  1  0  0  0  0  0  0  0  0  0
    1.0816   -2.3134    0.0581 C   0  0  0  0  0  0  0  0  0  0  0  0
   -0.9729   -2.5208    1.3833 O   0  0  0  0  0  0  0  0  0  0  0  0
   -0.2629    4.0592   -1.8904 H   0  0  0  0  0  0  0  0  0  0  0  0
   -0.5031    2.7963   -3.0924 H   0  0  0  0  0  0  0  0  0  0  0  0
   -1.6200    2.9204   -1.7099 H   0  0  0  0  0  0  0  0  0  0  0  0
   -1.2182    1.3698   -0.1366 H   0  0  0  0  0  0  0  0  0  0  0  0
    0.6331   -0.4383    2.0750 H   0  0  0  0  0  0  0  0  0  0  0  0
   -0.9820    0.0695    1.5401 H   0  0  0  0  0  0  0  0  0  0  0  0
   -0.8765   -1.5202   -0.3570 H   0  0  0  0  0  0  0  0  0  0  0  0
    1.7327   -2.5126    0.9197 H   0  0  0  0  0  0  0  0  0  0  0  0
    0.8895   -3.2595   -0.4546 H   0  0  0  0  0  0  0  0  0  0  0  0
    1.6212   -1.6440   -0.6166 H   0  0  0  0  0  0  0  0  0  0  0  0
   -0.3694   -2.8621    2.0525 H   0  0  0  0  0  0  0  0  0  0  0  0
  1  9  1  0  0  0  0
  1 11  1  0  0  0  0
  1  2  1  0  0  0  0
  2  3  2  0  0  0  0
  3 12  1  0  0  0  0
  3  4  1  0  0  0  0
  4  5  1  0  0  0  0
  5 14  1  0  0  0  0
  5 13  1  0  0  0  0
  6 15  1  6  0  0  0
  6  5  1  0  0  0  0
  6  8  1  0  0  0  0
  7  6  1  0  0  0  0
  7 16  1  0  0  0  0
  8 19  1  0  0  0  0
 10  1  1  0  0  0  0
 17  7  1  0  0  0  0
 18  7  1  0  0  0  0
M  END
