title
 OpenBabel02282109583D

 16 15  0  0  0  0  0  0  0  0999 V2000
    0.3848    3.5360    0.1020 C   0  0  0  0  0  0  0  0  0  0  0  0
    0.6069    2.0355    0.0251 C   0  0  0  0  0  0  0  0  0  0  0  0
    1.6869    1.5296    0.1907 O   0  0  0  0  0  0  0  0  0  0  0  0
   -0.6579    1.2118   -0.2851 C   0  0  0  0  0  0  0  0  0  0  0  0
   -0.4688   -0.2274   -0.2582 C   0  0  0  0  0  0  0  0  0  0  0  0
   -0.3176   -1.4197   -0.2260 C   0  0  0  0  0  0  0  0  0  0  0  0
   -0.0999   -2.8598   -0.1982 C   0  0  0  0  0  0  0  0  0  0  0  0
   -1.1686   -3.4934    0.4965 O   0  0  0  0  0  0  0  0  0  0  0  0
    1.3416    4.0429    0.2290 H   0  0  0  0  0  0  0  0  0  0  0  0
   -0.1157    3.9045   -0.8000 H   0  0  0  0  0  0  0  0  0  0  0  0
   -0.2685    3.7752    0.9492 H   0  0  0  0  0  0  0  0  0  0  0  0
   -1.4399    1.5121    0.4265 H   0  0  0  0  0  0  0  0  0  0  0  0
   -1.0278    1.5433   -1.2666 H   0  0  0  0  0  0  0  0  0  0  0  0
   -0.0215   -3.2331   -1.2325 H   0  0  0  0  0  0  0  0  0  0  0  0
    0.8683   -3.0630    0.2874 H   0  0  0  0  0  0  0  0  0  0  0  0
   -0.9779   -4.4368    0.5135 H   0  0  0  0  0  0  0  0  0  0  0  0
  1  9  1  0  0  0  0
  1 11  1  0  0  0  0
  2  1  1  0  0  0  0
  2  3  2  0  0  0  0
  4  5  1  0  0  0  0
  4  2  1  0  0  0  0
  4 12  1  0  0  0  0
  5  6  3  0  0  0  0
  6  7  1  0  0  0  0
  7 15  1  0  0  0  0
  7  8  1  0  0  0  0
  8 16  1  0  0  0  0
 10  1  1  0  0  0  0
 13  4  1  0  0  0  0
 14  7  1  0  0  0  0
M  END
