16
title
C 0.38477635 3.5359855 0.102041915
C 0.60687757 2.0354555 0.02505766
O 1.686851 1.5295831 0.1907137
C -0.65793043 1.211822 -0.2851072
C -0.46875402 -0.22742397 -0.25824183
C -0.31760976 -1.4196947 -0.22596456
C -0.0999082 -2.8598137 -0.19822884
O -1.1686208 -3.4933615 0.4965404
H 1.3416408 4.0428557 0.22898588
H -0.11565885 3.9045174 -0.8000393
H -0.26853028 3.775248 0.9491799
H -1.4398808 1.5121291 0.42646685
H -1.0278451 1.5432581 -1.2665728
H -0.021469625 -3.2331042 -1.2325414
H 0.8682807 -3.063023 0.287379
H -0.9779095 -4.4367533 0.513472
