title
 OpenBabel02282109583D

 18 17  0  0  0  0  0  0  0  0999 V2000
   -1.9061    2.2358    1.9460 C   0  0  0  0  0  0  0  0  0  0  0  0
   -0.5185    1.7332    2.3856 C   0  0  0  0  0  0  0  0  0  0  0  0
    0.1566    0.9568    1.3512 C   0  0  0  0  0  0  0  0  0  0  0  0
    0.6834    0.3168    0.4788 C   0  0  0  0  0  0  0  0  0  0  0  0
    1.3185   -0.4619   -0.5699 C   0  0  0  0  0  0  0  0  0  0  0  0
    0.3497   -1.2685   -1.4555 C   0  0  0  0  0  0  0  0  0  0  0  0
    1.0187   -2.0951   -2.5411 C   0  0  0  0  0  0  0  0  0  0  0  0
   -0.8445   -1.2472   -1.3020 O   0  0  0  0  0  0  0  0  0  0  0  0
   -1.8239    2.8834    1.0690 H   0  0  0  0  0  0  0  0  0  0  0  0
   -2.5555    1.3968    1.6835 H   0  0  0  0  0  0  0  0  0  0  0  0
   -2.3792    2.8038    2.7527 H   0  0  0  0  0  0  0  0  0  0  0  0
    0.1090    2.5880    2.6696 H   0  0  0  0  0  0  0  0  0  0  0  0
   -0.6206    1.1216    3.2913 H   0  0  0  0  0  0  0  0  0  0  0  0
    1.9106    0.1821   -1.2366 H   0  0  0  0  0  0  0  0  0  0  0  0
    2.0460   -1.1710   -0.1487 H   0  0  0  0  0  0  0  0  0  0  0  0
    1.7057   -2.8246   -2.0974 H   0  0  0  0  0  0  0  0  0  0  0  0
    0.2599   -2.6162   -3.1254 H   0  0  0  0  0  0  0  0  0  0  0  0
    1.6163   -1.4549   -3.1996 H   0  0  0  0  0  0  0  0  0  0  0  0
  1  2  1  0  0  0  0
  1 11  1  0  0  0  0
  2 12  1  0  0  0  0
  2 13  1  0  0  0  0
  3  2  1  0  0  0  0
  4  3  3  0  0  0  0
  5 15  1  0  0  0  0
  5  4  1  0  0  0  0
  6  8  2  0  0  0  0
  6  5  1  0  0  0  0
  7 16  1  0  0  0  0
  7  6  1  0  0  0  0
  9  1  1  0  0  0  0
 10  1  1  0  0  0  0
 14  5  1  0  0  0  0
 17  7  1  0  0  0  0
 18  7  1  0  0  0  0
M  END
