18
title
C -1.9060718 2.2357967 1.9459813
C -0.5184929 1.7332337 2.3855708
C 0.15658969 0.9567774 1.3512286
C 0.6834412 0.31682703 0.4788121
C 1.3185056 -0.46186438 -0.56986153
C 0.34968835 -1.2684777 -1.4555308
C 1.0186878 -2.095107 -2.5410707
O -0.8444817 -1.247215 -1.3020064
H -1.8239174 2.8834438 1.0690075
H -2.555527 1.3967808 1.6835206
H -2.3792017 2.803777 2.7527113
H 0.10902411 2.5880344 2.6696181
H -0.6206008 1.1216229 3.2913144
H 1.9106134 0.18211791 -1.2366251
H 2.046045 -1.1710334 -0.14868389
H 1.7057296 -2.824599 -2.0974228
H 0.25994414 -2.616161 -3.1253965
H 1.6163024 -1.4548821 -3.1996114
