17
title
C -0.8602608 2.281239 2.602476
C -1.8877132 1.5898354 1.6873598
C -1.2682374 0.8984166 0.56186146
C -0.7211109 0.3324103 -0.34805518
C -0.07677759 -0.3544205 -1.4544573
C 1.1272206 -1.2223299 -1.0320201
N 1.49136 -2.1391199 -1.9804215
O 1.7296112 -1.078223 0.0070547573
H -0.15269579 1.553304 3.0074785
H -0.2895677 3.0307653 2.0476787
H -1.3654271 2.777985 3.4363966
H -2.477707 0.8742011 2.2744472
H -2.6036298 2.3324523 1.3115649
H -0.8020935 -0.9756581 -1.9968238
H 0.30034292 0.37131223 -2.189106
H 0.90445065 -2.359289 -2.7658105
H 2.2418597 -2.7711906 -1.7540648
