title
 OpenBabel02282109583D

 15 14  0  0  0  0  0  0  0  0999 V2000
    0.2928    3.2752    0.3778 N   0  0  0  0  0  0  0  0  0  0  0  0
    0.5966    2.0055   -0.0290 C   0  0  0  0  0  0  0  0  0  0  0  0
    1.7292    1.5838   -0.0831 O   0  0  0  0  0  0  0  0  0  0  0  0
   -0.6334    1.1949   -0.4880 C   0  0  0  0  0  0  0  0  0  0  0  0
   -0.4585   -0.2426   -0.3694 C   0  0  0  0  0  0  0  0  0  0  0  0
   -0.3334   -1.4333   -0.2614 C   0  0  0  0  0  0  0  0  0  0  0  0
   -0.1434   -2.8727   -0.1457 C   0  0  0  0  0  0  0  0  0  0  0  0
   -1.1153   -3.4159    0.7417 O   0  0  0  0  0  0  0  0  0  0  0  0
    1.0468    3.8440    0.7278 H   0  0  0  0  0  0  0  0  0  0  0  0
   -0.6496    3.5624    0.5755 H   0  0  0  0  0  0  0  0  0  0  0  0
   -1.5263    1.5110    0.0661 H   0  0  0  0  0  0  0  0  0  0  0  0
   -0.8167    1.4715   -1.5359 H   0  0  0  0  0  0  0  0  0  0  0  0
   -0.2202   -3.3292   -1.1462 H   0  0  0  0  0  0  0  0  0  0  0  0
    0.8796   -3.0671    0.2150 H   0  0  0  0  0  0  0  0  0  0  0  0
   -0.9426   -4.3605    0.8091 H   0  0  0  0  0  0  0  0  0  0  0  0
  1 10  1  0  0  0  0
  1  9  1  0  0  0  0
  2  1  1  0  0  0  0
  3  2  2  0  0  0  0
  4  5  1  0  0  0  0
  4  2  1  0  0  0  0
  4 11  1  0  0  0  0
  5  6  3  0  0  0  0
  6  7  1  0  0  0  0
  7 14  1  0  0  0  0
  7  8  1  0  0  0  0
  8 15  1  0  0  0  0
 12  4  1  0  0  0  0
 13  7  1  0  0  0  0
M  END
