15
title
N 0.29280224 3.275181 0.37782395
C 0.5965642 2.005545 -0.029046172
O 1.7291919 1.5838199 -0.08306255
C -0.63337845 1.1948717 -0.48803702
C -0.45848903 -0.24258453 -0.36939254
C -0.33340892 -1.4332693 -0.26144364
C -0.14342579 -2.8727016 -0.14573796
O -1.1152825 -3.4159327 0.7416534
H 1.0467962 3.8440015 0.7278467
H -0.6496162 3.5623689 0.5755405
H -1.5262617 1.5109848 0.06608876
H -0.81669897 1.471456 -1.5358713
H -0.22018376 -3.3291984 -1.1462485
H 0.87956697 -3.0671268 0.21496831
H -0.942637 -4.360536 0.8091272
