title
 OpenBabel02282109583D

 20 19  0  0  0  0  0  0  0  0999 V2000
    0.8003    3.3860   -0.0044 C   0  0  0  0  0  0  0  0  0  0  0  0
    0.8522    1.8538    0.0052 C   0  0  0  0  0  0  0  0  0  0  0  0
    1.8979    1.3355    0.9981 C   0  0  0  0  0  0  0  0  0  0  0  0
   -0.5530    1.2770    0.3080 C   0  0  0  0  0  0  0  0  0  0  0  0
   -0.6404   -0.1743    0.1964 C   0  0  0  0  0  0  0  0  0  0  0  0
   -0.6979   -1.3720    0.0842 C   0  0  0  0  0  0  0  0  0  0  0  0
   -0.7771   -2.8227   -0.0239 C   0  0  0  0  0  0  0  0  0  0  0  0
   -1.0007   -3.1935   -1.3804 O   0  0  0  0  0  0  0  0  0  0  0  0
    1.7798    3.8102   -0.2469 H   0  0  0  0  0  0  0  0  0  0  0  0
    0.0811    3.7597   -0.7410 H   0  0  0  0  0  0  0  0  0  0  0  0
    0.5054    3.7750    0.9778 H   0  0  0  0  0  0  0  0  0  0  0  0
    1.1322    1.5101   -0.9989 H   0  0  0  0  0  0  0  0  0  0  0  0
    1.9300    0.2424    1.0025 H   0  0  0  0  0  0  0  0  0  0  0  0
    2.8964    1.7059    0.7448 H   0  0  0  0  0  0  0  0  0  0  0  0
    1.6678    1.6703    2.0172 H   0  0  0  0  0  0  0  0  0  0  0  0
   -0.8548    1.5846    1.3196 H   0  0  0  0  0  0  0  0  0  0  0  0
   -1.2829    1.7320   -0.3744 H   0  0  0  0  0  0  0  0  0  0  0  0
    0.1573   -3.2658    0.3585 H   0  0  0  0  0  0  0  0  0  0  0  0
   -1.5893   -3.1887    0.6259 H   0  0  0  0  0  0  0  0  0  0  0  0
   -1.0489   -4.1546   -1.4090 H   0  0  0  0  0  0  0  0  0  0  0  0
  1  2  1  0  0  0  0
  1 11  1  0  0  0  0
  2  4  1  0  0  0  0
  2  3  1  0  0  0  0
  3 13  1  0  0  0  0
  3 15  1  0  0  0  0
  4 16  1  0  0  0  0
  5  4  1  0  0  0  0
  6  5  3  0  0  0  0
  7  6  1  0  0  0  0
  7 18  1  0  0  0  0
  7 19  1  0  0  0  0
  8  7  1  0  0  0  0
  9  1  1  0  0  0  0
 10  1  1  0  0  0  0
 12  2  1  0  0  0  0
 14  3  1  0  0  0  0
 17  4  1  0  0  0  0
 20  8  1  0  0  0  0
M  END
