22
title
C -1.7547716 2.9471018 -2.0004776
C -1.2883785 1.4920197 -2.1903572
C -0.6062403 0.95211905 -1.0177684
C -0.042879153 0.5382116 -0.035864055
C 0.6261315 0.00714193 1.1474743
C 0.55807465 -1.5354201 1.2725849
C 1.2560596 -2.2258148 0.09591681
C 1.1505728 -1.981471 2.6142507
H -0.9048396 3.603048 -1.7933129
H -2.258231 3.3086326 -2.9022894
H -2.4517488 3.0251381 -1.1615506
H -2.1535618 0.86134535 -2.4331484
H -0.6223653 1.4337867 -3.0611768
H 1.681817 0.31502828 1.1456094
H 0.18389757 0.4568124 2.0465193
H -0.50345874 -1.8145832 1.2527318
H 1.158963 -3.314132 0.16587311
H 0.830069 -1.9044255 -0.85844916
H 2.3269162 -1.9878255 0.08374339
H 0.62671655 -1.5208222 3.4587102
H 1.0850654 -3.0679266 2.7310672
H 2.2093809 -1.7043854 2.6869216
