title
 OpenBabel02282109583D

 22 21  0  0  0  0  0  0  0  0999 V2000
   -1.7548    2.9471   -2.0005 C   0  0  0  0  0  0  0  0  0  0  0  0
   -1.2884    1.4920   -2.1904 C   0  0  0  0  0  0  0  0  0  0  0  0
   -0.6062    0.9521   -1.0178 C   0  0  0  0  0  0  0  0  0  0  0  0
   -0.0429    0.5382   -0.0359 C   0  0  0  0  0  0  0  0  0  0  0  0
    0.6261    0.0071    1.1475 C   0  0  0  0  0  0  0  0  0  0  0  0
    0.5581   -1.5354    1.2726 C   0  0  0  0  0  0  0  0  0  0  0  0
    1.2561   -2.2258    0.0959 C   0  0  0  0  0  0  0  0  0  0  0  0
    1.1506   -1.9815    2.6143 C   0  0  0  0  0  0  0  0  0  0  0  0
   -0.9048    3.6030   -1.7933 H   0  0  0  0  0  0  0  0  0  0  0  0
   -2.2582    3.3086   -2.9023 H   0  0  0  0  0  0  0  0  0  0  0  0
   -2.4517    3.0251   -1.1616 H   0  0  0  0  0  0  0  0  0  0  0  0
   -2.1536    0.8613   -2.4331 H   0  0  0  0  0  0  0  0  0  0  0  0
   -0.6224    1.4338   -3.0612 H   0  0  0  0  0  0  0  0  0  0  0  0
    1.6818    0.3150    1.1456 H   0  0  0  0  0  0  0  0  0  0  0  0
    0.1839    0.4568    2.0465 H   0  0  0  0  0  0  0  0  0  0  0  0
   -0.5035   -1.8146    1.2527 H   0  0  0  0  0  0  0  0  0  0  0  0
    1.1590   -3.3141    0.1659 H   0  0  0  0  0  0  0  0  0  0  0  0
    0.8301   -1.9044   -0.8584 H   0  0  0  0  0  0  0  0  0  0  0  0
    2.3269   -1.9878    0.0837 H   0  0  0  0  0  0  0  0  0  0  0  0
    0.6267   -1.5208    3.4587 H   0  0  0  0  0  0  0  0  0  0  0  0
    1.0851   -3.0679    2.7311 H   0  0  0  0  0  0  0  0  0  0  0  0
    2.2094   -1.7044    2.6869 H   0  0  0  0  0  0  0  0  0  0  0  0
  1  9  1  0  0  0  0
  1 11  1  0  0  0  0
  2  1  1  0  0  0  0
  2  3  1  0  0  0  0
  3  4  3  0  0  0  0
  4  5  1  0  0  0  0
  5  6  1  0  0  0  0
  5 15  1  0  0  0  0
  6  8  1  0  0  0  0
  7 17  1  0  0  0  0
  7  6  1  0  0  0  0
  8 22  1  0  0  0  0
  8 21  1  0  0  0  0
  8 20  1  0  0  0  0
 10  1  1  0  0  0  0
 12  2  1  0  0  0  0
 13  2  1  0  0  0  0
 14  5  1  0  0  0  0
 16  6  1  0  0  0  0
 18  7  1  0  0  0  0
 19  7  1  0  0  0  0
M  END
