title
 OpenBabel02282109583D

 18 17  0  0  0  0  0  0  0  0999 V2000
   -1.2685    1.9565    2.2624 C   0  0  0  0  0  0  0  0  0  0  0  0
   -1.2623    0.4521    2.5462 C   0  0  0  0  0  0  0  0  0  0  0  0
   -0.6993   -0.4464    1.5496 N   0  0  0  0  0  0  0  0  0  0  0  0
   -0.2272    0.0157    0.4708 C   0  0  0  0  0  0  0  0  0  0  0  0
    0.3097   -0.8479   -0.4775 N   0  0  0  0  0  0  0  0  0  0  0  0
    0.8466   -0.4309   -1.6823 C   0  0  0  0  0  0  0  0  0  0  0  0
    1.3691   -1.5612   -2.5507 C   0  0  0  0  0  0  0  0  0  0  0  0
    0.8890    0.7383   -2.0037 O   0  0  0  0  0  0  0  0  0  0  0  0
   -0.2557    2.3512    2.1294 H   0  0  0  0  0  0  0  0  0  0  0  0
   -1.8485    2.2008    1.3662 H   0  0  0  0  0  0  0  0  0  0  0  0
   -1.7226    2.4854    3.1057 H   0  0  0  0  0  0  0  0  0  0  0  0
   -0.7247    0.2609    3.4849 H   0  0  0  0  0  0  0  0  0  0  0  0
   -2.2902    0.1128    2.7341 H   0  0  0  0  0  0  0  0  0  0  0  0
   -0.1759    1.0581    0.1559 H   0  0  0  0  0  0  0  0  0  0  0  0
    0.2901   -1.8294   -0.2408 H   0  0  0  0  0  0  0  0  0  0  0  0
    2.1516   -2.1230   -2.0298 H   0  0  0  0  0  0  0  0  0  0  0  0
    0.5660   -2.2628   -2.7999 H   0  0  0  0  0  0  0  0  0  0  0  0
    1.7768   -1.1383   -3.4680 H   0  0  0  0  0  0  0  0  0  0  0  0
  1  2  1  0  0  0  0
  1 11  1  0  0  0  0
  2 13  1  0  0  0  0
  2 12  1  0  0  0  0
  3  2  1  0  0  0  0
  4  3  2  0  0  0  0
  5 15  1  0  0  0  0
  5  4  1  0  0  0  0
  6  5  1  0  0  0  0
  7 16  1  0  0  0  0
  7  6  1  0  0  0  0
  8  6  2  0  0  0  0
  9  1  1  0  0  0  0
 10  1  1  0  0  0  0
 14  4  1  0  0  0  0
 17  7  1  0  0  0  0
 18  7  1  0  0  0  0
M  END
