17
title
C -1.6019781 2.1367424 1.7758346
C -2.4109435 1.0960094 0.99711204
N -1.7010224 0.11803735 0.18558544
C -0.4500885 0.13550694 0.13152784
O 0.17072485 -0.8150571 -0.6534993
C 1.5411592 -0.8002499 -0.71615213
C 2.018752 -1.9073677 -1.6171222
O 2.2326465 -0.012107659 -0.13072306
H -0.9276185 1.6700333 2.5014694
H -1.0030234 2.7685792 1.1116364
H -2.2839382 2.789465 2.3287566
H -3.0409393 0.52469903 1.6912369
H -3.1150408 1.6042119 0.32548994
H 0.2516315 0.80626327 0.62363756
H 3.1066465 -1.893295 -1.6652589
H 1.6696157 -2.871872 -1.237577
H 1.5944507 -1.7815177 -2.617296
