title
 OpenBabel02282109583D

 17 16  0  0  0  0  0  0  0  0999 V2000
   -1.6020    2.1367    1.7758 C   0  0  0  0  0  0  0  0  0  0  0  0
   -2.4109    1.0960    0.9971 C   0  0  0  0  0  0  0  0  0  0  0  0
   -1.7010    0.1180    0.1856 N   0  0  0  0  0  0  0  0  0  0  0  0
   -0.4501    0.1355    0.1315 C   0  0  0  0  0  0  0  0  0  0  0  0
    0.1707   -0.8151   -0.6535 O   0  0  0  0  0  0  0  0  0  0  0  0
    1.5412   -0.8002   -0.7162 C   0  0  0  0  0  0  0  0  0  0  0  0
    2.0188   -1.9074   -1.6171 C   0  0  0  0  0  0  0  0  0  0  0  0
    2.2326   -0.0121   -0.1307 O   0  0  0  0  0  0  0  0  0  0  0  0
   -0.9276    1.6700    2.5015 H   0  0  0  0  0  0  0  0  0  0  0  0
   -1.0030    2.7686    1.1116 H   0  0  0  0  0  0  0  0  0  0  0  0
   -2.2839    2.7895    2.3288 H   0  0  0  0  0  0  0  0  0  0  0  0
   -3.0409    0.5247    1.6912 H   0  0  0  0  0  0  0  0  0  0  0  0
   -3.1150    1.6042    0.3255 H   0  0  0  0  0  0  0  0  0  0  0  0
    0.2516    0.8063    0.6236 H   0  0  0  0  0  0  0  0  0  0  0  0
    3.1066   -1.8933   -1.6653 H   0  0  0  0  0  0  0  0  0  0  0  0
    1.6696   -2.8719   -1.2376 H   0  0  0  0  0  0  0  0  0  0  0  0
    1.5945   -1.7815   -2.6173 H   0  0  0  0  0  0  0  0  0  0  0  0
  1 11  1  0  0  0  0
  1  9  1  0  0  0  0
  2 12  1  0  0  0  0
  2  1  1  0  0  0  0
  3  2  1  0  0  0  0
  4  3  2  0  0  0  0
  4 14  1  0  0  0  0
  5  4  1  0  0  0  0
  6  5  1  0  0  0  0
  6  8  2  0  0  0  0
  7 16  1  0  0  0  0
  7  6  1  0  0  0  0
 10  1  1  0  0  0  0
 13  2  1  0  0  0  0
 15  7  1  0  0  0  0
 17  7  1  0  0  0  0
M  END
