title
 OpenBabel02282109583D

 16 15  0  0  0  0  0  0  0  0999 V2000
    1.8002    2.8468    0.2720 C   0  0  0  0  0  0  0  0  0  0  0  0
    1.7022    1.5244    0.7891 O   0  0  0  0  0  0  0  0  0  0  0  0
    0.5118    0.9243    0.6191 C   0  0  0  0  0  0  0  0  0  0  0  0
    0.3334   -0.2538    1.0344 N   0  0  0  0  0  0  0  0  0  0  0  0
   -0.9553   -0.8442    0.7521 C   0  0  0  0  0  0  0  0  0  0  0  0
   -1.0633   -1.2800   -0.7226 C   0  0  0  0  0  0  0  0  0  0  0  0
   -1.6320   -2.5027   -0.9219 N   0  0  0  0  0  0  0  0  0  0  0  0
   -0.7194   -0.5530   -1.6322 O   0  0  0  0  0  0  0  0  0  0  0  0
    2.8086    3.1921    0.5024 H   0  0  0  0  0  0  0  0  0  0  0  0
    1.6528    2.8619   -0.8141 H   0  0  0  0  0  0  0  0  0  0  0  0
    1.0743    3.5186    0.7461 H   0  0  0  0  0  0  0  0  0  0  0  0
   -0.2441    1.5391    0.1133 H   0  0  0  0  0  0  0  0  0  0  0  0
   -1.1129   -1.6942    1.4235 H   0  0  0  0  0  0  0  0  0  0  0  0
   -1.7958   -0.1490    0.9137 H   0  0  0  0  0  0  0  0  0  0  0  0
   -1.7482   -3.1581   -0.1691 H   0  0  0  0  0  0  0  0  0  0  0  0
   -1.6866   -2.8480   -1.8669 H   0  0  0  0  0  0  0  0  0  0  0  0
  1  9  1  0  0  0  0
  1 11  1  0  0  0  0
  1  2  1  0  0  0  0
  3  2  1  0  0  0  0
  3  4  2  0  0  0  0
  5 14  1  0  0  0  0
  5  4  1  0  0  0  0
  5 13  1  0  0  0  0
  6  5  1  0  0  0  0
  7  6  1  0  0  0  0
  7 15  1  0  0  0  0
  8  6  2  0  0  0  0
 10  1  1  0  0  0  0
 12  3  1  0  0  0  0
 16  7  1  0  0  0  0
M  END
