title
 OpenBabel02282109583D

 21 20  0  0  0  0  0  0  0  0999 V2000
    1.7498    3.1026    0.7591 C   0  0  0  0  0  0  0  0  0  0  0  0
    1.8388    1.6902    0.6237 O   0  0  0  0  0  0  0  0  0  0  0  0
    0.6653    1.0271    0.6608 C   0  0  0  0  0  0  0  0  0  0  0  0
    0.6254   -0.2194    0.5007 N   0  0  0  0  0  0  0  0  0  0  0  0
   -0.6683   -0.8708    0.5727 C   0  0  0  0  0  0  0  0  0  0  0  0
   -0.9580   -1.7084   -0.6863 C   0  0  0  0  0  0  0  0  0  0  0  0
   -2.2301   -2.5412   -0.4881 C   0  0  0  0  0  0  0  0  0  0  0  0
   -1.0526   -0.8300   -1.9386 C   0  0  0  0  0  0  0  0  0  0  0  0
    2.7746    3.4756    0.7722 H   0  0  0  0  0  0  0  0  0  0  0  0
    1.2147    3.5549   -0.0850 H   0  0  0  0  0  0  0  0  0  0  0  0
    1.2533    3.3879    1.6949 H   0  0  0  0  0  0  0  0  0  0  0  0
   -0.2134    1.6660    0.8476 H   0  0  0  0  0  0  0  0  0  0  0  0
   -0.6593   -1.5434    1.4409 H   0  0  0  0  0  0  0  0  0  0  0  0
   -1.4951   -0.1526    0.7310 H   0  0  0  0  0  0  0  0  0  0  0  0
   -0.1083   -2.3919   -0.8118 H   0  0  0  0  0  0  0  0  0  0  0  0
   -3.1054   -1.8971   -0.3392 H   0  0  0  0  0  0  0  0  0  0  0  0
   -2.4292   -3.1691   -1.3624 H   0  0  0  0  0  0  0  0  0  0  0  0
   -2.1482   -3.1982    0.3846 H   0  0  0  0  0  0  0  0  0  0  0  0
   -1.2175   -1.4377   -2.8343 H   0  0  0  0  0  0  0  0  0  0  0  0
   -1.8893   -0.1239   -1.8592 H   0  0  0  0  0  0  0  0  0  0  0  0
   -0.1357   -0.2529   -2.0851 H   0  0  0  0  0  0  0  0  0  0  0  0
  1  9  1  0  0  0  0
  1 11  1  0  0  0  0
  2  3  1  0  0  0  0
  2  1  1  0  0  0  0
  3 12  1  0  0  0  0
  4  5  1  0  0  0  0
  4  3  2  0  0  0  0
  5 14  1  0  0  0  0
  5 13  1  0  0  0  0
  6  7  1  0  0  0  0
  6  5  1  0  0  0  0
  7 16  1  0  0  0  0
  7 18  1  0  0  0  0
  8 20  1  0  0  0  0
  8  6  1  0  0  0  0
 10  1  1  0  0  0  0
 15  6  1  0  0  0  0
 17  7  1  0  0  0  0
 19  8  1  0  0  0  0
 21  8  1  0  0  0  0
M  END
