19
title
C -1.0316144 2.5856178 -1.8744042
O 0.06776685 1.6850299 -1.868032
C 0.06055362 0.77335894 -0.86912847
N 1.0212575 -0.033850648 -0.76855457
C 1.0457826 -1.0492672 0.26645315
C -0.2255999 -1.3463212 1.0772895
C -0.042325545 -2.5746214 1.9704036
O -0.6597561 -0.21900365 1.8433126
H -1.0401422 3.219626 -0.9791149
H -0.9083889 3.2164285 -2.7558177
H -1.9893078 2.0549912 -1.9458973
H -0.809517 0.8325787 -0.20704304
H 1.3678145 -1.9858419 -0.20856892
H 1.8562521 -0.7972337 0.9703218
H -1.0521022 -1.5324324 0.37983382
H 0.80452657 -2.4378698 2.6544714
H -0.94107085 -2.737499 2.5706825
H 0.14914514 -3.4744127 1.3773221
H 0.06978453 0.04217329 2.4166188
