title
 OpenBabel02282109583D

 16 15  0  0  0  0  0  0  0  0999 V2000
    1.6556    2.9713    0.0006 C   0  0  0  0  0  0  0  0  0  0  0  0
    1.7884    1.4615   -0.0092 C   0  0  0  0  0  0  0  0  0  0  0  0
    2.8610    0.8949   -0.0228 O   0  0  0  0  0  0  0  0  0  0  0  0
    0.5381    0.7260   -0.0013 C   0  0  0  0  0  0  0  0  0  0  0  0
   -0.5053    0.1180    0.0054 C   0  0  0  0  0  0  0  0  0  0  0  0
   -1.7377   -0.6526    0.0130 C   0  0  0  0  0  0  0  0  0  0  0  0
   -1.4952   -2.1668    0.0026 C   0  0  0  0  0  0  0  0  0  0  0  0
   -2.7719   -2.7789    0.0116 O   0  0  0  0  0  0  0  0  0  0  0  0
    2.6474    3.4258   -0.0064 H   0  0  0  0  0  0  0  0  0  0  0  0
    1.0832    3.3038   -0.8721 H   0  0  0  0  0  0  0  0  0  0  0  0
    1.1002    3.2939    0.8879 H   0  0  0  0  0  0  0  0  0  0  0  0
   -2.3346   -0.3976    0.8975 H   0  0  0  0  0  0  0  0  0  0  0  0
   -2.3514   -0.3882   -0.8571 H   0  0  0  0  0  0  0  0  0  0  0  0
   -0.9155   -2.4372   -0.8920 H   0  0  0  0  0  0  0  0  0  0  0  0
   -0.8985   -2.4466    0.8830 H   0  0  0  0  0  0  0  0  0  0  0  0
   -2.6512   -3.7328    0.0050 H   0  0  0  0  0  0  0  0  0  0  0  0
  1 11  1  0  0  0  0
  2  4  1  0  0  0  0
  2  1  1  0  0  0  0
  3  2  2  0  0  0  0
  4  5  3  0  0  0  0
  5  6  1  0  0  0  0
  6 12  1  0  0  0  0
  7  8  1  0  0  0  0
  7  6  1  0  0  0  0
  7 15  1  0  0  0  0
  9  1  1  0  0  0  0
 10  1  1  0  0  0  0
 13  6  1  0  0  0  0
 14  7  1  0  0  0  0
 16  8  1  0  0  0  0
M  END
