16
title
C 1.6556084 2.971333 0.0005972774
C 1.78838 1.4614755 -0.0092109265
O 2.8609793 0.894909 -0.022770852
C 0.5381109 0.7260182 -0.0013221616
C -0.50527626 0.11797902 0.005352043
C -1.7377335 -0.65258276 0.013027542
C -1.4951876 -2.1668336 0.002615431
O -2.7718854 -2.7788932 0.0115818
H 2.6473596 3.4258296 -0.0063786344
H 1.0832485 3.3038366 -0.8721259
H 1.1001799 3.2938967 0.8878694
H -2.3346024 -0.3975927 0.8974641
H -2.3513508 -0.38820556 -0.857076
H -0.9154926 -2.4371765 -0.89198714
H -0.8984981 -2.4466405 0.88302535
H -2.651204 -3.732762 0.005023888
