17
title
C -0.6111504 3.9856124 -0.93089646
C -0.58659655 2.4562447 -0.92523265
C 0.15423521 1.8901427 0.3040944
C 0.19237581 0.43453914 0.33419272
C 0.20628467 -0.7714465 0.32964668
C 0.19185898 -2.2248585 0.26264164
N 0.787468 -2.8314302 1.3326359
O -0.313182 -2.8414638 -0.6560213
H 0.40295222 4.4003806 -0.9473568
H -1.1402569 4.3662624 -1.8092941
H -1.1159142 4.3793416 -0.041576046
H -1.6077175 2.0602686 -0.9349091
H -0.10185507 2.0810256 -1.832874
H 1.1817713 2.2781875 0.3251885
H -0.32289302 2.257721 1.2228045
H 1.2629466 -2.299493 2.039989
H 0.8669823 -3.8350518 1.3262222
