title
 OpenBabel02282109583D

 17 16  0  0  0  0  0  0  0  0999 V2000
   -0.6112    3.9856   -0.9309 C   0  0  0  0  0  0  0  0  0  0  0  0
   -0.5866    2.4562   -0.9252 C   0  0  0  0  0  0  0  0  0  0  0  0
    0.1542    1.8901    0.3041 C   0  0  0  0  0  0  0  0  0  0  0  0
    0.1924    0.4345    0.3342 C   0  0  0  0  0  0  0  0  0  0  0  0
    0.2063   -0.7714    0.3296 C   0  0  0  0  0  0  0  0  0  0  0  0
    0.1919   -2.2249    0.2626 C   0  0  0  0  0  0  0  0  0  0  0  0
    0.7875   -2.8314    1.3326 N   0  0  0  0  0  0  0  0  0  0  0  0
   -0.3132   -2.8415   -0.6560 O   0  0  0  0  0  0  0  0  0  0  0  0
    0.4030    4.4004   -0.9474 H   0  0  0  0  0  0  0  0  0  0  0  0
   -1.1403    4.3663   -1.8093 H   0  0  0  0  0  0  0  0  0  0  0  0
   -1.1159    4.3793   -0.0416 H   0  0  0  0  0  0  0  0  0  0  0  0
   -1.6077    2.0603   -0.9349 H   0  0  0  0  0  0  0  0  0  0  0  0
   -0.1019    2.0810   -1.8329 H   0  0  0  0  0  0  0  0  0  0  0  0
    1.1818    2.2782    0.3252 H   0  0  0  0  0  0  0  0  0  0  0  0
   -0.3229    2.2577    1.2228 H   0  0  0  0  0  0  0  0  0  0  0  0
    1.2629   -2.2995    2.0400 H   0  0  0  0  0  0  0  0  0  0  0  0
    0.8670   -3.8351    1.3262 H   0  0  0  0  0  0  0  0  0  0  0  0
  1  2  1  0  0  0  0
  1 11  1  0  0  0  0
  2  3  1  0  0  0  0
  3 14  1  0  0  0  0
  3  4  1  0  0  0  0
  3 15  1  0  0  0  0
  5  4  3  0  0  0  0
  6  5  1  0  0  0  0
  6  7  1  0  0  0  0
  7 16  1  0  0  0  0
  8  6  2  0  0  0  0
  9  1  1  0  0  0  0
 10  1  1  0  0  0  0
 12  2  1  0  0  0  0
 13  2  1  0  0  0  0
 17  7  1  0  0  0  0
M  END
