16
title
C -0.4948038 3.8268797 0.63469964
O -0.44285017 2.4206302 0.7319439
C 0.057038806 1.826381 -0.44450682
C 0.095919155 0.37851107 -0.3070945
C 0.13703063 -0.8240427 -0.21483743
C 0.18606803 -2.270368 -0.10278285
C 0.713591 -2.9968867 -1.3237641
O -0.17303085 -2.842647 0.9035379
H 0.5031617 4.262194 0.46804821
H -1.1553717 4.155899 -0.18298167
H -0.890406 4.1985426 1.5818344
H -0.5691888 2.0906293 -1.3156067
H 1.0733709 2.195977 -0.6709272
H 1.7299609 -2.6589417 -1.5532176
H 0.70999825 -4.071767 -1.1374387
H 0.09422042 -2.764998 -2.1969526
