title
 OpenBabel02282109583D

 15 14  0  0  0  0  0  0  0  0999 V2000
   -0.4231    3.8388   -0.6516 C   0  0  0  0  0  0  0  0  0  0  0  0
   -0.4365    2.4298   -0.7066 O   0  0  0  0  0  0  0  0  0  0  0  0
    0.2114    1.8501    0.4035 C   0  0  0  0  0  0  0  0  0  0  0  0
    0.1738    0.3975    0.3089 C   0  0  0  0  0  0  0  0  0  0  0  0
    0.1561   -0.8060    0.2549 C   0  0  0  0  0  0  0  0  0  0  0  0
    0.0980   -2.2556    0.1245 C   0  0  0  0  0  0  0  0  0  0  0  0
    0.7123   -2.9243    1.1447 N   0  0  0  0  0  0  0  0  0  0  0  0
   -0.4564   -2.8107   -0.8032 O   0  0  0  0  0  0  0  0  0  0  0  0
    0.6035    4.2383   -0.6491 H   0  0  0  0  0  0  0  0  0  0  0  0
   -0.9415    4.1989   -1.5423 H   0  0  0  0  0  0  0  0  0  0  0  0
   -0.9425    4.2181    0.2427 H   0  0  0  0  0  0  0  0  0  0  0  0
    1.2625    2.1852    0.4626 H   0  0  0  0  0  0  0  0  0  0  0  0
   -0.2690    2.1664    1.3468 H   0  0  0  0  0  0  0  0  0  0  0  0
    1.2255   -2.4395    1.8596 H   0  0  0  0  0  0  0  0  0  0  0  0
    0.7596   -3.9287    1.0926 H   0  0  0  0  0  0  0  0  0  0  0  0
  1  9  1  0  0  0  0
  1 11  1  0  0  0  0
  2  1  1  0  0  0  0
  2  3  1  0  0  0  0
  3 12  1  0  0  0  0
  3 13  1  0  0  0  0
  4  3  1  0  0  0  0
  5  4  3  0  0  0  0
  6  5  1  0  0  0  0
  6  7  1  0  0  0  0
  7 14  1  0  0  0  0
  8  6  2  0  0  0  0
 10  1  1  0  0  0  0
 15  7  1  0  0  0  0
M  END
