15
title
C -0.42307532 3.838814 -0.6516154
O -0.4364655 2.4298139 -0.7066279
C 0.21140647 1.8501154 0.4035415
C 0.1738308 0.39746845 0.30886912
C 0.156084 -0.8060447 0.25493455
C 0.097953975 -2.2555978 0.12453847
N 0.7122697 -2.9242752 1.1446508
O -0.4564143 -2.8106973 -0.8032497
H 0.60351115 4.2382727 -0.6490548
H -0.94153804 4.198862 -1.5423336
H -0.94247764 4.218118 0.24267761
H 1.2625214 2.1851578 0.46256644
H -0.2690323 2.1663709 1.3467863
H 1.2254732 -2.4394991 1.8596177
H 0.7596019 -3.9286602 1.092584
