title
 OpenBabel02282109583D

 22 21  0  0  0  0  0  0  0  0999 V2000
    1.1352    3.9682    0.1778 C   0  0  0  0  0  0  0  0  0  0  0  0
    1.1393    2.4386    0.1512 C   0  0  0  0  0  0  0  0  0  0  0  0
   -0.2828    1.8451    0.2181 C   0  0  0  0  0  0  0  0  0  0  0  0
   -0.3016    0.3861    0.1923 C   0  0  0  0  0  0  0  0  0  0  0  0
   -0.2836   -0.8190    0.1753 C   0  0  0  0  0  0  0  0  0  0  0  0
   -0.2837   -2.2824    0.1341 C   0  0  0  0  0  0  0  0  0  0  0  0
   -1.7215   -2.8385    0.1529 C   0  0  0  0  0  0  0  0  0  0  0  0
    0.5010   -2.8049   -1.0857 C   0  0  0  0  0  0  0  0  0  0  0  0
    2.1526    4.3679    0.1283 H   0  0  0  0  0  0  0  0  0  0  0  0
    0.5746    4.3792   -0.6695 H   0  0  0  0  0  0  0  0  0  0  0  0
    0.6725    4.3489    1.0954 H   0  0  0  0  0  0  0  0  0  0  0  0
    1.6298    2.0782   -0.7600 H   0  0  0  0  0  0  0  0  0  0  0  0
    1.7250    2.0479    0.9908 H   0  0  0  0  0  0  0  0  0  0  0  0
   -0.7805    2.2050    1.1293 H   0  0  0  0  0  0  0  0  0  0  0  0
   -0.8759    2.2371   -0.6196 H   0  0  0  0  0  0  0  0  0  0  0  0
    0.2254   -2.6465    1.0379 H   0  0  0  0  0  0  0  0  0  0  0  0
   -1.7065   -3.9333    0.1642 H   0  0  0  0  0  0  0  0  0  0  0  0
   -2.2661   -2.4905    1.0346 H   0  0  0  0  0  0  0  0  0  0  0  0
   -2.2718   -2.5118   -0.7350 H   0  0  0  0  0  0  0  0  0  0  0  0
    1.5283   -2.4311   -1.0818 H   0  0  0  0  0  0  0  0  0  0  0  0
    0.5303   -3.8995   -1.0798 H   0  0  0  0  0  0  0  0  0  0  0  0
    0.0262   -2.4793   -2.0165 H   0  0  0  0  0  0  0  0  0  0  0  0
  1 11  1  0  0  0  0
  2  1  1  0  0  0  0
  2  3  1  0  0  0  0
  2 13  1  0  0  0  0
  3 14  1  0  0  0  0
  4  3  1  0  0  0  0
  5  4  3  0  0  0  0
  6  7  1  0  0  0  0
  6  5  1  0  0  0  0
  6 16  1  0  0  0  0
  7 17  1  0  0  0  0
  7 18  1  0  0  0  0
  8 20  1  0  0  0  0
  8 21  1  0  0  0  0
  8  6  1  0  0  0  0
  9  1  1  0  0  0  0
 10  1  1  0  0  0  0
 12  2  1  0  0  0  0
 15  3  1  0  0  0  0
 19  7  1  0  0  0  0
 22  8  1  0  0  0  0
M  END
