18
title
C -0.26961467 3.8683827 -0.7896183
O -0.2253911 2.4640305 -0.89037484
C 0.11878774 1.8550596 0.33835694
C 0.15376684 0.40635943 0.19301446
C 0.1936799 -0.79231167 0.083063744
C 0.21705154 -2.2552502 -0.011086442
C 1.1174544 -2.8718169 1.0700501
O -1.0948253 -2.813495 0.020012818
H 0.7055855 4.2898216 -0.4969644
H -0.54025024 4.2539897 -1.7748363
H -1.0209885 4.2037754 -0.056630112
H 1.1030185 2.2173033 0.6850514
H -0.607903 2.1331854 1.122377
H 0.60908586 -2.5370095 -0.99593925
H 0.756197 -2.603124 2.068015
H 1.1053504 -3.9604394 0.9730889
H 2.146434 -2.5137298 0.9723726
H -1.5464201 -2.4443986 0.78703123
