21
title
C 1.9266361 3.373868 -0.00035279413
C 1.9288843 1.8566337 -0.008886488
O 0.5681444 1.4162308 0.0023439417
C 0.38093966 0.08190895 -0.0026790078
N -0.7770619 -0.40857804 0.005395557
C -0.89717716 -1.8606688 -0.0014332829
C -1.6292647 -2.307724 1.2696394
C -1.653216 -2.2938652 -1.2632543
H 2.953336 3.7512474 -0.008602126
H 1.4048537 3.761982 -0.8791612
H 1.422739 3.752052 0.89310116
H 2.4365609 1.4720836 -0.90423644
H 2.4544425 1.4621143 0.8716866
H 1.3112742 -0.50918233 -0.014796559
H 0.09964735 -2.3398442 -0.013474157
H -2.6186695 -1.842657 1.3195349
H -1.7535018 -3.3954802 1.2829766
H -1.0725614 -2.0129578 2.1641557
H -1.7777985 -3.3814235 -1.2861623
H -2.6433392 -1.8283824 -1.2893355
H -1.1134981 -1.9892558 -2.1648538
