title
 OpenBabel02282109583D

 18 17  0  0  0  0  0  0  0  0999 V2000
    1.0384    3.2064    0.0075 C   0  0  0  0  0  0  0  0  0  0  0  0
    1.2921    1.7178   -0.0031 C   0  0  0  0  0  0  0  0  0  0  0  0
    2.3745    1.1884   -0.0163 O   0  0  0  0  0  0  0  0  0  0  0  0
    0.1268    1.0362    0.0042 O   0  0  0  0  0  0  0  0  0  0  0  0
    0.2424   -0.3980   -0.0047 C   0  0  0  0  0  0  0  0  0  0  0  0
   -1.1650   -0.9707    0.0060 C   0  0  0  0  0  0  0  0  0  0  0  0
   -1.1638   -2.4947   -0.0023 C   0  0  0  0  0  0  0  0  0  0  0  0
   -2.5158   -2.9227    0.0084 O   0  0  0  0  0  0  0  0  0  0  0  0
    1.9899    3.7363    0.0009 H   0  0  0  0  0  0  0  0  0  0  0  0
    0.4450    3.4922   -0.8656 H   0  0  0  0  0  0  0  0  0  0  0  0
    0.4625    3.4827    0.8953 H   0  0  0  0  0  0  0  0  0  0  0  0
    0.8040   -0.7053   -0.8936 H   0  0  0  0  0  0  0  0  0  0  0  0
    0.8213   -0.7149    0.8697 H   0  0  0  0  0  0  0  0  0  0  0  0
   -1.7012   -0.6192    0.8938 H   0  0  0  0  0  0  0  0  0  0  0  0
   -1.7184   -0.6097   -0.8674 H   0  0  0  0  0  0  0  0  0  0  0  0
   -0.6344   -2.8638   -0.8962 H   0  0  0  0  0  0  0  0  0  0  0  0
   -0.6174   -2.8734    0.8772 H   0  0  0  0  0  0  0  0  0  0  0  0
   -2.5271   -3.8842    0.0040 H   0  0  0  0  0  0  0  0  0  0  0  0
  1 11  1  0  0  0  0
  2  4  1  0  0  0  0
  2  1  1  0  0  0  0
  3  2  2  0  0  0  0
  5  4  1  0  0  0  0
  5  6  1  0  0  0  0
  5 13  1  0  0  0  0
  6 14  1  0  0  0  0
  7  6  1  0  0  0  0
  7  8  1  0  0  0  0
  7 17  1  0  0  0  0
  9  1  1  0  0  0  0
 10  1  1  0  0  0  0
 12  5  1  0  0  0  0
 15  6  1  0  0  0  0
 16  7  1  0  0  0  0
 18  8  1  0  0  0  0
M  END
