22
title
C 1.7985158 3.7836797 0.10576427
C 1.8008912 2.2569091 -0.007022064
C 0.39977986 1.6423066 0.08257541
C 0.40126628 0.114793286 -0.030184329
C -0.9975516 -0.49361777 0.059666313
C -1.0225532 -2.0135458 -0.05006847
C -2.3908303 -2.6703947 0.034183692
O -0.012652109 -2.663593 -0.19592446
H 2.8118775 4.1916943 0.038272657
H 1.2027367 4.2391863 -0.69328535
H 1.3716395 4.1098623 1.0609088
H 2.26495 1.9592009 -0.9565106
H 2.4325 1.8309157 0.78361696
H -0.06595773 1.9407661 1.0328349
H -0.23361297 2.0691319 -0.7083838
H 0.86324173 -0.19075443 -0.9760895
H 1.0300673 -0.31845188 0.7562234
H -1.4878738 -0.21589853 1.0043569
H -1.6542866 -0.088458315 -0.7242601
H -3.045523 -2.2941673 -0.7600066
H -2.2889025 -3.7524273 -0.056509096
H -2.8751457 -2.4246109 0.98600763
