title
 OpenBabel02282109583D

 22 21  0  0  0  0  0  0  0  0999 V2000
    1.7985    3.7837    0.1058 C   0  0  0  0  0  0  0  0  0  0  0  0
    1.8009    2.2569   -0.0070 C   0  0  0  0  0  0  0  0  0  0  0  0
    0.3998    1.6423    0.0826 C   0  0  0  0  0  0  0  0  0  0  0  0
    0.4013    0.1148   -0.0302 C   0  0  0  0  0  0  0  0  0  0  0  0
   -0.9976   -0.4936    0.0597 C   0  0  0  0  0  0  0  0  0  0  0  0
   -1.0226   -2.0135   -0.0501 C   0  0  0  0  0  0  0  0  0  0  0  0
   -2.3908   -2.6704    0.0342 C   0  0  0  0  0  0  0  0  0  0  0  0
   -0.0127   -2.6636   -0.1959 O   0  0  0  0  0  0  0  0  0  0  0  0
    2.8119    4.1917    0.0383 H   0  0  0  0  0  0  0  0  0  0  0  0
    1.2027    4.2392   -0.6933 H   0  0  0  0  0  0  0  0  0  0  0  0
    1.3716    4.1099    1.0609 H   0  0  0  0  0  0  0  0  0  0  0  0
    2.2649    1.9592   -0.9565 H   0  0  0  0  0  0  0  0  0  0  0  0
    2.4325    1.8309    0.7836 H   0  0  0  0  0  0  0  0  0  0  0  0
   -0.0660    1.9408    1.0328 H   0  0  0  0  0  0  0  0  0  0  0  0
   -0.2336    2.0691   -0.7084 H   0  0  0  0  0  0  0  0  0  0  0  0
    0.8632   -0.1908   -0.9761 H   0  0  0  0  0  0  0  0  0  0  0  0
    1.0301   -0.3185    0.7562 H   0  0  0  0  0  0  0  0  0  0  0  0
   -1.4879   -0.2159    1.0044 H   0  0  0  0  0  0  0  0  0  0  0  0
   -1.6543   -0.0885   -0.7243 H   0  0  0  0  0  0  0  0  0  0  0  0
   -3.0455   -2.2942   -0.7600 H   0  0  0  0  0  0  0  0  0  0  0  0
   -2.2889   -3.7524   -0.0565 H   0  0  0  0  0  0  0  0  0  0  0  0
   -2.8751   -2.4246    0.9860 H   0  0  0  0  0  0  0  0  0  0  0  0
  1 11  1  0  0  0  0
  2  3  1  0  0  0  0
  2  1  1  0  0  0  0
  2 13  1  0  0  0  0
  3 14  1  0  0  0  0
  4  5  1  0  0  0  0
  4  3  1  0  0  0  0
  4 17  1  0  0  0  0
  5 18  1  0  0  0  0
  6  7  1  0  0  0  0
  6  5  1  0  0  0  0
  7 22  1  0  0  0  0
  8  6  2  0  0  0  0
  9  1  1  0  0  0  0
 10  1  1  0  0  0  0
 12  2  1  0  0  0  0
 15  3  1  0  0  0  0
 16  4  1  0  0  0  0
 19  5  1  0  0  0  0
 20  7  1  0  0  0  0
 21  7  1  0  0  0  0
M  END
