20
title
C -1.1972656 3.538486 1.5911713
C -0.834805 2.0594962 1.7489399
C -0.17063999 1.4679564 0.501541
C 0.19387603 -0.009385275 0.6716051
N 0.83387816 -0.56374353 -0.50988996
C 0.42651927 -1.7591895 -1.0552016
N 1.2511396 -2.2138798 -2.0841482
O -0.54501456 -2.3853343 -0.6734518
H -0.3073451 4.145057 1.3888181
H -1.8943775 3.6882653 0.75936234
H -1.6696569 3.9326143 2.4962602
H -0.16516364 1.9360819 2.6105971
H -1.7387168 1.4825435 1.9838662
H -0.836914 1.570603 -0.36408842
H 0.7346562 2.0449083 0.26294684
H 0.84062386 -0.13395946 1.5527933
H -0.7000244 -0.6140751 0.8413096
H 1.765455 -0.24558131 -0.72431195
H 1.6883514 -1.5145253 -2.6665928
H 0.8148917 -2.956124 -2.6106598
