title
 OpenBabel02282109583D

 20 19  0  0  0  0  0  0  0  0999 V2000
   -1.1973    3.5385    1.5912 C   0  0  0  0  0  0  0  0  0  0  0  0
   -0.8348    2.0595    1.7489 C   0  0  0  0  0  0  0  0  0  0  0  0
   -0.1706    1.4680    0.5015 C   0  0  0  0  0  0  0  0  0  0  0  0
    0.1939   -0.0094    0.6716 C   0  0  0  0  0  0  0  0  0  0  0  0
    0.8339   -0.5637   -0.5099 N   0  0  0  0  0  0  0  0  0  0  0  0
    0.4265   -1.7592   -1.0552 C   0  0  0  0  0  0  0  0  0  0  0  0
    1.2511   -2.2139   -2.0841 N   0  0  0  0  0  0  0  0  0  0  0  0
   -0.5450   -2.3853   -0.6735 O   0  0  0  0  0  0  0  0  0  0  0  0
   -0.3073    4.1451    1.3888 H   0  0  0  0  0  0  0  0  0  0  0  0
   -1.8944    3.6883    0.7594 H   0  0  0  0  0  0  0  0  0  0  0  0
   -1.6697    3.9326    2.4963 H   0  0  0  0  0  0  0  0  0  0  0  0
   -0.1652    1.9361    2.6106 H   0  0  0  0  0  0  0  0  0  0  0  0
   -1.7387    1.4825    1.9839 H   0  0  0  0  0  0  0  0  0  0  0  0
   -0.8369    1.5706   -0.3641 H   0  0  0  0  0  0  0  0  0  0  0  0
    0.7347    2.0449    0.2629 H   0  0  0  0  0  0  0  0  0  0  0  0
    0.8406   -0.1340    1.5528 H   0  0  0  0  0  0  0  0  0  0  0  0
   -0.7000   -0.6141    0.8413 H   0  0  0  0  0  0  0  0  0  0  0  0
    1.7655   -0.2456   -0.7243 H   0  0  0  0  0  0  0  0  0  0  0  0
    1.6884   -1.5145   -2.6666 H   0  0  0  0  0  0  0  0  0  0  0  0
    0.8149   -2.9561   -2.6107 H   0  0  0  0  0  0  0  0  0  0  0  0
  1  2  1  0  0  0  0
  1 11  1  0  0  0  0
  2 13  1  0  0  0  0
  2 12  1  0  0  0  0
  3  4  1  0  0  0  0
  3  2  1  0  0  0  0
  4 17  1  0  0  0  0
  4 16  1  0  0  0  0
  5  4  1  0  0  0  0
  6  8  2  0  0  0  0
  6  5  1  0  0  0  0
  7  6  1  0  0  0  0
  9  1  1  0  0  0  0
 10  1  1  0  0  0  0
 14  3  1  0  0  0  0
 15  3  1  0  0  0  0
 18  5  1  0  0  0  0
 19  7  1  0  0  0  0
 20  7  1  0  0  0  0
M  END
