20
title
C 1.7867117 3.656674 0.123253256
C 1.8214192 2.1308806 0.002887959
C 0.42772314 1.4972104 0.07730816
C 0.4765552 -0.01686031 -0.04340734
O -0.87453413 -0.5099543 0.03805742
C -1.0188255 -1.8483156 -0.052090693
C -2.4756012 -2.2352896 0.0469407
O -0.09733965 -2.6123319 -0.1922651
H 2.7928393 4.083109 0.067144215
H 1.1896484 4.103305 -0.679379
H 1.344736 3.9683576 1.0759826
H 2.3000007 1.8486087 -0.9439915
H 2.4539 1.7146962 0.79790795
H -0.05495884 1.764578 1.0255064
H -0.20922567 1.8988123 -0.7205386
H 0.91624093 -0.33579975 -0.99465394
H 1.0710133 -0.47047192 0.7570752
H -3.0471048 -1.7539304 -0.75171816
H -2.5693064 -3.3178487 -0.028654803
H -2.8921256 -1.8894933 0.99726456
