title
 OpenBabel02282109583D

 20 19  0  0  0  0  0  0  0  0999 V2000
    1.7493    3.4596   -0.1878 C   0  0  0  0  0  0  0  0  0  0  0  0
    1.4892    1.9512   -0.2390 C   0  0  0  0  0  0  0  0  0  0  0  0
   -0.0015    1.6349   -0.3794 C   0  0  0  0  0  0  0  0  0  0  0  0
   -0.2848    0.2554   -0.5479 O   0  0  0  0  0  0  0  0  0  0  0  0
   -0.1889   -0.5185    0.6220 C   0  0  0  0  0  0  0  0  0  0  0  0
   -0.7385   -1.9294    0.3970 C   0  0  0  0  0  0  0  0  0  0  0  0
   -1.4127   -2.2135   -0.9251 C   0  0  0  0  0  0  0  0  0  0  0  0
   -0.6250   -2.7511    1.2760 O   0  0  0  0  0  0  0  0  0  0  0  0
    2.8174    3.6729   -0.0892 H   0  0  0  0  0  0  0  0  0  0  0  0
    1.3937    3.9552   -1.0978 H   0  0  0  0  0  0  0  0  0  0  0  0
    1.2386    3.9243    0.6629 H   0  0  0  0  0  0  0  0  0  0  0  0
    2.0188    1.5017   -1.0871 H   0  0  0  0  0  0  0  0  0  0  0  0
    1.8877    1.4798    0.6671 H   0  0  0  0  0  0  0  0  0  0  0  0
   -0.5566    2.0302    0.4880 H   0  0  0  0  0  0  0  0  0  0  0  0
   -0.3994    2.1256   -1.2747 H   0  0  0  0  0  0  0  0  0  0  0  0
    0.8455   -0.6221    0.9813 H   0  0  0  0  0  0  0  0  0  0  0  0
   -0.7686   -0.0691    1.4470 H   0  0  0  0  0  0  0  0  0  0  0  0
   -0.7124   -2.0346   -1.7471 H   0  0  0  0  0  0  0  0  0  0  0  0
   -1.7673   -3.2445   -0.9399 H   0  0  0  0  0  0  0  0  0  0  0  0
   -2.2442   -1.5183   -1.0809 H   0  0  0  0  0  0  0  0  0  0  0  0
  1  9  1  0  0  0  0
  1 11  1  0  0  0  0
  2  1  1  0  0  0  0
  2 13  1  0  0  0  0
  3  2  1  0  0  0  0
  3 14  1  0  0  0  0
  4  3  1  0  0  0  0
  4  5  1  0  0  0  0
  5 16  1  0  0  0  0
  5 17  1  0  0  0  0
  6  5  1  0  0  0  0
  6  8  2  0  0  0  0
  7  6  1  0  0  0  0
 10  1  1  0  0  0  0
 12  2  1  0  0  0  0
 15  3  1  0  0  0  0
 18  7  1  0  0  0  0
 19  7  1  0  0  0  0
 20  7  1  0  0  0  0
M  END
