20
title
C 1.7493061 3.459552 -0.18776119
C 1.4891596 1.9512047 -0.23898749
C -0.0014638659 1.6348885 -0.3793631
O -0.28475448 0.2554499 -0.5478509
C -0.18890724 -0.51848567 0.6219855
C -0.7385402 -1.9294273 0.39701298
C -1.4127486 -2.2134721 -0.9251125
O -0.62498355 -2.751115 1.275989
H 2.8173585 3.6728659 -0.08918851
H 1.3936808 3.9552257 -1.0978498
H 1.2386389 3.924311 0.66294837
H 2.0188317 1.5017023 -1.0870787
H 1.8877264 1.4797866 0.6671062
H -0.55664563 2.0301676 0.4880283
H -0.3994026 2.1256325 -1.274737
H 0.845549 -0.6220685 0.98126656
H -0.7686057 -0.06908334 1.446986
H -0.71236753 -2.0345905 -1.7470878
H -1.7672648 -3.2444537 -0.93991566
H -2.2441652 -1.5183083 -1.0808548
