19
title
C -0.81728387 3.6048641 1.5842286
C -0.7138974 2.0788152 1.5317531
C -0.10814174 1.5826923 0.22658807
O -0.05424234 0.17090808 0.26201028
C 0.47325864 -0.3897169 -0.9004075
C 0.36461535 -1.9174023 -0.81827444
N 1.1955385 -2.5670648 -1.6933485
O -0.42123654 -2.4927626 -0.1016534
H 0.16732565 4.0767384 1.4912816
H -1.4472402 3.9914823 0.77535915
H -1.2544229 3.935587 2.5305772
H -0.100959085 1.7088904 2.3613486
H -1.7036415 1.6237316 1.648341
H -0.7144819 1.9191811 -0.6330356
H 0.90394336 2.003339 0.08778006
H -0.08184066 -0.06123807 -1.798025
H 1.5259173 -0.08934214 -1.0544137
H 1.9791019 -2.1036043 -2.120453
H 1.2099099 -3.5735683 -1.653179
