19
title
C -0.93823105 3.4959023 1.571196
C -0.9678602 1.9773935 1.6147811
O -0.29659104 1.4798778 0.4755895
C -0.26678848 0.06971188 0.422868
C 0.48453993 -0.33052224 -0.838627
C 0.6037497 -1.8440305 -0.97697127
N 1.1166873 -2.2682276 -2.170156
O 0.26534766 -2.6198072 -0.10321404
H 0.09329945 3.8597088 1.5686904
H -1.432658 3.8636494 0.66746235
H -1.4517688 3.9131255 2.442548
H -0.48300397 1.606657 2.5339327
H -2.0084922 1.6109041 1.6333243
H 0.23208529 -0.35102743 1.3082374
H -1.2864594 -0.3456573 0.40688646
H -0.015848698 0.08844705 -1.7194544
H 1.4894993 0.10952647 -0.81789196
H 1.4734027 -1.6283301 -2.8578115
H 1.2921629 -3.252522 -2.287895
