title
 OpenBabel02282109583D

 19 18  0  0  0  0  0  0  0  0999 V2000
   -0.9382    3.4959    1.5712 C   0  0  0  0  0  0  0  0  0  0  0  0
   -0.9679    1.9774    1.6148 C   0  0  0  0  0  0  0  0  0  0  0  0
   -0.2966    1.4799    0.4756 O   0  0  0  0  0  0  0  0  0  0  0  0
   -0.2668    0.0697    0.4229 C   0  0  0  0  0  0  0  0  0  0  0  0
    0.4845   -0.3305   -0.8386 C   0  0  0  0  0  0  0  0  0  0  0  0
    0.6037   -1.8440   -0.9770 C   0  0  0  0  0  0  0  0  0  0  0  0
    1.1167   -2.2682   -2.1702 N   0  0  0  0  0  0  0  0  0  0  0  0
    0.2653   -2.6198   -0.1032 O   0  0  0  0  0  0  0  0  0  0  0  0
    0.0933    3.8597    1.5687 H   0  0  0  0  0  0  0  0  0  0  0  0
   -1.4327    3.8636    0.6675 H   0  0  0  0  0  0  0  0  0  0  0  0
   -1.4518    3.9131    2.4425 H   0  0  0  0  0  0  0  0  0  0  0  0
   -0.4830    1.6067    2.5339 H   0  0  0  0  0  0  0  0  0  0  0  0
   -2.0085    1.6109    1.6333 H   0  0  0  0  0  0  0  0  0  0  0  0
    0.2321   -0.3510    1.3082 H   0  0  0  0  0  0  0  0  0  0  0  0
   -1.2865   -0.3457    0.4069 H   0  0  0  0  0  0  0  0  0  0  0  0
   -0.0158    0.0884   -1.7195 H   0  0  0  0  0  0  0  0  0  0  0  0
    1.4895    0.1095   -0.8179 H   0  0  0  0  0  0  0  0  0  0  0  0
    1.4734   -1.6283   -2.8578 H   0  0  0  0  0  0  0  0  0  0  0  0
    1.2922   -3.2525   -2.2879 H   0  0  0  0  0  0  0  0  0  0  0  0
  1  2  1  0  0  0  0
  1 11  1  0  0  0  0
  2 13  1  0  0  0  0
  2 12  1  0  0  0  0
  3  2  1  0  0  0  0
  4  3  1  0  0  0  0
  4 14  1  0  0  0  0
  5 17  1  0  0  0  0
  5  4  1  0  0  0  0
  6  5  1  0  0  0  0
  6  8  2  0  0  0  0
  7  6  1  0  0  0  0
  9  1  1  0  0  0  0
 10  1  1  0  0  0  0
 15  4  1  0  0  0  0
 16  5  1  0  0  0  0
 18  7  1  0  0  0  0
 19  7  1  0  0  0  0
M  END
