title
 OpenBabel02282109583D

 20 19  0  0  0  0  0  0  0  0999 V2000
   -0.8087    3.6195    1.3495 C   0  0  0  0  0  0  0  0  0  0  0  0
   -0.8069    2.2136    1.3469 O   0  0  0  0  0  0  0  0  0  0  0  0
   -0.1393    1.6658    0.2326 C   0  0  0  0  0  0  0  0  0  0  0  0
   -0.1977    0.1479    0.3301 C   0  0  0  0  0  0  0  0  0  0  0  0
    0.5044   -0.5348   -0.8416 C   0  0  0  0  0  0  0  0  0  0  0  0
    0.4651   -2.0581   -0.7764 C   0  0  0  0  0  0  0  0  0  0  0  0
    1.1490   -2.7939   -1.9166 C   0  0  0  0  0  0  0  0  0  0  0  0
   -0.0780   -2.6473    0.1290 O   0  0  0  0  0  0  0  0  0  0  0  0
    0.2132    4.0314    1.3783 H   0  0  0  0  0  0  0  0  0  0  0  0
   -1.3162    4.0312    0.4620 H   0  0  0  0  0  0  0  0  0  0  0  0
   -1.3447    3.9457    2.2441 H   0  0  0  0  0  0  0  0  0  0  0  0
   -0.6105    2.0123   -0.7053 H   0  0  0  0  0  0  0  0  0  0  0  0
    0.9100    2.0123    0.2058 H   0  0  0  0  0  0  0  0  0  0  0  0
    0.2569   -0.1709    1.2729 H   0  0  0  0  0  0  0  0  0  0  0  0
   -1.2436   -0.1709    0.3737 H   0  0  0  0  0  0  0  0  0  0  0  0
    0.0642   -0.2287   -1.8020 H   0  0  0  0  0  0  0  0  0  0  0  0
    1.5589   -0.2288   -0.9063 H   0  0  0  0  0  0  0  0  0  0  0  0
    2.2076   -2.5161   -1.9708 H   0  0  0  0  0  0  0  0  0  0  0  0
    1.0597   -3.8707   -1.7689 H   0  0  0  0  0  0  0  0  0  0  0  0
    0.6991   -2.5152   -2.8762 H   0  0  0  0  0  0  0  0  0  0  0  0
  1  9  1  0  0  0  0
  1 11  1  0  0  0  0
  2  1  1  0  0  0  0
  3  4  1  0  0  0  0
  3  2  1  0  0  0  0
  4 15  1  0  0  0  0
  4 14  1  0  0  0  0
  5  6  1  0  0  0  0
  5  4  1  0  0  0  0
  6  8  2  0  0  0  0
  7 19  1  0  0  0  0
  7  6  1  0  0  0  0
 10  1  1  0  0  0  0
 12  3  1  0  0  0  0
 13  3  1  0  0  0  0
 16  5  1  0  0  0  0
 17  5  1  0  0  0  0
 18  7  1  0  0  0  0
 20  7  1  0  0  0  0
M  END
