20
title
C -0.80868304 3.6194572 1.3494747
O -0.806946 2.2135737 1.3468951
C -0.13926823 1.6658268 0.23261169
C -0.19774307 0.14785308 0.33008173
C 0.5044002 -0.5348483 -0.841628
C 0.46510592 -2.058065 -0.77637523
C 1.1489758 -2.7938967 -1.9166427
O -0.07800992 -2.6472678 0.12900582
H 0.21320693 4.0314 1.3782898
H -1.316194 4.0311875 0.46195218
H -1.34475 3.9456847 2.2441206
H -0.61047053 2.0123396 -0.7052757
H 0.910013 2.0122802 0.20581332
H 0.2569137 -0.17094094 1.2729076
H -1.2435697 -0.17089492 0.37370458
H 0.064192876 -0.22870857 -1.8019512
H 1.5588588 -0.2288168 -0.90625614
H 2.2076406 -2.5160637 -1.970828
H 1.0596986 -3.8706717 -1.768862
H 0.69908136 -2.5151992 -2.876233
