19
title
C -0.7290927 3.6081624 1.4322202
O -0.63771427 2.205506 1.4463578
C -0.13538344 1.674397 0.24088153
C -0.082326666 0.1584916 0.36438438
C 0.47361916 -0.5079529 -0.89450276
C 0.3528915 -2.0315263 -0.8433851
N 1.2632833 -2.7023118 -1.6107
O -0.48998693 -2.6081812 -0.18520883
H 0.25419468 4.0823197 1.2793679
H -1.4064091 3.967691 0.640562
H -1.1238265 3.9215958 2.4018526
H -0.7800423 1.9687359 -0.6073444
H 0.8694846 2.085028 0.031863786
H 0.5316977 -0.10613967 1.2319398
H -1.0837548 -0.23203017 0.5622109
H -0.08879973 -0.1718538 -1.7775205
H 1.5172453 -0.21800639 -1.0685116
H 1.9160204 -2.2275426 -2.2086399
H 1.1720771 -3.7018378 -1.6906646
