18
title
C 0.28487355 3.4682555 0.64445275
O 0.35749042 2.0705976 0.8011008
C 1.109202 1.4346058 -0.2159969
C 1.0548356 -0.061610032 0.03735484
N -0.3193087 -0.52436954 0.011834039
C -0.6202114 -1.8149874 -0.3531435
N -1.9486403 -2.1680841 -0.12724297
O 0.19478825 -2.5921645 -0.81637174
H 1.2824283 3.933168 0.6775162
H -0.19193082 3.74804 -0.30808765
H -0.31439453 3.8606682 1.4695954
H 0.68604124 1.668936 -1.2063743
H 2.1546412 1.7833425 -0.20119588
H 1.6022236 -0.60505587 -0.73514265
H 1.5364001 -0.28027922 1.0014288
H -0.9524905 -0.025954535 0.61736006
H -2.6409166 -1.436724 -0.19651441
H -2.2029312 -3.013907 -0.6150059
