title
 OpenBabel02282109583D

 18 17  0  0  0  0  0  0  0  0999 V2000
    0.2849    3.4683    0.6445 C   0  0  0  0  0  0  0  0  0  0  0  0
    0.3575    2.0706    0.8011 O   0  0  0  0  0  0  0  0  0  0  0  0
    1.1092    1.4346   -0.2160 C   0  0  0  0  0  0  0  0  0  0  0  0
    1.0548   -0.0616    0.0374 C   0  0  0  0  0  0  0  0  0  0  0  0
   -0.3193   -0.5244    0.0118 N   0  0  0  0  0  0  0  0  0  0  0  0
   -0.6202   -1.8150   -0.3531 C   0  0  0  0  0  0  0  0  0  0  0  0
   -1.9486   -2.1681   -0.1272 N   0  0  0  0  0  0  0  0  0  0  0  0
    0.1948   -2.5922   -0.8164 O   0  0  0  0  0  0  0  0  0  0  0  0
    1.2824    3.9332    0.6775 H   0  0  0  0  0  0  0  0  0  0  0  0
   -0.1919    3.7480   -0.3081 H   0  0  0  0  0  0  0  0  0  0  0  0
   -0.3144    3.8607    1.4696 H   0  0  0  0  0  0  0  0  0  0  0  0
    0.6860    1.6689   -1.2064 H   0  0  0  0  0  0  0  0  0  0  0  0
    2.1546    1.7833   -0.2012 H   0  0  0  0  0  0  0  0  0  0  0  0
    1.6022   -0.6051   -0.7351 H   0  0  0  0  0  0  0  0  0  0  0  0
    1.5364   -0.2803    1.0014 H   0  0  0  0  0  0  0  0  0  0  0  0
   -0.9525   -0.0260    0.6174 H   0  0  0  0  0  0  0  0  0  0  0  0
   -2.6409   -1.4367   -0.1965 H   0  0  0  0  0  0  0  0  0  0  0  0
   -2.2029   -3.0139   -0.6150 H   0  0  0  0  0  0  0  0  0  0  0  0
  1  9  1  0  0  0  0
  1  2  1  0  0  0  0
  1 11  1  0  0  0  0
  3 13  1  0  0  0  0
  3  4  1  0  0  0  0
  3  2  1  0  0  0  0
  4 15  1  0  0  0  0
  5  4  1  0  0  0  0
  5 16  1  0  0  0  0
  6  7  1  0  0  0  0
  6  5  1  0  0  0  0
  8  6  2  0  0  0  0
 10  1  1  0  0  0  0
 12  3  1  0  0  0  0
 14  4  1  0  0  0  0
 17  7  1  0  0  0  0
 18  7  1  0  0  0  0
M  END
