17
title
C 0.26965225 3.4334636 0.85078245
O 0.35800475 2.0293913 0.86634505
C 0.92274904 1.5041064 -0.3113044
C 0.9485964 -0.004911032 -0.22252291
O -0.40137476 -0.47759518 -0.3027051
C -0.5359375 -1.8261403 -0.29667395
N -1.8590142 -2.15998 -0.39835232
O 0.3824273 -2.610329 -0.24527532
H 1.2603503 3.90548 0.7499639
H -0.36586088 3.7947278 0.026580397
H -0.17338629 3.7439008 1.8000287
H 0.34559023 1.8158042 -1.1977445
H 1.9571598 1.8654283 -0.44600338
H 1.5376098 -0.42711887 -1.0425216
H 1.3975852 -0.32649955 0.72203535
H -2.5469332 -1.4565443 -0.18792266
H -2.0864646 -3.115659 -0.18373603
