19
title
N 1.0562834 3.265429 -0.26403144
C 1.1790425 1.9484134 0.08262127
O 2.2439938 1.4623185 0.41025212
C -0.123145886 1.1501929 0.029155295
C 0.11701315 -0.3559478 -0.08519762
C -1.1766776 -1.1694175 -0.006548035
C -0.9361387 -2.669042 -0.11764486
O -2.1945179 -3.3227963 -0.037036102
H 1.8567914 3.863641 -0.14027914
H 0.16282867 3.6892385 -0.44226468
H -0.68012923 1.3707105 0.95091915
H -0.74911827 1.511565 -0.796349
H 0.6349187 -0.5654543 -1.0294213
H 0.8106261 -0.6544271 0.7074696
H -1.6933864 -0.9713214 0.9411359
H -1.8681062 -0.87089473 -0.8048073
H -0.4303859 -2.8944235 -1.0710996
H -0.2630456 -2.9972262 0.6912366
H -2.044593 -4.2705045 -0.0981608
