22
title
C -1.6030905 2.0535734 1.4122868
C -1.6846186 0.5299936 1.2704117
C -3.1211839 0.04940864 1.0942405
O -0.96408266 0.058191802 0.13770288
C 0.44124198 0.0679914 0.26459175
C 1.0313098 -0.6373731 -0.9498604
C 2.5534348 -0.6717124 -0.9271069
O 2.9888868 -1.3447657 -2.0985866
H -0.57496274 2.3958135 1.5608096
H -1.9999417 2.5376256 0.51392394
H -2.190065 2.3882754 2.2735825
H -1.259794 0.06625452 2.1779404
H -3.5587466 0.48758963 0.19148642
H -3.1493855 -1.0386156 0.99332595
H -3.7352946 0.33908385 1.952083
H 0.83060527 1.0973762 0.3279341
H 0.7430754 -0.44606456 1.1943309
H 0.6477616 -1.6619287 -0.99696404
H 0.6977484 -0.12838861 -1.8603841
H 2.9511318 0.35613754 -0.8880592
H 2.9040284 -1.1887037 -0.018236103
H 3.9500375 -1.3691308 -2.0908134
