title
 OpenBabel02282109583D

 26 25  0  0  0  0  0  0  0  0999 V2000
   -0.8295    3.7393   -1.7622 C   0  0  0  0  0  0  0  0  0  0  0  0
   -0.8626    2.2091   -1.7248 C   0  0  0  0  0  0  0  0  0  0  0  0
   -0.1409    1.6183   -0.5089 C   0  0  0  0  0  0  0  0  0  0  0  0
   -0.1671    0.0863   -0.4644 C   0  0  0  0  0  0  0  0  0  0  0  0
    0.5562   -0.4925    0.7574 C   0  0  0  0  0  0  0  0  0  0  0  0
    0.6490   -2.0289    0.8037 C   0  0  0  0  0  0  0  0  0  0  0  0
    1.5641   -2.4770    1.9516 C   0  0  0  0  0  0  0  0  0  0  0  0
   -0.7278   -2.6987    0.9212 C   0  0  0  0  0  0  0  0  0  0  0  0
    0.2003    4.1125   -1.7949 H   0  0  0  0  0  0  0  0  0  0  0  0
   -1.3527    4.1307   -2.6405 H   0  0  0  0  0  0  0  0  0  0  0  0
   -1.3059    4.1675   -0.8730 H   0  0  0  0  0  0  0  0  0  0  0  0
   -1.9055    1.8647   -1.7289 H   0  0  0  0  0  0  0  0  0  0  0  0
   -0.4102    1.8102   -2.6426 H   0  0  0  0  0  0  0  0  0  0  0  0
    0.9022    1.9651   -0.5032 H   0  0  0  0  0  0  0  0  0  0  0  0
   -0.5942    2.0165    0.4100 H   0  0  0  0  0  0  0  0  0  0  0  0
   -1.2111   -0.2514   -0.4801 H   0  0  0  0  0  0  0  0  0  0  0  0
    0.2939   -0.3102   -1.3803 H   0  0  0  0  0  0  0  0  0  0  0  0
    1.5749   -0.0818    0.7869 H   0  0  0  0  0  0  0  0  0  0  0  0
    0.0633   -0.1376    1.6747 H   0  0  0  0  0  0  0  0  0  0  0  0
    1.1065   -2.3625   -0.1397 H   0  0  0  0  0  0  0  0  0  0  0  0
    1.1571   -2.1647    2.9211 H   0  0  0  0  0  0  0  0  0  0  0  0
    1.6714   -3.5667    1.9739 H   0  0  0  0  0  0  0  0  0  0  0  0
    2.5650   -2.0425    1.8573 H   0  0  0  0  0  0  0  0  0  0  0  0
   -1.2389   -2.3796    1.8380 H   0  0  0  0  0  0  0  0  0  0  0  0
   -1.3778   -2.4560    0.0758 H   0  0  0  0  0  0  0  0  0  0  0  0
   -0.6312   -3.7889    0.9601 H   0  0  0  0  0  0  0  0  0  0  0  0
  1  2  1  0  0  0  0
  1 11  1  0  0  0  0
  2  3  1  0  0  0  0
  3 14  1  0  0  0  0
  3  4  1  0  0  0  0
  3 15  1  0  0  0  0
  4  5  1  0  0  0  0
  5 18  1  0  0  0  0
  5  6  1  0  0  0  0
  5 19  1  0  0  0  0
  6  8  1  0  0  0  0
  6  7  1  0  0  0  0
  7 22  1  0  0  0  0
  7 21  1  0  0  0  0
  8 26  1  0  0  0  0
  8 24  1  0  0  0  0
  9  1  1  0  0  0  0
 10  1  1  0  0  0  0
 12  2  1  0  0  0  0
 13  2  1  0  0  0  0
 16  4  1  0  0  0  0
 17  4  1  0  0  0  0
 20  6  1  0  0  0  0
 23  7  1  0  0  0  0
 25  8  1  0  0  0  0
M  END
