24
title
C 1.9365829 3.759195 0.13947359
C 1.9104373 2.2285023 0.15174425
C 0.4925301 1.6473805 0.1784537
C 0.4621693 0.11604202 0.17938797
C -0.9533721 -0.467641 0.21520136
C -0.9874147 -1.9993521 0.1312064
C -2.40568 -2.5588784 0.24853988
O -0.34605587 -2.4744945 -1.052936
H 2.9616303 4.1427646 0.12097717
H 1.4166737 4.1571946 -0.73929524
H 1.4434568 4.1711 1.0272772
H 2.4404824 1.8448018 -0.7300939
H 2.4683504 1.8591605 1.0225046
H -0.037514333 2.0269942 1.0638202
H -0.06825472 2.022576 -0.6896779
H 0.9782995 -0.2688979 -0.70771956
H 1.0273752 -0.2587868 1.0443326
H -1.467014 -0.15094769 1.1329367
H -1.5453347 -0.059079047 -0.61882204
H -0.37567508 -2.4086099 0.94580865
H -3.0466106 -2.1616435 -0.5491453
H -2.3928983 -3.6489472 0.16426365
H -2.8627708 -2.2881708 1.2059543
H -0.8722342 -2.1774392 -1.8040813
