24
title
C -0.8895499 3.600935 -1.7614937
C -1.0292883 2.079982 -1.6545087
C -0.16014805 1.4774721 -0.54632986
C -0.30433592 -0.035190564 -0.43560836
O 0.5237175 -0.48755047 0.61490273
C 0.6282208 -1.8998017 0.7486532
C 1.8552583 -2.1590843 1.6165996
C -0.63909566 -2.5174704 1.3493733
H 0.14499846 3.8887832 -1.9786793
H -1.5220743 4.005407 -2.557871
H -1.1777732 4.0909348 -0.8249453
H -2.08139 1.8218913 -1.4741656
H -0.76588124 1.6204926 -2.6165395
H 0.89588416 1.716781 -0.7220659
H -0.42233232 1.9238518 0.42095116
H -1.3599916 -0.2961745 -0.2552466
H -0.013095054 -0.5179491 -1.3852341
H 0.7965772 -2.3386598 -0.25045738
H 1.7155792 -1.7203686 2.6098647
H 2.0283222 -3.2329822 1.7340941
H 2.7429872 -1.7074559 1.1661954
H -1.5147927 -2.348928 0.7162256
H -0.51853204 -3.599349 1.4655466
H -0.83912486 -2.0838532 2.3347287
