24
title
C 1.7820511 3.6042206 0.14036864
C 1.7182611 2.075052 0.13604221
C 0.2885924 1.551557 0.16304551
O 0.31746286 0.14143729 0.15748283
C -0.963898 -0.44950557 0.18189262
C -0.8207305 -1.9703362 0.12872703
C -2.191624 -2.6382258 0.28955695
C -0.12005573 -2.4170406 -1.1600795
H 2.8179421 3.95488 0.122165814
H 1.2732263 4.0280704 -0.73256105
H 1.306464 4.0214534 1.0349666
H 2.2178433 1.6756955 -0.7541074
H 2.2532065 1.6691874 1.0023428
H -0.23694865 1.9212128 1.0616584
H -0.27360946 1.9271783 -0.71047634
H -1.5040159 -0.14941835 1.0968356
H -1.565048 -0.097130775 -0.6764542
H -0.19016998 -2.2578375 0.98082256
H -2.8638768 -2.3611047 -0.53150004
H -2.0974307 -3.7286036 0.28294823
H -2.6750646 -2.3496225 1.2291292
H -0.7318893 -2.1768816 -2.0385585
H 0.8424295 -1.9128296 -1.2714299
H 0.051086493 -3.4984033 -1.1601515
