title
 OpenBabel02282109583D

 24 23  0  0  0  0  0  0  0  0999 V2000
   -0.7341    3.4592    1.7832 C   0  0  0  0  0  0  0  0  0  0  0  0
   -0.8502    1.9440    1.7781 C   0  0  0  0  0  0  0  0  0  0  0  0
   -0.1931    1.4452    0.6330 O   0  0  0  0  0  0  0  0  0  0  0  0
   -0.2259    0.0369    0.5367 C   0  0  0  0  0  0  0  0  0  0  0  0
    0.4918   -0.3721   -0.7442 C   0  0  0  0  0  0  0  0  0  0  0  0
    0.6814   -1.8885   -0.9192 C   0  0  0  0  0  0  0  0  0  0  0  0
   -0.6519   -2.6412   -1.0458 C   0  0  0  0  0  0  0  0  0  0  0  0
    1.5778   -2.1754   -2.1316 C   0  0  0  0  0  0  0  0  0  0  0  0
    0.3166    3.7624    1.8047 H   0  0  0  0  0  0  0  0  0  0  0  0
   -1.1931    3.8818    0.8848 H   0  0  0  0  0  0  0  0  0  0  0  0
   -1.2354    3.8787    2.6605 H   0  0  0  0  0  0  0  0  0  0  0  0
   -0.3997    1.5195    2.6922 H   0  0  0  0  0  0  0  0  0  0  0  0
   -1.9106    1.6371    1.7743 H   0  0  0  0  0  0  0  0  0  0  0  0
    0.2691   -0.4181    1.4137 H   0  0  0  0  0  0  0  0  0  0  0  0
   -1.2701   -0.3171    0.5403 H   0  0  0  0  0  0  0  0  0  0  0  0
   -0.0567    0.0352   -1.6037 H   0  0  0  0  0  0  0  0  0  0  0  0
    1.4724    0.1187   -0.7422 H   0  0  0  0  0  0  0  0  0  0  0  0
    1.1983   -2.2668   -0.0247 H   0  0  0  0  0  0  0  0  0  0  0  0
   -0.4825   -3.7128   -1.1952 H   0  0  0  0  0  0  0  0  0  0  0  0
   -1.2780   -2.5291   -0.1554 H   0  0  0  0  0  0  0  0  0  0  0  0
   -1.2261   -2.2741   -1.9052 H   0  0  0  0  0  0  0  0  0  0  0  0
    2.5488   -1.6785   -2.0365 H   0  0  0  0  0  0  0  0  0  0  0  0
    1.7585   -3.2494   -2.2462 H   0  0  0  0  0  0  0  0  0  0  0  0
    1.1106   -1.8171   -3.0568 H   0  0  0  0  0  0  0  0  0  0  0  0
  1  9  1  0  0  0  0
  1 11  1  0  0  0  0
  2  1  1  0  0  0  0
  2 12  1  0  0  0  0
  3  2  1  0  0  0  0
  4 15  1  0  0  0  0
  4  3  1  0  0  0  0
  4 14  1  0  0  0  0
  5 17  1  0  0  0  0
  5  4  1  0  0  0  0
  6  5  1  0  0  0  0
  6 18  1  0  0  0  0
  7  6  1  0  0  0  0
  7 20  1  0  0  0  0
  8 22  1  0  0  0  0
  8  6  1  0  0  0  0
 10  1  1  0  0  0  0
 13  2  1  0  0  0  0
 16  5  1  0  0  0  0
 19  7  1  0  0  0  0
 21  7  1  0  0  0  0
 23  8  1  0  0  0  0
 24  8  1  0  0  0  0
M  END
