22
title
C 1.8794925 3.5018828 0.15782341
C 1.9379941 1.9837548 0.12474864
O 0.6204841 1.4797511 0.18127754
C 0.5619569 0.069572255 0.14899468
C -0.8997054 -0.35548112 0.19702108
C -1.0828948 -1.8761511 0.13707374
C -2.550725 -2.2872975 0.25327706
O -0.4831526 -2.431414 -1.0342913
H 2.8878627 3.9246652 0.1175833
H 1.308655 3.8824306 -0.6940728
H 1.3942301 3.8466756 1.075421
H 2.4405181 1.6354276 -0.79409444
H 2.5294716 1.6015705 0.97478163
H 1.038599 -0.32221124 -0.76253957
H 1.1110423 -0.35785982 1.0069079
H -1.357285 0.0352879 1.1135467
H -1.4338856 0.11163692 -0.6421126
H -0.5213697 -2.3327763 0.9625687
H -3.1438026 -1.8405404 -0.55480343
H -2.6457973 -3.3743942 0.18632124
H -2.9826293 -1.9563403 1.2032176
H -0.9717388 -2.0967367 -1.7950132
