title
 OpenBabel02282109583D

 24 23  0  0  0  0  0  0  0  0999 V2000
    1.5752    3.6414    0.2236 C   0  0  0  0  0  0  0  0  0  0  0  0
    1.6036    2.2388    0.1381 O   0  0  0  0  0  0  0  0  0  0  0  0
    0.3169    1.6593    0.1724 C   0  0  0  0  0  0  0  0  0  0  0  0
    0.4581    0.1459    0.0799 C   0  0  0  0  0  0  0  0  0  0  0  0
   -0.8968   -0.5703    0.0965 C   0  0  0  0  0  0  0  0  0  0  0  0
   -0.8194   -2.1081    0.1217 C   0  0  0  0  0  0  0  0  0  0  0  0
   -2.2145   -2.7108    0.3359 C   0  0  0  0  0  0  0  0  0  0  0  0
   -0.1718   -2.6847   -1.1454 C   0  0  0  0  0  0  0  0  0  0  0  0
    2.6090    3.9946    0.1898 H   0  0  0  0  0  0  0  0  0  0  0  0
    1.0188    4.0931   -0.6138 H   0  0  0  0  0  0  0  0  0  0  0  0
    1.1134    3.9866    1.1631 H   0  0  0  0  0  0  0  0  0  0  0  0
   -0.2050    1.9415    1.1042 H   0  0  0  0  0  0  0  0  0  0  0  0
   -0.2969    2.0405   -0.6634 H   0  0  0  0  0  0  0  0  0  0  0  0
    1.0137   -0.0883   -0.8344 H   0  0  0  0  0  0  0  0  0  0  0  0
    1.0759   -0.1972    0.9192 H   0  0  0  0  0  0  0  0  0  0  0  0
   -1.4622   -0.2377    0.9780 H   0  0  0  0  0  0  0  0  0  0  0  0
   -1.4888   -0.2586   -0.7765 H   0  0  0  0  0  0  0  0  0  0  0  0
   -0.1942   -2.3942    0.9803 H   0  0  0  0  0  0  0  0  0  0  0  0
   -2.8843   -2.4519   -0.4931 H   0  0  0  0  0  0  0  0  0  0  0  0
   -2.1708   -3.8033    0.3963 H   0  0  0  0  0  0  0  0  0  0  0  0
   -2.6722   -2.3411    1.2597 H   0  0  0  0  0  0  0  0  0  0  0  0
   -0.1361   -3.7784   -1.1034 H   0  0  0  0  0  0  0  0  0  0  0  0
   -0.7469   -2.4071   -2.0375 H   0  0  0  0  0  0  0  0  0  0  0  0
    0.8523   -2.3269   -1.2841 H   0  0  0  0  0  0  0  0  0  0  0  0
  1 11  1  0  0  0  0
  2  3  1  0  0  0  0
  2  1  1  0  0  0  0
  3 12  1  0  0  0  0
  4  5  1  0  0  0  0
  4  3  1  0  0  0  0
  4 15  1  0  0  0  0
  5  6  1  0  0  0  0
  5 16  1  0  0  0  0
  6  7  1  0  0  0  0
  6 18  1  0  0  0  0
  7 20  1  0  0  0  0
  7 21  1  0  0  0  0
  8 22  1  0  0  0  0
  8  6  1  0  0  0  0
  9  1  1  0  0  0  0
 10  1  1  0  0  0  0
 13  3  1  0  0  0  0
 14  4  1  0  0  0  0
 17  5  1  0  0  0  0
 19  7  1  0  0  0  0
 23  8  1  0  0  0  0
 24  8  1  0  0  0  0
M  END
