title
 OpenBabel02282109583D

 20 20  0  0  1  0  0  0  0  0999 V2000
   -0.5716    1.4958   -0.7727 C   0  0  0  0  0  0  0  0  0  0  0  0
   -0.4900   -0.0307   -0.7555 C   0  0  0  0  0  0  0  0  0  0  0  0
   -1.8563   -0.6552   -1.0132 C   0  0  0  0  0  0  0  0  0  0  0  0
    0.6976   -0.5607   -1.6212 C   0  0  0  0  0  0  0  0  0  0  0  0
    1.5740   -0.6574   -0.3477 C   0  0  0  0  0  0  0  0  0  0  0  0
    0.2747   -0.5902    0.5134 C   0  0  1  0  0  0  0  0  0  0  0  0
    0.2785    0.1672    1.7466 C   0  0  0  0  0  0  0  0  0  0  0  0
    0.2852    0.8127    2.7624 C   0  0  0  0  0  0  0  0  0  0  0  0
    0.4038    1.9589   -0.5953 H   0  0  0  0  0  0  0  0  0  0  0  0
   -0.9366    1.8426   -1.7460 H   0  0  0  0  0  0  0  0  0  0  0  0
   -1.2544    1.8629   -0.0001 H   0  0  0  0  0  0  0  0  0  0  0  0
   -2.2544   -0.3412   -1.9853 H   0  0  0  0  0  0  0  0  0  0  0  0
   -1.8022   -1.7492   -1.0124 H   0  0  0  0  0  0  0  0  0  0  0  0
   -2.5786   -0.3532   -0.2459 H   0  0  0  0  0  0  0  0  0  0  0  0
    0.4827   -1.5447   -2.0487 H   0  0  0  0  0  0  0  0  0  0  0  0
    1.0493    0.0953   -2.4214 H   0  0  0  0  0  0  0  0  0  0  0  0
    2.1941   -1.5470   -0.2216 H   0  0  0  0  0  0  0  0  0  0  0  0
    2.1979    0.2262   -0.1982 H   0  0  0  0  0  0  0  0  0  0  0  0
   -0.0819   -1.6073    0.7126 H   0  0  0  0  0  0  0  0  0  0  0  0
    0.2927    1.3759    3.6623 H   0  0  0  0  0  0  0  0  0  0  0  0
  1  2  1  0  0  0  0
  1  9  1  0  0  0  0
  1 11  1  0  0  0  0
  2  6  1  0  0  0  0
  3 13  1  0  0  0  0
  3  2  1  0  0  0  0
  3 14  1  0  0  0  0
  4  2  1  0  0  0  0
  4  5  1  0  0  0  0
  5 17  1  0  0  0  0
  5 18  1  0  0  0  0
  5  6  1  0  0  0  0
  6 19  1  1  0  0  0
  6  7  1  0  0  0  0
  7  8  3  0  0  0  0
  8 20  1  0  0  0  0
 10  1  1  0  0  0  0
 12  3  1  0  0  0  0
 15  4  1  0  0  0  0
 16  4  1  0  0  0  0
M  END
