19
title
C -0.56488335 1.5137858 -0.7371529
C -0.47773853 -0.012398366 -0.774917
C -1.833719 -0.635722 -1.0837508
C 0.7335642 -0.5085867 -1.6292601
C 1.5803406 -0.653413 -0.34007114
C 0.26037917 -0.6144922 0.488145
C 0.24058779 0.12696493 1.7362471
N 0.22551109 0.73815054 2.718455
H 0.40387943 1.9745011 -0.5205945
H -0.9064041 1.8922647 -1.7065239
H -1.2695893 1.8521119 0.028948674
H -2.2047026 -0.29362497 -2.0565178
H -1.774871 -1.7289108 -1.1147007
H -2.577898 -0.3581751 -0.32863763
H 0.5321243 -1.475104 -2.099942
H 1.1040046 0.17980851 -2.3921545
H 2.1901116 -1.5510364 -0.22769402
H 2.204488 0.22033207 -0.14441018
H -0.10236094 -1.6291461 0.67876136
