title
 OpenBabel02282109583D

 18 18  0  0  1  0  0  0  0  0999 V2000
   -0.5794    1.5197   -0.7438 C   0  0  0  0  0  0  0  0  0  0  0  0
   -0.5054   -0.0056   -0.7714 C   0  0  0  0  0  0  0  0  0  0  0  0
   -1.8541   -0.6370   -1.0863 C   0  0  0  0  0  0  0  0  0  0  0  0
    0.7251   -0.5204   -1.5788 C   0  0  0  0  0  0  0  0  0  0  0  0
    1.4975   -0.5969   -0.3171 N   0  0  0  0  0  0  0  0  0  0  0  0
    0.2516   -0.6079    0.4734 C   0  0  1  0  0  0  0  0  0  0  0  0
    0.2850    0.1532    1.7225 C   0  0  0  0  0  0  0  0  0  0  0  0
    0.2847    0.7539    2.7102 N   0  0  0  0  0  0  0  0  0  0  0  0
    0.3962    1.9580   -0.5173 H   0  0  0  0  0  0  0  0  0  0  0  0
   -0.9071    1.8966   -1.7186 H   0  0  0  0  0  0  0  0  0  0  0  0
   -1.2911    1.8687    0.0111 H   0  0  0  0  0  0  0  0  0  0  0  0
   -2.2184   -0.2993   -2.0628 H   0  0  0  0  0  0  0  0  0  0  0  0
   -1.7960   -1.7300   -1.1104 H   0  0  0  0  0  0  0  0  0  0  0  0
   -2.6036   -0.3539   -0.3390 H   0  0  0  0  0  0  0  0  0  0  0  0
    0.5315   -1.4922   -2.0541 H   0  0  0  0  0  0  0  0  0  0  0  0
    1.1512    0.1612   -2.3220 H   0  0  0  0  0  0  0  0  0  0  0  0
    2.0909   -1.4102   -0.1983 H   0  0  0  0  0  0  0  0  0  0  0  0
   -0.1331   -1.6128    0.7018 H   0  0  0  0  0  0  0  0  0  0  0  0
  1  9  1  0  0  0  0
  1 11  1  0  0  0  0
  2  1  1  0  0  0  0
  2  6  1  0  0  0  0
  3  2  1  0  0  0  0
  3 14  1  0  0  0  0
  4  2  1  0  0  0  0
  4  5  1  0  0  0  0
  5 17  1  0  0  0  0
  5  6  1  0  0  0  0
  6 18  1  1  0  0  0
  6  7  1  0  0  0  0
  7  8  3  0  0  0  0
 10  1  1  0  0  0  0
 12  3  1  0  0  0  0
 13  3  1  0  0  0  0
 15  4  1  0  0  0  0
 16  4  1  0  0  0  0
M  END
