title
 OpenBabel02282109583D

 18 18  0  0  1  0  0  0  0  0999 V2000
   -0.7076    1.5143   -0.7321 C   0  0  0  0  0  0  0  0  0  0  0  0
   -0.5578   -0.0042   -0.7358 C   0  0  0  0  0  0  0  0  0  0  0  0
   -1.8666   -0.7037   -1.0835 C   0  0  0  0  0  0  0  0  0  0  0  0
    0.7039   -0.4922   -1.4913 C   0  0  0  0  0  0  0  0  0  0  0  0
    1.3856   -0.8156   -0.2618 O   0  0  0  0  0  0  0  0  0  0  0  0
    0.1881   -0.5874    0.5186 C   0  0  1  0  0  0  0  0  0  0  0  0
    0.3972    0.2526    1.6838 C   0  0  0  0  0  0  0  0  0  0  0  0
    0.5529    0.9430    2.6558 C   0  0  0  0  0  0  0  0  0  0  0  0
    0.2341    2.0073   -0.4759 H   0  0  0  0  0  0  0  0  0  0  0  0
   -1.0205    1.8651   -1.7220 H   0  0  0  0  0  0  0  0  0  0  0  0
   -1.4603    1.8354   -0.0051 H   0  0  0  0  0  0  0  0  0  0  0  0
   -2.2215   -0.3961   -2.0734 H   0  0  0  0  0  0  0  0  0  0  0  0
   -1.7508   -1.7924   -1.0919 H   0  0  0  0  0  0  0  0  0  0  0  0
   -2.6496   -0.4526   -0.3593 H   0  0  0  0  0  0  0  0  0  0  0  0
    0.5489   -1.3813   -2.1173 H   0  0  0  0  0  0  0  0  0  0  0  0
    1.2461    0.2644   -2.0702 H   0  0  0  0  0  0  0  0  0  0  0  0
   -0.2475   -1.5454    0.8394 H   0  0  0  0  0  0  0  0  0  0  0  0
    0.6985    1.5505    3.5148 H   0  0  0  0  0  0  0  0  0  0  0  0
  1  9  1  0  0  0  0
  1 11  1  0  0  0  0
  2  1  1  0  0  0  0
  2  6  1  0  0  0  0
  3  2  1  0  0  0  0
  3 14  1  0  0  0  0
  4  2  1  0  0  0  0
  4  5  1  0  0  0  0
  5  6  1  0  0  0  0
  6 17  1  1  0  0  0
  6  7  1  0  0  0  0
  7  8  3  0  0  0  0
  8 18  1  0  0  0  0
 10  1  1  0  0  0  0
 12  3  1  0  0  0  0
 13  3  1  0  0  0  0
 15  4  1  0  0  0  0
 16  4  1  0  0  0  0
M  END
