title
 OpenBabel02282109583D

 18 18  0  0  1  0  0  0  0  0999 V2000
   -0.6767    1.4957   -0.7217 C   0  0  0  0  0  0  0  0  0  0  0  0
   -0.5202   -0.0175   -0.6869 C   0  0  0  0  0  0  0  0  0  0  0  0
   -1.7925   -0.7442   -1.0912 C   0  0  0  0  0  0  0  0  0  0  0  0
    0.6019   -0.4367   -1.5185 O   0  0  0  0  0  0  0  0  0  0  0  0
    1.3977   -0.7941   -0.3792 C   0  0  0  0  0  0  0  0  0  0  0  0
    0.2016   -0.5967    0.5869 C   0  0  1  0  0  0  0  0  0  0  0  0
    0.3833    0.2337    1.7563 C   0  0  0  0  0  0  0  0  0  0  0  0
    0.5439    0.9267    2.7263 C   0  0  0  0  0  0  0  0  0  0  0  0
    0.2488    1.9950   -0.4255 H   0  0  0  0  0  0  0  0  0  0  0  0
   -0.9325    1.8127   -1.7375 H   0  0  0  0  0  0  0  0  0  0  0  0
   -1.4711    1.8226   -0.0436 H   0  0  0  0  0  0  0  0  0  0  0  0
   -2.0988   -0.4404   -2.0975 H   0  0  0  0  0  0  0  0  0  0  0  0
   -1.6357   -1.8265   -1.0953 H   0  0  0  0  0  0  0  0  0  0  0  0
   -2.6082   -0.5093   -0.3992 H   0  0  0  0  0  0  0  0  0  0  0  0
    1.7950   -1.8124   -0.4508 H   0  0  0  0  0  0  0  0  0  0  0  0
    2.2240   -0.0933   -0.2090 H   0  0  0  0  0  0  0  0  0  0  0  0
   -0.2429   -1.5541    0.8741 H   0  0  0  0  0  0  0  0  0  0  0  0
    0.6842    1.5360    3.5846 H   0  0  0  0  0  0  0  0  0  0  0  0
  1  2  1  0  0  0  0
  1  9  1  0  0  0  0
  1 11  1  0  0  0  0
  2  6  1  0  0  0  0
  3  2  1  0  0  0  0
  3 14  1  0  0  0  0
  4  2  1  0  0  0  0
  4  5  1  0  0  0  0
  5 16  1  0  0  0  0
  5  6  1  0  0  0  0
  6 17  1  1  0  0  0
  6  7  1  0  0  0  0
  7  8  3  0  0  0  0
  8 18  1  0  0  0  0
 10  1  1  0  0  0  0
 12  3  1  0  0  0  0
 13  3  1  0  0  0  0
 15  5  1  0  0  0  0
M  END
