18
title
C -0.6767365 1.495687 -0.72168434
C -0.5201757 -0.017526304 -0.6868701
C -1.7924529 -0.74420315 -1.091239
O 0.6018862 -0.43668038 -1.5184518
C 1.3976988 -0.7941146 -0.37922502
C 0.20158564 -0.596743 0.58688855
C 0.38327757 0.23374906 1.7562937
C 0.5438946 0.92674464 2.72627
H 0.24875908 1.994973 -0.4254573
H -0.93249375 1.8126795 -1.7374828
H -1.4711386 1.8226485 -0.04360874
H -2.0987673 -0.44043532 -2.0974658
H -1.6356972 -1.8264636 -1.0952566
H -2.6081893 -0.5093155 -0.39916003
H 1.7949765 -1.812351 -0.4508208
H 2.2239869 -0.09329038 -0.209024
H -0.24294634 -1.5541024 0.87410724
H 0.68422276 1.5359993 3.5845747
