title
 OpenBabel02282109583D

 17 17  0  0  1  0  0  0  0  0999 V2000
   -0.6805    1.5040   -0.6983 C   0  0  0  0  0  0  0  0  0  0  0  0
   -0.5233   -0.0093   -0.6962 C   0  0  0  0  0  0  0  0  0  0  0  0
   -1.7914   -0.7328   -1.1174 C   0  0  0  0  0  0  0  0  0  0  0  0
    0.6051   -0.4123   -1.5263 O   0  0  0  0  0  0  0  0  0  0  0  0
    1.3900   -0.8083   -0.3944 C   0  0  0  0  0  0  0  0  0  0  0  0
    0.1907   -0.6166    0.5680 C   0  0  1  0  0  0  0  0  0  0  0  0
    0.3816    0.2198    1.7371 C   0  0  0  0  0  0  0  0  0  0  0  0
    0.5378    0.8943    2.6633 N   0  0  0  0  0  0  0  0  0  0  0  0
    0.2437    1.9999   -0.3919 H   0  0  0  0  0  0  0  0  0  0  0  0
   -0.9330    1.8394   -1.7085 H   0  0  0  0  0  0  0  0  0  0  0  0
   -1.4783    1.8169   -0.0176 H   0  0  0  0  0  0  0  0  0  0  0  0
   -2.0897   -0.4115   -2.1202 H   0  0  0  0  0  0  0  0  0  0  0  0
   -1.6332   -1.8145   -1.1398 H   0  0  0  0  0  0  0  0  0  0  0  0
   -2.6118   -0.5098   -0.4274 H   0  0  0  0  0  0  0  0  0  0  0  0
    1.7654   -1.8328   -0.4817 H   0  0  0  0  0  0  0  0  0  0  0  0
    2.2285   -0.1281   -0.2047 H   0  0  0  0  0  0  0  0  0  0  0  0
   -0.2611   -1.5632    0.8723 H   0  0  0  0  0  0  0  0  0  0  0  0
  1  2  1  0  0  0  0
  1  9  1  0  0  0  0
  1 11  1  0  0  0  0
  2  6  1  0  0  0  0
  3  2  1  0  0  0  0
  3 14  1  0  0  0  0
  4  2  1  0  0  0  0
  4  5  1  0  0  0  0
  5 16  1  0  0  0  0
  5  6  1  0  0  0  0
  6 17  1  1  0  0  0
  6  7  1  0  0  0  0
  7  8  3  0  0  0  0
 10  1  1  0  0  0  0
 12  3  1  0  0  0  0
 13  3  1  0  0  0  0
 15  5  1  0  0  0  0
M  END
