title
 OpenBabel02282109583D

 17 17  0  0  1  0  0  0  0  0999 V2000
   -0.5649    1.5165   -0.7541 C   0  0  0  0  0  0  0  0  0  0  0  0
   -0.4947   -0.0050   -0.7724 C   0  0  1  0  0  0  0  0  0  0  0  0
   -1.8094   -0.5606   -0.9863 N   0  0  0  0  0  0  0  0  0  0  0  0
    0.7424   -0.5375   -1.5757 C   0  0  0  0  0  0  0  0  0  0  0  0
    1.5057   -0.5869   -0.3095 N   0  0  0  0  0  0  0  0  0  0  0  0
    0.2556   -0.6082    0.4749 C   0  0  1  0  0  0  0  0  0  0  0  0
    0.2749    0.1396    1.7305 C   0  0  0  0  0  0  0  0  0  0  0  0
    0.2742    0.7376    2.7198 N   0  0  0  0  0  0  0  0  0  0  0  0
    0.4115    1.9456   -0.5193 H   0  0  0  0  0  0  0  0  0  0  0  0
   -0.8738    1.8883   -1.7379 H   0  0  0  0  0  0  0  0  0  0  0  0
   -1.2882    1.8597   -0.0098 H   0  0  0  0  0  0  0  0  0  0  0  0
   -2.2958   -0.0696   -1.7291 H   0  0  0  0  0  0  0  0  0  0  0  0
   -1.7658   -1.5405   -1.2470 H   0  0  0  0  0  0  0  0  0  0  0  0
    0.5330   -1.5219   -2.0210 H   0  0  0  0  0  0  0  0  0  0  0  0
    1.1753    0.1161   -2.3403 H   0  0  0  0  0  0  0  0  0  0  0  0
    2.1113   -1.3888   -0.1771 H   0  0  0  0  0  0  0  0  0  0  0  0
   -0.1389   -1.6142    0.6806 H   0  0  0  0  0  0  0  0  0  0  0  0
  1  9  1  0  0  0  0
  1 11  1  0  0  0  0
  2  1  1  0  0  0  0
  2  6  1  1  0  0  0
  3  2  1  0  0  0  0
  4  2  1  0  0  0  0
  4  5  1  0  0  0  0
  5 16  1  0  0  0  0
  5  6  1  0  0  0  0
  6 17  1  1  0  0  0
  6  7  1  0  0  0  0
  7  8  3  0  0  0  0
 10  1  1  0  0  0  0
 12  3  1  0  0  0  0
 13  3  1  0  0  0  0
 14  4  1  0  0  0  0
 15  4  1  0  0  0  0
M  END
