17
title
C -0.56485456 1.5164709 -0.7541151
C -0.4946907 -0.0050380817 -0.77237576
N -1.809373 -0.56056094 -0.9862505
C 0.742382 -0.53748024 -1.5757127
N 1.5056716 -0.5869296 -0.30954581
C 0.2556232 -0.60818994 0.47490272
C 0.27486023 0.1396046 1.7304634
N 0.27416906 0.7375564 2.7197697
H 0.4115034 1.9456137 -0.519287
H -0.87381744 1.8882691 -1.7378744
H -1.2881775 1.8596976 -0.009780185
H -2.2957907 -0.06957961 -1.7291136
H -1.7658353 -1.5405191 -1.246983
H 0.53295755 -1.5219485 -2.021048
H 1.1752836 0.116075754 -2.340257
H 2.1112998 -1.3888038 -0.17714627
H -0.1388992 -1.6142222 0.6806133
