title
 OpenBabel02282109583D

 16 16  0  0  1  0  0  0  0  0999 V2000
   -0.6849    1.5033   -0.7401 C   0  0  0  0  0  0  0  0  0  0  0  0
   -0.5353   -0.0120   -0.7578 C   0  0  1  0  0  0  0  0  0  0  0  0
   -1.8104   -0.6347   -1.0225 N   0  0  0  0  0  0  0  0  0  0  0  0
    0.7529   -0.4930   -1.4977 C   0  0  0  0  0  0  0  0  0  0  0  0
    1.4203   -0.7637   -0.2451 O   0  0  0  0  0  0  0  0  0  0  0  0
    0.1996   -0.6067    0.4953 C   0  0  1  0  0  0  0  0  0  0  0  0
    0.3474    0.2258    1.6872 C   0  0  0  0  0  0  0  0  0  0  0  0
    0.4434    0.8961    2.6238 N   0  0  0  0  0  0  0  0  0  0  0  0
    0.2528    1.9883   -0.4594 H   0  0  0  0  0  0  0  0  0  0  0  0
   -0.9671    1.8622   -1.7365 H   0  0  0  0  0  0  0  0  0  0  0  0
   -1.4587    1.8052   -0.0296 H   0  0  0  0  0  0  0  0  0  0  0  0
   -2.2923   -0.1730   -1.7864 H   0  0  0  0  0  0  0  0  0  0  0  0
   -1.7078   -1.6133   -1.2718 H   0  0  0  0  0  0  0  0  0  0  0  0
    0.6084   -1.4095   -2.0865 H   0  0  0  0  0  0  0  0  0  0  0  0
    1.2959    0.2453   -2.0969 H   0  0  0  0  0  0  0  0  0  0  0  0
   -0.2271   -1.5746    0.7930 H   0  0  0  0  0  0  0  0  0  0  0  0
  1  9  1  0  0  0  0
  1 11  1  0  0  0  0
  2  1  1  0  0  0  0
  2  6  1  1  0  0  0
  3  2  1  0  0  0  0
  4  2  1  0  0  0  0
  4  5  1  0  0  0  0
  5  6  1  0  0  0  0
  6 16  1  1  0  0  0
  6  7  1  0  0  0  0
  7  8  3  0  0  0  0
 10  1  1  0  0  0  0
 12  3  1  0  0  0  0
 13  3  1  0  0  0  0
 14  4  1  0  0  0  0
 15  4  1  0  0  0  0
M  END
