18
title
C -0.29177803 1.5358627 -0.8679064
C -0.6449488 0.082410365 -0.5843921
O -2.0190182 -0.06945068 -0.2944008
C -0.03017563 -0.9239163 -1.6072716
C 1.115687 -1.2071282 -0.6030802
C 0.22894132 -0.5953597 0.5275701
C 0.8409171 0.21062015 1.56134
C 1.3639578 0.8945471 2.4018826
H 0.7788681 1.6620746 -1.0519835
H -0.8248927 1.8849733 -1.7614096
H -0.56791645 2.1685588 -0.020033106
H -2.5224168 0.47134703 -0.9123278
H -0.6934562 -1.7838837 -1.7274024
H 0.24207717 -0.5359736 -2.592017
H 1.4275695 -2.2434185 -0.46621364
H 1.9998926 -0.59441775 -0.7910314
H -0.38859892 -1.3812219 0.9744966
H 1.8213476 1.4896023 3.1527827
