17
title
C -0.25418702 1.5662712 -0.8227082
C -0.6067675 0.09683513 -0.6362652
O -1.9917796 -0.09150629 -0.4591502
C 0.105969615 -0.85495603 -1.6495775
C 1.1736495 -1.1719401 -0.5714377
C 0.1889223 -0.62376624 0.50658184
C 0.7112004 0.16192278 1.6093135
N 1.1400723 0.81076777 2.465481
H 0.82540005 1.7155343 -0.9139652
H -0.71789247 1.9466822 -1.7411532
H -0.6096996 2.1585298 0.025158986
H -2.4632878 0.51754177 -1.0371192
H -0.53159547 -1.7161748 -1.8619739
H 0.45092756 -0.4171814 -2.5889347
H 1.4842173 -2.210017 -0.45179352
H 2.0623577 -0.5444567 -0.66047865
H -0.4433494 -1.4263825 0.89521426
