16
title
C -0.37652725 1.5756342 -0.7729734
C -0.6351471 0.08547626 -0.6290536
O -1.99905 -0.23373568 -0.6294633
C 0.17831466 -0.8043757 -1.5997645
N 1.2009834 -0.98867035 -0.5414819
C 0.22431591 -0.616637 0.50234175
C 0.74153733 0.17912142 1.6116357
N 1.1149788 0.83183926 2.4900591
H 0.69600236 1.7813708 -0.8100082
H -0.83976096 1.9428535 -1.693809
H -0.7916681 2.129684 0.07712773
H -2.480213 0.46082962 -0.16664338
H -0.39262637 -1.7069263 -1.851647
H 0.5534066 -0.33796713 -2.5155838
H 1.5848649 -1.9226005 -0.45215046
H -0.36200872 -1.4533671 0.9053688
