title
 OpenBabel02282109583D

 16 16  0  0  1  0  0  0  0  0999 V2000
   -0.6668    1.5125   -0.7587 C   0  0  0  0  0  0  0  0  0  0  0  0
   -0.5149    0.0014   -0.7359 C   0  0  1  0  0  0  0  0  0  0  0  0
   -1.6902   -0.6646   -1.1239 O   0  0  0  0  0  0  0  0  0  0  0  0
    0.7285   -0.5410   -1.4655 C   0  0  0  0  0  0  0  0  0  0  0  0
    1.4220   -0.7613   -0.2190 O   0  0  0  0  0  0  0  0  0  0  0  0
    0.2026   -0.5795    0.5416 C   0  0  1  0  0  0  0  0  0  0  0  0
    0.3584    0.2371    1.7280 C   0  0  0  0  0  0  0  0  0  0  0  0
    0.4563    0.9221    2.7116 C   0  0  0  0  0  0  0  0  0  0  0  0
    0.2727    2.0043   -0.4953 H   0  0  0  0  0  0  0  0  0  0  0  0
   -0.9716    1.8399   -1.7575 H   0  0  0  0  0  0  0  0  0  0  0  0
   -1.4213    1.8392   -0.0335 H   0  0  0  0  0  0  0  0  0  0  0  0
   -2.4454   -0.1979   -0.7505 H   0  0  0  0  0  0  0  0  0  0  0  0
    0.5215   -1.4774   -1.9979 H   0  0  0  0  0  0  0  0  0  0  0  0
    1.2688    0.1510   -2.1197 H   0  0  0  0  0  0  0  0  0  0  0  0
   -0.2438   -1.5497    0.8010 H   0  0  0  0  0  0  0  0  0  0  0  0
    0.5543    1.5207    3.5836 H   0  0  0  0  0  0  0  0  0  0  0  0
  1  2  1  0  0  0  0
  1  9  1  0  0  0  0
  1 11  1  0  0  0  0
  2  6  1  1  0  0  0
  3 12  1  0  0  0  0
  3  2  1  0  0  0  0
  4  2  1  0  0  0  0
  4  5  1  0  0  0  0
  5  6  1  0  0  0  0
  6 15  1  1  0  0  0
  6  7  1  0  0  0  0
  7  8  3  0  0  0  0
  8 16  1  0  0  0  0
 10  1  1  0  0  0  0
 13  4  1  0  0  0  0
 14  4  1  0  0  0  0
M  END
