title
 OpenBabel02282109583D

 15 15  0  0  1  0  0  0  0  0999 V2000
   -0.6613    1.5212   -0.7465 C   0  0  0  0  0  0  0  0  0  0  0  0
   -0.5052    0.0102   -0.7546 C   0  0  1  0  0  0  0  0  0  0  0  0
   -1.6623   -0.6550   -1.1808 O   0  0  0  0  0  0  0  0  0  0  0  0
    0.7610   -0.5172   -1.4614 C   0  0  0  0  0  0  0  0  0  0  0  0
    1.4098   -0.7914   -0.1968 O   0  0  0  0  0  0  0  0  0  0  0  0
    0.1829   -0.6029    0.5260 C   0  0  1  0  0  0  0  0  0  0  0  0
    0.3306    0.2283    1.7171 C   0  0  0  0  0  0  0  0  0  0  0  0
    0.4064    0.9064    2.6503 N   0  0  0  0  0  0  0  0  0  0  0  0
    0.2681    2.0131   -0.4489 H   0  0  0  0  0  0  0  0  0  0  0  0
   -0.9382    1.8672   -1.7468 H   0  0  0  0  0  0  0  0  0  0  0  0
   -1.4382    1.8307   -0.0378 H   0  0  0  0  0  0  0  0  0  0  0  0
   -2.4343   -0.1755   -0.8615 H   0  0  0  0  0  0  0  0  0  0  0  0
    0.5700   -1.4329   -2.0320 H   0  0  0  0  0  0  0  0  0  0  0  0
    1.3296    0.1956   -2.0660 H   0  0  0  0  0  0  0  0  0  0  0  0
   -0.2856   -1.5571    0.7998 H   0  0  0  0  0  0  0  0  0  0  0  0
  1  9  1  0  0  0  0
  1 11  1  0  0  0  0
  2  1  1  0  0  0  0
  2  6  1  1  0  0  0
  3 12  1  0  0  0  0
  3  2  1  0  0  0  0
  4  2  1  0  0  0  0
  4  5  1  0  0  0  0
  5  6  1  0  0  0  0
  6 15  1  1  0  0  0
  6  7  1  0  0  0  0
  7  8  3  0  0  0  0
 10  1  1  0  0  0  0
 13  4  1  0  0  0  0
 14  4  1  0  0  0  0
M  END
