19
title
C -0.95395195 1.8681709 -0.43918827
C -0.74488187 0.3605945 -0.5870696
C -2.058017 -0.408561 -0.4376076
C 0.1202492 -0.05973815 -1.824209
C 1.2060195 -0.58543396 -0.84360653
N 0.34949327 -0.16951913 0.26251122
C 0.5485035 -0.26462162 1.5927091
O 1.5389206 -0.74416274 2.1105015
H -0.0057765385 2.4053717 -0.5311572
H -1.63503 2.2344813 -1.2148323
H -1.3921814 2.1132767 0.5338999
H -2.7678478 -0.10138937 -1.2131488
H -1.89282 -1.4858377 -0.52854073
H -2.5212681 -0.21519512 0.53554976
H -0.3385874 -0.82560486 -2.451166
H 0.43699706 0.7741532 -2.4522648
H 1.3939569 -1.663364 -0.87168145
H 2.1686575 -0.06531819 -0.87268335
H -0.30214584 0.1482476 2.1738458
