title
 OpenBabel02282109583D

 18 18  0  0  1  0  0  0  0  0999 V2000
   -0.9143    1.5779   -0.6713 C   0  0  0  0  0  0  0  0  0  0  0  0
   -0.7152    0.0646   -0.6725 C   0  0  0  0  0  0  0  0  0  0  0  0
   -1.9831   -0.6710   -1.1006 C   0  0  0  0  0  0  0  0  0  0  0  0
    0.5668   -0.4445   -1.3836 C   0  0  0  0  0  0  0  0  0  0  0  0
    1.0152   -1.1383   -0.2026 O   0  0  0  0  0  0  0  0  0  0  0  0
   -0.0357   -0.5895    0.5903 C   0  0  1  0  0  0  0  0  0  0  0  0
    0.4317    0.3712    1.6605 C   0  0  0  0  0  0  0  0  0  0  0  0
    1.5535    0.7885    1.7749 O   0  0  0  0  0  0  0  0  0  0  0  0
   -0.0151    2.1080   -0.3447 H   0  0  0  0  0  0  0  0  0  0  0  0
   -1.1573    1.9235   -1.6823 H   0  0  0  0  0  0  0  0  0  0  0  0
   -1.7421    1.8742   -0.0176 H   0  0  0  0  0  0  0  0  0  0  0  0
   -2.2908   -0.3572   -2.1045 H   0  0  0  0  0  0  0  0  0  0  0  0
   -1.8268   -1.7541   -1.1179 H   0  0  0  0  0  0  0  0  0  0  0  0
   -2.8121   -0.4579   -0.4166 H   0  0  0  0  0  0  0  0  0  0  0  0
    0.4091   -1.1275   -2.2266 H   0  0  0  0  0  0  0  0  0  0  0  0
    1.2703    0.3433   -1.6803 H   0  0  0  0  0  0  0  0  0  0  0  0
   -0.6479   -1.3667    1.0738 H   0  0  0  0  0  0  0  0  0  0  0  0
   -0.3847    0.6866    2.3545 H   0  0  0  0  0  0  0  0  0  0  0  0
  1  9  1  0  0  0  0
  1 11  1  0  0  0  0
  2  1  1  0  0  0  0
  2  6  1  0  0  0  0
  3  2  1  0  0  0  0
  3 14  1  0  0  0  0
  4  2  1  0  0  0  0
  4  5  1  0  0  0  0
  5  6  1  0  0  0  0
  6 17  1  1  0  0  0
  6  7  1  0  0  0  0
  7  8  2  0  0  0  0
  7 18  1  0  0  0  0
 10  1  1  0  0  0  0
 12  3  1  0  0  0  0
 13  3  1  0  0  0  0
 15  4  1  0  0  0  0
 16  4  1  0  0  0  0
M  END
