18
title
C -0.9143478 1.577917 -0.6712729
C -0.7151563 0.064570546 -0.6725111
C -1.9830902 -0.6709773 -1.1006013
C 0.5667598 -0.44446197 -1.3835797
O 1.0152086 -1.1382718 -0.20255512
C -0.035668768 -0.58948165 0.5902806
C 0.43172386 0.37124738 1.6604705
O 1.553545 0.7884774 1.7748761
H -0.015112734 2.1080334 -0.34473154
H -1.1572839 1.9234884 -1.6823106
H -1.7421186 1.8741859 -0.017617727
H -2.2907803 -0.3572398 -2.1045008
H -1.8268175 -1.7540592 -1.1179062
H -2.812072 -0.45787525 -0.41660976
H 0.40913025 -1.1274697 -2.2266288
H 1.2702568 0.34326062 -1.6803303
H -0.64793503 -1.3667328 1.0737978
H -0.38467768 0.6866243 2.3544884
