title
 OpenBabel02282109583D

 18 18  0  0  1  0  0  0  0  0999 V2000
   -0.7248    1.6245   -0.6565 C   0  0  0  0  0  0  0  0  0  0  0  0
   -0.4800    0.1239   -0.7605 C   0  0  0  0  0  0  0  0  0  0  0  0
   -1.7161   -0.6206   -1.2450 C   0  0  0  0  0  0  0  0  0  0  0  0
    0.6601   -0.1533   -1.6233 O   0  0  0  0  0  0  0  0  0  0  0  0
    1.3842   -0.7897   -0.5601 C   0  0  0  0  0  0  0  0  0  0  0  0
    0.2401   -0.5778    0.4540 C   0  0  1  0  0  0  0  0  0  0  0  0
    0.5611    0.2608    1.6606 C   0  0  0  0  0  0  0  0  0  0  0  0
    0.1138    0.0669    2.7624 O   0  0  0  0  0  0  0  0  0  0  0  0
    0.1873    2.1626   -0.3882 H   0  0  0  0  0  0  0  0  0  0  0  0
   -1.0652    2.0064   -1.6240 H   0  0  0  0  0  0  0  0  0  0  0  0
   -1.4956    1.8457    0.0894 H   0  0  0  0  0  0  0  0  0  0  0  0
   -2.0207   -0.2387   -2.2248 H   0  0  0  0  0  0  0  0  0  0  0  0
   -1.5129   -1.6904   -1.3429 H   0  0  0  0  0  0  0  0  0  0  0  0
   -2.5496   -0.4860   -0.5474 H   0  0  0  0  0  0  0  0  0  0  0  0
    1.6213   -1.8365   -0.7813 H   0  0  0  0  0  0  0  0  0  0  0  0
    2.3169   -0.2598   -0.3226 H   0  0  0  0  0  0  0  0  0  0  0  0
   -0.2689   -1.4836    0.7854 H   0  0  0  0  0  0  0  0  0  0  0  0
    1.2691    1.1008    1.4726 H   0  0  0  0  0  0  0  0  0  0  0  0
  1  9  1  0  0  0  0
  1 11  1  0  0  0  0
  2  1  1  0  0  0  0
  2  6  1  0  0  0  0
  3  2  1  0  0  0  0
  3 14  1  0  0  0  0
  4  2  1  0  0  0  0
  4  5  1  0  0  0  0
  5 16  1  0  0  0  0
  5  6  1  0  0  0  0
  6 17  1  1  0  0  0
  6  7  1  0  0  0  0
  7  8  2  0  0  0  0
 10  1  1  0  0  0  0
 12  3  1  0  0  0  0
 13  3  1  0  0  0  0
 15  5  1  0  0  0  0
 18  7  1  0  0  0  0
M  END
