title
 OpenBabel02282109583D

 17 17  0  0  1  0  0  0  0  0999 V2000
   -0.7149    1.5431   -0.6232 C   0  0  0  0  0  0  0  0  0  0  0  0
   -0.5151    0.0370   -0.7054 C   0  0  1  0  0  0  0  0  0  0  0  0
   -1.7268   -0.6508   -0.8640 O   0  0  0  0  0  0  0  0  0  0  0  0
    0.5473   -0.4221   -1.7322 C   0  0  0  0  0  0  0  0  0  0  0  0
    1.5435   -0.5235   -0.6383 N   0  0  0  0  0  0  0  0  0  0  0  0
    0.4789   -0.5603    0.3799 C   0  0  1  0  0  0  0  0  0  0  0  0
    0.7336    0.2533    1.6223 C   0  0  0  0  0  0  0  0  0  0  0  0
   -0.0440    0.3249    2.5425 O   0  0  0  0  0  0  0  0  0  0  0  0
    0.2475    2.0607   -0.5684 H   0  0  0  0  0  0  0  0  0  0  0  0
   -1.2513    1.8935   -1.5103 H   0  0  0  0  0  0  0  0  0  0  0  0
   -1.2937    1.8152    0.2670 H   0  0  0  0  0  0  0  0  0  0  0  0
   -2.3650   -0.2917   -0.2372 H   0  0  0  0  0  0  0  0  0  0  0  0
    0.2494   -1.3813   -2.1730 H   0  0  0  0  0  0  0  0  0  0  0  0
    0.8148    0.2799   -2.5291 H   0  0  0  0  0  0  0  0  0  0  0  0
    2.1424   -1.3404   -0.6742 H   0  0  0  0  0  0  0  0  0  0  0  0
    0.1133   -1.5569    0.6608 H   0  0  0  0  0  0  0  0  0  0  0  0
    1.6888    0.8264    1.6070 H   0  0  0  0  0  0  0  0  0  0  0  0
  1  9  1  0  0  0  0
  1 11  1  0  0  0  0
  2  1  1  0  0  0  0
  2  6  1  1  0  0  0
  3  2  1  0  0  0  0
  3 12  1  0  0  0  0
  4  2  1  0  0  0  0
  4  5  1  0  0  0  0
  5  6  1  0  0  0  0
  6 16  1  1  0  0  0
  6  7  1  0  0  0  0
  7  8  2  0  0  0  0
 10  1  1  0  0  0  0
 13  4  1  0  0  0  0
 14  4  1  0  0  0  0
 15  5  1  0  0  0  0
 17  7  1  0  0  0  0
M  END
