16
title
C -0.77044064 1.5098407 -0.7478595
C -0.64290965 -0.0067961905 -0.7295749
O -1.8648396 -0.65445584 -0.98181796
C 0.60414964 -0.5466076 -1.4820626
O 1.2842472 -0.8123139 -0.23748416
C 0.08662531 -0.6187147 0.51424855
C 0.23100111 0.2397349 1.7439435
O 1.2225225 0.8461816 2.052841
H 0.17297849 1.9835014 -0.46452254
H -1.0285307 1.8524437 -1.7576034
H -1.5513364 1.8468893 -0.05903104
H -2.3780985 -0.11901518 -1.5957241
H 0.38852522 -1.4653791 -2.041292
H 1.1607256 0.1582467 -2.1096184
H -0.39598706 -1.568249 0.79603475
H -0.6995693 0.28075993 2.3583307
