title
 OpenBabel02282109583D

 16 16  0  0  1  0  0  0  0  0999 V2000
   -0.7704    1.5098   -0.7479 C   0  0  0  0  0  0  0  0  0  0  0  0
   -0.6429   -0.0068   -0.7296 C   0  0  1  0  0  0  0  0  0  0  0  0
   -1.8648   -0.6545   -0.9818 O   0  0  0  0  0  0  0  0  0  0  0  0
    0.6041   -0.5466   -1.4821 C   0  0  0  0  0  0  0  0  0  0  0  0
    1.2842   -0.8123   -0.2375 O   0  0  0  0  0  0  0  0  0  0  0  0
    0.0866   -0.6187    0.5142 C   0  0  1  0  0  0  0  0  0  0  0  0
    0.2310    0.2397    1.7439 C   0  0  0  0  0  0  0  0  0  0  0  0
    1.2225    0.8462    2.0528 O   0  0  0  0  0  0  0  0  0  0  0  0
    0.1730    1.9835   -0.4645 H   0  0  0  0  0  0  0  0  0  0  0  0
   -1.0285    1.8524   -1.7576 H   0  0  0  0  0  0  0  0  0  0  0  0
   -1.5513    1.8469   -0.0590 H   0  0  0  0  0  0  0  0  0  0  0  0
   -2.3781   -0.1190   -1.5957 H   0  0  0  0  0  0  0  0  0  0  0  0
    0.3885   -1.4654   -2.0413 H   0  0  0  0  0  0  0  0  0  0  0  0
    1.1607    0.1582   -2.1096 H   0  0  0  0  0  0  0  0  0  0  0  0
   -0.3960   -1.5682    0.7960 H   0  0  0  0  0  0  0  0  0  0  0  0
   -0.6996    0.2808    2.3583 H   0  0  0  0  0  0  0  0  0  0  0  0
  1  2  1  0  0  0  0
  1  9  1  0  0  0  0
  1 11  1  0  0  0  0
  2  6  1  1  0  0  0
  3  2  1  0  0  0  0
  4  2  1  0  0  0  0
  4  5  1  0  0  0  0
  5  6  1  0  0  0  0
  6 15  1  1  0  0  0
  6  7  1  0  0  0  0
  7  8  2  0  0  0  0
  7 16  1  0  0  0  0
 10  1  1  0  0  0  0
 12  3  1  0  0  0  0
 13  4  1  0  0  0  0
 14  4  1  0  0  0  0
M  END
