title
 OpenBabel02282109583D

 19 19  0  0  0  0  0  0  0  0999 V2000
    1.2568    2.5120    0.1581 C   0  0  0  0  0  0  0  0  0  0  0  0
    1.2154    1.0644    0.3156 N   0  0  0  0  0  0  0  0  0  0  0  0
    0.1752    0.4423    0.0110 C   0  0  0  0  0  0  0  0  0  0  0  0
   -1.0395    0.8935   -0.4850 O   0  0  0  0  0  0  0  0  0  0  0  0
   -1.5712   -0.4648   -0.5166 C   0  0  0  0  0  0  0  0  0  0  0  0
   -0.2327   -1.0243    0.0374 C   0  0  0  0  0  0  0  0  0  0  0  0
    0.5602   -1.9068   -0.9268 C   0  0  0  0  0  0  0  0  0  0  0  0
   -0.3021   -1.6244    1.4418 C   0  0  0  0  0  0  0  0  0  0  0  0
    2.0785    2.7760   -0.5169 H   0  0  0  0  0  0  0  0  0  0  0  0
    0.3291    2.9477   -0.2310 H   0  0  0  0  0  0  0  0  0  0  0  0
    1.4811    2.9719    1.1269 H   0  0  0  0  0  0  0  0  0  0  0  0
   -2.4415   -0.5589    0.1388 H   0  0  0  0  0  0  0  0  0  0  0  0
   -1.8313   -0.7588   -1.5373 H   0  0  0  0  0  0  0  0  0  0  0  0
    0.5934   -1.4738   -1.9311 H   0  0  0  0  0  0  0  0  0  0  0  0
    1.5901   -2.0185   -0.5758 H   0  0  0  0  0  0  0  0  0  0  0  0
    0.1122   -2.9041   -0.9975 H   0  0  0  0  0  0  0  0  0  0  0  0
   -0.7669   -2.6162    1.4174 H   0  0  0  0  0  0  0  0  0  0  0  0
    0.7042   -1.7284    1.8578 H   0  0  0  0  0  0  0  0  0  0  0  0
   -0.8815   -0.9908    2.1201 H   0  0  0  0  0  0  0  0  0  0  0  0
  1  2  1  0  0  0  0
  1 11  1  0  0  0  0
  3  6  1  0  0  0  0
  3  2  2  0  0  0  0
  4  3  1  0  0  0  0
  5  4  1  0  0  0  0
  5  6  1  0  0  0  0
  5 12  1  0  0  0  0
  6  8  1  0  0  0  0
  7 15  1  0  0  0  0
  7  6  1  0  0  0  0
  8 18  1  0  0  0  0
  8 19  1  0  0  0  0
  9  1  1  0  0  0  0
 10  1  1  0  0  0  0
 13  5  1  0  0  0  0
 14  7  1  0  0  0  0
 16  7  1  0  0  0  0
 17  8  1  0  0  0  0
M  END
