17
title
C -0.6124949 2.4943593 1.2019728
N -0.3588957 1.0595609 1.2228012
C -0.057988796 0.47040278 0.1626884
O 0.10491761 0.92687386 -1.1322328
C 0.3075154 -0.43655795 -1.6265136
C 0.1995767 -0.99040586 -0.18655214
C 1.4527196 -1.6081318 0.4176968
O -0.9325779 -1.8232294 -0.033068147
H 0.13971296 3.001532 1.8164766
H -0.5999486 2.9345472 0.19831988
H -1.5864084 2.6908832 1.6625603
H -0.50927377 -0.7451237 -2.281262
H 1.2756612 -0.53257126 -2.122749
H 2.3337371 -0.9853371 0.23505077
H 1.331698 -1.7114531 1.5004665
H 1.6222495 -2.600284 -0.010872926
H -1.24684 -1.7106293 0.87175554
