22
title
C -0.6774586 1.6570891 -0.9470546
C -0.61442906 0.12671135 -0.8807798
C -1.9917272 -0.47505385 -1.1450454
C 0.5656914 -0.43170482 -1.7417583
C 1.4367727 -0.5199152 -0.46135065
C 0.14082414 -0.42428416 0.38255093
C 0.15599465 0.3564451 1.6810362
O 0.9459583 -0.37813324 2.6094027
H 0.3027261 2.1185088 -0.7903251
H -1.0359291 1.9765557 -1.932337
H -1.3649615 2.0665574 -0.19817093
H -2.3706594 -0.17676085 -2.1300318
H -1.9588385 -1.5693169 -1.1170079
H -2.7226562 -0.14312002 -0.39767915
H 0.33536297 -1.4203205 -2.1502414
H 0.9239425 0.20381819 -2.5568569
H 2.0550454 -1.4095255 -0.32893458
H 2.0736027 0.36075816 -0.33148834
H -0.22728434 -1.4323305 0.60602736
H 0.5754145 1.3614902 1.5193391
H -0.8739629 0.48750877 2.0543063
H 1.0029069 0.13086036 3.4232643
