20
title
C -0.870093 1.7231697 -0.98242706
C -0.6621606 0.21597745 -0.85847163
C -1.8947408 -0.54836786 -1.3450662
C 0.659302 -0.35237813 -1.4367874
O 0.97405744 -1.0208057 -0.19608516
C -0.12163673 -0.35481566 0.48870134
C 0.44504106 0.5716878 1.553982
O 1.221146 -0.17899899 2.4692016
H 0.0070080278 2.2934515 -0.665332
H -1.0787545 1.9913064 -2.0243332
H -1.7249584 2.0563939 -0.38359445
H -2.120177 -0.30362394 -2.389176
H -1.741812 -1.6300449 -1.2764124
H -2.7751334 -0.29331124 -0.74454087
H 0.5638765 -1.0603516 -2.2684324
H 1.4118392 0.4041412 -1.6966771
H -0.774719 -1.0932451 0.97185683
H 1.0446972 1.3692646 1.0890167
H -0.36100954 1.0459996 2.1249635
H 1.8321633 -0.6940804 1.9269662
