title
 OpenBabel02282109583D

 20 20  0  0  1  0  0  0  0  0999 V2000
   -0.8701    1.7232   -0.9824 C   0  0  0  0  0  0  0  0  0  0  0  0
   -0.6622    0.2160   -0.8585 C   0  0  0  0  0  0  0  0  0  0  0  0
   -1.8947   -0.5484   -1.3451 C   0  0  0  0  0  0  0  0  0  0  0  0
    0.6593   -0.3524   -1.4368 C   0  0  0  0  0  0  0  0  0  0  0  0
    0.9741   -1.0208   -0.1961 O   0  0  0  0  0  0  0  0  0  0  0  0
   -0.1216   -0.3548    0.4887 C   0  0  1  0  0  0  0  0  0  0  0  0
    0.4450    0.5717    1.5540 C   0  0  0  0  0  0  0  0  0  0  0  0
    1.2211   -0.1790    2.4692 O   0  0  0  0  0  0  0  0  0  0  0  0
    0.0070    2.2935   -0.6653 H   0  0  0  0  0  0  0  0  0  0  0  0
   -1.0788    1.9913   -2.0243 H   0  0  0  0  0  0  0  0  0  0  0  0
   -1.7250    2.0564   -0.3836 H   0  0  0  0  0  0  0  0  0  0  0  0
   -2.1202   -0.3036   -2.3892 H   0  0  0  0  0  0  0  0  0  0  0  0
   -1.7418   -1.6300   -1.2764 H   0  0  0  0  0  0  0  0  0  0  0  0
   -2.7751   -0.2933   -0.7445 H   0  0  0  0  0  0  0  0  0  0  0  0
    0.5639   -1.0604   -2.2684 H   0  0  0  0  0  0  0  0  0  0  0  0
    1.4118    0.4041   -1.6967 H   0  0  0  0  0  0  0  0  0  0  0  0
   -0.7747   -1.0932    0.9719 H   0  0  0  0  0  0  0  0  0  0  0  0
    1.0447    1.3693    1.0890 H   0  0  0  0  0  0  0  0  0  0  0  0
   -0.3610    1.0460    2.1250 H   0  0  0  0  0  0  0  0  0  0  0  0
    1.8322   -0.6941    1.9270 H   0  0  0  0  0  0  0  0  0  0  0  0
  1  2  1  0  0  0  0
  1  9  1  0  0  0  0
  1 11  1  0  0  0  0
  2  6  1  0  0  0  0
  3 13  1  0  0  0  0
  3  2  1  0  0  0  0
  3 14  1  0  0  0  0
  4  2  1  0  0  0  0
  4  5  1  0  0  0  0
  5  6  1  0  0  0  0
  6 17  1  1  0  0  0
  6  7  1  0  0  0  0
  7 19  1  0  0  0  0
  7  8  1  0  0  0  0
 10  1  1  0  0  0  0
 12  3  1  0  0  0  0
 15  4  1  0  0  0  0
 16  4  1  0  0  0  0
 18  7  1  0  0  0  0
 20  8  1  0  0  0  0
M  END
