20
title
C -0.8443782 1.6647879 -0.8661346
C -0.63152975 0.15502885 -0.8096635
C -1.8731538 -0.59981436 -1.269471
O 0.5230647 -0.22236642 -1.617189
C 1.2300742 -0.73927593 -0.47214597
C 0.04883329 -0.43473414 0.4661523
C 0.3278028 0.4529189 1.6628348
O 1.0680256 -0.33177534 2.5894585
H 0.063744225 2.2083268 -0.5947377
H -1.113791 1.9564867 -1.8863372
H -1.6547507 1.97867 -0.19924603
H -2.1445622 -0.30187204 -2.2874668
H -1.6925333 -1.6782826 -1.2661709
H -2.7236865 -0.3881004 -0.61173505
H 1.4968958 -1.7952135 -0.59390014
H 2.1437328 -0.1684694 -0.25881845
H -0.45700696 -1.3356107 0.8234385
H 0.89935726 1.3426986 1.3582317
H -0.6194075 0.80412805 2.1039667
H 1.3094778 0.22772717 3.3333848
