title
 OpenBabel02282109583D

 22 22  0  0  1  0  0  0  0  0999 V2000
   -0.6868    2.7333    1.0448 C   0  0  0  0  0  0  0  0  0  0  0  0
   -0.8144    1.2060    1.0055 C   0  0  0  0  0  0  0  0  0  0  0  0
   -0.0580    0.5830   -0.1603 C   0  0  1  0  0  0  0  0  0  0  0  0
    1.4970    0.5799   -0.1770 C   0  0  0  0  0  0  0  0  0  0  0  0
    1.4503   -0.8152   -0.8544 C   0  0  0  0  0  0  0  0  0  0  0  0
   -0.0268   -0.9597   -0.3717 C   0  0  1  0  0  0  0  0  0  0  0  0
   -0.1635   -1.7998    0.8949 C   0  0  0  0  0  0  0  0  0  0  0  0
   -0.9816   -1.3565   -1.3415 O   0  0  0  0  0  0  0  0  0  0  0  0
    0.3601    3.0423    1.1379 H   0  0  0  0  0  0  0  0  0  0  0  0
   -1.0839    3.1860    0.1295 H   0  0  0  0  0  0  0  0  0  0  0  0
   -1.2349    3.1575    1.8919 H   0  0  0  0  0  0  0  0  0  0  0  0
   -0.4489    0.7883    1.9524 H   0  0  0  0  0  0  0  0  0  0  0  0
   -1.8747    0.9302    0.9349 H   0  0  0  0  0  0  0  0  0  0  0  0
   -0.4228    1.0112   -1.1015 H   0  0  0  0  0  0  0  0  0  0  0  0
    1.9981    1.3845   -0.7186 H   0  0  0  0  0  0  0  0  0  0  0  0
    1.9147    0.5331    0.8342 H   0  0  0  0  0  0  0  0  0  0  0  0
    1.4802   -0.7409   -1.9443 H   0  0  0  0  0  0  0  0  0  0  0  0
    2.1691   -1.5708   -0.5242 H   0  0  0  0  0  0  0  0  0  0  0  0
    0.5489   -1.4937    1.6671 H   0  0  0  0  0  0  0  0  0  0  0  0
   -1.1743   -1.7248    1.3064 H   0  0  0  0  0  0  0  0  0  0  0  0
    0.0379   -2.8551    0.6693 H   0  0  0  0  0  0  0  0  0  0  0  0
   -0.9635   -2.3174   -1.4089 H   0  0  0  0  0  0  0  0  0  0  0  0
  1  9  1  0  0  0  0
  1 11  1  0  0  0  0
  2  1  1  0  0  0  0
  2 12  1  0  0  0  0
  3  6  1  6  0  0  0
  3  2  1  0  0  0  0
  4  3  1  0  0  0  0
  4 16  1  0  0  0  0
  5 18  1  0  0  0  0
  5  6  1  0  0  0  0
  5  4  1  0  0  0  0
  6  8  1  6  0  0  0
  6  7  1  0  0  0  0
  7 20  1  0  0  0  0
  7 19  1  0  0  0  0
 10  1  1  0  0  0  0
 13  2  1  0  0  0  0
 14  3  1  0  0  0  0
 15  4  1  0  0  0  0
 17  5  1  0  0  0  0
 21  7  1  0  0  0  0
 22  8  1  0  0  0  0
M  END
