22
title
C 1.1631458 2.70027 -0.10462022
C 1.2699288 1.1898048 0.13450277
C -0.09716595 0.5382708 0.24099459
O -0.8607341 0.6376772 -0.98602045
C -1.2630383 -0.7418398 -0.8973117
C -0.27873886 -1.0139326 0.26899195
C 0.9423244 -1.8288418 -0.15802349
C -0.8929621 -1.5720645 1.54946
H 2.1525505 3.1547992 -0.21151264
H 0.5932657 2.9024954 -1.0158482
H 0.652999 3.1983223 0.72732955
H 1.8346342 0.7275215 -0.68166393
H 1.8239614 0.9920738 1.0619848
H -0.6541059 1.0126942 1.0665349
H -2.324607 -0.8432444 -0.63030636
H -1.0785943 -1.284211 -1.8328816
H 1.3610673 -1.4714638 -1.1030418
H 1.7339537 -1.7936555 0.5983145
H 0.6641436 -2.8798873 -0.29620355
H -1.1926321 -2.6184115 1.4200977
H -0.17622782 -1.5360001 2.378221
H -1.7796158 -1.0036789 1.8483797
