22
title
C -0.07488021 2.6599526 0.7822409
O -0.6038679 1.4084481 0.40952826
C 0.36408615 0.5154337 -0.07263403
C 1.3356948 -0.17372122 0.9234951
C 1.1113473 -1.4941251 0.13678707
C -0.17795905 -0.88087803 -0.50192994
C -1.4410805 -1.2736268 0.27009624
C -0.36866182 -1.0903814 -2.0010157
H 0.65418017 2.5732963 1.6019949
H 0.42098612 3.1598208 -0.06534617
H -0.9089349 3.2807012 1.1188728
H 0.9268259 0.9816283 -0.89889723
H 2.3560057 0.20968267 0.99389726
H 0.9018345 -0.21339121 1.9264129
H 1.8937798 -1.6701031 -0.60703546
H 0.9793886 -2.4066696 0.72340685
H -1.3178679 -1.148978 1.349448
H -2.291947 -0.65773493 -0.03469996
H -1.6879116 -2.3236177 0.0763116
H -0.5900812 -2.139871 -2.2277465
H -1.2017287 -0.4867417 -2.37937
H 0.53063697 -0.81129426 -2.5608068
