title
 OpenBabel02282109583D

 20 20  0  0  1  0  0  0  0  0999 V2000
   -0.7206    2.6671   -0.3727 C   0  0  0  0  0  0  0  0  0  0  0  0
   -0.1632    1.4178   -0.7125 O   0  0  0  0  0  0  0  0  0  0  0  0
   -0.1352    0.5113    0.3541 C   0  0  1  0  0  0  0  0  0  0  0  0
   -1.4383   -0.2266    0.7757 C   0  0  0  0  0  0  0  0  0  0  0  0
   -0.5912   -1.5209    0.9169 C   0  0  0  0  0  0  0  0  0  0  0  0
    0.5209   -0.8531    0.0441 C   0  0  1  0  0  0  0  0  0  0  0  0
    0.4613   -1.2442   -1.4280 C   0  0  0  0  0  0  0  0  0  0  0  0
    1.8443   -0.9139    0.5415 O   0  0  0  0  0  0  0  0  0  0  0  0
   -0.1624    3.1507    0.4443 H   0  0  0  0  0  0  0  0  0  0  0  0
   -0.6665    3.3010   -1.2612 H   0  0  0  0  0  0  0  0  0  0  0  0
   -1.7735    2.5797   -0.0648 H   0  0  0  0  0  0  0  0  0  0  0  0
    0.3630    0.9532    1.2304 H   0  0  0  0  0  0  0  0  0  0  0  0
   -1.9640    0.1335    1.6616 H   0  0  0  0  0  0  0  0  0  0  0  0
   -2.1410   -0.2819   -0.0601 H   0  0  0  0  0  0  0  0  0  0  0  0
   -0.2304   -1.6709    1.9370 H   0  0  0  0  0  0  0  0  0  0  0  0
   -1.0269   -2.4520    0.5466 H   0  0  0  0  0  0  0  0  0  0  0  0
   -0.5534   -1.1655   -1.8271 H   0  0  0  0  0  0  0  0  0  0  0  0
    1.1095   -0.5932   -2.0193 H   0  0  0  0  0  0  0  0  0  0  0  0
    0.7895   -2.2841   -1.5524 H   0  0  0  0  0  0  0  0  0  0  0  0
    2.2496   -1.7276    0.2235 H   0  0  0  0  0  0  0  0  0  0  0  0
  1 11  1  0  0  0  0
  1  9  1  0  0  0  0
  2  1  1  0  0  0  0
  2  3  1  0  0  0  0
  3  6  1  6  0  0  0
  3  4  1  0  0  0  0
  3 12  1  0  0  0  0
  4  5  1  0  0  0  0
  4 13  1  0  0  0  0
  5 15  1  0  0  0  0
  6  8  1  1  0  0  0
  6  5  1  0  0  0  0
  7  6  1  0  0  0  0
 10  1  1  0  0  0  0
 14  4  1  0  0  0  0
 16  5  1  0  0  0  0
 17  7  1  0  0  0  0
 18  7  1  0  0  0  0
 19  7  1  0  0  0  0
 20  8  1  0  0  0  0
M  END
