title
 OpenBabel02282109583D

 20 20  0  0  1  0  0  0  0  0999 V2000
   -0.1309    2.5949    1.0644 C   0  0  0  0  0  0  0  0  0  0  0  0
   -0.6217    1.3345    0.6636 O   0  0  0  0  0  0  0  0  0  0  0  0
    0.2868    0.6073   -0.1139 C   0  0  1  0  0  0  0  0  0  0  0  0
    1.4245   -0.1488    0.6065 C   0  0  0  0  0  0  0  0  0  0  0  0
    0.9971   -1.4011    0.0412 O   0  0  0  0  0  0  0  0  0  0  0  0
   -0.2082   -0.8041   -0.5336 C   0  0  0  0  0  0  0  0  0  0  0  0
   -1.4526   -1.2935    0.1954 C   0  0  0  0  0  0  0  0  0  0  0  0
   -0.2710   -1.0633   -2.0312 C   0  0  0  0  0  0  0  0  0  0  0  0
    0.7604    2.5067    1.7038 H   0  0  0  0  0  0  0  0  0  0  0  0
    0.1280    3.2224    0.1972 H   0  0  0  0  0  0  0  0  0  0  0  0
   -0.9234    3.0858    1.6338 H   0  0  0  0  0  0  0  0  0  0  0  0
    0.6353    1.2121   -0.9643 H   0  0  0  0  0  0  0  0  0  0  0  0
    2.4543    0.1004    0.3254 H   0  0  0  0  0  0  0  0  0  0  0  0
    1.3302   -0.1291    1.7010 H   0  0  0  0  0  0  0  0  0  0  0  0
   -1.3873   -1.0894    1.2656 H   0  0  0  0  0  0  0  0  0  0  0  0
   -2.3501   -0.7999   -0.1892 H   0  0  0  0  0  0  0  0  0  0  0  0
   -1.5566   -2.3731    0.0482 H   0  0  0  0  0  0  0  0  0  0  0  0
   -0.3955   -2.1330   -2.2276 H   0  0  0  0  0  0  0  0  0  0  0  0
   -1.1173   -0.5315   -2.4792 H   0  0  0  0  0  0  0  0  0  0  0  0
    0.6492   -0.7327   -2.5213 H   0  0  0  0  0  0  0  0  0  0  0  0
  1 11  1  0  0  0  0
  1  9  1  0  0  0  0
  2  1  1  0  0  0  0
  3 12  1  6  0  0  0
  3  4  1  0  0  0  0
  3  2  1  0  0  0  0
  4 14  1  0  0  0  0
  5  4  1  0  0  0  0
  6  3  1  0  0  0  0
  6  5  1  0  0  0  0
  6  7  1  0  0  0  0
  7 15  1  0  0  0  0
  8  6  1  0  0  0  0
 10  1  1  0  0  0  0
 13  4  1  0  0  0  0
 16  7  1  0  0  0  0
 17  7  1  0  0  0  0
 18  8  1  0  0  0  0
 19  8  1  0  0  0  0
 20  8  1  0  0  0  0
M  END
