20
title
C -0.13085794 2.594911 1.0643872
O -0.621702 1.3344666 0.6636045
C 0.28677133 0.6072753 -0.11388937
C 1.4245186 -0.14880325 0.6065486
O 0.99713486 -1.4010996 0.04120955
C -0.20818806 -0.804122 -0.5336367
C -1.4525888 -1.2935051 0.1954113
C -0.2709574 -1.0632843 -2.0312035
H 0.76042277 2.506713 1.7037776
H 0.12800296 3.222448 0.19718781
H -0.9233792 3.0857685 1.6338072
H 0.6352542 1.2120874 -0.96431506
H 2.4542973 0.10043906 0.32541034
H 1.3301516 -0.12905957 1.7010157
H -1.3873143 -1.0893983 1.2655636
H -2.3501081 -0.7998649 -0.18916014
H -1.5565788 -2.3730786 0.048167914
H -0.39553276 -2.132981 -2.2276058
H -1.117333 -0.53154194 -2.479245
H 0.64924055 -0.7326603 -2.5213442
