19
title
C -0.9494797 1.6069568 0.04329266
C -0.8805874 0.06958011 0.03682156
C -2.295671 -0.5216328 0.028118663
C -0.11950687 -0.42158145 -1.2008014
O 1.2573966 -0.0165338 -1.1868513
C 1.8630451 -0.061435845 0.025297333
N 1.3581768 -0.25963682 1.1662809
C -0.08851359 -0.4421534 1.2595567
H 0.045818295 2.057923 0.06823626
H -1.4651269 1.9794425 -0.84867805
H -1.4996153 1.9615533 0.9210149
H -2.871693 -0.16329786 -0.8326059
H -2.273391 -1.6162194 -0.012957223
H -2.8402693 -0.23285443 0.93338406
H -0.15574756 -1.5177205 -1.2604592
H -0.53799736 -0.013266861 -2.1250436
H 2.9304018 0.11979774 -0.0897508
H -0.43224528 0.067837805 2.167662
H -0.29034653 -1.51033 1.4192755
