title
 OpenBabel02282109583D

 20 20  0  0  1  0  0  0  0  0999 V2000
   -0.2775    2.3424    0.0568 C   0  0  0  0  0  0  0  0  0  0  0  0
   -0.2870    0.8104    0.0375 C   0  0  1  0  0  0  0  0  0  0  0  0
   -1.6393    0.3391   -0.0259 O   0  0  0  0  0  0  0  0  0  0  0  0
    0.3839    0.2616   -1.2297 C   0  0  0  0  0  0  0  0  0  0  0  0
    0.3195   -1.2706   -1.2862 C   0  0  0  0  0  0  0  0  0  0  0  0
    0.7150   -1.8982    0.0227 C   0  0  0  0  0  0  0  0  0  0  0  0
    0.7592   -1.2229    1.1693 C   0  0  0  0  0  0  0  0  0  0  0  0
    0.4198    0.2403    1.2857 C   0  0  0  0  0  0  0  0  0  0  0  0
    0.7413    2.7396    0.0009 H   0  0  0  0  0  0  0  0  0  0  0  0
   -0.8512    2.7316   -0.7892 H   0  0  0  0  0  0  0  0  0  0  0  0
   -0.7320    2.7225    0.9802 H   0  0  0  0  0  0  0  0  0  0  0  0
   -2.0833    0.6037    0.7864 H   0  0  0  0  0  0  0  0  0  0  0  0
   -0.1000    0.6967   -2.1105 H   0  0  0  0  0  0  0  0  0  0  0  0
    1.4299    0.5899   -1.2356 H   0  0  0  0  0  0  0  0  0  0  0  0
   -0.6998   -1.5853   -1.5452 H   0  0  0  0  0  0  0  0  0  0  0  0
    0.9655   -1.6413   -2.0917 H   0  0  0  0  0  0  0  0  0  0  0  0
    0.9588   -2.9580    0.0119 H   0  0  0  0  0  0  0  0  0  0  0  0
    1.0559   -1.7276    2.0859 H   0  0  0  0  0  0  0  0  0  0  0  0
    1.3324    0.8197    1.4889 H   0  0  0  0  0  0  0  0  0  0  0  0
   -0.2242    0.4094    2.1619 H   0  0  0  0  0  0  0  0  0  0  0  0
  1 11  1  0  0  0  0
  2  3  1  1  0  0  0
  2  1  1  0  0  0  0
  2  8  1  0  0  0  0
  3 12  1  0  0  0  0
  4  2  1  0  0  0  0
  5  4  1  0  0  0  0
  5  6  1  0  0  0  0
  6  7  2  0  0  0  0
  7  8  1  0  0  0  0
  7 18  1  0  0  0  0
  8 19  1  0  0  0  0
  8 20  1  0  0  0  0
  9  1  1  0  0  0  0
 10  1  1  0  0  0  0
 13  4  1  0  0  0  0
 14  4  1  0  0  0  0
 15  5  1  0  0  0  0
 16  5  1  0  0  0  0
 17  6  1  0  0  0  0
M  END
