title
 OpenBabel02282109583D

 17 17  0  0  1  0  0  0  0  0999 V2000
   -0.3514    2.3277    0.0453 C   0  0  0  0  0  0  0  0  0  0  0  0
   -0.3380    0.7983    0.0366 C   0  0  1  0  0  0  0  0  0  0  0  0
   -1.6665    0.2792    0.0816 O   0  0  0  0  0  0  0  0  0  0  0  0
    0.3906    0.2633   -1.2010 C   0  0  0  0  0  0  0  0  0  0  0  0
    0.4704   -1.1626   -1.1958 O   0  0  0  0  0  0  0  0  0  0  0  0
    0.7023   -1.7276    0.0167 C   0  0  0  0  0  0  0  0  0  0  0  0
    0.7104   -1.1946    1.1603 N   0  0  0  0  0  0  0  0  0  0  0  0
    0.3664    0.2182    1.2714 C   0  0  0  0  0  0  0  0  0  0  0  0
    0.6612    2.7434    0.0312 H   0  0  0  0  0  0  0  0  0  0  0  0
   -0.8879    2.7173   -0.8284 H   0  0  0  0  0  0  0  0  0  0  0  0
   -0.8630    2.6884    0.9420 H   0  0  0  0  0  0  0  0  0  0  0  0
   -2.1150    0.5200   -0.7363 H   0  0  0  0  0  0  0  0  0  0  0  0
   -0.1380    0.5332   -2.1216 H   0  0  0  0  0  0  0  0  0  0  0  0
    1.4050    0.6805   -1.2552 H   0  0  0  0  0  0  0  0  0  0  0  0
    0.8973   -2.7910   -0.1071 H   0  0  0  0  0  0  0  0  0  0  0  0
    1.2771    0.7902    1.4886 H   0  0  0  0  0  0  0  0  0  0  0  0
   -0.2968    0.3397    2.1345 H   0  0  0  0  0  0  0  0  0  0  0  0
  1 11  1  0  0  0  0
  2  1  1  0  0  0  0
  2  3  1  6  0  0  0
  2  8  1  0  0  0  0
  4  5  1  0  0  0  0
  4  2  1  0  0  0  0
  5  6  1  0  0  0  0
  6  7  2  0  0  0  0
  7  8  1  0  0  0  0
  8 16  1  0  0  0  0
  8 17  1  0  0  0  0
  9  1  1  0  0  0  0
 10  1  1  0  0  0  0
 12  3  1  0  0  0  0
 13  4  1  0  0  0  0
 14  4  1  0  0  0  0
 15  6  1  0  0  0  0
M  END
