title
 OpenBabel02282109583D

 22 22  0  0  0  0  0  0  0  0999 V2000
   -0.5271    2.2343    0.0141 C   0  0  0  0  0  0  0  0  0  0  0  0
   -0.5730    0.6930    0.0171 C   0  0  0  0  0  0  0  0  0  0  0  0
   -2.0510    0.2466    0.0765 C   0  0  0  0  0  0  0  0  0  0  0  0
    0.1132    0.1598   -1.2627 C   0  0  0  0  0  0  0  0  0  0  0  0
    0.5085   -1.3177   -1.1560 C   0  0  0  0  0  0  0  0  0  0  0  0
    1.4930   -1.5365    0.0012 C   0  0  0  0  0  0  0  0  0  0  0  0
    1.0713   -0.7885    1.2391 C   0  0  0  0  0  0  0  0  0  0  0  0
    0.1556    0.1793    1.2428 C   0  0  0  0  0  0  0  0  0  0  0  0
    0.5054    2.5983    0.0174 H   0  0  0  0  0  0  0  0  0  0  0  0
   -1.0259    2.6355   -0.8755 H   0  0  0  0  0  0  0  0  0  0  0  0
   -1.0325    2.6475    0.8943 H   0  0  0  0  0  0  0  0  0  0  0  0
   -2.6193    0.6742   -0.7577 H   0  0  0  0  0  0  0  0  0  0  0  0
   -2.1457   -0.8421    0.0327 H   0  0  0  0  0  0  0  0  0  0  0  0
   -2.5224    0.5797    1.0076 H   0  0  0  0  0  0  0  0  0  0  0  0
   -0.5449    0.3213   -2.1250 H   0  0  0  0  0  0  0  0  0  0  0  0
    1.0194    0.7520   -1.4474 H   0  0  0  0  0  0  0  0  0  0  0  0
   -0.3859   -1.9299   -0.9887 H   0  0  0  0  0  0  0  0  0  0  0  0
    0.9474   -1.6613   -2.0990 H   0  0  0  0  0  0  0  0  0  0  0  0
    1.5858   -2.6063    0.2275 H   0  0  0  0  0  0  0  0  0  0  0  0
    2.5031   -1.2137   -0.2945 H   0  0  0  0  0  0  0  0  0  0  0  0
    1.5545   -1.0696    2.1726 H   0  0  0  0  0  0  0  0  0  0  0  0
   -0.1091    0.6610    2.1836 H   0  0  0  0  0  0  0  0  0  0  0  0
  1  2  1  0  0  0  0
  1  9  1  0  0  0  0
  1 11  1  0  0  0  0
  2  3  1  0  0  0  0
  2  8  1  0  0  0  0
  3 14  1  0  0  0  0
  4  5  1  0  0  0  0
  4  2  1  0  0  0  0
  5 17  1  0  0  0  0
  5  6  1  0  0  0  0
  6 19  1  0  0  0  0
  6  7  1  0  0  0  0
  7  8  2  0  0  0  0
  7 21  1  0  0  0  0
  8 22  1  0  0  0  0
 10  1  1  0  0  0  0
 12  3  1  0  0  0  0
 13  3  1  0  0  0  0
 15  4  1  0  0  0  0
 16  4  1  0  0  0  0
 18  5  1  0  0  0  0
 20  6  1  0  0  0  0
M  END
