title
 OpenBabel02282109583D

 20 20  0  0  0  0  0  0  0  0999 V2000
   -0.5843    2.2395    0.0329 C   0  0  0  0  0  0  0  0  0  0  0  0
   -0.5688    0.7015    0.0528 C   0  0  0  0  0  0  0  0  0  0  0  0
   -2.0123    0.1587    0.0655 C   0  0  0  0  0  0  0  0  0  0  0  0
    0.1807    0.1824   -1.1892 C   0  0  0  0  0  0  0  0  0  0  0  0
    0.4539   -1.2052   -1.0981 O   0  0  0  0  0  0  0  0  0  0  0  0
    1.3724   -1.5047   -0.0650 C   0  0  0  0  0  0  0  0  0  0  0  0
    1.0714   -0.7787    1.2168 C   0  0  0  0  0  0  0  0  0  0  0  0
    0.1797    0.2070    1.2739 C   0  0  0  0  0  0  0  0  0  0  0  0
    0.4306    2.6501    0.0566 H   0  0  0  0  0  0  0  0  0  0  0  0
   -1.0823    2.6143   -0.8685 H   0  0  0  0  0  0  0  0  0  0  0  0
   -1.1265    2.6346    0.8988 H   0  0  0  0  0  0  0  0  0  0  0  0
   -2.5955    0.5854   -0.7591 H   0  0  0  0  0  0  0  0  0  0  0  0
   -2.0085   -0.9291   -0.0397 H   0  0  0  0  0  0  0  0  0  0  0  0
   -2.5211    0.4110    1.0020 H   0  0  0  0  0  0  0  0  0  0  0  0
   -0.4232    0.3153   -2.0928 H   0  0  0  0  0  0  0  0  0  0  0  0
    1.1184    0.7484   -1.3186 H   0  0  0  0  0  0  0  0  0  0  0  0
    1.3194   -2.5896    0.0856 H   0  0  0  0  0  0  0  0  0  0  0  0
    2.4063   -1.2804   -0.3898 H   0  0  0  0  0  0  0  0  0  0  0  0
    1.6212   -1.0972    2.0990 H   0  0  0  0  0  0  0  0  0  0  0  0
   -0.0392    0.7000    2.2193 H   0  0  0  0  0  0  0  0  0  0  0  0
  1  2  1  0  0  0  0
  1  9  1  0  0  0  0
  1 11  1  0  0  0  0
  2  3  1  0  0  0  0
  2  8  1  0  0  0  0
  3 14  1  0  0  0  0
  4  5  1  0  0  0  0
  4  2  1  0  0  0  0
  5  6  1  0  0  0  0
  6 17  1  0  0  0  0
  6  7  1  0  0  0  0
  7  8  2  0  0  0  0
  7 19  1  0  0  0  0
  8 20  1  0  0  0  0
 10  1  1  0  0  0  0
 12  3  1  0  0  0  0
 13  3  1  0  0  0  0
 15  4  1  0  0  0  0
 16  4  1  0  0  0  0
 18  6  1  0  0  0  0
M  END
