20
title
C -0.55581975 2.2440293 0.018131424
C -0.5112915 0.7104702 0.017681113
O -1.8621936 0.20363115 -0.009832778
C 0.1500878 0.17511122 -1.2609017
C 0.45675406 -1.3207278 -1.1428859
C 1.441016 -1.5862119 0.003985826
C 1.079348 -0.80894923 1.2413784
C 0.21162292 0.20214306 1.2483299
H 0.45163855 2.672938 0.01304449
H -1.0974367 2.6044264 -0.8614988
H -1.0747545 2.612951 0.9104717
H -2.2175145 0.26478708 0.88302094
H -0.5246678 0.36984327 -2.1008627
H 1.0744851 0.7362053 -1.4454203
H -0.48240966 -1.8482506 -0.9451542
H 0.8569442 -1.708806 -2.0851414
H 1.4782062 -2.6570828 0.24017864
H 2.4654667 -1.3206103 -0.3003044
H 1.5684091 -1.1013393 2.1685908
H -0.0106324265 0.7201288 2.1811168
