title
 OpenBabel02282109583D

 20 20  0  0  1  0  0  0  0  0999 V2000
   -0.5558    2.2440    0.0181 C   0  0  0  0  0  0  0  0  0  0  0  0
   -0.5113    0.7105    0.0177 C   0  0  1  0  0  0  0  0  0  0  0  0
   -1.8622    0.2036   -0.0098 O   0  0  0  0  0  0  0  0  0  0  0  0
    0.1501    0.1751   -1.2609 C   0  0  0  0  0  0  0  0  0  0  0  0
    0.4568   -1.3207   -1.1429 C   0  0  0  0  0  0  0  0  0  0  0  0
    1.4410   -1.5862    0.0040 C   0  0  0  0  0  0  0  0  0  0  0  0
    1.0793   -0.8089    1.2414 C   0  0  0  0  0  0  0  0  0  0  0  0
    0.2116    0.2021    1.2483 C   0  0  0  0  0  0  0  0  0  0  0  0
    0.4516    2.6729    0.0130 H   0  0  0  0  0  0  0  0  0  0  0  0
   -1.0974    2.6044   -0.8615 H   0  0  0  0  0  0  0  0  0  0  0  0
   -1.0748    2.6130    0.9105 H   0  0  0  0  0  0  0  0  0  0  0  0
   -2.2175    0.2648    0.8830 H   0  0  0  0  0  0  0  0  0  0  0  0
   -0.5247    0.3698   -2.1009 H   0  0  0  0  0  0  0  0  0  0  0  0
    1.0745    0.7362   -1.4454 H   0  0  0  0  0  0  0  0  0  0  0  0
   -0.4824   -1.8483   -0.9452 H   0  0  0  0  0  0  0  0  0  0  0  0
    0.8569   -1.7088   -2.0851 H   0  0  0  0  0  0  0  0  0  0  0  0
    1.4782   -2.6571    0.2402 H   0  0  0  0  0  0  0  0  0  0  0  0
    2.4655   -1.3206   -0.3003 H   0  0  0  0  0  0  0  0  0  0  0  0
    1.5684   -1.1013    2.1686 H   0  0  0  0  0  0  0  0  0  0  0  0
   -0.0106    0.7201    2.1811 H   0  0  0  0  0  0  0  0  0  0  0  0
  1 11  1  0  0  0  0
  2  3  1  1  0  0  0
  2  1  1  0  0  0  0
  2  8  1  0  0  0  0
  3 12  1  0  0  0  0
  4  5  1  0  0  0  0
  4  2  1  0  0  0  0
  5 15  1  0  0  0  0
  5  6  1  0  0  0  0
  6 17  1  0  0  0  0
  6  7  1  0  0  0  0
  7  8  2  0  0  0  0
  7 19  1  0  0  0  0
  8 20  1  0  0  0  0
  9  1  1  0  0  0  0
 10  1  1  0  0  0  0
 13  4  1  0  0  0  0
 14  4  1  0  0  0  0
 16  5  1  0  0  0  0
 18  6  1  0  0  0  0
M  END
