title
 OpenBabel02282109583D

 18 18  0  0  1  0  0  0  0  0999 V2000
   -0.5743    2.2466    0.0063 C   0  0  0  0  0  0  0  0  0  0  0  0
   -0.4966    0.7242    0.0498 C   0  0  1  0  0  0  0  0  0  0  0  0
   -1.8508    0.2581    0.0985 O   0  0  0  0  0  0  0  0  0  0  0  0
    0.1910    0.1634   -1.2024 C   0  0  0  0  0  0  0  0  0  0  0  0
    0.3630   -1.2410   -1.0730 O   0  0  0  0  0  0  0  0  0  0  0  0
    1.3162   -1.5610   -0.0750 C   0  0  0  0  0  0  0  0  0  0  0  0
    1.0885   -0.8075    1.2068 C   0  0  0  0  0  0  0  0  0  0  0  0
    0.2569    0.2301    1.2697 C   0  0  0  0  0  0  0  0  0  0  0  0
    0.4248    2.6915   -0.0045 H   0  0  0  0  0  0  0  0  0  0  0  0
   -1.1180    2.5729   -0.8854 H   0  0  0  0  0  0  0  0  0  0  0  0
   -1.1115    2.6163    0.8844 H   0  0  0  0  0  0  0  0  0  0  0  0
   -1.8002   -0.7035    0.0322 H   0  0  0  0  0  0  0  0  0  0  0  0
   -0.4469    0.3201   -2.0763 H   0  0  0  0  0  0  0  0  0  0  0  0
    1.1606    0.6589   -1.3724 H   0  0  0  0  0  0  0  0  0  0  0  0
    1.2357   -2.6412    0.0925 H   0  0  0  0  0  0  0  0  0  0  0  0
    2.3399   -1.3715   -0.4494 H   0  0  0  0  0  0  0  0  0  0  0  0
    1.6331   -1.1535    2.0818 H   0  0  0  0  0  0  0  0  0  0  0  0
    0.0672    0.7438    2.2086 H   0  0  0  0  0  0  0  0  0  0  0  0
  1  2  1  0  0  0  0
  1 11  1  0  0  0  0
  2  3  1  1  0  0  0
  2  8  1  0  0  0  0
  4  5  1  0  0  0  0
  4  2  1  0  0  0  0
  5  6  1  0  0  0  0
  6 15  1  0  0  0  0
  6  7  1  0  0  0  0
  7  8  2  0  0  0  0
  7 17  1  0  0  0  0
  8 18  1  0  0  0  0
  9  1  1  0  0  0  0
 10  1  1  0  0  0  0
 12  3  1  0  0  0  0
 13  4  1  0  0  0  0
 14  4  1  0  0  0  0
 16  6  1  0  0  0  0
M  END
