22
title
C -0.30597612 2.2908013 0.04176299
C -0.42475882 0.76776206 -0.03572098
C -1.9099745 0.363817 -0.003939754
C 0.29131478 0.23861511 -1.2985395
C 0.5253501 -1.2779111 -1.2584102
C 1.2204207 -1.6636692 0.052999265
C 0.43545914 -1.1030219 1.2391216
O 0.2544108 0.30007383 1.1427469
H 0.74594283 2.583723 0.099972
H -0.7528356 2.759999 -0.8401307
H -0.8151177 2.6689422 0.93307906
H -2.452685 0.8511295 -0.82010084
H -2.0597315 -0.7136441 -0.10893921
H -2.3582518 0.6778425 0.9432032
H -0.2823889 0.5203579 -2.1890118
H 1.2623302 0.74418056 -1.3718272
H -0.42961812 -1.813109 -1.3382151
H 1.123854 -1.5871421 -2.1221502
H 1.3116367 -2.7517478 0.1494513
H 2.235261 -1.2467121 0.07016942
H -0.53357095 -1.6215488 1.3228961
H 0.9709567 -1.2641135 2.1801393
