22
title
C -0.371716 2.3474066 0.0019403221
C -0.42927858 0.81381994 -0.029065218
C -1.8964176 0.35042 0.018160095
C 0.28447142 0.2869136 -1.297475
C 0.50550795 -1.2324758 -1.2557273
C 1.1599362 -1.6327009 0.06785425
O 0.42031798 -1.1591854 1.1815733
C 0.32771888 0.25467715 1.1932485
H 0.66164964 2.7113678 -0.022174621
H -0.89456844 2.7739985 -0.86118203
H -0.8467725 2.7447574 0.9062104
H -2.432732 0.64874595 -0.88940597
H -1.9712454 -0.7344931 0.12239917
H -2.414297 0.7993991 0.87314683
H -0.28170472 0.57120615 -2.1925168
H 1.261853 0.7832255 -1.3767276
H -0.44794235 -1.7624509 -1.3589778
H 1.1397905 -1.5510719 -2.0913315
H 1.2143741 -2.7200735 0.17622851
H 2.190799 -1.2370293 0.10962563
H 1.3398348 0.69592816 1.2311244
H -0.18839927 0.5185647 2.1226828
