22
title
C -0.37851846 2.3647866 0.015003786
C -0.45621404 0.8301135 0.0072159586
C -1.9411767 0.4169535 0.013946656
C 0.2640689 0.283592 -1.2494662
C 0.5016421 -1.2272028 -1.1836776
O 1.2152231 -1.5969456 -0.015918983
C 0.5158021 -1.2398344 1.1642706
C 0.27913076 0.27014828 1.2491716
H 0.66124624 2.7095542 0.010573554
H -0.8757518 2.7888188 -0.86489946
H -0.86505234 2.779294 0.90536463
H -2.4571414 0.818893 -0.86511284
H -2.0817478 -0.6674189 0.00898135
H -2.4464839 0.8094123 0.90341914
H -0.3067139 0.5287035 -2.1541588
H 1.240025 0.7763528 -1.3414594
H -0.45496503 -1.7751766 -1.2297297
H 1.1098415 -1.5592657 -2.0306473
H -0.44021255 -1.7883393 1.2159622
H 1.1341536 -1.5809456 2.0002222
H 1.2561526 0.7619608 1.3346934
H -0.2806924 0.5054679 2.1632643
