title
 OpenBabel02282109583D

 22 22  0  0  0  0  0  0  0  0999 V2000
   -0.3785    2.3648    0.0150 C   0  0  0  0  0  0  0  0  0  0  0  0
   -0.4562    0.8301    0.0072 C   0  0  0  0  0  0  0  0  0  0  0  0
   -1.9412    0.4170    0.0139 C   0  0  0  0  0  0  0  0  0  0  0  0
    0.2641    0.2836   -1.2495 C   0  0  0  0  0  0  0  0  0  0  0  0
    0.5016   -1.2272   -1.1837 C   0  0  0  0  0  0  0  0  0  0  0  0
    1.2152   -1.5969   -0.0159 O   0  0  0  0  0  0  0  0  0  0  0  0
    0.5158   -1.2398    1.1643 C   0  0  0  0  0  0  0  0  0  0  0  0
    0.2791    0.2701    1.2492 C   0  0  0  0  0  0  0  0  0  0  0  0
    0.6612    2.7096    0.0106 H   0  0  0  0  0  0  0  0  0  0  0  0
   -0.8758    2.7888   -0.8649 H   0  0  0  0  0  0  0  0  0  0  0  0
   -0.8651    2.7793    0.9054 H   0  0  0  0  0  0  0  0  0  0  0  0
   -2.4571    0.8189   -0.8651 H   0  0  0  0  0  0  0  0  0  0  0  0
   -2.0817   -0.6674    0.0090 H   0  0  0  0  0  0  0  0  0  0  0  0
   -2.4465    0.8094    0.9034 H   0  0  0  0  0  0  0  0  0  0  0  0
   -0.3067    0.5287   -2.1542 H   0  0  0  0  0  0  0  0  0  0  0  0
    1.2400    0.7764   -1.3415 H   0  0  0  0  0  0  0  0  0  0  0  0
   -0.4550   -1.7752   -1.2297 H   0  0  0  0  0  0  0  0  0  0  0  0
    1.1098   -1.5593   -2.0306 H   0  0  0  0  0  0  0  0  0  0  0  0
   -0.4402   -1.7883    1.2160 H   0  0  0  0  0  0  0  0  0  0  0  0
    1.1342   -1.5809    2.0002 H   0  0  0  0  0  0  0  0  0  0  0  0
    1.2562    0.7620    1.3347 H   0  0  0  0  0  0  0  0  0  0  0  0
   -0.2807    0.5055    2.1633 H   0  0  0  0  0  0  0  0  0  0  0  0
  1 11  1  0  0  0  0
  2  3  1  0  0  0  0
  2  1  1  0  0  0  0
  2  8  1  0  0  0  0
  3 14  1  0  0  0  0
  4  5  1  0  0  0  0
  4  2  1  0  0  0  0
  5  6  1  0  0  0  0
  6  7  1  0  0  0  0
  7 19  1  0  0  0  0
  7  8  1  0  0  0  0
  7 20  1  0  0  0  0
  8 21  1  0  0  0  0
  8 22  1  0  0  0  0
  9  1  1  0  0  0  0
 10  1  1  0  0  0  0
 12  3  1  0  0  0  0
 13  3  1  0  0  0  0
 15  4  1  0  0  0  0
 16  4  1  0  0  0  0
 17  5  1  0  0  0  0
 18  5  1  0  0  0  0
M  END
