title
 OpenBabel02282109583D

 20 20  0  0  0  0  0  0  0  0999 V2000
   -0.3486    2.2873    0.0548 C   0  0  0  0  0  0  0  0  0  0  0  0
   -0.4371    0.7649   -0.0036 C   0  0  0  0  0  0  0  0  0  0  0  0
   -1.9007    0.2969   -0.0065 C   0  0  0  0  0  0  0  0  0  0  0  0
    0.3146    0.2277   -1.2344 C   0  0  0  0  0  0  0  0  0  0  0  0
    0.4579   -1.1823   -1.1870 O   0  0  0  0  0  0  0  0  0  0  0  0
    1.1854   -1.5702   -0.0321 C   0  0  0  0  0  0  0  0  0  0  0  0
    0.4695   -1.0930    1.2252 C   0  0  0  0  0  0  0  0  0  0  0  0
    0.2470    0.3073    1.1789 O   0  0  0  0  0  0  0  0  0  0  0  0
    0.6950    2.6062    0.1251 H   0  0  0  0  0  0  0  0  0  0  0  0
   -0.7964    2.7382   -0.8363 H   0  0  0  0  0  0  0  0  0  0  0  0
   -0.8787    2.6618    0.9350 H   0  0  0  0  0  0  0  0  0  0  0  0
   -2.4601    0.8084   -0.7961 H   0  0  0  0  0  0  0  0  0  0  0  0
   -1.9788   -0.7771   -0.1897 H   0  0  0  0  0  0  0  0  0  0  0  0
   -2.3696    0.5287    0.9539 H   0  0  0  0  0  0  0  0  0  0  0  0
   -0.2321    0.4560   -2.1545 H   0  0  0  0  0  0  0  0  0  0  0  0
    1.3068    0.7056   -1.2868 H   0  0  0  0  0  0  0  0  0  0  0  0
    1.2612   -2.6617   -0.0531 H   0  0  0  0  0  0  0  0  0  0  0  0
    2.2021   -1.1440   -0.0658 H   0  0  0  0  0  0  0  0  0  0  0  0
   -0.4768   -1.6418    1.3422 H   0  0  0  0  0  0  0  0  0  0  0  0
    1.0810   -1.2780    2.1147 H   0  0  0  0  0  0  0  0  0  0  0  0
  1  9  1  0  0  0  0
  1 11  1  0  0  0  0
  2  1  1  0  0  0  0
  2  8  1  0  0  0  0
  3  2  1  0  0  0  0
  3 14  1  0  0  0  0
  4  5  1  0  0  0  0
  4  2  1  0  0  0  0
  5  6  1  0  0  0  0
  6  7  1  0  0  0  0
  7 19  1  0  0  0  0
  7 20  1  0  0  0  0
  8  7  1  0  0  0  0
 10  1  1  0  0  0  0
 12  3  1  0  0  0  0
 13  3  1  0  0  0  0
 15  4  1  0  0  0  0
 16  4  1  0  0  0  0
 17  6  1  0  0  0  0
 18  6  1  0  0  0  0
M  END
