20
title
C -0.34859207 2.287336 0.05475255
C -0.43714455 0.76485497 -0.0035887097
C -1.9006618 0.29686442 -0.0065221703
C 0.31455842 0.22769305 -1.2344326
O 0.45789608 -1.1822842 -1.1869948
C 1.1854134 -1.5702139 -0.032067083
C 0.46954837 -1.0929915 1.2251955
O 0.24702784 0.3073013 1.1789116
H 0.69503856 2.6062102 0.12506576
H -0.7963592 2.7381966 -0.83628345
H -0.87874424 2.6618013 0.93502116
H -2.4601443 0.8083803 -0.79613394
H -1.9788219 -0.77707154 -0.1897138
H -2.3695612 0.52870804 0.9539355
H -0.2321053 0.45600903 -2.1545305
H 1.306756 0.7056083 -1.2867742
H 1.2611917 -2.6617205 -0.05312124
H 2.2020652 -1.144038 -0.06575273
H -0.47676057 -1.6418108 1.342158
H 1.0809633 -1.2780062 2.1146553
