22
title
C -0.3660463 2.3592973 0.012328056
C -0.3495161 0.82752115 0.003008416
O -1.6971834 0.3339867 0.068706915
C 0.3489973 0.28990108 -1.2632823
C 0.4362411 -1.2423402 -1.2760036
C 1.1373996 -1.7676224 -0.015948089
C 0.44309723 -1.2553982 1.2533504
C 0.34467483 0.27676046 1.2600046
H 0.6486736 2.7706149 0.015295272
H -0.87838763 2.7479944 -0.87654084
H -0.89375216 2.7280633 0.89692175
H -2.1616337 0.64694387 -0.71503943
H -0.18703416 0.65312386 -2.1511853
H 1.35823 0.719731 -1.3177567
H -0.5786966 -1.6541816 -1.3219217
H 0.9601105 -1.5792986 -2.177547
H 1.1577144 -2.8633242 -0.022087382
H 2.1860938 -1.4365233 -0.018454418
H -0.56791514 -1.6739069 1.3087626
H 0.97954494 -1.595476 2.146406
H 1.3501488 0.71325237 1.3162594
H -0.2053158 0.6213472 2.1426384
