title
 OpenBabel02282109583D

 22 22  0  0  0  0  0  0  0  0999 V2000
   -0.3660    2.3593    0.0123 C   0  0  0  0  0  0  0  0  0  0  0  0
   -0.3495    0.8275    0.0030 C   0  0  0  0  0  0  0  0  0  0  0  0
   -1.6972    0.3340    0.0687 O   0  0  0  0  0  0  0  0  0  0  0  0
    0.3490    0.2899   -1.2633 C   0  0  0  0  0  0  0  0  0  0  0  0
    0.4362   -1.2423   -1.2760 C   0  0  0  0  0  0  0  0  0  0  0  0
    1.1374   -1.7676   -0.0159 C   0  0  0  0  0  0  0  0  0  0  0  0
    0.4431   -1.2554    1.2534 C   0  0  0  0  0  0  0  0  0  0  0  0
    0.3447    0.2768    1.2600 C   0  0  0  0  0  0  0  0  0  0  0  0
    0.6487    2.7706    0.0153 H   0  0  0  0  0  0  0  0  0  0  0  0
   -0.8784    2.7480   -0.8765 H   0  0  0  0  0  0  0  0  0  0  0  0
   -0.8938    2.7281    0.8969 H   0  0  0  0  0  0  0  0  0  0  0  0
   -2.1616    0.6469   -0.7150 H   0  0  0  0  0  0  0  0  0  0  0  0
   -0.1870    0.6531   -2.1512 H   0  0  0  0  0  0  0  0  0  0  0  0
    1.3582    0.7197   -1.3178 H   0  0  0  0  0  0  0  0  0  0  0  0
   -0.5787   -1.6542   -1.3219 H   0  0  0  0  0  0  0  0  0  0  0  0
    0.9601   -1.5793   -2.1775 H   0  0  0  0  0  0  0  0  0  0  0  0
    1.1577   -2.8633   -0.0221 H   0  0  0  0  0  0  0  0  0  0  0  0
    2.1861   -1.4365   -0.0185 H   0  0  0  0  0  0  0  0  0  0  0  0
   -0.5679   -1.6739    1.3088 H   0  0  0  0  0  0  0  0  0  0  0  0
    0.9795   -1.5955    2.1464 H   0  0  0  0  0  0  0  0  0  0  0  0
    1.3501    0.7133    1.3163 H   0  0  0  0  0  0  0  0  0  0  0  0
   -0.2053    0.6213    2.1426 H   0  0  0  0  0  0  0  0  0  0  0  0
  1  9  1  0  0  0  0
  1 11  1  0  0  0  0
  2  1  1  0  0  0  0
  2  3  1  0  0  0  0
  2  8  1  0  0  0  0
  4  2  1  0  0  0  0
  5  4  1  0  0  0  0
  5  6  1  0  0  0  0
  6  7  1  0  0  0  0
  7  8  1  0  0  0  0
  7 19  1  0  0  0  0
  7 20  1  0  0  0  0
  8 21  1  0  0  0  0
  8 22  1  0  0  0  0
 10  1  1  0  0  0  0
 12  3  1  0  0  0  0
 13  4  1  0  0  0  0
 14  4  1  0  0  0  0
 15  5  1  0  0  0  0
 16  5  1  0  0  0  0
 17  6  1  0  0  0  0
 18  6  1  0  0  0  0
M  END
