title
 OpenBabel02282109583D

 18 18  0  0  0  0  0  0  0  0999 V2000
   -0.4018    2.3405    0.0416 C   0  0  0  0  0  0  0  0  0  0  0  0
   -0.3698    0.8197    0.0102 C   0  0  0  0  0  0  0  0  0  0  0  0
   -1.7186    0.3700   -0.0248 O   0  0  0  0  0  0  0  0  0  0  0  0
    0.3749    0.2852   -1.2272 C   0  0  0  0  0  0  0  0  0  0  0  0
    0.4264   -1.1392   -1.1821 O   0  0  0  0  0  0  0  0  0  0  0  0
    1.0661   -1.5803   -0.0130 C   0  0  0  0  0  0  0  0  0  0  0  0
    0.3822   -1.1882    1.1485 O   0  0  0  0  0  0  0  0  0  0  0  0
    0.3278    0.2331    1.2514 C   0  0  0  0  0  0  0  0  0  0  0  0
    0.6086    2.7593    0.0691 H   0  0  0  0  0  0  0  0  0  0  0  0
   -0.9158    2.7240   -0.8446 H   0  0  0  0  0  0  0  0  0  0  0  0
   -0.9485    2.6870    0.9234 H   0  0  0  0  0  0  0  0  0  0  0  0
   -1.6798   -0.5943   -0.0443 H   0  0  0  0  0  0  0  0  0  0  0  0
   -0.1661    0.5513   -2.1382 H   0  0  0  0  0  0  0  0  0  0  0  0
    1.3950    0.6999   -1.2791 H   0  0  0  0  0  0  0  0  0  0  0  0
    1.0657   -2.6717   -0.0359 H   0  0  0  0  0  0  0  0  0  0  0  0
    2.1036   -1.1947    0.0148 H   0  0  0  0  0  0  0  0  0  0  0  0
    1.3449    0.6444    1.3594 H   0  0  0  0  0  0  0  0  0  0  0  0
   -0.2475    0.4612    2.1517 H   0  0  0  0  0  0  0  0  0  0  0  0
  1  9  1  0  0  0  0
  1 11  1  0  0  0  0
  2  1  1  0  0  0  0
  2  8  1  0  0  0  0
  3  2  1  0  0  0  0
  4  5  1  0  0  0  0
  4  2  1  0  0  0  0
  5  6  1  0  0  0  0
  6 16  1  0  0  0  0
  6  7  1  0  0  0  0
  7  8  1  0  0  0  0
  8 17  1  0  0  0  0
  8 18  1  0  0  0  0
 10  1  1  0  0  0  0
 12  3  1  0  0  0  0
 13  4  1  0  0  0  0
 14  4  1  0  0  0  0
 15  6  1  0  0  0  0
M  END
