18
title
C -0.9136649 1.462048 -0.5994435
C -0.8236272 -0.048151232 -0.5816619
C -2.0423365 -0.771916 -1.1194874
C 0.5179296 -0.69630563 -0.79821765
O 1.6491289 0.08490893 -1.0041361
C -0.111245416 -0.74234784 0.59673476
C 0.5385018 0.0015390381 1.6300523
C 1.154624 0.6202748 2.4608564
H 0.01851884 1.924997 -0.27501115
H -1.1263583 1.8117945 -1.6156882
H -1.7199714 1.8126432 0.05373712
H -2.245007 -0.46925429 -2.1531732
H -1.9053036 -1.8582598 -1.110892
H -2.9326034 -0.5432208 -0.5226601
H 0.54239386 -1.6364459 -1.3473421
H 2.0840614 0.21763678 -0.15168412
H -0.5290877 -1.695059 0.90951085
H 1.6545141 1.1710533 3.2188582
