17
title
C -0.9184415 1.4467055 -0.5842405
C -0.8048224 -0.06404842 -0.5882152
C -2.0231235 -0.7967213 -1.1163833
C 0.53585523 -0.6857337 -0.8284006
O 1.6043031 0.16552833 -1.0639777
C -0.074637435 -0.75462866 0.5800624
C 0.53900915 0.005892105 1.6258515
N 1.0564108 0.60610265 2.469988
H -0.006702444 1.9224393 -0.22321993
H -1.1084151 1.8074667 -1.6007
H -1.7528483 1.7654933 0.04880569
H -2.234706 -0.49083602 -2.1468003
H -1.8818676 -1.8820713 -1.1114181
H -2.906818 -0.5702231 -0.5102871
H 0.56657344 -1.6327928 -1.3683455
H 2.368894 -0.14290959 -0.56471413
H -0.46500298 -1.7152773 0.9006777
