title
 OpenBabel02282109583D

 17 17  0  0  1  0  0  0  0  0999 V2000
   -1.0860    1.4539    0.2042 C   0  0  0  0  0  0  0  0  0  0  0  0
   -0.9616   -0.0557    0.2302 C   0  0  1  0  0  0  0  0  0  0  0  0
   -2.0362   -0.8150    0.8275 N   0  0  0  0  0  0  0  0  0  0  0  0
   -0.2508   -0.7817   -0.8939 C   0  0  1  0  0  0  0  0  0  0  0  0
    0.3684   -0.1480   -2.0209 N   0  0  0  0  0  0  0  0  0  0  0  0
    0.4098   -0.7000    0.4810 C   0  0  1  0  0  0  0  0  0  0  0  0
    1.5724    0.1201    0.6421 C   0  0  0  0  0  0  0  0  0  0  0  0
    2.5065    0.7978    0.7416 N   0  0  0  0  0  0  0  0  0  0  0  0
   -0.2285    1.9393   -0.2668 H   0  0  0  0  0  0  0  0  0  0  0  0
   -1.9873    1.7444   -0.3487 H   0  0  0  0  0  0  0  0  0  0  0  0
   -1.1749    1.8514    1.2211 H   0  0  0  0  0  0  0  0  0  0  0  0
   -2.2116   -0.4951    1.7768 H   0  0  0  0  0  0  0  0  0  0  0  0
   -2.8974   -0.6658    0.3074 H   0  0  0  0  0  0  0  0  0  0  0  0
   -0.6633   -1.7657   -1.1039 H   0  0  0  0  0  0  0  0  0  0  0  0
   -0.2847    0.4319   -2.5355 H   0  0  0  0  0  0  0  0  0  0  0  0
    1.1616    0.4252   -1.7562 H   0  0  0  0  0  0  0  0  0  0  0  0
    0.3999   -1.6056    1.0758 H   0  0  0  0  0  0  0  0  0  0  0  0
  1  2  1  0  0  0  0
  1 11  1  0  0  0  0
  2  4  1  6  0  0  0
  2  3  1  0  0  0  0
  3 12  1  0  0  0  0
  4  6  1  1  0  0  0
  5 16  1  0  0  0  0
  5  4  1  0  0  0  0
  6  2  1  1  0  0  0
  6  7  1  0  0  0  0
  6 17  1  0  0  0  0
  7  8  3  0  0  0  0
  9  1  1  0  0  0  0
 10  1  1  0  0  0  0
 13  3  1  0  0  0  0
 14  4  1  0  0  0  0
 15  5  1  0  0  0  0
M  END
