title
 OpenBabel02282109583D

 16 16  0  0  1  0  0  0  0  0999 V2000
   -0.9836    1.4980    0.3533 C   0  0  0  0  0  0  0  0  0  0  0  0
   -0.9205   -0.0076    0.2511 C   0  0  1  0  0  0  0  0  0  0  0  0
   -2.0379   -0.6730    0.7629 O   0  0  0  0  0  0  0  0  0  0  0  0
   -0.3235   -0.6999   -0.9169 C   0  0  1  0  0  0  0  0  0  0  0  0
    0.1567    0.0037   -2.0624 N   0  0  0  0  0  0  0  0  0  0  0  0
    0.4210   -0.7547    0.4581 C   0  0  1  0  0  0  0  0  0  0  0  0
    1.6375   -0.0239    0.6007 C   0  0  0  0  0  0  0  0  0  0  0  0
    2.6138    0.5970    0.6709 N   0  0  0  0  0  0  0  0  0  0  0  0
   -0.0692    1.9810    0.0030 H   0  0  0  0  0  0  0  0  0  0  0  0
   -1.8294    1.8740   -0.2291 H   0  0  0  0  0  0  0  0  0  0  0  0
   -1.1221    1.7981    1.3984 H   0  0  0  0  0  0  0  0  0  0  0  0
   -2.1324   -0.4299    1.6916 H   0  0  0  0  0  0  0  0  0  0  0  0
   -0.8043   -1.6407   -1.1646 H   0  0  0  0  0  0  0  0  0  0  0  0
    0.6315    0.8633   -1.8077 H   0  0  0  0  0  0  0  0  0  0  0  0
    0.8336   -0.5631   -2.5641 H   0  0  0  0  0  0  0  0  0  0  0  0
    0.3561   -1.6877    1.0065 H   0  0  0  0  0  0  0  0  0  0  0  0
  1 11  1  0  0  0  0
  2  4  1  6  0  0  0
  2  1  1  0  0  0  0
  2  3  1  0  0  0  0
  3 12  1  0  0  0  0
  4  6  1  1  0  0  0
  5 14  1  0  0  0  0
  5  4  1  0  0  0  0
  6  2  1  1  0  0  0
  6  7  1  0  0  0  0
  6 16  1  0  0  0  0
  7  8  3  0  0  0  0
  9  1  1  0  0  0  0
 10  1  1  0  0  0  0
 13  4  1  0  0  0  0
 15  5  1  0  0  0  0
M  END
