title
 OpenBabel02282109583D

 16 16  0  0  1  0  0  0  0  0999 V2000
   -0.8972    1.4857   -0.6296 C   0  0  0  0  0  0  0  0  0  0  0  0
   -0.7905   -0.0165   -0.5720 C   0  0  1  0  0  0  0  0  0  0  0  0
   -1.9293   -0.7219   -0.9896 O   0  0  0  0  0  0  0  0  0  0  0  0
    0.5312   -0.7062   -0.7900 C   0  0  1  0  0  0  0  0  0  0  0  0
    1.6816    0.0460   -0.9915 O   0  0  0  0  0  0  0  0  0  0  0  0
   -0.1177   -0.7210    0.6030 C   0  0  1  0  0  0  0  0  0  0  0  0
    0.5371    0.0042    1.6456 C   0  0  0  0  0  0  0  0  0  0  0  0
    1.1592    0.6034    2.4855 C   0  0  0  0  0  0  0  0  0  0  0  0
    0.0339    1.9585   -0.3159 H   0  0  0  0  0  0  0  0  0  0  0  0
   -1.1054    1.8058   -1.6575 H   0  0  0  0  0  0  0  0  0  0  0  0
   -1.7113    1.8362    0.0112 H   0  0  0  0  0  0  0  0  0  0  0  0
   -2.0395   -0.5664   -1.9351 H   0  0  0  0  0  0  0  0  0  0  0  0
    0.5051   -1.6503   -1.3316 H   0  0  0  0  0  0  0  0  0  0  0  0
    2.1470    0.1191   -0.1479 H   0  0  0  0  0  0  0  0  0  0  0  0
   -0.5923   -1.6539    0.8899 H   0  0  0  0  0  0  0  0  0  0  0  0
    1.6647    1.1387    3.2509 H   0  0  0  0  0  0  0  0  0  0  0  0
  1  2  1  0  0  0  0
  1  9  1  0  0  0  0
  1 11  1  0  0  0  0
  2  4  1  6  0  0  0
  3  2  1  0  0  0  0
  4  6  1  1  0  0  0
  5  4  1  0  0  0  0
  5 14  1  0  0  0  0
  6  2  1  6  0  0  0
  6 15  1  0  0  0  0
  6  7  1  0  0  0  0
  7  8  3  0  0  0  0
  8 16  1  0  0  0  0
 10  1  1  0  0  0  0
 12  3  1  0  0  0  0
 13  4  1  0  0  0  0
M  END
