title
 OpenBabel02282109583D

 15 15  0  0  1  0  0  0  0  0999 V2000
   -0.8546    1.4999   -0.6122 C   0  0  0  0  0  0  0  0  0  0  0  0
   -0.7887   -0.0060   -0.5608 C   0  0  1  0  0  0  0  0  0  0  0  0
   -1.9581   -0.6796   -0.9327 O   0  0  0  0  0  0  0  0  0  0  0  0
    0.5004   -0.7284   -0.8226 C   0  0  1  0  0  0  0  0  0  0  0  0
    1.6242    0.0371   -1.0874 O   0  0  0  0  0  0  0  0  0  0  0  0
   -0.1014   -0.7239    0.5972 C   0  0  1  0  0  0  0  0  0  0  0  0
    0.5709    0.0058    1.6282 C   0  0  0  0  0  0  0  0  0  0  0  0
    1.1430    0.5820    2.4532 N   0  0  0  0  0  0  0  0  0  0  0  0
    0.0893    1.9498   -0.3036 H   0  0  0  0  0  0  0  0  0  0  0  0
   -1.0634    1.8279   -1.6372 H   0  0  0  0  0  0  0  0  0  0  0  0
   -1.6566    1.8626    0.0364 H   0  0  0  0  0  0  0  0  0  0  0  0
   -2.1377   -0.4714   -1.8572 H   0  0  0  0  0  0  0  0  0  0  0  0
    0.4263   -1.6821   -1.3444 H   0  0  0  0  0  0  0  0  0  0  0  0
    2.3664   -0.3018   -0.5736 H   0  0  0  0  0  0  0  0  0  0  0  0
   -0.5835   -1.6419    0.9147 H   0  0  0  0  0  0  0  0  0  0  0  0
  1  2  1  0  0  0  0
  1  9  1  0  0  0  0
  1 11  1  0  0  0  0
  2  4  1  6  0  0  0
  3  2  1  0  0  0  0
  4  6  1  1  0  0  0
  5  4  1  0  0  0  0
  5 14  1  0  0  0  0
  6  2  1  6  0  0  0
  6 15  1  0  0  0  0
  6  7  1  0  0  0  0
  7  8  3  0  0  0  0
 10  1  1  0  0  0  0
 12  3  1  0  0  0  0
 13  4  1  0  0  0  0
M  END
