title
 OpenBabel02282109583D

 20 20  0  0  1  0  0  0  0  0999 V2000
   -1.2699    1.6258   -0.5971 C   0  0  0  0  0  0  0  0  0  0  0  0
   -1.1127    0.1255   -0.4955 C   0  0  1  0  0  0  0  0  0  0  0  0
    0.2428   -0.5562   -0.7161 C   0  0  1  0  0  0  0  0  0  0  0  0
    1.4263    0.2144   -0.9528 C   0  0  0  0  0  0  0  0  0  0  0  0
    2.4243    0.8557   -1.1596 C   0  0  0  0  0  0  0  0  0  0  0  0
   -0.4409   -0.5764    0.6582 C   0  0  0  0  0  0  0  0  0  0  0  0
    0.1663    0.2195    1.7965 C   0  0  0  0  0  0  0  0  0  0  0  0
   -1.0229   -1.9101    1.0896 C   0  0  0  0  0  0  0  0  0  0  0  0
   -0.3669    2.1558   -0.2883 H   0  0  0  0  0  0  0  0  0  0  0  0
   -1.4797    1.9182   -1.6315 H   0  0  0  0  0  0  0  0  0  0  0  0
   -2.1023    1.9757    0.0234 H   0  0  0  0  0  0  0  0  0  0  0  0
   -1.9426   -0.4270   -0.9310 H   0  0  0  0  0  0  0  0  0  0  0  0
    0.2121   -1.4957   -1.2619 H   0  0  0  0  0  0  0  0  0  0  0  0
    3.3076    1.4154   -1.3424 H   0  0  0  0  0  0  0  0  0  0  0  0
    0.6731    1.1223    1.4529 H   0  0  0  0  0  0  0  0  0  0  0  0
   -0.6057    0.5110    2.5181 H   0  0  0  0  0  0  0  0  0  0  0  0
    0.9069   -0.3862    2.3308 H   0  0  0  0  0  0  0  0  0  0  0  0
   -0.2600   -2.5400    1.5617 H   0  0  0  0  0  0  0  0  0  0  0  0
   -1.8301   -1.7652    1.8177 H   0  0  0  0  0  0  0  0  0  0  0  0
   -1.4367   -2.4634    0.2407 H   0  0  0  0  0  0  0  0  0  0  0  0
  1  2  1  0  0  0  0
  1  9  1  0  0  0  0
  1 11  1  0  0  0  0
  2  3  1  6  0  0  0
  2  6  1  0  0  0  0
  3 13  1  6  0  0  0
  3  6  1  0  0  0  0
  4  3  1  0  0  0  0
  5  4  3  0  0  0  0
  6  8  1  0  0  0  0
  6  7  1  0  0  0  0
  7 17  1  0  0  0  0
  7 16  1  0  0  0  0
  8 18  1  0  0  0  0
  8 19  1  0  0  0  0
 10  1  1  0  0  0  0
 12  2  1  0  0  0  0
 14  5  1  0  0  0  0
 15  7  1  0  0  0  0
 20  8  1  0  0  0  0
M  END
