title
 OpenBabel02282109583D

 18 18  0  0  1  0  0  0  0  0999 V2000
   -1.2722    1.6323   -0.6023 C   0  0  0  0  0  0  0  0  0  0  0  0
   -1.1036    0.1357   -0.4869 C   0  0  1  0  0  0  0  0  0  0  0  0
    0.2554   -0.5488   -0.7269 C   0  0  1  0  0  0  0  0  0  0  0  0
    1.4368    0.2123   -0.9921 C   0  0  0  0  0  0  0  0  0  0  0  0
    2.4353    0.8486   -1.2129 C   0  0  0  0  0  0  0  0  0  0  0  0
   -0.4193   -0.5407    0.6554 C   0  0  1  0  0  0  0  0  0  0  0  0
    0.1944    0.2149    1.8093 C   0  0  0  0  0  0  0  0  0  0  0  0
   -1.0399   -1.7444    1.0227 O   0  0  0  0  0  0  0  0  0  0  0  0
   -0.3694    2.1709   -0.3061 H   0  0  0  0  0  0  0  0  0  0  0  0
   -1.4914    1.9114   -1.6380 H   0  0  0  0  0  0  0  0  0  0  0  0
   -2.1017    1.9816    0.0218 H   0  0  0  0  0  0  0  0  0  0  0  0
   -1.9336   -0.4464   -0.8773 H   0  0  0  0  0  0  0  0  0  0  0  0
    0.1956   -1.5061   -1.2363 H   0  0  0  0  0  0  0  0  0  0  0  0
    3.3183    1.4036   -1.4110 H   0  0  0  0  0  0  0  0  0  0  0  0
    0.6907    1.1295    1.4817 H   0  0  0  0  0  0  0  0  0  0  0  0
   -0.5741    0.4697    2.5458 H   0  0  0  0  0  0  0  0  0  0  0  0
    0.9508   -0.4039    2.3076 H   0  0  0  0  0  0  0  0  0  0  0  0
   -0.3716   -2.3104    1.4263 H   0  0  0  0  0  0  0  0  0  0  0  0
  1  2  1  0  0  0  0
  1  9  1  0  0  0  0
  1 11  1  0  0  0  0
  2  3  1  6  0  0  0
  3  6  1  1  0  0  0
  4  3  1  0  0  0  0
  5  4  3  0  0  0  0
  6  2  1  6  0  0  0
  6  8  1  0  0  0  0
  6  7  1  0  0  0  0
  7 17  1  0  0  0  0
  7 16  1  0  0  0  0
  8 18  1  0  0  0  0
 10  1  1  0  0  0  0
 12  2  1  0  0  0  0
 13  3  1  0  0  0  0
 14  5  1  0  0  0  0
 15  7  1  0  0  0  0
M  END
