19
title
C -1.2604673 1.631204 -0.60002834
C -1.1205066 0.12977526 -0.48631635
C 0.223706 -0.5715292 -0.71415776
C 1.4066688 0.2046841 -0.9442746
N 2.3604207 0.83631504 -1.1240517
C -0.45135456 -0.5730173 0.66531867
C 0.17589974 0.22062232 1.7954112
C -1.0367354 -1.9036353 1.1028401
H -0.35741466 2.1585498 -0.28640345
H -1.4611169 1.9177257 -1.6372937
H -2.0944667 1.9885265 0.013251257
H -1.9534326 -0.41828844 -0.9206655
H 0.20486319 -1.5054564 -1.2667408
H 0.6860094 1.1209855 1.4495665
H -0.5894365 0.51829 2.5207918
H 0.91489065 -0.39088595 2.3240547
H -0.2710945 -2.538467 1.5624455
H -1.8298708 -1.7495217 1.8434294
H -1.4694133 -2.452677 0.26073146
