title
 OpenBabel02282109583D

 17 17  0  0  1  0  0  0  0  0999 V2000
   -1.2596    1.6377   -0.6068 C   0  0  0  0  0  0  0  0  0  0  0  0
   -1.1107    0.1399   -0.4782 C   0  0  1  0  0  0  0  0  0  0  0  0
    0.2355   -0.5645   -0.7265 C   0  0  1  0  0  0  0  0  0  0  0  0
    1.4180    0.1994   -0.9850 C   0  0  0  0  0  0  0  0  0  0  0  0
    2.3748    0.8245   -1.1740 N   0  0  0  0  0  0  0  0  0  0  0  0
   -0.4319   -0.5371    0.6647 C   0  0  1  0  0  0  0  0  0  0  0  0
    0.2048    0.2158    1.8080 C   0  0  0  0  0  0  0  0  0  0  0  0
   -1.0572   -1.7323    1.0338 O   0  0  0  0  0  0  0  0  0  0  0  0
   -0.3555    2.1717   -0.3057 H   0  0  0  0  0  0  0  0  0  0  0  0
   -1.4682    1.9107   -1.6458 H   0  0  0  0  0  0  0  0  0  0  0  0
   -2.0907    1.9967    0.0089 H   0  0  0  0  0  0  0  0  0  0  0  0
   -1.9456   -0.4361   -0.8667 H   0  0  0  0  0  0  0  0  0  0  0  0
    0.1865   -1.5179   -1.2406 H   0  0  0  0  0  0  0  0  0  0  0  0
    0.7012    1.1293    1.4772 H   0  0  0  0  0  0  0  0  0  0  0  0
   -0.5546    0.4743    2.5522 H   0  0  0  0  0  0  0  0  0  0  0  0
    0.9634   -0.4073    2.2965 H   0  0  0  0  0  0  0  0  0  0  0  0
   -0.4085   -2.2841    1.4863 H   0  0  0  0  0  0  0  0  0  0  0  0
  1  2  1  0  0  0  0
  1  9  1  0  0  0  0
  1 11  1  0  0  0  0
  2  3  1  6  0  0  0
  3  6  1  1  0  0  0
  4  3  1  0  0  0  0
  5  4  3  0  0  0  0
  6  2  1  6  0  0  0
  6  8  1  0  0  0  0
  6  7  1  0  0  0  0
  7 16  1  0  0  0  0
  7 15  1  0  0  0  0
  8 17  1  0  0  0  0
 10  1  1  0  0  0  0
 12  2  1  0  0  0  0
 13  3  1  0  0  0  0
 14  7  1  0  0  0  0
M  END
