19
title
C -1.4159968 1.3746823 -0.42352024
N -1.1277821 -0.051827766 -0.35626525
C 0.21779104 -0.5379721 -0.72970515
C 1.2675784 0.36323586 -1.1145692
C 2.1443505 1.1068833 -1.4718684
C -0.28008988 -0.6025885 0.69859964
C 0.34644446 0.2874897 1.7549701
C -0.75122684 -1.9472678 1.2200819
H -0.55937004 2.034804 -0.23740494
H -1.8027492 1.6017803 -1.4218274
H -2.2016654 1.6050692 0.30273947
H 0.19422956 -1.4577684 -1.312308
H 2.923684 1.7569844 -1.7843573
H 0.8077952 1.1816959 1.3351585
H -0.40549955 0.59300673 2.4914794
H 1.1252961 -0.2648329 2.2906616
H 0.08455499 -2.5231543 1.6324849
H -1.4904853 -1.8100111 2.017813
H -1.2216064 -2.5271878 0.4227343
