title
 OpenBabel02282109583D

 18 18  0  0  1  0  0  0  0  0999 V2000
   -1.4143    1.3800   -0.4264 C   0  0  0  0  0  0  0  0  0  0  0  0
   -1.1352   -0.0495   -0.3417 N   0  0  0  0  0  0  0  0  0  0  0  0
    0.1910   -0.5545   -0.7304 C   0  0  1  0  0  0  0  0  0  0  0  0
    1.2448    0.3539   -1.1067 C   0  0  0  0  0  0  0  0  0  0  0  0
    2.0823    1.0866   -1.4257 N   0  0  0  0  0  0  0  0  0  0  0  0
   -0.2853   -0.6021    0.7074 C   0  0  0  0  0  0  0  0  0  0  0  0
    0.3690    0.2865    1.7488 C   0  0  0  0  0  0  0  0  0  0  0  0
   -0.7561   -1.9434    1.2370 C   0  0  0  0  0  0  0  0  0  0  0  0
   -0.5549    2.0362   -0.2402 H   0  0  0  0  0  0  0  0  0  0  0  0
   -1.7938    1.5970   -1.4291 H   0  0  0  0  0  0  0  0  0  0  0  0
   -2.2020    1.6192    0.2938 H   0  0  0  0  0  0  0  0  0  0  0  0
    0.1756   -1.4650   -1.3251 H   0  0  0  0  0  0  0  0  0  0  0  0
    0.8166    1.1863    1.3257 H   0  0  0  0  0  0  0  0  0  0  0  0
   -0.3672    0.5852    2.5031 H   0  0  0  0  0  0  0  0  0  0  0  0
    1.1615   -0.2663    2.2624 H   0  0  0  0  0  0  0  0  0  0  0  0
    0.0839   -2.5249    1.6312 H   0  0  0  0  0  0  0  0  0  0  0  0
   -1.4755   -1.7970    2.0504 H   0  0  0  0  0  0  0  0  0  0  0  0
   -1.2493   -2.5188    0.4505 H   0  0  0  0  0  0  0  0  0  0  0  0
  1  2  1  0  0  0  0
  1  9  1  0  0  0  0
  1 11  1  0  0  0  0
  2  6  1  0  0  0  0
  3 12  1  6  0  0  0
  3  2  1  0  0  0  0
  3  6  1  0  0  0  0
  4  3  1  0  0  0  0
  5  4  3  0  0  0  0
  6  8  1  0  0  0  0
  6  7  1  0  0  0  0
  7 15  1  0  0  0  0
  7 14  1  0  0  0  0
  8 16  1  0  0  0  0
  8 17  1  0  0  0  0
 10  1  1  0  0  0  0
 13  7  1  0  0  0  0
 18  8  1  0  0  0  0
M  END
