title
 OpenBabel02282109583D

 18 18  0  0  1  0  0  0  0  0999 V2000
   -0.7925    1.5806   -0.7878 C   0  0  0  0  0  0  0  0  0  0  0  0
   -0.7298    0.0650   -0.7192 C   0  0  0  0  0  0  0  0  0  0  0  0
   -1.9699   -0.6311   -1.2487 C   0  0  0  0  0  0  0  0  0  0  0  0
    0.5771   -0.6190   -0.9057 C   0  0  1  0  0  0  0  0  0  0  0  0
    1.6900    0.1816   -1.1582 O   0  0  0  0  0  0  0  0  0  0  0  0
   -0.0599   -0.6252    0.4950 C   0  0  1  0  0  0  0  0  0  0  0  0
    0.5475    0.1453    1.5983 C   0  0  0  0  0  0  0  0  0  0  0  0
    0.4925   -0.1915    2.7595 O   0  0  0  0  0  0  0  0  0  0  0  0
    0.1618    2.0487   -0.5468 H   0  0  0  0  0  0  0  0  0  0  0  0
   -1.0610    1.8892   -1.8042 H   0  0  0  0  0  0  0  0  0  0  0  0
   -1.5582    1.9701   -0.1089 H   0  0  0  0  0  0  0  0  0  0  0  0
   -2.1533   -0.3470   -2.2913 H   0  0  0  0  0  0  0  0  0  0  0  0
   -1.8736   -1.7202   -1.2079 H   0  0  0  0  0  0  0  0  0  0  0  0
   -2.8528   -0.3512   -0.6639 H   0  0  0  0  0  0  0  0  0  0  0  0
    0.5770   -1.5791   -1.4226 H   0  0  0  0  0  0  0  0  0  0  0  0
    2.4705   -0.2629   -0.8105 H   0  0  0  0  0  0  0  0  0  0  0  0
   -0.5110   -1.5559    0.8248 H   0  0  0  0  0  0  0  0  0  0  0  0
    1.0846    1.0693    1.3009 H   0  0  0  0  0  0  0  0  0  0  0  0
  1  2  1  0  0  0  0
  1  9  1  0  0  0  0
  1 11  1  0  0  0  0
  2  6  1  0  0  0  0
  3 13  1  0  0  0  0
  3  2  1  0  0  0  0
  3 14  1  0  0  0  0
  4  2  1  0  0  0  0
  4  6  1  1  0  0  0
  5  4  1  0  0  0  0
  5 16  1  0  0  0  0
  6 17  1  1  0  0  0
  6  7  1  0  0  0  0
  7  8  2  0  0  0  0
 10  1  1  0  0  0  0
 12  3  1  0  0  0  0
 15  4  1  0  0  0  0
 18  7  1  0  0  0  0
M  END
