16
title
C -0.77147865 1.598347 -0.8019775
C -0.7064883 0.09254601 -0.69523245
O -1.8744891 -0.5738804 -1.0931089
C 0.5735807 -0.6407478 -0.9004704
O 1.7134955 0.114877164 -1.1671089
C -0.06441319 -0.60821605 0.50620735
C 0.5698244 0.1490317 1.6063902
O 0.51427025 -0.18313636 2.767483
H 0.1805867 2.0661218 -0.5483455
H -1.0085809 1.8811549 -1.8347361
H -1.5565256 1.9946295 -0.15214677
H -2.014414 -0.38865373 -2.0295272
H 0.50611085 -1.6012301 -1.4100716
H 2.4777923 -0.34360063 -0.8009874
H -0.56879014 -1.5153824 0.81981814
H 1.1306645 1.0573173 1.3016286
