18
title
C -1.212618 1.0183269 -1.6451317
C -1.0137056 -0.1635624 -0.72039384
C 0.3733905 -0.64684176 -0.24954554
C 1.6222068 0.060135324 -0.58819824
O 2.6969619 -0.48473936 -0.69755155
C -0.6770521 -0.05487524 0.7216912
C -0.44569832 1.2623973 1.4267387
O -1.3382837 -1.0024546 1.512778
H -0.58927435 1.8773438 -1.3873905
H -0.9821006 0.7430526 -2.6792507
H -2.2559192 1.3494244 -1.612444
H -1.674069 -1.0001751 -0.930953
H 0.49468118 -1.7219656 -0.17136428
H 1.5331067 1.1587259 -0.74083424
H 0.03251695 2.0067868 0.78743815
H -1.4020934 1.6661121 1.77359
H 0.19943373 1.1207349 2.302013
H -0.79366887 -1.1777923 2.289027
