title
 OpenBabel02282109583D

 18 18  0  0  1  0  0  0  0  0999 V2000
   -1.2126    1.0183   -1.6451 C   0  0  0  0  0  0  0  0  0  0  0  0
   -1.0137   -0.1636   -0.7204 C   0  0  1  0  0  0  0  0  0  0  0  0
    0.3734   -0.6468   -0.2495 C   0  0  1  0  0  0  0  0  0  0  0  0
    1.6222    0.0601   -0.5882 C   0  0  0  0  0  0  0  0  0  0  0  0
    2.6970   -0.4847   -0.6976 O   0  0  0  0  0  0  0  0  0  0  0  0
   -0.6771   -0.0549    0.7217 C   0  0  1  0  0  0  0  0  0  0  0  0
   -0.4457    1.2624    1.4267 C   0  0  0  0  0  0  0  0  0  0  0  0
   -1.3383   -1.0025    1.5128 O   0  0  0  0  0  0  0  0  0  0  0  0
   -0.5893    1.8773   -1.3874 H   0  0  0  0  0  0  0  0  0  0  0  0
   -0.9821    0.7431   -2.6793 H   0  0  0  0  0  0  0  0  0  0  0  0
   -2.2559    1.3494   -1.6124 H   0  0  0  0  0  0  0  0  0  0  0  0
   -1.6741   -1.0002   -0.9310 H   0  0  0  0  0  0  0  0  0  0  0  0
    0.4947   -1.7220   -0.1714 H   0  0  0  0  0  0  0  0  0  0  0  0
    1.5331    1.1587   -0.7408 H   0  0  0  0  0  0  0  0  0  0  0  0
    0.0325    2.0068    0.7874 H   0  0  0  0  0  0  0  0  0  0  0  0
   -1.4021    1.6661    1.7736 H   0  0  0  0  0  0  0  0  0  0  0  0
    0.1994    1.1207    2.3020 H   0  0  0  0  0  0  0  0  0  0  0  0
   -0.7937   -1.1778    2.2890 H   0  0  0  0  0  0  0  0  0  0  0  0
  1 11  1  0  0  0  0
  1  9  1  0  0  0  0
  1  2  1  0  0  0  0
  2  3  1  6  0  0  0
  3 13  1  0  0  0  0
  3  6  1  1  0  0  0
  4  3  1  0  0  0  0
  5  4  2  0  0  0  0
  6  2  1  6  0  0  0
  6  7  1  0  0  0  0
  6  8  1  0  0  0  0
  7 16  1  0  0  0  0
  7 17  1  0  0  0  0
  8 18  1  0  0  0  0
 10  1  1  0  0  0  0
 12  2  1  0  0  0  0
 14  4  1  0  0  0  0
 15  7  1  0  0  0  0
M  END
