19
title
C -1.4605494 1.266228 -0.4718275
N -1.1239303 -0.1469889 -0.31356946
C 0.18525448 -0.66663927 -0.74920446
C 1.288254 0.17110789 -1.2764522
O 1.5057471 1.3381612 -1.0281525
C -0.23500904 -0.6126639 0.72387403
C 0.43717137 0.34784195 1.6863128
C -0.6477394 -1.9326799 1.3515146
H -0.61988574 1.9581327 -0.37401745
H -1.9014103 1.4000841 -1.4643577
H -2.2259953 1.5123161 0.27078316
H 0.12576678 -1.6355351 -1.2433292
H 1.9537029 -0.38485667 -1.9751111
H 0.88286716 1.2051374 1.1838119
H -0.29511306 0.70840585 2.4179971
H 1.2243953 -0.17127943 2.2421277
H 0.22491494 -2.478417 1.7257818
H -1.3184974 -1.7520071 2.199455
H -1.1771178 -2.5574293 0.62903005
