title
 OpenBabel02282109583D

 20 20  0  0  1  0  0  0  0  0999 V2000
   -1.1521    0.7770   -1.5840 C   0  0  0  0  0  0  0  0  0  0  0  0
   -0.9048   -0.3323   -0.5839 C   0  0  1  0  0  0  0  0  0  0  0  0
    0.4706   -0.6096    0.0149 C   0  0  1  0  0  0  0  0  0  0  0  0
    1.6916    0.2061   -0.3417 C   0  0  0  0  0  0  0  0  0  0  0  0
    2.1669   -0.0609   -1.6573 O   0  0  0  0  0  0  0  0  0  0  0  0
   -0.6491   -0.1123    0.8929 C   0  0  1  0  0  0  0  0  0  0  0  0
   -0.6529    1.2607    1.5283 C   0  0  0  0  0  0  0  0  0  0  0  0
   -1.1287   -1.1150    1.7620 O   0  0  0  0  0  0  0  0  0  0  0  0
   -0.5973    1.6884   -1.3491 H   0  0  0  0  0  0  0  0  0  0  0  0
   -0.8455    0.4662   -2.5877 H   0  0  0  0  0  0  0  0  0  0  0  0
   -2.2150    1.0411   -1.6218 H   0  0  0  0  0  0  0  0  0  0  0  0
   -1.4765   -1.2364   -0.7794 H   0  0  0  0  0  0  0  0  0  0  0  0
    0.6847   -1.6651    0.1718 H   0  0  0  0  0  0  0  0  0  0  0  0
    1.4793    1.2781   -0.3280 H   0  0  0  0  0  0  0  0  0  0  0  0
    2.4824    0.0303    0.4050 H   0  0  0  0  0  0  0  0  0  0  0  0
    2.3269   -1.0079   -1.7216 H   0  0  0  0  0  0  0  0  0  0  0  0
   -0.2555    2.0356    0.8699 H   0  0  0  0  0  0  0  0  0  0  0  0
   -1.6774    1.5527    1.7921 H   0  0  0  0  0  0  0  0  0  0  0  0
   -0.0609    1.2524    2.4489 H   0  0  0  0  0  0  0  0  0  0  0  0
   -2.0657   -0.9459    1.9133 H   0  0  0  0  0  0  0  0  0  0  0  0
  1  9  1  0  0  0  0
  1  2  1  0  0  0  0
  2  3  1  6  0  0  0
  3 13  1  0  0  0  0
  3  6  1  1  0  0  0
  4 14  1  0  0  0  0
  4  3  1  0  0  0  0
  4 15  1  0  0  0  0
  5  4  1  0  0  0  0
  6  2  1  6  0  0  0
  6  7  1  0  0  0  0
  6  8  1  0  0  0  0
  7 18  1  0  0  0  0
  7 19  1  0  0  0  0
  8 20  1  0  0  0  0
 10  1  1  0  0  0  0
 11  1  1  0  0  0  0
 12  2  1  0  0  0  0
 16  5  1  0  0  0  0
 17  7  1  0  0  0  0
M  END
