title
 OpenBabel02282109583D

 20 20  0  0  1  0  0  0  0  0999 V2000
   -0.5883    2.6847    0.9614 C   0  0  0  0  0  0  0  0  0  0  0  0
   -0.9873    1.2158    0.7736 C   0  0  0  0  0  0  0  0  0  0  0  0
   -0.2772    0.5802   -0.4049 C   0  0  1  0  0  0  0  0  0  0  0  0
    1.0858   -0.0619   -0.2568 C   0  0  1  0  0  0  0  0  0  0  0  0
    1.6258   -0.0753    1.0357 O   0  0  0  0  0  0  0  0  0  0  0  0
   -0.1301   -0.9094   -0.5945 C   0  0  1  0  0  0  0  0  0  0  0  0
   -0.6725   -1.9099    0.3986 C   0  0  0  0  0  0  0  0  0  0  0  0
   -0.2640   -1.2952   -1.9424 O   0  0  0  0  0  0  0  0  0  0  0  0
    0.4845    2.7708    1.1593 H   0  0  0  0  0  0  0  0  0  0  0  0
   -0.8129    3.2751    0.0660 H   0  0  0  0  0  0  0  0  0  0  0  0
   -1.1257    3.1355    1.8017 H   0  0  0  0  0  0  0  0  0  0  0  0
   -0.7581    0.6649    1.6894 H   0  0  0  0  0  0  0  0  0  0  0  0
   -2.0718    1.1428    0.6223 H   0  0  0  0  0  0  0  0  0  0  0  0
   -0.4095    1.1094   -1.3456 H   0  0  0  0  0  0  0  0  0  0  0  0
    1.8035    0.1003   -1.0615 H   0  0  0  0  0  0  0  0  0  0  0  0
    2.1458   -0.8791    1.1374 H   0  0  0  0  0  0  0  0  0  0  0  0
   -0.4724   -1.6049    1.4274 H   0  0  0  0  0  0  0  0  0  0  0  0
   -1.7520   -2.0381    0.2719 H   0  0  0  0  0  0  0  0  0  0  0  0
   -0.2016   -2.8902    0.2455 H   0  0  0  0  0  0  0  0  0  0  0  0
    0.2598   -2.0940   -2.0748 H   0  0  0  0  0  0  0  0  0  0  0  0
  1  9  1  0  0  0  0
  1 11  1  0  0  0  0
  2  1  1  0  0  0  0
  2 12  1  0  0  0  0
  3  6  1  6  0  0  0
  3  4  1  0  0  0  0
  3  2  1  0  0  0  0
  4  6  1  6  0  0  0
  4  5  1  0  0  0  0
  5 16  1  0  0  0  0
  6  8  1  6  0  0  0
  6  7  1  0  0  0  0
  7 17  1  0  0  0  0
 10  1  1  0  0  0  0
 13  2  1  0  0  0  0
 14  3  1  0  0  0  0
 15  4  1  0  0  0  0
 18  7  1  0  0  0  0
 19  7  1  0  0  0  0
 20  8  1  0  0  0  0
M  END
