23
title
C 0.057882156 2.6970077 -0.053864542
C 0.6788262 1.4312096 0.53629535
N 0.5823506 0.33307067 -0.41776264
C 0.8275782 -1.0521686 0.0007967904
C 1.2126236 -1.4431665 1.4128765
C -0.54722834 -0.61202854 -0.41007578
C -1.6706761 -0.50838065 0.60671794
C -1.036794 -0.9777673 -1.8003393
H 0.5238446 2.939588 -1.0129377
H -1.0152112 2.5639968 -0.22631449
H 0.18733767 3.5458193 0.6253322
H 1.7460196 1.6004828 0.72648454
H 0.2188392 1.2250545 1.5145891
H 1.3942165 -1.611307 -0.7464738
H 0.6306144 -0.93349487 2.1821644
H 1.0753465 -2.521155 1.5515839
H 2.2703757 -1.2232696 1.5968726
H -1.3335851 -0.259527 1.6135023
H -2.396569 0.25380167 0.30001014
H -2.2077885 -1.4614902 0.6667086
H -1.5290629 -1.957472 -1.8003176
H -1.7610414 -0.23975493 -2.165216
H -0.20241782 -1.0052689 -2.5050552
