21
title
C -1.3378297 0.5053727 -1.3288033
N -0.91277075 -0.4591545 -0.32387072
C 0.5041815 -0.588877 0.022930559
C 1.5957566 0.22707826 -0.63240296
O 1.8211173 -0.16234186 -1.983557
C -0.48410302 -0.048842516 1.0186847
C -0.4654838 1.4111336 1.4395262
C -0.96838814 -0.9761859 2.1197748
H -0.85232836 1.4900593 -1.2886121
H -1.1406211 0.08367095 -2.3181136
H -2.4169977 0.6608069 -1.2284523
H 0.8072524 -1.6319973 0.15743625
H 1.3527092 1.2899857 -0.67730576
H 2.516408 0.13256285 -0.03382564
H 1.982509 -1.1117502 -1.9914002
H -0.11313598 2.0912051 0.66369957
H -1.4733659 1.7308066 1.7288533
H 0.18070985 1.542404 2.3141534
H -0.3065585 -0.93207467 2.9925191
H -1.9749898 -0.6927118 2.4488313
H -1.009769 -2.0074222 1.7618046
