title
 OpenBabel02282109583D

 20 20  0  0  1  0  0  0  0  0999 V2000
    0.9343    2.4750   -0.5620 C   0  0  0  0  0  0  0  0  0  0  0  0
    0.8120    1.3427    0.2780 O   0  0  0  0  0  0  0  0  0  0  0  0
   -0.4011    0.6766    0.1173 C   0  0  1  0  0  0  0  0  0  0  0  0
   -0.5294   -0.4397   -0.9183 C   0  0  1  0  0  0  0  0  0  0  0  0
    0.5996   -0.7800   -1.8663 C   0  0  0  0  0  0  0  0  0  0  0  0
   -0.4719   -0.7613    0.5573 C   0  0  1  0  0  0  0  0  0  0  0  0
    0.7239   -1.4340    1.1895 C   0  0  0  0  0  0  0  0  0  0  0  0
   -1.7137   -1.1910    1.0640 O   0  0  0  0  0  0  0  0  0  0  0  0
    1.9090    2.9244   -0.3573 H   0  0  0  0  0  0  0  0  0  0  0  0
    0.8773    2.2038   -1.6251 H   0  0  0  0  0  0  0  0  0  0  0  0
    0.1490    3.2166   -0.3512 H   0  0  0  0  0  0  0  0  0  0  0  0
   -1.2848    1.2906    0.2995 H   0  0  0  0  0  0  0  0  0  0  0  0
   -1.5285   -0.5460   -1.3319 H   0  0  0  0  0  0  0  0  0  0  0  0
    1.5662   -0.4602   -1.4697 H   0  0  0  0  0  0  0  0  0  0  0  0
    0.6509   -1.8578   -2.0552 H   0  0  0  0  0  0  0  0  0  0  0  0
    0.4571   -0.2831   -2.8318 H   0  0  0  0  0  0  0  0  0  0  0  0
    1.6630   -1.0297    0.8096 H   0  0  0  0  0  0  0  0  0  0  0  0
    0.7159   -1.2725    2.2746 H   0  0  0  0  0  0  0  0  0  0  0  0
    0.6963   -2.5133    1.0093 H   0  0  0  0  0  0  0  0  0  0  0  0
   -1.7515   -0.9421    1.9950 H   0  0  0  0  0  0  0  0  0  0  0  0
  1  9  1  0  0  0  0
  1 11  1  0  0  0  0
  1  2  1  0  0  0  0
  3  4  1  6  0  0  0
  3  2  1  0  0  0  0
  3 12  1  0  0  0  0
  4  6  1  1  0  0  0
  5 14  1  0  0  0  0
  5  4  1  0  0  0  0
  6  3  1  1  0  0  0
  6  8  1  0  0  0  0
  6  7  1  0  0  0  0
  7 18  1  0  0  0  0
  8 20  1  0  0  0  0
 10  1  1  0  0  0  0
 13  4  1  0  0  0  0
 15  5  1  0  0  0  0
 16  5  1  0  0  0  0
 17  7  1  0  0  0  0
 19  7  1  0  0  0  0
M  END
