18
title
C -1.0178162 2.467073 -0.48894146
O -0.35677737 1.2566535 -0.83078647
C 0.28463966 0.6704815 0.26469874
C -0.4690538 -0.4666181 0.9366016
O -1.736378 -0.7822687 0.44673342
C 0.77581984 -0.7422995 0.10182844
C 0.6858968 -1.4617933 -1.221042
O 1.9623466 -0.95751613 0.8270251
H -0.30062738 3.2210398 -0.13576819
H -1.501875 2.8333294 -1.3969319
H -1.7749702 2.311799 0.29152888
H 0.8978606 1.3426386 0.862807
H -0.38893995 -0.58940643 2.012996
H -1.8895468 -0.19597153 -0.30652833
H -0.2423397 -1.2289296 -1.7442365
H 1.5263789 -1.1801947 -1.8622009
H 0.7195074 -2.54644 -1.064473
H 1.9387977 -1.8623494 1.1598917
