18
title
C 0.8742092 3.571383 -0.01667326
C 0.8123576 2.116768 -0.016057815
C 0.7659388 0.9121417 -0.017931826
C 0.7234222 -0.5206634 -0.026626168
C 0.24803357 -1.3032216 1.2030284
C -0.58360577 -1.2878789 -0.049794402
C -1.9084986 -0.5662073 -0.09051802
O -0.5135107 -2.427652 -0.8685126
H 1.8433894 3.9249372 -0.38621253
H 0.09896587 4.0074363 -0.6570079
H 0.73879695 3.9791157 0.99155176
H 1.5105902 -1.0104612 -0.5923281
H 0.7888135 -2.2138505 1.434398
H -0.087057725 -0.7261249 2.0575185
H -1.8700157 0.36215103 0.48374555
H -2.1738777 -0.3226062 -1.1238935
H -2.703726 -1.1953882 0.32783514
H -1.0991306 -3.0948958 -0.49258244
