19
title
C 0.8930296 3.5657597 -0.020745287
C 0.8163076 2.1123607 -0.013206952
C 0.75225675 0.90927774 0.0047828807
C 0.69782835 -0.52635556 -0.013761823
N 0.1371431 -1.2247736 1.1773646
C -0.58011514 -1.3118713 -0.102911115
C -1.9088545 -0.58837944 -0.13062537
C -0.54545826 -2.6231775 -0.86162376
H 1.8614833 3.9099848 -0.40057933
H 0.114063464 4.005936 -0.6534494
H 0.7701789 3.9741611 0.9885778
H 1.5591025 -0.99705106 -0.48588735
H 0.6731178 -2.0752244 1.3399211
H -1.8548908 0.33858126 0.44205084
H -2.1982808 -0.34658247 -1.1591157
H -2.6935897 -1.2179742 0.30346414
H -1.25104 -3.3395996 -0.42435098
H -0.8276871 -2.480888 -1.9104564
H 0.45243174 -3.073804 -0.8395105
