title
 OpenBabel02282109583D

 18 18  0  0  1  0  0  0  0  0999 V2000
    0.9084    3.5731    0.0209 C   0  0  0  0  0  0  0  0  0  0  0  0
    0.8177    2.1211   -0.0042 C   0  0  0  0  0  0  0  0  0  0  0  0
    0.7396    0.9188   -0.0166 C   0  0  0  0  0  0  0  0  0  0  0  0
    0.6901   -0.5175   -0.0542 C   0  0  1  0  0  0  0  0  0  0  0  0
    0.1515   -1.2070    1.0924 O   0  0  0  0  0  0  0  0  0  0  0  0
   -0.5731   -1.2950   -0.1404 C   0  0  0  0  0  0  0  0  0  0  0  0
   -1.9081   -0.5867   -0.1546 C   0  0  0  0  0  0  0  0  0  0  0  0
   -0.5418   -2.6600   -0.7937 C   0  0  0  0  0  0  0  0  0  0  0  0
    1.9358    3.9096   -0.1561 H   0  0  0  0  0  0  0  0  0  0  0  0
    0.2718    4.0271   -0.7466 H   0  0  0  0  0  0  0  0  0  0  0  0
    0.5921    3.9694    0.9920 H   0  0  0  0  0  0  0  0  0  0  0  0
    1.5850   -0.9908   -0.4606 H   0  0  0  0  0  0  0  0  0  0  0  0
   -1.8311    0.3984    0.3079 H   0  0  0  0  0  0  0  0  0  0  0  0
   -2.2690   -0.4650   -1.1815 H   0  0  0  0  0  0  0  0  0  0  0  0
   -2.6506   -1.1757    0.3946 H   0  0  0  0  0  0  0  0  0  0  0  0
   -1.2556   -3.3309   -0.3031 H   0  0  0  0  0  0  0  0  0  0  0  0
   -0.8174   -2.5929   -1.8515 H   0  0  0  0  0  0  0  0  0  0  0  0
    0.4526   -3.1066   -0.7174 H   0  0  0  0  0  0  0  0  0  0  0  0
  1 11  1  0  0  0  0
  2  1  1  0  0  0  0
  3  2  3  0  0  0  0
  4 12  1  6  0  0  0
  4  3  1  0  0  0  0
  4  5  1  0  0  0  0
  6  4  1  0  0  0  0
  6  5  1  0  0  0  0
  7  6  1  0  0  0  0
  7 13  1  0  0  0  0
  7 15  1  0  0  0  0
  8 18  1  0  0  0  0
  8 16  1  0  0  0  0
  8  6  1  0  0  0  0
  9  1  1  0  0  0  0
 10  1  1  0  0  0  0
 14  7  1  0  0  0  0
 17  8  1  0  0  0  0
M  END
