20
title
C -0.69159997 1.8084095 -1.3446684
C -0.73902494 0.2986417 -1.1955549
C -1.9535782 -0.33444574 -1.8509364
C 0.5605013 -0.4774287 -1.232333
C -0.21601889 -0.37228796 0.058747202
C 0.33830038 0.39646494 1.2522225
C 1.1965891 -0.42962143 2.0973032
C 1.892685 -1.1278658 2.7848399
H 0.21304801 2.246334 -0.9152397
H -0.71405125 2.086603 -2.404854
H -1.5553817 2.2834268 -0.8638379
H -1.9749296 -0.121512674 -2.9265232
H -1.955199 -1.4218005 -1.7269889
H -2.8842928 0.052609373 -1.418821
H 0.5873589 -1.4320973 -1.7473712
H 1.4843432 0.08889211 -1.3051698
H -0.75276124 -1.269429 0.35607174
H 0.9065861 1.2699709 0.9130783
H -0.48893404 0.7913617 1.8577523
H 2.5126762 -1.7368379 3.3944917
