title
 OpenBabel02282109583D

 20 20  0  0  1  0  0  0  0  0999 V2000
   -0.6916    1.8084   -1.3447 C   0  0  0  0  0  0  0  0  0  0  0  0
   -0.7390    0.2986   -1.1956 C   0  0  0  0  0  0  0  0  0  0  0  0
   -1.9536   -0.3344   -1.8509 C   0  0  0  0  0  0  0  0  0  0  0  0
    0.5605   -0.4774   -1.2323 C   0  0  0  0  0  0  0  0  0  0  0  0
   -0.2160   -0.3723    0.0587 C   0  0  1  0  0  0  0  0  0  0  0  0
    0.3383    0.3965    1.2522 C   0  0  0  0  0  0  0  0  0  0  0  0
    1.1966   -0.4296    2.0973 C   0  0  0  0  0  0  0  0  0  0  0  0
    1.8927   -1.1279    2.7848 C   0  0  0  0  0  0  0  0  0  0  0  0
    0.2130    2.2463   -0.9152 H   0  0  0  0  0  0  0  0  0  0  0  0
   -0.7141    2.0866   -2.4049 H   0  0  0  0  0  0  0  0  0  0  0  0
   -1.5554    2.2834   -0.8638 H   0  0  0  0  0  0  0  0  0  0  0  0
   -1.9749   -0.1215   -2.9265 H   0  0  0  0  0  0  0  0  0  0  0  0
   -1.9552   -1.4218   -1.7270 H   0  0  0  0  0  0  0  0  0  0  0  0
   -2.8843    0.0526   -1.4188 H   0  0  0  0  0  0  0  0  0  0  0  0
    0.5874   -1.4321   -1.7474 H   0  0  0  0  0  0  0  0  0  0  0  0
    1.4843    0.0889   -1.3052 H   0  0  0  0  0  0  0  0  0  0  0  0
   -0.7528   -1.2694    0.3561 H   0  0  0  0  0  0  0  0  0  0  0  0
    0.9066    1.2700    0.9131 H   0  0  0  0  0  0  0  0  0  0  0  0
   -0.4889    0.7914    1.8578 H   0  0  0  0  0  0  0  0  0  0  0  0
    2.5127   -1.7368    3.3945 H   0  0  0  0  0  0  0  0  0  0  0  0
  1  2  1  0  0  0  0
  1  9  1  0  0  0  0
  1 11  1  0  0  0  0
  2  5  1  0  0  0  0
  3 13  1  0  0  0  0
  3 14  1  0  0  0  0
  3  2  1  0  0  0  0
  4  2  1  0  0  0  0
  4  5  1  0  0  0  0
  5 17  1  1  0  0  0
  5  6  1  0  0  0  0
  6 19  1  0  0  0  0
  6  7  1  0  0  0  0
  7  8  3  0  0  0  0
  8 20  1  0  0  0  0
 10  1  1  0  0  0  0
 12  3  1  0  0  0  0
 15  4  1  0  0  0  0
 16  4  1  0  0  0  0
 18  6  1  0  0  0  0
M  END
