18
title
C -1.288066 1.3196498 -1.4326142
C -1.2776772 0.04787538 -0.6035564
C -2.6337967 -0.3381893 -0.046294376
C -0.28844908 -1.0243737 -0.9270803
N -0.1646003 -0.2576666 0.3137446
C 0.95775646 0.66277725 0.4288356
C 2.1113708 -0.016842777 1.0321664
N 3.0315714 -0.54146785 1.4922496
H -0.3212941 1.543787 -1.8886936
H -2.014376 1.221838 -2.2459483
H -1.5917912 2.1810205 -0.8263675
H -3.3423193 -0.5396524 -0.8573569
H -2.5526652 -1.2298436 0.5789288
H -3.047143 0.4703463 0.56717753
H -0.54042 -2.0746348 -0.8070669
H 0.42737684 -0.8204096 -1.7227738
H 1.2958417 1.1011509 -0.523528
H 0.67020553 1.4951642 1.081774
