title
 OpenBabel02282109583D

 19 19  0  0  1  0  0  0  0  0999 V2000
   -0.7094    1.8109   -1.3624 C   0  0  0  0  0  0  0  0  0  0  0  0
   -0.7767    0.3122   -1.1428 C   0  0  0  0  0  0  0  0  0  0  0  0
   -1.9614   -0.3572   -1.8140 C   0  0  0  0  0  0  0  0  0  0  0  0
    0.5251   -0.3863   -1.1736 N   0  0  0  0  0  0  0  0  0  0  0  0
   -0.2313   -0.3315    0.0870 C   0  0  1  0  0  0  0  0  0  0  0  0
    0.4067    0.4194    1.2486 C   0  0  0  0  0  0  0  0  0  0  0  0
    1.2462   -0.4480    2.0694 C   0  0  0  0  0  0  0  0  0  0  0  0
    1.9209   -1.1856    2.7367 C   0  0  0  0  0  0  0  0  0  0  0  0
    0.2011    2.2407   -0.9420 H   0  0  0  0  0  0  0  0  0  0  0  0
   -0.7148    2.0358   -2.4349 H   0  0  0  0  0  0  0  0  0  0  0  0
   -1.5742    2.3125   -0.9132 H   0  0  0  0  0  0  0  0  0  0  0  0
   -1.9177   -0.2210   -2.9012 H   0  0  0  0  0  0  0  0  0  0  0  0
   -1.9841   -1.4319   -1.6067 H   0  0  0  0  0  0  0  0  0  0  0  0
   -2.9083    0.0718   -1.4674 H   0  0  0  0  0  0  0  0  0  0  0  0
    0.4347   -1.3027   -1.6054 H   0  0  0  0  0  0  0  0  0  0  0  0
   -0.7366   -1.2437    0.4014 H   0  0  0  0  0  0  0  0  0  0  0  0
    1.0073    1.2482    0.8616 H   0  0  0  0  0  0  0  0  0  0  0  0
   -0.3813    0.8608    1.8737 H   0  0  0  0  0  0  0  0  0  0  0  0
    2.5279   -1.8260    3.3269 H   0  0  0  0  0  0  0  0  0  0  0  0
  1  2  1  0  0  0  0
  1  9  1  0  0  0  0
  1 11  1  0  0  0  0
  2  5  1  0  0  0  0
  3 13  1  0  0  0  0
  3 14  1  0  0  0  0
  3  2  1  0  0  0  0
  4  2  1  0  0  0  0
  4  5  1  0  0  0  0
  5 16  1  1  0  0  0
  5  6  1  0  0  0  0
  6 18  1  0  0  0  0
  6  7  1  0  0  0  0
  7  8  3  0  0  0  0
  8 19  1  0  0  0  0
 10  1  1  0  0  0  0
 12  3  1  0  0  0  0
 15  4  1  0  0  0  0
 17  6  1  0  0  0  0
M  END
