18
title
C -0.8141299 1.8203207 -1.3008039
C -0.840715 0.3157976 -1.1153985
C -2.0324762 -0.366506 -1.760521
N 0.47323936 -0.35225567 -1.1989202
C -0.24442744 -0.34477308 0.08216606
C 0.41631085 0.4038792 1.2317897
C 1.3387845 -0.4546078 1.9761046
N 2.0520933 -1.1511569 2.5601816
H 0.104495645 2.2623892 -0.91153693
H -0.86909455 2.0677142 -2.366623
H -1.6700647 2.2920635 -0.80540043
H -2.0276785 -0.20459971 -2.844661
H -2.02419 -1.4457781 -1.5777998
H -2.9756386 0.033456538 -1.3723652
H 0.3974591 -1.2609116 -1.6490444
H -0.7205316 -1.2719747 0.3967925
H 0.97270876 1.2644464 0.85229766
H -0.3427742 0.7809117 1.9276689
