18
title
C -0.6858803 1.5536145 -0.9863641
C -0.6238193 0.05603495 -1.2144618
C -1.9060583 -0.5669354 -1.7329258
C 0.69444424 -0.53829455 -1.6804447
C 0.21898997 -0.78587466 -0.2832008
O 0.97821707 -0.16646971 0.74033636
C 0.3873288 -0.074134424 1.9503341
O 0.9248584 0.42546886 2.8918774
H 0.25062573 1.9416329 -0.5798592
H -0.88999736 2.0751166 -1.9279329
H -1.4891781 1.811699 -0.28603297
H -2.1659408 -0.15928207 -2.7165265
H -1.8142534 -1.6525652 -1.8394486
H -2.7447886 -0.3646634 -1.0567904
H 0.68767816 -1.3684392 -2.3785477
H 1.5369302 0.13656108 -1.7848768
H -0.12967312 -1.7799412 -0.014976193
H -0.62860775 -0.51387006 1.966326
