title
 OpenBabel02282109583D

 19 19  0  0  0  0  0  0  0  0999 V2000
   -0.8850    1.6627   -1.3992 C   0  0  0  0  0  0  0  0  0  0  0  0
   -0.8672    0.1552   -1.2239 C   0  0  0  0  0  0  0  0  0  0  0  0
   -2.1487   -0.5351   -1.6495 C   0  0  0  0  0  0  0  0  0  0  0  0
    0.4314   -0.5736   -1.3494 C   0  0  0  0  0  0  0  0  0  0  0  0
   -0.2304   -0.4559   -0.0493 N   0  0  0  0  0  0  0  0  0  0  0  0
    0.4004    0.3580    0.9733 C   0  0  0  0  0  0  0  0  0  0  0  0
    1.1380   -0.5359    1.9608 C   0  0  0  0  0  0  0  0  0  0  0  0
    2.0872   -0.1844    2.6106 O   0  0  0  0  0  0  0  0  0  0  0  0
    0.0661    2.1297   -1.1350 H   0  0  0  0  0  0  0  0  0  0  0  0
   -1.0984    1.9143   -2.4433 H   0  0  0  0  0  0  0  0  0  0  0  0
   -1.6720    2.1187   -0.7870 H   0  0  0  0  0  0  0  0  0  0  0  0
   -2.3444   -0.3717   -2.7152 H   0  0  0  0  0  0  0  0  0  0  0  0
   -2.0863   -1.6100   -1.4654 H   0  0  0  0  0  0  0  0  0  0  0  0
   -3.0053   -0.1446   -1.0881 H   0  0  0  0  0  0  0  0  0  0  0  0
    0.4711   -1.5733   -1.7752 H   0  0  0  0  0  0  0  0  0  0  0  0
    1.3264    0.0251   -1.5169 H   0  0  0  0  0  0  0  0  0  0  0  0
    1.1037    1.1241    0.6150 H   0  0  0  0  0  0  0  0  0  0  0  0
   -0.3826    0.8768    1.5467 H   0  0  0  0  0  0  0  0  0  0  0  0
    0.7061   -1.5579    2.0429 H   0  0  0  0  0  0  0  0  0  0  0  0
  1  2  1  0  0  0  0
  1  9  1  0  0  0  0
  1 11  1  0  0  0  0
  2  5  1  0  0  0  0
  3 13  1  0  0  0  0
  3  2  1  0  0  0  0
  3 14  1  0  0  0  0
  4  2  1  0  0  0  0
  4  5  1  0  0  0  0
  5  6  1  0  0  0  0
  6 18  1  0  0  0  0
  6  7  1  0  0  0  0
  7 19  1  0  0  0  0
  7  8  2  0  0  0  0
 10  1  1  0  0  0  0
 12  3  1  0  0  0  0
 15  4  1  0  0  0  0
 16  4  1  0  0  0  0
 17  6  1  0  0  0  0
M  END
