title
 OpenBabel02282109583D

 18 18  0  0  1  0  0  0  0  0999 V2000
   -0.7119    1.7813   -1.4497 C   0  0  0  0  0  0  0  0  0  0  0  0
   -0.8990    0.3081   -1.1618 C   0  0  0  0  0  0  0  0  0  0  0  0
   -2.0912   -0.3264   -1.8479 C   0  0  0  0  0  0  0  0  0  0  0  0
    0.2987   -0.4908   -1.2011 O   0  0  0  0  0  0  0  0  0  0  0  0
   -0.3688   -0.3344    0.0587 C   0  0  1  0  0  0  0  0  0  0  0  0
    0.3997    0.3601    1.1645 C   0  0  0  0  0  0  0  0  0  0  0  0
    1.5504   -0.5012    1.6542 C   0  0  0  0  0  0  0  0  0  0  0  0
    1.7523   -0.7782    2.8081 O   0  0  0  0  0  0  0  0  0  0  0  0
    0.1963    2.1783   -0.9943 H   0  0  0  0  0  0  0  0  0  0  0  0
   -0.6381    1.9408   -2.5308 H   0  0  0  0  0  0  0  0  0  0  0  0
   -1.5686    2.3585   -1.0860 H   0  0  0  0  0  0  0  0  0  0  0  0
   -2.0083   -0.2163   -2.9346 H   0  0  0  0  0  0  0  0  0  0  0  0
   -2.1523   -1.3926   -1.6170 H   0  0  0  0  0  0  0  0  0  0  0  0
   -3.0233    0.1545   -1.5325 H   0  0  0  0  0  0  0  0  0  0  0  0
   -0.8846   -1.2385    0.3910 H   0  0  0  0  0  0  0  0  0  0  0  0
    0.8302    1.2971    0.7934 H   0  0  0  0  0  0  0  0  0  0  0  0
   -0.2529    0.5869    2.0131 H   0  0  0  0  0  0  0  0  0  0  0  0
    2.2178   -0.8684    0.8439 H   0  0  0  0  0  0  0  0  0  0  0  0
  1  2  1  0  0  0  0
  1 11  1  0  0  0  0
  1  9  1  0  0  0  0
  2  5  1  0  0  0  0
  3 13  1  0  0  0  0
  3 14  1  0  0  0  0
  3  2  1  0  0  0  0
  4  2  1  0  0  0  0
  4  5  1  0  0  0  0
  5 15  1  1  0  0  0
  5  6  1  0  0  0  0
  6  7  1  0  0  0  0
  6 17  1  0  0  0  0
  7  8  2  0  0  0  0
 10  1  1  0  0  0  0
 12  3  1  0  0  0  0
 16  6  1  0  0  0  0
 18  7  1  0  0  0  0
M  END
