17
title
C -0.65638286 1.5107427 -0.83006424
C -0.39668655 0.045592267 -1.0801371
O -1.5250837 -0.694944 -1.460503
C 0.9362602 -0.42516783 -1.6254276
C 0.5269585 -0.7517622 -0.20335798
N 1.2443887 -0.13059375 0.86993396
C 0.6601435 0.21635266 2.0537305
O -0.52664906 0.17353852 2.2862518
H 0.24543864 2.0214458 -0.48453736
H -0.98887736 2.0040421 -1.7515489
H -1.4324375 1.6240765 -0.069101565
H -1.8131452 -0.37026712 -2.320922
H 0.93391156 -1.2410563 -2.3387191
H 1.719094 0.31382638 -1.7645619
H 0.19085604 -1.7685134 -0.015509359
H 2.2525077 -0.15831368 0.8410293
H 1.412724 0.566375 2.7900805
