title
 OpenBabel02282109583D

 17 17  0  0  1  0  0  0  0  0999 V2000
   -0.6584    1.5816   -0.9497 C   0  0  0  0  0  0  0  0  0  0  0  0
   -0.6227    0.0854   -1.1503 C   0  0  1  0  0  0  0  0  0  0  0  0
   -1.8485   -0.5007   -1.5040 O   0  0  0  0  0  0  0  0  0  0  0  0
    0.6397   -0.5806   -1.6715 C   0  0  0  0  0  0  0  0  0  0  0  0
    0.2010   -0.7934   -0.2510 C   0  0  1  0  0  0  0  0  0  0  0  0
    1.0180   -0.2213    0.7401 O   0  0  0  0  0  0  0  0  0  0  0  0
    0.4468   -0.0696    1.9571 C   0  0  0  0  0  0  0  0  0  0  0  0
    1.1080    0.4484    2.8979 N   0  0  0  0  0  0  0  0  0  0  0  0
    0.2928    1.9522   -0.5611 H   0  0  0  0  0  0  0  0  0  0  0  0
   -0.8616    2.0933   -1.8979 H   0  0  0  0  0  0  0  0  0  0  0  0
   -1.4513    1.8507   -0.2445 H   0  0  0  0  0  0  0  0  0  0  0  0
   -2.0514   -0.2396   -2.4095 H   0  0  0  0  0  0  0  0  0  0  0  0
    0.5349   -1.4164   -2.3537 H   0  0  0  0  0  0  0  0  0  0  0  0
    1.5133    0.0438   -1.8225 H   0  0  0  0  0  0  0  0  0  0  0  0
   -0.2228   -1.7597    0.0110 H   0  0  0  0  0  0  0  0  0  0  0  0
   -0.5868   -0.4374    2.0019 H   0  0  0  0  0  0  0  0  0  0  0  0
    0.5406    0.4809    3.7424 H   0  0  0  0  0  0  0  0  0  0  0  0
  1  9  1  0  0  0  0
  1 11  1  0  0  0  0
  2  1  1  0  0  0  0
  2  5  1  1  0  0  0
  3  2  1  0  0  0  0
  4  2  1  0  0  0  0
  4  5  1  0  0  0  0
  5 15  1  1  0  0  0
  5  6  1  0  0  0  0
  6  7  1  0  0  0  0
  7 16  1  0  0  0  0
  7  8  2  0  0  0  0
  8 17  1  0  0  0  0
 10  1  1  0  0  0  0
 12  3  1  0  0  0  0
 13  4  1  0  0  0  0
 14  4  1  0  0  0  0
M  END
