title
 OpenBabel02282109583D

 21 21  0  0  1  0  0  0  0  0999 V2000
   -0.7963    1.6520   -1.5427 C   0  0  0  0  0  0  0  0  0  0  0  0
   -0.8683    0.1542   -1.3208 C   0  0  0  0  0  0  0  0  0  0  0  0
   -2.0295   -0.5184   -2.0286 C   0  0  0  0  0  0  0  0  0  0  0  0
    0.4345   -0.5431   -1.3163 N   0  0  0  0  0  0  0  0  0  0  0  0
   -0.3621   -0.4829   -0.0706 C   0  0  1  0  0  0  0  0  0  0  0  0
    0.2439    0.2445    1.1071 C   0  0  0  0  0  0  0  0  0  0  0  0
    1.2910   -0.6067    1.8175 C   0  0  0  0  0  0  0  0  0  0  0  0
    1.7820    0.1375    2.9229 O   0  0  0  0  0  0  0  0  0  0  0  0
    0.1047    2.0804   -1.1020 H   0  0  0  0  0  0  0  0  0  0  0  0
   -0.7783    1.8741   -2.6158 H   0  0  0  0  0  0  0  0  0  0  0  0
   -1.6701    2.1543   -1.1124 H   0  0  0  0  0  0  0  0  0  0  0  0
   -1.9524   -0.3852   -3.1144 H   0  0  0  0  0  0  0  0  0  0  0  0
   -2.0577   -1.5929   -1.8193 H   0  0  0  0  0  0  0  0  0  0  0  0
   -2.9877   -0.0904   -1.7129 H   0  0  0  0  0  0  0  0  0  0  0  0
    0.3454   -1.4593   -1.7495 H   0  0  0  0  0  0  0  0  0  0  0  0
   -0.8821   -1.4006    0.2103 H   0  0  0  0  0  0  0  0  0  0  0  0
    0.7197    1.1749    0.7868 H   0  0  0  0  0  0  0  0  0  0  0  0
   -0.5419    0.5107    1.8250 H   0  0  0  0  0  0  0  0  0  0  0  0
    0.8385   -1.5571    2.1486 H   0  0  0  0  0  0  0  0  0  0  0  0
    2.0941   -0.8542    1.1072 H   0  0  0  0  0  0  0  0  0  0  0  0
    2.4904   -0.3668    3.3330 H   0  0  0  0  0  0  0  0  0  0  0  0
  1  2  1  0  0  0  0
  1 11  1  0  0  0  0
  1  9  1  0  0  0  0
  2  4  1  0  0  0  0
  2  5  1  0  0  0  0
  3 13  1  0  0  0  0
  3 14  1  0  0  0  0
  3  2  1  0  0  0  0
  4  5  1  0  0  0  0
  5 16  1  1  0  0  0
  5  6  1  0  0  0  0
  6  7  1  0  0  0  0
  6 18  1  0  0  0  0
  7 19  1  0  0  0  0
  7  8  1  0  0  0  0
  8 21  1  0  0  0  0
 10  1  1  0  0  0  0
 12  3  1  0  0  0  0
 15  4  1  0  0  0  0
 17  6  1  0  0  0  0
 20  7  1  0  0  0  0
M  END
