20
title
C -0.7820401 1.6593939 -1.5374686
C -0.7922189 0.15926987 -1.3490182
O -1.9525505 -0.46142316 -1.851615
C 0.48854688 -0.6414129 -1.4179933
C -0.2745612 -0.5055013 -0.10691139
C 0.3032767 0.24467398 1.072781
C 1.2105317 -0.6365245 1.9253691
O 1.7076161 0.15598525 2.9937012
H 0.11509988 2.1199255 -1.1170636
H -0.8089123 1.9096574 -2.6055388
H -1.6595161 2.1117795 -1.0642978
H -1.9469764 -0.35789996 -2.8100533
H 0.45418695 -1.5969331 -1.929473
H 1.4262729 -0.10204593 -1.5163802
H -0.85501 -1.385393 0.16021374
H 0.8873711 1.1093655 0.7395484
H -0.49897256 0.6352725 1.7109033
H 0.63999957 -1.501555 2.3016238
H 2.0294936 -1.0330805 1.3041409
H 2.27509 -0.3963607 3.538883
