24
title
C -1.1227989 3.0462859 1.6354593
C -1.1103697 1.525548 1.4614431
C -0.013071987 1.036054 0.5054729
C -0.0038241476 -0.47135228 0.35036978
C -0.9004087 -1.1676437 -0.6524247
C 0.6024945 -1.2100145 -0.8260771
C 1.2238626 -0.44546348 -1.9806827
C 1.3039293 -2.522457 -0.52505624
H -0.16717926 3.4079864 2.0316386
H -1.2949389 3.5539403 0.6795365
H -1.9102964 3.3640194 2.3261771
H -0.9758017 1.0455999 2.4399374
H -2.0856016 1.1858461 1.090357
H -0.15106413 1.5188967 -0.46946445
H 0.9640924 1.3768793 0.8766526
H 0.10523322 -0.9914778 1.3012154
H -1.4186816 -2.073971 -0.355539
H -1.4676399 -0.53883964 -1.3330456
H 0.6802621 0.47305554 -2.214721
H 2.2636409 -0.17205627 -1.7632176
H 1.2305431 -1.0619363 -2.8875604
H 1.2883818 -3.1876328 -1.3971175
H 2.354135 -2.3577554 -0.2546269
H 0.8254565 -3.0516684 0.30506906
