title
 OpenBabel02282109583D

 22 22  0  0  1  0  0  0  0  0999 V2000
   -0.9088    3.0749   -1.7632 C   0  0  0  0  0  0  0  0  0  0  0  0
   -0.7706    1.5529   -1.6761 C   0  0  0  0  0  0  0  0  0  0  0  0
   -0.4379    1.0587   -0.2613 C   0  0  0  0  0  0  0  0  0  0  0  0
   -0.3009   -0.4473   -0.1861 C   0  0  1  0  0  0  0  0  0  0  0  0
    1.0128   -1.1453   -0.5079 C   0  0  0  0  0  0  0  0  0  0  0  0
    0.4457   -1.1741    0.8941 C   0  0  1  0  0  0  0  0  0  0  0  0
    1.1444   -0.4599    2.0292 C   0  0  0  0  0  0  0  0  0  0  0  0
   -0.1949   -2.3642    1.2924 O   0  0  0  0  0  0  0  0  0  0  0  0
    0.0215    3.5750   -1.4710 H   0  0  0  0  0  0  0  0  0  0  0  0
   -1.1534    3.3969   -2.7803 H   0  0  0  0  0  0  0  0  0  0  0  0
   -1.7007    3.4399   -1.0994 H   0  0  0  0  0  0  0  0  0  0  0  0
   -1.7022    1.0794   -2.0124 H   0  0  0  0  0  0  0  0  0  0  0  0
    0.0094    1.2102   -2.3678 H   0  0  0  0  0  0  0  0  0  0  0  0
    0.4895    1.5394    0.0748 H   0  0  0  0  0  0  0  0  0  0  0  0
   -1.2224    1.3939    0.4315 H   0  0  0  0  0  0  0  0  0  0  0  0
   -1.1827   -0.9915   -0.5159 H   0  0  0  0  0  0  0  0  0  0  0  0
    0.9743   -2.0644   -1.0821 H   0  0  0  0  0  0  0  0  0  0  0  0
    1.8837   -0.5239   -0.6965 H   0  0  0  0  0  0  0  0  0  0  0  0
    1.6127    0.4715    1.7020 H   0  0  0  0  0  0  0  0  0  0  0  0
    0.4367   -0.2299    2.8323 H   0  0  0  0  0  0  0  0  0  0  0  0
    1.9355   -1.0937    2.4497 H   0  0  0  0  0  0  0  0  0  0  0  0
    0.4897   -2.9903    1.5547 H   0  0  0  0  0  0  0  0  0  0  0  0
  1  2  1  0  0  0  0
  1  9  1  0  0  0  0
  1 11  1  0  0  0  0
  2  3  1  0  0  0  0
  3  4  1  0  0  0  0
  3 14  1  0  0  0  0
  3 15  1  0  0  0  0
  4  6  1  1  0  0  0
  5  4  1  0  0  0  0
  5  6  1  0  0  0  0
  6  8  1  1  0  0  0
  6  7  1  0  0  0  0
  7 21  1  0  0  0  0
  7 20  1  0  0  0  0
  8 22  1  0  0  0  0
 10  1  1  0  0  0  0
 12  2  1  0  0  0  0
 13  2  1  0  0  0  0
 16  4  1  0  0  0  0
 17  5  1  0  0  0  0
 18  5  1  0  0  0  0
 19  7  1  0  0  0  0
M  END
