22
title
C -0.90881425 3.0749032 -1.7632226
C -0.77055717 1.5529426 -1.6760967
C -0.43790132 1.0587087 -0.2613039
C -0.3008731 -0.4473126 -0.1861204
C 1.012833 -1.1453217 -0.5079279
C 0.4456973 -1.1740764 0.8940797
C 1.1443884 -0.45990598 2.0291898
O -0.19488715 -2.364184 1.2924118
H 0.021501673 3.5750377 -1.4709774
H -1.1533846 3.3968687 -2.7803402
H -1.7006751 3.4398596 -1.0993862
H -1.7022333 1.0793722 -2.0123672
H 0.00939579 1.2101995 -2.3677535
H 0.48953164 1.539442 0.074790224
H -1.2224073 1.3939252 0.43151522
H -1.1827441 -0.9915117 -0.51593006
H 0.9743271 -2.064427 -1.0820966
H 1.8837345 -0.5238532 -0.69652736
H 1.6127017 0.47153187 1.7019746
H 0.43665028 -0.22992466 2.8322923
H 1.935467 -1.0936953 2.449681
H 0.48969388 -2.9902523 1.5546825
