title
 OpenBabel02282109583D

 23 23  0  0  0  0  0  0  0  0999 V2000
    2.0175    2.9186    0.1743 C   0  0  0  0  0  0  0  0  0  0  0  0
    1.8180    1.4041    0.2692 C   0  0  0  0  0  0  0  0  0  0  0  0
    0.4166    0.9638   -0.1599 C   0  0  0  0  0  0  0  0  0  0  0  0
    0.2981   -0.4873   -0.0866 N   0  0  0  0  0  0  0  0  0  0  0  0
   -0.2330   -1.0713    1.1433 C   0  0  0  0  0  0  0  0  0  0  0  0
   -1.0113   -1.1498   -0.1300 C   0  0  0  0  0  0  0  0  0  0  0  0
   -2.2946   -0.3486   -0.2616 C   0  0  0  0  0  0  0  0  0  0  0  0
   -1.0113   -2.4455   -0.9188 C   0  0  0  0  0  0  0  0  0  0  0  0
    3.0262    3.2060    0.4859 H   0  0  0  0  0  0  0  0  0  0  0  0
    1.8733    3.2755   -0.8518 H   0  0  0  0  0  0  0  0  0  0  0  0
    1.3076    3.4567    0.8126 H   0  0  0  0  0  0  0  0  0  0  0  0
    2.5527    0.8821   -0.3539 H   0  0  0  0  0  0  0  0  0  0  0  0
    1.9943    1.0685    1.2990 H   0  0  0  0  0  0  0  0  0  0  0  0
   -0.3299    1.4927    0.4579 H   0  0  0  0  0  0  0  0  0  0  0  0
    0.2395    1.2669   -1.2002 H   0  0  0  0  0  0  0  0  0  0  0  0
    0.2942   -1.9398    1.5324 H   0  0  0  0  0  0  0  0  0  0  0  0
   -0.6012   -0.3883    1.9097 H   0  0  0  0  0  0  0  0  0  0  0  0
   -2.2997    0.5487    0.3604 H   0  0  0  0  0  0  0  0  0  0  0  0
   -2.4611   -0.0438   -1.3017 H   0  0  0  0  0  0  0  0  0  0  0  0
   -3.1506   -0.9628    0.0384 H   0  0  0  0  0  0  0  0  0  0  0  0
   -1.8102   -3.1136   -0.5768 H   0  0  0  0  0  0  0  0  0  0  0  0
   -1.1721   -2.2510   -1.9858 H   0  0  0  0  0  0  0  0  0  0  0  0
   -0.0537   -2.9599   -0.8112 H   0  0  0  0  0  0  0  0  0  0  0  0
  1  2  1  0  0  0  0
  1  9  1  0  0  0  0
  1 11  1  0  0  0  0
  2 13  1  0  0  0  0
  3  4  1  0  0  0  0
  3  2  1  0  0  0  0
  3 14  1  0  0  0  0
  4  5  1  0  0  0  0
  5 16  1  0  0  0  0
  5 17  1  0  0  0  0
  6  4  1  0  0  0  0
  6  5  1  0  0  0  0
  7  6  1  0  0  0  0
  7 20  1  0  0  0  0
  7 18  1  0  0  0  0
  8 23  1  0  0  0  0
  8 21  1  0  0  0  0
  8  6  1  0  0  0  0
 10  1  1  0  0  0  0
 12  2  1  0  0  0  0
 15  3  1  0  0  0  0
 19  7  1  0  0  0  0
 22  8  1  0  0  0  0
M  END
