20
title
C 1.6027144 2.8349059 0.31411728
C 1.4501733 1.3696532 -0.054658543
O 0.48095974 0.7899603 0.80970246
C 0.28001615 -0.5658442 0.57678825
C -0.9803006 -1.1692979 1.132661
C -0.79320115 -1.03495 -0.3703525
C -1.6321429 -0.042683385 -1.1399361
O -0.44443527 -2.1985958 -1.0769981
H 2.3517964 3.3122346 -0.32467496
H 0.65342146 3.3640084 0.19009015
H 1.9176309 2.937412 1.3564535
H 1.137914 1.259441 -1.1039325
H 2.409705 0.839144 0.0555238
H 1.1821742 -1.1787562 0.6052844
H -0.9118497 -2.1592064 1.5696033
H -1.6735977 -0.48965886 1.6167136
H -1.7218801 0.89673305 -0.589416
H -1.1776074 0.16324553 -2.1143591
H -2.6421227 -0.43319407 -1.3153844
H -1.2385443 -2.737548 -1.1681384
