title
 OpenBabel02282109583D

 22 22  0  0  1  0  0  0  0  0999 V2000
    1.6192    2.9895    0.2166 C   0  0  0  0  0  0  0  0  0  0  0  0
    1.5398    1.5875    0.2726 O   0  0  0  0  0  0  0  0  0  0  0  0
    0.3160    1.0884   -0.2338 C   0  0  0  0  0  0  0  0  0  0  0  0
    0.3556   -0.4150   -0.1729 C   0  0  1  0  0  0  0  0  0  0  0  0
   -0.0115   -1.1540    1.0939 C   0  0  0  0  0  0  0  0  0  0  0  0
   -0.8829   -1.2895   -0.1335 C   0  0  0  0  0  0  0  0  0  0  0  0
   -2.2719   -0.6753   -0.1165 C   0  0  0  0  0  0  0  0  0  0  0  0
   -0.8136   -2.5970   -0.9024 C   0  0  0  0  0  0  0  0  0  0  0  0
    2.5932    3.2803    0.6182 H   0  0  0  0  0  0  0  0  0  0  0  0
    1.5346    3.3662   -0.8160 H   0  0  0  0  0  0  0  0  0  0  0  0
    0.8306    3.4712    0.8180 H   0  0  0  0  0  0  0  0  0  0  0  0
   -0.5257    1.4919    0.3521 H   0  0  0  0  0  0  0  0  0  0  0  0
    0.1746    1.4315   -1.2744 H   0  0  0  0  0  0  0  0  0  0  0  0
    1.1917   -0.8264   -0.7331 H   0  0  0  0  0  0  0  0  0  0  0  0
    0.6012   -1.9965    1.3975 H   0  0  0  0  0  0  0  0  0  0  0  0
   -0.3896   -0.5613    1.9215 H   0  0  0  0  0  0  0  0  0  0  0  0
   -2.3208    0.2355    0.4851 H   0  0  0  0  0  0  0  0  0  0  0  0
   -2.6115   -0.4277   -1.1296 H   0  0  0  0  0  0  0  0  0  0  0  0
   -2.9938   -1.3844    0.3057 H   0  0  0  0  0  0  0  0  0  0  0  0
   -1.4969   -3.3402   -0.4741 H   0  0  0  0  0  0  0  0  0  0  0  0
   -1.0960   -2.4549   -1.9526 H   0  0  0  0  0  0  0  0  0  0  0  0
    0.1950   -3.0210   -0.8825 H   0  0  0  0  0  0  0  0  0  0  0  0
  1  2  1  0  0  0  0
  1  9  1  0  0  0  0
  1 11  1  0  0  0  0
  3  4  1  0  0  0  0
  3  2  1  0  0  0  0
  3 12  1  0  0  0  0
  4 14  1  6  0  0  0
  4  6  1  0  0  0  0
  4  5  1  0  0  0  0
  5 15  1  0  0  0  0
  5 16  1  0  0  0  0
  6  7  1  0  0  0  0
  6  5  1  0  0  0  0
  7 19  1  0  0  0  0
  7 17  1  0  0  0  0
  8 22  1  0  0  0  0
  8 20  1  0  0  0  0
  8  6  1  0  0  0  0
 10  1  1  0  0  0  0
 13  3  1  0  0  0  0
 18  7  1  0  0  0  0
 21  8  1  0  0  0  0
M  END
