title
 OpenBabel02282109583D

 21 21  0  0  1  0  0  0  0  0999 V2000
   -0.6974    2.9617   -1.5666 C   0  0  0  0  0  0  0  0  0  0  0  0
   -0.6554    1.5598   -1.4692 O   0  0  0  0  0  0  0  0  0  0  0  0
   -0.3241    1.1110   -0.1704 C   0  0  0  0  0  0  0  0  0  0  0  0
   -0.2992   -0.3946   -0.1934 C   0  0  1  0  0  0  0  0  0  0  0  0
    0.9956   -1.0519   -0.4530 N   0  0  0  0  0  0  0  0  0  0  0  0
    0.3299   -1.2545    0.8490 C   0  0  0  0  0  0  0  0  0  0  0  0
    1.0571   -0.6633    2.0419 C   0  0  0  0  0  0  0  0  0  0  0  0
   -0.3090   -2.6030    1.1230 C   0  0  0  0  0  0  0  0  0  0  0  0
    0.2778    3.4187   -1.3339 H   0  0  0  0  0  0  0  0  0  0  0  0
   -0.9661    3.2114   -2.5961 H   0  0  0  0  0  0  0  0  0  0  0  0
   -1.4484    3.3984   -0.8879 H   0  0  0  0  0  0  0  0  0  0  0  0
    0.6554    1.5065    0.1362 H   0  0  0  0  0  0  0  0  0  0  0  0
   -1.0744    1.4698    0.5573 H   0  0  0  0  0  0  0  0  0  0  0  0
   -1.1767   -0.8118   -0.6862 H   0  0  0  0  0  0  0  0  0  0  0  0
    0.8646   -1.8634   -1.0523 H   0  0  0  0  0  0  0  0  0  0  0  0
    1.5716    0.2624    1.7799 H   0  0  0  0  0  0  0  0  0  0  0  0
    0.3618   -0.4579    2.8637 H   0  0  0  0  0  0  0  0  0  0  0  0
    1.8104   -1.3683    2.4119 H   0  0  0  0  0  0  0  0  0  0  0  0
    0.4517   -3.3415    1.4033 H   0  0  0  0  0  0  0  0  0  0  0  0
   -1.0270   -2.5420    1.9487 H   0  0  0  0  0  0  0  0  0  0  0  0
   -0.8411   -2.9793    0.2434 H   0  0  0  0  0  0  0  0  0  0  0  0
  1  2  1  0  0  0  0
  1  9  1  0  0  0  0
  1 11  1  0  0  0  0
  2  3  1  0  0  0  0
  3 12  1  0  0  0  0
  3 13  1  0  0  0  0
  4 14  1  6  0  0  0
  4  3  1  0  0  0  0
  4  6  1  0  0  0  0
  5  4  1  0  0  0  0
  5  6  1  0  0  0  0
  6  8  1  0  0  0  0
  6  7  1  0  0  0  0
  7 18  1  0  0  0  0
  7 17  1  0  0  0  0
  8 19  1  0  0  0  0
  8 20  1  0  0  0  0
 10  1  1  0  0  0  0
 15  5  1  0  0  0  0
 16  7  1  0  0  0  0
 21  8  1  0  0  0  0
M  END
