18
title
C -0.5486839 1.9044571 -0.28449687
C -0.5279613 0.36418864 -0.34297672
C -1.9684377 -0.18411134 -0.31703255
C 0.28461885 -0.17014693 -1.4999532
C 1.3395935 -0.89310277 -1.1216867
C 1.460131 -0.9982929 0.37434635
C 0.25532484 -0.18724363 0.8742852
O -0.043980885 -0.0015815006 2.0253248
H 0.46315396 2.3196487 -0.31907034
H -1.1111758 2.3130481 -1.1305872
H -1.0249809 2.2359397 0.642836
H -2.5430746 0.20668778 -1.1633655
H -1.9815803 -1.2767429 -0.37515187
H -2.4653013 0.11702461 0.609859
H 0.009400438 0.03296076 -2.5299308
H 2.04539 -1.3623002 -1.7975492
H 1.4054639 -2.0267243 0.7545781
H 2.3905857 -0.5772698 0.7771239
