16
title
C -0.50568694 1.8798748 -0.3522749
C -0.4965341 0.34516126 -0.35681498
C -1.9206008 -0.22385904 -0.4180404
N 0.3009712 -0.15563434 -1.4971601
C 1.266317 -0.82067376 -0.99608064
N 1.3034533 -0.88915807 0.3936694
C 0.22310005 -0.1783047 0.9046535
O -0.056566283 -0.026465653 2.0683825
H 0.5128024 2.2783225 -0.34774607
H -1.0140382 2.2501056 -1.2461948
H -1.0251962 2.2440403 0.5382984
H -2.4291503 0.14557952 -1.3121742
H -1.9050549 -1.316616 -0.45978257
H -2.4796739 0.081964225 0.47051767
H 2.035804 -1.3201563 -1.5765821
H 1.9874945 -1.3667876 0.958101
