15
title
C -0.52639675 1.8917475 -0.35302994
C -0.5161879 0.3559614 -0.3571634
C -1.9410461 -0.21503435 -0.4080772
N 0.28437296 -0.15221249 -1.4860964
C 1.2355566 -0.80445445 -0.9672085
O 1.3140457 -0.8929585 0.40341482
C 0.21895489 -0.17009424 0.88132554
O -0.009296949 -0.04689341 2.0426614
H 0.49085268 2.29232 -0.34540197
H -1.0326273 2.2556758 -1.2504095
H -1.0522624 2.257087 0.53294706
H -2.4474907 0.14759895 -1.305859
H -1.9265523 -1.3078105 -0.43879217
H -2.4999006 0.10209916 0.47626832
H 2.0278676 -1.3227808 -1.4940839
