title
 OpenBabel02282109583D

 15 15  0  0  0  0  0  0  0  0999 V2000
   -0.5264    1.8917   -0.3530 C   0  0  0  0  0  0  0  0  0  0  0  0
   -0.5162    0.3560   -0.3572 C   0  0  0  0  0  0  0  0  0  0  0  0
   -1.9410   -0.2150   -0.4081 C   0  0  0  0  0  0  0  0  0  0  0  0
    0.2844   -0.1522   -1.4861 N   0  0  0  0  0  0  0  0  0  0  0  0
    1.2356   -0.8045   -0.9672 C   0  0  0  0  0  0  0  0  0  0  0  0
    1.3140   -0.8930    0.4034 O   0  0  0  0  0  0  0  0  0  0  0  0
    0.2190   -0.1701    0.8813 C   0  0  0  0  0  0  0  0  0  0  0  0
   -0.0093   -0.0469    2.0427 O   0  0  0  0  0  0  0  0  0  0  0  0
    0.4909    2.2923   -0.3454 H   0  0  0  0  0  0  0  0  0  0  0  0
   -1.0326    2.2557   -1.2504 H   0  0  0  0  0  0  0  0  0  0  0  0
   -1.0523    2.2571    0.5329 H   0  0  0  0  0  0  0  0  0  0  0  0
   -2.4475    0.1476   -1.3059 H   0  0  0  0  0  0  0  0  0  0  0  0
   -1.9266   -1.3078   -0.4388 H   0  0  0  0  0  0  0  0  0  0  0  0
   -2.4999    0.1021    0.4763 H   0  0  0  0  0  0  0  0  0  0  0  0
    2.0279   -1.3228   -1.4941 H   0  0  0  0  0  0  0  0  0  0  0  0
  1  9  1  0  0  0  0
  1 11  1  0  0  0  0
  2  1  1  0  0  0  0
  2  7  1  0  0  0  0
  3  2  1  0  0  0  0
  3 14  1  0  0  0  0
  4  5  2  0  0  0  0
  4  2  1  0  0  0  0
  5  6  1  0  0  0  0
  6  7  1  0  0  0  0
  7  8  2  0  0  0  0
 10  1  1  0  0  0  0
 12  3  1  0  0  0  0
 13  3  1  0  0  0  0
 15  5  1  0  0  0  0
M  END
