16
title
C -0.5931245 1.9032843 -0.2700664
C -0.49926198 0.37935853 -0.34603843
O -1.8000547 -0.2113297 -0.2906898
C 0.3248636 -0.14898929 -1.4966074
C 1.3412496 -0.91823566 -1.1050136
C 1.42779 -1.0623635 0.39059252
C 0.27029246 -0.1886698 0.8864801
O -0.005703531 0.053236455 2.028859
H 0.3972416 2.368397 -0.2865383
H -1.1590614 2.2947192 -1.1242962
H -1.1017447 2.1861768 0.65511173
H -2.3433352 0.21210688 -0.96450233
H 0.079185195 0.081430554 -2.528295
H 2.0439842 -1.4028164 -1.7737359
H 1.3004463 -2.0958295 0.7382375
H 2.3741834 -0.7105433 0.8199518
