title
 OpenBabel02282109583D

 18 18  0  0  0  0  0  0  0  0999 V2000
   -0.5352    1.8864   -0.2957 C   0  0  0  0  0  0  0  0  0  0  0  0
   -0.5135    0.3503   -0.3535 C   0  0  0  0  0  0  0  0  0  0  0  0
   -1.9459   -0.2072   -0.3209 C   0  0  0  0  0  0  0  0  0  0  0  0
    0.3092   -0.1897   -1.5516 C   0  0  0  0  0  0  0  0  0  0  0  0
    1.4434   -0.9614   -0.9285 C   0  0  0  0  0  0  0  0  0  0  0  0
    1.4135   -0.9573    0.4092 C   0  0  0  0  0  0  0  0  0  0  0  0
    0.2507   -0.1796    0.8864 C   0  0  0  0  0  0  0  0  0  0  0  0
   -0.0754    0.0264    2.0340 O   0  0  0  0  0  0  0  0  0  0  0  0
    0.4774    2.3014   -0.3438 H   0  0  0  0  0  0  0  0  0  0  0  0
   -1.1113    2.2995   -1.1305 H   0  0  0  0  0  0  0  0  0  0  0  0
   -0.9906    2.2181    0.6416 H   0  0  0  0  0  0  0  0  0  0  0  0
   -2.5358    0.1855   -1.1559 H   0  0  0  0  0  0  0  0  0  0  0  0
   -1.9497   -1.3006   -0.3871 H   0  0  0  0  0  0  0  0  0  0  0  0
   -2.4347    0.0748    0.6159 H   0  0  0  0  0  0  0  0  0  0  0  0
   -0.2865   -0.8364   -2.2084 H   0  0  0  0  0  0  0  0  0  0  0  0
    0.6920    0.6159   -2.1910 H   0  0  0  0  0  0  0  0  0  0  0  0
    2.1942   -1.4600   -1.5333 H   0  0  0  0  0  0  0  0  0  0  0  0
    2.1122   -1.4362    1.0831 H   0  0  0  0  0  0  0  0  0  0  0  0
  1 11  1  0  0  0  0
  2  3  1  0  0  0  0
  2  1  1  0  0  0  0
  2  7  1  0  0  0  0
  3 14  1  0  0  0  0
  4  5  1  0  0  0  0
  4  2  1  0  0  0  0
  5  6  2  0  0  0  0
  6  7  1  0  0  0  0
  6 18  1  0  0  0  0
  7  8  2  0  0  0  0
  9  1  1  0  0  0  0
 10  1  1  0  0  0  0
 12  3  1  0  0  0  0
 13  3  1  0  0  0  0
 15  4  1  0  0  0  0
 16  4  1  0  0  0  0
 17  5  1  0  0  0  0
M  END
