17
title
C -0.54239863 1.8915263 -0.27739018
C -0.48220816 0.36336145 -0.33996034
C -1.8810103 -0.26114315 -0.41241038
N 0.37490934 -0.10680426 -1.439862
C 1.329123 -0.94615203 -0.94112444
C 1.3566363 -1.004454 0.417202
C 0.26079363 -0.19269943 0.9159694
O -0.08610075 0.061102174 2.0532215
H 0.4625445 2.3203712 -0.31333148
H -1.124131 2.3011317 -1.1097872
H -1.0112214 2.1882129 0.66475075
H -2.4426484 0.12355416 -1.2711937
H -1.8213316 -1.3510107 -0.49055907
H -2.429567 -0.014834798 0.5008253
H -0.016528782 -0.26750714 -2.354928
H 1.9848379 -1.4622267 -1.6331975
H 2.0671866 -1.5412544 1.0255153
