16
title
C -0.38977626 1.8946539 -0.29291126
C -0.48203555 0.36390406 -0.3445726
O -1.8352306 -0.058977872 -0.34256092
C 0.2802169 -0.24036166 -1.5410622
C 1.499405 -0.875509 -0.9202061
C 1.4834074 -0.8690678 0.42062497
C 0.23743607 -0.23813924 0.88700604
O -0.23148866 -0.19981286 2.0039532
H 0.6486107 2.2382984 -0.3514492
H -0.95161104 2.3232932 -1.127627
H -0.81882185 2.2596238 0.64531326
H -2.1131907 -0.04236707 0.58418375
H -0.3446244 -0.9938773 -2.0339074
H 0.5485843 0.50015175 -2.3026369
H 2.2894957 -1.3050714 -1.5277091
H 2.2223935 -1.2952904 1.0865934
