title
 OpenBabel02282109583D

 20 20  0  0  0  0  0  0  0  0999 V2000
   -0.4971    1.8296   -0.2703 C   0  0  0  0  0  0  0  0  0  0  0  0
   -0.5974    0.2891   -0.3267 C   0  0  0  0  0  0  0  0  0  0  0  0
   -2.0665   -0.1414   -0.2652 C   0  0  0  0  0  0  0  0  0  0  0  0
    0.1816   -0.2847   -1.5314 C   0  0  0  0  0  0  0  0  0  0  0  0
    1.6403   -0.4376   -1.0448 C   0  0  0  0  0  0  0  0  0  0  0  0
    1.4968   -0.8799    0.4190 C   0  0  0  0  0  0  0  0  0  0  0  0
    0.1794   -0.2598    0.8915 C   0  0  0  0  0  0  0  0  0  0  0  0
   -0.2027   -0.1987    2.0328 O   0  0  0  0  0  0  0  0  0  0  0  0
    0.5397    2.1781   -0.3196 H   0  0  0  0  0  0  0  0  0  0  0  0
   -1.0398    2.2723   -1.1123 H   0  0  0  0  0  0  0  0  0  0  0  0
   -0.9325    2.2045    0.6603 H   0  0  0  0  0  0  0  0  0  0  0  0
   -2.6364    0.2946   -1.0927 H   0  0  0  0  0  0  0  0  0  0  0  0
   -2.1652   -1.2305   -0.3250 H   0  0  0  0  0  0  0  0  0  0  0  0
   -2.5161    0.1847    0.6769 H   0  0  0  0  0  0  0  0  0  0  0  0
   -0.2218   -1.2710   -1.7921 H   0  0  0  0  0  0  0  0  0  0  0  0
    0.0980    0.3429   -2.4235 H   0  0  0  0  0  0  0  0  0  0  0  0
    2.2102   -1.1446   -1.6524 H   0  0  0  0  0  0  0  0  0  0  0  0
    2.1624    0.5239   -1.0989 H   0  0  0  0  0  0  0  0  0  0  0  0
    1.3809   -1.9699    0.4915 H   0  0  0  0  0  0  0  0  0  0  0  0
    2.3224   -0.6055    1.0798 H   0  0  0  0  0  0  0  0  0  0  0  0
  1 11  1  0  0  0  0
  2  1  1  0  0  0  0
  2  3  1  0  0  0  0
  2  7  1  0  0  0  0
  3 14  1  0  0  0  0
  4  5  1  0  0  0  0
  4  2  1  0  0  0  0
  5  6  1  0  0  0  0
  6 19  1  0  0  0  0
  6  7  1  0  0  0  0
  6 20  1  0  0  0  0
  7  8  2  0  0  0  0
  9  1  1  0  0  0  0
 10  1  1  0  0  0  0
 12  3  1  0  0  0  0
 13  3  1  0  0  0  0
 15  4  1  0  0  0  0
 16  4  1  0  0  0  0
 17  5  1  0  0  0  0
 18  5  1  0  0  0  0
M  END
