19
title
C -0.50493324 1.8316205 -0.3278295
C -0.6003961 0.29114714 -0.3484474
C -2.066463 -0.14921032 -0.34341064
C 0.22394219 -0.30975154 -1.5093062
C 1.6215421 -0.45025107 -0.89898
O 1.4019319 -0.6652222 0.50591874
C 0.15008089 -0.25346807 0.863695
N -0.31095192 -0.305621 2.0380616
H 0.53385055 2.1775935 -0.34360433
H -1.0152828 2.2543125 -1.1996571
H -0.9745662 2.2259417 0.57699287
H -2.5936177 0.25371853 -1.2148988
H -2.151368 -1.2398968 -0.3650808
H -2.5636454 0.20521155 0.56276095
H -0.16865009 -1.2958319 -1.7776427
H 0.21997133 0.31224748 -2.4077134
H 2.189594 -1.3008685 -1.2829189
H 2.2252467 0.456557 -1.028102
H 0.38344702 -0.68378264 2.6844578
