18
title
C -0.49011394 1.8350676 -0.2163848
C -0.62339115 0.2997018 -0.30413502
C -2.088042 -0.13561425 -0.30204824
C 0.2185902 -0.25377706 -1.4670259
O 1.5620666 -0.31366262 -0.98040456
C 1.5024226 -0.7528291 0.3619075
C 0.14166093 -0.29508778 0.89246273
O -0.25567168 -0.39075902 2.0235226
H 0.5587032 2.1428423 -0.26235777
H -1.0203805 2.3057365 -1.0510008
H -0.9194364 2.2061183 0.7186802
H -2.6395802 0.33785945 -1.1209599
H -2.184006 -1.2207838 -0.41052663
H -2.5606346 0.14822696 0.6424493
H -0.13103157 -1.2582712 -1.7569596
H 0.22039402 0.3836994 -2.3545382
H 1.5621216 -1.8517635 0.4435632
H 2.332299 -0.32378975 0.93064404
