title
 OpenBabel02282109583D

 18 18  0  0  0  0  0  0  0  0999 V2000
   -0.4901    1.8351   -0.2164 C   0  0  0  0  0  0  0  0  0  0  0  0
   -0.6234    0.2997   -0.3041 C   0  0  0  0  0  0  0  0  0  0  0  0
   -2.0880   -0.1356   -0.3020 C   0  0  0  0  0  0  0  0  0  0  0  0
    0.2186   -0.2538   -1.4670 C   0  0  0  0  0  0  0  0  0  0  0  0
    1.5621   -0.3137   -0.9804 O   0  0  0  0  0  0  0  0  0  0  0  0
    1.5024   -0.7528    0.3619 C   0  0  0  0  0  0  0  0  0  0  0  0
    0.1417   -0.2951    0.8925 C   0  0  0  0  0  0  0  0  0  0  0  0
   -0.2557   -0.3908    2.0235 O   0  0  0  0  0  0  0  0  0  0  0  0
    0.5587    2.1428   -0.2624 H   0  0  0  0  0  0  0  0  0  0  0  0
   -1.0204    2.3057   -1.0510 H   0  0  0  0  0  0  0  0  0  0  0  0
   -0.9194    2.2061    0.7187 H   0  0  0  0  0  0  0  0  0  0  0  0
   -2.6396    0.3379   -1.1210 H   0  0  0  0  0  0  0  0  0  0  0  0
   -2.1840   -1.2208   -0.4105 H   0  0  0  0  0  0  0  0  0  0  0  0
   -2.5606    0.1482    0.6424 H   0  0  0  0  0  0  0  0  0  0  0  0
   -0.1310   -1.2583   -1.7570 H   0  0  0  0  0  0  0  0  0  0  0  0
    0.2204    0.3837   -2.3545 H   0  0  0  0  0  0  0  0  0  0  0  0
    1.5621   -1.8518    0.4436 H   0  0  0  0  0  0  0  0  0  0  0  0
    2.3323   -0.3238    0.9306 H   0  0  0  0  0  0  0  0  0  0  0  0
  1 11  1  0  0  0  0
  2  3  1  0  0  0  0
  2  1  1  0  0  0  0
  2  7  1  0  0  0  0
  3 14  1  0  0  0  0
  4  5  1  0  0  0  0
  4  2  1  0  0  0  0
  5  6  1  0  0  0  0
  6 17  1  0  0  0  0
  6  7  1  0  0  0  0
  6 18  1  0  0  0  0
  7  8  2  0  0  0  0
  9  1  1  0  0  0  0
 10  1  1  0  0  0  0
 12  3  1  0  0  0  0
 13  3  1  0  0  0  0
 15  4  1  0  0  0  0
 16  4  1  0  0  0  0
M  END
