title
 OpenBabel02282109583D

 18 18  0  0  0  0  0  0  0  0999 V2000
   -0.5388    1.8280   -0.2987 C   0  0  0  0  0  0  0  0  0  0  0  0
   -0.5689    0.2905   -0.2947 C   0  0  0  0  0  0  0  0  0  0  0  0
   -1.9965   -0.2482   -0.3187 C   0  0  0  0  0  0  0  0  0  0  0  0
    0.1444   -0.2415   -1.4146 O   0  0  0  0  0  0  0  0  0  0  0  0
    1.5078   -0.4512   -1.0458 C   0  0  0  0  0  0  0  0  0  0  0  0
    1.4685   -0.9115    0.4131 C   0  0  0  0  0  0  0  0  0  0  0  0
    0.2042   -0.2288    0.9336 C   0  0  0  0  0  0  0  0  0  0  0  0
   -0.1403   -0.1019    2.0790 O   0  0  0  0  0  0  0  0  0  0  0  0
    0.4871    2.2092   -0.3131 H   0  0  0  0  0  0  0  0  0  0  0  0
   -1.0549    2.2034   -1.1868 H   0  0  0  0  0  0  0  0  0  0  0  0
   -1.0326    2.2177    0.5956 H   0  0  0  0  0  0  0  0  0  0  0  0
   -2.5353    0.1427   -1.1865 H   0  0  0  0  0  0  0  0  0  0  0  0
   -1.9930   -1.3398   -0.3787 H   0  0  0  0  0  0  0  0  0  0  0  0
   -2.5201    0.0527    0.5924 H   0  0  0  0  0  0  0  0  0  0  0  0
    1.9225   -1.1898   -1.7351 H   0  0  0  0  0  0  0  0  0  0  0  0
    2.0911    0.4768   -1.1481 H   0  0  0  0  0  0  0  0  0  0  0  0
    1.3212   -1.9956    0.4850 H   0  0  0  0  0  0  0  0  0  0  0  0
    2.3410   -0.6488    1.0141 H   0  0  0  0  0  0  0  0  0  0  0  0
  1  2  1  0  0  0  0
  1 11  1  0  0  0  0
  2  7  1  0  0  0  0
  3  2  1  0  0  0  0
  3 14  1  0  0  0  0
  4  5  1  0  0  0  0
  4  2  1  0  0  0  0
  5  6  1  0  0  0  0
  6 17  1  0  0  0  0
  6  7  1  0  0  0  0
  6 18  1  0  0  0  0
  7  8  2  0  0  0  0
  9  1  1  0  0  0  0
 10  1  1  0  0  0  0
 12  3  1  0  0  0  0
 13  3  1  0  0  0  0
 15  5  1  0  0  0  0
 16  5  1  0  0  0  0
M  END
