title
 OpenBabel02282109583D

 17 17  0  0  0  0  0  0  0  0999 V2000
   -0.5277    1.8342   -0.3655 C   0  0  0  0  0  0  0  0  0  0  0  0
   -0.5743    0.3010   -0.3136 C   0  0  0  0  0  0  0  0  0  0  0  0
   -1.9984   -0.2337   -0.3870 C   0  0  0  0  0  0  0  0  0  0  0  0
    0.1875   -0.2725   -1.3945 O   0  0  0  0  0  0  0  0  0  0  0  0
    1.4795   -0.4920   -0.9149 C   0  0  0  0  0  0  0  0  0  0  0  0
    1.3714   -0.7195    0.4932 O   0  0  0  0  0  0  0  0  0  0  0  0
    0.1754   -0.2162    0.9092 C   0  0  0  0  0  0  0  0  0  0  0  0
   -0.2447   -0.1762    2.0965 N   0  0  0  0  0  0  0  0  0  0  0  0
    0.5018    2.2042   -0.3389 H   0  0  0  0  0  0  0  0  0  0  0  0
   -0.9989    2.1884   -1.2864 H   0  0  0  0  0  0  0  0  0  0  0  0
   -1.0587    2.2513    0.4938 H   0  0  0  0  0  0  0  0  0  0  0  0
   -2.4989    0.1426   -1.2836 H   0  0  0  0  0  0  0  0  0  0  0  0
   -1.9933   -1.3256   -0.4198 H   0  0  0  0  0  0  0  0  0  0  0  0
   -2.5539    0.0865    0.4973 H   0  0  0  0  0  0  0  0  0  0  0  0
    1.9005   -1.3829   -1.3895 H   0  0  0  0  0  0  0  0  0  0  0  0
    2.1419    0.3737   -1.0755 H   0  0  0  0  0  0  0  0  0  0  0  0
    0.4414   -0.5638    2.7453 H   0  0  0  0  0  0  0  0  0  0  0  0
  1  9  1  0  0  0  0
  1  2  1  0  0  0  0
  1 11  1  0  0  0  0
  2  7  1  0  0  0  0
  3  2  1  0  0  0  0
  3 14  1  0  0  0  0
  4  5  1  0  0  0  0
  4  2  1  0  0  0  0
  5  6  1  0  0  0  0
  6  7  1  0  0  0  0
  7  8  2  0  0  0  0
  8 17  1  0  0  0  0
 10  1  1  0  0  0  0
 12  3  1  0  0  0  0
 13  3  1  0  0  0  0
 15  5  1  0  0  0  0
 16  5  1  0  0  0  0
M  END
