title
 OpenBabel02282109583D

 18 18  0  0  1  0  0  0  0  0999 V2000
   -0.3327    1.8724   -0.2343 C   0  0  0  0  0  0  0  0  0  0  0  0
   -0.5435    0.3480   -0.3134 C   0  0  1  0  0  0  0  0  0  0  0  0
   -1.9220    0.0448   -0.2876 O   0  0  0  0  0  0  0  0  0  0  0  0
    0.1733   -0.2842   -1.5156 C   0  0  0  0  0  0  0  0  0  0  0  0
    1.6383   -0.4612   -1.0468 C   0  0  0  0  0  0  0  0  0  0  0  0
    1.5356   -0.8238    0.4499 C   0  0  0  0  0  0  0  0  0  0  0  0
    0.1623   -0.3203    0.8806 C   0  0  0  0  0  0  0  0  0  0  0  0
   -0.3701   -0.4632    1.9541 O   0  0  0  0  0  0  0  0  0  0  0  0
    0.7240    2.1541   -0.2897 H   0  0  0  0  0  0  0  0  0  0  0  0
   -0.8628    2.3443   -1.0664 H   0  0  0  0  0  0  0  0  0  0  0  0
   -0.7420    2.2586    0.7039 H   0  0  0  0  0  0  0  0  0  0  0  0
   -2.1507   -0.0564    0.6482 H   0  0  0  0  0  0  0  0  0  0  0  0
   -0.2894   -1.2577   -1.7110 H   0  0  0  0  0  0  0  0  0  0  0  0
    0.0887    0.3147   -2.4258 H   0  0  0  0  0  0  0  0  0  0  0  0
    2.1658   -1.2219   -1.6263 H   0  0  0  0  0  0  0  0  0  0  0  0
    2.1916    0.4747   -1.1735 H   0  0  0  0  0  0  0  0  0  0  0  0
    1.5503   -1.9075    0.6155 H   0  0  0  0  0  0  0  0  0  0  0  0
    2.3267   -0.4037    1.0778 H   0  0  0  0  0  0  0  0  0  0  0  0
  1 11  1  0  0  0  0
  2  3  1  6  0  0  0
  2  1  1  0  0  0  0
  2  7  1  0  0  0  0
  3 12  1  0  0  0  0
  4  5  1  0  0  0  0
  4  2  1  0  0  0  0
  5  6  1  0  0  0  0
  6 17  1  0  0  0  0
  6  7  1  0  0  0  0
  6 18  1  0  0  0  0
  7  8  2  0  0  0  0
  9  1  1  0  0  0  0
 10  1  1  0  0  0  0
 13  4  1  0  0  0  0
 14  4  1  0  0  0  0
 15  5  1  0  0  0  0
 16  5  1  0  0  0  0
M  END
