17
title
C -0.9257412 1.9058005 -0.19563583
C -0.49500683 0.4546959 -0.30405748
O -1.6202673 -0.43553856 -0.39358595
C 0.42998233 0.07977647 -1.4668369
N 1.1453438 -1.1465511 -1.0601571
C 1.4059768 -0.9818112 0.37476608
C 0.31201264 -0.054998867 0.9176865
O 0.06353124 0.20221752 2.068005
H -0.06321416 2.579009 -0.2313675
H -1.6051975 2.1623812 -1.013399
H -1.4373659 2.0738742 0.7580413
H -2.1132317 -0.35855123 0.43254188
H -0.12471593 -0.08578881 -2.3926117
H 1.1581925 0.88249475 -1.6369768
H 0.49846497 -1.9210963 -1.1731877
H 1.4392805 -1.9332623 0.9104722
H 2.3754706 -0.4867048 0.533925
