title
 OpenBabel02282109583D

 16 16  0  0  1  0  0  0  0  0999 V2000
   -0.2591    1.8883   -0.2727 C   0  0  0  0  0  0  0  0  0  0  0  0
   -0.5555    0.3804   -0.2900 C   0  0  1  0  0  0  0  0  0  0  0  0
   -1.9385    0.1202   -0.2558 O   0  0  0  0  0  0  0  0  0  0  0  0
    0.1531   -0.3306   -1.4521 C   0  0  0  0  0  0  0  0  0  0  0  0
    1.5018   -0.5031   -1.0009 O   0  0  0  0  0  0  0  0  0  0  0  0
    1.4608   -0.8647    0.3683 C   0  0  0  0  0  0  0  0  0  0  0  0
    0.1483   -0.2993    0.8955 C   0  0  0  0  0  0  0  0  0  0  0  0
   -0.3302   -0.4108    1.9946 O   0  0  0  0  0  0  0  0  0  0  0  0
    0.8099    2.0836   -0.3999 H   0  0  0  0  0  0  0  0  0  0  0  0
   -0.8059    2.3652   -1.0911 H   0  0  0  0  0  0  0  0  0  0  0  0
   -0.5895    2.3310    0.6717 H   0  0  0  0  0  0  0  0  0  0  0  0
   -2.1793    0.0533    0.6795 H   0  0  0  0  0  0  0  0  0  0  0  0
   -0.3374   -1.2959   -1.6459 H   0  0  0  0  0  0  0  0  0  0  0  0
    0.1901    0.2484   -2.3767 H   0  0  0  0  0  0  0  0  0  0  0  0
    1.4583   -1.9576    0.5118 H   0  0  0  0  0  0  0  0  0  0  0  0
    2.3337   -0.4550    0.8860 H   0  0  0  0  0  0  0  0  0  0  0  0
  1 11  1  0  0  0  0
  2  1  1  0  0  0  0
  2  3  1  1  0  0  0
  2  7  1  0  0  0  0
  3 12  1  0  0  0  0
  4  5  1  0  0  0  0
  4  2  1  0  0  0  0
  5  6  1  0  0  0  0
  6 15  1  0  0  0  0
  6 16  1  0  0  0  0
  6  7  1  0  0  0  0
  7  8  2  0  0  0  0
  9  1  1  0  0  0  0
 10  1  1  0  0  0  0
 13  4  1  0  0  0  0
 14  4  1  0  0  0  0
M  END
