title
 OpenBabel02282109583D

 18 18  0  0  1  0  0  0  0  0999 V2000
   -0.6215    1.6900   -0.3311 C   0  0  0  0  0  0  0  0  0  0  0  0
   -0.5638    0.1604   -0.3937 C   0  0  1  0  0  0  0  0  0  0  0  0
   -1.8657   -0.3703   -0.6192 O   0  0  0  0  0  0  0  0  0  0  0  0
    0.3600   -0.3147   -1.5439 C   0  0  0  0  0  0  0  0  0  0  0  0
    1.6655   -0.6190   -0.8535 C   0  0  0  0  0  0  0  0  0  0  0  0
    1.5292   -0.6874    0.4703 C   0  0  0  0  0  0  0  0  0  0  0  0
    0.1030   -0.4434    0.8946 C   0  0  1  0  0  0  0  0  0  0  0  0
   -0.0562    0.3212    2.0823 O   0  0  0  0  0  0  0  0  0  0  0  0
    0.3823    2.1243   -0.2611 H   0  0  0  0  0  0  0  0  0  0  0  0
   -1.0977    2.0729   -1.2375 H   0  0  0  0  0  0  0  0  0  0  0  0
   -1.1970    2.0237    0.5378 H   0  0  0  0  0  0  0  0  0  0  0  0
   -2.4282   -0.0746    0.1053 H   0  0  0  0  0  0  0  0  0  0  0  0
   -0.0708   -1.2164   -1.9968 H   0  0  0  0  0  0  0  0  0  0  0  0
    0.4539    0.4277   -2.3445 H   0  0  0  0  0  0  0  0  0  0  0  0
    2.5856   -0.7987   -1.3993 H   0  0  0  0  0  0  0  0  0  0  0  0
    2.3067   -0.9326    1.1858 H   0  0  0  0  0  0  0  0  0  0  0  0
   -0.4072   -1.3906    1.1131 H   0  0  0  0  0  0  0  0  0  0  0  0
    0.5149    1.0938    2.0139 H   0  0  0  0  0  0  0  0  0  0  0  0
  1  9  1  0  0  0  0
  1 11  1  0  0  0  0
  2  1  1  0  0  0  0
  2  7  1  1  0  0  0
  3  2  1  0  0  0  0
  3 12  1  0  0  0  0
  4  5  1  0  0  0  0
  4  2  1  0  0  0  0
  5  6  2  0  0  0  0
  6  7  1  0  0  0  0
  6 16  1  0  0  0  0
  7 17  1  1  0  0  0
  7  8  1  0  0  0  0
 10  1  1  0  0  0  0
 13  4  1  0  0  0  0
 14  4  1  0  0  0  0
 15  5  1  0  0  0  0
 18  8  1  0  0  0  0
M  END
