22
title
C -0.94863915 1.8667885 -0.6545688
C -0.8120624 0.33689407 -0.54624104
C -0.0085853925 -0.21266025 -1.7046139
C 1.1969388 -0.6369019 -1.3321109
C 1.4073097 -0.4881215 0.15314494
C -0.025076568 -0.20765066 0.70551664
C -0.0009828798 0.7401696 1.9098951
C -0.66439635 -1.5431372 1.1294385
H 0.030023456 2.3576941 -0.658813
H -1.4527442 2.1348972 -1.5892972
H -1.5371532 2.2820396 0.16938369
H -1.8292754 -0.078781985 -0.54057777
H -0.38078043 -0.19446206 -2.7241373
H 1.9596697 -1.0263913 -1.9980171
H 1.8514091 -1.3788055 0.6151901
H 2.096619 0.34106314 0.36913773
H 0.45935196 1.7024747 1.6679462
H -1.0103856 0.9355915 2.289424
H 0.57486886 0.29689565 2.730246
H -0.1030491 -2.004448 1.9496549
H -1.6946095 -1.3940694 1.4715933
H -0.685824 -2.250461 0.2941064
