title
 OpenBabel02282109583D

 22 22  0  0  1  0  0  0  0  0999 V2000
   -0.9486    1.8668   -0.6546 C   0  0  0  0  0  0  0  0  0  0  0  0
   -0.8121    0.3369   -0.5462 C   0  0  1  0  0  0  0  0  0  0  0  0
   -0.0086   -0.2127   -1.7046 C   0  0  0  0  0  0  0  0  0  0  0  0
    1.1969   -0.6369   -1.3321 C   0  0  0  0  0  0  0  0  0  0  0  0
    1.4073   -0.4881    0.1531 C   0  0  0  0  0  0  0  0  0  0  0  0
   -0.0251   -0.2077    0.7055 C   0  0  0  0  0  0  0  0  0  0  0  0
   -0.0010    0.7402    1.9099 C   0  0  0  0  0  0  0  0  0  0  0  0
   -0.6644   -1.5431    1.1294 C   0  0  0  0  0  0  0  0  0  0  0  0
    0.0300    2.3577   -0.6588 H   0  0  0  0  0  0  0  0  0  0  0  0
   -1.4527    2.1349   -1.5893 H   0  0  0  0  0  0  0  0  0  0  0  0
   -1.5372    2.2820    0.1694 H   0  0  0  0  0  0  0  0  0  0  0  0
   -1.8293   -0.0788   -0.5406 H   0  0  0  0  0  0  0  0  0  0  0  0
   -0.3808   -0.1945   -2.7241 H   0  0  0  0  0  0  0  0  0  0  0  0
    1.9597   -1.0264   -1.9980 H   0  0  0  0  0  0  0  0  0  0  0  0
    1.8514   -1.3788    0.6152 H   0  0  0  0  0  0  0  0  0  0  0  0
    2.0966    0.3411    0.3691 H   0  0  0  0  0  0  0  0  0  0  0  0
    0.4594    1.7025    1.6679 H   0  0  0  0  0  0  0  0  0  0  0  0
   -1.0104    0.9356    2.2894 H   0  0  0  0  0  0  0  0  0  0  0  0
    0.5749    0.2969    2.7302 H   0  0  0  0  0  0  0  0  0  0  0  0
   -0.1030   -2.0044    1.9497 H   0  0  0  0  0  0  0  0  0  0  0  0
   -1.6946   -1.3941    1.4716 H   0  0  0  0  0  0  0  0  0  0  0  0
   -0.6858   -2.2505    0.2941 H   0  0  0  0  0  0  0  0  0  0  0  0
  1  2  1  0  0  0  0
  1 11  1  0  0  0  0
  2 12  1  6  0  0  0
  2  6  1  0  0  0  0
  3  4  2  0  0  0  0
  3  2  1  0  0  0  0
  4  5  1  0  0  0  0
  5 16  1  0  0  0  0
  5 15  1  0  0  0  0
  5  6  1  0  0  0  0
  6  8  1  0  0  0  0
  6  7  1  0  0  0  0
  7 18  1  0  0  0  0
  7 19  1  0  0  0  0
  8 21  1  0  0  0  0
  8 20  1  0  0  0  0
  9  1  1  0  0  0  0
 10  1  1  0  0  0  0
 13  3  1  0  0  0  0
 14  4  1  0  0  0  0
 17  7  1  0  0  0  0
 22  8  1  0  0  0  0
M  END
