20
title
C -0.698212 1.911538 -0.23857836
C -0.609117 0.38005334 -0.2655159
C -2.030735 -0.21568196 -0.35831642
C 0.24574299 -0.15118732 -1.4063284
C 1.0185889 -1.1706116 -1.0319076
C 0.833355 -1.4932524 0.43415865
C 0.14133765 -0.21756403 0.97599095
O 1.0969417 0.6765399 1.5296313
H 0.28850254 2.3779182 -0.20168072
H -1.2143137 2.2764125 -1.1336089
H -1.2580699 2.2568834 0.63655436
H -2.5126743 0.07151492 -1.2988452
H -2.0112307 -1.3092668 -0.3175033
H -2.6582372 0.14685133 0.46378222
H 0.17541577 0.24958694 -2.4128613
H 1.6758131 -1.7352585 -1.6843326
H 0.21094741 -2.3889132 0.5652294
H 1.7664343 -1.6788384 0.97695214
H -0.5518285 -0.42747775 1.7955174
H 1.7743541 0.8223279 0.85900027
