title
 OpenBabel02282109583D

 20 20  0  0  1  0  0  0  0  0999 V2000
   -0.6982    1.9115   -0.2386 C   0  0  0  0  0  0  0  0  0  0  0  0
   -0.6091    0.3801   -0.2655 C   0  0  0  0  0  0  0  0  0  0  0  0
   -2.0307   -0.2157   -0.3583 C   0  0  0  0  0  0  0  0  0  0  0  0
    0.2457   -0.1512   -1.4063 C   0  0  0  0  0  0  0  0  0  0  0  0
    1.0186   -1.1706   -1.0319 C   0  0  0  0  0  0  0  0  0  0  0  0
    0.8334   -1.4933    0.4342 C   0  0  0  0  0  0  0  0  0  0  0  0
    0.1413   -0.2176    0.9760 C   0  0  1  0  0  0  0  0  0  0  0  0
    1.0969    0.6765    1.5296 O   0  0  0  0  0  0  0  0  0  0  0  0
    0.2885    2.3779   -0.2017 H   0  0  0  0  0  0  0  0  0  0  0  0
   -1.2143    2.2764   -1.1336 H   0  0  0  0  0  0  0  0  0  0  0  0
   -1.2581    2.2569    0.6366 H   0  0  0  0  0  0  0  0  0  0  0  0
   -2.5127    0.0715   -1.2988 H   0  0  0  0  0  0  0  0  0  0  0  0
   -2.0112   -1.3093   -0.3175 H   0  0  0  0  0  0  0  0  0  0  0  0
   -2.6582    0.1469    0.4638 H   0  0  0  0  0  0  0  0  0  0  0  0
    0.1754    0.2496   -2.4129 H   0  0  0  0  0  0  0  0  0  0  0  0
    1.6758   -1.7353   -1.6843 H   0  0  0  0  0  0  0  0  0  0  0  0
    0.2109   -2.3889    0.5652 H   0  0  0  0  0  0  0  0  0  0  0  0
    1.7664   -1.6788    0.9770 H   0  0  0  0  0  0  0  0  0  0  0  0
   -0.5518   -0.4275    1.7955 H   0  0  0  0  0  0  0  0  0  0  0  0
    1.7744    0.8223    0.8590 H   0  0  0  0  0  0  0  0  0  0  0  0
  1  9  1  0  0  0  0
  1 11  1  0  0  0  0
  2  1  1  0  0  0  0
  2  7  1  0  0  0  0
  3 13  1  0  0  0  0
  3  2  1  0  0  0  0
  3 14  1  0  0  0  0
  4  5  2  0  0  0  0
  4  2  1  0  0  0  0
  5  6  1  0  0  0  0
  6 17  1  0  0  0  0
  6  7  1  0  0  0  0
  6 18  1  0  0  0  0
  7  8  1  0  0  0  0
  7 19  1  1  0  0  0
 10  1  1  0  0  0  0
 12  3  1  0  0  0  0
 15  4  1  0  0  0  0
 16  5  1  0  0  0  0
 20  8  1  0  0  0  0
M  END
