18
title
C -0.1889236 1.8129076 -0.42042848
C -0.54188955 0.32564402 -0.31556198
O -1.9522188 0.16789031 -0.12718086
C -0.02371568 -0.47101805 -1.4983097
C 1.0181339 -1.2363663 -1.1812683
C 1.3933053 -1.0948312 0.27304685
C 0.15327859 -0.3876371 0.87581223
O 0.44158047 0.5304678 1.914407
H 0.89159685 1.9623227 -0.49302983
H -0.6469494 2.2460172 -1.318259
H -0.55304325 2.345069 0.46089298
H -2.4012413 0.76824605 -0.73129135
H -0.4693064 -0.37672225 -2.483313
H 1.5613945 -1.875438 -1.8692435
H 1.6160865 -2.0520704 0.7592824
H 2.278128 -0.4569936 0.403773
H -0.562318 -1.1470696 1.2183588
H 0.69291526 0.029245822 2.6953065
