19
title
C -1.2908971 1.7005385 -0.5530606
C -0.7117031 0.2999315 -0.6290213
O 0.3792365 0.2854315 -1.5947267
C 1.3475596 -0.4667929 -1.0246999
N 1.2175893 -0.8801706 0.164593
C -0.07112311 -0.3289965 0.6597631
C 0.25038376 0.6817263 1.770501
C -0.9403831 -1.4629632 1.2116703
H -0.5476413 2.4252641 -0.21276571
H -1.6483661 2.0129883 -1.5381305
H -2.1400435 1.7226099 0.13717337
H -1.4736228 -0.3860151 -1.0211676
H 2.2024243 -0.6554721 -1.6659784
H 0.88020396 1.4960402 1.4017518
H -0.66104007 1.112821 2.1967833
H 0.79811287 0.17516617 2.5694566
H -0.44824126 -1.941029 2.0629618
H -1.9120225 -1.0810416 1.5456077
H -1.1138924 -2.226621 0.44787836
