20
title
C -0.99000704 1.8593043 -0.21822922
C -0.6505037 0.36739063 -0.21416517
C -1.9319359 -0.47751653 -0.32168797
C 0.3378066 -0.030248895 -1.3262876
O 0.8925358 -1.2797288 -0.9235011
C 0.88061666 -1.3494819 0.4992812
C 0.17074867 -0.08378528 1.0186485
O 1.0966735 0.9486843 1.3380091
H -0.09424375 2.4719093 -0.10773483
H -1.4874763 2.1318123 -1.1557417
H -1.6728346 2.108479 0.60103613
H -2.5013247 -0.18859561 -1.2112274
H -1.7077806 -1.5446857 -0.40496624
H -2.5779917 -0.32814956 0.5500146
H -0.14181761 -0.17399926 -2.299791
H 1.1254896 0.7305551 -1.4287395
H 0.36146405 -2.2668636 0.806225
H 1.90868 -1.3977957 0.8874534
H -0.47303155 -0.302836 1.8826333
H 1.7032812 0.61065555 2.003612
