18
title
C -1.090085 1.8107996 -0.23579505
C -0.6405139 0.35509768 -0.22127686
O -1.7599826 -0.5343578 -0.23920177
C 0.36236498 -0.010733708 -1.3285078
O 1.0719895 -1.1592692 -0.8818277
C 0.8279107 -1.3565899 0.5089445
C 0.1563774 -0.08039518 1.0238229
O 1.087894 0.95079553 1.3163956
H -0.24686566 2.4845614 -0.0755198
H -1.5547944 2.057767 -1.198052
H -1.8313186 1.9794041 0.5501441
H -2.2107956 -0.425624 -1.0828087
H -0.14753768 -0.24564745 -2.2719727
H 1.0590122 0.8197351 -1.5071219
H 0.16959134 -2.221994 0.65822285
H 1.781741 -1.5511572 1.0170388
H -0.5153586 -0.27387577 1.8698761
H 1.724063 0.60948896 1.9517648
