22
title
C -1.364303 1.7022719 -0.54644454
C -0.74684805 0.3070372 -0.58474886
C 0.25314462 0.05871099 -1.7299745
C 1.1441756 -1.1310734 -1.2653499
C 0.730363 -1.4153712 0.19822662
C 0.01875991 -0.13243994 0.6861763
C 1.0216336 0.9107115 1.1948078
O -0.9568985 -0.39374354 1.694378
H -0.5990418 2.4859319 -0.5306108
H -1.9900361 1.875848 -1.4282112
H -1.9937712 1.819911 0.34096202
H -1.5643208 -0.42105272 -0.6741494
H -0.25780022 -0.14443526 -2.6753817
H 0.8627354 0.9546713 -1.8958386
H 1.0037607 -2.0148335 -1.8933952
H 2.204292 -0.8698905 -1.3340255
H -0.00036060484 -2.2291949 0.2450025
H 1.5761032 -1.6990832 0.8337951
H 1.7607408 1.1758416 0.43203852
H 0.51069033 1.82318 1.5122813
H 1.5739164 0.5132578 2.0553887
H -0.49297625 -0.59352547 2.5139818
