title
 OpenBabel02282109583D

 22 22  0  0  1  0  0  0  0  0999 V2000
   -1.3643    1.7023   -0.5464 C   0  0  0  0  0  0  0  0  0  0  0  0
   -0.7468    0.3070   -0.5847 C   0  0  1  0  0  0  0  0  0  0  0  0
    0.2531    0.0587   -1.7300 C   0  0  0  0  0  0  0  0  0  0  0  0
    1.1442   -1.1311   -1.2653 C   0  0  0  0  0  0  0  0  0  0  0  0
    0.7304   -1.4154    0.1982 C   0  0  0  0  0  0  0  0  0  0  0  0
    0.0188   -0.1324    0.6862 C   0  0  1  0  0  0  0  0  0  0  0  0
    1.0216    0.9107    1.1948 C   0  0  0  0  0  0  0  0  0  0  0  0
   -0.9569   -0.3937    1.6944 O   0  0  0  0  0  0  0  0  0  0  0  0
   -0.5990    2.4859   -0.5306 H   0  0  0  0  0  0  0  0  0  0  0  0
   -1.9900    1.8758   -1.4282 H   0  0  0  0  0  0  0  0  0  0  0  0
   -1.9938    1.8199    0.3410 H   0  0  0  0  0  0  0  0  0  0  0  0
   -1.5643   -0.4211   -0.6741 H   0  0  0  0  0  0  0  0  0  0  0  0
   -0.2578   -0.1444   -2.6754 H   0  0  0  0  0  0  0  0  0  0  0  0
    0.8627    0.9547   -1.8958 H   0  0  0  0  0  0  0  0  0  0  0  0
    1.0038   -2.0148   -1.8934 H   0  0  0  0  0  0  0  0  0  0  0  0
    2.2043   -0.8699   -1.3340 H   0  0  0  0  0  0  0  0  0  0  0  0
   -0.0004   -2.2292    0.2450 H   0  0  0  0  0  0  0  0  0  0  0  0
    1.5761   -1.6991    0.8338 H   0  0  0  0  0  0  0  0  0  0  0  0
    1.7607    1.1758    0.4320 H   0  0  0  0  0  0  0  0  0  0  0  0
    0.5107    1.8232    1.5123 H   0  0  0  0  0  0  0  0  0  0  0  0
    1.5739    0.5133    2.0554 H   0  0  0  0  0  0  0  0  0  0  0  0
   -0.4930   -0.5935    2.5140 H   0  0  0  0  0  0  0  0  0  0  0  0
  1  9  1  0  0  0  0
  1 11  1  0  0  0  0
  2  1  1  0  0  0  0
  2  6  1  1  0  0  0
  3  4  1  0  0  0  0
  3  2  1  0  0  0  0
  4  5  1  0  0  0  0
  5 17  1  0  0  0  0
  5  6  1  0  0  0  0
  5 18  1  0  0  0  0
  6  7  1  0  0  0  0
  6  8  1  1  0  0  0
  7 20  1  0  0  0  0
  7 21  1  0  0  0  0
  8 22  1  0  0  0  0
 10  1  1  0  0  0  0
 12  2  1  0  0  0  0
 13  3  1  0  0  0  0
 14  3  1  0  0  0  0
 15  4  1  0  0  0  0
 16  4  1  0  0  0  0
 19  7  1  0  0  0  0
M  END
