title
 OpenBabel02282109583D

 22 22  0  0  1  0  0  0  0  0999 V2000
   -0.9830    1.9593   -0.6395 C   0  0  0  0  0  0  0  0  0  0  0  0
   -0.6895    0.4606   -0.5974 C   0  0  1  0  0  0  0  0  0  0  0  0
    0.2395   -0.0542   -1.7067 C   0  0  0  0  0  0  0  0  0  0  0  0
    0.6538   -1.4174   -1.1521 C   0  0  0  0  0  0  0  0  0  0  0  0
    0.6806   -1.2804    0.2650 O   0  0  0  0  0  0  0  0  0  0  0  0
    0.0015   -0.0773    0.6883 C   0  0  0  0  0  0  0  0  0  0  0  0
    1.0629    0.8718    1.2618 C   0  0  0  0  0  0  0  0  0  0  0  0
   -1.0084   -0.4666    1.7693 C   0  0  0  0  0  0  0  0  0  0  0  0
   -0.0645    2.5536   -0.6159 H   0  0  0  0  0  0  0  0  0  0  0  0
   -1.5210    2.2192   -1.5569 H   0  0  0  0  0  0  0  0  0  0  0  0
   -1.6068    2.2715    0.2050 H   0  0  0  0  0  0  0  0  0  0  0  0
   -1.6434   -0.0766   -0.6898 H   0  0  0  0  0  0  0  0  0  0  0  0
   -0.2525   -0.1222   -2.6809 H   0  0  0  0  0  0  0  0  0  0  0  0
    1.1087    0.6048   -1.8169 H   0  0  0  0  0  0  0  0  0  0  0  0
   -0.0729   -2.1931   -1.4411 H   0  0  0  0  0  0  0  0  0  0  0  0
    1.6424   -1.7449   -1.4931 H   0  0  0  0  0  0  0  0  0  0  0  0
    1.7706    1.1933    0.4921 H   0  0  0  0  0  0  0  0  0  0  0  0
    0.6119    1.7626    1.7100 H   0  0  0  0  0  0  0  0  0  0  0  0
    1.6296    0.3476    2.0364 H   0  0  0  0  0  0  0  0  0  0  0  0
   -0.4973   -0.8903    2.6390 H   0  0  0  0  0  0  0  0  0  0  0  0
   -1.5821    0.4049    2.1032 H   0  0  0  0  0  0  0  0  0  0  0  0
   -1.7069   -1.2160    1.3861 H   0  0  0  0  0  0  0  0  0  0  0  0
  1  9  1  0  0  0  0
  1  2  1  0  0  0  0
  1 11  1  0  0  0  0
  2 12  1  6  0  0  0
  2  6  1  0  0  0  0
  3  4  1  0  0  0  0
  3  2  1  0  0  0  0
  4  5  1  0  0  0  0
  5  6  1  0  0  0  0
  6  7  1  0  0  0  0
  6  8  1  0  0  0  0
  7 18  1  0  0  0  0
  7 19  1  0  0  0  0
  8 21  1  0  0  0  0
  8 20  1  0  0  0  0
 10  1  1  0  0  0  0
 13  3  1  0  0  0  0
 14  3  1  0  0  0  0
 15  4  1  0  0  0  0
 16  4  1  0  0  0  0
 17  7  1  0  0  0  0
 22  8  1  0  0  0  0
M  END
