title
 OpenBabel02282109583D

 22 22  0  0  1  0  0  0  0  0999 V2000
   -1.5072    1.5993   -0.5536 C   0  0  0  0  0  0  0  0  0  0  0  0
   -0.7640    0.2659   -0.6053 C   0  0  1  0  0  0  0  0  0  0  0  0
    0.3968    0.2329   -1.6185 C   0  0  0  0  0  0  0  0  0  0  0  0
    1.3781   -0.6698   -1.1082 O   0  0  0  0  0  0  0  0  0  0  0  0
    0.8901   -1.2512    0.0940 C   0  0  0  0  0  0  0  0  0  0  0  0
   -0.0837   -0.2278    0.7054 C   0  0  0  0  0  0  0  0  0  0  0  0
    0.7094    0.8846    1.4132 C   0  0  0  0  0  0  0  0  0  0  0  0
   -1.0744   -0.8753    1.6764 C   0  0  0  0  0  0  0  0  0  0  0  0
   -0.8336    2.4311   -0.3252 H   0  0  0  0  0  0  0  0  0  0  0  0
   -1.9818    1.8158   -1.5166 H   0  0  0  0  0  0  0  0  0  0  0  0
   -2.2980    1.5870    0.2038 H   0  0  0  0  0  0  0  0  0  0  0  0
   -1.4847   -0.5119   -0.8914 H   0  0  0  0  0  0  0  0  0  0  0  0
    0.0653   -0.0972   -2.6121 H   0  0  0  0  0  0  0  0  0  0  0  0
    0.8587    1.2235   -1.7356 H   0  0  0  0  0  0  0  0  0  0  0  0
    0.3679   -2.2000   -0.1158 H   0  0  0  0  0  0  0  0  0  0  0  0
    1.7490   -1.4716    0.7369 H   0  0  0  0  0  0  0  0  0  0  0  0
    1.4573    1.3287    0.7498 H   0  0  0  0  0  0  0  0  0  0  0  0
    0.0540    1.6836    1.7729 H   0  0  0  0  0  0  0  0  0  0  0  0
    1.2382    0.4776    2.2818 H   0  0  0  0  0  0  0  0  0  0  0  0
   -0.5570   -1.3015    2.5433 H   0  0  0  0  0  0  0  0  0  0  0  0
   -1.7944   -0.1425    2.0568 H   0  0  0  0  0  0  0  0  0  0  0  0
   -1.6388   -1.6806    1.1936 H   0  0  0  0  0  0  0  0  0  0  0  0
  1  9  1  0  0  0  0
  1 11  1  0  0  0  0
  2 12  1  6  0  0  0
  2  1  1  0  0  0  0
  2  6  1  0  0  0  0
  3  4  1  0  0  0  0
  3  2  1  0  0  0  0
  4  5  1  0  0  0  0
  5  6  1  0  0  0  0
  5 16  1  0  0  0  0
  6  7  1  0  0  0  0
  6  8  1  0  0  0  0
  7 18  1  0  0  0  0
  7 19  1  0  0  0  0
  8 21  1  0  0  0  0
  8 20  1  0  0  0  0
 10  1  1  0  0  0  0
 13  3  1  0  0  0  0
 14  3  1  0  0  0  0
 15  5  1  0  0  0  0
 17  7  1  0  0  0  0
 22  8  1  0  0  0  0
M  END
