22
title
C -1.5071545 1.5992959 -0.55355585
C -0.7640423 0.2659143 -0.60527986
C 0.39679223 0.23291793 -1.6184847
O 1.3781153 -0.6698073 -1.1081814
C 0.89007586 -1.2511613 0.093975805
C -0.08368409 -0.22780584 0.7054357
C 0.7094024 0.8846214 1.41322
C -1.0744206 -0.87527555 1.676397
H -0.83361906 2.4311068 -0.325222
H -1.9818027 1.8157797 -1.5166183
H -2.297987 1.587005 0.20376785
H -1.4847026 -0.51190335 -0.89139014
H 0.0653075 -0.0971994 -2.6120546
H 0.8587267 1.2235138 -1.7355907
H 0.36794537 -2.2000077 -0.1157564
H 1.7489821 -1.4715568 0.73689526
H 1.4573146 1.3286988 0.74978584
H 0.054001093 1.6836435 1.7729286
H 1.2381605 0.4776079 2.281811
H -0.5570256 -1.3014567 2.5433211
H -1.7944499 -0.14248966 2.0568075
H -1.6387999 -1.6806253 1.193647
