title
 OpenBabel02282109583D

 20 20  0  0  1  0  0  0  0  0999 V2000
   -1.0424    1.9298   -0.6054 C   0  0  0  0  0  0  0  0  0  0  0  0
   -0.7061    0.4421   -0.5532 C   0  0  1  0  0  0  0  0  0  0  0  0
    0.1902   -0.0493   -1.6987 C   0  0  0  0  0  0  0  0  0  0  0  0
    0.7286   -1.2796   -1.2453 O   0  0  0  0  0  0  0  0  0  0  0  0
    1.0831   -1.0615    0.1084 C   0  0  0  0  0  0  0  0  0  0  0  0
    0.0295   -0.0891    0.7174 C   0  0  1  0  0  0  0  0  0  0  0  0
    0.6908    0.9744    1.5956 C   0  0  0  0  0  0  0  0  0  0  0  0
   -0.9637   -0.7884    1.4736 O   0  0  0  0  0  0  0  0  0  0  0  0
   -0.1449    2.5569   -0.5846 H   0  0  0  0  0  0  0  0  0  0  0  0
   -1.5847    2.1650   -1.5274 H   0  0  0  0  0  0  0  0  0  0  0  0
   -1.6809    2.2245    0.2328 H   0  0  0  0  0  0  0  0  0  0  0  0
   -1.6362   -0.1334   -0.5916 H   0  0  0  0  0  0  0  0  0  0  0  0
   -0.3504   -0.2361   -2.6302 H   0  0  0  0  0  0  0  0  0  0  0  0
    0.9949    0.6798   -1.9072 H   0  0  0  0  0  0  0  0  0  0  0  0
    1.0891   -2.0259    0.6242 H   0  0  0  0  0  0  0  0  0  0  0  0
    2.0923   -0.6202    0.1722 H   0  0  0  0  0  0  0  0  0  0  0  0
    1.3968    1.5900    1.0303 H   0  0  0  0  0  0  0  0  0  0  0  0
   -0.0604    1.6282    2.0458 H   0  0  0  0  0  0  0  0  0  0  0  0
    1.2561    0.4974    2.4066 H   0  0  0  0  0  0  0  0  0  0  0  0
   -0.5604   -1.0784    2.2991 H   0  0  0  0  0  0  0  0  0  0  0  0
  1  9  1  0  0  0  0
  1  2  1  0  0  0  0
  1 11  1  0  0  0  0
  2  6  1  1  0  0  0
  3  4  1  0  0  0  0
  3  2  1  0  0  0  0
  4  5  1  0  0  0  0
  5 16  1  0  0  0  0
  5 15  1  0  0  0  0
  5  6  1  0  0  0  0
  6  8  1  1  0  0  0
  6  7  1  0  0  0  0
  7 18  1  0  0  0  0
  7 19  1  0  0  0  0
  8 20  1  0  0  0  0
 10  1  1  0  0  0  0
 12  2  1  0  0  0  0
 13  3  1  0  0  0  0
 14  3  1  0  0  0  0
 17  7  1  0  0  0  0
M  END
