20
title
C -1.0424223 1.9298297 -0.60535634
C -0.70606333 0.44207352 -0.55324847
C 0.19020158 -0.04930099 -1.6986824
O 0.72856367 -1.2795718 -1.2452898
C 1.0831238 -1.0615039 0.108409666
C 0.029459296 -0.089130186 0.71739525
C 0.69080675 0.97441363 1.5956292
O -0.96369064 -0.78843343 1.4735796
H -0.14490032 2.556919 -0.5846193
H -1.5847437 2.164952 -1.5273777
H -1.6809379 2.2245407 0.23278089
H -1.6361632 -0.13342449 -0.5915636
H -0.35038415 -0.2361373 -2.630203
H 0.9949404 0.6798387 -1.9071519
H 1.0891134 -2.025895 0.6241625
H 2.0922916 -0.6201805 0.17221422
H 1.3968318 1.5899637 1.0302637
H -0.060378198 1.6282136 2.0458174
H 1.2560976 0.4974368 2.4066467
H -0.5604263 -1.0783856 2.2990923
