title
 OpenBabel02282109583D

 22 22  0  0  1  0  0  0  0  0999 V2000
   -1.0142    1.8758   -0.5836 C   0  0  0  0  0  0  0  0  0  0  0  0
   -0.7126    0.3886   -0.5040 C   0  0  1  0  0  0  0  0  0  0  0  0
    0.1393    0.0407   -1.5917 O   0  0  0  0  0  0  0  0  0  0  0  0
    0.7582   -1.2130   -1.3054 C   0  0  0  0  0  0  0  0  0  0  0  0
    0.5237   -1.4958    0.1952 C   0  0  0  0  0  0  0  0  0  0  0  0
    0.0194   -0.1430    0.7564 C   0  0  0  0  0  0  0  0  0  0  0  0
    1.2099    0.7526    1.1390 C   0  0  0  0  0  0  0  0  0  0  0  0
   -0.9222   -0.3189    1.9506 C   0  0  0  0  0  0  0  0  0  0  0  0
   -0.0966    2.4682   -0.5506 H   0  0  0  0  0  0  0  0  0  0  0  0
   -1.5288    2.1022   -1.5215 H   0  0  0  0  0  0  0  0  0  0  0  0
   -1.6635    2.1836    0.2423 H   0  0  0  0  0  0  0  0  0  0  0  0
   -1.6657   -0.1664   -0.5904 H   0  0  0  0  0  0  0  0  0  0  0  0
    0.3267   -2.0021   -1.9366 H   0  0  0  0  0  0  0  0  0  0  0  0
    1.8212   -1.1288   -1.5586 H   0  0  0  0  0  0  0  0  0  0  0  0
   -0.2458   -2.2638    0.3244 H   0  0  0  0  0  0  0  0  0  0  0  0
    1.4257   -1.8490    0.7023 H   0  0  0  0  0  0  0  0  0  0  0  0
    1.8598    0.9391    0.2790 H   0  0  0  0  0  0  0  0  0  0  0  0
    0.8779    1.7212    1.5257 H   0  0  0  0  0  0  0  0  0  0  0  0
    1.8101    0.2750    1.9209 H   0  0  0  0  0  0  0  0  0  0  0  0
   -0.4039   -0.7880    2.7938 H   0  0  0  0  0  0  0  0  0  0  0  0
   -1.3071    0.6458    2.2999 H   0  0  0  0  0  0  0  0  0  0  0  0
   -1.7798   -0.9499    1.6927 H   0  0  0  0  0  0  0  0  0  0  0  0
  1  9  1  0  0  0  0
  1  2  1  0  0  0  0
  1 11  1  0  0  0  0
  2 12  1  6  0  0  0
  2  6  1  0  0  0  0
  3  4  1  0  0  0  0
  3  2  1  0  0  0  0
  4  5  1  0  0  0  0
  5 15  1  0  0  0  0
  5 16  1  0  0  0  0
  5  6  1  0  0  0  0
  6  7  1  0  0  0  0
  6  8  1  0  0  0  0
  7 18  1  0  0  0  0
  7 19  1  0  0  0  0
  8 21  1  0  0  0  0
  8 20  1  0  0  0  0
 10  1  1  0  0  0  0
 13  4  1  0  0  0  0
 14  4  1  0  0  0  0
 17  7  1  0  0  0  0
 22  8  1  0  0  0  0
M  END
