title
 OpenBabel02282109583D

 20 20  0  0  1  0  0  0  0  0999 V2000
   -1.2221    1.7394   -0.5860 C   0  0  0  0  0  0  0  0  0  0  0  0
   -0.6855    0.3213   -0.5657 C   0  0  1  0  0  0  0  0  0  0  0  0
    0.3001    0.1664   -1.5746 O   0  0  0  0  0  0  0  0  0  0  0  0
    0.9203   -1.0968   -1.3487 C   0  0  0  0  0  0  0  0  0  0  0  0
    0.8621   -1.3485    0.1776 C   0  0  0  0  0  0  0  0  0  0  0  0
    0.0177   -0.1618    0.7271 C   0  0  1  0  0  0  0  0  0  0  0  0
    0.9051    0.9091    1.3631 C   0  0  0  0  0  0  0  0  0  0  0  0
   -1.0072   -0.5696    1.6270 O   0  0  0  0  0  0  0  0  0  0  0  0
   -0.4149    2.4710   -0.4964 H   0  0  0  0  0  0  0  0  0  0  0  0
   -1.7495    1.9306   -1.5244 H   0  0  0  0  0  0  0  0  0  0  0  0
   -1.9248    1.8802    0.2404 H   0  0  0  0  0  0  0  0  0  0  0  0
   -1.5197   -0.3827   -0.7349 H   0  0  0  0  0  0  0  0  0  0  0  0
    0.3826   -1.8853   -1.8961 H   0  0  0  0  0  0  0  0  0  0  0  0
    1.9373   -1.0429   -1.7464 H   0  0  0  0  0  0  0  0  0  0  0  0
    0.3480   -2.2838    0.4103 H   0  0  0  0  0  0  0  0  0  0  0  0
    1.8573   -1.3870    0.6288 H   0  0  0  0  0  0  0  0  0  0  0  0
    1.6244    1.2959    0.6351 H   0  0  0  0  0  0  0  0  0  0  0  0
    0.3070    1.7415    1.7430 H   0  0  0  0  0  0  0  0  0  0  0  0
    1.4744    0.4851    2.1993 H   0  0  0  0  0  0  0  0  0  0  0  0
   -0.6030   -0.7454    2.4826 H   0  0  0  0  0  0  0  0  0  0  0  0
  1  2  1  0  0  0  0
  1  9  1  0  0  0  0
  1 11  1  0  0  0  0
  2  6  1  1  0  0  0
  3  4  1  0  0  0  0
  3  2  1  0  0  0  0
  4  5  1  0  0  0  0
  5 15  1  0  0  0  0
  5 16  1  0  0  0  0
  5  6  1  0  0  0  0
  6  7  1  0  0  0  0
  6  8  1  1  0  0  0
  7 18  1  0  0  0  0
  7 19  1  0  0  0  0
  8 20  1  0  0  0  0
 10  1  1  0  0  0  0
 12  2  1  0  0  0  0
 13  4  1  0  0  0  0
 14  4  1  0  0  0  0
 17  7  1  0  0  0  0
M  END
