title
 OpenBabel02282109583D

 20 20  0  0  1  0  0  0  0  0999 V2000
   -0.2409    1.9003   -0.9942 C   0  0  0  0  0  0  0  0  0  0  0  0
   -0.7548    0.5910   -0.4027 C   0  0  1  0  0  0  0  0  0  0  0  0
   -0.7114   -0.4525   -1.3823 O   0  0  0  0  0  0  0  0  0  0  0  0
    0.4435   -1.2382   -1.1426 C   0  0  0  0  0  0  0  0  0  0  0  0
    1.0746   -0.7427    0.0113 O   0  0  0  0  0  0  0  0  0  0  0  0
    0.0830   -0.0108    0.7546 C   0  0  0  0  0  0  0  0  0  0  0  0
    0.8212    0.9862    1.6386 C   0  0  0  0  0  0  0  0  0  0  0  0
   -0.7691   -0.9718    1.5967 C   0  0  0  0  0  0  0  0  0  0  0  0
    0.8184    1.8246   -1.2566 H   0  0  0  0  0  0  0  0  0  0  0  0
   -0.8025    2.1297   -1.9038 H   0  0  0  0  0  0  0  0  0  0  0  0
   -0.3685    2.7322   -0.2943 H   0  0  0  0  0  0  0  0  0  0  0  0
   -1.8035    0.7033   -0.1055 H   0  0  0  0  0  0  0  0  0  0  0  0
    0.1282   -2.2870   -1.0194 H   0  0  0  0  0  0  0  0  0  0  0  0
    1.1537   -1.1679   -1.9782 H   0  0  0  0  0  0  0  0  0  0  0  0
    1.5032    1.6058    1.0536 H   0  0  0  0  0  0  0  0  0  0  0  0
    0.1135    1.6370    2.1611 H   0  0  0  0  0  0  0  0  0  0  0  0
    1.4088    0.4522    2.3910 H   0  0  0  0  0  0  0  0  0  0  0  0
   -0.1261   -1.5690    2.2493 H   0  0  0  0  0  0  0  0  0  0  0  0
   -1.4753   -0.4161    2.2220 H   0  0  0  0  0  0  0  0  0  0  0  0
   -1.3440   -1.6491    0.9590 H   0  0  0  0  0  0  0  0  0  0  0  0
  1  2  1  0  0  0  0
  1 11  1  0  0  0  0
  2 12  1  1  0  0  0
  2  6  1  0  0  0  0
  3  4  1  0  0  0  0
  3  2  1  0  0  0  0
  4 13  1  0  0  0  0
  4  5  1  0  0  0  0
  5  6  1  0  0  0  0
  6  8  1  0  0  0  0
  6  7  1  0  0  0  0
  7 16  1  0  0  0  0
  7 17  1  0  0  0  0
  8 19  1  0  0  0  0
  8 18  1  0  0  0  0
  9  1  1  0  0  0  0
 10  1  1  0  0  0  0
 14  4  1  0  0  0  0
 15  7  1  0  0  0  0
 20  8  1  0  0  0  0
M  END
