16
title
C -0.5759103 1.7403303 0.15456058
C -0.54792815 0.21358982 0.099200666
O -1.8350548 -0.34183973 0.26251414
C 0.2514724 -0.3642153 -1.1133013
O 0.4168769 0.5463242 -2.1689951
C 1.4817535 -0.64217144 -0.18207832
C 0.52781355 -0.4317618 0.99494433
O 0.49236083 -0.79317933 2.1378975
H 0.41516936 2.1766226 0.004338802
H -1.2353474 2.1148381 -0.63181883
H -0.95960015 2.0630593 1.1268771
H -1.9456675 -0.5209004 1.2047243
H -0.22259732 -1.2980525 -1.4379858
H 0.8839533 0.10391634 -2.8841488
H 1.990024 -1.6067157 -0.24112503
H 2.218136 0.16524486 -0.25776038
