title
 OpenBabel02282109583D

 16 16  0  0  1  0  0  0  0  0999 V2000
   -0.5759    1.7403    0.1546 C   0  0  0  0  0  0  0  0  0  0  0  0
   -0.5479    0.2136    0.0992 C   0  0  1  0  0  0  0  0  0  0  0  0
   -1.8351   -0.3418    0.2625 O   0  0  0  0  0  0  0  0  0  0  0  0
    0.2515   -0.3642   -1.1133 C   0  0  1  0  0  0  0  0  0  0  0  0
    0.4169    0.5463   -2.1690 O   0  0  0  0  0  0  0  0  0  0  0  0
    1.4818   -0.6422   -0.1821 C   0  0  0  0  0  0  0  0  0  0  0  0
    0.5278   -0.4318    0.9949 C   0  0  0  0  0  0  0  0  0  0  0  0
    0.4924   -0.7932    2.1379 O   0  0  0  0  0  0  0  0  0  0  0  0
    0.4152    2.1766    0.0043 H   0  0  0  0  0  0  0  0  0  0  0  0
   -1.2353    2.1148   -0.6318 H   0  0  0  0  0  0  0  0  0  0  0  0
   -0.9596    2.0631    1.1269 H   0  0  0  0  0  0  0  0  0  0  0  0
   -1.9457   -0.5209    1.2047 H   0  0  0  0  0  0  0  0  0  0  0  0
   -0.2226   -1.2981   -1.4380 H   0  0  0  0  0  0  0  0  0  0  0  0
    0.8840    0.1039   -2.8841 H   0  0  0  0  0  0  0  0  0  0  0  0
    1.9900   -1.6067   -0.2411 H   0  0  0  0  0  0  0  0  0  0  0  0
    2.2181    0.1652   -0.2578 H   0  0  0  0  0  0  0  0  0  0  0  0
  1 11  1  0  0  0  0
  2  4  1  6  0  0  0
  2  1  1  0  0  0  0
  2  3  1  0  0  0  0
  2  7  1  0  0  0  0
  3 12  1  0  0  0  0
  4 13  1  6  0  0  0
  4  6  1  0  0  0  0
  5  4  1  0  0  0  0
  6  7  1  0  0  0  0
  7  8  2  0  0  0  0
  9  1  1  0  0  0  0
 10  1  1  0  0  0  0
 14  5  1  0  0  0  0
 15  6  1  0  0  0  0
 16  6  1  0  0  0  0
M  END
