18
title
C -1.5857612 1.7277077 -0.81175625
C -0.8220083 0.4127815 -0.7837379
C 0.57823026 0.33617166 -1.4805853
C 0.9965913 -0.5690197 -0.32282946
O 1.7394049 -1.5044752 -0.20256013
C -0.17321722 -0.10441904 0.56002676
C 0.19902505 0.98891485 1.5615807
O -0.8518348 -1.149781 1.2185819
H -0.97030514 2.5638912 -0.4654
H -1.9158679 1.9603783 -1.8295711
H -2.4769385 1.6795353 -0.1774162
H -1.4531626 -0.3995276 -1.1565018
H 0.6507704 -0.09016119 -2.4828856
H 1.1028104 1.2978036 -1.4631857
H 0.73215187 1.8222384 1.0941329
H -0.707652 1.3786395 2.0335653
H 0.8370348 0.5647755 2.3418179
H -0.26875454 -1.919353 1.1990321
