title
 OpenBabel02282109583D

 18 18  0  0  1  0  0  0  0  0999 V2000
   -1.5858    1.7277   -0.8118 C   0  0  0  0  0  0  0  0  0  0  0  0
   -0.8220    0.4128   -0.7837 C   0  0  1  0  0  0  0  0  0  0  0  0
    0.5782    0.3362   -1.4806 C   0  0  0  0  0  0  0  0  0  0  0  0
    0.9966   -0.5690   -0.3228 C   0  0  0  0  0  0  0  0  0  0  0  0
    1.7394   -1.5045   -0.2026 O   0  0  0  0  0  0  0  0  0  0  0  0
   -0.1732   -0.1044    0.5600 C   0  0  1  0  0  0  0  0  0  0  0  0
    0.1990    0.9889    1.5616 C   0  0  0  0  0  0  0  0  0  0  0  0
   -0.8518   -1.1498    1.2186 O   0  0  0  0  0  0  0  0  0  0  0  0
   -0.9703    2.5639   -0.4654 H   0  0  0  0  0  0  0  0  0  0  0  0
   -1.9159    1.9604   -1.8296 H   0  0  0  0  0  0  0  0  0  0  0  0
   -2.4769    1.6795   -0.1774 H   0  0  0  0  0  0  0  0  0  0  0  0
   -1.4532   -0.3995   -1.1565 H   0  0  0  0  0  0  0  0  0  0  0  0
    0.6508   -0.0902   -2.4829 H   0  0  0  0  0  0  0  0  0  0  0  0
    1.1028    1.2978   -1.4632 H   0  0  0  0  0  0  0  0  0  0  0  0
    0.7322    1.8222    1.0941 H   0  0  0  0  0  0  0  0  0  0  0  0
   -0.7077    1.3786    2.0336 H   0  0  0  0  0  0  0  0  0  0  0  0
    0.8370    0.5648    2.3418 H   0  0  0  0  0  0  0  0  0  0  0  0
   -0.2688   -1.9194    1.1990 H   0  0  0  0  0  0  0  0  0  0  0  0
  1  2  1  0  0  0  0
  1  9  1  0  0  0  0
  1 11  1  0  0  0  0
  2  6  1  1  0  0  0
  3 14  1  0  0  0  0
  3  2  1  0  0  0  0
  3  4  1  0  0  0  0
  4  5  2  0  0  0  0
  4  6  1  0  0  0  0
  6  8  1  1  0  0  0
  6  7  1  0  0  0  0
  7 16  1  0  0  0  0
  7 17  1  0  0  0  0
 10  1  1  0  0  0  0
 12  2  1  0  0  0  0
 13  3  1  0  0  0  0
 15  7  1  0  0  0  0
 18  8  1  0  0  0  0
M  END
