19
title
C -1.0556943 2.04785 -0.7431885
C -0.90378046 0.53723377 -0.64785975
N 0.19110647 -0.03958615 -1.4424769
C 0.8160948 -0.676993 -0.40084606
O 1.7773626 -1.3981766 -0.33681732
C -0.21562001 -0.1151227 0.6165292
C 0.3925691 0.83219934 1.6478127
C -1.0418423 -1.2162795 1.2807025
H -0.10747536 2.561422 -0.5662179
H -1.4128844 2.3347645 -1.7382796
H -1.7893795 2.408128 -0.0144929625
H -1.8673517 0.057712622 -0.8641114
H 0.33186045 -0.10840597 -2.4403598
H 1.0139356 1.6044474 1.1868893
H -0.38653937 1.3262236 2.2390664
H 1.0288297 0.26635528 2.3351915
H -0.4099138 -1.8159864 1.9430047
H -1.854156 -0.78961086 1.8797783
H -1.4829187 -1.8909233 0.5399562
