title
 OpenBabel02282109583D

 17 17  0  0  1  0  0  0  0  0999 V2000
   -1.3864    1.7931   -0.7434 C   0  0  0  0  0  0  0  0  0  0  0  0
   -0.8966    0.3659   -0.6945 C   0  0  1  0  0  0  0  0  0  0  0  0
    0.3756    0.1912   -1.4276 O   0  0  0  0  0  0  0  0  0  0  0  0
    0.9794   -0.3802   -0.3376 C   0  0  0  0  0  0  0  0  0  0  0  0
    2.1143   -0.8911   -0.1791 N   0  0  0  0  0  0  0  0  0  0  0  0
   -0.2258   -0.2231    0.5805 C   0  0  1  0  0  0  0  0  0  0  0  0
   -0.0297    0.6711    1.7953 C   0  0  0  0  0  0  0  0  0  0  0  0
   -0.8294   -1.4550    0.9293 O   0  0  0  0  0  0  0  0  0  0  0  0
   -0.6322    2.4923   -0.3738 H   0  0  0  0  0  0  0  0  0  0  0  0
   -1.6324    2.0697   -1.7729 H   0  0  0  0  0  0  0  0  0  0  0  0
   -2.2921    1.9008   -0.1379 H   0  0  0  0  0  0  0  0  0  0  0  0
   -1.6356   -0.3341   -1.0927 H   0  0  0  0  0  0  0  0  0  0  0  0
    2.6649   -0.8733   -1.0393 H   0  0  0  0  0  0  0  0  0  0  0  0
    0.4011    1.6399    1.5291 H   0  0  0  0  0  0  0  0  0  0  0  0
   -0.9855    0.8314    2.3025 H   0  0  0  0  0  0  0  0  0  0  0  0
    0.6578    0.1850    2.4945 H   0  0  0  0  0  0  0  0  0  0  0  0
   -0.1470   -2.0023    1.3358 H   0  0  0  0  0  0  0  0  0  0  0  0
  1  2  1  0  0  0  0
  1  9  1  0  0  0  0
  1 11  1  0  0  0  0
  2  6  1  1  0  0  0
  3  2  1  0  0  0  0
  3  4  1  0  0  0  0
  4  5  2  0  0  0  0
  4  6  1  0  0  0  0
  6  8  1  1  0  0  0
  6  7  1  0  0  0  0
  7 15  1  0  0  0  0
  7 16  1  0  0  0  0
  8 17  1  0  0  0  0
 10  1  1  0  0  0  0
 12  2  1  0  0  0  0
 13  5  1  0  0  0  0
 14  7  1  0  0  0  0
M  END
