18
title
C -1.3360397 1.8261311 -0.7106948
C -0.91407496 0.37428975 -0.68244547
O 0.3440226 0.15796398 -1.4205527
C 0.95637107 -0.38910154 -0.32484543
O 2.070039 -0.80088884 -0.2421213
C -0.26845226 -0.25373426 0.5912997
C -0.04347189 0.64840573 1.8042784
C -0.854734 -1.6075482 0.9998086
H -0.5469081 2.4836552 -0.33836418
H -1.5734183 2.1271718 -1.7351992
H -2.2315793 1.9730896 -0.0980547
H -1.6885176 -0.26390365 -1.1195823
H 0.4117411 1.6049399 1.536407
H -0.9895404 0.8499811 2.3178222
H 0.62630224 0.15172322 2.512388
H -0.17378391 -2.1263871 1.680871
H -1.812638 -1.472486 1.5137305
H -1.0203539 -2.2541108 0.1326216
