title
 OpenBabel02282109583D

 17 17  0  0  1  0  0  0  0  0999 V2000
   -1.3220    1.8503   -0.7415 C   0  0  0  0  0  0  0  0  0  0  0  0
   -0.8965    0.4016   -0.6956 C   0  0  1  0  0  0  0  0  0  0  0  0
    0.3831    0.1867   -1.4076 O   0  0  0  0  0  0  0  0  0  0  0  0
    0.9468   -0.4180   -0.3262 C   0  0  0  0  0  0  0  0  0  0  0  0
    2.0279   -0.9078   -0.2292 O   0  0  0  0  0  0  0  0  0  0  0  0
   -0.2761   -0.2342    0.5881 C   0  0  1  0  0  0  0  0  0  0  0  0
   -0.0313    0.6815    1.7873 C   0  0  0  0  0  0  0  0  0  0  0  0
   -0.8555   -1.5321    0.9232 N   0  0  0  0  0  0  0  0  0  0  0  0
   -0.5459    2.5149   -0.3542 H   0  0  0  0  0  0  0  0  0  0  0  0
   -1.5372    2.1448   -1.7728 H   0  0  0  0  0  0  0  0  0  0  0  0
   -2.2333    1.9960   -0.1520 H   0  0  0  0  0  0  0  0  0  0  0  0
   -1.6498   -0.2603   -1.1284 H   0  0  0  0  0  0  0  0  0  0  0  0
    0.4326    1.6320    1.5094 H   0  0  0  0  0  0  0  0  0  0  0  0
   -0.9756    0.9010    2.2987 H   0  0  0  0  0  0  0  0  0  0  0  0
    0.6341    0.1803    2.4964 H   0  0  0  0  0  0  0  0  0  0  0  0
   -0.1291   -2.1302    1.3084 H   0  0  0  0  0  0  0  0  0  0  0  0
   -1.5581   -1.4261    1.6503 H   0  0  0  0  0  0  0  0  0  0  0  0
  1  2  1  0  0  0  0
  1  9  1  0  0  0  0
  1 11  1  0  0  0  0
  2  6  1  1  0  0  0
  3  2  1  0  0  0  0
  3  4  1  0  0  0  0
  4  5  2  0  0  0  0
  4  6  1  0  0  0  0
  6  8  1  1  0  0  0
  6  7  1  0  0  0  0
  7 14  1  0  0  0  0
  7 15  1  0  0  0  0
  8 16  1  0  0  0  0
  8 17  1  0  0  0  0
 10  1  1  0  0  0  0
 12  2  1  0  0  0  0
 13  7  1  0  0  0  0
M  END
