17
title
C -1.322036 1.8503447 -0.7414546
C -0.89647216 0.40161556 -0.69555265
O 0.38307047 0.18668716 -1.4075738
C 0.94675136 -0.41800404 -0.32623
O 2.027874 -0.9077839 -0.2291868
C -0.27608395 -0.2341849 0.5880743
C -0.03130411 0.68150884 1.7873089
N -0.8554784 -1.532136 0.9232068
H -0.54590356 2.5149376 -0.35424665
H -1.5372031 2.14481 -1.7727549
H -2.2333288 1.9960452 -0.15198696
H -1.6498339 -0.26026154 -1.1284454
H 0.4325732 1.6320161 1.509445
H -0.9756489 0.9010147 2.2986658
H 0.6341444 0.18028274 2.49645
H -0.12907444 -2.130181 1.3083843
H -1.5581295 -1.4260819 1.6503317
