title
 OpenBabel02282109583D

 16 16  0  0  1  0  0  0  0  0999 V2000
   -1.3433    1.8259   -0.7415 C   0  0  0  0  0  0  0  0  0  0  0  0
   -0.8961    0.3848   -0.6853 C   0  0  1  0  0  0  0  0  0  0  0  0
    0.3685    0.1689   -1.4216 O   0  0  0  0  0  0  0  0  0  0  0  0
    0.9687   -0.4108   -0.3410 C   0  0  0  0  0  0  0  0  0  0  0  0
    2.0537   -0.8951   -0.2680 O   0  0  0  0  0  0  0  0  0  0  0  0
   -0.2468   -0.2125    0.5913 C   0  0  1  0  0  0  0  0  0  0  0  0
   -0.0092    0.6825    1.7970 C   0  0  0  0  0  0  0  0  0  0  0  0
   -0.8871   -1.4223    0.9419 O   0  0  0  0  0  0  0  0  0  0  0  0
   -0.5673    2.5051   -0.3799 H   0  0  0  0  0  0  0  0  0  0  0  0
   -1.5847    2.1030   -1.7716 H   0  0  0  0  0  0  0  0  0  0  0  0
   -2.2430    1.9645   -0.1334 H   0  0  0  0  0  0  0  0  0  0  0  0
   -1.6542   -0.2953   -1.0809 H   0  0  0  0  0  0  0  0  0  0  0  0
    0.4583    1.6313    1.5208 H   0  0  0  0  0  0  0  0  0  0  0  0
   -0.9555    0.8857    2.3067 H   0  0  0  0  0  0  0  0  0  0  0  0
    0.6624    0.1785    2.5000 H   0  0  0  0  0  0  0  0  0  0  0  0
   -0.2890   -1.9196    1.5122 H   0  0  0  0  0  0  0  0  0  0  0  0
  1  2  1  0  0  0  0
  1  9  1  0  0  0  0
  1 11  1  0  0  0  0
  2  6  1  1  0  0  0
  3  2  1  0  0  0  0
  3  4  1  0  0  0  0
  4  5  2  0  0  0  0
  4  6  1  0  0  0  0
  6  8  1  1  0  0  0
  6  7  1  0  0  0  0
  7 14  1  0  0  0  0
  7 15  1  0  0  0  0
  8 16  1  0  0  0  0
 10  1  1  0  0  0  0
 12  2  1  0  0  0  0
 13  7  1  0  0  0  0
M  END
