19
title
C -0.30937907 2.074263 -1.070638
N -0.1995513 0.6388957 -0.93530977
C -1.4199029 -0.1398749 -0.6597178
C -0.57781357 -1.0017387 0.2893854
O -0.7318716 -2.0361247 0.8664976
C 0.5758774 0.019949706 0.19039187
C 1.9304938 -0.5365296 -0.237035
C 0.6823228 0.85242105 1.4770896
H 0.6862908 2.517914 -1.1708083
H -0.8664405 2.3106644 -1.9835305
H -0.82357705 2.57087 -0.22757837
H -2.210158 0.40607405 -0.11429826
H -1.873866 -0.63551086 -1.5251797
H 1.8356612 -1.1149272 -1.1590418
H 2.6416404 0.2777466 -0.41597787
H 2.342403 -1.1831086 0.5442063
H 1.0786891 0.23197967 2.2859404
H 1.3615334 1.6999066 1.336201
H -0.28780437 1.2429 1.7993028
