20
title
C -0.68241394 1.5437528 -0.10612674
C -0.6233138 0.013282234 -0.11266475
C -2.002939 -0.5861334 -0.36910203
C 0.53896976 -0.5286638 -1.001182
O 0.9112748 0.32464963 -2.0589564
C 1.4471297 -0.6145798 0.25499204
C 0.15600386 -0.552489 1.114787
O 0.13062152 0.27607867 2.2542906
H 0.2940484 1.9965814 0.07567043
H -1.0443583 1.9083906 -1.0713056
H -1.3610454 1.8886852 0.6787398
H -2.39895 -0.25734466 -1.336524
H -1.9698503 -1.6814673 -0.37547186
H -2.7141383 -0.2769954 0.4051472
H 0.2950025 -1.5327318 -1.3789436
H 1.6597188 -0.07105438 -2.5163167
H 2.1045685 -1.4812866 0.36422282
H 2.0264506 0.30534616 0.3701981
H -0.20091382 -1.5635862 1.3610985
H 0.6728569 -0.13246062 2.9362032
