title
 OpenBabel02282109583D

 18 18  0  0  1  0  0  0  0  0999 V2000
   -0.6720    1.5594   -0.1210 C   0  0  0  0  0  0  0  0  0  0  0  0
   -0.5919    0.0379   -0.1134 C   0  0  1  0  0  0  0  0  0  0  0  0
   -1.8668   -0.5522   -0.2824 O   0  0  0  0  0  0  0  0  0  0  0  0
    0.5526   -0.5358   -1.0021 C   0  0  1  0  0  0  0  0  0  0  0  0
    0.9468    0.3007   -2.0650 O   0  0  0  0  0  0  0  0  0  0  0  0
    1.4479   -0.6393    0.2630 C   0  0  0  0  0  0  0  0  0  0  0  0
    0.1491   -0.5468    1.1133 C   0  0  1  0  0  0  0  0  0  0  0  0
    0.1315    0.2758    2.2547 O   0  0  0  0  0  0  0  0  0  0  0  0
    0.3011    2.0222    0.0538 H   0  0  0  0  0  0  0  0  0  0  0  0
   -1.0301    1.9087   -1.0953 H   0  0  0  0  0  0  0  0  0  0  0  0
   -1.3587    1.8914    0.6607 H   0  0  0  0  0  0  0  0  0  0  0  0
   -2.3235   -0.0793   -0.9864 H   0  0  0  0  0  0  0  0  0  0  0  0
    0.2549   -1.5304   -1.3608 H   0  0  0  0  0  0  0  0  0  0  0  0
    1.6767   -0.1215   -2.5286 H   0  0  0  0  0  0  0  0  0  0  0  0
    2.0794   -1.5229    0.3795 H   0  0  0  0  0  0  0  0  0  0  0  0
    2.0496    0.2653    0.3844 H   0  0  0  0  0  0  0  0  0  0  0  0
   -0.2587   -1.5433    1.3277 H   0  0  0  0  0  0  0  0  0  0  0  0
    0.5715   -0.1911    2.9714 H   0  0  0  0  0  0  0  0  0  0  0  0
  1  2  1  0  0  0  0
  1  9  1  0  0  0  0
  1 11  1  0  0  0  0
  2  3  1  6  0  0  0
  4  2  1  1  0  0  0
  4  6  1  0  0  0  0
  5  4  1  0  0  0  0
  6 15  1  0  0  0  0
  6 16  1  0  0  0  0
  6  7  1  0  0  0  0
  7  2  1  6  0  0  0
  7 17  1  0  0  0  0
  7  8  1  0  0  0  0
  8 18  1  0  0  0  0
 10  1  1  0  0  0  0
 12  3  1  0  0  0  0
 13  4  1  0  0  0  0
 14  5  1  0  0  0  0
M  END
