18
title
C -0.6719567 1.5593958 -0.12104112
C -0.5919334 0.037937865 -0.11339362
O -1.8668171 -0.5521542 -0.28238526
C 0.55255896 -0.53584623 -1.0020686
O 0.9468344 0.30069306 -2.0650477
C 1.4479316 -0.63930464 0.2629582
C 0.14905186 -0.54680073 1.1132772
O 0.1314723 0.27577248 2.2547321
H 0.3010509 2.022172 0.0538173
H -1.0301071 1.9086742 -1.0953356
H -1.358655 1.891359 0.6607105
H -2.3235455 -0.079309426 -0.9863952
H 0.25494194 -1.5304497 -1.3608259
H 1.6766931 -0.12148339 -2.5285902
H 2.079352 -1.5228809 0.37948057
H 2.0496068 0.26531845 0.3844412
H -0.2586887 -1.543261 1.3276843
H 0.5714651 -0.19110106 2.9713626
