title
 OpenBabel02282109583D

 22 22  0  0  1  0  0  0  0  0999 V2000
   -1.9109    1.4129   -0.7414 C   0  0  0  0  0  0  0  0  0  0  0  0
   -0.9726    0.2155   -0.7961 C   0  0  1  0  0  0  0  0  0  0  0  0
    0.4145    0.3676   -1.4790 C   0  0  0  0  0  0  0  0  0  0  0  0
    0.9854   -0.6053   -0.4208 C   0  0  1  0  0  0  0  0  0  0  0  0
    2.2956   -0.4445    0.0648 O   0  0  0  0  0  0  0  0  0  0  0  0
   -0.2494   -0.3056    0.4997 C   0  0  0  0  0  0  0  0  0  0  0  0
    0.0610    0.7960    1.5172 C   0  0  0  0  0  0  0  0  0  0  0  0
   -0.8808   -1.5094    1.1918 C   0  0  0  0  0  0  0  0  0  0  0  0
   -1.4230    2.2952   -0.3149 H   0  0  0  0  0  0  0  0  0  0  0  0
   -2.2533    1.6816   -1.7470 H   0  0  0  0  0  0  0  0  0  0  0  0
   -2.8006    1.1989   -0.1383 H   0  0  0  0  0  0  0  0  0  0  0  0
   -1.5027   -0.6298   -1.2507 H   0  0  0  0  0  0  0  0  0  0  0  0
    0.5113    0.0972   -2.5333 H   0  0  0  0  0  0  0  0  0  0  0  0
    0.8166    1.3790   -1.3442 H   0  0  0  0  0  0  0  0  0  0  0  0
    0.9374   -1.6389   -0.7789 H   0  0  0  0  0  0  0  0  0  0  0  0
    2.4094    0.4770    0.3188 H   0  0  0  0  0  0  0  0  0  0  0  0
    0.4792    1.6972    1.0548 H   0  0  0  0  0  0  0  0  0  0  0  0
   -0.8424    1.1019    2.0549 H   0  0  0  0  0  0  0  0  0  0  0  0
    0.7837    0.4354    2.2568 H   0  0  0  0  0  0  0  0  0  0  0  0
   -0.2178   -1.9126    1.9663 H   0  0  0  0  0  0  0  0  0  0  0  0
   -1.8286   -1.2426    1.6750 H   0  0  0  0  0  0  0  0  0  0  0  0
   -1.0865   -2.3138    0.4771 H   0  0  0  0  0  0  0  0  0  0  0  0
  1  9  1  0  0  0  0
  1 11  1  0  0  0  0
  2 12  1  6  0  0  0
  2  1  1  0  0  0  0
  2  6  1  0  0  0  0
  3 14  1  0  0  0  0
  3  2  1  0  0  0  0
  3  4  1  0  0  0  0
  4 15  1  6  0  0  0
  4  5  1  0  0  0  0
  4  6  1  0  0  0  0
  5 16  1  0  0  0  0
  6  8  1  0  0  0  0
  6  7  1  0  0  0  0
  7 18  1  0  0  0  0
  7 19  1  0  0  0  0
  8 21  1  0  0  0  0
  8 20  1  0  0  0  0
 10  1  1  0  0  0  0
 13  3  1  0  0  0  0
 17  7  1  0  0  0  0
 22  8  1  0  0  0  0
M  END
