title
 OpenBabel02282109583D

 20 20  0  0  1  0  0  0  0  0999 V2000
   -1.8914    1.4182   -0.7723 C   0  0  0  0  0  0  0  0  0  0  0  0
   -0.9697    0.2088   -0.7913 C   0  0  1  0  0  0  0  0  0  0  0  0
    0.4055    0.2943   -1.5124 C   0  0  0  0  0  0  0  0  0  0  0  0
    0.9796   -0.6380   -0.4172 C   0  0  1  0  0  0  0  0  0  0  0  0
    2.3027   -0.4917    0.0383 O   0  0  0  0  0  0  0  0  0  0  0  0
   -0.2286   -0.2525    0.4987 C   0  0  1  0  0  0  0  0  0  0  0  0
    0.1057    0.8503    1.4991 C   0  0  0  0  0  0  0  0  0  0  0  0
   -0.9081   -1.3199    1.1352 O   0  0  0  0  0  0  0  0  0  0  0  0
   -1.3786    2.3173   -0.4146 H   0  0  0  0  0  0  0  0  0  0  0  0
   -2.2679    1.6337   -1.7782 H   0  0  0  0  0  0  0  0  0  0  0  0
   -2.7579    1.2449   -0.1251 H   0  0  0  0  0  0  0  0  0  0  0  0
   -1.5162   -0.6648   -1.1613 H   0  0  0  0  0  0  0  0  0  0  0  0
    0.4683   -0.0353   -2.5512 H   0  0  0  0  0  0  0  0  0  0  0  0
    0.8333    1.3020   -1.4410 H   0  0  0  0  0  0  0  0  0  0  0  0
    0.8727   -1.6886   -0.7022 H   0  0  0  0  0  0  0  0  0  0  0  0
    2.4667    0.4449    0.1876 H   0  0  0  0  0  0  0  0  0  0  0  0
    0.5545    1.7281    1.0218 H   0  0  0  0  0  0  0  0  0  0  0  0
   -0.7979    1.1770    2.0206 H   0  0  0  0  0  0  0  0  0  0  0  0
    0.8220    0.4795    2.2417 H   0  0  0  0  0  0  0  0  0  0  0  0
   -0.3843   -1.5991    1.8945 H   0  0  0  0  0  0  0  0  0  0  0  0
  1  9  1  0  0  0  0
  1 11  1  0  0  0  0
  2  1  1  0  0  0  0
  2  6  1  1  0  0  0
  3 14  1  0  0  0  0
  3  2  1  0  0  0  0
  3  4  1  0  0  0  0
  4  5  1  0  0  0  0
  4  6  1  1  0  0  0
  5 16  1  0  0  0  0
  6  8  1  1  0  0  0
  6  7  1  0  0  0  0
  7 18  1  0  0  0  0
  7 19  1  0  0  0  0
  8 20  1  0  0  0  0
 10  1  1  0  0  0  0
 12  2  1  0  0  0  0
 13  3  1  0  0  0  0
 15  4  1  0  0  0  0
 17  7  1  0  0  0  0
M  END
