title
 OpenBabel02282109583D

 22 22  0  0  1  0  0  0  0  0999 V2000
   -1.8114    0.9911   -1.1666 C   0  0  0  0  0  0  0  0  0  0  0  0
   -0.8097   -0.1067   -0.8733 C   0  0  1  0  0  0  0  0  0  0  0  0
    0.5138    0.1957   -1.3694 O   0  0  0  0  0  0  0  0  0  0  0  0
    1.1242   -0.3633   -0.1844 C   0  0  1  0  0  0  0  0  0  0  0  0
    2.3100    0.4445    0.3016 C   0  0  0  0  0  0  0  0  0  0  0  0
   -0.2482   -0.3658    0.5606 C   0  0  0  0  0  0  0  0  0  0  0  0
   -0.4430    0.7924    1.5385 C   0  0  0  0  0  0  0  0  0  0  0  0
   -0.6524   -1.6901    1.2021 C   0  0  0  0  0  0  0  0  0  0  0  0
   -1.4997    1.9501   -0.7457 H   0  0  0  0  0  0  0  0  0  0  0  0
   -1.9136    1.1146   -2.2497 H   0  0  0  0  0  0  0  0  0  0  0  0
   -2.7965    0.7324   -0.7632 H   0  0  0  0  0  0  0  0  0  0  0  0
   -1.1695   -1.0496   -1.3174 H   0  0  0  0  0  0  0  0  0  0  0  0
    1.4510   -1.3972   -0.3839 H   0  0  0  0  0  0  0  0  0  0  0  0
    2.0373    1.4809    0.5143 H   0  0  0  0  0  0  0  0  0  0  0  0
    2.7352   -0.0013    1.2074 H   0  0  0  0  0  0  0  0  0  0  0  0
    3.0892    0.4510   -0.4674 H   0  0  0  0  0  0  0  0  0  0  0  0
   -0.1610    1.7551    1.1054 H   0  0  0  0  0  0  0  0  0  0  0  0
   -1.4903    0.8623    1.8519 H   0  0  0  0  0  0  0  0  0  0  0  0
    0.1610    0.6432    2.4401 H   0  0  0  0  0  0  0  0  0  0  0  0
   -0.0536   -1.8949    2.0973 H   0  0  0  0  0  0  0  0  0  0  0  0
   -1.7047   -1.6758    1.5091 H   0  0  0  0  0  0  0  0  0  0  0  0
   -0.5170   -2.5279    0.5102 H   0  0  0  0  0  0  0  0  0  0  0  0
  1  2  1  0  0  0  0
  1 11  1  0  0  0  0
  1  9  1  0  0  0  0
  2 12  1  6  0  0  0
  2  6  1  0  0  0  0
  3  2  1  0  0  0  0
  3  4  1  0  0  0  0
  4 13  1  6  0  0  0
  4  5  1  0  0  0  0
  4  6  1  0  0  0  0
  5 14  1  0  0  0  0
  5 15  1  0  0  0  0
  6  8  1  0  0  0  0
  6  7  1  0  0  0  0
  7 18  1  0  0  0  0
  7 19  1  0  0  0  0
  8 21  1  0  0  0  0
  8 20  1  0  0  0  0
 10  1  1  0  0  0  0
 16  5  1  0  0  0  0
 17  7  1  0  0  0  0
 22  8  1  0  0  0  0
M  END
