title
 OpenBabel02282109583D

 20 20  0  0  1  0  0  0  0  0999 V2000
   -1.7960    0.9971   -1.2279 C   0  0  0  0  0  0  0  0  0  0  0  0
   -0.8106   -0.1018   -0.8905 C   0  0  1  0  0  0  0  0  0  0  0  0
    0.5228    0.1717   -1.3799 O   0  0  0  0  0  0  0  0  0  0  0  0
    1.1189   -0.3667   -0.1761 C   0  0  1  0  0  0  0  0  0  0  0  0
    2.3145    0.4295    0.2999 C   0  0  0  0  0  0  0  0  0  0  0  0
   -0.2502   -0.3242    0.5502 C   0  0  1  0  0  0  0  0  0  0  0  0
   -0.4620    0.8136    1.5373 C   0  0  0  0  0  0  0  0  0  0  0  0
   -0.5481   -1.5750    1.1397 O   0  0  0  0  0  0  0  0  0  0  0  0
   -1.4698    1.9668   -0.8431 H   0  0  0  0  0  0  0  0  0  0  0  0
   -1.8971    1.0828   -2.3146 H   0  0  0  0  0  0  0  0  0  0  0  0
   -2.7855    0.7685   -0.8168 H   0  0  0  0  0  0  0  0  0  0  0  0
   -1.1712   -1.0670   -1.2780 H   0  0  0  0  0  0  0  0  0  0  0  0
    1.4017   -1.4194   -0.3250 H   0  0  0  0  0  0  0  0  0  0  0  0
    2.0617    1.4795    0.4691 H   0  0  0  0  0  0  0  0  0  0  0  0
    2.7106    0.0057    1.2287 H   0  0  0  0  0  0  0  0  0  0  0  0
    3.1075    0.3905   -0.4536 H   0  0  0  0  0  0  0  0  0  0  0  0
   -0.1835    1.7810    1.1130 H   0  0  0  0  0  0  0  0  0  0  0  0
   -1.5168    0.8767    1.8329 H   0  0  0  0  0  0  0  0  0  0  0  0
    0.1352    0.6470    2.4389 H   0  0  0  0  0  0  0  0  0  0  0  0
   -1.3569   -1.4852    1.6546 H   0  0  0  0  0  0  0  0  0  0  0  0
  1  2  1  0  0  0  0
  1  9  1  0  0  0  0
  1 11  1  0  0  0  0
  2  6  1  1  0  0  0
  3  2  1  0  0  0  0
  3  4  1  0  0  0  0
  4  5  1  0  0  0  0
  4  6  1  1  0  0  0
  5 14  1  0  0  0  0
  5 15  1  0  0  0  0
  6  8  1  1  0  0  0
  6  7  1  0  0  0  0
  7 18  1  0  0  0  0
  7 19  1  0  0  0  0
  8 20  1  0  0  0  0
 10  1  1  0  0  0  0
 12  2  1  0  0  0  0
 13  4  1  0  0  0  0
 16  5  1  0  0  0  0
 17  7  1  0  0  0  0
M  END
