title
 OpenBabel02282109583D

 14 13  0  0  0  0  0  0  0  0999 V2000
    0.0156   -1.1519   -0.0075 O   0  0  0  0  0  0  0  0  0  0  0  0
   -0.0006    0.0465    0.0003 C   0  0  0  0  0  0  0  0  0  0  0  0
    1.2644    0.9126   -0.1495 C   0  0  0  0  0  0  0  0  0  0  0  0
    2.5123    0.1789   -0.0424 C   0  0  0  0  0  0  0  0  0  0  0  0
    3.5474   -0.4219    0.0485 C   0  0  0  0  0  0  0  0  0  0  0  0
   -1.2886    0.8760    0.1612 C   0  0  0  0  0  0  0  0  0  0  0  0
   -2.5162    0.1104    0.0443 C   0  0  0  0  0  0  0  0  0  0  0  0
   -3.5347   -0.5170   -0.0545 C   0  0  0  0  0  0  0  0  0  0  0  0
    1.1926    1.4099   -1.1282 H   0  0  0  0  0  0  0  0  0  0  0  0
    1.2222    1.7252    0.5883 H   0  0  0  0  0  0  0  0  0  0  0  0
    4.4585   -0.9611    0.1307 H   0  0  0  0  0  0  0  0  0  0  0  0
   -1.2301    1.3624    1.1462 H   0  0  0  0  0  0  0  0  0  0  0  0
   -1.2685    1.6991   -0.5660 H   0  0  0  0  0  0  0  0  0  0  0  0
   -4.4309   -1.0795   -0.1439 H   0  0  0  0  0  0  0  0  0  0  0  0
  1  2  2  0  0  0  0
  2  6  1  0  0  0  0
  3  4  1  0  0  0  0
  3  2  1  0  0  0  0
  3 10  1  0  0  0  0
  4  5  3  0  0  0  0
  5 11  1  0  0  0  0
  6 12  1  0  0  0  0
  7  6  1  0  0  0  0
  8  7  3  0  0  0  0
  9  3  1  0  0  0  0
 13  6  1  0  0  0  0
 14  8  1  0  0  0  0
M  END
