13
title
O 0.0015391188 -1.1427119 -0.008741412
C 0.022905404 0.054402556 -0.007755424
C 1.3058546 0.89388543 0.09019512
C 2.53246 0.12589464 -0.018182326
C 3.5494359 -0.50441754 -0.10943846
C -1.2574683 0.9098945 -0.10861188
C -2.485247 0.13789317 0.026535116
N -3.4703763 -0.4533653 0.13707569
H 1.2651546 1.6811246 -0.6753906
H 1.2657611 1.4273452 1.0516205
H 4.445566 -1.0685911 -0.19123493
H -1.23281 1.7043227 0.6468345
H -1.250311 1.4186045 -1.0815036
