12
title
O 0.015393585 -1.1339451 -0.0063713905
C -0.00084256905 0.062066633 0.00034838758
C 1.270113 0.9265565 -0.072084285
C 2.5018091 0.15286084 0.00866221
N 3.490429 -0.4386532 0.07517558
C -1.2947848 0.8908703 0.08229468
C -2.505038 0.08498199 -0.0073255287
N -3.4772475 -0.53236485 -0.08063002
H 1.2505285 1.4899013 -1.0143163
H 1.2492577 1.6771297 0.72766703
H -1.290355 1.4439187 1.0307988
H -1.2944332 1.6506698 -0.70897114
