title
 OpenBabel02282109583D

 14 13  0  0  0  0  0  0  0  0999 V2000
    0.4630    0.6898   -1.7256 N   0  0  0  0  0  0  0  0  0  0  0  0
   -0.0493    0.1020   -0.7288 C   0  0  0  0  0  0  0  0  0  0  0  0
   -1.5092   -0.3498   -0.7955 C   0  0  0  0  0  0  0  0  0  0  0  0
   -2.2155   -0.3432    0.4797 C   0  0  0  0  0  0  0  0  0  0  0  0
   -2.7622   -0.3544    1.5508 C   0  0  0  0  0  0  0  0  0  0  0  0
    0.5949   -0.2504    0.4730 N   0  0  0  0  0  0  0  0  0  0  0  0
    1.9149   -0.0393    0.7840 C   0  0  0  0  0  0  0  0  0  0  0  0
    2.7449    0.4516    0.0526 O   0  0  0  0  0  0  0  0  0  0  0  0
    1.4509    0.8863   -1.5601 H   0  0  0  0  0  0  0  0  0  0  0  0
   -2.0024    0.2951   -1.5269 H   0  0  0  0  0  0  0  0  0  0  0  0
   -1.5279   -1.3657   -1.2133 H   0  0  0  0  0  0  0  0  0  0  0  0
   -3.2732   -0.3498    2.4823 H   0  0  0  0  0  0  0  0  0  0  0  0
    0.0036   -0.6239    1.2038 H   0  0  0  0  0  0  0  0  0  0  0  0
    2.1473   -0.3825    1.8102 H   0  0  0  0  0  0  0  0  0  0  0  0
  1  9  1  0  0  0  0
  1  2  2  0  0  0  0
  2  6  1  0  0  0  0
  3  2  1  0  0  0  0
  3  4  1  0  0  0  0
  4  5  3  0  0  0  0
  5 12  1  0  0  0  0
  6  7  1  0  0  0  0
  6 13  1  0  0  0  0
  7 14  1  0  0  0  0
  8  7  2  0  0  0  0
 10  3  1  0  0  0  0
 11  3  1  0  0  0  0
M  END
