title
 OpenBabel02282109583D

 13 12  0  0  0  0  0  0  0  0999 V2000
   -0.1254    1.4897   -0.1634 N   0  0  0  0  0  0  0  0  0  0  0  0
   -0.0821    0.2337   -0.1457 C   0  0  0  0  0  0  0  0  0  0  0  0
   -1.2661   -0.6661    0.1272 C   0  0  0  0  0  0  0  0  0  0  0  0
   -2.5326    0.0199    0.3188 C   0  0  0  0  0  0  0  0  0  0  0  0
   -3.5962    0.5501    0.4834 C   0  0  0  0  0  0  0  0  0  0  0  0
    1.0336   -0.5629   -0.4069 O   0  0  0  0  0  0  0  0  0  0  0  0
    2.2475   -0.1946    0.1017 C   0  0  0  0  0  0  0  0  0  0  0  0
    3.2511   -0.7575   -0.1981 O   0  0  0  0  0  0  0  0  0  0  0  0
    0.7634    1.9198   -0.4173 H   0  0  0  0  0  0  0  0  0  0  0  0
   -1.3310   -1.3774   -0.7072 H   0  0  0  0  0  0  0  0  0  0  0  0
   -1.0209   -1.2810    1.0039 H   0  0  0  0  0  0  0  0  0  0  0  0
   -4.5306    1.0343    0.6250 H   0  0  0  0  0  0  0  0  0  0  0  0
    2.1682    0.6397    0.8187 H   0  0  0  0  0  0  0  0  0  0  0  0
  1  2  2  0  0  0  0
  2  3  1  0  0  0  0
  3  4  1  0  0  0  0
  3 11  1  0  0  0  0
  4  5  3  0  0  0  0
  5 12  1  0  0  0  0
  6  2  1  0  0  0  0
  6  7  1  0  0  0  0
  7 13  1  0  0  0  0
  8  7  2  0  0  0  0
  9  1  1  0  0  0  0
 10  3  1  0  0  0  0
M  END
