12
title
N -0.14899981 1.4772476 -0.13123137
C -0.065509155 0.22426799 -0.13297617
C -1.2370858 -0.6958496 0.12873922
C -2.5052905 -0.005924887 0.33415842
N -3.5308177 0.49478477 0.5043562
O 1.0525241 -0.55299884 -0.4020396
C 2.2791252 -0.14950962 0.063568965
O 3.2798085 -0.6985286 -0.26292628
H 0.7195479 1.9496874 -0.3776686
H -1.3260155 -1.3896161 -0.71589184
H -1.010133 -1.3190771 1.0021774
H 2.204048 0.6915681 0.7721525
