title
 OpenBabel02282109583D

 12 11  0  0  0  0  0  0  0  0999 V2000
   -0.1490    1.4772   -0.1312 N   0  0  0  0  0  0  0  0  0  0  0  0
   -0.0655    0.2243   -0.1330 C   0  0  0  0  0  0  0  0  0  0  0  0
   -1.2371   -0.6958    0.1287 C   0  0  0  0  0  0  0  0  0  0  0  0
   -2.5053   -0.0059    0.3342 C   0  0  0  0  0  0  0  0  0  0  0  0
   -3.5308    0.4948    0.5044 N   0  0  0  0  0  0  0  0  0  0  0  0
    1.0525   -0.5530   -0.4020 O   0  0  0  0  0  0  0  0  0  0  0  0
    2.2791   -0.1495    0.0636 C   0  0  0  0  0  0  0  0  0  0  0  0
    3.2798   -0.6985   -0.2629 O   0  0  0  0  0  0  0  0  0  0  0  0
    0.7195    1.9497   -0.3777 H   0  0  0  0  0  0  0  0  0  0  0  0
   -1.3260   -1.3896   -0.7159 H   0  0  0  0  0  0  0  0  0  0  0  0
   -1.0101   -1.3191    1.0022 H   0  0  0  0  0  0  0  0  0  0  0  0
    2.2040    0.6916    0.7722 H   0  0  0  0  0  0  0  0  0  0  0  0
  2  1  2  0  0  0  0
  2  3  1  0  0  0  0
  3  4  1  0  0  0  0
  3 11  1  0  0  0  0
  4  5  3  0  0  0  0
  6  2  1  0  0  0  0
  6  7  1  0  0  0  0
  7 12  1  0  0  0  0
  8  7  2  0  0  0  0
  9  1  1  0  0  0  0
 10  3  1  0  0  0  0
M  END
