14
title
N 2.457593 1.165937 -1.1767449
C 1.975152 0.464621 -0.23507895
N 0.61107945 0.21746859 -0.183122
C 0.013526324 -0.5304362 0.80108595
O 0.61652803 -1.0456185 1.717272
C -1.5144745 -0.69050324 0.68324155
C -2.1553066 -0.03873009 -0.44789124
C -2.6569679 0.5106998 -1.3924464
H 3.4667692 1.2525344 -1.07028
H 2.5103915 -0.0028803232 0.59364843
H 0.038771752 0.61594874 -0.9168439
H -1.7061628 -1.769614 0.669764
H -1.9313554 -0.32606417 1.62918
H -3.1146815 0.9907917 -2.2223449
