13
title
N 0.6602724 3.331727 0.013106543
C 0.9188412 2.10219 0.002672776
O -0.14143822 1.225777 0.008355776
C 0.13337061 -0.119796894 -0.0034488079
O 1.232856 -0.589049 -0.017879538
C -1.1898834 -0.87181795 0.004393444
C -1.0485834 -2.3172157 -0.0010259912
C -0.95587224 -3.5134308 -0.005583085
H 1.5272986 3.8671677 0.007204056
H 1.8849642 1.5976944 -0.010824009
H -1.7549857 -0.5295023 0.8805896
H -1.767399 -0.5245036 -0.8617886
H -0.86303264 -4.5713162 -0.0104984
