14
title
O -1.3686678 -1.6415324 2.5126567
C -1.1434853 -1.5632365 1.3354031
C 0.24180382 -1.3006921 0.7549092
C 0.17016321 -0.24372299 -0.34810424
O -0.5747789 -0.37378272 -1.2848878
C 1.0800154 0.974225 -0.1455766
C 1.0062978 1.9716276 -1.1973195
C 0.9491176 2.7978988 -2.0659997
H -1.9363052 -1.6759416 0.5679419
H 0.935754 -1.0529349 1.5604751
H 0.56870884 -2.2331488 0.27547413
H 0.8240761 1.410077 0.8315427
H 2.1077476 0.60194224 -0.026045555
H 0.8937792 3.5262218 -2.8368552
