13
title
N -0.050979916 1.5217628 0.20485097
C 0.01867779 0.30643454 -0.12308807
C -1.1825141 -0.5933175 -0.16846119
C -2.4961524 0.15554157 -0.0014994163
O -3.3857162 -0.22843462 0.7090503
O 1.1618403 -0.380189 -0.516637
C 2.3422472 -0.14378376 0.13605133
O 3.3737648 -0.58450264 -0.2562863
H 0.83766395 2.0169847 0.14214973
H -1.1904957 -1.1067842 -1.1404512
H -1.1073438 -1.3734802 0.59602654
H -2.5853467 1.0768892 -0.6110076
H 2.204642 0.45585892 1.0512314
