title
 OpenBabel02282109583D

 13 12  0  0  0  0  0  0  0  0999 V2000
    0.3043    1.9280    0.0581 N   0  0  0  0  0  0  0  0  0  0  0  0
    0.3864    0.6658   -0.0211 C   0  0  0  0  0  0  0  0  0  0  0  0
   -0.6952   -0.1939    0.0934 N   0  0  0  0  0  0  0  0  0  0  0  0
   -2.0254    0.1407    0.3055 C   0  0  0  0  0  0  0  0  0  0  0  0
   -2.4925    1.2389    0.4315 O   0  0  0  0  0  0  0  0  0  0  0  0
    1.6142   -0.0315   -0.2386 N   0  0  0  0  0  0  0  0  0  0  0  0
    1.8598   -1.3745   -0.3475 C   0  0  0  0  0  0  0  0  0  0  0  0
    1.0375   -2.2657   -0.2736 O   0  0  0  0  0  0  0  0  0  0  0  0
    1.2119    2.3766   -0.0522 H   0  0  0  0  0  0  0  0  0  0  0  0
   -0.4680   -1.1819    0.0069 H   0  0  0  0  0  0  0  0  0  0  0  0
   -2.6303   -0.7874    0.3451 H   0  0  0  0  0  0  0  0  0  0  0  0
    2.4173    0.5734   -0.3258 H   0  0  0  0  0  0  0  0  0  0  0  0
    2.9324   -1.5740   -0.5176 H   0  0  0  0  0  0  0  0  0  0  0  0
  2  1  2  0  0  0  0
  2  3  1  0  0  0  0
  3  4  1  0  0  0  0
  4 11  1  0  0  0  0
  4  5  2  0  0  0  0
  6  2  1  0  0  0  0
  7  8  2  0  0  0  0
  7  6  1  0  0  0  0
  9  1  1  0  0  0  0
 10  3  1  0  0  0  0
 12  6  1  0  0  0  0
 13  7  1  0  0  0  0
M  END
