14
title
N 2.862656 0.7280951 -0.3377566
C 2.4788084 -0.40884507 0.06391224
N 1.1486636 -0.81916314 0.10642971
C 9.521429e-05 -0.009722893 -0.0004926292
O -0.011948261 1.1846001 0.05060577
N -1.1320556 -0.830039 -0.17702416
C -2.4701428 -0.4516873 -0.10067406
N -2.8763962 0.63882524 0.39636692
H 3.8778305 0.7880158 -0.28229895
H 3.1349447 -1.2205745 0.40503827
H 1.0029105 -1.7686626 0.4091658
H -0.96751875 -1.7470754 -0.55966544
H -3.1101422 -1.2443304 -0.5104345
H -3.8926206 0.6828452 0.3454203
