title
 OpenBabel02282109583D

 13 12  0  0  0  0  0  0  0  0999 V2000
    2.8573    0.8302   -0.2266 N   0  0  0  0  0  0  0  0  0  0  0  0
    2.5058   -0.3435    0.0856 C   0  0  0  0  0  0  0  0  0  0  0  0
    1.1851   -0.7947    0.0809 N   0  0  0  0  0  0  0  0  0  0  0  0
    0.0210   -0.0202   -0.0253 C   0  0  0  0  0  0  0  0  0  0  0  0
   -0.0342    1.1719    0.0303 O   0  0  0  0  0  0  0  0  0  0  0  0
   -1.1017   -0.8672   -0.2127 N   0  0  0  0  0  0  0  0  0  0  0  0
   -2.4389   -0.5068   -0.0845 C   0  0  0  0  0  0  0  0  0  0  0  0
   -2.8644    0.5342    0.3295 O   0  0  0  0  0  0  0  0  0  0  0  0
    3.8695    0.9186   -0.1550 H   0  0  0  0  0  0  0  0  0  0  0  0
    3.1801   -1.1588    0.3779 H   0  0  0  0  0  0  0  0  0  0  0  0
    1.0654   -1.7666    0.3167 H   0  0  0  0  0  0  0  0  0  0  0  0
   -0.9356   -1.7959   -0.5715 H   0  0  0  0  0  0  0  0  0  0  0  0
   -3.0865   -1.3470   -0.4104 H   0  0  0  0  0  0  0  0  0  0  0  0
  1  9  1  0  0  0  0
  1  2  2  0  0  0  0
  2 10  1  0  0  0  0
  3  2  1  0  0  0  0
  3 11  1  0  0  0  0
  4  5  2  0  0  0  0
  4  3  1  0  0  0  0
  6  7  1  0  0  0  0
  6  4  1  0  0  0  0
  7  8  2  0  0  0  0
 12  6  1  0  0  0  0
 13  7  1  0  0  0  0
M  END
