title
 OpenBabel02282109583D

 13 12  0  0  0  0  0  0  0  0999 V2000
    2.8324    1.1456   -0.1112 N   0  0  0  0  0  0  0  0  0  0  0  0
    2.5254   -0.0768   -0.0101 C   0  0  0  0  0  0  0  0  0  0  0  0
    1.2156   -0.5527    0.0387 N   0  0  0  0  0  0  0  0  0  0  0  0
    0.0469    0.1739   -0.0142 C   0  0  0  0  0  0  0  0  0  0  0  0
   -0.0906    1.3576   -0.1104 O   0  0  0  0  0  0  0  0  0  0  0  0
   -0.9847   -0.7478    0.0668 O   0  0  0  0  0  0  0  0  0  0  0  0
   -2.2644   -0.2574    0.0353 C   0  0  0  0  0  0  0  0  0  0  0  0
   -3.2112   -1.0817    0.1082 N   0  0  0  0  0  0  0  0  0  0  0  0
    3.8458    1.2466   -0.1274 H   0  0  0  0  0  0  0  0  0  0  0  0
    3.2294   -0.9152    0.0523 H   0  0  0  0  0  0  0  0  0  0  0  0
    1.0903   -1.5495    0.1201 H   0  0  0  0  0  0  0  0  0  0  0  0
   -2.2957    0.8290   -0.0523 H   0  0  0  0  0  0  0  0  0  0  0  0
   -4.1008   -0.5862    0.0740 H   0  0  0  0  0  0  0  0  0  0  0  0
  1  2  2  0  0  0  0
  2  3  1  0  0  0  0
  2 10  1  0  0  0  0
  3 11  1  0  0  0  0
  4  3  1  0  0  0  0
  4  6  1  0  0  0  0
  5  4  2  0  0  0  0
  7  6  1  0  0  0  0
  7  8  2  0  0  0  0
  9  1  1  0  0  0  0
 12  7  1  0  0  0  0
 13  8  1  0  0  0  0
M  END
