title
 OpenBabel02282109583D

 13 12  0  0  0  0  0  0  0  0999 V2000
    0.9188    3.2768    0.2577 N   0  0  0  0  0  0  0  0  0  0  0  0
    1.0654    2.0972   -0.1468 C   0  0  0  0  0  0  0  0  0  0  0  0
    0.0094    1.2277    0.0300 O   0  0  0  0  0  0  0  0  0  0  0  0
    0.1526   -0.0561   -0.4172 C   0  0  0  0  0  0  0  0  0  0  0  0
    1.1420   -0.4882   -0.9449 O   0  0  0  0  0  0  0  0  0  0  0  0
   -1.1013   -0.8535   -0.1520 C   0  0  0  0  0  0  0  0  0  0  0  0
   -0.7856   -2.2745    0.3078 C   0  0  0  0  0  0  0  0  0  0  0  0
   -1.4800   -2.8828    1.0751 O   0  0  0  0  0  0  0  0  0  0  0  0
    1.7637    3.8154    0.0715 H   0  0  0  0  0  0  0  0  0  0  0  0
    1.9222    1.6306   -0.6322 H   0  0  0  0  0  0  0  0  0  0  0  0
   -1.7695   -0.3581    0.5525 H   0  0  0  0  0  0  0  0  0  0  0  0
   -1.6287   -0.9447   -1.1128 H   0  0  0  0  0  0  0  0  0  0  0  0
    0.1324   -2.7069   -0.1388 H   0  0  0  0  0  0  0  0  0  0  0  0
  2  3  1  0  0  0  0
  2  1  2  0  0  0  0
  4  6  1  0  0  0  0
  4  3  1  0  0  0  0
  5  4  2  0  0  0  0
  6  7  1  0  0  0  0
  6 11  1  0  0  0  0
  7  8  2  0  0  0  0
  9  1  1  0  0  0  0
 10  2  1  0  0  0  0
 12  6  1  0  0  0  0
 13  7  1  0  0  0  0
M  END
