12
title
N 0.6108675 3.3497763 0.014090309
C 0.88000023 2.1231642 0.003625118
O -0.1743364 1.239633 0.009242786
C 0.12931201 -0.103780866 -0.002631134
O 1.2278782 -0.57245815 -0.016983114
N -1.0802143 -0.7810868 0.0063475943
C -1.2610581 -2.164089 0.0004738491
O -0.395125 -2.9910324 -0.013017635
H 1.4723897 3.8935354 0.008008204
H 1.847625 1.6215265 -0.010144568
H -1.9059646 -0.19969666 0.01878171
H -2.3427713 -2.4008663 0.011333608
