13
title
O -0.5274736 -3.1003988 1.147233
C -0.8902135 -1.9716853 0.9559712
C -0.05174469 -0.74857086 1.3183929
C -0.15913104 0.31478265 0.227519
O -1.2249358 0.71361 -0.16543964
N 1.075336 0.7475441 -0.26921013
C 1.3063056 1.7025013 -1.2636408
O 0.47469604 2.3204112 -1.8636769
H -1.8718224 -1.725087 0.50412405
H -0.50012845 -0.31168577 2.2203693
H 0.9653261 -1.0679476 1.5565135
H 1.9017644 0.32882288 0.13143477
H 2.3967721 1.8180828 -1.4287575
