title
 OpenBabel02282109583D

 13 12  0  0  0  0  0  0  0  0999 V2000
   -0.5275   -3.1004    1.1472 O   0  0  0  0  0  0  0  0  0  0  0  0
   -0.8902   -1.9717    0.9560 C   0  0  0  0  0  0  0  0  0  0  0  0
   -0.0517   -0.7486    1.3184 C   0  0  0  0  0  0  0  0  0  0  0  0
   -0.1591    0.3148    0.2275 C   0  0  0  0  0  0  0  0  0  0  0  0
   -1.2249    0.7136   -0.1654 O   0  0  0  0  0  0  0  0  0  0  0  0
    1.0753    0.7475   -0.2692 N   0  0  0  0  0  0  0  0  0  0  0  0
    1.3063    1.7025   -1.2636 C   0  0  0  0  0  0  0  0  0  0  0  0
    0.4747    2.3204   -1.8637 O   0  0  0  0  0  0  0  0  0  0  0  0
   -1.8718   -1.7251    0.5041 H   0  0  0  0  0  0  0  0  0  0  0  0
   -0.5001   -0.3117    2.2204 H   0  0  0  0  0  0  0  0  0  0  0  0
    0.9653   -1.0679    1.5565 H   0  0  0  0  0  0  0  0  0  0  0  0
    1.9018    0.3288    0.1314 H   0  0  0  0  0  0  0  0  0  0  0  0
    2.3968    1.8181   -1.4288 H   0  0  0  0  0  0  0  0  0  0  0  0
  2  1  2  0  0  0  0
  2  3  1  0  0  0  0
  3 11  1  0  0  0  0
  3 10  1  0  0  0  0
  4  3  1  0  0  0  0
  5  4  2  0  0  0  0
  6 12  1  0  0  0  0
  6  4  1  0  0  0  0
  7  6  1  0  0  0  0
  8  7  2  0  0  0  0
  9  2  1  0  0  0  0
 13  7  1  0  0  0  0
M  END
