title
 OpenBabel02282109583D

 14 13  0  0  0  0  0  0  0  0999 V2000
   -0.7362    3.6150   -0.1828 C   0  0  0  0  0  0  0  0  0  0  0  0
   -0.7451    2.1671   -0.0741 C   0  0  0  0  0  0  0  0  0  0  0  0
   -0.7608    0.9637    0.0173 C   0  0  0  0  0  0  0  0  0  0  0  0
   -0.8001   -0.4770    0.1290 C   0  0  0  0  0  0  0  0  0  0  0  0
   -1.8362   -1.0947    0.2959 O   0  0  0  0  0  0  0  0  0  0  0  0
    0.4872   -1.1269    0.0269 C   0  0  0  0  0  0  0  0  0  0  0  0
    1.5543   -1.6847   -0.0563 C   0  0  0  0  0  0  0  0  0  0  0  0
    2.8333   -2.3646   -0.1552 C   0  0  0  0  0  0  0  0  0  0  0  0
    0.2782    4.0012   -0.3260 H   0  0  0  0  0  0  0  0  0  0  0  0
   -1.3483    3.9435   -1.0298 H   0  0  0  0  0  0  0  0  0  0  0  0
   -1.1508    4.0739    0.7215 H   0  0  0  0  0  0  0  0  0  0  0  0
    2.8368   -3.0619   -1.0002 H   0  0  0  0  0  0  0  0  0  0  0  0
    3.6557   -1.6557   -0.2958 H   0  0  0  0  0  0  0  0  0  0  0  0
    3.0350   -2.9446    0.7520 H   0  0  0  0  0  0  0  0  0  0  0  0
  1  2  1  0  0  0  0
  1 11  1  0  0  0  0
  2  3  3  0  0  0  0
  3  4  1  0  0  0  0
  4  5  2  0  0  0  0
  6  4  1  0  0  0  0
  7  6  3  0  0  0  0
  8  7  1  0  0  0  0
  8 14  1  0  0  0  0
  9  1  1  0  0  0  0
 10  1  1  0  0  0  0
 12  8  1  0  0  0  0
 13  8  1  0  0  0  0
M  END
