title
 OpenBabel02282109583D

 14 13  0  0  0  0  0  0  0  0999 V2000
   -0.1534    3.8851    0.0243 C   0  0  0  0  0  0  0  0  0  0  0  0
   -0.2261    2.4346    0.0155 C   0  0  0  0  0  0  0  0  0  0  0  0
   -0.3082    1.2304    0.0085 C   0  0  0  0  0  0  0  0  0  0  0  0
   -0.3960   -0.2149   -0.0000 C   0  0  0  0  0  0  0  0  0  0  0  0
   -1.4496   -0.8060   -0.0001 O   0  0  0  0  0  0  0  0  0  0  0  0
    0.9715   -0.9191   -0.0088 C   0  0  0  0  0  0  0  0  0  0  0  0
    0.9007   -2.3693   -0.0174 C   0  0  0  0  0  0  0  0  0  0  0  0
    0.8537   -3.5689   -0.0246 C   0  0  0  0  0  0  0  0  0  0  0  0
    0.8831    4.2365    0.0001 H   0  0  0  0  0  0  0  0  0  0  0  0
   -0.6755    4.3038   -0.8428 H   0  0  0  0  0  0  0  0  0  0  0  0
   -0.6293    4.2901    0.9239 H   0  0  0  0  0  0  0  0  0  0  0  0
    1.5264   -0.5455   -0.8804 H   0  0  0  0  0  0  0  0  0  0  0  0
    1.5321   -0.5561    0.8635 H   0  0  0  0  0  0  0  0  0  0  0  0
    0.8035   -4.6294   -0.0309 H   0  0  0  0  0  0  0  0  0  0  0  0
  1 11  1  0  0  0  0
  2  1  1  0  0  0  0
  3  2  3  0  0  0  0
  4  3  1  0  0  0  0
  5  4  2  0  0  0  0
  6  4  1  0  0  0  0
  6 13  1  0  0  0  0
  7  6  1  0  0  0  0
  8  7  3  0  0  0  0
  9  1  1  0  0  0  0
 10  1  1  0  0  0  0
 12  6  1  0  0  0  0
 14  8  1  0  0  0  0
M  END
