13
title
C -0.20500031 3.899008 0.022432432
C -0.2610096 2.4484122 0.015393136
C -0.331018 1.2433023 0.009764572
C -0.40150064 -0.19779852 0.0029277508
O -1.4375397 -0.81697106 0.009939101
C 0.9779151 -0.8830142 -0.014298402
C 0.90473086 -2.3386197 -0.021173105
N 0.87632114 -3.492579 -0.026914537
H 0.82773334 4.26142 0.016456926
H -0.716489 4.3077297 -0.8555904
H -0.7031606 4.298705 0.91218823
H 1.531161 -0.53158164 -0.89354205
H 1.5484887 -0.54072285 0.85744566
