title
 OpenBabel02282109583D

 13 12  0  0  0  0  0  0  0  0999 V2000
    0.0100    3.4557   -0.2567 C   0  0  0  0  0  0  0  0  0  0  0  0
   -0.2939    2.0501   -0.0519 C   0  0  0  0  0  0  0  0  0  0  0  0
   -0.5610    0.8876    0.1228 C   0  0  0  0  0  0  0  0  0  0  0  0
   -0.9114   -0.4810    0.3404 C   0  0  0  0  0  0  0  0  0  0  0  0
   -2.0586   -0.8191    0.7493 N   0  0  0  0  0  0  0  0  0  0  0  0
    0.0517   -1.4542    0.0893 O   0  0  0  0  0  0  0  0  0  0  0  0
    1.3096   -1.1500   -0.3542 C   0  0  0  0  0  0  0  0  0  0  0  0
    2.1090   -2.0084   -0.5589 O   0  0  0  0  0  0  0  0  0  0  0  0
    0.8465    3.7716    0.3757 H   0  0  0  0  0  0  0  0  0  0  0  0
    0.2853    3.6490   -1.2989 H   0  0  0  0  0  0  0  0  0  0  0  0
   -0.8550    4.0805   -0.0125 H   0  0  0  0  0  0  0  0  0  0  0  0
   -2.1145   -1.8357    0.8425 H   0  0  0  0  0  0  0  0  0  0  0  0
    1.4726   -0.0716   -0.4878 H   0  0  0  0  0  0  0  0  0  0  0  0
  1  2  1  0  0  0  0
  1 11  1  0  0  0  0
  1  9  1  0  0  0  0
  2  3  3  0  0  0  0
  3  4  1  0  0  0  0
  4  5  2  0  0  0  0
  5 12  1  0  0  0  0
  6  4  1  0  0  0  0
  7  6  1  0  0  0  0
  8  7  2  0  0  0  0
 10  1  1  0  0  0  0
 13  7  1  0  0  0  0
M  END
