13
title
C -0.11585226 3.9075224 0.1433637
C -0.17715327 2.4584658 0.06277116
C -0.24081194 1.2563345 -0.007510176
C -0.37249762 -0.18575981 -0.1063962
O -1.3962651 -0.74817187 -0.40114698
N 0.8375314 -0.8410943 0.18321836
C 1.0894682 -2.2107117 0.18863115
O 0.3066191 -3.0848262 -0.056516737
H 0.6185565 4.30717 -0.5640533
H -1.0878307 4.355143 -0.08707403
H 0.17760348 4.23076 1.1478043
H 1.6167189 -0.24168065 0.4151743
H 2.1492527 -2.3957908 0.4595939
