title
 OpenBabel02282109583D

 13 12  0  0  0  0  0  0  0  0999 V2000
   -0.1159    3.9075    0.1434 C   0  0  0  0  0  0  0  0  0  0  0  0
   -0.1772    2.4585    0.0628 C   0  0  0  0  0  0  0  0  0  0  0  0
   -0.2408    1.2563   -0.0075 C   0  0  0  0  0  0  0  0  0  0  0  0
   -0.3725   -0.1858   -0.1064 C   0  0  0  0  0  0  0  0  0  0  0  0
   -1.3963   -0.7482   -0.4011 O   0  0  0  0  0  0  0  0  0  0  0  0
    0.8375   -0.8411    0.1832 N   0  0  0  0  0  0  0  0  0  0  0  0
    1.0895   -2.2107    0.1886 C   0  0  0  0  0  0  0  0  0  0  0  0
    0.3066   -3.0848   -0.0565 O   0  0  0  0  0  0  0  0  0  0  0  0
    0.6186    4.3072   -0.5641 H   0  0  0  0  0  0  0  0  0  0  0  0
   -1.0878    4.3551   -0.0871 H   0  0  0  0  0  0  0  0  0  0  0  0
    0.1776    4.2308    1.1478 H   0  0  0  0  0  0  0  0  0  0  0  0
    1.6167   -0.2417    0.4152 H   0  0  0  0  0  0  0  0  0  0  0  0
    2.1493   -2.3958    0.4596 H   0  0  0  0  0  0  0  0  0  0  0  0
  1 11  1  0  0  0  0
  2  1  1  0  0  0  0
  3  2  3  0  0  0  0
  4  3  1  0  0  0  0
  4  6  1  0  0  0  0
  5  4  2  0  0  0  0
  6  7  1  0  0  0  0
  6 12  1  0  0  0  0
  7 13  1  0  0  0  0
  8  7  2  0  0  0  0
  9  1  1  0  0  0  0
 10  1  1  0  0  0  0
M  END
