13
title
C -0.39940062 3.825406 0.037974443
C -0.4337834 2.3747501 0.0158524
C -0.45964038 1.1702864 -0.0010915176
C -0.56259614 -0.26025587 -0.024286792
O -1.5891532 -0.8861037 -0.070495486
O 0.6897441 -0.82374436 0.014030787
C 0.7745491 -2.1954584 -0.00165868
N 1.9212776 -2.710143 0.033448588
H 0.62128747 4.200474 -0.08631704
H -1.0192395 4.2407913 -0.7635387
H -0.78805524 4.2037506 0.9895951
H -0.19921581 -2.682773 -0.044148892
H 1.842223 -3.7261033 0.01660343
