title
 OpenBabel02282109583D

 16 15  0  0  0  0  0  0  0  0999 V2000
   -0.4714    3.5306    0.8357 C   0  0  0  0  0  0  0  0  0  0  0  0
   -0.3527    2.0803    0.8354 C   0  0  0  0  0  0  0  0  0  0  0  0
   -0.2492    0.8810    0.8386 C   0  0  0  0  0  0  0  0  0  0  0  0
   -0.1599   -0.5867    0.8435 C   0  0  0  0  0  0  0  0  0  0  0  0
   -1.4261   -1.2006    1.0883 O   0  0  0  0  0  0  0  0  0  0  0  0
    0.4650   -1.0825   -0.3917 C   0  0  0  0  0  0  0  0  0  0  0  0
    0.9506   -1.5029   -1.4097 C   0  0  0  0  0  0  0  0  0  0  0  0
    1.5446   -2.0117   -2.6369 C   0  0  0  0  0  0  0  0  0  0  0  0
    0.2390    3.9855    1.5345 H   0  0  0  0  0  0  0  0  0  0  0  0
   -0.2754    3.9475   -0.1581 H   0  0  0  0  0  0  0  0  0  0  0  0
   -1.4773    3.8439    1.1362 H   0  0  0  0  0  0  0  0  0  0  0  0
    0.4540   -0.8991    1.6985 H   0  0  0  0  0  0  0  0  0  0  0  0
   -2.0031   -0.9525    0.3567 H   0  0  0  0  0  0  0  0  0  0  0  0
    0.9711   -2.8577   -3.0315 H   0  0  0  0  0  0  0  0  0  0  0  0
    1.5785   -1.2404   -3.4140 H   0  0  0  0  0  0  0  0  0  0  0  0
    2.5696   -2.3583   -2.4659 H   0  0  0  0  0  0  0  0  0  0  0  0
  1 11  1  0  0  0  0
  1  9  1  0  0  0  0
  2  1  1  0  0  0  0
  2  3  3  0  0  0  0
  3  4  1  0  0  0  0
  4  5  1  0  0  0  0
  4 12  1  0  0  0  0
  6  4  1  0  0  0  0
  7  6  3  0  0  0  0
  8 16  1  0  0  0  0
  8  7  1  0  0  0  0
 10  1  1  0  0  0  0
 13  5  1  0  0  0  0
 14  8  1  0  0  0  0
 15  8  1  0  0  0  0
M  END
