16
title
C -0.087900855 3.853713 0.47466645
C -0.075658344 2.3979068 0.46708682
C -0.06072464 1.1929116 0.4728227
C -0.091474585 -0.27533606 0.4630282
N -1.4232695 -0.8623204 0.65552896
C 0.5069226 -0.8029797 -0.86755544
C 0.6755675 -2.2541196 -0.87409467
N 0.841006 -3.3973176 -0.88541025
H 0.5835216 4.2515106 1.2432765
H 0.23479666 4.25877 -0.4905468
H -1.0921903 4.2411327 0.67807
H 0.5401379 -0.65162826 1.2766105
H -1.7533717 -0.64655495 1.5914031
H -2.080313 -0.41812018 0.018636238
H -0.14681005 -0.5120251 -1.6973737
H 1.4775728 -0.3302627 -1.0456667
