title
 OpenBabel02282109583D

 16 15  0  0  1  0  0  0  0  0999 V2000
   -0.0879    3.8537    0.4747 C   0  0  0  0  0  0  0  0  0  0  0  0
   -0.0757    2.3979    0.4671 C   0  0  0  0  0  0  0  0  0  0  0  0
   -0.0607    1.1929    0.4728 C   0  0  0  0  0  0  0  0  0  0  0  0
   -0.0915   -0.2753    0.4630 C   0  0  1  0  0  0  0  0  0  0  0  0
   -1.4233   -0.8623    0.6555 N   0  0  0  0  0  0  0  0  0  0  0  0
    0.5069   -0.8030   -0.8676 C   0  0  0  0  0  0  0  0  0  0  0  0
    0.6756   -2.2541   -0.8741 C   0  0  0  0  0  0  0  0  0  0  0  0
    0.8410   -3.3973   -0.8854 N   0  0  0  0  0  0  0  0  0  0  0  0
    0.5835    4.2515    1.2433 H   0  0  0  0  0  0  0  0  0  0  0  0
    0.2348    4.2588   -0.4905 H   0  0  0  0  0  0  0  0  0  0  0  0
   -1.0922    4.2411    0.6781 H   0  0  0  0  0  0  0  0  0  0  0  0
    0.5401   -0.6516    1.2766 H   0  0  0  0  0  0  0  0  0  0  0  0
   -1.7534   -0.6466    1.5914 H   0  0  0  0  0  0  0  0  0  0  0  0
   -2.0803   -0.4181    0.0186 H   0  0  0  0  0  0  0  0  0  0  0  0
   -0.1468   -0.5120   -1.6974 H   0  0  0  0  0  0  0  0  0  0  0  0
    1.4776   -0.3303   -1.0457 H   0  0  0  0  0  0  0  0  0  0  0  0
  1 11  1  0  0  0  0
  1  9  1  0  0  0  0
  2  3  3  0  0  0  0
  2  1  1  0  0  0  0
  4  3  1  0  0  0  0
  4  5  1  0  0  0  0
  4 12  1  1  0  0  0
  5 13  1  0  0  0  0
  6  4  1  0  0  0  0
  7  6  1  0  0  0  0
  8  7  3  0  0  0  0
 10  1  1  0  0  0  0
 14  5  1  0  0  0  0
 15  6  1  0  0  0  0
 16  6  1  0  0  0  0
M  END
