18
title
C 0.0104346955 3.8925333 0.6158534
C -0.025611326 2.4367285 0.6039704
C -0.052547738 1.2327015 0.60332036
C -0.10222194 -0.22805473 0.5771236
C -1.5484186 -0.74388456 0.72192097
C 0.566499 -0.77642155 -0.71017367
C 0.7613187 -2.2749538 -0.66166705
O 0.44390443 -3.0456114 -1.5297521
H 1.0399036 4.265482 0.6541988
H -0.45926315 4.3100834 -0.2815641
H -0.5202137 4.2965302 1.485078
H 0.47779197 -0.60485506 1.432912
H -2.1623924 -0.4020147 -0.11653921
H -1.572212 -1.8383999 0.73791814
H -1.9988803 -0.37508747 1.6465532
H -0.01282947 -0.5156114 -1.6000112
H 1.5620631 -0.32289073 -0.80770177
H 1.2540052 -2.63861 0.27283946
