title
 OpenBabel02282109583D

 18 17  0  0  1  0  0  0  0  0999 V2000
    0.0104    3.8925    0.6159 C   0  0  0  0  0  0  0  0  0  0  0  0
   -0.0256    2.4367    0.6040 C   0  0  0  0  0  0  0  0  0  0  0  0
   -0.0525    1.2327    0.6033 C   0  0  0  0  0  0  0  0  0  0  0  0
   -0.1022   -0.2281    0.5771 C   0  0  1  0  0  0  0  0  0  0  0  0
   -1.5484   -0.7439    0.7219 C   0  0  0  0  0  0  0  0  0  0  0  0
    0.5665   -0.7764   -0.7102 C   0  0  0  0  0  0  0  0  0  0  0  0
    0.7613   -2.2750   -0.6617 C   0  0  0  0  0  0  0  0  0  0  0  0
    0.4439   -3.0456   -1.5298 O   0  0  0  0  0  0  0  0  0  0  0  0
    1.0399    4.2655    0.6542 H   0  0  0  0  0  0  0  0  0  0  0  0
   -0.4593    4.3101   -0.2816 H   0  0  0  0  0  0  0  0  0  0  0  0
   -0.5202    4.2965    1.4851 H   0  0  0  0  0  0  0  0  0  0  0  0
    0.4778   -0.6049    1.4329 H   0  0  0  0  0  0  0  0  0  0  0  0
   -2.1624   -0.4020   -0.1165 H   0  0  0  0  0  0  0  0  0  0  0  0
   -1.5722   -1.8384    0.7379 H   0  0  0  0  0  0  0  0  0  0  0  0
   -1.9989   -0.3751    1.6466 H   0  0  0  0  0  0  0  0  0  0  0  0
   -0.0128   -0.5156   -1.6000 H   0  0  0  0  0  0  0  0  0  0  0  0
    1.5621   -0.3229   -0.8077 H   0  0  0  0  0  0  0  0  0  0  0  0
    1.2540   -2.6386    0.2728 H   0  0  0  0  0  0  0  0  0  0  0  0
  1  9  1  0  0  0  0
  1 11  1  0  0  0  0
  2  1  1  0  0  0  0
  3  2  3  0  0  0  0
  4  3  1  0  0  0  0
  4  5  1  0  0  0  0
  4 12  1  1  0  0  0
  5 14  1  0  0  0  0
  5 15  1  0  0  0  0
  6  7  1  0  0  0  0
  6  4  1  0  0  0  0
  7 18  1  0  0  0  0
  8  7  2  0  0  0  0
 10  1  1  0  0  0  0
 13  5  1  0  0  0  0
 16  6  1  0  0  0  0
 17  6  1  0  0  0  0
M  END
