16
title
C -0.016121147 3.4982285 0.5236868
C -0.20952435 2.0569775 0.5722476
C -0.36701027 0.86390656 0.6072608
C -0.5584468 -0.58307344 0.64736223
C -2.0266871 -0.9888347 0.75636005
O -0.054140538 -1.205872 -0.56404126
C 1.2808948 -1.3499587 -0.66246843
O 1.8073987 -1.8234215 -1.6243124
H 0.68225235 3.8326325 1.2982265
H 0.3896678 3.8043883 -0.44644716
H -0.96188736 4.030271 0.67174846
H -0.0038598164 -1.0009098 1.4990956
H -2.4600174 -0.57302266 1.6690677
H -2.584988 -0.6100276 -0.10247691
H -2.109955 -2.078082 0.7820116
H 1.8238181 -0.9962726 0.23511742
