18
title
C 0.020373637 1.4909077 0.07693526
C 0.03071306 -0.03951975 0.050935782
C -1.4023156 -0.6241782 0.08599704
C -2.1412616 -0.28468692 1.2955462
C -2.7332847 -0.0037600622 2.303455
C 0.768462 -0.5877679 -1.1947638
C 2.175617 -0.21225542 -1.251441
C 3.336771 0.0980839 -1.2779508
H 1.039597 1.8852787 0.06825943
H -0.50367755 1.8909957 -0.7999721
H -0.48963752 1.8596147 0.97044754
H 0.56080943 -0.40277463 0.9390776
H -1.9572302 -0.26791057 -0.793371
H -1.3519322 -1.717004 -0.0076425537
H -3.2646363 0.24089842 3.1895037
H 0.6893767 -1.6827674 -1.2119874
H 0.25819466 -0.23077479 -2.1004837
H 4.3628793 0.36880305 -1.3109207
