title
 OpenBabel02282109583D

 17 16  0  0  1  0  0  0  0  0999 V2000
   -0.1096    1.4856   -0.0005 C   0  0  0  0  0  0  0  0  0  0  0  0
   -0.0646   -0.0446   -0.0186 C   0  0  1  0  0  0  0  0  0  0  0  0
    0.6236   -0.5891   -1.2941 C   0  0  0  0  0  0  0  0  0  0  0  0
   -0.0743   -0.2322   -2.5224 C   0  0  0  0  0  0  0  0  0  0  0  0
   -0.6677    0.0633   -3.5249 C   0  0  0  0  0  0  0  0  0  0  0  0
    0.6709   -0.6109    1.2196 C   0  0  0  0  0  0  0  0  0  0  0  0
    0.0246   -0.2530    2.4800 C   0  0  0  0  0  0  0  0  0  0  0  0
   -0.5007    0.0348    3.4683 N   0  0  0  0  0  0  0  0  0  0  0  0
    0.9035    1.9056   -0.0062 H   0  0  0  0  0  0  0  0  0  0  0  0
   -0.6352    1.8626   -0.8810 H   0  0  0  0  0  0  0  0  0  0  0  0
   -0.6226    1.8532    0.8923 H   0  0  0  0  0  0  0  0  0  0  0  0
   -1.0908   -0.4288   -0.0031 H   0  0  0  0  0  0  0  0  0  0  0  0
    1.6551   -0.2118   -1.3353 H   0  0  0  0  0  0  0  0  0  0  0  0
    0.7001   -1.6825   -1.2295 H   0  0  0  0  0  0  0  0  0  0  0  0
   -1.1838    0.3199   -4.4168 H   0  0  0  0  0  0  0  0  0  0  0  0
    0.7268   -1.7043    1.1624 H   0  0  0  0  0  0  0  0  0  0  0  0
    1.7041   -0.2417    1.2425 H   0  0  0  0  0  0  0  0  0  0  0  0
  1 11  1  0  0  0  0
  2 12  1  1  0  0  0
  2  1  1  0  0  0  0
  2  6  1  0  0  0  0
  3 14  1  0  0  0  0
  3  2  1  0  0  0  0
  4  3  1  0  0  0  0
  5  4  3  0  0  0  0
  6 17  1  0  0  0  0
  6  7  1  0  0  0  0
  7  8  3  0  0  0  0
  9  1  1  0  0  0  0
 10  1  1  0  0  0  0
 13  3  1  0  0  0  0
 15  5  1  0  0  0  0
 16  6  1  0  0  0  0
M  END
