title
 OpenBabel02282109583D

 16 15  0  0  0  0  0  0  0  0999 V2000
    0.0300    1.4831   -0.0797 C   0  0  0  0  0  0  0  0  0  0  0  0
    0.0355   -0.0480   -0.0621 C   0  0  0  0  0  0  0  0  0  0  0  0
    0.7862   -0.6097    1.1692 C   0  0  0  0  0  0  0  0  0  0  0  0
    2.1919   -0.2134    1.2021 C   0  0  0  0  0  0  0  0  0  0  0  0
    3.3024    0.1054    1.2122 N   0  0  0  0  0  0  0  0  0  0  0  0
   -1.3977   -0.6318   -0.0635 C   0  0  0  0  0  0  0  0  0  0  0  0
   -2.1582   -0.2574   -1.2534 C   0  0  0  0  0  0  0  0  0  0  0  0
   -2.7454    0.0441   -2.2016 N   0  0  0  0  0  0  0  0  0  0  0  0
    1.0504    1.8745   -0.0932 H   0  0  0  0  0  0  0  0  0  0  0  0
   -0.4917    1.8589   -0.9636 H   0  0  0  0  0  0  0  0  0  0  0  0
   -0.4749    1.8828    0.8077 H   0  0  0  0  0  0  0  0  0  0  0  0
    0.5464   -0.4117   -0.9605 H   0  0  0  0  0  0  0  0  0  0  0  0
    0.3054   -0.2621    2.0924 H   0  0  0  0  0  0  0  0  0  0  0  0
    0.7388   -1.7049    1.1795 H   0  0  0  0  0  0  0  0  0  0  0  0
   -1.3653   -1.7262   -0.0081 H   0  0  0  0  0  0  0  0  0  0  0  0
   -1.9450   -0.2849    0.8221 H   0  0  0  0  0  0  0  0  0  0  0  0
  1  2  1  0  0  0  0
  1 11  1  0  0  0  0
  2  3  1  0  0  0  0
  3 14  1  0  0  0  0
  3  4  1  0  0  0  0
  3 13  1  0  0  0  0
  4  5  3  0  0  0  0
  6  2  1  0  0  0  0
  6 15  1  0  0  0  0
  6 16  1  0  0  0  0
  7  6  1  0  0  0  0
  8  7  3  0  0  0  0
  9  1  1  0  0  0  0
 10  1  1  0  0  0  0
 12  2  1  0  0  0  0
M  END
