title
 OpenBabel02282109583D

 16 15  0  0  0  0  0  0  0  0999 V2000
   -0.0030    1.4344    0.0083 C   0  0  0  0  0  0  0  0  0  0  0  0
    0.0051   -0.0258    0.0168 N   0  0  0  0  0  0  0  0  0  0  0  0
    0.7264   -0.5776    1.1681 C   0  0  0  0  0  0  0  0  0  0  0  0
    2.1407   -0.2177    1.1727 C   0  0  0  0  0  0  0  0  0  0  0  0
    3.3062    0.0708    1.2017 C   0  0  0  0  0  0  0  0  0  0  0  0
   -1.3382   -0.5850   -0.0438 C   0  0  0  0  0  0  0  0  0  0  0  0
   -2.0141   -0.2567   -1.3042 C   0  0  0  0  0  0  0  0  0  0  0  0
   -2.5645    0.0010   -2.2863 N   0  0  0  0  0  0  0  0  0  0  0  0
    1.0260    1.7976    0.0142 H   0  0  0  0  0  0  0  0  0  0  0  0
   -0.4925    1.7917   -0.9007 H   0  0  0  0  0  0  0  0  0  0  0  0
   -0.5306    1.8618    0.8816 H   0  0  0  0  0  0  0  0  0  0  0  0
    0.2728   -0.2609    2.1290 H   0  0  0  0  0  0  0  0  0  0  0  0
    0.6392   -1.6707    1.1300 H   0  0  0  0  0  0  0  0  0  0  0  0
    4.3382    0.3214    1.2195 H   0  0  0  0  0  0  0  0  0  0  0  0
   -1.2745   -1.6770    0.0277 H   0  0  0  0  0  0  0  0  0  0  0  0
   -1.9905   -0.2478    0.7865 H   0  0  0  0  0  0  0  0  0  0  0  0
  1  9  1  0  0  0  0
  1  2  1  0  0  0  0
  1 11  1  0  0  0  0
  2  3  1  0  0  0  0
  3  4  1  0  0  0  0
  3 12  1  0  0  0  0
  4  5  3  0  0  0  0
  5 14  1  0  0  0  0
  6  2  1  0  0  0  0
  6 15  1  0  0  0  0
  6 16  1  0  0  0  0
  7  6  1  0  0  0  0
  8  7  3  0  0  0  0
 10  1  1  0  0  0  0
 13  3  1  0  0  0  0
M  END
