15
title
C -0.022454524 1.4415375 0.014848534
N -0.015782828 -0.02066207 0.026212841
C 0.6864184 -0.57007176 1.1805172
C 2.1102107 -0.2177904 1.1702346
N 3.2307725 0.0604358 1.1835855
C -1.3559617 -0.589072 -0.064246096
C -2.004031 -0.2560259 -1.3372248
N -2.533148 0.006878767 -2.3292751
H 1.006283 1.8077786 0.021786164
H -0.50493383 1.7937305 -0.89929295
H -0.55542463 1.8703558 0.88275677
H 0.26212922 -0.2369714 2.1477554
H 0.6102789 -1.6631539 1.1588733
H -1.2870026 -1.6808065 0.0025012624
H -2.025673 -0.25827944 0.7534283
