title
 OpenBabel02282109583D

 15 14  0  0  0  0  0  0  0  0999 V2000
   -0.0225    1.4415    0.0148 C   0  0  0  0  0  0  0  0  0  0  0  0
   -0.0158   -0.0207    0.0262 N   0  0  0  0  0  0  0  0  0  0  0  0
    0.6864   -0.5701    1.1805 C   0  0  0  0  0  0  0  0  0  0  0  0
    2.1102   -0.2178    1.1702 C   0  0  0  0  0  0  0  0  0  0  0  0
    3.2308    0.0604    1.1836 N   0  0  0  0  0  0  0  0  0  0  0  0
   -1.3560   -0.5891   -0.0642 C   0  0  0  0  0  0  0  0  0  0  0  0
   -2.0040   -0.2560   -1.3372 C   0  0  0  0  0  0  0  0  0  0  0  0
   -2.5331    0.0069   -2.3293 N   0  0  0  0  0  0  0  0  0  0  0  0
    1.0063    1.8078    0.0218 H   0  0  0  0  0  0  0  0  0  0  0  0
   -0.5049    1.7937   -0.8993 H   0  0  0  0  0  0  0  0  0  0  0  0
   -0.5554    1.8704    0.8828 H   0  0  0  0  0  0  0  0  0  0  0  0
    0.2621   -0.2370    2.1478 H   0  0  0  0  0  0  0  0  0  0  0  0
    0.6103   -1.6632    1.1589 H   0  0  0  0  0  0  0  0  0  0  0  0
   -1.2870   -1.6808    0.0025 H   0  0  0  0  0  0  0  0  0  0  0  0
   -2.0257   -0.2583    0.7534 H   0  0  0  0  0  0  0  0  0  0  0  0
  1  9  1  0  0  0  0
  1  2  1  0  0  0  0
  1 11  1  0  0  0  0
  2  3  1  0  0  0  0
  3 12  1  0  0  0  0
  4  3  1  0  0  0  0
  4  5  3  0  0  0  0
  6 14  1  0  0  0  0
  6  2  1  0  0  0  0
  6 15  1  0  0  0  0
  7  6  1  0  0  0  0
  8  7  3  0  0  0  0
 10  1  1  0  0  0  0
 13  3  1  0  0  0  0
M  END
