title
 OpenBabel02282109583D

 15 14  0  0  1  0  0  0  0  0999 V2000
   -0.2222    1.2943    0.0036 O   0  0  0  0  0  0  0  0  0  0  0  0
   -0.0786   -0.1055   -0.0193 C   0  0  1  0  0  0  0  0  0  0  0  0
    0.6208   -0.6117   -1.3009 C   0  0  0  0  0  0  0  0  0  0  0  0
   -0.0638   -0.2080   -2.5206 C   0  0  0  0  0  0  0  0  0  0  0  0
   -0.6361    0.1197   -3.5243 C   0  0  0  0  0  0  0  0  0  0  0  0
    0.6775   -0.6234    1.2283 C   0  0  0  0  0  0  0  0  0  0  0  0
    0.0434   -0.2143    2.4782 C   0  0  0  0  0  0  0  0  0  0  0  0
   -0.4591    0.0954    3.4710 N   0  0  0  0  0  0  0  0  0  0  0  0
    0.6403    1.7012   -0.1383 H   0  0  0  0  0  0  0  0  0  0  0  0
   -1.1004   -0.4967    0.0031 H   0  0  0  0  0  0  0  0  0  0  0  0
    1.6552   -0.2364   -1.3109 H   0  0  0  0  0  0  0  0  0  0  0  0
    0.6966   -1.7060   -1.2610 H   0  0  0  0  0  0  0  0  0  0  0  0
   -1.1425    0.4130   -4.4104 H   0  0  0  0  0  0  0  0  0  0  0  0
    0.7385   -1.7176    1.2061 H   0  0  0  0  0  0  0  0  0  0  0  0
    1.7088   -0.2474    1.2164 H   0  0  0  0  0  0  0  0  0  0  0  0
  2 10  1  1  0  0  0
  2  1  1  0  0  0  0
  2  6  1  0  0  0  0
  3 12  1  0  0  0  0
  3  2  1  0  0  0  0
  4  3  1  0  0  0  0
  5  4  3  0  0  0  0
  6  7  1  0  0  0  0
  7  8  3  0  0  0  0
  9  1  1  0  0  0  0
 11  3  1  0  0  0  0
 13  5  1  0  0  0  0
 14  6  1  0  0  0  0
 15  6  1  0  0  0  0
M  END
