15
title
O -0.22218949 1.2942988 0.0035885137
C -0.07856085 -0.105472945 -0.019349558
C 0.62078196 -0.61168087 -1.3009107
C -0.06384596 -0.20801015 -2.5205626
C -0.6361253 0.1197295 -3.5242965
C 0.67750984 -0.6233557 1.2283465
C 0.043395318 -0.214303 2.4782004
N -0.45914975 0.09536969 3.4710093
H 0.6402829 1.7012324 -0.13834433
H -1.1003894 -0.49674165 0.0031296622
H 1.6551794 -0.23637663 -1.3109459
H 0.6966328 -1.7060114 -1.260997
H -1.1425414 0.41302785 -4.410444
H 0.73854196 -1.7175611 1.2060505
H 1.7087871 -0.24738833 1.216389
