17
title
C 0.67050153 2.4523647 0.07347235
C 0.55178845 0.9428429 -0.09403365
C 1.1559048 0.1809815 1.1052271
C 1.1999012 -1.2621777 0.9119076
C 1.2376534 -2.449136 0.72645354
O -0.83976144 0.6375078 -0.20736748
C -1.2163697 -0.32593116 -1.0733547
N -2.4316044 -0.6558904 -1.1541631
H 1.7203896 2.7510858 0.14449584
H 0.21844311 2.9632654 -0.779917
H 0.15224777 2.7785778 0.9801765
H 1.0680655 0.62651414 -1.0102781
H 2.1696 0.5603893 1.2841855
H 0.5633061 0.42453653 1.9953626
H 1.2666671 -3.5005848 0.58060884
H -0.38441214 -0.7373387 -1.6589073
H -2.5454605 -1.3770496 -1.8632872
