16
title
C 0.626118 2.4648173 -0.00300379
C 0.56017536 0.94672996 -0.09965726
C 1.1660178 0.25195697 1.1362873
C 1.1994141 -1.1985148 1.0082128
C 1.2148478 -2.3917673 0.8659881
O -0.82315975 0.5790371 -0.20919979
C -1.1725463 -0.3647485 -1.1077894
O -2.2961876 -0.74768573 -1.2315583
H 1.6651453 2.7998474 0.06620416
H 0.17155474 2.9214394 -0.88547105
H 0.08621374 2.8167152 0.88102674
H 1.092766 0.6020029 -0.99556017
H 2.1809793 0.6382841 1.2904353
H 0.5784011 0.5412205 2.0159986
H 1.2271498 -3.4483216 0.75836605
H -0.31710705 -0.72065574 -1.711915
