16
title
C 0.37032852 2.3450956 0.22224215
C 0.32092878 0.820947 0.06914361
C 1.1136758 0.13523781 1.2064443
C 1.1321555 -1.322005 1.105679
N 1.1410084 -2.4746225 1.0297539
N -1.0438387 0.32114744 0.020579576
C -1.6299834 -0.108096726 -1.1347502
O -1.095997 -0.119163044 -2.2215624
H 1.403733 2.7058115 0.22031686
H -0.1603788 2.8200984 -0.605993
H -0.0990089 2.6656666 1.1595409
H 0.7593618 0.53863245 -0.8912482
H 2.1449442 0.50398713 1.2023609
H 0.6887003 0.41212162 2.1800394
H -1.5986149 0.32489866 0.8629711
H -2.6683393 -0.4518869 -0.9638089
