title
 OpenBabel02282109583D

 16 15  0  0  1  0  0  0  0  0999 V2000
    0.7740    2.4240    0.1117 C   0  0  0  0  0  0  0  0  0  0  0  0
    0.5814    0.9260   -0.0873 C   0  0  1  0  0  0  0  0  0  0  0  0
    1.1479    0.1223    1.1060 C   0  0  0  0  0  0  0  0  0  0  0  0
    1.1310   -1.3190    0.8721 C   0  0  0  0  0  0  0  0  0  0  0  0
    1.1201   -2.4535    0.6530 N   0  0  0  0  0  0  0  0  0  0  0  0
   -0.8179    0.6853   -0.2018 O   0  0  0  0  0  0  0  0  0  0  0  0
   -1.2407   -0.2589   -1.0767 C   0  0  0  0  0  0  0  0  0  0  0  0
   -2.4702   -0.5173   -1.1627 N   0  0  0  0  0  0  0  0  0  0  0  0
    1.8364    2.6717    0.1898 H   0  0  0  0  0  0  0  0  0  0  0  0
    0.3488    2.9690   -0.7339 H   0  0  0  0  0  0  0  0  0  0  0  0
    0.2674    2.7572    1.0222 H   0  0  0  0  0  0  0  0  0  0  0  0
    1.0881    0.6014   -1.0057 H   0  0  0  0  0  0  0  0  0  0  0  0
    2.1796    0.4334    1.3027 H   0  0  0  0  0  0  0  0  0  0  0  0
    0.5563    0.3518    1.9985 H   0  0  0  0  0  0  0  0  0  0  0  0
   -0.4277   -0.7168   -1.6541 H   0  0  0  0  0  0  0  0  0  0  0  0
   -2.6260   -1.2359   -1.8664 H   0  0  0  0  0  0  0  0  0  0  0  0
  1  9  1  0  0  0  0
  1 11  1  0  0  0  0
  2 12  1  6  0  0  0
  2  1  1  0  0  0  0
  2  3  1  0  0  0  0
  3 13  1  0  0  0  0
  3 14  1  0  0  0  0
  4  3  1  0  0  0  0
  5  4  3  0  0  0  0
  6  2  1  0  0  0  0
  7  6  1  0  0  0  0
  8  7  2  0  0  0  0
 10  1  1  0  0  0  0
 15  7  1  0  0  0  0
 16  8  1  0  0  0  0
M  END
