17
title
C -0.057096068 1.4610184 -0.23554029
C 0.004544664 -0.070272 -0.18074459
C 0.75886893 -0.5664474 1.0683725
C 2.2241158 -0.18400031 1.0443575
O 2.8056126 0.37665445 1.93529
C -1.4090567 -0.70032555 -0.21190989
C -2.151521 -0.37242875 -1.4273214
N -2.7204845 -0.10651475 -2.397403
H 0.9469816 1.8952428 -0.2467224
H -0.58275723 1.8024697 -1.1312268
H -0.57985747 1.8617512 0.64057404
H 0.5404823 -0.4309981 -1.0686827
H 0.31185687 -0.1803365 1.9901842
H 0.71925575 -1.6653322 1.105831
H 2.7546961 -0.47709668 0.10723115
H -1.3394722 -1.7914015 -0.13589266
H -1.9899391 -0.35945588 0.65390235
