title
 OpenBabel02282109583D

 17 16  0  0  0  0  0  0  0  0999 V2000
   -0.1723    1.4710   -0.1511 C   0  0  0  0  0  0  0  0  0  0  0  0
   -0.0788    0.0159   -0.0970 N   0  0  0  0  0  0  0  0  0  0  0  0
    0.6119   -0.4338    1.0982 C   0  0  0  0  0  0  0  0  0  0  0  0
    2.1017   -0.1321    1.0193 C   0  0  0  0  0  0  0  0  0  0  0  0
    2.8037    0.0771    1.9726 O   0  0  0  0  0  0  0  0  0  0  0  0
   -1.3825   -0.6330   -0.2558 C   0  0  0  0  0  0  0  0  0  0  0  0
   -1.9892   -0.3760   -1.5596 C   0  0  0  0  0  0  0  0  0  0  0  0
   -2.5084   -0.1711   -2.6234 C   0  0  0  0  0  0  0  0  0  0  0  0
    0.8296    1.9085   -0.1052 H   0  0  0  0  0  0  0  0  0  0  0  0
   -0.6346    1.7740   -1.0928 H   0  0  0  0  0  0  0  0  0  0  0  0
   -0.7652    1.8914    0.6827 H   0  0  0  0  0  0  0  0  0  0  0  0
    0.2140   -0.0229    2.0435 H   0  0  0  0  0  0  0  0  0  0  0  0
    0.5303   -1.5286    1.1631 H   0  0  0  0  0  0  0  0  0  0  0  0
    2.4999   -0.1515   -0.0205 H   0  0  0  0  0  0  0  0  0  0  0  0
   -1.2369   -1.7139   -0.1397 H   0  0  0  0  0  0  0  0  0  0  0  0
   -2.0967   -0.3288    0.5351 H   0  0  0  0  0  0  0  0  0  0  0  0
   -2.9624    0.0050   -3.5672 H   0  0  0  0  0  0  0  0  0  0  0  0
  1  9  1  0  0  0  0
  1  2  1  0  0  0  0
  1 11  1  0  0  0  0
  2  3  1  0  0  0  0
  3 13  1  0  0  0  0
  3 12  1  0  0  0  0
  4  3  1  0  0  0  0
  4  5  2  0  0  0  0
  6 15  1  0  0  0  0
  6  2  1  0  0  0  0
  6 16  1  0  0  0  0
  7  6  1  0  0  0  0
  8  7  3  0  0  0  0
 10  1  1  0  0  0  0
 14  4  1  0  0  0  0
 17  8  1  0  0  0  0
M  END
