title
 OpenBabel02282109583D

 16 15  0  0  0  0  0  0  0  0999 V2000
   -0.1755    1.4810   -0.1373 C   0  0  0  0  0  0  0  0  0  0  0  0
   -0.0820    0.0242   -0.0729 N   0  0  0  0  0  0  0  0  0  0  0  0
    0.6292   -0.4254    1.1127 C   0  0  0  0  0  0  0  0  0  0  0  0
    2.1190   -0.1243    1.0050 C   0  0  0  0  0  0  0  0  0  0  0  0
    2.8331    0.0880    1.9474 O   0  0  0  0  0  0  0  0  0  0  0  0
   -1.3802   -0.6226   -0.2142 C   0  0  0  0  0  0  0  0  0  0  0  0
   -1.9674   -0.3860   -1.5391 C   0  0  0  0  0  0  0  0  0  0  0  0
   -2.4429   -0.1972   -2.5745 N   0  0  0  0  0  0  0  0  0  0  0  0
    0.8274    1.9151   -0.0968 H   0  0  0  0  0  0  0  0  0  0  0  0
   -0.6352    1.7817   -1.0817 H   0  0  0  0  0  0  0  0  0  0  0  0
   -0.7662    1.9062    0.6942 H   0  0  0  0  0  0  0  0  0  0  0  0
    0.2480   -0.0087    2.0612 H   0  0  0  0  0  0  0  0  0  0  0  0
    0.5477   -1.5194    1.1821 H   0  0  0  0  0  0  0  0  0  0  0  0
    2.5005   -0.1482   -0.0404 H   0  0  0  0  0  0  0  0  0  0  0  0
   -1.2550   -1.7037   -0.0900 H   0  0  0  0  0  0  0  0  0  0  0  0
   -2.1170   -0.2961    0.5446 H   0  0  0  0  0  0  0  0  0  0  0  0
  1  9  1  0  0  0  0
  1  2  1  0  0  0  0
  1 11  1  0  0  0  0
  2  3  1  0  0  0  0
  3 13  1  0  0  0  0
  3 12  1  0  0  0  0
  4  3  1  0  0  0  0
  4  5  2  0  0  0  0
  6 15  1  0  0  0  0
  6  2  1  0  0  0  0
  6 16  1  0  0  0  0
  7  6  1  0  0  0  0
  8  7  3  0  0  0  0
 10  1  1  0  0  0  0
 14  4  1  0  0  0  0
M  END
