title
 OpenBabel02282109583D

 17 16  0  0  1  0  0  0  0  0999 V2000
    0.2807    2.5766    0.2998 C   0  0  0  0  0  0  0  0  0  0  0  0
    0.2374    1.0903   -0.0600 C   0  0  1  0  0  0  0  0  0  0  0  0
    1.1165    0.2484    0.8922 C   0  0  0  0  0  0  0  0  0  0  0  0
    1.1946   -1.2145    0.5003 C   0  0  0  0  0  0  0  0  0  0  0  0
    0.8891   -2.1211    1.2316 O   0  0  0  0  0  0  0  0  0  0  0  0
   -1.1453    0.6222   -0.0742 N   0  0  0  0  0  0  0  0  0  0  0  0
   -1.5915   -0.3143   -0.9525 C   0  0  0  0  0  0  0  0  0  0  0  0
   -0.9107   -0.8304   -1.8156 O   0  0  0  0  0  0  0  0  0  0  0  0
    1.3074    2.9509    0.2652 H   0  0  0  0  0  0  0  0  0  0  0  0
   -0.3243    3.1611   -0.3986 H   0  0  0  0  0  0  0  0  0  0  0  0
   -0.1001    2.7493    1.3135 H   0  0  0  0  0  0  0  0  0  0  0  0
    0.6018    0.9489   -1.0822 H   0  0  0  0  0  0  0  0  0  0  0  0
    2.1373    0.6550    0.8614 H   0  0  0  0  0  0  0  0  0  0  0  0
    0.7526    0.3130    1.9230 H   0  0  0  0  0  0  0  0  0  0  0  0
    1.5670   -1.4013   -0.5293 H   0  0  0  0  0  0  0  0  0  0  0  0
   -1.7708    0.9386    0.6508 H   0  0  0  0  0  0  0  0  0  0  0  0
   -2.6622   -0.5521   -0.8022 H   0  0  0  0  0  0  0  0  0  0  0  0
  1 11  1  0  0  0  0
  2 12  1  6  0  0  0
  2  1  1  0  0  0  0
  2  3  1  0  0  0  0
  3 14  1  0  0  0  0
  4  3  1  0  0  0  0
  4  5  2  0  0  0  0
  6  2  1  0  0  0  0
  6 16  1  0  0  0  0
  7 17  1  0  0  0  0
  7  6  1  0  0  0  0
  8  7  2  0  0  0  0
  9  1  1  0  0  0  0
 10  1  1  0  0  0  0
 13  3  1  0  0  0  0
 15  4  1  0  0  0  0
M  END
