17
title
C 0.25834846 2.2826555 -0.13841672
C 0.3503072 0.7596541 -0.16745861
C 1.1089414 0.1963698 1.0399837
C 1.2985728 -1.3062543 0.9750686
O 2.3644588 -1.8549339 1.0932742
O -0.9643581 0.18012074 -0.12683842
C -1.6192293 0.04652455 -1.2984436
N -2.8244977 -0.3246763 -1.3083956
H 1.2571709 2.7285411 -0.16143194
H -0.30158556 2.6534553 -1.0021375
H -0.2537591 2.6143184 0.76959336
H 0.8493255 0.4376483 -1.093334
H 2.0911798 0.6672907 1.1287638
H 0.5262587 0.42995766 1.9414731
H 0.3655461 -1.8849746 0.8085281
H -0.99673665 0.2709777 -2.1763701
H -3.1565707 -0.40341273 -2.2672951
