16
title
C 0.29678234 2.3274899 -0.0723395
C 0.36648366 0.80575573 -0.13252945
C 1.108966 0.20152128 1.0653996
C 1.260783 -1.3048939 0.97912925
O 2.3174105 -1.8778931 1.0506413
O -0.9716138 0.26120976 -0.11533022
C -1.5622219 -0.011612536 -1.2962108
O -2.6865094 -0.4024275 -1.37945
H 1.3029826 2.7566612 -0.07162357
H -0.24478222 2.7239592 -0.93618006
H -0.22194405 2.649096 0.835438
H 0.8584578 0.49313405 -1.0640743
H 2.1041627 0.64450526 1.1548095
H 0.5372376 0.4389478 1.9727241
H 0.30960366 -1.8627263 0.84468776
H -0.8913842 0.1548593 -2.1619647
