17
title
C -0.16102315 1.5354108 -0.053526033
N 0.02054078 0.086366765 -0.045465637
C 0.7597382 -0.35887483 1.1232002
C 2.231406 0.02052568 1.0214291
O 2.943718 0.23697636 1.964833
C -1.2318537 -0.61614436 -0.26551285
C -1.689398 -0.48593006 -1.7125115
O -2.8376198 -0.5096947 -2.066448
H 0.80909455 2.0365171 0.015634647
H -0.6322247 1.8503333 -0.98937434
H -0.7899871 1.8902905 0.78274953
H 0.36305484 0.008939831 2.0853329
H 0.7330945 -1.456717 1.1616287
H 2.6056633 0.05322792 -0.027332822
H -1.0699638 -1.689635 -0.095648564
H -2.0566585 -0.3036443 0.3981018
H -0.8456168 -0.3926943 -2.4338858
