16
title
O -0.3465618 1.2072428 0.10585785
C -0.3203827 -0.20800273 -0.03833754
C 0.40171632 -0.62118626 -1.327188
C -0.17970745 0.085339665 -2.5365286
O 0.47201386 0.6483681 -3.3750398
C 0.26661655 -0.88184965 1.2086668
C -0.4455347 -0.42774314 2.4681737
O 0.10912521 -0.05261102 3.4664555
H 0.56111073 1.5238608 0.18555926
H -1.3796693 -0.48518 -0.12321105
H 1.473785 -0.4015431 -1.2747316
H 0.28877595 -1.704133 -1.479221
H -1.2909664 0.035924677 -2.6054769
H 0.14917882 -1.97178 1.1256416
H 1.335985 -0.6684931 1.3145374
H -1.5572933 -0.47776532 2.4093454
