title
 OpenBabel02282109583D

 16 15  0  0  0  0  0  0  0  0999 V2000
   -0.3466    1.2072    0.1059 O   0  0  0  0  0  0  0  0  0  0  0  0
   -0.3204   -0.2080   -0.0383 C   0  0  0  0  0  0  0  0  0  0  0  0
    0.4017   -0.6212   -1.3272 C   0  0  0  0  0  0  0  0  0  0  0  0
   -0.1797    0.0853   -2.5365 C   0  0  0  0  0  0  0  0  0  0  0  0
    0.4720    0.6484   -3.3750 O   0  0  0  0  0  0  0  0  0  0  0  0
    0.2666   -0.8818    1.2087 C   0  0  0  0  0  0  0  0  0  0  0  0
   -0.4455   -0.4277    2.4682 C   0  0  0  0  0  0  0  0  0  0  0  0
    0.1091   -0.0526    3.4665 O   0  0  0  0  0  0  0  0  0  0  0  0
    0.5611    1.5239    0.1856 H   0  0  0  0  0  0  0  0  0  0  0  0
   -1.3797   -0.4852   -0.1232 H   0  0  0  0  0  0  0  0  0  0  0  0
    1.4738   -0.4015   -1.2747 H   0  0  0  0  0  0  0  0  0  0  0  0
    0.2888   -1.7041   -1.4792 H   0  0  0  0  0  0  0  0  0  0  0  0
   -1.2910    0.0359   -2.6055 H   0  0  0  0  0  0  0  0  0  0  0  0
    0.1492   -1.9718    1.1256 H   0  0  0  0  0  0  0  0  0  0  0  0
    1.3360   -0.6685    1.3145 H   0  0  0  0  0  0  0  0  0  0  0  0
   -1.5573   -0.4778    2.4093 H   0  0  0  0  0  0  0  0  0  0  0  0
  1  9  1  0  0  0  0
  2  1  1  0  0  0  0
  2  6  1  0  0  0  0
  3 11  1  0  0  0  0
  3  2  1  0  0  0  0
  4  3  1  0  0  0  0
  5  4  2  0  0  0  0
  6 15  1  0  0  0  0
  6  7  1  0  0  0  0
  7  8  2  0  0  0  0
 10  2  1  0  0  0  0
 12  3  1  0  0  0  0
 13  4  1  0  0  0  0
 14  6  1  0  0  0  0
 16  7  1  0  0  0  0
M  END
