title
 OpenBabel02282109583D

 17 16  0  0  0  0  0  0  0  0999 V2000
   -0.8048    2.6662    1.8096 C   0  0  0  0  0  0  0  0  0  0  0  0
   -1.4976    1.3599    1.4117 C   0  0  0  0  0  0  0  0  0  0  0  0
   -0.8712    0.7037    0.2757 N   0  0  0  0  0  0  0  0  0  0  0  0
   -0.0295   -0.3643    0.4148 C   0  0  0  0  0  0  0  0  0  0  0  0
    0.2274   -0.8899    1.4848 O   0  0  0  0  0  0  0  0  0  0  0  0
    0.5303   -0.8292   -0.8458 C   0  0  0  0  0  0  0  0  0  0  0  0
    1.0223   -1.2505   -1.8623 C   0  0  0  0  0  0  0  0  0  0  0  0
    1.6212   -1.7678   -3.0817 C   0  0  0  0  0  0  0  0  0  0  0  0
    0.2344    2.4782    2.0933 H   0  0  0  0  0  0  0  0  0  0  0  0
   -0.8097    3.3874    0.9851 H   0  0  0  0  0  0  0  0  0  0  0  0
   -1.3173    3.1253    2.6611 H   0  0  0  0  0  0  0  0  0  0  0  0
   -1.4609    0.6442    2.2355 H   0  0  0  0  0  0  0  0  0  0  0  0
   -2.5515    1.5447    1.1732 H   0  0  0  0  0  0  0  0  0  0  0  0
   -0.9776    1.0996   -0.6444 H   0  0  0  0  0  0  0  0  0  0  0  0
    2.2475   -2.6415   -2.8738 H   0  0  0  0  0  0  0  0  0  0  0  0
    0.8519   -2.0679   -3.8014 H   0  0  0  0  0  0  0  0  0  0  0  0
    2.2493   -1.0103   -3.5630 H   0  0  0  0  0  0  0  0  0  0  0  0
  1  9  1  0  0  0  0
  1 11  1  0  0  0  0
  2  1  1  0  0  0  0
  2 12  1  0  0  0  0
  3  4  1  0  0  0  0
  3  2  1  0  0  0  0
  4  5  2  0  0  0  0
  6  4  1  0  0  0  0
  7  6  3  0  0  0  0
  8 15  1  0  0  0  0
  8  7  1  0  0  0  0
 10  1  1  0  0  0  0
 13  2  1  0  0  0  0
 14  3  1  0  0  0  0
 16  8  1  0  0  0  0
 17  8  1  0  0  0  0
M  END
