17
title
C -0.8047866 2.6661844 1.8095524
C -1.4976224 1.3598795 1.4116956
N -0.87118 0.70366514 0.27569392
C -0.029512525 -0.36432073 0.41484454
O 0.2274164 -0.8898861 1.4847614
C 0.53025985 -0.8292102 -0.8458006
C 1.0222589 -1.2505274 -1.862318
C 1.621168 -1.7677531 -3.0816681
H 0.23442972 2.478196 2.0932822
H -0.80974543 3.387416 0.9851361
H -1.3172846 3.1252522 2.6610515
H -1.4609177 0.64419067 2.2355356
H -2.55154 1.544677 1.173209
H -0.97758746 1.099599 -0.64442724
H 2.2474525 -2.641545 -2.8737814
H 0.8519223 -2.0679283 -3.8014448
H 2.2492876 -1.0102727 -3.5630062
