title
 OpenBabel02282109583D

 17 16  0  0  0  0  0  0  0  0999 V2000
   -1.0161    2.9227    1.4373 C   0  0  0  0  0  0  0  0  0  0  0  0
   -0.9374    1.4184    1.6166 C   0  0  0  0  0  0  0  0  0  0  0  0
   -0.3100    0.8794    0.4413 O   0  0  0  0  0  0  0  0  0  0  0  0
   -0.1486   -0.4566    0.4113 C   0  0  0  0  0  0  0  0  0  0  0  0
   -0.5304   -1.2042    1.3715 N   0  0  0  0  0  0  0  0  0  0  0  0
    0.4854   -0.8913   -0.8014 C   0  0  0  0  0  0  0  0  0  0  0  0
    1.0146   -1.3034   -1.8026 C   0  0  0  0  0  0  0  0  0  0  0  0
    1.6532   -1.7961   -3.0117 C   0  0  0  0  0  0  0  0  0  0  0  0
   -0.0182    3.3550    1.3213 H   0  0  0  0  0  0  0  0  0  0  0  0
   -1.6067    3.1803    0.5535 H   0  0  0  0  0  0  0  0  0  0  0  0
   -1.4894    3.3763    2.3133 H   0  0  0  0  0  0  0  0  0  0  0  0
   -0.3490    1.1378    2.4966 H   0  0  0  0  0  0  0  0  0  0  0  0
   -1.9269    0.9642    1.7339 H   0  0  0  0  0  0  0  0  0  0  0  0
   -0.3217   -2.1773    1.1609 H   0  0  0  0  0  0  0  0  0  0  0  0
    0.9978   -2.4922   -3.5465 H   0  0  0  0  0  0  0  0  0  0  0  0
    1.8987   -0.9745   -3.6927 H   0  0  0  0  0  0  0  0  0  0  0  0
    2.5818   -2.3278   -2.7770 H   0  0  0  0  0  0  0  0  0  0  0  0
  1  2  1  0  0  0  0
  1 11  1  0  0  0  0
  2 13  1  0  0  0  0
  2 12  1  0  0  0  0
  3  2  1  0  0  0  0
  4  3  1  0  0  0  0
  4  5  2  0  0  0  0
  6  4  1  0  0  0  0
  7  6  3  0  0  0  0
  8 17  1  0  0  0  0
  8  7  1  0  0  0  0
  9  1  1  0  0  0  0
 10  1  1  0  0  0  0
 14  5  1  0  0  0  0
 15  8  1  0  0  0  0
 16  8  1  0  0  0  0
M  END
