17
title
C -0.668403 3.5378933 1.1010805
C -0.6654567 2.0097487 1.1829326
C -0.003971445 1.3589444 -0.03244067
C 0.0037940864 -0.1596651 0.015294188
O -0.5016427 -0.8009534 0.8985797
C 0.72345084 -0.8372526 -1.1727028
C 0.66030985 -2.2925289 -1.144352
N 0.620483 -3.4462245 -1.1420841
H 0.35007483 3.938028 1.0426261
H -1.2129018 3.8903782 0.21785831
H -1.1465582 3.976011 1.9819194
H -0.1464523 1.6799676 2.0891185
H -1.6891307 1.6323045 1.2737418
H -0.5077647 1.662336 -0.96236324
H 1.0338978 1.7036492 -0.14964664
H 0.2939735 -0.467185 -2.1115425
H 1.7723264 -0.51524067 -1.1757584
