17
title
C -0.66264176 3.285214 -1.0115749
C -0.7467876 1.7836697 -1.2104691
O -0.08263462 1.1623541 -0.09709557
C -0.049144797 -0.18294781 -0.09066375
N -0.5693234 -0.88239986 -1.0071955
C 0.69320875 -0.6436072 1.1621186
C 0.797736 -2.0882194 1.286466
C 0.8749494 -3.2840967 1.3734595
H 0.37885278 3.6174016 -0.9749532
H -1.158747 3.797657 -1.841161
H -1.1515136 3.5846083 -0.0800341
H -1.7822089 1.4298371 -1.2492037
H -0.2618682 1.4623061 -2.1380165
H -0.43337193 -1.8732042 -0.81212384
H 1.6893479 -0.184071 1.1526171
H 0.18148291 -0.21731693 2.0338805
H 0.94949824 -4.3398843 1.4611574
