15
title
C -0.7101416 3.282672 -1.0632062
C -0.77509737 1.7784098 -1.2345783
O -0.09356519 1.1800507 -0.10546866
C -0.05122789 -0.15962553 -0.09334925
O -0.52494305 -0.87904024 -0.928445
C 0.6995867 -0.61853886 1.1589411
C 0.8017908 -2.0680473 1.2685622
N 0.901156 -3.2117455 1.3868057
H 0.32644895 3.6298852 -1.0393487
H -1.2173862 3.7698967 -1.900899
H -1.2003795 3.5928931 -0.1363422
H -1.8042194 1.4079585 -1.2555931
H -0.28453228 1.4445019 -2.153579
H 1.7001418 -0.17278123 1.1511794
H 0.19270518 -0.21179163 2.040697
