title
 OpenBabel02282109583D

 15 14  0  0  0  0  0  0  0  0999 V2000
    0.9079    3.4117    0.0232 C   0  0  0  0  0  0  0  0  0  0  0  0
    1.0364    2.0134   -0.1197 O   0  0  0  0  0  0  0  0  0  0  0  0
   -0.1684    1.3389    0.0334 C   0  0  0  0  0  0  0  0  0  0  0  0
    0.0527   -0.1640   -0.0880 C   0  0  0  0  0  0  0  0  0  0  0  0
    1.1320   -0.6792   -0.1505 O   0  0  0  0  0  0  0  0  0  0  0  0
   -1.2636   -0.9717   -0.1375 C   0  0  0  0  0  0  0  0  0  0  0  0
   -1.0816   -2.3918    0.1298 C   0  0  0  0  0  0  0  0  0  0  0  0
   -0.9597   -3.5186    0.3486 N   0  0  0  0  0  0  0  0  0  0  0  0
    1.9031    3.8392   -0.1119 H   0  0  0  0  0  0  0  0  0  0  0  0
    0.2291    3.8381   -0.7317 H   0  0  0  0  0  0  0  0  0  0  0  0
    0.5323    3.6856    1.0212 H   0  0  0  0  0  0  0  0  0  0  0  0
   -0.6302    1.5280    1.0223 H   0  0  0  0  0  0  0  0  0  0  0  0
   -0.9220    1.6492   -0.7158 H   0  0  0  0  0  0  0  0  0  0  0  0
   -1.9938   -0.5524    0.5647 H   0  0  0  0  0  0  0  0  0  0  0  0
   -1.6954   -0.8432   -1.1388 H   0  0  0  0  0  0  0  0  0  0  0  0
  1 11  1  0  0  0  0
  2  1  1  0  0  0  0
  2  3  1  0  0  0  0
  3 12  1  0  0  0  0
  4  3  1  0  0  0  0
  5  4  2  0  0  0  0
  6  4  1  0  0  0  0
  6  7  1  0  0  0  0
  6 14  1  0  0  0  0
  7  8  3  0  0  0  0
  9  1  1  0  0  0  0
 10  1  1  0  0  0  0
 13  3  1  0  0  0  0
 15  6  1  0  0  0  0
M  END
