15
title
O 1.0635082 3.3905098 0.008649859
C 1.2929404 1.9910537 -0.0012770941
C -0.07514972 1.3230419 0.007899546
C 0.00027375773 -0.18991125 -0.0012961068
O 1.0372322 -0.80157506 -0.014785313
C -1.3679925 -0.90406096 0.007890866
C -1.2698277 -2.3577561 -0.00062354567
N -1.2144455 -3.510727 -0.0071402974
H 1.916638 3.8341088 0.0031041354
H 1.852178 1.6725259 -0.89217705
H 1.868824 1.6627243 0.8753499
H -0.64496833 1.6496328 0.88813853
H -0.6613787 1.6593478 -0.8577957
H -1.9324337 -0.5773133 0.8899935
H -1.9487823 -0.5681933 -0.86007273
