17
title
C 1.330565 3.4882517 0.08021774
C 1.5065327 1.975358 -0.070849635
C 0.17117758 1.2320628 -0.027373392
C 0.2801436 -0.25664118 -0.1848611
N 1.3682556 -0.8848982 -0.2844166
O -0.99589723 -0.8291447 -0.24574727
C -1.2307874 -1.9997063 0.41089582
O -2.2516026 -2.5998416 0.2884208
H 2.2966242 4.0001903 0.046115406
H 0.7073366 3.9002938 -0.72132546
H 0.8531537 3.7429354 1.0331606
H 2.012776 1.7447852 -1.0140275
H 2.1584175 1.5878527 0.71865475
H -0.35828558 1.4299027 0.9151815
H -0.50675434 1.5939275 -0.8121074
H 1.2439787 -1.8850405 -0.43824998
H -0.39397135 -2.2910457 1.0686774
