title
 OpenBabel02282109583D

 17 16  0  0  0  0  0  0  0  0999 V2000
    1.0959    3.5982    0.0100 C   0  0  0  0  0  0  0  0  0  0  0  0
    1.2416    2.0749    0.0003 C   0  0  0  0  0  0  0  0  0  0  0  0
   -0.1078    1.3570    0.0085 C   0  0  0  0  0  0  0  0  0  0  0  0
    0.0291   -0.1631   -0.0017 C   0  0  0  0  0  0  0  0  0  0  0  0
    1.0812   -0.7461   -0.0161 O   0  0  0  0  0  0  0  0  0  0  0  0
   -1.2173   -0.8191    0.0079 N   0  0  0  0  0  0  0  0  0  0  0  0
   -1.4705   -2.1879    0.0029 C   0  0  0  0  0  0  0  0  0  0  0  0
   -0.6577   -3.0692   -0.0114 O   0  0  0  0  0  0  0  0  0  0  0  0
    2.0755    4.0851    0.0038 H   0  0  0  0  0  0  0  0  0  0  0  0
    0.5433    3.9538   -0.8671 H   0  0  0  0  0  0  0  0  0  0  0  0
    0.5592    3.9442    0.9006 H   0  0  0  0  0  0  0  0  0  0  0  0
    1.8086    1.7529   -0.8790 H   0  0  0  0  0  0  0  0  0  0  0  0
    1.8242    1.7434    0.8659 H   0  0  0  0  0  0  0  0  0  0  0  0
   -0.6958    1.6462    0.8914 H   0  0  0  0  0  0  0  0  0  0  0  0
   -0.7116    1.6562   -0.8603 H   0  0  0  0  0  0  0  0  0  0  0  0
   -2.0368   -0.2289    0.0201 H   0  0  0  0  0  0  0  0  0  0  0  0
   -2.5659   -2.3689    0.0129 H   0  0  0  0  0  0  0  0  0  0  0  0
  1 11  1  0  0  0  0
  2  3  1  0  0  0  0
  2  1  1  0  0  0  0
  2 13  1  0  0  0  0
  3 14  1  0  0  0  0
  4  6  1  0  0  0  0
  4  3  1  0  0  0  0
  5  4  2  0  0  0  0
  6 16  1  0  0  0  0
  7  6  1  0  0  0  0
  7 17  1  0  0  0  0
  8  7  2  0  0  0  0
  9  1  1  0  0  0  0
 10  1  1  0  0  0  0
 12  2  1  0  0  0  0
 15  3  1  0  0  0  0
M  END
