17
title
C -0.7223899 3.4691746 1.2097331
C -0.764131 1.9425691 1.3069572
C -0.079187736 1.2668877 0.11871552
C -0.107274756 -0.2391767 0.19204508
O -0.59784466 -0.90421504 1.062392
O 0.52680105 -0.7698056 -0.91058695
C 0.6010446 -2.1357028 -1.0184482
N 1.1801591 -2.6164768 -2.0262432
H 0.30849084 3.8393066 1.1810929
H -1.2260991 3.8254266 0.30425346
H -1.2175709 3.9304461 2.0690668
H -0.28429514 1.6093273 2.2333467
H -1.8012197 1.5956221 1.3667382
H -0.54140395 1.5602052 -0.8325964
H 0.9709241 1.5740104 0.031375755
H 0.12965347 -2.6538527 -0.18309738
H 1.162706 -3.6343782 -1.9787835
