17
title
C 1.5067468 3.1135316 -0.46510828
C 1.6651942 1.7409706 0.19163547
N 0.39627606 1.048546 0.36833847
C 0.047895133 -0.050743897 -0.35421562
O 0.7732246 -0.58094174 -1.1782345
C -1.3361799 -0.6214531 -0.047500525
C -1.2391928 -2.09966 0.30133379
O -1.8716363 -2.6208994 1.1815118
H 2.4814613 3.6008282 -0.56621546
H 1.064708 3.0178416 -1.4609069
H 0.86508435 3.7709568 0.13187598
H 2.280935 1.085039 -0.42686686
H 2.1563375 1.8402305 1.1670818
H -0.27381426 1.4330639 1.0142009
H -1.8831271 -0.099572025 0.74139947
H -1.9136771 -0.55165845 -0.97892106
H -0.5296977 -2.6635716 -0.33729696
