title
 OpenBabel02282109583D

 16 15  0  0  0  0  0  0  0  0999 V2000
    1.3500    3.2892   -0.0142 C   0  0  0  0  0  0  0  0  0  0  0  0
    1.4766    1.8330    0.4283 C   0  0  0  0  0  0  0  0  0  0  0  0
    0.1875    1.1540    0.4342 N   0  0  0  0  0  0  0  0  0  0  0  0
    0.0581   -0.1316   -0.0336 C   0  0  0  0  0  0  0  0  0  0  0  0
    0.9471   -0.7701   -0.5412 O   0  0  0  0  0  0  0  0  0  0  0  0
   -1.2693   -0.6100    0.1116 N   0  0  0  0  0  0  0  0  0  0  0  0
   -1.7151   -1.9106   -0.0732 C   0  0  0  0  0  0  0  0  0  0  0  0
   -1.0477   -2.8796   -0.3060 O   0  0  0  0  0  0  0  0  0  0  0  0
    2.3308    3.7739   -0.0056 H   0  0  0  0  0  0  0  0  0  0  0  0
    0.9394    3.3555   -1.0258 H   0  0  0  0  0  0  0  0  0  0  0  0
    0.6953    3.8573    0.6565 H   0  0  0  0  0  0  0  0  0  0  0  0
    2.1125    1.2653   -0.2534 H   0  0  0  0  0  0  0  0  0  0  0  0
    1.9418    1.7776    1.4223 H   0  0  0  0  0  0  0  0  0  0  0  0
   -0.5202    1.5180    1.0526 H   0  0  0  0  0  0  0  0  0  0  0  0
   -1.9896    0.0672    0.3142 H   0  0  0  0  0  0  0  0  0  0  0  0
   -2.8193   -1.9447    0.0405 H   0  0  0  0  0  0  0  0  0  0  0  0
  1  9  1  0  0  0  0
  1  2  1  0  0  0  0
  1 11  1  0  0  0  0
  2  3  1  0  0  0  0
  2 13  1  0  0  0  0
  3 14  1  0  0  0  0
  4  6  1  0  0  0  0
  4  3  1  0  0  0  0
  5  4  2  0  0  0  0
  6 15  1  0  0  0  0
  7 16  1  0  0  0  0
  7  6  1  0  0  0  0
  8  7  2  0  0  0  0
 10  1  1  0  0  0  0
 12  2  1  0  0  0  0
M  END
