16
title
C -1.2676548 2.909644 1.0824578
C -0.47393456 1.7460868 1.6799546
N 0.28501454 1.00431 0.68542594
C -0.10137483 -0.20729262 0.23074453
O -1.0470774 -0.8583421 0.6064299
O 0.7854051 -0.6069128 -0.75660247
C 0.5667462 -1.8267542 -1.3338261
N 1.3593768 -2.2066543 -2.2349274
H -0.6073969 3.627959 0.5849422
H -1.992551 2.5466127 0.34839457
H -1.8104852 3.44202 1.8696501
H 0.21759966 2.110655 2.4481902
H -1.1445793 1.0264635 2.1538405
H 1.074924 1.4331585 0.23024254
H -0.30466667 -2.3358622 -0.9208972
H 1.0772332 -3.126003 -2.571255
