title
 OpenBabel02282109583D

 15 14  0  0  0  0  0  0  0  0999 V2000
   -0.6386    3.2996    1.0455 C   0  0  0  0  0  0  0  0  0  0  0  0
   -0.7042    1.7962    1.2289 C   0  0  0  0  0  0  0  0  0  0  0  0
   -0.0677    1.1906    0.0838 O   0  0  0  0  0  0  0  0  0  0  0  0
   -0.0453   -0.1608    0.0907 C   0  0  0  0  0  0  0  0  0  0  0  0
   -0.4988   -0.8655    0.9468 O   0  0  0  0  0  0  0  0  0  0  0  0
    0.5999   -0.5763   -1.0773 N   0  0  0  0  0  0  0  0  0  0  0  0
    0.8451   -1.8820   -1.4821 C   0  0  0  0  0  0  0  0  0  0  0  0
    0.5436   -2.8832   -0.8952 O   0  0  0  0  0  0  0  0  0  0  0  0
    0.3981    3.6417    0.9816 H   0  0  0  0  0  0  0  0  0  0  0  0
   -1.1608    3.6063    0.1348 H   0  0  0  0  0  0  0  0  0  0  0  0
   -1.1128    3.7952    1.8975 H   0  0  0  0  0  0  0  0  0  0  0  0
   -0.1841    1.4693    2.1344 H   0  0  0  0  0  0  0  0  0  0  0  0
   -1.7346    1.4338    1.2915 H   0  0  0  0  0  0  0  0  0  0  0  0
    0.9171    0.1644   -1.6850 H   0  0  0  0  0  0  0  0  0  0  0  0
    1.3759   -1.8781   -2.4558 H   0  0  0  0  0  0  0  0  0  0  0  0
  1  2  1  0  0  0  0
  1 11  1  0  0  0  0
  2 13  1  0  0  0  0
  2 12  1  0  0  0  0
  3  4  1  0  0  0  0
  3  2  1  0  0  0  0
  4  5  2  0  0  0  0
  6  4  1  0  0  0  0
  7  6  1  0  0  0  0
  7  8  2  0  0  0  0
  9  1  1  0  0  0  0
 10  1  1  0  0  0  0
 14  6  1  0  0  0  0
 15  7  1  0  0  0  0
M  END
