title
 OpenBabel02282109583D

 16 15  0  0  0  0  0  0  0  0999 V2000
    0.0115    2.6737    1.5143 C   0  0  0  0  0  0  0  0  0  0  0  0
   -1.0792    2.1927    0.6676 N   0  0  0  0  0  0  0  0  0  0  0  0
   -0.6558    1.2923   -0.3782 C   0  0  0  0  0  0  0  0  0  0  0  0
   -0.2367   -0.0951    0.0958 C   0  0  0  0  0  0  0  0  0  0  0  0
   -0.4150   -0.5424    1.1957 O   0  0  0  0  0  0  0  0  0  0  0  0
    0.3490   -0.7873   -0.9351 O   0  0  0  0  0  0  0  0  0  0  0  0
    0.7443   -2.0841   -0.7073 C   0  0  0  0  0  0  0  0  0  0  0  0
    1.2802   -2.7100   -1.6565 N   0  0  0  0  0  0  0  0  0  0  0  0
    0.5894    1.8772    2.0079 H   0  0  0  0  0  0  0  0  0  0  0  0
    0.7004    3.2726    0.9079 H   0  0  0  0  0  0  0  0  0  0  0  0
   -0.4000    3.3270    2.2885 H   0  0  0  0  0  0  0  0  0  0  0  0
   -1.7705    1.7257    1.2451 H   0  0  0  0  0  0  0  0  0  0  0  0
   -1.4662    1.1406   -1.1044 H   0  0  0  0  0  0  0  0  0  0  0  0
    0.1734    1.7301   -0.9450 H   0  0  0  0  0  0  0  0  0  0  0  0
    0.5347   -2.4184    0.3090 H   0  0  0  0  0  0  0  0  0  0  0  0
    1.5230   -3.6526   -1.3543 H   0  0  0  0  0  0  0  0  0  0  0  0
  1  9  1  0  0  0  0
  1 11  1  0  0  0  0
  2 12  1  0  0  0  0
  2  1  1  0  0  0  0
  3  4  1  0  0  0  0
  3  2  1  0  0  0  0
  4  5  2  0  0  0  0
  6  7  1  0  0  0  0
  6  4  1  0  0  0  0
  7 15  1  0  0  0  0
  8 16  1  0  0  0  0
  8  7  2  0  0  0  0
 10  1  1  0  0  0  0
 13  3  1  0  0  0  0
 14  3  1  0  0  0  0
M  END
