16
title
C -0.9021005 3.1987734 -0.1378156
O -0.41395277 1.9099567 0.16751361
C -0.09163577 1.1505588 -0.98044145
C 0.3155117 -0.2557127 -0.5727862
N 1.0283213 -0.9506423 -1.3557732
N -0.22095934 -0.63479847 0.66997015
C -0.082717605 -1.8524247 1.2825619
O 0.49397063 -2.813981 0.82474244
H -0.15373862 3.7925663 -0.6820998
H -1.8171347 3.1497002 -0.74721915
H -1.1285653 3.6937 0.8089373
H -0.96328354 1.0863172 -1.6533079
H 0.7342769 1.5967208 -1.5483738
H 1.1725154 -1.8866094 -0.9757024
H -0.69009113 0.10724205 1.1722268
H -0.57585114 -1.8652657 2.273564
