title
 OpenBabel02282109583D

 15 14  0  0  0  0  0  0  0  0999 V2000
   -1.3215    2.0740    0.8977 C   0  0  0  0  0  0  0  0  0  0  0  0
   -0.4825    1.9502   -0.2350 O   0  0  0  0  0  0  0  0  0  0  0  0
    0.8092    1.4821    0.0704 C   0  0  0  0  0  0  0  0  0  0  0  0
    0.8336   -0.0006    0.3747 C   0  0  0  0  0  0  0  0  0  0  0  0
    1.2707   -0.4702    1.4609 N   0  0  0  0  0  0  0  0  0  0  0  0
    0.3584   -0.7332   -0.7060 O   0  0  0  0  0  0  0  0  0  0  0  0
   -0.4677   -1.7960   -0.4800 C   0  0  0  0  0  0  0  0  0  0  0  0
   -0.7824   -2.5471   -1.3466 O   0  0  0  0  0  0  0  0  0  0  0  0
   -1.4974    1.1097    1.3961 H   0  0  0  0  0  0  0  0  0  0  0  0
   -0.8975    2.7686    1.6378 H   0  0  0  0  0  0  0  0  0  0  0  0
   -2.2759    2.4674    0.5420 H   0  0  0  0  0  0  0  0  0  0  0  0
    1.4216    1.6634   -0.8195 H   0  0  0  0  0  0  0  0  0  0  0  0
    1.2533    2.0068    0.9258 H   0  0  0  0  0  0  0  0  0  0  0  0
    1.2805   -1.4911    1.4802 H   0  0  0  0  0  0  0  0  0  0  0  0
   -0.8112   -1.8458    0.5674 H   0  0  0  0  0  0  0  0  0  0  0  0
  1  9  1  0  0  0  0
  1 10  1  0  0  0  0
  2  3  1  0  0  0  0
  2  1  1  0  0  0  0
  3  4  1  0  0  0  0
  3 13  1  0  0  0  0
  4  5  2  0  0  0  0
  5 14  1  0  0  0  0
  6  7  1  0  0  0  0
  6  4  1  0  0  0  0
  7 15  1  0  0  0  0
  8  7  2  0  0  0  0
 11  1  1  0  0  0  0
 12  3  1  0  0  0  0
M  END
