15
title
C -1.3214906 2.0740383 0.8976813
O -0.4824751 1.9502496 -0.2350356
C 0.8092274 1.4820553 0.07041294
C 0.833648 -0.0006080172 0.37467587
N 1.2707418 -0.47020954 1.4609063
O 0.35841712 -0.7331683 -0.70603186
C -0.46773964 -1.7960411 -0.48000616
O -0.7824112 -2.5470872 -1.34665
H -1.4974331 1.1097069 1.3961397
H -0.897496 2.7685728 1.6378152
H -2.2758775 2.4673657 0.5419669
H 1.4215745 1.6633565 -0.81953603
H 1.253322 2.0068257 0.9258023
H 1.2805176 -1.4911088 1.4801539
H -0.81120616 -1.8458427 0.5674401
