16
title
C 0.7547837 3.236512 0.6727653
O 0.5082275 1.8480381 0.61316055
C 0.59590787 1.3278422 -0.68710613
C 0.26177233 -0.16216445 -0.70079625
O 0.47812635 -0.82129693 -1.6902192
C -0.3667125 -0.7441044 0.55516493
C -0.61884636 -2.2338717 0.44438246
O -1.6590358 -2.7585986 0.7450156
H 0.6592951 3.5379987 1.7179173
H 1.7671474 3.4834442 0.3191231
H 0.029404815 3.8017604 0.068080366
H -0.11101931 1.828778 -1.3723036
H 1.6011821 1.4548076 -1.1196458
H 0.3124538 -0.54570866 1.3963398
H -1.2968696 -0.21833372 0.7943938
H 0.2452293 -2.8251336 0.07735091
