title
 OpenBabel02282109583D

 16 15  0  0  0  0  0  0  0  0999 V2000
    0.7548    3.2365    0.6728 C   0  0  0  0  0  0  0  0  0  0  0  0
    0.5082    1.8480    0.6132 O   0  0  0  0  0  0  0  0  0  0  0  0
    0.5959    1.3278   -0.6871 C   0  0  0  0  0  0  0  0  0  0  0  0
    0.2618   -0.1622   -0.7008 C   0  0  0  0  0  0  0  0  0  0  0  0
    0.4781   -0.8213   -1.6902 O   0  0  0  0  0  0  0  0  0  0  0  0
   -0.3667   -0.7441    0.5552 C   0  0  0  0  0  0  0  0  0  0  0  0
   -0.6188   -2.2339    0.4444 C   0  0  0  0  0  0  0  0  0  0  0  0
   -1.6590   -2.7586    0.7450 O   0  0  0  0  0  0  0  0  0  0  0  0
    0.6593    3.5380    1.7179 H   0  0  0  0  0  0  0  0  0  0  0  0
    1.7671    3.4834    0.3191 H   0  0  0  0  0  0  0  0  0  0  0  0
    0.0294    3.8018    0.0681 H   0  0  0  0  0  0  0  0  0  0  0  0
   -0.1110    1.8288   -1.3723 H   0  0  0  0  0  0  0  0  0  0  0  0
    1.6012    1.4548   -1.1196 H   0  0  0  0  0  0  0  0  0  0  0  0
    0.3125   -0.5457    1.3963 H   0  0  0  0  0  0  0  0  0  0  0  0
   -1.2969   -0.2183    0.7944 H   0  0  0  0  0  0  0  0  0  0  0  0
    0.2452   -2.8251    0.0774 H   0  0  0  0  0  0  0  0  0  0  0  0
  1  9  1  0  0  0  0
  2  1  1  0  0  0  0
  3  2  1  0  0  0  0
  4  3  1  0  0  0  0
  4  6  1  0  0  0  0
  5  4  2  0  0  0  0
  6 15  1  0  0  0  0
  6 14  1  0  0  0  0
  7  6  1  0  0  0  0
  7  8  2  0  0  0  0
 10  1  1  0  0  0  0
 11  1  1  0  0  0  0
 12  3  1  0  0  0  0
 13  3  1  0  0  0  0
 16  7  1  0  0  0  0
M  END
