16
title
O 1.2184758 3.3263288 -0.0816292
C 1.3934675 1.9155793 -0.06741219
C -0.00023923672 1.3064734 -0.019131215
C 0.0038566752 -0.2034356 0.0016458462
N 1.0795456 -0.87291497 -0.024457436
N -1.3070973 -0.74320906 0.051827863
C -1.6543139 -2.0702164 0.08060957
O -0.88565624 -3.0051954 0.06769855
H 2.0894334 3.7317395 -0.11584613
H 1.9216611 1.5580318 -0.961108
H 1.9722655 1.5822557 0.80411637
H -0.52652025 1.6846406 0.8679159
H -0.5764117 1.660001 -0.88509834
H 0.8881655 -1.874773 -0.0046674106
H -2.0705926 -0.08306974 0.068232276
H -2.7534447 -2.199311 0.11832235
