title
 OpenBabel02282109583D

 16 15  0  0  0  0  0  0  0  0999 V2000
    1.2185    3.3263   -0.0816 O   0  0  0  0  0  0  0  0  0  0  0  0
    1.3935    1.9156   -0.0674 C   0  0  0  0  0  0  0  0  0  0  0  0
   -0.0002    1.3065   -0.0191 C   0  0  0  0  0  0  0  0  0  0  0  0
    0.0039   -0.2034    0.0016 C   0  0  0  0  0  0  0  0  0  0  0  0
    1.0795   -0.8729   -0.0245 N   0  0  0  0  0  0  0  0  0  0  0  0
   -1.3071   -0.7432    0.0518 N   0  0  0  0  0  0  0  0  0  0  0  0
   -1.6543   -2.0702    0.0806 C   0  0  0  0  0  0  0  0  0  0  0  0
   -0.8857   -3.0052    0.0677 O   0  0  0  0  0  0  0  0  0  0  0  0
    2.0894    3.7317   -0.1158 H   0  0  0  0  0  0  0  0  0  0  0  0
    1.9217    1.5580   -0.9611 H   0  0  0  0  0  0  0  0  0  0  0  0
    1.9723    1.5823    0.8041 H   0  0  0  0  0  0  0  0  0  0  0  0
   -0.5265    1.6846    0.8679 H   0  0  0  0  0  0  0  0  0  0  0  0
   -0.5764    1.6600   -0.8851 H   0  0  0  0  0  0  0  0  0  0  0  0
    0.8882   -1.8748   -0.0047 H   0  0  0  0  0  0  0  0  0  0  0  0
   -2.0706   -0.0831    0.0682 H   0  0  0  0  0  0  0  0  0  0  0  0
   -2.7534   -2.1993    0.1183 H   0  0  0  0  0  0  0  0  0  0  0  0
  1  2  1  0  0  0  0
  2  3  1  0  0  0  0
  2 11  1  0  0  0  0
  3  4  1  0  0  0  0
  3 12  1  0  0  0  0
  4  6  1  0  0  0  0
  5 14  1  0  0  0  0
  5  4  2  0  0  0  0
  6 15  1  0  0  0  0
  6  7  1  0  0  0  0
  7 16  1  0  0  0  0
  8  7  2  0  0  0  0
  9  1  1  0  0  0  0
 10  2  1  0  0  0  0
 13  3  1  0  0  0  0
M  END
