title
 OpenBabel02282109583D

 15 14  0  0  0  0  0  0  0  0999 V2000
    1.1885    3.3142    0.1264 O   0  0  0  0  0  0  0  0  0  0  0  0
    1.4853    1.9315    0.0090 C   0  0  0  0  0  0  0  0  0  0  0  0
    0.1477    1.2045   -0.0248 C   0  0  0  0  0  0  0  0  0  0  0  0
    0.2706   -0.2820   -0.1574 C   0  0  0  0  0  0  0  0  0  0  0  0
    1.3700   -0.9000   -0.1724 N   0  0  0  0  0  0  0  0  0  0  0  0
   -0.9912   -0.8629   -0.3016 O   0  0  0  0  0  0  0  0  0  0  0  0
   -1.2607   -2.0351    0.3421 C   0  0  0  0  0  0  0  0  0  0  0  0
   -2.2614   -2.6479    0.1449 O   0  0  0  0  0  0  0  0  0  0  0  0
    2.0195    3.7969    0.1507 H   0  0  0  0  0  0  0  0  0  0  0  0
    2.0500    1.7089   -0.9072 H   0  0  0  0  0  0  0  0  0  0  0  0
    2.0847    1.5669    0.8546 H   0  0  0  0  0  0  0  0  0  0  0  0
   -0.4259    1.4336    0.8820 H   0  0  0  0  0  0  0  0  0  0  0  0
   -0.4607    1.5779   -0.8571 H   0  0  0  0  0  0  0  0  0  0  0  0
    1.2689   -1.9031   -0.3233 H   0  0  0  0  0  0  0  0  0  0  0  0
   -0.4729   -2.3117    1.0634 H   0  0  0  0  0  0  0  0  0  0  0  0
  1  9  1  0  0  0  0
  2  1  1  0  0  0  0
  2 11  1  0  0  0  0
  3  2  1  0  0  0  0
  3 12  1  0  0  0  0
  4  3  1  0  0  0  0
  5  4  2  0  0  0  0
  6  4  1  0  0  0  0
  6  7  1  0  0  0  0
  7 15  1  0  0  0  0
  8  7  2  0  0  0  0
 10  2  1  0  0  0  0
 13  3  1  0  0  0  0
 14  5  1  0  0  0  0
M  END
