title
 OpenBabel02282109583D

 16 15  0  0  0  0  0  0  0  0999 V2000
    1.0976    3.2879   -0.4871 O   0  0  0  0  0  0  0  0  0  0  0  0
    1.3858    1.9503   -0.1118 C   0  0  0  0  0  0  0  0  0  0  0  0
    0.0517    1.2370    0.0494 C   0  0  0  0  0  0  0  0  0  0  0  0
    0.1862   -0.2117    0.4620 C   0  0  0  0  0  0  0  0  0  0  0  0
    1.2565   -0.7510    0.6350 O   0  0  0  0  0  0  0  0  0  0  0  0
   -1.1129   -1.0010    0.6375 C   0  0  0  0  0  0  0  0  0  0  0  0
   -1.0882   -2.2763   -0.1951 C   0  0  0  0  0  0  0  0  0  0  0  0
   -2.0144   -2.6610   -0.8570 O   0  0  0  0  0  0  0  0  0  0  0  0
    1.9316    3.7522   -0.6029 H   0  0  0  0  0  0  0  0  0  0  0  0
    1.9901    1.4328   -0.8703 H   0  0  0  0  0  0  0  0  0  0  0  0
    1.9462    1.9016    0.8329 H   0  0  0  0  0  0  0  0  0  0  0  0
   -0.5705    1.7590    0.7894 H   0  0  0  0  0  0  0  0  0  0  0  0
   -0.5208    1.2831   -0.8874 H   0  0  0  0  0  0  0  0  0  0  0  0
   -1.1517   -1.3109    1.6909 H   0  0  0  0  0  0  0  0  0  0  0  0
   -2.0109   -0.4255    0.4056 H   0  0  0  0  0  0  0  0  0  0  0  0
   -0.1275   -2.8282   -0.1391 H   0  0  0  0  0  0  0  0  0  0  0  0
  1  2  1  0  0  0  0
  2  3  1  0  0  0  0
  2 11  1  0  0  0  0
  3  4  1  0  0  0  0
  3 12  1  0  0  0  0
  4  5  2  0  0  0  0
  4  6  1  0  0  0  0
  6 14  1  0  0  0  0
  7 16  1  0  0  0  0
  7  6  1  0  0  0  0
  8  7  2  0  0  0  0
  9  1  1  0  0  0  0
 10  2  1  0  0  0  0
 13  3  1  0  0  0  0
 15  6  1  0  0  0  0
M  END
