16
title
O 1.0975893 3.287917 -0.4870974
C 1.3858403 1.9503212 -0.11178713
C 0.051749304 1.2370083 0.04943138
C 0.18615194 -0.21173245 0.46199462
O 1.2565165 -0.7509778 0.6350367
C -1.1128659 -1.0010239 0.6375468
C -1.0881805 -2.2762613 -0.19506986
O -2.0143557 -2.6610003 -0.85695004
H 1.9315623 3.7522304 -0.6029475
H 1.9900526 1.432779 -0.87031704
H 1.946156 1.901553 0.83288103
H -0.5704784 1.7589564 0.78935957
H -0.520819 1.283054 -0.8873564
H -1.1516547 -1.310902 1.6909343
H -2.010886 -0.42554718 0.40555826
H -0.12747602 -2.8282037 -0.13905257
