title
 OpenBabel02282109583D

 15 14  0  0  0  0  0  0  0  0999 V2000
    0.9580    3.4197    0.0100 O   0  0  0  0  0  0  0  0  0  0  0  0
    1.2238    2.0257   -0.0004 C   0  0  0  0  0  0  0  0  0  0  0  0
   -0.1259    1.3220    0.0091 C   0  0  0  0  0  0  0  0  0  0  0  0
    0.0155   -0.1930   -0.0010 C   0  0  0  0  0  0  0  0  0  0  0  0
    1.0732   -0.7681   -0.0158 O   0  0  0  0  0  0  0  0  0  0  0  0
   -1.2259   -0.8540    0.0076 N   0  0  0  0  0  0  0  0  0  0  0  0
   -1.4703   -2.2254    0.0018 C   0  0  0  0  0  0  0  0  0  0  0  0
   -0.6507   -3.1000   -0.0114 O   0  0  0  0  0  0  0  0  0  0  0  0
    1.8001    3.8837    0.0051 H   0  0  0  0  0  0  0  0  0  0  0  0
    1.7904    1.7220   -0.8914 H   0  0  0  0  0  0  0  0  0  0  0  0
    1.8079    1.7121    0.8757 H   0  0  0  0  0  0  0  0  0  0  0  0
   -0.6966    1.6320    0.8939 H   0  0  0  0  0  0  0  0  0  0  0  0
   -0.7140    1.6419   -0.8607 H   0  0  0  0  0  0  0  0  0  0  0  0
   -2.0483   -0.2678    0.0196 H   0  0  0  0  0  0  0  0  0  0  0  0
   -2.5641   -2.4135    0.0122 H   0  0  0  0  0  0  0  0  0  0  0  0
  2  3  1  0  0  0  0
  2  1  1  0  0  0  0
  2 11  1  0  0  0  0
  3 12  1  0  0  0  0
  4  6  1  0  0  0  0
  4  3  1  0  0  0  0
  5  4  2  0  0  0  0
  6 14  1  0  0  0  0
  7  6  1  0  0  0  0
  7 15  1  0  0  0  0
  8  7  2  0  0  0  0
  9  1  1  0  0  0  0
 10  2  1  0  0  0  0
 13  3  1  0  0  0  0
M  END
