22
title
C -0.757073 3.586449 1.275397
C -0.77791464 2.0575686 1.3428675
C -0.09517324 1.4042287 0.14127044
C -0.09912735 -0.12001726 0.17656116
O -0.6084826 -0.7373652 1.0850763
C 0.5744393 -0.82302064 -0.996759
C 0.5378078 -2.348995 -0.91379386
C 1.222637 -3.0223548 -2.1054552
H 0.26865005 3.9715695 1.2460872
H -1.2716335 3.9543307 0.3803112
H -1.2516172 4.027108 2.1464562
H -0.28948855 1.7127337 2.2605019
H -1.8096424 1.6956236 1.4059129
H -0.5693393 1.7220865 -0.7988866
H 0.9489771 1.7386535 0.05434351
H 0.09768516 -0.46951672 -1.9227208
H 1.6105031 -0.45921227 -1.0596832
H 1.0097533 -2.6657183 0.022369673
H -0.50485265 -2.6764686 -0.84211546
H 0.7432537 -2.7451212 -3.0512984
H 2.2778614 -2.7344363 -2.1753967
H 1.1816555 -4.1125736 -2.020358
