title
 OpenBabel02282109583D

 20 19  0  0  0  0  0  0  0  0999 V2000
   -0.7956    3.6263   -1.2422 C   0  0  0  0  0  0  0  0  0  0  0  0
   -0.8164    2.0981   -1.3229 C   0  0  0  0  0  0  0  0  0  0  0  0
   -0.1084    1.4355   -0.1412 C   0  0  0  0  0  0  0  0  0  0  0  0
   -0.1118   -0.0868   -0.1896 C   0  0  0  0  0  0  0  0  0  0  0  0
   -0.6388   -0.6999   -1.0924 O   0  0  0  0  0  0  0  0  0  0  0  0
    0.5837   -0.7994    0.9594 C   0  0  0  0  0  0  0  0  0  0  0  0
    0.5374   -2.3157    0.8451 C   0  0  0  0  0  0  0  0  0  0  0  0
    1.2191   -2.8422    1.9749 O   0  0  0  0  0  0  0  0  0  0  0  0
    0.2301    4.0123   -1.2304 H   0  0  0  0  0  0  0  0  0  0  0  0
   -1.3082    4.0738   -2.0991 H   0  0  0  0  0  0  0  0  0  0  0  0
   -1.2922    3.9855   -0.3336 H   0  0  0  0  0  0  0  0  0  0  0  0
   -1.8489    1.7356   -1.3679 H   0  0  0  0  0  0  0  0  0  0  0  0
   -0.3463    1.7621   -2.2533 H   0  0  0  0  0  0  0  0  0  0  0  0
    0.9372    1.7693   -0.0722 H   0  0  0  0  0  0  0  0  0  0  0  0
   -0.5630    1.7437    0.8117 H   0  0  0  0  0  0  0  0  0  0  0  0
    1.6268   -0.4606    1.0129 H   0  0  0  0  0  0  0  0  0  0  0  0
    0.1285   -0.4821    1.9068 H   0  0  0  0  0  0  0  0  0  0  0  0
   -0.5088   -2.6507    0.8074 H   0  0  0  0  0  0  0  0  0  0  0  0
    1.0079   -2.6287   -0.0977 H   0  0  0  0  0  0  0  0  0  0  0  0
    1.1976   -3.8016    1.9143 H   0  0  0  0  0  0  0  0  0  0  0  0
  1  9  1  0  0  0  0
  1 11  1  0  0  0  0
  2  1  1  0  0  0  0
  2  3  1  0  0  0  0
  3 14  1  0  0  0  0
  3 15  1  0  0  0  0
  4  3  1  0  0  0  0
  4  6  1  0  0  0  0
  5  4  2  0  0  0  0
  6 16  1  0  0  0  0
  6 17  1  0  0  0  0
  7  6  1  0  0  0  0
  7  8  1  0  0  0  0
 10  1  1  0  0  0  0
 12  2  1  0  0  0  0
 13  2  1  0  0  0  0
 18  7  1  0  0  0  0
 19  7  1  0  0  0  0
 20  8  1  0  0  0  0
M  END
