title
 OpenBabel02282109583D

 20 19  0  0  0  0  0  0  0  0999 V2000
    1.3881    3.6107    0.0448 C   0  0  0  0  0  0  0  0  0  0  0  0
    1.4861    2.0857    0.1227 C   0  0  0  0  0  0  0  0  0  0  0  0
    0.1324    1.3960   -0.0531 C   0  0  0  0  0  0  0  0  0  0  0  0
    0.2170   -0.1258   -0.0501 C   0  0  0  0  0  0  0  0  0  0  0  0
    1.2577   -0.7252   -0.1524 O   0  0  0  0  0  0  0  0  0  0  0  0
   -1.1257   -0.8408    0.0922 C   0  0  0  0  0  0  0  0  0  0  0  0
   -0.9713   -2.2152   -0.0815 O   0  0  0  0  0  0  0  0  0  0  0  0
   -2.1780   -2.9252    0.0702 C   0  0  0  0  0  0  0  0  0  0  0  0
    2.3700    4.0757    0.1753 H   0  0  0  0  0  0  0  0  0  0  0  0
    0.9929    3.9361   -0.9242 H   0  0  0  0  0  0  0  0  0  0  0  0
    0.7259    4.0107    0.8212 H   0  0  0  0  0  0  0  0  0  0  0  0
    2.1737    1.7078   -0.6402 H   0  0  0  0  0  0  0  0  0  0  0  0
    1.9175    1.7855    1.0844 H   0  0  0  0  0  0  0  0  0  0  0  0
   -0.5817    1.7179    0.7179 H   0  0  0  0  0  0  0  0  0  0  0  0
   -0.3269    1.6931   -1.0083 H   0  0  0  0  0  0  0  0  0  0  0  0
   -1.5318   -0.5964    1.0928 H   0  0  0  0  0  0  0  0  0  0  0  0
   -1.8381   -0.4090   -0.6357 H   0  0  0  0  0  0  0  0  0  0  0  0
   -1.9518   -3.9828   -0.0824 H   0  0  0  0  0  0  0  0  0  0  0  0
   -2.6067   -2.7936    1.0766 H   0  0  0  0  0  0  0  0  0  0  0  0
   -2.9341   -2.6123   -0.6675 H   0  0  0  0  0  0  0  0  0  0  0  0
  1  2  1  0  0  0  0
  1  9  1  0  0  0  0
  1 11  1  0  0  0  0
  2 13  1  0  0  0  0
  3  4  1  0  0  0  0
  3  2  1  0  0  0  0
  3 14  1  0  0  0  0
  4  6  1  0  0  0  0
  5  4  2  0  0  0  0
  6 16  1  0  0  0  0
  7  8  1  0  0  0  0
  7  6  1  0  0  0  0
  8 19  1  0  0  0  0
 10  1  1  0  0  0  0
 12  2  1  0  0  0  0
 15  3  1  0  0  0  0
 17  6  1  0  0  0  0
 18  8  1  0  0  0  0
 20  8  1  0  0  0  0
M  END
