title
 OpenBabel02282109583D

 21 20  0  0  0  0  0  0  0  0999 V2000
   -0.4984    3.4151   -1.4576 C   0  0  0  0  0  0  0  0  0  0  0  0
   -0.1981    1.9167   -1.3878 C   0  0  0  0  0  0  0  0  0  0  0  0
   -0.5242    1.3063   -0.0203 C   0  0  0  0  0  0  0  0  0  0  0  0
   -0.3773   -0.2141   -0.0194 C   0  0  0  0  0  0  0  0  0  0  0  0
   -0.7023   -0.8980   -0.9755 O   0  0  0  0  0  0  0  0  0  0  0  0
    0.1167   -0.7460    1.1380 N   0  0  0  0  0  0  0  0  0  0  0  0
    0.3165   -2.1730    1.3327 C   0  0  0  0  0  0  0  0  0  0  0  0
    1.7945   -2.5658    1.3875 C   0  0  0  0  0  0  0  0  0  0  0  0
    0.0821    3.9775   -0.7171 H   0  0  0  0  0  0  0  0  0  0  0  0
   -0.2561    3.8204   -2.4448 H   0  0  0  0  0  0  0  0  0  0  0  0
   -1.5586    3.6166   -1.2666 H   0  0  0  0  0  0  0  0  0  0  0  0
   -0.7700    1.3720   -2.1445 H   0  0  0  0  0  0  0  0  0  0  0  0
    0.8594    1.7383   -1.6189 H   0  0  0  0  0  0  0  0  0  0  0  0
    0.0911    1.7614    0.7660 H   0  0  0  0  0  0  0  0  0  0  0  0
   -1.5693    1.5275    0.2372 H   0  0  0  0  0  0  0  0  0  0  0  0
    0.3994   -0.1181    1.8726 H   0  0  0  0  0  0  0  0  0  0  0  0
   -0.1929   -2.4883    2.2521 H   0  0  0  0  0  0  0  0  0  0  0  0
   -0.1801   -2.6612    0.4917 H   0  0  0  0  0  0  0  0  0  0  0  0
    2.2986   -2.3034    0.4530 H   0  0  0  0  0  0  0  0  0  0  0  0
    2.3132   -2.0584    2.2087 H   0  0  0  0  0  0  0  0  0  0  0  0
    1.8977   -3.6443    1.5441 H   0  0  0  0  0  0  0  0  0  0  0  0
  1  2  1  0  0  0  0
  1 11  1  0  0  0  0
  1  9  1  0  0  0  0
  2  3  1  0  0  0  0
  3  4  1  0  0  0  0
  3 15  1  0  0  0  0
  3 14  1  0  0  0  0
  4  6  1  0  0  0  0
  5  4  2  0  0  0  0
  6  7  1  0  0  0  0
  6 16  1  0  0  0  0
  7  8  1  0  0  0  0
  7 17  1  0  0  0  0
  8 21  1  0  0  0  0
  8 20  1  0  0  0  0
 10  1  1  0  0  0  0
 12  2  1  0  0  0  0
 13  2  1  0  0  0  0
 18  7  1  0  0  0  0
 19  8  1  0  0  0  0
M  END
