19
title
C 1.6497015 3.000866 -0.6839549
C 1.6516001 1.9661798 0.44326258
N 0.40466648 1.2230743 0.53053826
C 0.30634123 -0.105747014 0.233912
O 1.2587231 -0.77780557 -0.12738775
C -1.086688 -0.69874835 0.41684008
C -1.3155937 -1.8947871 -0.49815395
O -2.5969849 -2.423683 -0.18735941
H 2.6008506 3.542185 -0.7068033
H 1.505577 2.515948 -1.6537046
H 0.84989613 3.737708 -0.5493698
H 2.4326432 1.2207308 0.28075433
H 1.8505939 2.4554098 1.4051248
H -0.43208486 1.7189322 0.7917194
H -1.1880496 -1.0317609 1.4574826
H -1.8659787 0.05340967 0.25055873
H -1.2572298 -1.5753877 -1.5502653
H -0.51398355 -2.625519 -0.3349902
H -2.7271824 -3.2151196 -0.7174017
