title
 OpenBabel02282109583D

 19 18  0  0  0  0  0  0  0  0999 V2000
    0.0891    2.2567    2.2449 C   0  0  0  0  0  0  0  0  0  0  0  0
   -0.7653    1.9155    1.0219 C   0  0  0  0  0  0  0  0  0  0  0  0
   -0.1934    0.8533    0.2134 N   0  0  0  0  0  0  0  0  0  0  0  0
   -0.7432   -0.3815    0.1208 C   0  0  0  0  0  0  0  0  0  0  0  0
   -1.7755   -0.7342    0.6650 O   0  0  0  0  0  0  0  0  0  0  0  0
    0.0346   -1.3641   -0.7555 C   0  0  0  0  0  0  0  0  0  0  0  0
    1.2053   -0.7768   -1.2783 O   0  0  0  0  0  0  0  0  0  0  0  0
    1.9478   -1.6478   -2.1016 C   0  0  0  0  0  0  0  0  0  0  0  0
    0.1897    1.3875    2.9012 H   0  0  0  0  0  0  0  0  0  0  0  0
    1.0940    2.5797    1.9515 H   0  0  0  0  0  0  0  0  0  0  0  0
   -0.3701    3.0694    2.8168 H   0  0  0  0  0  0  0  0  0  0  0  0
   -1.7534    1.5648    1.3280 H   0  0  0  0  0  0  0  0  0  0  0  0
   -0.9053    2.8078    0.3990 H   0  0  0  0  0  0  0  0  0  0  0  0
    0.6762    0.9988   -0.2764 H   0  0  0  0  0  0  0  0  0  0  0  0
    0.2684   -2.2460   -0.1396 H   0  0  0  0  0  0  0  0  0  0  0  0
   -0.6390   -1.6996   -1.5592 H   0  0  0  0  0  0  0  0  0  0  0  0
    2.2805   -2.5401   -1.5499 H   0  0  0  0  0  0  0  0  0  0  0  0
    1.3617   -1.9784   -2.9724 H   0  0  0  0  0  0  0  0  0  0  0  0
    2.8251   -1.0990   -2.4514 H   0  0  0  0  0  0  0  0  0  0  0  0
  1 11  1  0  0  0  0
  1  9  1  0  0  0  0
  2 12  1  0  0  0  0
  2  1  1  0  0  0  0
  3  2  1  0  0  0  0
  4  3  1  0  0  0  0
  4  5  2  0  0  0  0
  6 15  1  0  0  0  0
  6  4  1  0  0  0  0
  7  6  1  0  0  0  0
  8 17  1  0  0  0  0
  8  7  1  0  0  0  0
 10  1  1  0  0  0  0
 13  2  1  0  0  0  0
 14  3  1  0  0  0  0
 16  6  1  0  0  0  0
 18  8  1  0  0  0  0
 19  8  1  0  0  0  0
M  END
