20
title
C -1.2198318 3.0404284 1.5789572
C -0.44179165 1.7316912 1.7003831
N -0.09614373 1.1872569 0.39581096
C -0.09896494 -0.17802157 0.17779195
O -0.54453534 -0.9813374 0.98080474
N 0.45068997 -0.54721725 -1.0359005
C 0.3391661 -1.9164668 -1.5159928
C 1.5982286 -2.359979 -2.2582726
H -0.63388133 3.8096466 1.0623573
H -2.1476076 2.890728 1.0192088
H -1.4706131 3.4286137 2.5710208
H 0.45866328 1.8861976 2.3137016
H -1.0362437 0.96407956 2.1990323
H 0.5279488 1.742404 -0.16949952
H 0.53206736 0.16900907 -1.7413377
H 0.16489547 -2.5321896 -0.631812
H -0.54080796 -2.0353262 -2.1658847
H 1.7882136 -1.732895 -3.1372375
H 2.4747689 -2.3014472 -1.6065487
H 1.4919919 -3.3919346 -2.6069264
