title
 OpenBabel02282109583D

 19 18  0  0  0  0  0  0  0  0999 V2000
   -0.3841    2.8778    1.6459 C   0  0  0  0  0  0  0  0  0  0  0  0
   -1.3188    1.7290    1.2574 C   0  0  0  0  0  0  0  0  0  0  0  0
   -0.8630    0.9784    0.1009 N   0  0  0  0  0  0  0  0  0  0  0  0
   -0.1699   -0.1872    0.2239 C   0  0  0  0  0  0  0  0  0  0  0  0
    0.0291   -0.7875    1.2580 O   0  0  0  0  0  0  0  0  0  0  0  0
    0.2589   -0.5981   -0.9981 O   0  0  0  0  0  0  0  0  0  0  0  0
    0.9802   -1.8407   -1.0036 C   0  0  0  0  0  0  0  0  0  0  0  0
    1.3803   -2.1295   -2.4382 C   0  0  0  0  0  0  0  0  0  0  0  0
    0.6092    2.4958    1.8985 H   0  0  0  0  0  0  0  0  0  0  0  0
   -0.2761    3.5974    0.8270 H   0  0  0  0  0  0  0  0  0  0  0  0
   -0.7780    3.4148    2.5149 H   0  0  0  0  0  0  0  0  0  0  0  0
   -1.3979    1.0113    2.0768 H   0  0  0  0  0  0  0  0  0  0  0  0
   -2.3256    2.1114    1.0528 H   0  0  0  0  0  0  0  0  0  0  0  0
   -0.8660    1.4126   -0.8076 H   0  0  0  0  0  0  0  0  0  0  0  0
    1.8520   -1.7537   -0.3473 H   0  0  0  0  0  0  0  0  0  0  0  0
    0.3413   -2.6293   -0.5932 H   0  0  0  0  0  0  0  0  0  0  0  0
    0.4988   -2.2144   -3.0802 H   0  0  0  0  0  0  0  0  0  0  0  0
    2.0179   -1.3336   -2.8339 H   0  0  0  0  0  0  0  0  0  0  0  0
    1.9345   -3.0715   -2.4871 H   0  0  0  0  0  0  0  0  0  0  0  0
  1  9  1  0  0  0  0
  1 11  1  0  0  0  0
  2  1  1  0  0  0  0
  2 12  1  0  0  0  0
  3  4  1  0  0  0  0
  3  2  1  0  0  0  0
  4  5  2  0  0  0  0
  6  4  1  0  0  0  0
  7  6  1  0  0  0  0
  7 16  1  0  0  0  0
  7 15  1  0  0  0  0
  8  7  1  0  0  0  0
 10  1  1  0  0  0  0
 13  2  1  0  0  0  0
 14  3  1  0  0  0  0
 17  8  1  0  0  0  0
 18  8  1  0  0  0  0
 19  8  1  0  0  0  0
M  END
