title
 OpenBabel02282109583D

 19 18  0  0  0  0  0  0  0  0999 V2000
   -0.5417    3.1264    1.5266 C   0  0  0  0  0  0  0  0  0  0  0  0
   -0.5350    1.6105    1.5545 C   0  0  0  0  0  0  0  0  0  0  0  0
   -0.3037    1.1484    0.2067 O   0  0  0  0  0  0  0  0  0  0  0  0
   -0.2484   -0.1844    0.0401 C   0  0  0  0  0  0  0  0  0  0  0  0
   -0.3643   -0.9853    0.9353 O   0  0  0  0  0  0  0  0  0  0  0  0
   -0.0625   -0.5540   -1.4330 C   0  0  0  0  0  0  0  0  0  0  0  0
    0.3119   -1.9322   -1.6654 N   0  0  0  0  0  0  0  0  0  0  0  0
    1.6894   -2.2343   -1.2795 C   0  0  0  0  0  0  0  0  0  0  0  0
    0.4152    3.5145    1.1665 H   0  0  0  0  0  0  0  0  0  0  0  0
   -1.3332    3.5021    0.8720 H   0  0  0  0  0  0  0  0  0  0  0  0
   -0.7142    3.5155    2.5345 H   0  0  0  0  0  0  0  0  0  0  0  0
    0.2530    1.2143    2.2025 H   0  0  0  0  0  0  0  0  0  0  0  0
   -1.4863    1.2016    1.9095 H   0  0  0  0  0  0  0  0  0  0  0  0
   -1.0142   -0.3340   -1.9357 H   0  0  0  0  0  0  0  0  0  0  0  0
    0.6778    0.1192   -1.8781 H   0  0  0  0  0  0  0  0  0  0  0  0
   -0.3136   -2.5245   -1.1279 H   0  0  0  0  0  0  0  0  0  0  0  0
    2.3763   -1.6718   -1.9223 H   0  0  0  0  0  0  0  0  0  0  0  0
    1.9282   -1.9995   -0.2303 H   0  0  0  0  0  0  0  0  0  0  0  0
    1.8817   -3.2985   -1.4429 H   0  0  0  0  0  0  0  0  0  0  0  0
  1  2  1  0  0  0  0
  1 11  1  0  0  0  0
  2 13  1  0  0  0  0
  2 12  1  0  0  0  0
  3  2  1  0  0  0  0
  4  3  1  0  0  0  0
  4  5  2  0  0  0  0
  6  4  1  0  0  0  0
  7  6  1  0  0  0  0
  7  8  1  0  0  0  0
  7 16  1  0  0  0  0
  8 18  1  0  0  0  0
  9  1  1  0  0  0  0
 10  1  1  0  0  0  0
 14  6  1  0  0  0  0
 15  6  1  0  0  0  0
 17  8  1  0  0  0  0
 19  8  1  0  0  0  0
M  END
