18
title
C 1.1122671 3.512103 0.0087227365
O 1.2492437 2.11031 -0.00084780774
C 0.023906251 1.4463444 0.0077643343
C 0.2364346 -0.066194296 -0.0027282177
O 1.3357506 -0.56302834 -0.015949236
C -1.0387954 -0.8936684 0.0047570504
C -0.77382004 -2.3920243 -0.0052349023
O -2.0377731 -3.039543 0.003029844
H 2.1194115 3.9345765 0.0010353789
H 0.5656741 3.8766181 -0.87565076
H 0.58366114 3.866181 0.9081418
H -0.57984865 1.7055774 0.8979394
H -0.5976076 1.7154142 -0.86713415
H -1.6389219 -0.6280451 0.8850322
H -1.6547667 -0.6192355 -0.86176896
H -0.1854714 -2.6556647 -0.89528435
H -0.16935287 -2.6646063 0.87122524
H -1.8852955 -3.9888642 -0.0032745842
