title
 OpenBabel02282109583D

 18 17  0  0  0  0  0  0  0  0999 V2000
    1.1123    3.5121    0.0087 C   0  0  0  0  0  0  0  0  0  0  0  0
    1.2492    2.1103   -0.0008 O   0  0  0  0  0  0  0  0  0  0  0  0
    0.0239    1.4463    0.0078 C   0  0  0  0  0  0  0  0  0  0  0  0
    0.2364   -0.0662   -0.0027 C   0  0  0  0  0  0  0  0  0  0  0  0
    1.3358   -0.5630   -0.0159 O   0  0  0  0  0  0  0  0  0  0  0  0
   -1.0388   -0.8937    0.0048 C   0  0  0  0  0  0  0  0  0  0  0  0
   -0.7738   -2.3920   -0.0052 C   0  0  0  0  0  0  0  0  0  0  0  0
   -2.0378   -3.0395    0.0030 O   0  0  0  0  0  0  0  0  0  0  0  0
    2.1194    3.9346    0.0010 H   0  0  0  0  0  0  0  0  0  0  0  0
    0.5657    3.8766   -0.8757 H   0  0  0  0  0  0  0  0  0  0  0  0
    0.5837    3.8662    0.9081 H   0  0  0  0  0  0  0  0  0  0  0  0
   -0.5798    1.7056    0.8979 H   0  0  0  0  0  0  0  0  0  0  0  0
   -0.5976    1.7154   -0.8671 H   0  0  0  0  0  0  0  0  0  0  0  0
   -1.6389   -0.6280    0.8850 H   0  0  0  0  0  0  0  0  0  0  0  0
   -1.6548   -0.6192   -0.8618 H   0  0  0  0  0  0  0  0  0  0  0  0
   -0.1855   -2.6557   -0.8953 H   0  0  0  0  0  0  0  0  0  0  0  0
   -0.1694   -2.6646    0.8712 H   0  0  0  0  0  0  0  0  0  0  0  0
   -1.8853   -3.9889   -0.0033 H   0  0  0  0  0  0  0  0  0  0  0  0
  1 11  1  0  0  0  0
  2  3  1  0  0  0  0
  2  1  1  0  0  0  0
  3 12  1  0  0  0  0
  4  6  1  0  0  0  0
  4  3  1  0  0  0  0
  5  4  2  0  0  0  0
  6 14  1  0  0  0  0
  7  8  1  0  0  0  0
  7  6  1  0  0  0  0
  7 17  1  0  0  0  0
  9  1  1  0  0  0  0
 10  1  1  0  0  0  0
 13  3  1  0  0  0  0
 15  6  1  0  0  0  0
 16  7  1  0  0  0  0
 18  8  1  0  0  0  0
M  END
