18
title
O 1.2857798 3.4723802 0.0063059125
C 1.5032483 2.068873 -0.0030296089
C 0.13490835 1.4038606 0.0060148956
C 0.20293167 -0.11352387 -0.0026679228
O 1.2615288 -0.7057234 -0.015811175
C -1.1257133 -0.8495854 0.0059428085
C -0.9763713 -2.3636181 -0.0030063363
O -2.2861784 -2.912738 0.0062023923
H 2.143712 3.9063883 0.0006228082
H 2.0629818 1.7484572 -0.89311653
H 2.079154 1.7392273 0.87327015
H -0.43509588 1.7316655 0.8852833
H -0.4510412 1.7408544 -0.85919625
H -1.7034209 -0.5353333 0.88513076
H -1.7194157 -0.5266644 -0.85935104
H -0.4103199 -2.6729715 -0.8930107
H -0.3942015 -2.6818383 0.87337834
H -2.2070749 -3.8709424 0.0006407841
