title
 OpenBabel02282109583D

 18 17  0  0  1  0  0  0  0  0999 V2000
   -0.2958    3.9061    0.6342 C   0  0  0  0  0  0  0  0  0  0  0  0
   -0.2427    2.4514    0.6470 C   0  0  0  0  0  0  0  0  0  0  0  0
   -0.1918    1.2482    0.6742 C   0  0  0  0  0  0  0  0  0  0  0  0
   -0.1665   -0.2164    0.6606 C   0  0  1  0  0  0  0  0  0  0  0  0
   -1.4736   -0.7698    0.8393 O   0  0  0  0  0  0  0  0  0  0  0  0
    0.5099   -0.7529   -0.6133 C   0  0  0  0  0  0  0  0  0  0  0  0
    0.6111   -2.2727   -0.6214 C   0  0  0  0  0  0  0  0  0  0  0  0
    1.2474   -2.6540   -1.8329 O   0  0  0  0  0  0  0  0  0  0  0  0
    0.5105    4.3354    1.2390 H   0  0  0  0  0  0  0  0  0  0  0  0
   -0.1960    4.3024   -0.3822 H   0  0  0  0  0  0  0  0  0  0  0  0
   -1.2447    4.2708    1.0426 H   0  0  0  0  0  0  0  0  0  0  0  0
    0.3975   -0.5736    1.5326 H   0  0  0  0  0  0  0  0  0  0  0  0
   -2.0595   -0.3158    0.2234 H   0  0  0  0  0  0  0  0  0  0  0  0
   -0.0560   -0.4216   -1.4921 H   0  0  0  0  0  0  0  0  0  0  0  0
    1.5124   -0.3199   -0.6991 H   0  0  0  0  0  0  0  0  0  0  0  0
    1.1895   -2.6091    0.2558 H   0  0  0  0  0  0  0  0  0  0  0  0
   -0.3942   -2.7068   -0.5353 H   0  0  0  0  0  0  0  0  0  0  0  0
    1.2580   -3.6145   -1.8742 H   0  0  0  0  0  0  0  0  0  0  0  0
  1  2  1  0  0  0  0
  1 11  1  0  0  0  0
  1  9  1  0  0  0  0
  2  3  3  0  0  0  0
  4  3  1  0  0  0  0
  4  5  1  0  0  0  0
  4 12  1  1  0  0  0
  6  4  1  0  0  0  0
  7  6  1  0  0  0  0
  7 17  1  0  0  0  0
  7 16  1  0  0  0  0
  8  7  1  0  0  0  0
 10  1  1  0  0  0  0
 13  5  1  0  0  0  0
 14  6  1  0  0  0  0
 15  6  1  0  0  0  0
 18  8  1  0  0  0  0
M  END
