20
title
C 1.8814633 2.8432727 0.13072805
C 1.890347 1.3421456 0.36843303
O 0.56744987 0.8653793 0.21040042
C 0.43248978 -0.5509242 0.3002891
C 0.4112455 -1.0311732 1.7613019
C -0.7922898 -0.9367683 -0.400822
C -1.8014914 -1.2819211 -0.9582492
C -3.0215154 -1.6857588 -1.6417574
H 2.8904114 3.252709 0.23917292
H 1.517979 3.068853 -0.8756224
H 1.2253346 3.3407483 0.8505142
H 2.5610108 0.84108484 -0.35028616
H 2.276425 1.1216747 1.3763974
H 1.2898917 -1.0216281 -0.21145561
H 0.2903178 -2.1172535 1.8008732
H 1.3434892 -0.77134204 2.2706888
H -0.42347798 -0.56556153 2.2910857
H -2.8043594 -2.3344176 -2.4976149
H -3.6935663 -2.2328465 -0.9713993
H -3.5673237 -0.8135278 -2.0180264
