title
 OpenBabel02282109583D

 18 17  0  0  1  0  0  0  0  0999 V2000
    0.0945    2.8473    1.3200 C   0  0  0  0  0  0  0  0  0  0  0  0
    0.1380    1.4469    1.1891 O   0  0  0  0  0  0  0  0  0  0  0  0
   -0.9729    0.9240    0.5057 C   0  0  0  0  0  0  0  0  0  0  0  0
   -0.8120   -0.6010    0.3957 C   0  0  1  0  0  0  0  0  0  0  0  0
   -2.0243   -1.1736   -0.0931 O   0  0  0  0  0  0  0  0  0  0  0  0
    0.3426   -0.9779   -0.4183 C   0  0  0  0  0  0  0  0  0  0  0  0
    1.2574   -1.2874   -1.1380 C   0  0  0  0  0  0  0  0  0  0  0  0
    2.3779   -1.6669   -1.9858 C   0  0  0  0  0  0  0  0  0  0  0  0
    0.0850    3.3488    0.3392 H   0  0  0  0  0  0  0  0  0  0  0  0
   -0.7931    3.1786    1.8822 H   0  0  0  0  0  0  0  0  0  0  0  0
    0.9914    3.1529    1.8642 H   0  0  0  0  0  0  0  0  0  0  0  0
   -1.9113    1.1287    1.0454 H   0  0  0  0  0  0  0  0  0  0  0  0
   -1.0620    1.3595   -0.5044 H   0  0  0  0  0  0  0  0  0  0  0  0
   -0.6877   -0.9912    1.4129 H   0  0  0  0  0  0  0  0  0  0  0  0
   -1.9948   -1.1249   -1.0544 H   0  0  0  0  0  0  0  0  0  0  0  0
    2.2404   -2.6718   -2.3999 H   0  0  0  0  0  0  0  0  0  0  0  0
    2.4989   -0.9735   -2.8253 H   0  0  0  0  0  0  0  0  0  0  0  0
    3.3153   -1.6680   -1.4189 H   0  0  0  0  0  0  0  0  0  0  0  0
  1 11  1  0  0  0  0
  1 10  1  0  0  0  0
  2  1  1  0  0  0  0
  3 12  1  0  0  0  0
  3  2  1  0  0  0  0
  4  3  1  0  0  0  0
  4 14  1  1  0  0  0
  5  4  1  0  0  0  0
  6  4  1  0  0  0  0
  7  6  3  0  0  0  0
  8 18  1  0  0  0  0
  8  7  1  0  0  0  0
  9  1  1  0  0  0  0
 13  3  1  0  0  0  0
 15  5  1  0  0  0  0
 16  8  1  0  0  0  0
 17  8  1  0  0  0  0
M  END
