18
title
C 0.094508156 2.8473063 1.3199788
O 0.13801448 1.4469472 1.1890879
C -0.9728769 0.923966 0.5056807
C -0.81203777 -0.600958 0.39569512
O -2.024281 -1.173632 -0.09305629
C 0.3425623 -0.9778732 -0.41825172
C 1.2574236 -1.2873544 -1.1379881
C 2.3778975 -1.6668731 -1.9858215
H 0.08497779 3.3488219 0.33920482
H -0.7931299 3.1785657 1.8821516
H 0.99136186 3.1529284 1.8641771
H -1.9112809 1.1286558 1.0453857
H -1.0619711 1.3595449 -0.5043802
H -0.68767345 -0.9911977 1.4128673
H -1.9947696 -1.124906 -1.0544317
H 2.2403648 -2.6717653 -2.399908
H 2.4988656 -0.9735383 -2.8253171
H 3.3152907 -1.6679782 -1.4188805
