20
title
C -0.2641925 1.6398857 0.24220948
C -0.20319204 0.10796928 0.18746048
C 0.4878196 -0.41823027 -1.0806248
C -0.22272994 -0.066853195 -2.3828285
O 0.46037126 -0.7363602 -3.4334078
C 0.51719034 -0.46358988 1.4355742
C -0.15532978 -0.16327335 2.693711
C -0.7302333 0.0857141 3.7200813
H 0.74094164 2.0724626 0.16485882
H -0.86729115 2.0507576 -0.5722899
H -0.70324516 1.9756243 1.1856192
H -1.231253 -0.27871028 0.20582552
H 1.5176941 -0.040563505 -1.1298416
H 0.56004673 -1.5118116 -1.0338259
H -1.2771474 -0.38594252 -2.3263938
H -0.21962819 1.0215225 -2.544119
H 0.046684675 -0.48973694 -4.2655926
H 0.6102438 -1.5519456 1.329828
H 1.543847 -0.0730046 1.4672122
H -1.2280257 0.30025744 4.632927
