title
 OpenBabel02282109583D

 20 19  0  0  1  0  0  0  0  0999 V2000
   -0.2642    1.6399    0.2422 C   0  0  0  0  0  0  0  0  0  0  0  0
   -0.2032    0.1080    0.1875 C   0  0  1  0  0  0  0  0  0  0  0  0
    0.4878   -0.4182   -1.0806 C   0  0  0  0  0  0  0  0  0  0  0  0
   -0.2227   -0.0669   -2.3828 C   0  0  0  0  0  0  0  0  0  0  0  0
    0.4604   -0.7364   -3.4334 O   0  0  0  0  0  0  0  0  0  0  0  0
    0.5172   -0.4636    1.4356 C   0  0  0  0  0  0  0  0  0  0  0  0
   -0.1553   -0.1633    2.6937 C   0  0  0  0  0  0  0  0  0  0  0  0
   -0.7302    0.0857    3.7201 C   0  0  0  0  0  0  0  0  0  0  0  0
    0.7409    2.0725    0.1649 H   0  0  0  0  0  0  0  0  0  0  0  0
   -0.8673    2.0508   -0.5723 H   0  0  0  0  0  0  0  0  0  0  0  0
   -0.7032    1.9756    1.1856 H   0  0  0  0  0  0  0  0  0  0  0  0
   -1.2313   -0.2787    0.2058 H   0  0  0  0  0  0  0  0  0  0  0  0
    1.5177   -0.0406   -1.1298 H   0  0  0  0  0  0  0  0  0  0  0  0
    0.5600   -1.5118   -1.0338 H   0  0  0  0  0  0  0  0  0  0  0  0
   -1.2771   -0.3859   -2.3264 H   0  0  0  0  0  0  0  0  0  0  0  0
   -0.2196    1.0215   -2.5441 H   0  0  0  0  0  0  0  0  0  0  0  0
    0.0467   -0.4897   -4.2656 H   0  0  0  0  0  0  0  0  0  0  0  0
    0.6102   -1.5519    1.3298 H   0  0  0  0  0  0  0  0  0  0  0  0
    1.5438   -0.0730    1.4672 H   0  0  0  0  0  0  0  0  0  0  0  0
   -1.2280    0.3003    4.6329 H   0  0  0  0  0  0  0  0  0  0  0  0
  1 11  1  0  0  0  0
  2 12  1  1  0  0  0
  2  1  1  0  0  0  0
  2  6  1  0  0  0  0
  3 14  1  0  0  0  0
  3  2  1  0  0  0  0
  4 15  1  0  0  0  0
  4  3  1  0  0  0  0
  5  4  1  0  0  0  0
  6 19  1  0  0  0  0
  6  7  1  0  0  0  0
  7  8  3  0  0  0  0
  8 20  1  0  0  0  0
  9  1  1  0  0  0  0
 10  1  1  0  0  0  0
 13  3  1  0  0  0  0
 16  4  1  0  0  0  0
 17  5  1  0  0  0  0
 18  6  1  0  0  0  0
M  END
