19
title
C -0.09279221 1.6395421 -0.32561007
C -0.04431186 0.10730422 -0.26322386
C 0.72319937 -0.42264882 0.95841515
C 2.202312 -0.051844906 0.98459053
O 2.7838814 -0.7280684 2.0885954
C -1.4728943 -0.4926131 -0.2525673
C -2.2446477 -0.16306336 -1.4488311
N -2.837551 0.10460503 -2.4042354
H 0.90780944 2.0670416 -0.42958125
H -0.6877863 1.9797472 -1.1780324
H -0.54054034 2.0532963 0.5859593
H 0.45300707 -0.2609736 -1.1703253
H 0.2534592 -0.06004606 1.8820784
H 0.66235095 -1.5174334 0.9868381
H 2.676022 -0.35389987 0.035446376
H 2.3266225 1.0371387 1.0797075
H 3.7096596 -0.4742916 2.1444194
H -1.422443 -1.5838767 -0.16648272
H -2.022585 -0.13246931 0.62602603
