title
 OpenBabel02282109583D

 19 18  0  0  1  0  0  0  0  0999 V2000
   -0.8765    3.4345   -1.2646 C   0  0  0  0  0  0  0  0  0  0  0  0
   -0.8826    1.9043   -1.2399 C   0  0  0  0  0  0  0  0  0  0  0  0
   -0.1986    1.3234    0.0021 C   0  0  0  0  0  0  0  0  0  0  0  0
   -0.1414   -0.2087   -0.0024 C   0  0  1  0  0  0  0  0  0  0  0  0
    0.5355   -0.7228   -1.1354 O   0  0  0  0  0  0  0  0  0  0  0  0
    0.4815   -0.7413    1.3102 C   0  0  0  0  0  0  0  0  0  0  0  0
    0.5244   -2.2001    1.3691 C   0  0  0  0  0  0  0  0  0  0  0  0
    0.5509   -3.3536    1.4266 N   0  0  0  0  0  0  0  0  0  0  0  0
    0.1462    3.8283   -1.2583 H   0  0  0  0  0  0  0  0  0  0  0  0
   -1.3735    3.8174   -2.1609 H   0  0  0  0  0  0  0  0  0  0  0  0
   -1.3949    3.8507   -0.3935 H   0  0  0  0  0  0  0  0  0  0  0  0
   -1.9167    1.5385   -1.2816 H   0  0  0  0  0  0  0  0  0  0  0  0
   -0.3862    1.5097   -2.1326 H   0  0  0  0  0  0  0  0  0  0  0  0
    0.8282    1.7145    0.0785 H   0  0  0  0  0  0  0  0  0  0  0  0
   -0.7196    1.6612    0.9079 H   0  0  0  0  0  0  0  0  0  0  0  0
   -1.1584   -0.6095   -0.0850 H   0  0  0  0  0  0  0  0  0  0  0  0
    1.4300   -0.3624   -1.1449 H   0  0  0  0  0  0  0  0  0  0  0  0
    1.5030   -0.3536    1.4162 H   0  0  0  0  0  0  0  0  0  0  0  0
   -0.0864   -0.3709    2.1713 H   0  0  0  0  0  0  0  0  0  0  0  0
  1  9  1  0  0  0  0
  1  2  1  0  0  0  0
  1 11  1  0  0  0  0
  2  3  1  0  0  0  0
  3 14  1  0  0  0  0
  3 15  1  0  0  0  0
  4 16  1  6  0  0  0
  4  3  1  0  0  0  0
  4  6  1  0  0  0  0
  5  4  1  0  0  0  0
  6  7  1  0  0  0  0
  6 18  1  0  0  0  0
  6 19  1  0  0  0  0
  7  8  3  0  0  0  0
 10  1  1  0  0  0  0
 12  2  1  0  0  0  0
 13  2  1  0  0  0  0
 17  5  1  0  0  0  0
M  END
