title
 OpenBabel02282109583D

 20 19  0  0  0  0  0  0  0  0999 V2000
   -0.6248    3.3566    1.3711 C   0  0  0  0  0  0  0  0  0  0  0  0
   -0.7713    1.8338    1.2943 C   0  0  0  0  0  0  0  0  0  0  0  0
   -0.1085    1.2601    0.0394 C   0  0  0  0  0  0  0  0  0  0  0  0
   -0.0674   -0.2033    0.0155 N   0  0  0  0  0  0  0  0  0  0  0  0
   -1.3864   -0.8158   -0.1035 C   0  0  0  0  0  0  0  0  0  0  0  0
    0.8347   -0.6740   -1.0267 C   0  0  0  0  0  0  0  0  0  0  0  0
    1.1187   -2.1101   -0.9085 C   0  0  0  0  0  0  0  0  0  0  0  0
    1.3437   -3.2405   -0.8332 N   0  0  0  0  0  0  0  0  0  0  0  0
    0.4289    3.6541    1.4080 H   0  0  0  0  0  0  0  0  0  0  0  0
   -1.0771    3.8453    0.5011 H   0  0  0  0  0  0  0  0  0  0  0  0
   -1.1138    3.7535    2.2653 H   0  0  0  0  0  0  0  0  0  0  0  0
   -0.3167    1.3622    2.1728 H   0  0  0  0  0  0  0  0  0  0  0  0
   -1.8358    1.5759    1.3135 H   0  0  0  0  0  0  0  0  0  0  0  0
   -0.6104    1.6663   -0.8624 H   0  0  0  0  0  0  0  0  0  0  0  0
    0.9284    1.6168    0.0046 H   0  0  0  0  0  0  0  0  0  0  0  0
   -1.9156   -0.5133   -1.0273 H   0  0  0  0  0  0  0  0  0  0  0  0
   -1.2870   -1.9043   -0.1062 H   0  0  0  0  0  0  0  0  0  0  0  0
   -2.0059   -0.5418    0.7520 H   0  0  0  0  0  0  0  0  0  0  0  0
    0.4560   -0.4897   -2.0520 H   0  0  0  0  0  0  0  0  0  0  0  0
    1.7864   -0.1379   -0.9428 H   0  0  0  0  0  0  0  0  0  0  0  0
  1  9  1  0  0  0  0
  1 11  1  0  0  0  0
  2 13  1  0  0  0  0
  2  1  1  0  0  0  0
  2 12  1  0  0  0  0
  3  2  1  0  0  0  0
  4  3  1  0  0  0  0
  5  4  1  0  0  0  0
  5 18  1  0  0  0  0
  6 20  1  0  0  0  0
  6  7  1  0  0  0  0
  6  4  1  0  0  0  0
  7  8  3  0  0  0  0
 10  1  1  0  0  0  0
 14  3  1  0  0  0  0
 15  3  1  0  0  0  0
 16  5  1  0  0  0  0
 17  5  1  0  0  0  0
 19  6  1  0  0  0  0
M  END
