18
title
C 0.3570296 1.9315323 0.19565746
N 0.17758736 0.48306075 0.24737062
C 0.79727226 -0.13324364 1.4281023
C 1.1867092 -1.5845826 1.1382278
O 2.0208747 -1.6660314 0.005547083
C -1.2276922 0.109309 0.118482836
C -1.7593588 0.41681862 -1.2146106
N -2.1877556 0.6646208 -2.2581587
H 1.4241593 2.1650472 0.21014409
H -0.06497867 2.3227096 -0.73405874
H -0.12650241 2.4530845 1.0409316
H 1.7124453 0.42674333 1.6403693
H 0.15447398 -0.068067685 2.3245778
H 1.7419713 -1.9875557 1.9921077
H 0.28622675 -2.2132695 1.0222447
H 1.6319555 -1.061059 -0.6412134
H -1.3340542 -0.967458 0.28051436
H -1.8701056 0.60950917 0.86807215
