title
 OpenBabel02282109583D

 18 17  0  0  0  0  0  0  0  0999 V2000
    0.3570    1.9315    0.1957 C   0  0  0  0  0  0  0  0  0  0  0  0
    0.1776    0.4831    0.2474 N   0  0  0  0  0  0  0  0  0  0  0  0
    0.7973   -0.1332    1.4281 C   0  0  0  0  0  0  0  0  0  0  0  0
    1.1867   -1.5846    1.1382 C   0  0  0  0  0  0  0  0  0  0  0  0
    2.0209   -1.6660    0.0055 O   0  0  0  0  0  0  0  0  0  0  0  0
   -1.2277    0.1093    0.1185 C   0  0  0  0  0  0  0  0  0  0  0  0
   -1.7594    0.4168   -1.2146 C   0  0  0  0  0  0  0  0  0  0  0  0
   -2.1878    0.6646   -2.2582 N   0  0  0  0  0  0  0  0  0  0  0  0
    1.4242    2.1650    0.2101 H   0  0  0  0  0  0  0  0  0  0  0  0
   -0.0650    2.3227   -0.7341 H   0  0  0  0  0  0  0  0  0  0  0  0
   -0.1265    2.4531    1.0409 H   0  0  0  0  0  0  0  0  0  0  0  0
    1.7124    0.4267    1.6404 H   0  0  0  0  0  0  0  0  0  0  0  0
    0.1545   -0.0681    2.3246 H   0  0  0  0  0  0  0  0  0  0  0  0
    1.7420   -1.9876    1.9921 H   0  0  0  0  0  0  0  0  0  0  0  0
    0.2862   -2.2133    1.0222 H   0  0  0  0  0  0  0  0  0  0  0  0
    1.6320   -1.0611   -0.6412 H   0  0  0  0  0  0  0  0  0  0  0  0
   -1.3341   -0.9675    0.2805 H   0  0  0  0  0  0  0  0  0  0  0  0
   -1.8701    0.6095    0.8681 H   0  0  0  0  0  0  0  0  0  0  0  0
  1  9  1  0  0  0  0
  1  2  1  0  0  0  0
  1 11  1  0  0  0  0
  2  3  1  0  0  0  0
  3 12  1  0  0  0  0
  3 13  1  0  0  0  0
  4  3  1  0  0  0  0
  4 14  1  0  0  0  0
  5  4  1  0  0  0  0
  6  2  1  0  0  0  0
  6 17  1  0  0  0  0
  6 18  1  0  0  0  0
  7  6  1  0  0  0  0
  8  7  3  0  0  0  0
 10  1  1  0  0  0  0
 15  4  1  0  0  0  0
 16  5  1  0  0  0  0
M  END
