title
 OpenBabel02282109583D

 20 19  0  0  1  0  0  0  0  0999 V2000
   -0.7427    3.2821   -0.9801 C   0  0  0  0  0  0  0  0  0  0  0  0
   -0.7225    1.8762   -1.0197 O   0  0  0  0  0  0  0  0  0  0  0  0
   -0.0961    1.3013    0.1048 C   0  0  0  0  0  0  0  0  0  0  0  0
   -0.0947   -0.2197   -0.0501 C   0  0  1  0  0  0  0  0  0  0  0  0
    0.6728   -0.6574   -1.3009 C   0  0  0  0  0  0  0  0  0  0  0  0
    0.4746   -0.8628    1.2373 C   0  0  0  0  0  0  0  0  0  0  0  0
    0.3737   -2.3169    1.2551 C   0  0  0  0  0  0  0  0  0  0  0  0
    0.2750   -3.5150    1.2580 C   0  0  0  0  0  0  0  0  0  0  0  0
    0.2741    3.7058   -0.9538 H   0  0  0  0  0  0  0  0  0  0  0  0
   -1.2458    3.6287   -1.8861 H   0  0  0  0  0  0  0  0  0  0  0  0
   -1.2919    3.6592   -0.1025 H   0  0  0  0  0  0  0  0  0  0  0  0
    0.9405    1.6745    0.1997 H   0  0  0  0  0  0  0  0  0  0  0  0
   -0.6289    1.5920    1.0275 H   0  0  0  0  0  0  0  0  0  0  0  0
   -1.1401   -0.5366   -0.1494 H   0  0  0  0  0  0  0  0  0  0  0  0
    0.6336   -1.7430   -1.4215 H   0  0  0  0  0  0  0  0  0  0  0  0
    0.2490   -0.1866   -2.1902 H   0  0  0  0  0  0  0  0  0  0  0  0
    1.7277   -0.3633   -1.2325 H   0  0  0  0  0  0  0  0  0  0  0  0
    1.5278   -0.5706    1.3529 H   0  0  0  0  0  0  0  0  0  0  0  0
   -0.0516   -0.4577    2.1119 H   0  0  0  0  0  0  0  0  0  0  0  0
    0.1937   -4.5735    1.2693 H   0  0  0  0  0  0  0  0  0  0  0  0
  1  9  1  0  0  0  0
  1 11  1  0  0  0  0
  2  1  1  0  0  0  0
  2  3  1  0  0  0  0
  3 12  1  0  0  0  0
  3 13  1  0  0  0  0
  4 14  1  6  0  0  0
  4  3  1  0  0  0  0
  4  6  1  0  0  0  0
  5 17  1  0  0  0  0
  5  4  1  0  0  0  0
  6  7  1  0  0  0  0
  6 18  1  0  0  0  0
  6 19  1  0  0  0  0
  7  8  3  0  0  0  0
  8 20  1  0  0  0  0
 10  1  1  0  0  0  0
 15  5  1  0  0  0  0
 16  5  1  0  0  0  0
M  END
