18
title
C 0.9588422 3.1434562 -0.70086986
O 0.7982539 1.7447994 -0.6574505
C 0.3736782 1.2746993 0.6009666
C 0.2448817 -0.24961609 0.5489139
O -0.07022815 -0.74926037 1.8361522
C -0.76685625 -0.68733686 -0.5286415
C -0.8721033 -2.1322474 -0.674364
C -0.95015436 -3.3251247 -0.7962128
H 1.2905313 3.4038312 -1.7087023
H 0.014092397 3.6686497 -0.4892865
H 1.7128223 3.488664 0.023379037
H 1.0924104 1.5423136 1.3911041
H -0.6001794 1.7216444 0.8773393
H 1.2237339 -0.67350644 0.30263087
H -0.9910169 -0.5370249 2.0251746
H -1.7516842 -0.2638294 -0.2779923
H -0.47119397 -0.22553366 -1.4770017
H -1.0195296 -4.379034 -0.90325755
