17
title
O 1.3460505 3.291044 -0.06716119
C 1.4758236 1.8783257 -0.07840837
C 0.06936479 1.2931188 -0.1334305
C 0.06293178 -0.23753704 -0.122308336
O 0.7106046 -0.7741958 1.0183427
C -1.3798503 -0.7792696 -0.25615907
C -1.4365898 -2.2384205 -0.2859873
N -1.4864591 -3.3919368 -0.32141626
H 2.225395 3.6730196 0.006591336
H 2.052067 1.5341607 -0.95289236
H 1.9924626 1.508275 0.8179791
H -0.50476956 1.6724901 0.7235753
H -0.4336133 1.662991 -1.0346119
H 0.64729095 -0.61308277 -0.9703748
H 0.26138937 -0.44594944 1.8061746
H -1.9872385 -0.4183706 0.58382046
H -1.8427266 -0.3888985 -1.1694614
