18
title
C 0.3170844 2.357766 -0.20854227
C 0.3821822 0.83586514 -0.27602026
C 1.112492 0.21028425 0.9089717
C 1.2704064 -1.3096957 0.8065823
O 2.016758 -1.8457704 1.8864403
O -0.96582395 0.30565426 -0.27769962
C -1.5373849 0.023763914 -1.4613175
O -2.663959 -0.36034927 -1.5629992
H 1.3252466 2.7827406 -0.20157593
H -0.22030579 2.7642107 -1.070455
H -0.20199661 2.6773276 0.6998435
H 0.8722867 0.5276282 -1.2111619
H 2.106791 0.66295445 0.98976403
H 0.5677227 0.46408597 1.8278298
H 0.2838529 -1.7852819 0.72036
H 1.8348773 -1.5642605 -0.09840267
H 1.4775542 -1.7777412 2.680666
H -0.85115427 0.17536761 -2.3183842
