title
 OpenBabel02282109583D

 21 20  0  0  1  0  0  0  0  0999 V2000
    0.9959    3.1885    0.3591 C   0  0  0  0  0  0  0  0  0  0  0  0
    0.8479    1.6648    0.3283 C   0  0  0  0  0  0  0  0  0  0  0  0
   -0.6148    1.2098    0.3229 C   0  0  0  0  0  0  0  0  0  0  0  0
   -0.8057   -0.3159    0.3043 C   0  0  1  0  0  0  0  0  0  0  0  0
   -2.2791   -0.7113    0.4572 C   0  0  0  0  0  0  0  0  0  0  0  0
   -0.2423   -0.9059   -0.9094 N   0  0  0  0  0  0  0  0  0  0  0  0
    0.7506   -1.8346   -0.9124 C   0  0  0  0  0  0  0  0  0  0  0  0
    1.3115   -2.2724    0.0704 O   0  0  0  0  0  0  0  0  0  0  0  0
    2.0489    3.4859    0.3589 H   0  0  0  0  0  0  0  0  0  0  0  0
    0.5193    3.6515   -0.5126 H   0  0  0  0  0  0  0  0  0  0  0  0
    0.5297    3.6160    1.2539 H   0  0  0  0  0  0  0  0  0  0  0  0
    1.3561    1.2634   -0.5562 H   0  0  0  0  0  0  0  0  0  0  0  0
    1.3579    1.2255    1.1947 H   0  0  0  0  0  0  0  0  0  0  0  0
   -1.1236    1.6045    1.2118 H   0  0  0  0  0  0  0  0  0  0  0  0
   -1.1372    1.6482   -0.5409 H   0  0  0  0  0  0  0  0  0  0  0  0
   -0.2277   -0.7599    1.1202 H   0  0  0  0  0  0  0  0  0  0  0  0
   -2.6908   -0.3145    1.3903 H   0  0  0  0  0  0  0  0  0  0  0  0
   -2.8831   -0.3139   -0.3676 H   0  0  0  0  0  0  0  0  0  0  0  0
   -2.3898   -1.7989    0.4669 H   0  0  0  0  0  0  0  0  0  0  0  0
   -0.6411   -0.6412   -1.7976 H   0  0  0  0  0  0  0  0  0  0  0  0
    1.0028   -2.1574   -1.9429 H   0  0  0  0  0  0  0  0  0  0  0  0
  1 11  1  0  0  0  0
  2  1  1  0  0  0  0
  2 13  1  0  0  0  0
  3  2  1  0  0  0  0
  3 14  1  0  0  0  0
  4  3  1  0  0  0  0
  4  5  1  0  0  0  0
  4 16  1  1  0  0  0
  5 19  1  0  0  0  0
  5 17  1  0  0  0  0
  6  4  1  0  0  0  0
  7  6  1  0  0  0  0
  7  8  2  0  0  0  0
  9  1  1  0  0  0  0
 10  1  1  0  0  0  0
 12  2  1  0  0  0  0
 15  3  1  0  0  0  0
 18  5  1  0  0  0  0
 20  6  1  0  0  0  0
 21  7  1  0  0  0  0
M  END
