21
title
C 0.9958566 3.1884649 0.35908478
C 0.8479306 1.6648294 0.32829168
C -0.61479187 1.2097842 0.32291254
C -0.8057152 -0.3158956 0.3043023
C -2.2791295 -0.71125245 0.45724902
N -0.24231064 -0.90591097 -0.9093803
C 0.75057036 -1.8345795 -0.91239
O 1.3114878 -2.2723722 0.07035502
H 2.0489426 3.4859428 0.35893074
H 0.51933634 3.6515336 -0.51259404
H 0.5297054 3.6160083 1.2539221
H 1.356077 1.2634065 -0.5561516
H 1.357885 1.225518 1.1946944
H -1.123635 1.6044993 1.2118063
H -1.1372142 1.6481781 -0.5409036
H -0.22772646 -0.759887 1.120183
H -2.6908414 -0.3144882 1.3902944
H -2.8831437 -0.31388238 -0.3675741
H -2.3897812 -1.7989414 0.46688467
H -0.641147 -0.6412256 -1.7975646
H 1.0028294 -2.1573827 -1.9429387
