20
title
C -0.9393614 3.2682528 0.5060646
C -0.8987802 1.7393879 0.44194156
C -0.18837821 1.2176291 -0.81134844
C -0.13589078 -0.3055184 -0.910594
C 0.5084747 -0.80493116 -2.1992862
O 0.6373106 -0.7923839 0.21163213
C 0.18192923 -1.8578799 0.89053106
O 0.7802336 -2.3563693 1.7969682
H 0.071516454 3.690295 0.515281
H -1.4658682 3.6899052 -0.3574882
H -1.451332 3.613356 1.4093187
H -0.39223224 1.3457867 1.3298194
H -1.9232929 1.3436483 0.46882573
H -0.6937459 1.5946468 -1.7097393
H 0.8388207 1.6025617 -0.8460747
H -1.1550697 -0.710062 -0.82500076
H 1.5371147 -0.44068623 -2.2773662
H 0.530252 -1.8982656 -2.227497
H -0.052792493 -0.4502535 -3.069076
H -0.8027132 -2.2124903 0.5251193
