20
title
C -0.7328582 3.4543135 1.4895024
C -0.6737345 1.92487 1.4886627
C -0.07104423 1.350474 0.20222898
C -0.06399586 -0.18132035 0.16119213
O -1.37474 -0.7271094 0.29971057
C 0.6213285 -0.72250885 -1.1085367
C 0.74295056 -2.2322044 -1.109092
O 1.7391607 -2.832222 -1.4250855
H 0.26580366 3.8923576 1.3818804
H -1.3468049 3.8287742 0.6625027
H -1.1637145 3.83439 2.420803
H -0.08152195 1.5785996 2.3458188
H -1.6770872 1.5081054 1.6270143
H -0.6308249 1.7220875 -0.67077047
H 0.95747864 1.7128342 0.07647402
H 0.47576734 -0.5548367 1.0411854
H -1.9221653 -0.35705012 -0.4027838
H 0.011333862 -0.43450707 -1.9792857
H 1.6174151 -0.29176468 -1.2470379
H -0.17648186 -2.7656536 -0.78653055
