title
 OpenBabel02282109583D

 20 19  0  0  1  0  0  0  0  0999 V2000
    1.2871    3.3611   -0.2867 C   0  0  0  0  0  0  0  0  0  0  0  0
    1.3236    1.9548   -0.2444 O   0  0  0  0  0  0  0  0  0  0  0  0
    0.0416    1.3696   -0.2102 C   0  0  0  0  0  0  0  0  0  0  0  0
    0.1938   -0.1491   -0.1191 C   0  0  1  0  0  0  0  0  0  0  0  0
    0.9435   -0.5616    1.1542 C   0  0  0  0  0  0  0  0  0  0  0  0
   -1.1881   -0.8246   -0.2154 C   0  0  0  0  0  0  0  0  0  0  0  0
   -1.0838   -2.3227   -0.3930 C   0  0  0  0  0  0  0  0  0  0  0  0
   -1.6622   -3.1441    0.2696 O   0  0  0  0  0  0  0  0  0  0  0  0
    2.3205    3.7150   -0.3107 H   0  0  0  0  0  0  0  0  0  0  0  0
    0.7643    3.7296   -1.1837 H   0  0  0  0  0  0  0  0  0  0  0  0
    0.7862    3.7841    0.5985 H   0  0  0  0  0  0  0  0  0  0  0  0
   -0.5307    1.7458    0.6570 H   0  0  0  0  0  0  0  0  0  0  0  0
   -0.5275    1.6421   -1.1163 H   0  0  0  0  0  0  0  0  0  0  0  0
    0.7883   -0.4583   -0.9904 H   0  0  0  0  0  0  0  0  0  0  0  0
    0.3691   -0.2892    2.0477 H   0  0  0  0  0  0  0  0  0  0  0  0
    1.1121   -1.6426    1.1883 H   0  0  0  0  0  0  0  0  0  0  0  0
    1.9108   -0.0582    1.2053 H   0  0  0  0  0  0  0  0  0  0  0  0
   -1.8047   -0.6187    0.6654 H   0  0  0  0  0  0  0  0  0  0  0  0
   -1.7197   -0.4390   -1.0987 H   0  0  0  0  0  0  0  0  0  0  0  0
   -0.4072   -2.6326   -1.2256 H   0  0  0  0  0  0  0  0  0  0  0  0
  1  2  1  0  0  0  0
  1 11  1  0  0  0  0
  2  3  1  0  0  0  0
  3  4  1  0  0  0  0
  3 12  1  0  0  0  0
  4 14  1  6  0  0  0
  4  5  1  0  0  0  0
  5 16  1  0  0  0  0
  5 17  1  0  0  0  0
  5 15  1  0  0  0  0
  6  4  1  0  0  0  0
  6 18  1  0  0  0  0
  7  6  1  0  0  0  0
  7  8  2  0  0  0  0
  9  1  1  0  0  0  0
 10  1  1  0  0  0  0
 13  3  1  0  0  0  0
 19  6  1  0  0  0  0
 20  7  1  0  0  0  0
M  END
