title
 OpenBabel02282109583D

 19 18  0  0  1  0  0  0  0  0999 V2000
   -0.2449    3.1984    0.5471 C   0  0  0  0  0  0  0  0  0  0  0  0
   -0.1535    1.7983    0.6761 O   0  0  0  0  0  0  0  0  0  0  0  0
    0.6579    1.1970   -0.3155 C   0  0  0  0  0  0  0  0  0  0  0  0
    0.6455   -0.3124   -0.0830 C   0  0  1  0  0  0  0  0  0  0  0  0
    1.3338   -0.7082    1.2304 C   0  0  0  0  0  0  0  0  0  0  0  0
   -0.7366   -0.7759   -0.1296 N   0  0  0  0  0  0  0  0  0  0  0  0
   -1.1117   -1.9396   -0.7153 C   0  0  0  0  0  0  0  0  0  0  0  0
   -0.3635   -2.7133   -1.2783 O   0  0  0  0  0  0  0  0  0  0  0  0
    0.7407    3.6790    0.6430 H   0  0  0  0  0  0  0  0  0  0  0  0
   -0.6770    3.4907   -0.4225 H   0  0  0  0  0  0  0  0  0  0  0  0
   -0.8937    3.5598    1.3484 H   0  0  0  0  0  0  0  0  0  0  0  0
    0.2661    1.4292   -1.3188 H   0  0  0  0  0  0  0  0  0  0  0  0
    1.6893    1.5805   -0.2573 H   0  0  0  0  0  0  0  0  0  0  0  0
    1.1584   -0.7978   -0.9181 H   0  0  0  0  0  0  0  0  0  0  0  0
    0.8452   -0.2280    2.0824 H   0  0  0  0  0  0  0  0  0  0  0  0
    1.2932   -1.7920    1.3620 H   0  0  0  0  0  0  0  0  0  0  0  0
    2.3853   -0.4022    1.2207 H   0  0  0  0  0  0  0  0  0  0  0  0
   -1.4233   -0.2056    0.3393 H   0  0  0  0  0  0  0  0  0  0  0  0
   -2.2037   -2.1108   -0.6297 H   0  0  0  0  0  0  0  0  0  0  0  0
  1  9  1  0  0  0  0
  1  2  1  0  0  0  0
  1 11  1  0  0  0  0
  3 13  1  0  0  0  0
  3  4  1  0  0  0  0
  3  2  1  0  0  0  0
  4 14  1  6  0  0  0
  4  5  1  0  0  0  0
  5 16  1  0  0  0  0
  5 15  1  0  0  0  0
  6  4  1  0  0  0  0
  6 18  1  0  0  0  0
  7 19  1  0  0  0  0
  7  6  1  0  0  0  0
  8  7  2  0  0  0  0
 10  1  1  0  0  0  0
 12  3  1  0  0  0  0
 17  5  1  0  0  0  0
M  END
