title
 OpenBabel02282109583D

 19 18  0  0  1  0  0  0  0  0999 V2000
    0.7164    2.3934    0.1967 C   0  0  0  0  0  0  0  0  0  0  0  0
    0.0736    1.9626   -0.9926 O   0  0  0  0  0  0  0  0  0  0  0  0
   -1.0021    1.0753   -0.8010 C   0  0  0  0  0  0  0  0  0  0  0  0
   -0.5980   -0.3977   -0.6737 C   0  0  1  0  0  0  0  0  0  0  0  0
    0.3564   -0.8500   -1.7740 C   0  0  0  0  0  0  0  0  0  0  0  0
    0.0112   -0.5721    0.6190 O   0  0  0  0  0  0  0  0  0  0  0  0
   -0.1070   -1.7775    1.2034 C   0  0  0  0  0  0  0  0  0  0  0  0
    0.5057   -2.0262    2.2788 N   0  0  0  0  0  0  0  0  0  0  0  0
    1.4385    3.1582   -0.0997 H   0  0  0  0  0  0  0  0  0  0  0  0
   -0.0059    2.8400    0.8965 H   0  0  0  0  0  0  0  0  0  0  0  0
    1.2358    1.5769    0.7091 H   0  0  0  0  0  0  0  0  0  0  0  0
   -1.5976    1.3577    0.0805 H   0  0  0  0  0  0  0  0  0  0  0  0
   -1.6402    1.1690   -1.6881 H   0  0  0  0  0  0  0  0  0  0  0  0
   -1.5238   -0.9925   -0.7056 H   0  0  0  0  0  0  0  0  0  0  0  0
    0.6385   -1.8978   -1.6381 H   0  0  0  0  0  0  0  0  0  0  0  0
   -0.1189   -0.7466   -2.7546 H   0  0  0  0  0  0  0  0  0  0  0  0
    1.2580   -0.2345   -1.7634 H   0  0  0  0  0  0  0  0  0  0  0  0
   -0.7785   -2.4606    0.6625 H   0  0  0  0  0  0  0  0  0  0  0  0
    0.2822   -2.9676    2.5947 H   0  0  0  0  0  0  0  0  0  0  0  0
  1 11  1  0  0  0  0
  1 10  1  0  0  0  0
  2  3  1  0  0  0  0
  2  1  1  0  0  0  0
  3  4  1  0  0  0  0
  3 12  1  0  0  0  0
  4 14  1  6  0  0  0
  4  6  1  0  0  0  0
  5 17  1  0  0  0  0
  5 15  1  0  0  0  0
  5  4  1  0  0  0  0
  6  7  1  0  0  0  0
  7  8  2  0  0  0  0
  8 19  1  0  0  0  0
  9  1  1  0  0  0  0
 13  3  1  0  0  0  0
 16  5  1  0  0  0  0
 18  7  1  0  0  0  0
M  END
