title
 OpenBabel02282109583D

 18 17  0  0  1  0  0  0  0  0999 V2000
    1.0887    3.2097    0.6275 C   0  0  0  0  0  0  0  0  0  0  0  0
    1.1712    1.8052    0.7156 O   0  0  0  0  0  0  0  0  0  0  0  0
    0.0654    1.1514    0.1415 C   0  0  0  0  0  0  0  0  0  0  0  0
    0.2600   -0.3524    0.3320 C   0  0  1  0  0  0  0  0  0  0  0  0
    0.2930   -0.7732    1.7931 C   0  0  0  0  0  0  0  0  0  0  0  0
   -0.8496   -0.9980   -0.3201 O   0  0  0  0  0  0  0  0  0  0  0  0
   -0.5998   -1.8264   -1.3504 C   0  0  0  0  0  0  0  0  0  0  0  0
   -1.4626   -2.3958   -1.9477 O   0  0  0  0  0  0  0  0  0  0  0  0
    1.0451    3.5493   -0.4188 H   0  0  0  0  0  0  0  0  0  0  0  0
    0.2027    3.5981    1.1528 H   0  0  0  0  0  0  0  0  0  0  0  0
    1.9868    3.6186    1.0957 H   0  0  0  0  0  0  0  0  0  0  0  0
   -0.8784    1.4650    0.6178 H   0  0  0  0  0  0  0  0  0  0  0  0
   -0.0169    1.3777   -0.9344 H   0  0  0  0  0  0  0  0  0  0  0  0
    1.1941   -0.6453   -0.1658 H   0  0  0  0  0  0  0  0  0  0  0  0
    1.0804   -0.2229    2.3128 H   0  0  0  0  0  0  0  0  0  0  0  0
   -0.6656   -0.5521    2.2722 H   0  0  0  0  0  0  0  0  0  0  0  0
    0.4857   -1.8455    1.8851 H   0  0  0  0  0  0  0  0  0  0  0  0
    0.4817   -1.9180   -1.5742 H   0  0  0  0  0  0  0  0  0  0  0  0
  1  2  1  0  0  0  0
  1 11  1  0  0  0  0
  1 10  1  0  0  0  0
  3  4  1  0  0  0  0
  3 12  1  0  0  0  0
  3  2  1  0  0  0  0
  4 14  1  6  0  0  0
  4  5  1  0  0  0  0
  5 17  1  0  0  0  0
  5 16  1  0  0  0  0
  5 15  1  0  0  0  0
  6  4  1  0  0  0  0
  7  6  1  0  0  0  0
  8  7  2  0  0  0  0
  9  1  1  0  0  0  0
 13  3  1  0  0  0  0
 18  7  1  0  0  0  0
M  END
