title
 OpenBabel02282109583D

 18 17  0  0  1  0  0  0  0  0999 V2000
   -1.3426    3.1464   -0.4255 C   0  0  0  0  0  0  0  0  0  0  0  0
   -1.1623    1.7519   -0.3323 O   0  0  0  0  0  0  0  0  0  0  0  0
    0.1063    1.3259   -0.7700 C   0  0  0  0  0  0  0  0  0  0  0  0
    0.1876   -0.1954   -0.6294 C   0  0  1  0  0  0  0  0  0  0  0  0
    1.4061   -0.6777   -1.1772 O   0  0  0  0  0  0  0  0  0  0  0  0
   -0.0109   -0.6543    0.8193 C   0  0  0  0  0  0  0  0  0  0  0  0
    0.0103   -2.1612    0.9355 C   0  0  0  0  0  0  0  0  0  0  0  0
    0.6957   -2.7811    1.7063 O   0  0  0  0  0  0  0  0  0  0  0  0
   -1.2459    3.5000   -1.4635 H   0  0  0  0  0  0  0  0  0  0  0  0
   -2.3501    3.3702   -0.0674 H   0  0  0  0  0  0  0  0  0  0  0  0
   -0.6140    3.6928    0.1935 H   0  0  0  0  0  0  0  0  0  0  0  0
    0.2784    1.5953   -1.8240 H   0  0  0  0  0  0  0  0  0  0  0  0
    0.9076    1.7994   -0.1728 H   0  0  0  0  0  0  0  0  0  0  0  0
   -0.5999   -0.6336   -1.2543 H   0  0  0  0  0  0  0  0  0  0  0  0
    2.1220   -0.4407   -0.5767 H   0  0  0  0  0  0  0  0  0  0  0  0
    0.7614   -0.2379    1.4772 H   0  0  0  0  0  0  0  0  0  0  0  0
   -0.9850   -0.2845    1.1645 H   0  0  0  0  0  0  0  0  0  0  0  0
   -0.6835   -2.6832    0.2359 H   0  0  0  0  0  0  0  0  0  0  0  0
  1  2  1  0  0  0  0
  1 10  1  0  0  0  0
  1 11  1  0  0  0  0
  3  4  1  0  0  0  0
  3  2  1  0  0  0  0
  3 13  1  0  0  0  0
  4 14  1  6  0  0  0
  4  6  1  0  0  0  0
  5  4  1  0  0  0  0
  5 15  1  0  0  0  0
  6  7  1  0  0  0  0
  6 17  1  0  0  0  0
  6 16  1  0  0  0  0
  7  8  2  0  0  0  0
  9  1  1  0  0  0  0
 12  3  1  0  0  0  0
 18  7  1  0  0  0  0
M  END
