title
 OpenBabel02282109583D

 18 17  0  0  1  0  0  0  0  0999 V2000
    1.4356    3.3249   -0.1486 O   0  0  0  0  0  0  0  0  0  0  0  0
    1.5675    1.9117   -0.1655 C   0  0  0  0  0  0  0  0  0  0  0  0
    0.1679    1.3199   -0.0476 C   0  0  0  0  0  0  0  0  0  0  0  0
    0.1633   -0.2100   -0.0208 C   0  0  1  0  0  0  0  0  0  0  0  0
    0.9487   -0.7291    1.0521 O   0  0  0  0  0  0  0  0  0  0  0  0
   -1.2676   -0.7787    0.0211 C   0  0  0  0  0  0  0  0  0  0  0  0
   -1.2987   -2.2907   -0.0690 C   0  0  0  0  0  0  0  0  0  0  0  0
   -2.0658   -2.9124   -0.7595 O   0  0  0  0  0  0  0  0  0  0  0  0
    2.3160    3.7090   -0.1916 H   0  0  0  0  0  0  0  0  0  0  0  0
    2.0365    1.5637   -1.1006 H   0  0  0  0  0  0  0  0  0  0  0  0
    2.1912    1.5511    0.6645 H   0  0  0  0  0  0  0  0  0  0  0  0
   -0.3049    1.7055    0.8668 H   0  0  0  0  0  0  0  0  0  0  0  0
   -0.4415    1.6762   -0.8859 H   0  0  0  0  0  0  0  0  0  0  0  0
    0.6649   -0.5838   -0.9231 H   0  0  0  0  0  0  0  0  0  0  0  0
    0.5989   -0.3657    1.8743 H   0  0  0  0  0  0  0  0  0  0  0  0
   -1.7260   -0.4897    0.9800 H   0  0  0  0  0  0  0  0  0  0  0  0
   -1.8910   -0.3674   -0.7782 H   0  0  0  0  0  0  0  0  0  0  0  0
   -0.5430   -2.8033    0.5636 H   0  0  0  0  0  0  0  0  0  0  0  0
  2  1  1  0  0  0  0
  2  3  1  0  0  0  0
  2 11  1  0  0  0  0
  3  4  1  0  0  0  0
  3 12  1  0  0  0  0
  4 14  1  6  0  0  0
  4  6  1  0  0  0  0
  4  5  1  0  0  0  0
  5 15  1  0  0  0  0
  6 16  1  0  0  0  0
  7  6  1  0  0  0  0
  7 18  1  0  0  0  0
  8  7  2  0  0  0  0
  9  1  1  0  0  0  0
 10  2  1  0  0  0  0
 13  3  1  0  0  0  0
 17  6  1  0  0  0  0
M  END
