22
title
C -0.44486114 1.7780877 0.013814606
C -0.34472254 0.2435622 0.0045957575
C 0.3549701 -0.2824077 -1.2616086
C -0.36928958 0.014591253 -2.5698495
O 0.3296967 -0.66123974 -3.6066408
C 0.37891823 -0.29594427 1.2514981
C -0.320217 -0.013077558 2.5764322
O 0.3983022 -0.7000001 3.5923717
H 0.55351496 2.2321992 0.0067768353
H -0.9868722 2.1547012 -0.8584102
H -0.97016615 2.145226 0.9001858
H -1.3683989 -0.16184357 0.012167441
H 1.372279 0.1256794 -1.3227845
H 0.46334994 -1.3711977 -1.1905279
H -1.4139925 -0.33398372 -2.5025697
H -0.399234 1.0977274 -2.7615645
H -0.09050787 -0.44278824 -4.4433994
H 0.48577058 -1.3838999 1.1666609
H 1.3972659 0.111528136 1.2976433
H -0.34632388 1.0679307 2.7803307
H -1.3660697 -0.3609528 2.525338
H -0.005847271 -0.4906022 4.4392924
