24
title
C -1.0521975 3.4608455 -1.3658732
C -0.9552651 1.9347627 -1.45037
C -0.21242201 1.321299 -0.2574089
C -0.16086304 -0.21661246 -0.2478912
C 0.62272376 -0.8004402 -1.431267
C 0.42190284 -0.70583117 1.0789977
O 0.3320858 -2.11395 1.1398615
C 0.8784295 -2.6488206 2.3191752
H -0.057412025 3.919796 -1.3398172
H -1.5868064 3.8758614 -2.2261
H -1.58305 3.775212 -0.46019801
H -1.9646987 1.505711 -1.5054476
H -0.45509493 1.657182 -2.3854973
H 0.81305474 1.7181299 -0.22809257
H -0.6956411 1.6661365 0.66764843
H -1.19161 -0.5956274 -0.29554525
H 1.6409706 -0.39237416 -1.4624588
H 0.6975278 -1.8858882 -1.3357261
H 0.14302403 -0.5742277 -2.3874404
H 1.4762629 -0.3865856 1.1720313
H -0.12647283 -0.25585926 1.9248015
H 1.9502541 -2.4126165 2.4190562
H 0.3628078 -2.2724097 3.2176094
H 0.7597136 -3.7344415 2.274685
