title
 OpenBabel02282109583D

 24 23  0  0  1  0  0  0  0  0999 V2000
   -0.8961    3.3321    0.4784 C   0  0  0  0  0  0  0  0  0  0  0  0
   -0.9360    1.8030    0.4192 C   0  0  0  0  0  0  0  0  0  0  0  0
   -0.2361    1.2339   -0.8185 C   0  0  0  0  0  0  0  0  0  0  0  0
   -0.2226   -0.2954   -0.8688 C   0  0  1  0  0  0  0  0  0  0  0  0
    0.3778   -0.8226   -2.1756 C   0  0  0  0  0  0  0  0  0  0  0  0
    0.5188   -0.7383    0.2639 O   0  0  0  0  0  0  0  0  0  0  0  0
    0.2732   -2.0688    0.6701 C   0  0  0  0  0  0  0  0  0  0  0  0
    1.0476   -2.3269    1.9528 C   0  0  0  0  0  0  0  0  0  0  0  0
    0.1359    3.7000    0.5023 H   0  0  0  0  0  0  0  0  0  0  0  0
   -1.3836    3.7788   -0.3959 H   0  0  0  0  0  0  0  0  0  0  0  0
   -1.4038    3.7111    1.3710 H   0  0  0  0  0  0  0  0  0  0  0  0
   -0.4635    1.3800    1.3115 H   0  0  0  0  0  0  0  0  0  0  0  0
   -1.9805    1.4626    0.4316 H   0  0  0  0  0  0  0  0  0  0  0  0
   -0.7221    1.6086   -1.7286 H   0  0  0  0  0  0  0  0  0  0  0  0
    0.8036    1.5863   -0.8504 H   0  0  0  0  0  0  0  0  0  0  0  0
   -1.2607   -0.6622   -0.7787 H   0  0  0  0  0  0  0  0  0  0  0  0
    0.3927   -1.9159   -2.2010 H   0  0  0  0  0  0  0  0  0  0  0  0
   -0.2084   -0.4794   -3.0341 H   0  0  0  0  0  0  0  0  0  0  0  0
    1.4054   -0.4636   -2.2920 H   0  0  0  0  0  0  0  0  0  0  0  0
   -0.8072   -2.2209    0.8346 H   0  0  0  0  0  0  0  0  0  0  0  0
    0.5832   -2.7863   -0.1062 H   0  0  0  0  0  0  0  0  0  0  0  0
    0.8808   -3.3508    2.3009 H   0  0  0  0  0  0  0  0  0  0  0  0
    2.1197   -2.1870    1.7871 H   0  0  0  0  0  0  0  0  0  0  0  0
    0.7308   -1.6353    2.7388 H   0  0  0  0  0  0  0  0  0  0  0  0
  1  9  1  0  0  0  0
  1 11  1  0  0  0  0
  2 13  1  0  0  0  0
  2  1  1  0  0  0  0
  2 12  1  0  0  0  0
  3  2  1  0  0  0  0
  4  3  1  0  0  0  0
  4 16  1  1  0  0  0
  4  6  1  0  0  0  0
  5  4  1  0  0  0  0
  6  7  1  0  0  0  0
  7 20  1  0  0  0  0
  7  8  1  0  0  0  0
  8 22  1  0  0  0  0
  8 24  1  0  0  0  0
 10  1  1  0  0  0  0
 14  3  1  0  0  0  0
 15  3  1  0  0  0  0
 17  5  1  0  0  0  0
 18  5  1  0  0  0  0
 19  5  1  0  0  0  0
 21  7  1  0  0  0  0
 23  8  1  0  0  0  0
M  END
