22
title
C -0.15179434 3.0616064 1.7755909
C -0.745845 1.6763299 1.5091943
C -0.05527731 0.93996704 0.35690266
C -0.6847949 -0.41652286 0.03514654
O -2.0479858 -0.30443752 -0.3654886
C 0.09532998 -1.1897842 -1.031186
O 1.39896 -1.441979 -0.55862325
C 2.1896815 -2.158577 -1.4759299
H 0.9133364 2.996262 2.024789
H -0.2434707 3.7088835 0.8957961
H -0.6584288 3.5600796 2.6079905
H -0.6731137 1.0643833 2.4178941
H -1.8153429 1.762011 1.2869809
H -0.08366033 1.5620672 -0.55271024
H 1.0049292 0.78050005 0.58291703
H -0.70716405 -1.0287637 0.94488466
H -2.0833988 0.30900598 -1.1082293
H -0.4354155 -2.1294954 -1.252222
H 0.12828276 -0.60269105 -1.9688395
H 1.7534992 -3.1427355 -1.7090973
H 2.317312 -1.6087619 -2.4221396
H 3.170971 -2.3064947 -1.0184761
