title
 OpenBabel02282109583D

 20 19  0  0  1  0  0  0  0  0999 V2000
   -1.2092    3.1615   -0.5741 C   0  0  0  0  0  0  0  0  0  0  0  0
   -1.0539    1.7672   -0.4594 O   0  0  0  0  0  0  0  0  0  0  0  0
    0.2018    1.3118   -0.9061 C   0  0  0  0  0  0  0  0  0  0  0  0
    0.2719   -0.2080   -0.7370 C   0  0  1  0  0  0  0  0  0  0  0  0
    1.4644   -0.7003   -1.3436 O   0  0  0  0  0  0  0  0  0  0  0  0
    0.1378   -0.6381    0.7232 C   0  0  0  0  0  0  0  0  0  0  0  0
    0.0730   -2.1498    0.8958 C   0  0  0  0  0  0  0  0  0  0  0  0
    0.0073   -2.4247    2.2883 O   0  0  0  0  0  0  0  0  0  0  0  0
   -1.1172    3.4975   -1.6190 H   0  0  0  0  0  0  0  0  0  0  0  0
   -2.2083    3.4112   -0.2090 H   0  0  0  0  0  0  0  0  0  0  0  0
   -0.4640    3.7060    0.0273 H   0  0  0  0  0  0  0  0  0  0  0  0
    0.3609    1.5599   -1.9676 H   0  0  0  0  0  0  0  0  0  0  0  0
    1.0174    1.7893   -0.3304 H   0  0  0  0  0  0  0  0  0  0  0  0
   -0.5444   -0.6467   -1.3236 H   0  0  0  0  0  0  0  0  0  0  0  0
    2.2079   -0.4064   -0.8048 H   0  0  0  0  0  0  0  0  0  0  0  0
    0.9929   -0.2524    1.2974 H   0  0  0  0  0  0  0  0  0  0  0  0
   -0.7594   -0.1789    1.1490 H   0  0  0  0  0  0  0  0  0  0  0  0
   -0.8126   -2.5424    0.3692 H   0  0  0  0  0  0  0  0  0  0  0  0
    0.9577   -2.6119    0.4344 H   0  0  0  0  0  0  0  0  0  0  0  0
   -0.0105   -3.3791    2.4033 H   0  0  0  0  0  0  0  0  0  0  0  0
  1  2  1  0  0  0  0
  1 10  1  0  0  0  0
  1 11  1  0  0  0  0
  3  4  1  0  0  0  0
  3  2  1  0  0  0  0
  3 13  1  0  0  0  0
  4 14  1  6  0  0  0
  4  6  1  0  0  0  0
  5 15  1  0  0  0  0
  5  4  1  0  0  0  0
  6  7  1  0  0  0  0
  6 17  1  0  0  0  0
  6 16  1  0  0  0  0
  7  8  1  0  0  0  0
  8 20  1  0  0  0  0
  9  1  1  0  0  0  0
 12  3  1  0  0  0  0
 18  7  1  0  0  0  0
 19  7  1  0  0  0  0
M  END
