14
title
C -0.5295988 3.5668454 -0.0050523113
C -0.52101743 2.1171896 0.050548837
C -0.51301074 0.9108006 0.09651559
C -0.52140397 -0.5254705 0.15589027
O -1.499274 -1.189141 0.43539417
C 0.8256201 -1.2222569 -0.1649769
C 0.8020919 -2.7287295 -0.09904469
O 1.7972252 -0.5631616 -0.4425523
H 0.4565995 3.9617672 -0.2684747
H -1.2512027 3.9200778 -0.7497708
H -0.82142 3.9886143 0.9629389
H 0.054025806 -3.1231444 -0.7939817
H 1.7905028 -3.1207225 -0.3391038
H 0.49166575 -3.0559118 0.89829326
