title
 OpenBabel02282109583D

 18 17  0  0  0  0  0  0  0  0999 V2000
   -0.3532    3.6267    0.2058 C   0  0  0  0  0  0  0  0  0  0  0  0
   -0.3781    2.1828    0.0452 C   0  0  0  0  0  0  0  0  0  0  0  0
   -0.4179    0.9836   -0.0887 C   0  0  0  0  0  0  0  0  0  0  0  0
   -0.4661   -0.4562   -0.2715 C   0  0  0  0  0  0  0  0  0  0  0  0
   -1.5098   -1.0287   -0.5086 O   0  0  0  0  0  0  0  0  0  0  0  0
    0.8719   -1.1851   -0.1436 C   0  0  0  0  0  0  0  0  0  0  0  0
    1.3886   -1.0788    1.3055 C   0  0  0  0  0  0  0  0  0  0  0  0
    0.7565   -2.6368   -0.6103 C   0  0  0  0  0  0  0  0  0  0  0  0
    0.6601    4.0265    0.0957 H   0  0  0  0  0  0  0  0  0  0  0  0
   -0.9956    4.1143   -0.5352 H   0  0  0  0  0  0  0  0  0  0  0  0
   -0.7202    3.9095    1.1986 H   0  0  0  0  0  0  0  0  0  0  0  0
    1.5796   -0.6430   -0.7865 H   0  0  0  0  0  0  0  0  0  0  0  0
    2.3796   -1.5352    1.3864 H   0  0  0  0  0  0  0  0  0  0  0  0
    1.4642   -0.0372    1.6287 H   0  0  0  0  0  0  0  0  0  0  0  0
    0.7177   -1.6034    1.9940 H   0  0  0  0  0  0  0  0  0  0  0  0
    0.4061   -2.6956   -1.6439 H   0  0  0  0  0  0  0  0  0  0  0  0
    1.7285   -3.1350   -0.5439 H   0  0  0  0  0  0  0  0  0  0  0  0
    0.0419   -3.1867    0.0081 H   0  0  0  0  0  0  0  0  0  0  0  0
  1 11  1  0  0  0  0
  2  1  1  0  0  0  0
  3  2  3  0  0  0  0
  4  6  1  0  0  0  0
  4  3  1  0  0  0  0
  5  4  2  0  0  0  0
  6  7  1  0  0  0  0
  7 13  1  0  0  0  0
  7 14  1  0  0  0  0
  7 15  1  0  0  0  0
  8 17  1  0  0  0  0
  8  6  1  0  0  0  0
  8 18  1  0  0  0  0
  9  1  1  0  0  0  0
 10  1  1  0  0  0  0
 12  6  1  0  0  0  0
 16  8  1  0  0  0  0
M  END
