title
 OpenBabel02282109583D

 16 15  0  0  1  0  0  0  0  0999 V2000
   -0.4953    3.6359    0.0369 C   0  0  0  0  0  0  0  0  0  0  0  0
   -0.4697    2.1882   -0.0702 C   0  0  0  0  0  0  0  0  0  0  0  0
   -0.4666    0.9842   -0.1597 C   0  0  0  0  0  0  0  0  0  0  0  0
   -0.4396   -0.4494   -0.2784 C   0  0  0  0  0  0  0  0  0  0  0  0
   -1.4283   -1.1083   -0.5481 O   0  0  0  0  0  0  0  0  0  0  0  0
    0.9051   -1.1526   -0.0701 C   0  0  1  0  0  0  0  0  0  0  0  0
    1.4740   -0.8855    1.3302 C   0  0  0  0  0  0  0  0  0  0  0  0
    0.7481   -2.5271   -0.2902 O   0  0  0  0  0  0  0  0  0  0  0  0
    0.5062    4.0631   -0.0775 H   0  0  0  0  0  0  0  0  0  0  0  0
   -1.1459    4.0735   -0.7275 H   0  0  0  0  0  0  0  0  0  0  0  0
   -0.8816    3.9397    1.0161 H   0  0  0  0  0  0  0  0  0  0  0  0
    1.5977   -0.7239   -0.8156 H   0  0  0  0  0  0  0  0  0  0  0  0
    1.6528    0.1813    1.4893 H   0  0  0  0  0  0  0  0  0  0  0  0
    0.7837   -1.2512    2.0961 H   0  0  0  0  0  0  0  0  0  0  0  0
    2.4199   -1.4218    1.4372 H   0  0  0  0  0  0  0  0  0  0  0  0
   -0.1905   -2.6457   -0.5111 H   0  0  0  0  0  0  0  0  0  0  0  0
  1 11  1  0  0  0  0
  2  1  1  0  0  0  0
  3  2  3  0  0  0  0
  4  3  1  0  0  0  0
  4  6  1  0  0  0  0
  5  4  2  0  0  0  0
  6 12  1  6  0  0  0
  6  7  1  0  0  0  0
  7 15  1  0  0  0  0
  7 13  1  0  0  0  0
  7 14  1  0  0  0  0
  8  6  1  0  0  0  0
  9  1  1  0  0  0  0
 10  1  1  0  0  0  0
 16  8  1  0  0  0  0
M  END
