16
title
C -0.49525794 3.6359181 0.03687267
C -0.46970916 2.1881568 -0.07015923
C -0.46656957 0.9841686 -0.15965462
C -0.43958974 -0.44942266 -0.27842572
O -1.4282532 -1.1082572 -0.54806775
C 0.90512687 -1.1525632 -0.070123024
C 1.4739896 -0.8854976 1.3302307
O 0.74810165 -2.5270607 -0.29022512
H 0.5061535 4.063133 -0.07748086
H -1.1458611 4.073507 -0.72748125
H -0.8815596 3.9397304 1.016064
H 1.5976824 -0.7238563 -0.8156109
H 1.6527773 0.18129486 1.4893135
H 0.78369194 -1.251208 2.0961492
H 2.4199338 -1.4217724 1.4371505
H -0.19048122 -2.6457489 -0.5110784
