title
 OpenBabel02282109583D

 17 16  0  0  0  0  0  0  0  0999 V2000
   -0.6117    3.5546    0.1292 C   0  0  0  0  0  0  0  0  0  0  0  0
   -0.5084    2.1056    0.0725 C   0  0  0  0  0  0  0  0  0  0  0  0
   -0.4260    0.9034    0.0253 C   0  0  0  0  0  0  0  0  0  0  0  0
   -0.4935   -0.5492   -0.0362 C   0  0  0  0  0  0  0  0  0  0  0  0
   -1.5737   -1.1177   -0.0895 O   0  0  0  0  0  0  0  0  0  0  0  0
    0.7063   -1.2150   -0.0304 N   0  0  0  0  0  0  0  0  0  0  0  0
    0.7038   -2.6648   -0.0901 C   0  0  0  0  0  0  0  0  0  0  0  0
    2.0015   -0.5715    0.0319 C   0  0  0  0  0  0  0  0  0  0  0  0
   -0.0981    4.0192   -0.7195 H   0  0  0  0  0  0  0  0  0  0  0  0
   -1.6579    3.8771    0.1072 H   0  0  0  0  0  0  0  0  0  0  0  0
   -0.1579    3.9457    1.0463 H   0  0  0  0  0  0  0  0  0  0  0  0
    1.2432   -3.0153   -0.9792 H   0  0  0  0  0  0  0  0  0  0  0  0
    1.1941   -3.0883    0.7957 H   0  0  0  0  0  0  0  0  0  0  0  0
   -0.3295   -3.0053   -0.1327 H   0  0  0  0  0  0  0  0  0  0  0  0
    1.8776    0.5099    0.0730 H   0  0  0  0  0  0  0  0  0  0  0  0
    2.5549   -0.8976    0.9225 H   0  0  0  0  0  0  0  0  0  0  0  0
    2.6039   -0.8246   -0.8507 H   0  0  0  0  0  0  0  0  0  0  0  0
  1 11  1  0  0  0  0
  2  1  1  0  0  0  0
  3  2  3  0  0  0  0
  4  6  1  0  0  0  0
  4  3  1  0  0  0  0
  5  4  2  0  0  0  0
  6  8  1  0  0  0  0
  7  6  1  0  0  0  0
  7 13  1  0  0  0  0
  8 15  1  0  0  0  0
  8 16  1  0  0  0  0
  9  1  1  0  0  0  0
 10  1  1  0  0  0  0
 12  7  1  0  0  0  0
 14  7  1  0  0  0  0
 17  8  1  0  0  0  0
M  END
