17
title
C 0.604568 3.289081 1.2171373
C 0.21188153 1.9198648 0.9110439
C -0.12605286 0.7873765 0.67169684
C -0.55357206 -0.5779543 0.37594163
C -2.0297363 -0.6471853 -0.06931297
C 0.32863557 -1.3243039 -0.65898305
N 1.4533362 -0.678982 -1.0540754
O 0.013978555 -2.4305534 -1.0528727
H 1.5436959 3.319949 1.7804301
H 0.74360144 3.879759 0.30499816
H -0.15927152 3.7909462 1.8211684
H -0.4542456 -1.1795602 1.2903653
H -2.2785397 -1.6814182 -0.3119965
H -2.6852527 -0.28758457 0.7271636
H -2.1939332 -0.027927896 -0.95562047
H 1.6535065 0.25368223 -0.7351058
H 2.052658 -1.1269071 -1.726822
