16
title
C 0.032035477 3.4724908 0.7126591
C -0.07247803 2.0211484 0.65191066
C -0.17737009 0.8210496 0.62028235
C -0.29942447 -0.63317525 0.558161
N -1.6985064 -1.0658666 0.5956312
C 0.47365862 -1.2618338 -0.64467466
N 1.6050295 -0.6168252 -1.0210797
O 0.09213159 -2.3074343 -1.1338962
H 0.9014723 3.7839515 1.3017513
H 0.13006325 3.9115834 -0.28614724
H -0.8571715 3.9080322 1.1809913
H 0.19921742 -1.0569171 1.4448348
H -2.2187288 -0.5236026 -0.08983956
H -1.7049385 -2.0232008 0.24377485
H 1.7824259 0.3205315 -0.7007282
H 2.1235533 -0.9777924 -1.8054327
