title
 OpenBabel02282109583D

 16 15  0  0  1  0  0  0  0  0999 V2000
   -0.0311    3.4457    0.6868 C   0  0  0  0  0  0  0  0  0  0  0  0
   -0.0899    1.9919    0.6527 C   0  0  0  0  0  0  0  0  0  0  0  0
   -0.1520    0.7892    0.6357 C   0  0  0  0  0  0  0  0  0  0  0  0
   -0.2429   -0.6758    0.6010 C   0  0  1  0  0  0  0  0  0  0  0  0
   -1.5650   -1.1427    0.6320 O   0  0  0  0  0  0  0  0  0  0  0  0
    0.4647   -1.2017   -0.6755 C   0  0  0  0  0  0  0  0  0  0  0  0
    1.9432   -0.9543   -0.8220 C   0  0  0  0  0  0  0  0  0  0  0  0
   -0.2001   -1.7984   -1.4913 O   0  0  0  0  0  0  0  0  0  0  0  0
    0.7273    3.7967    1.3950 H   0  0  0  0  0  0  0  0  0  0  0  0
    0.2124    3.8603   -0.2974 H   0  0  0  0  0  0  0  0  0  0  0  0
   -0.9938    3.8672    0.9958 H   0  0  0  0  0  0  0  0  0  0  0  0
    0.3053   -1.0845    1.4663 H   0  0  0  0  0  0  0  0  0  0  0  0
   -1.7097   -1.5285   -0.2488 H   0  0  0  0  0  0  0  0  0  0  0  0
    2.1622    0.1099   -0.7002 H   0  0  0  0  0  0  0  0  0  0  0  0
    2.4827   -1.4864   -0.0298 H   0  0  0  0  0  0  0  0  0  0  0  0
    2.2865   -1.3066   -1.7951 H   0  0  0  0  0  0  0  0  0  0  0  0
  1 11  1  0  0  0  0
  1  9  1  0  0  0  0
  2  1  1  0  0  0  0
  3  2  3  0  0  0  0
  4  5  1  0  0  0  0
  4  3  1  0  0  0  0
  4 12  1  1  0  0  0
  6  4  1  0  0  0  0
  7 14  1  0  0  0  0
  7  6  1  0  0  0  0
  7 15  1  0  0  0  0
  8  6  2  0  0  0  0
 10  1  1  0  0  0  0
 13  5  1  0  0  0  0
 16  7  1  0  0  0  0
M  END
