22
title
C -0.36501756 3.5338511 0.52549624
C -0.31785446 2.0779414 0.5078617
C -0.2718962 0.8738237 0.5019246
C -0.26146352 -0.5912444 0.48184168
C -1.7044076 -1.1199087 0.62947017
C 0.46511072 -1.1354002 -0.78379905
C 1.904469 -0.6101448 -0.8643247
C 0.45793277 -2.669643 -0.8375462
H 0.4265684 3.9519606 1.1575195
H -0.23791648 3.9501617 -0.48014203
H -1.3231566 3.8977108 0.9133707
H 0.31269038 -0.93914956 1.3547192
H -2.2969103 -0.8773646 -0.25876227
H -1.7197996 -2.203299 0.7711807
H -2.190934 -0.65789217 1.4922687
H -0.08686712 -0.7565591 -1.6550637
H 2.501736 -0.9806654 -0.021913866
H 2.3897853 -0.9470808 -1.7860428
H 1.9321098 0.48177776 -0.8406019
H 0.9216462 -3.0964303 0.060529314
H -0.5505354 -3.082087 -0.92352355
H 1.0312489 -3.022087 -1.7010614
