title
 OpenBabel02282109583D

 22 21  0  0  1  0  0  0  0  0999 V2000
   -0.3650    3.5339    0.5255 C   0  0  0  0  0  0  0  0  0  0  0  0
   -0.3179    2.0779    0.5079 C   0  0  0  0  0  0  0  0  0  0  0  0
   -0.2719    0.8738    0.5019 C   0  0  0  0  0  0  0  0  0  0  0  0
   -0.2615   -0.5912    0.4818 C   0  0  1  0  0  0  0  0  0  0  0  0
   -1.7044   -1.1199    0.6295 C   0  0  0  0  0  0  0  0  0  0  0  0
    0.4651   -1.1354   -0.7838 C   0  0  0  0  0  0  0  0  0  0  0  0
    1.9045   -0.6101   -0.8643 C   0  0  0  0  0  0  0  0  0  0  0  0
    0.4579   -2.6696   -0.8375 C   0  0  0  0  0  0  0  0  0  0  0  0
    0.4266    3.9520    1.1575 H   0  0  0  0  0  0  0  0  0  0  0  0
   -0.2379    3.9502   -0.4801 H   0  0  0  0  0  0  0  0  0  0  0  0
   -1.3232    3.8977    0.9134 H   0  0  0  0  0  0  0  0  0  0  0  0
    0.3127   -0.9391    1.3547 H   0  0  0  0  0  0  0  0  0  0  0  0
   -2.2969   -0.8774   -0.2588 H   0  0  0  0  0  0  0  0  0  0  0  0
   -1.7198   -2.2033    0.7712 H   0  0  0  0  0  0  0  0  0  0  0  0
   -2.1909   -0.6579    1.4923 H   0  0  0  0  0  0  0  0  0  0  0  0
   -0.0869   -0.7566   -1.6551 H   0  0  0  0  0  0  0  0  0  0  0  0
    2.5017   -0.9807   -0.0219 H   0  0  0  0  0  0  0  0  0  0  0  0
    2.3898   -0.9471   -1.7860 H   0  0  0  0  0  0  0  0  0  0  0  0
    1.9321    0.4818   -0.8406 H   0  0  0  0  0  0  0  0  0  0  0  0
    0.9216   -3.0964    0.0605 H   0  0  0  0  0  0  0  0  0  0  0  0
   -0.5505   -3.0821   -0.9235 H   0  0  0  0  0  0  0  0  0  0  0  0
    1.0312   -3.0221   -1.7011 H   0  0  0  0  0  0  0  0  0  0  0  0
  1 11  1  0  0  0  0
  1  9  1  0  0  0  0
  2  1  1  0  0  0  0
  3  2  3  0  0  0  0
  4  3  1  0  0  0  0
  4  5  1  0  0  0  0
  4 12  1  1  0  0  0
  5 14  1  0  0  0  0
  5 15  1  0  0  0  0
  6  4  1  0  0  0  0
  7 19  1  0  0  0  0
  7  6  1  0  0  0  0
  7 17  1  0  0  0  0
  8  6  1  0  0  0  0
  8 20  1  0  0  0  0
 10  1  1  0  0  0  0
 13  5  1  0  0  0  0
 16  6  1  0  0  0  0
 18  7  1  0  0  0  0
 21  8  1  0  0  0  0
 22  8  1  0  0  0  0
M  END
