20
title
C 0.07335779 3.5577276 0.7567311
C 0.038513966 2.1024387 0.7188662
C 0.013940908 0.89901817 0.68318284
C -0.022960626 -0.5621822 0.63261735
C -1.4647983 -1.0776594 0.8181468
C 0.6428373 -1.0828497 -0.6775572
C 0.9352524 -2.5845 -0.643475
O -0.103846736 -0.7257402 -1.8317233
H 0.8684012 3.9225426 1.4168128
H 0.25283444 3.9766314 -0.23973125
H -0.8737221 3.9704916 1.1221329
H 0.58515584 -0.949383 1.4629759
H -1.5007579 -2.1710083 0.84620064
H -1.8832412 -0.7028227 1.7550837
H -2.1070573 -0.72114706 0.007262769
H 1.5902265 -0.54458547 -0.78753895
H 0.014881918 -3.174503 -0.5621436
H 1.4425687 -2.8812468 -1.5652684
H 1.5761267 -2.8468268 0.20452642
H -0.89265317 -1.277519 -1.8563222
