20
title
C -0.3907933 3.5481546 0.51747435
C -0.31856856 2.0940373 0.5003614
C -0.251479 0.8907714 0.5055288
C -0.23305331 -0.5746974 0.47016233
O -1.5557479 -1.10082 0.60089236
C 0.4848927 -1.125271 -0.7894364
C 1.9290202 -0.61767685 -0.87553006
C 0.42847273 -2.6571395 -0.80578
H 0.46605995 3.9792058 1.0468756
H -0.39662713 3.9622946 -0.49671927
H -1.2990454 3.8935351 1.0234733
H 0.30095103 -0.951877 1.3532794
H -2.1165955 -0.61012876 -0.009888754
H -0.07006855 -0.74345315 -1.6586618
H 2.5149105 -0.96132743 -0.014196412
H 2.4176137 -0.99820435 -1.7780108
H 1.971628 0.47419545 -0.8973765
H -0.59964716 -3.013068 -0.716628
H 0.8579405 -3.0498288 -1.732826
H 1.0028605 -3.0758545 0.02969451
