title
 OpenBabel02282109583D

 20 19  0  0  1  0  0  0  0  0999 V2000
   -0.3908    3.5482    0.5175 C   0  0  0  0  0  0  0  0  0  0  0  0
   -0.3186    2.0940    0.5004 C   0  0  0  0  0  0  0  0  0  0  0  0
   -0.2515    0.8908    0.5055 C   0  0  0  0  0  0  0  0  0  0  0  0
   -0.2331   -0.5747    0.4702 C   0  0  1  0  0  0  0  0  0  0  0  0
   -1.5557   -1.1008    0.6009 O   0  0  0  0  0  0  0  0  0  0  0  0
    0.4849   -1.1253   -0.7894 C   0  0  0  0  0  0  0  0  0  0  0  0
    1.9290   -0.6177   -0.8755 C   0  0  0  0  0  0  0  0  0  0  0  0
    0.4285   -2.6571   -0.8058 C   0  0  0  0  0  0  0  0  0  0  0  0
    0.4661    3.9792    1.0469 H   0  0  0  0  0  0  0  0  0  0  0  0
   -0.3966    3.9623   -0.4967 H   0  0  0  0  0  0  0  0  0  0  0  0
   -1.2990    3.8935    1.0235 H   0  0  0  0  0  0  0  0  0  0  0  0
    0.3010   -0.9519    1.3533 H   0  0  0  0  0  0  0  0  0  0  0  0
   -2.1166   -0.6101   -0.0099 H   0  0  0  0  0  0  0  0  0  0  0  0
   -0.0701   -0.7435   -1.6587 H   0  0  0  0  0  0  0  0  0  0  0  0
    2.5149   -0.9613   -0.0142 H   0  0  0  0  0  0  0  0  0  0  0  0
    2.4176   -0.9982   -1.7780 H   0  0  0  0  0  0  0  0  0  0  0  0
    1.9716    0.4742   -0.8974 H   0  0  0  0  0  0  0  0  0  0  0  0
   -0.5996   -3.0131   -0.7166 H   0  0  0  0  0  0  0  0  0  0  0  0
    0.8579   -3.0498   -1.7328 H   0  0  0  0  0  0  0  0  0  0  0  0
    1.0029   -3.0759    0.0297 H   0  0  0  0  0  0  0  0  0  0  0  0
  1 11  1  0  0  0  0
  1  9  1  0  0  0  0
  2  3  3  0  0  0  0
  2  1  1  0  0  0  0
  4  3  1  0  0  0  0
  4  5  1  0  0  0  0
  4 12  1  1  0  0  0
  6  4  1  0  0  0  0
  7  6  1  0  0  0  0
  7 15  1  0  0  0  0
  8  6  1  0  0  0  0
  8 18  1  0  0  0  0
  8 20  1  0  0  0  0
 10  1  1  0  0  0  0
 13  5  1  0  0  0  0
 14  6  1  0  0  0  0
 16  7  1  0  0  0  0
 17  7  1  0  0  0  0
 19  8  1  0  0  0  0
M  END
