title
 OpenBabel02282109583D

 18 17  0  0  1  0  0  0  0  0999 V2000
   -0.0172    3.5594    0.8761 C   0  0  0  0  0  0  0  0  0  0  0  0
   -0.0460    2.1079    0.7740 C   0  0  0  0  0  0  0  0  0  0  0  0
   -0.0555    0.9074    0.6759 C   0  0  0  0  0  0  0  0  0  0  0  0
   -0.1091   -0.5495    0.5859 C   0  0  1  0  0  0  0  0  0  0  0  0
   -1.4417   -1.0089    0.3054 O   0  0  0  0  0  0  0  0  0  0  0  0
    0.7692   -1.1131   -0.5574 C   0  0  1  0  0  0  0  0  0  0  0  0
    0.8817   -2.6378   -0.4717 C   0  0  0  0  0  0  0  0  0  0  0  0
    0.2509   -0.6952   -1.8047 O   0  0  0  0  0  0  0  0  0  0  0  0
    0.8889    3.9671    0.4149 H   0  0  0  0  0  0  0  0  0  0  0  0
   -0.8768    4.0079    0.3662 H   0  0  0  0  0  0  0  0  0  0  0  0
   -0.0385    3.8898    1.9203 H   0  0  0  0  0  0  0  0  0  0  0  0
    0.2342   -0.9827    1.5382 H   0  0  0  0  0  0  0  0  0  0  0  0
   -2.0544   -0.3823    0.7017 H   0  0  0  0  0  0  0  0  0  0  0  0
    1.7643   -0.6638   -0.4693 H   0  0  0  0  0  0  0  0  0  0  0  0
   -0.1105   -3.0981   -0.4930 H   0  0  0  0  0  0  0  0  0  0  0  0
    1.4565   -3.0096   -1.3234 H   0  0  0  0  0  0  0  0  0  0  0  0
    1.3852   -2.9476    0.4507 H   0  0  0  0  0  0  0  0  0  0  0  0
   -0.7037   -0.8330   -1.7432 H   0  0  0  0  0  0  0  0  0  0  0  0
  1 11  1  0  0  0  0
  2  1  1  0  0  0  0
  3  2  3  0  0  0  0
  4  3  1  0  0  0  0
  4 12  1  1  0  0  0
  5  4  1  0  0  0  0
  5 13  1  0  0  0  0
  6  7  1  0  0  0  0
  6 14  1  1  0  0  0
  6  4  1  0  0  0  0
  7 17  1  0  0  0  0
  8 18  1  0  0  0  0
  8  6  1  0  0  0  0
  9  1  1  0  0  0  0
 10  1  1  0  0  0  0
 15  7  1  0  0  0  0
 16  7  1  0  0  0  0
M  END
