title
 OpenBabel02282109583D

 13 12  0  0  0  0  0  0  0  0999 V2000
    1.2152    2.2742    0.0001 N   0  0  0  0  0  0  0  0  0  0  0  0
    1.2730    0.9264   -0.0074 C   0  0  0  0  0  0  0  0  0  0  0  0
    2.2817    0.2466   -0.0207 O   0  0  0  0  0  0  0  0  0  0  0  0
   -0.1355    0.2830    0.0027 C   0  0  0  0  0  0  0  0  0  0  0  0
   -1.1268    0.9688    0.0154 O   0  0  0  0  0  0  0  0  0  0  0  0
   -0.1200   -1.2399   -0.0047 C   0  0  0  0  0  0  0  0  0  0  0  0
   -1.4360   -1.8508    0.0043 C   0  0  0  0  0  0  0  0  0  0  0  0
   -2.5243   -2.3573    0.0118 C   0  0  0  0  0  0  0  0  0  0  0  0
    2.0631    2.8152   -0.0049 H   0  0  0  0  0  0  0  0  0  0  0  0
    0.3132    2.7225    0.0115 H   0  0  0  0  0  0  0  0  0  0  0  0
    0.4708   -1.5540   -0.8754 H   0  0  0  0  0  0  0  0  0  0  0  0
    0.4863   -1.5621    0.8523 H   0  0  0  0  0  0  0  0  0  0  0  0
   -3.4861   -2.8072    0.0183 H   0  0  0  0  0  0  0  0  0  0  0  0
  1 10  1  0  0  0  0
  2  1  1  0  0  0  0
  2  4  1  0  0  0  0
  3  2  2  0  0  0  0
  4  5  2  0  0  0  0
  6  4  1  0  0  0  0
  6  7  1  0  0  0  0
  6 12  1  0  0  0  0
  7  8  3  0  0  0  0
  8 13  1  0  0  0  0
  9  1  1  0  0  0  0
 11  6  1  0  0  0  0
M  END
