title
 OpenBabel02282109583D

 12 11  0  0  0  0  0  0  0  0999 V2000
    1.2145    2.2968   -0.0003 N   0  0  0  0  0  0  0  0  0  0  0  0
    1.2739    0.9509   -0.0074 C   0  0  0  0  0  0  0  0  0  0  0  0
    2.2783    0.2651   -0.0203 O   0  0  0  0  0  0  0  0  0  0  0  0
   -0.1289    0.3018    0.0029 C   0  0  0  0  0  0  0  0  0  0  0  0
   -1.1333    0.9645    0.0162 O   0  0  0  0  0  0  0  0  0  0  0  0
   -0.0918   -1.2240   -0.0052 C   0  0  0  0  0  0  0  0  0  0  0  0
   -1.4136   -1.8338    0.0040 C   0  0  0  0  0  0  0  0  0  0  0  0
   -2.4550   -2.3317    0.0112 N   0  0  0  0  0  0  0  0  0  0  0  0
    2.0626    2.8382   -0.0054 H   0  0  0  0  0  0  0  0  0  0  0  0
    0.3143    2.7491    0.0109 H   0  0  0  0  0  0  0  0  0  0  0  0
    0.4826   -1.5505   -0.8799 H   0  0  0  0  0  0  0  0  0  0  0  0
    0.4988   -1.5593    0.8552 H   0  0  0  0  0  0  0  0  0  0  0  0
  1 10  1  0  0  0  0
  2  1  1  0  0  0  0
  2  4  1  0  0  0  0
  3  2  2  0  0  0  0
  4  5  2  0  0  0  0
  6  4  1  0  0  0  0
  6  7  1  0  0  0  0
  6 12  1  0  0  0  0
  7  8  3  0  0  0  0
  9  1  1  0  0  0  0
 11  6  1  0  0  0  0
M  END
