title
 OpenBabel02282109583D

 14 13  0  0  0  0  0  0  0  0999 V2000
    1.1367    2.5149    0.0959 C   0  0  0  0  0  0  0  0  0  0  0  0
    1.1777    1.0131    0.0394 C   0  0  0  0  0  0  0  0  0  0  0  0
    2.2039    0.3648    0.0170 O   0  0  0  0  0  0  0  0  0  0  0  0
   -0.1567    0.2817    0.0099 C   0  0  0  0  0  0  0  0  0  0  0  0
   -1.2443    0.9382    0.0320 N   0  0  0  0  0  0  0  0  0  0  0  0
    0.0279   -1.1025   -0.0407 N   0  0  0  0  0  0  0  0  0  0  0  0
   -0.9588   -2.0523   -0.0775 C   0  0  0  0  0  0  0  0  0  0  0  0
   -2.1484   -1.8237   -0.0712 O   0  0  0  0  0  0  0  0  0  0  0  0
    2.1541    2.9059    0.1060 H   0  0  0  0  0  0  0  0  0  0  0  0
    0.5798    2.9064   -0.7602 H   0  0  0  0  0  0  0  0  0  0  0  0
    0.5893    2.8399    0.9854 H   0  0  0  0  0  0  0  0  0  0  0  0
   -2.0466    0.3049    0.0072 H   0  0  0  0  0  0  0  0  0  0  0  0
    1.0016   -1.3845   -0.0494 H   0  0  0  0  0  0  0  0  0  0  0  0
   -0.5424   -3.0759   -0.1145 H   0  0  0  0  0  0  0  0  0  0  0  0
  1  9  1  0  0  0  0
  1 11  1  0  0  0  0
  2  1  1  0  0  0  0
  3  2  2  0  0  0  0
  4  5  2  0  0  0  0
  4  2  1  0  0  0  0
  6  4  1  0  0  0  0
  7  8  2  0  0  0  0
  7  6  1  0  0  0  0
 10  1  1  0  0  0  0
 12  5  1  0  0  0  0
 13  6  1  0  0  0  0
 14  7  1  0  0  0  0
M  END
