title
 OpenBabel02282109583D

 14 13  0  0  0  0  0  0  0  0999 V2000
    1.4137    2.3530   -0.0015 C   0  0  0  0  0  0  0  0  0  0  0  0
    1.3004    0.8550   -0.0079 C   0  0  0  0  0  0  0  0  0  0  0  0
    2.2423    0.0936   -0.0212 O   0  0  0  0  0  0  0  0  0  0  0  0
   -0.1485    0.2984    0.0034 C   0  0  0  0  0  0  0  0  0  0  0  0
   -1.1066    1.0335    0.0164 O   0  0  0  0  0  0  0  0  0  0  0  0
   -0.1355   -1.0770   -0.0044 N   0  0  0  0  0  0  0  0  0  0  0  0
   -1.2018   -1.9710    0.0009 C   0  0  0  0  0  0  0  0  0  0  0  0
   -2.4181   -1.6181    0.0148 N   0  0  0  0  0  0  0  0  0  0  0  0
    2.4629    2.6474   -0.0111 H   0  0  0  0  0  0  0  0  0  0  0  0
    0.8871    2.7672   -0.8671 H   0  0  0  0  0  0  0  0  0  0  0  0
    0.9057    2.7581    0.8794 H   0  0  0  0  0  0  0  0  0  0  0  0
    0.8021   -1.4595   -0.0156 H   0  0  0  0  0  0  0  0  0  0  0  0
   -0.8348   -3.0048   -0.0085 H   0  0  0  0  0  0  0  0  0  0  0  0
   -3.0152   -2.4438    0.0159 H   0  0  0  0  0  0  0  0  0  0  0  0
  1 11  1  0  0  0  0
  2  1  1  0  0  0  0
  2  4  1  0  0  0  0
  3  2  2  0  0  0  0
  4  5  2  0  0  0  0
  6  7  1  0  0  0  0
  6  4  1  0  0  0  0
  7  8  2  0  0  0  0
  8 14  1  0  0  0  0
  9  1  1  0  0  0  0
 10  1  1  0  0  0  0
 12  6  1  0  0  0  0
 13  7  1  0  0  0  0
M  END
