title
 OpenBabel02282109583D

 13 12  0  0  0  0  0  0  0  0999 V2000
   -0.0129    2.3824    1.3981 C   0  0  0  0  0  0  0  0  0  0  0  0
   -0.0412    0.8843    1.3046 C   0  0  0  0  0  0  0  0  0  0  0  0
   -0.1019    0.1316    2.2506 O   0  0  0  0  0  0  0  0  0  0  0  0
    0.0134    0.3044   -0.1348 C   0  0  0  0  0  0  0  0  0  0  0  0
    0.0743    1.0151   -1.1062 O   0  0  0  0  0  0  0  0  0  0  0  0
   -0.0180   -1.0790   -0.1098 N   0  0  0  0  0  0  0  0  0  0  0  0
    0.0120   -1.9586   -1.1896 C   0  0  0  0  0  0  0  0  0  0  0  0
    0.0720   -1.6516   -2.3470 O   0  0  0  0  0  0  0  0  0  0  0  0
    0.8927    2.7661    0.9175 H   0  0  0  0  0  0  0  0  0  0  0  0
   -0.8524    2.8041    0.8361 H   0  0  0  0  0  0  0  0  0  0  0  0
   -0.0549    2.6911    2.4424 H   0  0  0  0  0  0  0  0  0  0  0  0
   -0.0703   -1.4655    0.8264 H   0  0  0  0  0  0  0  0  0  0  0  0
   -0.0278   -3.0065   -0.8322 H   0  0  0  0  0  0  0  0  0  0  0  0
  1 11  1  0  0  0  0
  2  1  1  0  0  0  0
  2  3  2  0  0  0  0
  4  6  1  0  0  0  0
  4  2  1  0  0  0  0
  5  4  2  0  0  0  0
  6 12  1  0  0  0  0
  7 13  1  0  0  0  0
  7  6  1  0  0  0  0
  8  7  2  0  0  0  0
  9  1  1  0  0  0  0
 10  1  1  0  0  0  0
M  END
