title
 OpenBabel02282109583D

 13 12  0  0  0  0  0  0  0  0999 V2000
    0.5689    2.3099    1.2864 C   0  0  0  0  0  0  0  0  0  0  0  0
   -0.1538    0.9941    1.1540 C   0  0  0  0  0  0  0  0  0  0  0  0
   -0.8477    0.4976    2.0017 O   0  0  0  0  0  0  0  0  0  0  0  0
    0.0722    0.2852   -0.2051 C   0  0  0  0  0  0  0  0  0  0  0  0
    0.7607    0.7334   -1.0734 O   0  0  0  0  0  0  0  0  0  0  0  0
   -0.6585   -0.8643   -0.2629 O   0  0  0  0  0  0  0  0  0  0  0  0
   -0.4424   -1.8176   -1.2321 C   0  0  0  0  0  0  0  0  0  0  0  0
    0.7046   -2.1365   -1.6261 N   0  0  0  0  0  0  0  0  0  0  0  0
    0.2633    2.9900    0.4850 H   0  0  0  0  0  0  0  0  0  0  0  0
    0.3548    2.7470    2.2616 H   0  0  0  0  0  0  0  0  0  0  0  0
    1.6462    2.1584    1.1633 H   0  0  0  0  0  0  0  0  0  0  0  0
   -1.4045   -2.2491   -1.5185 H   0  0  0  0  0  0  0  0  0  0  0  0
    0.6473   -2.8880   -2.3120 H   0  0  0  0  0  0  0  0  0  0  0  0
  1 10  1  0  0  0  0
  2  1  1  0  0  0  0
  2  3  2  0  0  0  0
  4  2  1  0  0  0  0
  5  4  2  0  0  0  0
  6  4  1  0  0  0  0
  7  6  1  0  0  0  0
  8  7  2  0  0  0  0
  9  1  1  0  0  0  0
 11  1  1  0  0  0  0
 12  7  1  0  0  0  0
 13  8  1  0  0  0  0
M  END
