13
title
C 0.5689102 2.3098624 1.2864125
C -0.15381421 0.99407107 1.154036
O -0.8477115 0.4976254 2.0017474
C 0.07223457 0.2851689 -0.20510502
O 0.76070076 0.7333914 -1.0733535
O -0.65852296 -0.8642536 -0.2629314
C -0.4424027 -1.8175988 -1.2321458
N 0.7045795 -2.136484 -1.6260586
H 0.26325944 2.9900048 0.48503172
H 0.35483804 2.7469857 2.261554
H 1.6461785 2.1583917 1.1632829
H -1.4044697 -2.2490962 -1.5184546
H 0.6472549 -2.8879902 -2.3119898
