14
title
N 1.082523 2.3136477 0.12828618
C 1.1794298 0.9757898 0.05111483
O 2.2181625 0.33170232 0.0094473995
C -0.1764322 0.27580872 0.01665542
N -1.249594 0.9572861 0.060832668
N 0.0007701419 -1.0949148 -0.063333616
C -0.97601336 -2.057437 -0.114254415
N -2.2217462 -1.783347 -0.092860326
H 1.9137545 2.8777413 0.15759955
H 0.15953486 2.7203746 0.15613665
H -2.0676684 0.3451247 0.029127141
H 0.9783616 -1.3616716 -0.082919866
H -0.55243975 -3.0661666 -0.17421111
H -2.7759058 -2.6345885 -0.13931066
