title
 OpenBabel02282109583D

 14 13  0  0  0  0  0  0  0  0999 V2000
    1.0825    2.3136    0.1283 N   0  0  0  0  0  0  0  0  0  0  0  0
    1.1794    0.9758    0.0511 C   0  0  0  0  0  0  0  0  0  0  0  0
    2.2182    0.3317    0.0094 O   0  0  0  0  0  0  0  0  0  0  0  0
   -0.1764    0.2758    0.0167 C   0  0  0  0  0  0  0  0  0  0  0  0
   -1.2496    0.9573    0.0608 N   0  0  0  0  0  0  0  0  0  0  0  0
    0.0008   -1.0949   -0.0633 N   0  0  0  0  0  0  0  0  0  0  0  0
   -0.9760   -2.0574   -0.1143 C   0  0  0  0  0  0  0  0  0  0  0  0
   -2.2217   -1.7833   -0.0929 N   0  0  0  0  0  0  0  0  0  0  0  0
    1.9138    2.8777    0.1576 H   0  0  0  0  0  0  0  0  0  0  0  0
    0.1595    2.7204    0.1561 H   0  0  0  0  0  0  0  0  0  0  0  0
   -2.0677    0.3451    0.0291 H   0  0  0  0  0  0  0  0  0  0  0  0
    0.9784   -1.3617   -0.0829 H   0  0  0  0  0  0  0  0  0  0  0  0
   -0.5524   -3.0662   -0.1742 H   0  0  0  0  0  0  0  0  0  0  0  0
   -2.7759   -2.6346   -0.1393 H   0  0  0  0  0  0  0  0  0  0  0  0
  1 10  1  0  0  0  0
  1  9  1  0  0  0  0
  2  1  1  0  0  0  0
  3  2  2  0  0  0  0
  4  2  1  0  0  0  0
  4  5  2  0  0  0  0
  6  4  1  0  0  0  0
  7  8  2  0  0  0  0
  7  6  1  0  0  0  0
 11  5  1  0  0  0  0
 12  6  1  0  0  0  0
 13  7  1  0  0  0  0
 14  8  1  0  0  0  0
M  END
