13
title
N 1.1013036 2.325293 0.09262724
C 1.1928122 0.9864115 0.039849434
O 2.2262516 0.33437833 0.014603339
C -0.16391952 0.28812954 0.011022717
N -1.2380595 0.96469027 0.036319364
N 0.00870519 -1.0917771 -0.04270416
C -0.9876551 -2.0315633 -0.08039858
O -2.1743119 -1.7883208 -0.07199669
H 1.9359316 2.8851235 0.11586145
H 0.18273346 2.741838 0.10893698
H -2.0570488 0.35520974 0.01164132
H 0.9847258 -1.3713248 -0.052339938
H -0.5827339 -3.0593128 -0.11973449
