title
 OpenBabel02282109583D

 12 11  0  0  0  0  0  0  0  0999 V2000
    1.3073    2.2170   -0.0010 N   0  0  0  0  0  0  0  0  0  0  0  0
    1.2996    0.8744   -0.0079 C   0  0  0  0  0  0  0  0  0  0  0  0
    2.2694    0.1354   -0.0214 O   0  0  0  0  0  0  0  0  0  0  0  0
   -0.1441    0.3106    0.0028 C   0  0  0  0  0  0  0  0  0  0  0  0
   -1.1167    1.0257    0.0158 O   0  0  0  0  0  0  0  0  0  0  0  0
   -0.1099   -1.0671   -0.0044 N   0  0  0  0  0  0  0  0  0  0  0  0
   -1.1841   -1.9541    0.0015 C   0  0  0  0  0  0  0  0  0  0  0  0
   -2.3445   -1.6526    0.0142 O   0  0  0  0  0  0  0  0  0  0  0  0
    2.1776    2.7211   -0.0067 H   0  0  0  0  0  0  0  0  0  0  0  0
    0.4228    2.7010    0.0102 H   0  0  0  0  0  0  0  0  0  0  0  0
    0.8362   -1.4368   -0.0152 H   0  0  0  0  0  0  0  0  0  0  0  0
   -0.8192   -2.9997   -0.0071 H   0  0  0  0  0  0  0  0  0  0  0  0
  1 10  1  0  0  0  0
  2  1  1  0  0  0  0
  2  4  1  0  0  0  0
  3  2  2  0  0  0  0
  4  5  2  0  0  0  0
  6  7  1  0  0  0  0
  6  4  1  0  0  0  0
  7  8  2  0  0  0  0
  9  1  1  0  0  0  0
 11  6  1  0  0  0  0
 12  7  1  0  0  0  0
M  END
