title
 OpenBabel02282109583D

 12 11  0  0  0  0  0  0  0  0999 V2000
    1.0352    2.4029    0.0016 N   0  0  0  0  0  0  0  0  0  0  0  0
    1.1382    1.0538   -0.0057 C   0  0  0  0  0  0  0  0  0  0  0  0
    2.1596    0.4081   -0.0182 O   0  0  0  0  0  0  0  0  0  0  0  0
   -0.2667    0.4079    0.0046 C   0  0  0  0  0  0  0  0  0  0  0  0
   -1.2904    1.0427    0.0177 O   0  0  0  0  0  0  0  0  0  0  0  0
   -0.1731   -0.9368   -0.0032 O   0  0  0  0  0  0  0  0  0  0  0  0
   -1.3460   -1.6660    0.0046 C   0  0  0  0  0  0  0  0  0  0  0  0
   -1.2495   -2.9170   -0.0027 N   0  0  0  0  0  0  0  0  0  0  0  0
    1.8720    2.9609   -0.0030 H   0  0  0  0  0  0  0  0  0  0  0  0
    0.1268    2.8357    0.0129 H   0  0  0  0  0  0  0  0  0  0  0  0
   -2.2366   -1.0381    0.0171 H   0  0  0  0  0  0  0  0  0  0  0  0
   -2.1780   -3.3373    0.0047 H   0  0  0  0  0  0  0  0  0  0  0  0
  1 10  1  0  0  0  0
  2  1  1  0  0  0  0
  2  4  1  0  0  0  0
  3  2  2  0  0  0  0
  4  5  2  0  0  0  0
  6  4  1  0  0  0  0
  6  7  1  0  0  0  0
  7 11  1  0  0  0  0
  8  7  2  0  0  0  0
  8 12  1  0  0  0  0
  9  1  1  0  0  0  0
M  END
