18
title
C 1.4101129 2.0019672 0.008682889
C 1.5247178 0.46361995 0.06135919
C 2.4159634 0.0077717593 1.2210987
C 0.11394645 -0.11643478 0.19505973
O -0.42591175 -0.2608743 1.2621889
C -0.5690696 -0.48373178 -1.1357628
C -1.9772923 -0.8205806 -1.0314481
C -3.143086 -1.0954409 -0.94901145
H 2.399944 2.4500532 -0.11950073
H 0.7794964 2.34089 -0.8196638
H 0.9786983 2.381894 0.9397895
H 1.9507279 0.12088856 -0.890428
H 1.961867 0.28387672 2.1758485
H 2.5502965 -1.0781164 1.2179621
H 3.4034681 0.47392064 1.1525525
H -0.41383407 0.34186736 -1.8434039
H 0.0004614772 -1.3261611 -1.5559477
H -4.1735044 -1.3381716 -0.8678925
