title
 OpenBabel02282109583D

 17 16  0  0  0  0  0  0  0  0999 V2000
    1.6197    2.1965   -0.0550 C   0  0  0  0  0  0  0  0  0  0  0  0
    1.4636    0.6728   -0.0263 C   0  0  0  0  0  0  0  0  0  0  0  0
    2.1121    0.0606    1.2348 C   0  0  0  0  0  0  0  0  0  0  0  0
   -0.0110    0.2747   -0.0480 C   0  0  0  0  0  0  0  0  0  0  0  0
   -0.8791    0.9296    0.4666 O   0  0  0  0  0  0  0  0  0  0  0  0
   -0.3164   -1.0532   -0.7737 C   0  0  0  0  0  0  0  0  0  0  0  0
   -1.6742   -1.5405   -0.5720 C   0  0  0  0  0  0  0  0  0  0  0  0
   -2.7442   -1.9456   -0.4181 N   0  0  0  0  0  0  0  0  0  0  0  0
    2.6766    2.4717    0.0065 H   0  0  0  0  0  0  0  0  0  0  0  0
    1.2080    2.6224   -0.9745 H   0  0  0  0  0  0  0  0  0  0  0  0
    1.0895    2.6477    0.7871 H   0  0  0  0  0  0  0  0  0  0  0  0
    1.9506    0.2327   -0.9064 H   0  0  0  0  0  0  0  0  0  0  0  0
    1.6478    0.4692    2.1373 H   0  0  0  0  0  0  0  0  0  0  0  0
    2.0137   -1.0293    1.2662 H   0  0  0  0  0  0  0  0  0  0  0  0
    3.1791    0.2995    1.2594 H   0  0  0  0  0  0  0  0  0  0  0  0
   -0.1393   -0.8936   -1.8456 H   0  0  0  0  0  0  0  0  0  0  0  0
    0.4044   -1.8185   -0.4633 H   0  0  0  0  0  0  0  0  0  0  0  0
  1  2  1  0  0  0  0
  1  9  1  0  0  0  0
  1 11  1  0  0  0  0
  2  3  1  0  0  0  0
  3 15  1  0  0  0  0
  3 14  1  0  0  0  0
  3 13  1  0  0  0  0
  4  2  1  0  0  0  0
  4  5  2  0  0  0  0
  6  7  1  0  0  0  0
  6 17  1  0  0  0  0
  6  4  1  0  0  0  0
  7  8  3  0  0  0  0
 10  1  1  0  0  0  0
 12  2  1  0  0  0  0
 16  6  1  0  0  0  0
M  END
