17
title
C 1.2970405 1.679758 -0.6418675
C 1.4169666 0.5085567 0.35440618
C 2.0591726 0.9427639 1.6734488
C 0.06909696 -0.13482076 0.5678244
N -0.56741387 -0.11129433 1.6557223
O -0.35095116 -0.7853721 -0.599038
C -1.6594245 -0.7079157 -0.97207737
O -2.100144 -1.3533273 -1.8701385
H 2.2866774 2.09874 -0.84385383
H 0.86550796 1.3569306 -1.5925719
H 0.6714528 2.4774718 -0.22757272
H 2.0411181 -0.26191705 -0.11823412
H 1.4537629 1.706233 2.1689258
H 2.1574605 0.101950884 2.3640823
H 3.0539017 1.3569353 1.4839343
H -1.4402745 -0.6373449 1.6250491
H -2.2269104 0.025873898 -0.374603
