title
 OpenBabel02282109583D

 17 16  0  0  0  0  0  0  0  0999 V2000
    1.2970    1.6798   -0.6419 C   0  0  0  0  0  0  0  0  0  0  0  0
    1.4170    0.5086    0.3544 C   0  0  0  0  0  0  0  0  0  0  0  0
    2.0592    0.9428    1.6734 C   0  0  0  0  0  0  0  0  0  0  0  0
    0.0691   -0.1348    0.5678 C   0  0  0  0  0  0  0  0  0  0  0  0
   -0.5674   -0.1113    1.6557 N   0  0  0  0  0  0  0  0  0  0  0  0
   -0.3510   -0.7854   -0.5990 O   0  0  0  0  0  0  0  0  0  0  0  0
   -1.6594   -0.7079   -0.9721 C   0  0  0  0  0  0  0  0  0  0  0  0
   -2.1001   -1.3533   -1.8701 O   0  0  0  0  0  0  0  0  0  0  0  0
    2.2867    2.0987   -0.8439 H   0  0  0  0  0  0  0  0  0  0  0  0
    0.8655    1.3569   -1.5926 H   0  0  0  0  0  0  0  0  0  0  0  0
    0.6715    2.4775   -0.2276 H   0  0  0  0  0  0  0  0  0  0  0  0
    2.0411   -0.2619   -0.1182 H   0  0  0  0  0  0  0  0  0  0  0  0
    1.4538    1.7062    2.1689 H   0  0  0  0  0  0  0  0  0  0  0  0
    2.1575    0.1020    2.3641 H   0  0  0  0  0  0  0  0  0  0  0  0
    3.0539    1.3569    1.4839 H   0  0  0  0  0  0  0  0  0  0  0  0
   -1.4403   -0.6373    1.6250 H   0  0  0  0  0  0  0  0  0  0  0  0
   -2.2269    0.0259   -0.3746 H   0  0  0  0  0  0  0  0  0  0  0  0
  1 11  1  0  0  0  0
  1  2  1  0  0  0  0
  2  4  1  0  0  0  0
  2  3  1  0  0  0  0
  3 13  1  0  0  0  0
  3 14  1  0  0  0  0
  4  5  2  0  0  0  0
  6  4  1  0  0  0  0
  7  6  1  0  0  0  0
  7 17  1  0  0  0  0
  8  7  2  0  0  0  0
  9  1  1  0  0  0  0
 10  1  1  0  0  0  0
 12  2  1  0  0  0  0
 15  3  1  0  0  0  0
 16  5  1  0  0  0  0
M  END
