title
 OpenBabel02282109583D

 17 16  0  0  0  0  0  0  0  0999 V2000
    1.6330    2.1090   -0.4566 C   0  0  0  0  0  0  0  0  0  0  0  0
    1.4727    0.6179   -0.1512 C   0  0  0  0  0  0  0  0  0  0  0  0
    2.1454    0.2335    1.1830 C   0  0  0  0  0  0  0  0  0  0  0  0
   -0.0131    0.2477   -0.0791 C   0  0  0  0  0  0  0  0  0  0  0  0
   -0.8773    1.0154    0.2556 O   0  0  0  0  0  0  0  0  0  0  0  0
   -0.2644   -1.0984   -0.4069 N   0  0  0  0  0  0  0  0  0  0  0  0
   -1.4769   -1.7827   -0.3664 C   0  0  0  0  0  0  0  0  0  0  0  0
   -2.5407   -1.3402   -0.0355 O   0  0  0  0  0  0  0  0  0  0  0  0
    2.6915    2.3850   -0.4596 H   0  0  0  0  0  0  0  0  0  0  0  0
    1.2078    2.3637   -1.4314 H   0  0  0  0  0  0  0  0  0  0  0  0
    1.1141    2.7064    0.2966 H   0  0  0  0  0  0  0  0  0  0  0  0
    1.9405    0.0320   -0.9544 H   0  0  0  0  0  0  0  0  0  0  0  0
    1.6938    0.7901    2.0099 H   0  0  0  0  0  0  0  0  0  0  0  0
    2.0443   -0.8344    1.4008 H   0  0  0  0  0  0  0  0  0  0  0  0
    3.2123    0.4729    1.1516 H   0  0  0  0  0  0  0  0  0  0  0  0
    0.5297   -1.6466   -0.7039 H   0  0  0  0  0  0  0  0  0  0  0  0
   -1.3278   -2.8336   -0.6921 H   0  0  0  0  0  0  0  0  0  0  0  0
  1  2  1  0  0  0  0
  1 11  1  0  0  0  0
  2  4  1  0  0  0  0
  2  3  1  0  0  0  0
  3 14  1  0  0  0  0
  3 13  1  0  0  0  0
  4  5  2  0  0  0  0
  6  7  1  0  0  0  0
  6  4  1  0  0  0  0
  7  8  2  0  0  0  0
  9  1  1  0  0  0  0
 10  1  1  0  0  0  0
 12  2  1  0  0  0  0
 15  3  1  0  0  0  0
 16  6  1  0  0  0  0
 17  7  1  0  0  0  0
M  END
