17
title
C 1.8564242 1.8023959 0.99355376
C 1.4232696 0.5919707 0.16459547
C 2.1436582 -0.7026033 0.5972338
C -0.076383404 0.3916112 0.2486948
O -0.82657605 0.9107188 1.028895
O -0.4833966 -0.50770915 -0.7143829
C -1.813777 -0.83719146 -0.7730896
N -2.1774504 -1.6645849 -1.6480285
H 2.9361444 1.9514514 0.90313965
H 1.3529766 2.7143068 0.6623569
H 1.6142132 1.6560941 2.0496535
H 1.651519 0.7604708 -0.89499635
H 1.9324605 -0.93190086 1.6470494
H 1.832841 -1.5534263 -0.012914011
H 3.2249315 -0.5774088 0.49124488
H -2.4129508 -0.31881735 -0.024244929
H -3.1830885 -1.815669 -1.5805593
