title
 OpenBabel02282109583D

 16 15  0  0  1  0  0  0  0  0999 V2000
   -0.6928    1.9029   -1.3588 C   0  0  0  0  0  0  0  0  0  0  0  0
   -0.8372    0.3653   -1.3149 C   0  0  1  0  0  0  0  0  0  0  0  0
   -0.4616   -0.3152   -2.5454 N   0  0  0  0  0  0  0  0  0  0  0  0
    0.0560   -0.1739   -0.1883 C   0  0  0  0  0  0  0  0  0  0  0  0
    1.1732   -0.5802   -0.3830 O   0  0  0  0  0  0  0  0  0  0  0  0
   -0.5364   -0.1017    1.0780 N   0  0  0  0  0  0  0  0  0  0  0  0
    0.0383   -0.3988    2.3134 C   0  0  0  0  0  0  0  0  0  0  0  0
    1.1669   -0.7497    2.5105 O   0  0  0  0  0  0  0  0  0  0  0  0
    0.3496    2.1781   -1.5462 H   0  0  0  0  0  0  0  0  0  0  0  0
   -1.3106    2.3092   -2.1660 H   0  0  0  0  0  0  0  0  0  0  0  0
   -1.0124    2.3756   -0.4236 H   0  0  0  0  0  0  0  0  0  0  0  0
   -1.8846    0.1254   -1.0752 H   0  0  0  0  0  0  0  0  0  0  0  0
   -0.6333    0.2820   -3.3470 H   0  0  0  0  0  0  0  0  0  0  0  0
    0.5371   -0.5052   -2.5077 H   0  0  0  0  0  0  0  0  0  0  0  0
   -1.5018    0.1932    1.1072 H   0  0  0  0  0  0  0  0  0  0  0  0
   -0.7098   -0.2599    3.1209 H   0  0  0  0  0  0  0  0  0  0  0  0
  1  2  1  0  0  0  0
  1 11  1  0  0  0  0
  2 12  1  1  0  0  0
  2  4  1  0  0  0  0
  3 14  1  0  0  0  0
  3  2  1  0  0  0  0
  4  6  1  0  0  0  0
  5  4  2  0  0  0  0
  6 15  1  0  0  0  0
  6  7  1  0  0  0  0
  7  8  2  0  0  0  0
  7 16  1  0  0  0  0
  9  1  1  0  0  0  0
 10  1  1  0  0  0  0
 13  3  1  0  0  0  0
M  END
