16
title
C -0.6928444 1.9028658 -1.3588187
C -0.8372488 0.36530232 -1.3149338
N -0.46156695 -0.31518042 -2.54543
C 0.055972114 -0.17387292 -0.18834734
O 1.1732234 -0.5801546 -0.3830204
N -0.5364155 -0.10170657 1.0779513
C 0.038346127 -0.39881253 2.3133898
O 1.1668588 -0.7497492 2.5105183
H 0.3495723 2.1780813 -1.546198
H -1.3106204 2.3091938 -2.1659715
H -1.0124213 2.3756073 -0.42362005
H -1.8845721 0.12543662 -1.0752493
H -0.6332762 0.281991 -3.3469784
H 0.53709686 -0.5051815 -2.5076716
H -1.501826 0.19317278 1.1071774
H -0.7097699 -0.2598647 3.1208982
