title
 OpenBabel02282109583D

 16 15  0  0  1  0  0  0  0  0999 V2000
    1.3974    2.2658    0.4784 C   0  0  0  0  0  0  0  0  0  0  0  0
    1.3193    0.8559   -0.0887 C   0  0  1  0  0  0  0  0  0  0  0  0
    2.1687   -0.0639    0.6067 O   0  0  0  0  0  0  0  0  0  0  0  0
   -0.1209    0.3301   -0.1595 C   0  0  0  0  0  0  0  0  0  0  0  0
   -1.1008    1.1219   -0.2986 N   0  0  0  0  0  0  0  0  0  0  0  0
   -0.1656   -1.0755   -0.1010 N   0  0  0  0  0  0  0  0  0  0  0  0
   -1.2774   -1.8676   -0.2110 C   0  0  0  0  0  0  0  0  0  0  0  0
   -2.4100   -1.4772   -0.3911 O   0  0  0  0  0  0  0  0  0  0  0  0
    2.4271    2.6294    0.4357 H   0  0  0  0  0  0  0  0  0  0  0  0
    0.7451    2.9339   -0.0850 H   0  0  0  0  0  0  0  0  0  0  0  0
    1.0560    2.2811    1.5201 H   0  0  0  0  0  0  0  0  0  0  0  0
    1.7065    0.8533   -1.1159 H   0  0  0  0  0  0  0  0  0  0  0  0
    2.0552    0.0925    1.5514 H   0  0  0  0  0  0  0  0  0  0  0  0
   -1.9754    0.6016   -0.3792 H   0  0  0  0  0  0  0  0  0  0  0  0
    0.7266   -1.5133    0.0901 H   0  0  0  0  0  0  0  0  0  0  0  0
   -1.0222   -2.9407   -0.1164 H   0  0  0  0  0  0  0  0  0  0  0  0
  1 11  1  0  0  0  0
  2 12  1  6  0  0  0
  2  1  1  0  0  0  0
  2  3  1  0  0  0  0
  3 13  1  0  0  0  0
  4  6  1  0  0  0  0
  4  2  1  0  0  0  0
  5  4  2  0  0  0  0
  6 15  1  0  0  0  0
  7 16  1  0  0  0  0
  7  6  1  0  0  0  0
  8  7  2  0  0  0  0
  9  1  1  0  0  0  0
 10  1  1  0  0  0  0
 14  5  1  0  0  0  0
M  END
