title
 OpenBabel02282109583D

 15 14  0  0  1  0  0  0  0  0999 V2000
    1.5513    1.5943   -0.8079 C   0  0  0  0  0  0  0  0  0  0  0  0
    1.3296    0.6206    0.3584 C   0  0  1  0  0  0  0  0  0  0  0  0
    1.7225    1.2078    1.5713 O   0  0  0  0  0  0  0  0  0  0  0  0
   -0.1124    0.1657    0.4304 C   0  0  0  0  0  0  0  0  0  0  0  0
   -0.8112    0.3798    1.4584 N   0  0  0  0  0  0  0  0  0  0  0  0
   -0.5190   -0.4503   -0.7389 O   0  0  0  0  0  0  0  0  0  0  0  0
   -1.3474   -1.5391   -0.6711 C   0  0  0  0  0  0  0  0  0  0  0  0
   -1.8426   -2.0102   -1.6427 O   0  0  0  0  0  0  0  0  0  0  0  0
    2.6000    1.9000   -0.8117 H   0  0  0  0  0  0  0  0  0  0  0  0
    1.3123    1.1280   -1.7666 H   0  0  0  0  0  0  0  0  0  0  0  0
    0.9328    2.4868   -0.6762 H   0  0  0  0  0  0  0  0  0  0  0  0
    1.9312   -0.2852    0.1715 H   0  0  0  0  0  0  0  0  0  0  0  0
    0.9471    1.1879    2.1518 H   0  0  0  0  0  0  0  0  0  0  0  0
   -1.7815    0.0805    1.3914 H   0  0  0  0  0  0  0  0  0  0  0  0
   -1.4585   -1.9187    0.3582 H   0  0  0  0  0  0  0  0  0  0  0  0
  1 11  1  0  0  0  0
  1  2  1  0  0  0  0
  2 12  1  6  0  0  0
  2  4  1  0  0  0  0
  2  3  1  0  0  0  0
  3 13  1  0  0  0  0
  4  5  2  0  0  0  0
  6  7  1  0  0  0  0
  6  4  1  0  0  0  0
  7 15  1  0  0  0  0
  8  7  2  0  0  0  0
  9  1  1  0  0  0  0
 10  1  1  0  0  0  0
 14  5  1  0  0  0  0
M  END
