title
 OpenBabel02282109583D

 16 15  0  0  1  0  0  0  0  0999 V2000
   -0.3695    1.7421   -0.8824 C   0  0  0  0  0  0  0  0  0  0  0  0
   -0.6352    0.2883   -1.3150 C   0  0  1  0  0  0  0  0  0  0  0  0
   -0.1069    0.0435   -2.5891 O   0  0  0  0  0  0  0  0  0  0  0  0
   -0.0423   -0.6922   -0.3081 C   0  0  0  0  0  0  0  0  0  0  0  0
    0.8607   -1.4318   -0.6376 O   0  0  0  0  0  0  0  0  0  0  0  0
   -0.5783   -0.6867    1.1164 C   0  0  0  0  0  0  0  0  0  0  0  0
    0.4771   -0.1333    2.0700 C   0  0  0  0  0  0  0  0  0  0  0  0
    0.2879    0.7916    2.8120 O   0  0  0  0  0  0  0  0  0  0  0  0
    0.7075    1.9292   -0.8365 H   0  0  0  0  0  0  0  0  0  0  0  0
   -0.7998    2.4126   -1.6296 H   0  0  0  0  0  0  0  0  0  0  0  0
   -0.8109    1.9757    0.0909 H   0  0  0  0  0  0  0  0  0  0  0  0
   -1.7257    0.1199   -1.3259 H   0  0  0  0  0  0  0  0  0  0  0  0
    0.5777   -0.6325   -2.4632 H   0  0  0  0  0  0  0  0  0  0  0  0
   -1.5003   -0.1141    1.2252 H   0  0  0  0  0  0  0  0  0  0  0  0
   -0.7527   -1.7332    1.3942 H   0  0  0  0  0  0  0  0  0  0  0  0
    1.4526   -0.6601    2.0148 H   0  0  0  0  0  0  0  0  0  0  0  0
  1  9  1  0  0  0  0
  1 11  1  0  0  0  0
  2 12  1  6  0  0  0
  2  1  1  0  0  0  0
  2  4  1  0  0  0  0
  3 13  1  0  0  0  0
  3  2  1  0  0  0  0
  4  6  1  0  0  0  0
  5  4  2  0  0  0  0
  6 14  1  0  0  0  0
  6 15  1  0  0  0  0
  6  7  1  0  0  0  0
  7  8  2  0  0  0  0
 10  1  1  0  0  0  0
 16  7  1  0  0  0  0
M  END
