16
title
C 1.5371048 1.7513826 -0.52213573
C 1.5312982 0.33988148 0.0858853
O 2.269321 0.31284964 1.2767261
C 0.10540272 -0.14151675 0.38329336
O -0.2583692 -0.331635 1.5303258
N -0.70933986 -0.33716905 -0.70331025
C -2.029603 -0.76336837 -0.6220317
N -2.7059796 -0.9249923 -1.6828108
H 2.572771 2.0739372 -0.652406
H 1.0409572 1.7851943 -1.4976192
H 1.039101 2.4554403 0.15071066
H 1.9768491 -0.36173344 -0.63888115
H 1.6281112 0.08624434 1.9703912
H -0.35278273 -0.18046793 -1.6359978
H -2.3496342 -0.91931975 0.40954196
H -3.6484845 -1.2388539 -1.4592475
