15
title
C -0.6089267 1.8403966 -1.2969971
C -0.61093926 0.3070357 -1.3785026
O -0.10321791 -0.13271958 -2.6123288
C 0.20052798 -0.30873474 -0.2509881
O 1.1784705 -0.98988205 -0.42873785
O -0.3162129 0.0036392587 0.9673866
C 0.3130174 -0.48852143 2.0918386
N -0.17207186 -0.18282661 3.208601
H 0.41341087 2.2239137 -1.364781
H -1.178996 2.2352698 -2.140904
H -1.0629139 2.1863348 -0.36548123
H -1.6453443 -0.049539305 -1.2520572
H 0.6739276 -0.6742617 -2.4144819
H 1.1817899 -1.1025027 1.8559569
H 0.37799796 -0.60674983 3.9544692
