title
 OpenBabel02282109583D

 17 16  0  0  0  0  0  0  0  0999 V2000
    1.1608    2.4626    0.3189 C   0  0  0  0  0  0  0  0  0  0  0  0
    1.1247    1.0258    0.0931 N   0  0  0  0  0  0  0  0  0  0  0  0
    2.4164    0.3700    0.0450 C   0  0  0  0  0  0  0  0  0  0  0  0
   -0.0879    0.4079   -0.0490 C   0  0  0  0  0  0  0  0  0  0  0  0
   -1.1455    1.0193   -0.0059 O   0  0  0  0  0  0  0  0  0  0  0  0
   -0.0945   -1.1077   -0.2609 C   0  0  0  0  0  0  0  0  0  0  0  0
   -1.5193   -1.6282   -0.3755 C   0  0  0  0  0  0  0  0  0  0  0  0
   -1.9072   -2.6138    0.1951 O   0  0  0  0  0  0  0  0  0  0  0  0
    1.7112    2.9653   -0.4862 H   0  0  0  0  0  0  0  0  0  0  0  0
    0.1376    2.8322    0.3467 H   0  0  0  0  0  0  0  0  0  0  0  0
    1.6607    2.6887    1.2688 H   0  0  0  0  0  0  0  0  0  0  0  0
    2.9609    0.5190    0.9866 H   0  0  0  0  0  0  0  0  0  0  0  0
    2.3141   -0.7003   -0.1210 H   0  0  0  0  0  0  0  0  0  0  0  0
    3.0306    0.7853   -0.7649 H   0  0  0  0  0  0  0  0  0  0  0  0
    0.4278   -1.3623   -1.1942 H   0  0  0  0  0  0  0  0  0  0  0  0
    0.4056   -1.6448    0.5497 H   0  0  0  0  0  0  0  0  0  0  0  0
   -2.1740   -1.0423   -1.0482 H   0  0  0  0  0  0  0  0  0  0  0  0
  1 10  1  0  0  0  0
  1 11  1  0  0  0  0
  2  1  1  0  0  0  0
  3  2  1  0  0  0  0
  3 12  1  0  0  0  0
  4  5  2  0  0  0  0
  4  2  1  0  0  0  0
  6  4  1  0  0  0  0
  6 16  1  0  0  0  0
  7  6  1  0  0  0  0
  7  8  2  0  0  0  0
  9  1  1  0  0  0  0
 13  3  1  0  0  0  0
 14  3  1  0  0  0  0
 15  6  1  0  0  0  0
 17  7  1  0  0  0  0
M  END
