17
title
C 1.4355894 2.2918394 0.34848785
N 1.1319237 0.9185312 -0.02123129
C 2.2431195 0.049222693 -0.36649626
C -0.16365637 0.48080572 0.11052212
O -1.0959578 1.2053901 0.41713884
N -0.35293034 -0.87824327 -0.14213336
C -1.5970316 -1.4771512 -0.0805135
N -1.7138486 -2.7262762 -0.28953847
H 1.9452794 2.8075569 -0.47358721
H 0.49725935 2.7985103 0.5664109
H 2.080667 2.3315227 1.2358567
H 2.521955 -0.6340148 0.44842502
H 2.032038 -0.5401172 -1.2656885
H 3.113134 0.6695589 -0.58974546
H 0.41575965 -1.4989023 -0.33949736
H -2.3853037 -0.7607685 0.15567046
H -2.6896412 -3.0044858 -0.20820661
