16
title
C 0.15837725 2.313038 1.2853892
N 0.16776665 0.8655265 1.1443225
C 0.43652385 0.08930778 2.3405573
C -0.092847876 0.3338418 -0.09939405
O -0.18495968 0.99121684 -1.1100671
N -0.26985535 -1.0731972 -0.08660433
C -0.2629657 -1.9150281 -1.1903849
O 0.03417263 -1.632638 -2.317424
H 1.1378517 2.6771882 1.6186758
H -0.07275777 2.7484176 0.31499955
H -0.5953361 2.6278841 2.0179887
H -0.4748489 -0.16358043 2.903727
H 0.9751405 -0.83089197 2.1018128
H 1.079218 0.6744034 3.0044007
H -0.5235977 -1.5137427 0.78331476
H -0.56265503 -2.937939 -0.878587
