title
 OpenBabel02282109583D

 16 15  0  0  0  0  0  0  0  0999 V2000
    0.1584    2.3130    1.2854 C   0  0  0  0  0  0  0  0  0  0  0  0
    0.1678    0.8655    1.1443 N   0  0  0  0  0  0  0  0  0  0  0  0
    0.4365    0.0893    2.3406 C   0  0  0  0  0  0  0  0  0  0  0  0
   -0.0928    0.3338   -0.0994 C   0  0  0  0  0  0  0  0  0  0  0  0
   -0.1850    0.9912   -1.1101 O   0  0  0  0  0  0  0  0  0  0  0  0
   -0.2699   -1.0732   -0.0866 N   0  0  0  0  0  0  0  0  0  0  0  0
   -0.2630   -1.9150   -1.1904 C   0  0  0  0  0  0  0  0  0  0  0  0
    0.0342   -1.6326   -2.3174 O   0  0  0  0  0  0  0  0  0  0  0  0
    1.1379    2.6772    1.6187 H   0  0  0  0  0  0  0  0  0  0  0  0
   -0.0728    2.7484    0.3150 H   0  0  0  0  0  0  0  0  0  0  0  0
   -0.5953    2.6279    2.0180 H   0  0  0  0  0  0  0  0  0  0  0  0
   -0.4748   -0.1636    2.9037 H   0  0  0  0  0  0  0  0  0  0  0  0
    0.9751   -0.8309    2.1018 H   0  0  0  0  0  0  0  0  0  0  0  0
    1.0792    0.6744    3.0044 H   0  0  0  0  0  0  0  0  0  0  0  0
   -0.5236   -1.5137    0.7833 H   0  0  0  0  0  0  0  0  0  0  0  0
   -0.5627   -2.9379   -0.8786 H   0  0  0  0  0  0  0  0  0  0  0  0
  1  9  1  0  0  0  0
  1 11  1  0  0  0  0
  2  1  1  0  0  0  0
  2  3  1  0  0  0  0
  3 12  1  0  0  0  0
  3 14  1  0  0  0  0
  4  6  1  0  0  0  0
  4  2  1  0  0  0  0
  5  4  2  0  0  0  0
  6 15  1  0  0  0  0
  7 16  1  0  0  0  0
  7  6  1  0  0  0  0
  8  7  2  0  0  0  0
 10  1  1  0  0  0  0
 13  3  1  0  0  0  0
M  END
