title
 OpenBabel02282109583D

 21 20  0  0  1  0  0  0  0  0999 V2000
    1.3794    2.3895   -0.0495 C   0  0  0  0  0  0  0  0  0  0  0  0
    1.3346    0.8537    0.0070 C   0  0  0  0  0  0  0  0  0  0  0  0
    2.1108    0.3710    1.2442 C   0  0  0  0  0  0  0  0  0  0  0  0
   -0.1209    0.3200   -0.0324 C   0  0  1  0  0  0  0  0  0  0  0  0
   -0.9164    0.8459   -1.2364 C   0  0  0  0  0  0  0  0  0  0  0  0
   -0.1379   -1.2321   -0.0283 C   0  0  0  0  0  0  0  0  0  0  0  0
   -1.4869   -1.7914    0.0251 C   0  0  0  0  0  0  0  0  0  0  0  0
   -2.5585   -2.2219    0.0757 N   0  0  0  0  0  0  0  0  0  0  0  0
    2.4122    2.7425    0.0307 H   0  0  0  0  0  0  0  0  0  0  0  0
    0.9689    2.7856   -0.9809 H   0  0  0  0  0  0  0  0  0  0  0  0
    0.8154    2.8292    0.7820 H   0  0  0  0  0  0  0  0  0  0  0  0
    1.8481    0.4704   -0.8880 H   0  0  0  0  0  0  0  0  0  0  0  0
    1.5966    0.6629    2.1678 H   0  0  0  0  0  0  0  0  0  0  0  0
    2.2511   -0.7131    1.2663 H   0  0  0  0  0  0  0  0  0  0  0  0
    3.1077    0.8216    1.2673 H   0  0  0  0  0  0  0  0  0  0  0  0
   -0.6242    0.6520    0.8862 H   0  0  0  0  0  0  0  0  0  0  0  0
   -1.0590    1.9270   -1.1844 H   0  0  0  0  0  0  0  0  0  0  0  0
   -0.3997    0.6186   -2.1769 H   0  0  0  0  0  0  0  0  0  0  0  0
   -1.9076    0.3862   -1.2798 H   0  0  0  0  0  0  0  0  0  0  0  0
    0.3586   -1.6112   -0.9307 H   0  0  0  0  0  0  0  0  0  0  0  0
    0.4155   -1.6286    0.8271 H   0  0  0  0  0  0  0  0  0  0  0  0
  1  2  1  0  0  0  0
  1  9  1  0  0  0  0
  1 11  1  0  0  0  0
  2  3  1  0  0  0  0
  3 14  1  0  0  0  0
  3 15  1  0  0  0  0
  3 13  1  0  0  0  0
  4  6  1  0  0  0  0
  4  2  1  0  0  0  0
  4 16  1  1  0  0  0
  5 17  1  0  0  0  0
  5  4  1  0  0  0  0
  6  7  1  0  0  0  0
  6 21  1  0  0  0  0
  7  8  3  0  0  0  0
 10  1  1  0  0  0  0
 12  2  1  0  0  0  0
 18  5  1  0  0  0  0
 19  5  1  0  0  0  0
 20  6  1  0  0  0  0
M  END
