title
 OpenBabel02282109583D

 20 19  0  0  1  0  0  0  0  0999 V2000
    1.3257    2.3640   -0.0892 C   0  0  0  0  0  0  0  0  0  0  0  0
    1.3392    0.8307   -0.0122 C   0  0  0  0  0  0  0  0  0  0  0  0
    2.1688    0.3614    1.1926 C   0  0  0  0  0  0  0  0  0  0  0  0
   -0.1052    0.2837    0.0067 C   0  0  1  0  0  0  0  0  0  0  0  0
   -0.8646    0.7846   -1.0844 O   0  0  0  0  0  0  0  0  0  0  0  0
   -0.1633   -1.2615    0.0479 C   0  0  0  0  0  0  0  0  0  0  0  0
   -1.5221   -1.7875    0.0410 C   0  0  0  0  0  0  0  0  0  0  0  0
   -2.6412   -2.2248    0.0502 C   0  0  0  0  0  0  0  0  0  0  0  0
    2.3405    2.7557   -0.2104 H   0  0  0  0  0  0  0  0  0  0  0  0
    0.7125    2.7099   -0.9232 H   0  0  0  0  0  0  0  0  0  0  0  0
    0.9113    2.7931    0.8311 H   0  0  0  0  0  0  0  0  0  0  0  0
    1.8158    0.4452   -0.9280 H   0  0  0  0  0  0  0  0  0  0  0  0
    2.3419   -0.7183    1.1939 H   0  0  0  0  0  0  0  0  0  0  0  0
    3.1491    0.8482    1.1919 H   0  0  0  0  0  0  0  0  0  0  0  0
    1.6732    0.6249    2.1348 H   0  0  0  0  0  0  0  0  0  0  0  0
   -0.6163    0.6705    0.8975 H   0  0  0  0  0  0  0  0  0  0  0  0
   -0.5159    0.3952   -1.8944 H   0  0  0  0  0  0  0  0  0  0  0  0
    0.3936   -1.6583   -0.8145 H   0  0  0  0  0  0  0  0  0  0  0  0
    0.3595   -1.6266    0.9385 H   0  0  0  0  0  0  0  0  0  0  0  0
   -3.6320   -2.6061    0.0532 H   0  0  0  0  0  0  0  0  0  0  0  0
  1  2  1  0  0  0  0
  1 11  1  0  0  0  0
  2  4  1  0  0  0  0
  2  3  1  0  0  0  0
  3 13  1  0  0  0  0
  3 15  1  0  0  0  0
  4  6  1  0  0  0  0
  4 16  1  1  0  0  0
  5  4  1  0  0  0  0
  6 19  1  0  0  0  0
  7  6  1  0  0  0  0
  7  8  3  0  0  0  0
  8 20  1  0  0  0  0
  9  1  1  0  0  0  0
 10  1  1  0  0  0  0
 12  2  1  0  0  0  0
 14  3  1  0  0  0  0
 17  5  1  0  0  0  0
 18  6  1  0  0  0  0
M  END
