20
title
C 1.3256779 2.3639555 -0.08921211
C 1.3392482 0.83067286 -0.012157974
C 2.1688442 0.36139122 1.1926372
C -0.10516494 0.28373104 0.0067396937
O -0.8645968 0.784619 -1.0843692
C -0.163284 -1.2615198 0.047899727
C -1.5221142 -1.7874688 0.040975016
C -2.6412475 -2.2247574 0.050205868
H 2.3405435 2.7557416 -0.21036507
H 0.71245724 2.7098682 -0.92315376
H 0.9112678 2.7931213 0.8310899
H 1.8158338 0.4452339 -0.92801905
H 2.3419356 -0.71833754 1.1938919
H 3.1491213 0.8481663 1.191932
H 1.6732247 0.6249402 2.1348028
H -0.61632615 0.67050076 0.89745927
H -0.5159157 0.39522138 -1.8943529
H 0.39357287 -1.6583067 -0.8145115
H 0.35954815 -1.6265613 0.9384753
H -3.6319826 -2.6060538 0.053153206
