19
title
C 1.3201282 2.3858452 -0.055774115
C 1.3424563 0.85186875 0.0070888493
C 2.1663475 0.37390494 1.2122931
C -0.098599784 0.29997376 0.011746358
O -0.85558724 0.7819022 -1.0854349
C -0.14153813 -1.2469875 0.05627321
C -1.504348 -1.7709001 0.009174133
N -2.5772097 -2.198497 -0.014665393
H 2.333671 2.7824626 -0.1686199
H 0.710144 2.739235 -0.8890917
H 0.8995293 2.8036308 0.8665629
H 1.8255705 0.47606707 -0.90961176
H 3.1455476 0.8619333 1.2186123
H 1.6668125 0.63005996 2.1541889
H 2.3428583 -0.705476 1.2057416
H -0.62159 0.68192935 0.8970488
H -0.4256364 0.4980461 -1.9006828
H 0.42284298 -1.6562928 -0.7922232
H 0.33936983 -1.6211134 0.96492463
