title
 OpenBabel02282109583D

 20 19  0  0  1  0  0  0  0  0999 V2000
   -0.6474    2.1200   -0.3349 C   0  0  0  0  0  0  0  0  0  0  0  0
   -0.5430    0.5901   -0.1878 C   0  0  1  0  0  0  0  0  0  0  0  0
    0.0873   -0.0209   -1.4634 C   0  0  0  0  0  0  0  0  0  0  0  0
    0.0766   -1.4816   -1.4582 C   0  0  0  0  0  0  0  0  0  0  0  0
    0.0519   -2.6366   -1.4753 N   0  0  0  0  0  0  0  0  0  0  0  0
    0.1518    0.1113    1.0070 N   0  0  0  0  0  0  0  0  0  0  0  0
    1.4674    0.6813    1.2487 C   0  0  0  0  0  0  0  0  0  0  0  0
   -0.6699    0.1204    2.2051 C   0  0  0  0  0  0  0  0  0  0  0  0
    0.3306    2.5774   -0.5158 H   0  0  0  0  0  0  0  0  0  0  0  0
   -1.3006    2.3858   -1.1719 H   0  0  0  0  0  0  0  0  0  0  0  0
   -1.0670    2.5682    0.5702 H   0  0  0  0  0  0  0  0  0  0  0  0
   -1.5601    0.1883   -0.1194 H   0  0  0  0  0  0  0  0  0  0  0  0
   -0.4618    0.3291   -2.3447 H   0  0  0  0  0  0  0  0  0  0  0  0
    1.1196    0.3248   -1.5865 H   0  0  0  0  0  0  0  0  0  0  0  0
    1.4465    1.7379    1.5715 H   0  0  0  0  0  0  0  0  0  0  0  0
    1.9661    0.1054    2.0347 H   0  0  0  0  0  0  0  0  0  0  0  0
    2.0912    0.6147    0.3528 H   0  0  0  0  0  0  0  0  0  0  0  0
   -1.6105   -0.4057    2.0165 H   0  0  0  0  0  0  0  0  0  0  0  0
   -0.1452   -0.4088    3.0071 H   0  0  0  0  0  0  0  0  0  0  0  0
   -0.9103    1.1332    2.5801 H   0  0  0  0  0  0  0  0  0  0  0  0
  1  2  1  0  0  0  0
  1 11  1  0  0  0  0
  2 12  1  1  0  0  0
  2  6  1  0  0  0  0
  3  4  1  0  0  0  0
  3  2  1  0  0  0  0
  5  4  3  0  0  0  0
  6  7  1  0  0  0  0
  6  8  1  0  0  0  0
  7 15  1  0  0  0  0
  7 16  1  0  0  0  0
  8 20  1  0  0  0  0
  8 19  1  0  0  0  0
  9  1  1  0  0  0  0
 10  1  1  0  0  0  0
 13  3  1  0  0  0  0
 14  3  1  0  0  0  0
 17  7  1  0  0  0  0
 18  8  1  0  0  0  0
M  END
