20
title
C -0.6473598 2.119969 -0.33485988
C -0.54296696 0.59009266 -0.18783289
C 0.08729111 -0.020940289 -1.4634019
C 0.0765975 -1.4816095 -1.4581945
N 0.051902995 -2.636583 -1.4752926
N 0.15175281 0.111295894 1.0069566
C 1.4673742 0.68127173 1.2486761
C -0.66993654 0.12037335 2.205115
H 0.33061472 2.5774453 -0.51579064
H -1.3005579 2.3858402 -1.1718949
H -1.0669526 2.5682478 0.57021767
H -1.5601208 0.18832444 -0.1193604
H -0.4617951 0.3290843 -2.3446882
H 1.1196231 0.3248095 -1.5864888
H 1.4465114 1.7378861 1.5714667
H 1.9661418 0.1054299 2.0346627
H 2.0912402 0.6147443 0.35283828
H -1.6105402 -0.40573385 2.0164604
H -0.14516653 -0.40881744 3.007127
H -0.91026866 1.1332488 2.5801442
