18
title
C 1.3313248 2.3591456 -0.03524022
C 1.2926499 0.83414257 -0.0154243065
O 2.0093098 0.2997475 1.0953437
C -0.15226568 0.29061368 -0.050705086
O -0.8664609 0.8085884 -1.1617337
C -0.16653062 -1.2506704 -0.014379161
C -1.5055767 -1.8164427 0.068774395
C -2.6135519 -2.2756474 0.14431164
H 2.3650455 2.7139363 -0.0581949
H 0.7943741 2.746932 -0.90308523
H 0.84705114 2.7658198 0.86249775
H 1.8202199 0.44561854 -0.89848065
H 1.7093369 0.7620246 1.8861635
H -0.68689644 0.6671286 0.83165604
H -0.57057285 0.3432006 -1.9521027
H 0.34258047 -1.6262882 -0.91536784
H 0.44579455 -1.5775266 0.8322575
H -3.5918221 -2.6828272 0.20856388
