title
 OpenBabel02282109583D

 17 16  0  0  1  0  0  0  0  0999 V2000
    1.3230    2.3829    0.0039 C   0  0  0  0  0  0  0  0  0  0  0  0
    1.2943    0.8582   -0.0026 C   0  0  1  0  0  0  0  0  0  0  0  0
    2.0006    0.3040    1.1032 O   0  0  0  0  0  0  0  0  0  0  0  0
   -0.1480    0.3094   -0.0590 C   0  0  1  0  0  0  0  0  0  0  0  0
   -0.8555    0.8081   -1.1782 O   0  0  0  0  0  0  0  0  0  0  0  0
   -0.1431   -1.2333   -0.0145 C   0  0  0  0  0  0  0  0  0  0  0  0
   -1.4851   -1.8022    0.0532 C   0  0  0  0  0  0  0  0  0  0  0  0
   -2.5470   -2.2531    0.1153 N   0  0  0  0  0  0  0  0  0  0  0  0
    2.3545    2.7440   -0.0101 H   0  0  0  0  0  0  0  0  0  0  0  0
    0.7877    2.7838   -0.8591 H   0  0  0  0  0  0  0  0  0  0  0  0
    0.8325    2.7711    0.9061 H   0  0  0  0  0  0  0  0  0  0  0  0
    1.8286    0.4873   -0.8899 H   0  0  0  0  0  0  0  0  0  0  0  0
    1.7401    0.7899    1.8938 H   0  0  0  0  0  0  0  0  0  0  0  0
   -0.6986    0.6827    0.8137 H   0  0  0  0  0  0  0  0  0  0  0  0
   -0.4561    0.4485   -1.9790 H   0  0  0  0  0  0  0  0  0  0  0  0
    0.3644   -1.6241   -0.9068 H   0  0  0  0  0  0  0  0  0  0  0  0
    0.4438   -1.5621    0.8476 H   0  0  0  0  0  0  0  0  0  0  0  0
  1 11  1  0  0  0  0
  2 12  1  6  0  0  0
  2  1  1  0  0  0  0
  2  3  1  0  0  0  0
  3 13  1  0  0  0  0
  4  6  1  0  0  0  0
  4  2  1  0  0  0  0
  4 14  1  1  0  0  0
  5  4  1  0  0  0  0
  6  7  1  0  0  0  0
  6 17  1  0  0  0  0
  7  8  3  0  0  0  0
  9  1  1  0  0  0  0
 10  1  1  0  0  0  0
 15  5  1  0  0  0  0
 16  6  1  0  0  0  0
M  END
