21
title
C 1.2988385 2.3183553 -0.168569
C 1.1924679 0.78579956 -0.18540719
C 1.7513545 0.20367308 1.1203369
C -0.26020017 0.31226555 -0.4400921
C -0.8746544 0.87237954 -1.7296668
N -0.33790794 -1.1486666 -0.46186408
C -1.0467438 -1.8846076 0.43434536
O -1.6697332 -1.441591 1.3766991
H 2.3194392 2.626119 0.079494
H 1.04615 2.7669005 -1.1326323
H 0.63258743 2.7477252 0.5893035
H 1.8083569 0.41352317 -1.0193763
H 1.7292378 -0.8886138 1.1202323
H 2.7881079 0.5210451 1.2703613
H 1.1671509 0.54743236 1.9813682
H -0.87880266 0.6094015 0.41273904
H -0.26268354 0.6158033 -2.6035252
H -1.8742191 0.4562419 -1.8811333
H -0.96451914 1.9602865 -1.6932441
H 0.11873351 -1.6391983 -1.2159755
H -0.9909309 -2.9684973 0.20629245
