title
 OpenBabel02282109583D

 21 20  0  0  1  0  0  0  0  0999 V2000
    1.2988    2.3184   -0.1686 C   0  0  0  0  0  0  0  0  0  0  0  0
    1.1925    0.7858   -0.1854 C   0  0  0  0  0  0  0  0  0  0  0  0
    1.7514    0.2037    1.1203 C   0  0  0  0  0  0  0  0  0  0  0  0
   -0.2602    0.3123   -0.4401 C   0  0  1  0  0  0  0  0  0  0  0  0
   -0.8747    0.8724   -1.7297 C   0  0  0  0  0  0  0  0  0  0  0  0
   -0.3379   -1.1487   -0.4619 N   0  0  0  0  0  0  0  0  0  0  0  0
   -1.0467   -1.8846    0.4343 C   0  0  0  0  0  0  0  0  0  0  0  0
   -1.6697   -1.4416    1.3767 O   0  0  0  0  0  0  0  0  0  0  0  0
    2.3194    2.6261    0.0795 H   0  0  0  0  0  0  0  0  0  0  0  0
    1.0461    2.7669   -1.1326 H   0  0  0  0  0  0  0  0  0  0  0  0
    0.6326    2.7477    0.5893 H   0  0  0  0  0  0  0  0  0  0  0  0
    1.8084    0.4135   -1.0194 H   0  0  0  0  0  0  0  0  0  0  0  0
    1.7292   -0.8886    1.1202 H   0  0  0  0  0  0  0  0  0  0  0  0
    2.7881    0.5210    1.2704 H   0  0  0  0  0  0  0  0  0  0  0  0
    1.1672    0.5474    1.9814 H   0  0  0  0  0  0  0  0  0  0  0  0
   -0.8788    0.6094    0.4127 H   0  0  0  0  0  0  0  0  0  0  0  0
   -0.2627    0.6158   -2.6035 H   0  0  0  0  0  0  0  0  0  0  0  0
   -1.8742    0.4562   -1.8811 H   0  0  0  0  0  0  0  0  0  0  0  0
   -0.9645    1.9603   -1.6932 H   0  0  0  0  0  0  0  0  0  0  0  0
    0.1187   -1.6392   -1.2160 H   0  0  0  0  0  0  0  0  0  0  0  0
   -0.9909   -2.9685    0.2063 H   0  0  0  0  0  0  0  0  0  0  0  0
  1  9  1  0  0  0  0
  1 11  1  0  0  0  0
  2  1  1  0  0  0  0
  2  3  1  0  0  0  0
  3 14  1  0  0  0  0
  3 15  1  0  0  0  0
  4  2  1  0  0  0  0
  4 16  1  1  0  0  0
  5 19  1  0  0  0  0
  5  4  1  0  0  0  0
  6  4  1  0  0  0  0
  6  7  1  0  0  0  0
  7  8  2  0  0  0  0
 10  1  1  0  0  0  0
 12  2  1  0  0  0  0
 13  3  1  0  0  0  0
 17  5  1  0  0  0  0
 18  5  1  0  0  0  0
 20  6  1  0  0  0  0
 21  7  1  0  0  0  0
M  END
