title
 OpenBabel02282109583D

 20 19  0  0  1  0  0  0  0  0999 V2000
   -1.3735    1.6035   -0.8501 C   0  0  0  0  0  0  0  0  0  0  0  0
   -1.2924    0.0748   -0.9597 C   0  0  0  0  0  0  0  0  0  0  0  0
   -0.6165   -0.3484   -2.2721 C   0  0  0  0  0  0  0  0  0  0  0  0
   -0.6151   -0.5273    0.2850 C   0  0  1  0  0  0  0  0  0  0  0  0
   -0.6135   -2.0514    0.3449 C   0  0  0  0  0  0  0  0  0  0  0  0
    0.7562   -0.0677    0.3235 O   0  0  0  0  0  0  0  0  0  0  0  0
    1.2302    0.4558    1.4658 C   0  0  0  0  0  0  0  0  0  0  0  0
    2.3586    0.8283    1.5918 O   0  0  0  0  0  0  0  0  0  0  0  0
   -0.3738    2.0488   -0.8499 H   0  0  0  0  0  0  0  0  0  0  0  0
   -1.9256    2.0223   -1.6967 H   0  0  0  0  0  0  0  0  0  0  0  0
   -1.8838    1.9157    0.0679 H   0  0  0  0  0  0  0  0  0  0  0  0
   -2.3173   -0.3215   -0.9542 H   0  0  0  0  0  0  0  0  0  0  0  0
    0.4316   -0.0358   -2.2859 H   0  0  0  0  0  0  0  0  0  0  0  0
   -0.6501   -1.4310   -2.4232 H   0  0  0  0  0  0  0  0  0  0  0  0
   -1.1204    0.1182   -3.1238 H   0  0  0  0  0  0  0  0  0  0  0  0
   -1.1299   -0.1341    1.1734 H   0  0  0  0  0  0  0  0  0  0  0  0
   -1.6338   -2.4379    0.2585 H   0  0  0  0  0  0  0  0  0  0  0  0
   -0.0097   -2.4754   -0.4607 H   0  0  0  0  0  0  0  0  0  0  0  0
   -0.1966   -2.3966    1.2956 H   0  0  0  0  0  0  0  0  0  0  0  0
    0.4642    0.5065    2.2655 H   0  0  0  0  0  0  0  0  0  0  0  0
  1  9  1  0  0  0  0
  1 11  1  0  0  0  0
  2 12  1  0  0  0  0
  2  1  1  0  0  0  0
  2  4  1  0  0  0  0
  3  2  1  0  0  0  0
  4  6  1  0  0  0  0
  4  5  1  0  0  0  0
  4 16  1  1  0  0  0
  5 19  1  0  0  0  0
  6  7  1  0  0  0  0
  7  8  2  0  0  0  0
  7 20  1  0  0  0  0
 10  1  1  0  0  0  0
 13  3  1  0  0  0  0
 14  3  1  0  0  0  0
 15  3  1  0  0  0  0
 17  5  1  0  0  0  0
 18  5  1  0  0  0  0
M  END
