title
 OpenBabel02282109583D

 20 19  0  0  1  0  0  0  0  0999 V2000
   -1.4567    2.0016   -0.8826 C   0  0  0  0  0  0  0  0  0  0  0  0
   -1.3565    0.4754   -0.9191 C   0  0  1  0  0  0  0  0  0  0  0  0
   -0.6887    0.0281   -2.0965 O   0  0  0  0  0  0  0  0  0  0  0  0
   -0.6108   -0.1419    0.2789 C   0  0  1  0  0  0  0  0  0  0  0  0
   -0.7976   -1.6665    0.3036 C   0  0  0  0  0  0  0  0  0  0  0  0
    0.8887    0.2269    0.2909 C   0  0  0  0  0  0  0  0  0  0  0  0
    1.5465   -0.1331    1.6020 C   0  0  0  0  0  0  0  0  0  0  0  0
    2.5445   -0.7949    1.7263 O   0  0  0  0  0  0  0  0  0  0  0  0
   -0.4707    2.4711   -0.9433 H   0  0  0  0  0  0  0  0  0  0  0  0
   -2.0483    2.3641   -1.7313 H   0  0  0  0  0  0  0  0  0  0  0  0
   -1.9528    2.3428    0.0322 H   0  0  0  0  0  0  0  0  0  0  0  0
   -2.3818    0.0680   -0.8966 H   0  0  0  0  0  0  0  0  0  0  0  0
   -1.1552    0.3815   -2.8599 H   0  0  0  0  0  0  0  0  0  0  0  0
   -1.0736    0.2809    1.1822 H   0  0  0  0  0  0  0  0  0  0  0  0
   -1.8572   -1.9296    0.3869 H   0  0  0  0  0  0  0  0  0  0  0  0
   -0.4091   -2.1098   -0.6172 H   0  0  0  0  0  0  0  0  0  0  0  0
   -0.2717   -2.1218    1.1484 H   0  0  0  0  0  0  0  0  0  0  0  0
    1.4231   -0.2565   -0.5293 H   0  0  0  0  0  0  0  0  0  0  0  0
    1.0039    1.3138    0.1769 H   0  0  0  0  0  0  0  0  0  0  0  0
    1.0242    0.2819    2.4990 H   0  0  0  0  0  0  0  0  0  0  0  0
  1 11  1  0  0  0  0
  2 12  1  6  0  0  0
  2  1  1  0  0  0  0
  2  4  1  0  0  0  0
  3  2  1  0  0  0  0
  4  6  1  0  0  0  0
  4  5  1  0  0  0  0
  4 14  1  1  0  0  0
  5 15  1  0  0  0  0
  5 17  1  0  0  0  0
  6  7  1  0  0  0  0
  7  8  2  0  0  0  0
  7 20  1  0  0  0  0
  9  1  1  0  0  0  0
 10  1  1  0  0  0  0
 13  3  1  0  0  0  0
 16  5  1  0  0  0  0
 18  6  1  0  0  0  0
 19  6  1  0  0  0  0
M  END
