20
title
C -1.4567306 2.0016034 -0.8825961
C -1.3565136 0.47537425 -0.91908616
O -0.6887198 0.028125446 -2.096453
C -0.61075836 -0.14193164 0.2789058
C -0.79763967 -1.6664871 0.3036005
C 0.888724 0.22692764 0.29089063
C 1.546516 -0.133139 1.6019818
O 2.5445344 -0.7948935 1.7262627
H -0.470741 2.4711292 -0.94326293
H -2.0483215 2.364114 -1.7312695
H -1.9527919 2.3427792 0.032175772
H -2.3818336 0.06801737 -0.89658517
H -1.1551985 0.3814801 -2.8598561
H -1.0736475 0.2808616 1.1821641
H -1.8571914 -1.9295894 0.38690287
H -0.4091303 -2.1098442 -0.61715734
H -0.27168253 -2.121837 1.1484026
H 1.4231207 -0.25654083 -0.5293143
H 1.0039084 1.3137752 0.17694443
H 1.0241625 0.28193206 2.4989746
