19
title
C -1.2958099 1.6957368 -0.86198825
C -1.1087186 0.19129835 -1.0411114
O -0.29662403 -0.10337544 -2.1817884
C -0.409632 -0.48168457 0.15220302
C -0.45834902 -2.012024 0.057081044
N 0.9626552 0.003268576 0.2350902
C 1.567376 0.34764022 1.398953
O 1.0501117 0.3131556 2.4972675
H -0.3336247 2.1889825 -0.70026004
H -1.7665777 2.135027 -1.7491885
H -1.9425656 1.9072593 -0.004787147
H -2.0961065 -0.28318053 -1.1551759
H -0.6496224 0.3761958 -2.93701
H -0.9008005 -0.16291614 1.0753791
H 0.053759947 -2.4582043 0.913086
H -1.4951767 -2.3644612 0.05521828
H 0.021558302 -2.3567057 -0.8628441
H 1.4775301 0.051391475 -0.6307597
H 2.6131742 0.678111 1.2357635
