title
 OpenBabel02282109583D

 16 15  0  0  1  0  0  0  0  0999 V2000
    0.2073    1.9677   -0.3941 C   0  0  0  0  0  0  0  0  0  0  0  0
    0.9602    0.6637   -0.3937 C   0  0  0  0  0  0  0  0  0  0  0  0
    2.1703    0.6068   -0.3110 O   0  0  0  0  0  0  0  0  0  0  0  0
    0.1869   -0.6601   -0.5229 C   0  0  1  0  0  0  0  0  0  0  0  0
    1.0952   -1.7042   -0.7270 O   0  0  0  0  0  0  0  0  0  0  0  0
   -0.6558   -0.9790    0.7503 C   0  0  0  0  0  0  0  0  0  0  0  0
   -1.8795   -0.2069    0.9060 C   0  0  0  0  0  0  0  0  0  0  0  0
   -2.8981    0.4227    1.0174 C   0  0  0  0  0  0  0  0  0  0  0  0
    0.9071    2.7961   -0.2788 H   0  0  0  0  0  0  0  0  0  0  0  0
   -0.3424    2.0749   -1.3361 H   0  0  0  0  0  0  0  0  0  0  0  0
   -0.5427    1.9831    0.4021 H   0  0  0  0  0  0  0  0  0  0  0  0
   -0.5031   -0.5826   -1.3761 H   0  0  0  0  0  0  0  0  0  0  0  0
    1.9719   -1.2997   -0.6075 H   0  0  0  0  0  0  0  0  0  0  0  0
   -0.9008   -2.0438    0.6726 H   0  0  0  0  0  0  0  0  0  0  0  0
   -0.0155   -0.8748    1.6349 H   0  0  0  0  0  0  0  0  0  0  0  0
   -3.8018    0.9702    1.1242 H   0  0  0  0  0  0  0  0  0  0  0  0
  1  2  1  0  0  0  0
  1  9  1  0  0  0  0
  1 11  1  0  0  0  0
  2  3  2  0  0  0  0
  4 12  1  6  0  0  0
  4  2  1  0  0  0  0
  4  6  1  0  0  0  0
  5 13  1  0  0  0  0
  5  4  1  0  0  0  0
  6  7  1  0  0  0  0
  6 15  1  0  0  0  0
  7  8  3  0  0  0  0
  8 16  1  0  0  0  0
 10  1  1  0  0  0  0
 14  6  1  0  0  0  0
M  END
