16
title
C 0.20734273 1.9676609 -0.39413854
C 0.96024567 0.6636706 -0.39368486
O 2.1703055 0.60681784 -0.31104803
C 0.18688874 -0.6600648 -0.5228501
O 1.0952473 -1.7042083 -0.7270369
C -0.65582937 -0.9790375 0.7502849
C -1.8794961 -0.20686471 0.90604377
C -2.8981175 0.42266086 1.0173554
H 0.9070897 2.7961447 -0.27879843
H -0.3423769 2.074904 -1.3360616
H -0.5426964 1.9831055 0.4020887
H -0.5030814 -0.5826143 -1.3761314
H 1.9718589 -1.2997078 -0.6074766
H -0.90076226 -2.0438151 0.6726216
H -0.015512894 -0.87484 1.6348693
H -3.801824 0.9701928 1.124205
