15
title
C 1.2274704 2.2279959 -0.38169995
C 1.3064003 0.72390234 -0.4835089
O 2.354412 0.12915227 -0.60814875
C 0.006665422 -0.09734426 -0.44033453
O 0.2894467 -1.4511923 -0.6005043
C -0.75184494 0.141269 0.89246774
C -2.0257683 -0.57123053 0.927073
N -3.0450385 -1.1139015 0.95284164
H 2.1547143 2.66846 -0.75004905
H 0.37200433 2.6245759 -0.93642986
H 1.1007642 2.5201385 0.6677376
H -0.6341757 0.26209936 -1.262502
H 1.2581382 -1.5059291 -0.66421926
H -0.12674455 -0.20607409 1.7222818
H -0.9498058 1.2081133 1.0417936
