title
 OpenBabel02282109583D

 17 16  0  0  1  0  0  0  0  0999 V2000
   -0.0206    1.7033   -0.2136 C   0  0  0  0  0  0  0  0  0  0  0  0
   -0.0090    0.1767   -0.4036 C   0  0  1  0  0  0  0  0  0  0  0  0
    0.8310   -0.5354    0.6829 C   0  0  0  0  0  0  0  0  0  0  0  0
    2.2311   -0.1333    0.6819 C   0  0  0  0  0  0  0  0  0  0  0  0
    3.3855    0.2025    0.6599 C   0  0  0  0  0  0  0  0  0  0  0  0
   -1.4466   -0.3467   -0.3319 C   0  0  0  0  0  0  0  0  0  0  0  0
   -2.0558   -0.5395   -1.5370 N   0  0  0  0  0  0  0  0  0  0  0  0
   -2.0122   -0.5534    0.7255 O   0  0  0  0  0  0  0  0  0  0  0  0
    1.0003    2.0931   -0.2151 H   0  0  0  0  0  0  0  0  0  0  0  0
   -0.5819    2.1969   -1.0128 H   0  0  0  0  0  0  0  0  0  0  0  0
   -0.4912    1.9603    0.7403 H   0  0  0  0  0  0  0  0  0  0  0  0
    0.4215   -0.0564   -1.3848 H   0  0  0  0  0  0  0  0  0  0  0  0
    0.3695   -0.3344    1.6558 H   0  0  0  0  0  0  0  0  0  0  0  0
    0.7641   -1.6207    0.5385 H   0  0  0  0  0  0  0  0  0  0  0  0
    4.4072    0.4912    0.6580 H   0  0  0  0  0  0  0  0  0  0  0  0
   -1.5982   -0.3463   -2.4099 H   0  0  0  0  0  0  0  0  0  0  0  0
   -3.0237   -0.8173   -1.5454 H   0  0  0  0  0  0  0  0  0  0  0  0
  1 11  1  0  0  0  0
  2 12  1  6  0  0  0
  2  6  1  0  0  0  0
  2  1  1  0  0  0  0
  2  3  1  0  0  0  0
  3 13  1  0  0  0  0
  4  3  1  0  0  0  0
  5  4  3  0  0  0  0
  6  8  2  0  0  0  0
  7  6  1  0  0  0  0
  9  1  1  0  0  0  0
 10  1  1  0  0  0  0
 14  3  1  0  0  0  0
 15  5  1  0  0  0  0
 16  7  1  0  0  0  0
 17  7  1  0  0  0  0
M  END
