17
title
C -0.006249282 1.6216391 -0.54378784
C -0.002637164 0.0846763 -0.41641912
C 0.7538385 -0.38432178 0.84548485
C 2.1560388 0.02184293 0.8379104
N 3.2640293 0.35003564 0.8113419
C -1.4452394 -0.43197182 -0.36267868
C -2.1703022 -0.56856006 -1.6869643
O -1.9697454 -0.71451014 0.6902194
H 1.0186422 2.0006452 -0.5725852
H -0.51110584 1.9474379 -1.456952
H -0.51790404 2.077232 0.31018376
H 0.48469537 -0.33346054 -1.3053983
H 0.25982943 0.016115632 1.7358456
H 0.7030135 -1.4743748 0.93345964
H -1.7422911 -1.410768 -2.2444165
H -3.2299159 -0.7577103 -1.5125287
H -2.0431674 0.32085913 -2.311456
