title
 OpenBabel02282109583D

 17 16  0  0  1  0  0  0  0  0999 V2000
   -0.0062    1.6216   -0.5438 C   0  0  0  0  0  0  0  0  0  0  0  0
   -0.0026    0.0847   -0.4164 C   0  0  1  0  0  0  0  0  0  0  0  0
    0.7538   -0.3843    0.8455 C   0  0  0  0  0  0  0  0  0  0  0  0
    2.1560    0.0218    0.8379 C   0  0  0  0  0  0  0  0  0  0  0  0
    3.2640    0.3500    0.8113 N   0  0  0  0  0  0  0  0  0  0  0  0
   -1.4452   -0.4320   -0.3627 C   0  0  0  0  0  0  0  0  0  0  0  0
   -2.1703   -0.5686   -1.6870 C   0  0  0  0  0  0  0  0  0  0  0  0
   -1.9697   -0.7145    0.6902 O   0  0  0  0  0  0  0  0  0  0  0  0
    1.0186    2.0006   -0.5726 H   0  0  0  0  0  0  0  0  0  0  0  0
   -0.5111    1.9474   -1.4570 H   0  0  0  0  0  0  0  0  0  0  0  0
   -0.5179    2.0772    0.3102 H   0  0  0  0  0  0  0  0  0  0  0  0
    0.4847   -0.3335   -1.3054 H   0  0  0  0  0  0  0  0  0  0  0  0
    0.2598    0.0161    1.7358 H   0  0  0  0  0  0  0  0  0  0  0  0
    0.7030   -1.4744    0.9335 H   0  0  0  0  0  0  0  0  0  0  0  0
   -1.7423   -1.4108   -2.2444 H   0  0  0  0  0  0  0  0  0  0  0  0
   -3.2299   -0.7577   -1.5125 H   0  0  0  0  0  0  0  0  0  0  0  0
   -2.0432    0.3209   -2.3115 H   0  0  0  0  0  0  0  0  0  0  0  0
  1  2  1  0  0  0  0
  1 11  1  0  0  0  0
  2 12  1  6  0  0  0
  2  6  1  0  0  0  0
  2  3  1  0  0  0  0
  3 14  1  0  0  0  0
  3 13  1  0  0  0  0
  4  3  1  0  0  0  0
  5  4  3  0  0  0  0
  6  8  2  0  0  0  0
  7 16  1  0  0  0  0
  7  6  1  0  0  0  0
  9  1  1  0  0  0  0
 10  1  1  0  0  0  0
 15  7  1  0  0  0  0
 17  7  1  0  0  0  0
M  END
