title
 OpenBabel02282109583D

 16 15  0  0  1  0  0  0  0  0999 V2000
   -0.0247    1.6863   -0.2793 C   0  0  0  0  0  0  0  0  0  0  0  0
   -0.0143    0.1536   -0.4244 C   0  0  1  0  0  0  0  0  0  0  0  0
    0.8068   -0.5293    0.6911 C   0  0  0  0  0  0  0  0  0  0  0  0
    2.1994   -0.0919    0.7108 C   0  0  0  0  0  0  0  0  0  0  0  0
    3.3000    0.2613    0.7078 N   0  0  0  0  0  0  0  0  0  0  0  0
   -1.4526   -0.3744   -0.3473 C   0  0  0  0  0  0  0  0  0  0  0  0
   -2.1063   -0.4407   -1.5400 N   0  0  0  0  0  0  0  0  0  0  0  0
   -1.9744   -0.6830    0.7073 O   0  0  0  0  0  0  0  0  0  0  0  0
    0.9938    2.0824   -0.3035 H   0  0  0  0  0  0  0  0  0  0  0  0
   -0.5934    2.1523   -1.0888 H   0  0  0  0  0  0  0  0  0  0  0  0
   -0.4876    1.9749    0.6695 H   0  0  0  0  0  0  0  0  0  0  0  0
    0.4224   -0.1094   -1.3949 H   0  0  0  0  0  0  0  0  0  0  0  0
    0.3358   -0.3199    1.6562 H   0  0  0  0  0  0  0  0  0  0  0  0
    0.7831   -1.6170    0.5671 H   0  0  0  0  0  0  0  0  0  0  0  0
   -1.6769   -0.1752   -2.4085 H   0  0  0  0  0  0  0  0  0  0  0  0
   -3.0750   -0.7162   -1.5410 H   0  0  0  0  0  0  0  0  0  0  0  0
  1 11  1  0  0  0  0
  2 12  1  6  0  0  0
  2  6  1  0  0  0  0
  2  1  1  0  0  0  0
  2  3  1  0  0  0  0
  3  4  1  0  0  0  0
  3 13  1  0  0  0  0
  5  4  3  0  0  0  0
  6  8  2  0  0  0  0
  7  6  1  0  0  0  0
  9  1  1  0  0  0  0
 10  1  1  0  0  0  0
 14  3  1  0  0  0  0
 15  7  1  0  0  0  0
 16  7  1  0  0  0  0
M  END
