16
title
C 0.08711701 1.8197486 0.107569285
N 0.32781503 0.39675385 -0.05836752
C 0.3961164 -0.39437512 1.1582187
C -0.87935406 -0.40851304 1.8897018
N -1.8803177 -0.39336357 2.4664733
C 0.5159375 -0.26376078 -1.2577074
C 0.44808444 0.56527984 -2.5293212
O 0.73091257 -1.462231 -1.2939556
H 0.019974044 2.313729 -0.8586453
H -0.85150665 1.991404 0.6473498
H 0.89988923 2.288241 0.67834115
H 0.66399145 -1.4121673 0.8635812
H 1.1738529 -0.0076597207 1.8301599
H 1.2064024 1.3540087 -2.5435948
H 0.6242449 -0.11231996 -3.363567
H -0.5315202 1.0368378 -2.65336
