title
 OpenBabel02282109583D

 14 13  0  0  1  0  0  0  0  0999 V2000
    1.2857    2.0120   -0.5492 N   0  0  0  0  0  0  0  0  0  0  0  0
    1.3302    0.6607   -0.4584 C   0  0  0  0  0  0  0  0  0  0  0  0
    2.3616    0.0227   -0.3420 O   0  0  0  0  0  0  0  0  0  0  0  0
   -0.0209   -0.0802   -0.4616 C   0  0  1  0  0  0  0  0  0  0  0  0
    0.2116   -1.4374   -0.6728 O   0  0  0  0  0  0  0  0  0  0  0  0
   -0.7399    0.1546    0.8968 C   0  0  0  0  0  0  0  0  0  0  0  0
   -2.0543   -0.4786    0.9346 C   0  0  0  0  0  0  0  0  0  0  0  0
   -3.1053   -0.9573    0.9571 N   0  0  0  0  0  0  0  0  0  0  0  0
    2.1571    2.5160   -0.5994 H   0  0  0  0  0  0  0  0  0  0  0  0
    0.4422    2.4966   -0.8047 H   0  0  0  0  0  0  0  0  0  0  0  0
   -0.6577    0.3130   -1.2666 H   0  0  0  0  0  0  0  0  0  0  0  0
    1.1690   -1.5510   -0.5387 H   0  0  0  0  0  0  0  0  0  0  0  0
   -0.1152   -0.2603    1.6950 H   0  0  0  0  0  0  0  0  0  0  0  0
   -0.8592    1.2259    1.0939 H   0  0  0  0  0  0  0  0  0  0  0  0
  1  2  1  0  0  0  0
  2  3  2  0  0  0  0
  4 11  1  6  0  0  0
  4  2  1  0  0  0  0
  4  6  1  0  0  0  0
  5 12  1  0  0  0  0
  5  4  1  0  0  0  0
  6  7  1  0  0  0  0
  6 14  1  0  0  0  0
  6 13  1  0  0  0  0
  7  8  3  0  0  0  0
  9  1  1  0  0  0  0
 10  1  1  0  0  0  0
M  END
