title
 OpenBabel02282109583D

 16 15  0  0  1  0  0  0  0  0999 V2000
    1.2567    2.2065   -0.2628 C   0  0  0  0  0  0  0  0  0  0  0  0
    1.3275    0.7304   -0.5688 C   0  0  0  0  0  0  0  0  0  0  0  0
    2.3633    0.1694   -0.8572 O   0  0  0  0  0  0  0  0  0  0  0  0
    0.0407   -0.1037   -0.5151 C   0  0  1  0  0  0  0  0  0  0  0  0
    0.3174   -1.4251   -0.8856 O   0  0  0  0  0  0  0  0  0  0  0  0
   -0.5961   -0.0613    0.8951 C   0  0  0  0  0  0  0  0  0  0  0  0
   -1.8610   -0.8971    0.9512 C   0  0  0  0  0  0  0  0  0  0  0  0
   -2.9249   -0.4762    1.3278 O   0  0  0  0  0  0  0  0  0  0  0  0
    2.1495    2.7033   -0.6446 H   0  0  0  0  0  0  0  0  0  0  0  0
    0.3566    2.6617   -0.6865 H   0  0  0  0  0  0  0  0  0  0  0  0
    1.2141    2.3535    0.8226 H   0  0  0  0  0  0  0  0  0  0  0  0
   -0.6684    0.3492   -1.2291 H   0  0  0  0  0  0  0  0  0  0  0  0
    1.2769   -1.4456   -1.0444 H   0  0  0  0  0  0  0  0  0  0  0  0
    0.1271   -0.4873    1.6037 H   0  0  0  0  0  0  0  0  0  0  0  0
   -0.8449    0.9580    1.2017 H   0  0  0  0  0  0  0  0  0  0  0  0
   -1.7347   -1.9450    0.6111 H   0  0  0  0  0  0  0  0  0  0  0  0
  1 11  1  0  0  0  0
  2  4  1  0  0  0  0
  2  1  1  0  0  0  0
  3  2  2  0  0  0  0
  4 12  1  6  0  0  0
  4  6  1  0  0  0  0
  5  4  1  0  0  0  0
  6  7  1  0  0  0  0
  6 15  1  0  0  0  0
  6 14  1  0  0  0  0
  7  8  2  0  0  0  0
  9  1  1  0  0  0  0
 10  1  1  0  0  0  0
 13  5  1  0  0  0  0
 16  7  1  0  0  0  0
M  END
