title
 OpenBabel02282109583D

 17 16  0  0  1  0  0  0  0  0999 V2000
   -0.2324    1.6887   -0.5884 C   0  0  0  0  0  0  0  0  0  0  0  0
   -0.0315    0.1706   -0.4771 C   0  0  1  0  0  0  0  0  0  0  0  0
    0.6377   -0.2267    0.8546 C   0  0  0  0  0  0  0  0  0  0  0  0
    2.1026    0.1298    0.8716 C   0  0  0  0  0  0  0  0  0  0  0  0
    2.6443    0.8250    1.6920 O   0  0  0  0  0  0  0  0  0  0  0  0
   -1.2942   -0.6923   -0.6767 C   0  0  0  0  0  0  0  0  0  0  0  0
   -2.3537   -0.0902   -1.2844 N   0  0  0  0  0  0  0  0  0  0  0  0
   -1.3214   -1.8626   -0.3450 O   0  0  0  0  0  0  0  0  0  0  0  0
    0.7052    2.2132   -0.3830 H   0  0  0  0  0  0  0  0  0  0  0  0
   -0.5520    1.9899   -1.5916 H   0  0  0  0  0  0  0  0  0  0  0  0
   -0.9695    2.0475    0.1381 H   0  0  0  0  0  0  0  0  0  0  0  0
    0.6387   -0.1480   -1.2902 H   0  0  0  0  0  0  0  0  0  0  0  0
    0.1428    0.2452    1.7089 H   0  0  0  0  0  0  0  0  0  0  0  0
    0.5450   -1.3156    0.9516 H   0  0  0  0  0  0  0  0  0  0  0  0
    2.6832   -0.3146    0.0267 H   0  0  0  0  0  0  0  0  0  0  0  0
   -2.3820    0.8914   -1.4891 H   0  0  0  0  0  0  0  0  0  0  0  0
   -3.1893   -0.6371   -1.4127 H   0  0  0  0  0  0  0  0  0  0  0  0
  1  2  1  0  0  0  0
  1  9  1  0  0  0  0
  1 11  1  0  0  0  0
  2 12  1  6  0  0  0
  2  3  1  0  0  0  0
  3  4  1  0  0  0  0
  3 14  1  0  0  0  0
  3 13  1  0  0  0  0
  4  5  2  0  0  0  0
  6  2  1  0  0  0  0
  6  8  2  0  0  0  0
  7  6  1  0  0  0  0
 10  1  1  0  0  0  0
 15  4  1  0  0  0  0
 16  7  1  0  0  0  0
 17  7  1  0  0  0  0
M  END
