17
title
C -0.2324227 1.6886574 -0.5883794
C -0.031547118 0.17059866 -0.4770868
C 0.6376877 -0.22670491 0.85458755
C 2.1025782 0.1297826 0.87160647
O 2.6443474 0.8250169 1.6920291
C -1.294166 -0.6922584 -0.6767453
N -2.3536806 -0.090224154 -1.2843571
O -1.3213638 -1.8626096 -0.34503493
H 0.7052141 2.2131886 -0.38299125
H -0.5519875 1.9898515 -1.5915666
H -0.96953255 2.0474617 0.13805267
H 0.63865757 -0.14799021 -1.2902433
H 0.14284821 0.24516809 1.7089187
H 0.54503715 -1.3155818 0.9515828
H 2.683178 -0.31464857 0.02667412
H -2.3820229 0.89140403 -1.489143
H -3.1893437 -0.6370874 -1.4127406
