title
 OpenBabel02282109583D

 17 16  0  0  1  0  0  0  0  0999 V2000
   -0.0473    1.6815   -0.5449 C   0  0  0  0  0  0  0  0  0  0  0  0
   -0.0031    0.1533   -0.3433 C   0  0  1  0  0  0  0  0  0  0  0  0
    0.6740   -0.2181    0.8809 N   0  0  0  0  0  0  0  0  0  0  0  0
    2.0199   -0.1547    1.0165 C   0  0  0  0  0  0  0  0  0  0  0  0
    2.7807    0.2925    0.1801 O   0  0  0  0  0  0  0  0  0  0  0  0
   -1.4051   -0.4620   -0.3157 C   0  0  0  0  0  0  0  0  0  0  0  0
   -2.2715   -0.2696   -1.5417 C   0  0  0  0  0  0  0  0  0  0  0  0
   -1.7984   -1.0662    0.6584 O   0  0  0  0  0  0  0  0  0  0  0  0
    0.9763    2.0591   -0.5329 H   0  0  0  0  0  0  0  0  0  0  0  0
   -0.5014    1.9422   -1.5048 H   0  0  0  0  0  0  0  0  0  0  0  0
   -0.6137    2.1621    0.2585 H   0  0  0  0  0  0  0  0  0  0  0  0
    0.5386   -0.2791   -1.1965 H   0  0  0  0  0  0  0  0  0  0  0  0
    0.1024   -0.6977    1.5635 H   0  0  0  0  0  0  0  0  0  0  0  0
    2.3600   -0.5536    1.9923 H   0  0  0  0  0  0  0  0  0  0  0  0
   -2.6677    0.7519   -1.5559 H   0  0  0  0  0  0  0  0  0  0  0  0
   -1.6998   -0.4076   -2.4643 H   0  0  0  0  0  0  0  0  0  0  0  0
   -3.1085   -0.9678   -1.5056 H   0  0  0  0  0  0  0  0  0  0  0  0
  1  9  1  0  0  0  0
  1  2  1  0  0  0  0
  1 11  1  0  0  0  0
  2 12  1  6  0  0  0
  2  6  1  0  0  0  0
  2  3  1  0  0  0  0
  3  4  1  0  0  0  0
  3 13  1  0  0  0  0
  4 14  1  0  0  0  0
  5  4  2  0  0  0  0
  6  8  2  0  0  0  0
  7 17  1  0  0  0  0
  7  6  1  0  0  0  0
 10  1  1  0  0  0  0
 15  7  1  0  0  0  0
 16  7  1  0  0  0  0
M  END
