16
title
C 0.7268192 2.1510935 -0.021186233
C -0.014513748 0.82113546 -0.03622253
N 0.23659863 0.11457892 -1.2970312
C -0.60770386 -0.8017159 -1.8179781
O -1.6408595 -1.1791472 -1.2880678
C 0.39692116 -0.06188116 1.1715853
N -0.4467851 -1.1027982 1.3891999
O 1.3769686 0.18153742 1.8491765
H 1.807938 1.9876393 -0.019857578
H 0.44564468 2.7577415 -0.886498
H 0.48659593 2.703259 0.8893765
H -1.0968832 0.9794799 0.01240146
H 1.0977432 0.30948406 -1.7844175
H -0.26913837 -1.1824564 -2.799107
H -1.1527867 -1.3340197 0.7002249
H -0.185899 -1.7806796 2.0874536
