title
 OpenBabel02282109583D

 17 16  0  0  1  0  0  0  0  0999 V2000
   -0.0813    1.8616    0.7484 C   0  0  0  0  0  0  0  0  0  0  0  0
   -0.0170    0.6458   -0.1702 C   0  0  1  0  0  0  0  0  0  0  0  0
    0.6916   -0.4332    0.4435 O   0  0  0  0  0  0  0  0  0  0  0  0
    2.0205   -0.5130    0.2280 C   0  0  0  0  0  0  0  0  0  0  0  0
    2.7043   -1.3898    0.8221 N   0  0  0  0  0  0  0  0  0  0  0  0
   -1.4202    0.1540   -0.5753 C   0  0  0  0  0  0  0  0  0  0  0  0
   -1.6506   -1.3375   -0.6406 C   0  0  0  0  0  0  0  0  0  0  0  0
   -2.2706    0.9674   -0.8496 O   0  0  0  0  0  0  0  0  0  0  0  0
    0.9172    2.2768    0.9102 H   0  0  0  0  0  0  0  0  0  0  0  0
   -0.7215    2.6217    0.2975 H   0  0  0  0  0  0  0  0  0  0  0  0
   -0.5002    1.5779    1.7179 H   0  0  0  0  0  0  0  0  0  0  0  0
    0.4853    0.9172   -1.1128 H   0  0  0  0  0  0  0  0  0  0  0  0
    2.3898    0.2297   -0.4941 H   0  0  0  0  0  0  0  0  0  0  0  0
    3.6783   -1.3275    0.5337 H   0  0  0  0  0  0  0  0  0  0  0  0
   -0.9122   -1.8127   -1.2951 H   0  0  0  0  0  0  0  0  0  0  0  0
   -1.5075   -1.7830    0.3486 H   0  0  0  0  0  0  0  0  0  0  0  0
   -2.6600   -1.5305   -1.0044 H   0  0  0  0  0  0  0  0  0  0  0  0
  1  9  1  0  0  0  0
  1 11  1  0  0  0  0
  2 12  1  6  0  0  0
  2  3  1  0  0  0  0
  2  1  1  0  0  0  0
  4  3  1  0  0  0  0
  4  5  2  0  0  0  0
  6  2  1  0  0  0  0
  7  6  1  0  0  0  0
  7 16  1  0  0  0  0
  8  6  2  0  0  0  0
 10  1  1  0  0  0  0
 13  4  1  0  0  0  0
 14  5  1  0  0  0  0
 15  7  1  0  0  0  0
 17  7  1  0  0  0  0
M  END
