16
title
C -0.5250051 1.953314 -0.81967324
C 0.039129294 0.80655074 0.01140939
O -1.0232759 -0.10202944 0.32660317
C -1.0631405 -0.62426394 1.572173
N -1.8186265 -1.6039349 1.8145906
C 1.1788559 0.10024053 -0.7458135
N 0.9290041 -1.1856424 -1.0940373
O 2.2074451 0.6984092 -0.99553037
H 0.29251736 2.6101692 -1.1225685
H -1.0178536 1.565495 -1.7156659
H -1.2552121 2.5224714 -0.2393789
H 0.4797938 1.1984253 0.936719
H -0.4086699 -0.103532225 2.2843087
H -1.7621154 -1.8540783 2.7995703
H 0.03098101 -1.6035222 -0.9174019
H 1.6181518 -1.6792378 -1.6366643
