15
title
C -0.21803579 2.1321583 -0.6910307
C 0.06894288 0.6388465 -0.5903759
O 0.86531526 0.44305655 0.5741618
C 1.6129142 -0.68666893 0.64471143
O 2.2380595 -0.9665658 1.6207519
C -1.1574916 -0.3009711 -0.50411856
N -2.3139083 0.15693644 -1.0549513
O -1.044613 -1.4101416 -0.02394314
H 0.7237605 2.6846187 -0.66320336
H -0.7172182 2.3759274 -1.6338136
H -0.83591735 2.4716673 0.14488451
H 0.6309539 0.3144401 -1.479291
H 1.6010396 -1.2718612 -0.29000148
H -2.4497392 1.1208252 -1.30114
H -3.126035 -0.43542284 -0.982139
