title
 OpenBabel02282109583D

 17 16  0  0  0  0  0  0  0  0999 V2000
    0.5774    1.7801    0.0622 C   0  0  0  0  0  0  0  0  0  0  0  0
    0.3186    0.3756   -0.2053 N   0  0  0  0  0  0  0  0  0  0  0  0
    0.4023   -0.5164    0.9368 C   0  0  0  0  0  0  0  0  0  0  0  0
   -0.8066   -0.3973    1.8518 C   0  0  0  0  0  0  0  0  0  0  0  0
   -0.7660   -0.5071    3.0483 O   0  0  0  0  0  0  0  0  0  0  0  0
    0.1466   -0.1778   -1.4576 C   0  0  0  0  0  0  0  0  0  0  0  0
    0.1323    0.7684   -2.6486 C   0  0  0  0  0  0  0  0  0  0  0  0
    0.0042   -1.3793   -1.6067 O   0  0  0  0  0  0  0  0  0  0  0  0
    1.6238    1.9462    0.3536 H   0  0  0  0  0  0  0  0  0  0  0  0
    0.3619    2.3905   -0.8122 H   0  0  0  0  0  0  0  0  0  0  0  0
   -0.0566    2.1350    0.8830 H   0  0  0  0  0  0  0  0  0  0  0  0
    0.4211   -1.5386    0.5413 H   0  0  0  0  0  0  0  0  0  0  0  0
    1.3135   -0.3416    1.5204 H   0  0  0  0  0  0  0  0  0  0  0  0
   -1.7618   -0.2102    1.3079 H   0  0  0  0  0  0  0  0  0  0  0  0
    1.0717    1.3219   -2.7420 H   0  0  0  0  0  0  0  0  0  0  0  0
   -0.0128    0.1603   -3.5405 H   0  0  0  0  0  0  0  0  0  0  0  0
   -0.6810    1.4976   -2.5795 H   0  0  0  0  0  0  0  0  0  0  0  0
  1  9  1  0  0  0  0
  1 11  1  0  0  0  0
  2  1  1  0  0  0  0
  2  3  1  0  0  0  0
  3 13  1  0  0  0  0
  3  4  1  0  0  0  0
  4  5  2  0  0  0  0
  6  2  1  0  0  0  0
  7 17  1  0  0  0  0
  7  6  1  0  0  0  0
  8  6  2  0  0  0  0
 10  1  1  0  0  0  0
 12  3  1  0  0  0  0
 14  4  1  0  0  0  0
 15  7  1  0  0  0  0
 16  7  1  0  0  0  0
M  END
