15
title
N 1.2875352 2.010844 -0.4463101
C 1.3517463 0.66439694 -0.5583729
O 2.3959296 0.044234484 -0.6747709
C 0.018085668 -0.10369554 -0.5159728
O 0.26325172 -1.4340264 -0.87851465
C -0.61037415 -0.029693335 0.8973672
C -1.9125613 -0.8022282 0.9610824
O -2.9568567 -0.32781938 1.3306515
H 2.1418738 2.5427895 -0.48311535
H 0.4119491 2.503559 -0.4173606
H -0.6753878 0.3527387 -1.2392088
H 1.2347101 -1.5036308 -0.90553236
H 0.10013444 -0.4869459 1.5987102
H -0.8033759 1.0008175 1.2091595
H -1.8365592 -1.8579434 0.62972087
