18
title
C 0.1170525 2.8790486 1.5613611
N -0.22728276 1.4816134 1.4084166
C 0.115265794 0.91098744 0.32987526
N -0.1699419 -0.42607707 0.09071382
C -0.88532215 -1.159909 1.1354603
C 0.18588 -1.0967398 -1.0800806
C 0.92845637 -0.313258 -2.1513772
O -0.08758002 -2.268548 -1.240502
H 0.65474707 3.3051107 0.6981965
H -0.7934933 3.4675136 1.7238387
H 0.7406228 3.0096521 2.4534838
H 0.6504434 1.4178848 -0.47733906
H -1.8485409 -0.68274635 1.3306891
H -1.0234606 -2.1798992 0.78613913
H -0.30802083 -1.1421254 2.062821
H 1.884993 0.072537825 -1.7863277
H 1.113778 -1.001555 -2.9750564
H 0.3416819 0.5338542 -2.5189672
