title
 OpenBabel02282109583D

 18 17  0  0  0  0  0  0  0  0999 V2000
    0.1171    2.8790    1.5614 C   0  0  0  0  0  0  0  0  0  0  0  0
   -0.2273    1.4816    1.4084 N   0  0  0  0  0  0  0  0  0  0  0  0
    0.1153    0.9110    0.3299 C   0  0  0  0  0  0  0  0  0  0  0  0
   -0.1699   -0.4261    0.0907 N   0  0  0  0  0  0  0  0  0  0  0  0
   -0.8853   -1.1599    1.1355 C   0  0  0  0  0  0  0  0  0  0  0  0
    0.1859   -1.0967   -1.0801 C   0  0  0  0  0  0  0  0  0  0  0  0
    0.9285   -0.3133   -2.1514 C   0  0  0  0  0  0  0  0  0  0  0  0
   -0.0876   -2.2685   -1.2405 O   0  0  0  0  0  0  0  0  0  0  0  0
    0.6547    3.3051    0.6982 H   0  0  0  0  0  0  0  0  0  0  0  0
   -0.7935    3.4675    1.7238 H   0  0  0  0  0  0  0  0  0  0  0  0
    0.7406    3.0097    2.4535 H   0  0  0  0  0  0  0  0  0  0  0  0
    0.6504    1.4179   -0.4773 H   0  0  0  0  0  0  0  0  0  0  0  0
   -1.8485   -0.6827    1.3307 H   0  0  0  0  0  0  0  0  0  0  0  0
   -1.0235   -2.1799    0.7861 H   0  0  0  0  0  0  0  0  0  0  0  0
   -0.3080   -1.1421    2.0628 H   0  0  0  0  0  0  0  0  0  0  0  0
    1.8850    0.0725   -1.7863 H   0  0  0  0  0  0  0  0  0  0  0  0
    1.1138   -1.0016   -2.9751 H   0  0  0  0  0  0  0  0  0  0  0  0
    0.3417    0.5339   -2.5190 H   0  0  0  0  0  0  0  0  0  0  0  0
  1 10  1  0  0  0  0
  1 11  1  0  0  0  0
  2  1  1  0  0  0  0
  3  2  2  0  0  0  0
  4  3  1  0  0  0  0
  4  5  1  0  0  0  0
  5 13  1  0  0  0  0
  5 15  1  0  0  0  0
  6  4  1  0  0  0  0
  7 16  1  0  0  0  0
  7  6  1  0  0  0  0
  8  6  2  0  0  0  0
  9  1  1  0  0  0  0
 12  3  1  0  0  0  0
 14  5  1  0  0  0  0
 17  7  1  0  0  0  0
 18  7  1  0  0  0  0
M  END
