17
title
C -0.5528344 3.0474513 1.1312504
N -0.64381325 1.6019443 1.1586933
C -0.082683414 0.96723866 0.2173217
N -0.11032298 -0.42357898 0.13910425
C -0.82173425 -1.1854568 1.1576262
C 0.5439933 -1.0290205 -0.9394482
N 0.50531393 -2.4071105 -0.93418413
O 1.0703067 -0.39622355 -1.8350389
H 0.015452592 3.440977 0.2738843
H -1.5597312 3.4807227 1.1050043
H -0.07874659 3.4053707 2.0528703
H 0.46743223 1.4120278 -0.61446995
H -1.517236 -1.8914557 0.69530684
H -0.13100818 -1.7320187 1.8125529
H -1.374767 -0.471169 1.7664428
H 0.41163477 -2.9118311 -0.068684034
H 1.1187218 -2.8200624 -1.6187198
