18
title
C -1.3235612 2.395531 1.3030311
C -1.7253455 0.93134016 1.06982
N -0.9895682 0.34454265 -0.038538717
C 0.115632474 -0.25549543 0.19923863
N 0.7427594 -0.4880203 1.3953989
C 0.8714048 -0.8545648 -0.97617257
C 0.22201055 -0.77872276 -2.3340032
O 1.9566814 -1.3646402 -0.78594077
H -0.27247733 2.4809654 1.5988575
H -1.4577224 2.9744813 0.38516894
H -1.9370486 2.8444574 2.090447
H -1.6096117 0.35715377 2.0038512
H -2.7903981 0.8961589 0.8145972
H 0.54511684 0.09416164 2.1895518
H 1.6777176 -0.85972977 1.3117572
H -0.03168649 0.25646114 -2.5746608
H 0.89679474 -1.199018 -3.0803008
H -0.72440195 -1.3275361 -2.3247092
