title
 OpenBabel02282109583D

 16 15  0  0  0  0  0  0  0  0999 V2000
    1.1908    2.7061    0.0030 C   0  0  0  0  0  0  0  0  0  0  0  0
    1.2199    1.1979   -0.0053 C   0  0  0  0  0  0  0  0  0  0  0  0
    2.2302    0.5349   -0.0186 O   0  0  0  0  0  0  0  0  0  0  0  0
   -0.1599    0.4913    0.0044 C   0  0  0  0  0  0  0  0  0  0  0  0
   -1.1712    1.1573    0.0174 O   0  0  0  0  0  0  0  0  0  0  0  0
   -0.1398   -1.0164   -0.0040 C   0  0  0  0  0  0  0  0  0  0  0  0
   -1.5315   -1.6290    0.0060 C   0  0  0  0  0  0  0  0  0  0  0  0
   -1.3653   -3.0376   -0.0033 O   0  0  0  0  0  0  0  0  0  0  0  0
    2.2096    3.0935   -0.0055 H   0  0  0  0  0  0  0  0  0  0  0  0
    0.6331    3.0748   -0.8637 H   0  0  0  0  0  0  0  0  0  0  0  0
    0.6513    3.0655    0.8850 H   0  0  0  0  0  0  0  0  0  0  0  0
    0.4293   -1.3566   -0.8781 H   0  0  0  0  0  0  0  0  0  0  0  0
    0.4458   -1.3660    0.8555 H   0  0  0  0  0  0  0  0  0  0  0  0
   -2.0794   -1.2879    0.8966 H   0  0  0  0  0  0  0  0  0  0  0  0
   -2.0962   -1.2783   -0.8704 H   0  0  0  0  0  0  0  0  0  0  0  0
   -2.2378   -3.4417    0.0026 H   0  0  0  0  0  0  0  0  0  0  0  0
  1 11  1  0  0  0  0
  2  1  1  0  0  0  0
  2  4  1  0  0  0  0
  3  2  2  0  0  0  0
  4  5  2  0  0  0  0
  6  4  1  0  0  0  0
  6  7  1  0  0  0  0
  6 13  1  0  0  0  0
  7 14  1  0  0  0  0
  8 16  1  0  0  0  0
  8  7  1  0  0  0  0
  9  1  1  0  0  0  0
 10  1  1  0  0  0  0
 12  6  1  0  0  0  0
 15  7  1  0  0  0  0
M  END
