title
 OpenBabel02282109583D

 18 17  0  0  0  0  0  0  0  0999 V2000
   -0.7956    3.1710    1.3541 C   0  0  0  0  0  0  0  0  0  0  0  0
   -0.7918    1.6407    1.3758 C   0  0  0  0  0  0  0  0  0  0  0  0
   -0.0977    1.0400    0.1543 C   0  0  0  0  0  0  0  0  0  0  0  0
   -0.0785   -0.4712    0.1480 C   0  0  0  0  0  0  0  0  0  0  0  0
   -0.5604   -1.1632    1.0159 O   0  0  0  0  0  0  0  0  0  0  0  0
    0.6123   -1.1453   -1.0661 C   0  0  0  0  0  0  0  0  0  0  0  0
    0.6283   -2.6538   -1.0654 C   0  0  0  0  0  0  0  0  0  0  0  0
    1.0954   -0.4601   -1.9372 O   0  0  0  0  0  0  0  0  0  0  0  0
    0.2240    3.5721    1.3366 H   0  0  0  0  0  0  0  0  0  0  0  0
   -1.3156    3.5559    0.4698 H   0  0  0  0  0  0  0  0  0  0  0  0
   -1.2973    3.5765    2.2378 H   0  0  0  0  0  0  0  0  0  0  0  0
   -0.2976    1.2772    2.2837 H   0  0  0  0  0  0  0  0  0  0  0  0
   -1.8184    1.2613    1.4274 H   0  0  0  0  0  0  0  0  0  0  0  0
   -0.5656    1.3707   -0.7832 H   0  0  0  0  0  0  0  0  0  0  0  0
    0.9412    1.3863    0.0652 H   0  0  0  0  0  0  0  0  0  0  0  0
   -0.3950   -3.0396   -1.0185 H   0  0  0  0  0  0  0  0  0  0  0  0
    1.1329   -3.0174   -1.9606 H   0  0  0  0  0  0  0  0  0  0  0  0
    1.1313   -3.0226   -0.1658 H   0  0  0  0  0  0  0  0  0  0  0  0
  1  2  1  0  0  0  0
  1 11  1  0  0  0  0
  2 13  1  0  0  0  0
  2 12  1  0  0  0  0
  3  2  1  0  0  0  0
  4  3  1  0  0  0  0
  4  5  2  0  0  0  0
  6  7  1  0  0  0  0
  6  4  1  0  0  0  0
  7 16  1  0  0  0  0
  7 18  1  0  0  0  0
  8  6  2  0  0  0  0
  9  1  1  0  0  0  0
 10  1  1  0  0  0  0
 14  3  1  0  0  0  0
 15  3  1  0  0  0  0
 17  7  1  0  0  0  0
M  END
