18
title
C -0.8500508 2.8854966 1.4385873
C -0.7127196 1.3735987 1.5813586
N -0.19250657 0.78715414 0.3633905
C -0.05481155 -0.5476421 0.19050092
N -0.41472512 -1.3968234 1.087226
C 0.56408775 -0.88758254 -1.1664332
C 0.74460506 -2.3473775 -1.5197049
O 0.8962828 0.0033090303 -1.9179934
H 0.118495576 3.3532054 1.2301071
H -1.5363791 3.1449187 0.6259206
H -1.2391158 3.3203828 2.3628523
H -0.05583776 1.1228642 2.4260046
H -1.6817185 0.9130002 1.8090703
H 0.16876464 1.368616 -0.37650925
H -0.24778773 -2.348483 0.7718576
H -0.21630932 -2.8720994 -1.5013136
H 1.1823634 -2.4190001 -2.515353
H 1.400317 -2.8418016 -0.7952115
