title
 OpenBabel02282109583D

 18 17  0  0  0  0  0  0  0  0999 V2000
   -0.8501    2.8855    1.4386 C   0  0  0  0  0  0  0  0  0  0  0  0
   -0.7127    1.3736    1.5814 C   0  0  0  0  0  0  0  0  0  0  0  0
   -0.1925    0.7872    0.3634 N   0  0  0  0  0  0  0  0  0  0  0  0
   -0.0548   -0.5476    0.1905 C   0  0  0  0  0  0  0  0  0  0  0  0
   -0.4147   -1.3968    1.0872 N   0  0  0  0  0  0  0  0  0  0  0  0
    0.5641   -0.8876   -1.1664 C   0  0  0  0  0  0  0  0  0  0  0  0
    0.7446   -2.3474   -1.5197 C   0  0  0  0  0  0  0  0  0  0  0  0
    0.8963    0.0033   -1.9180 O   0  0  0  0  0  0  0  0  0  0  0  0
    0.1185    3.3532    1.2301 H   0  0  0  0  0  0  0  0  0  0  0  0
   -1.5364    3.1449    0.6259 H   0  0  0  0  0  0  0  0  0  0  0  0
   -1.2391    3.3204    2.3629 H   0  0  0  0  0  0  0  0  0  0  0  0
   -0.0558    1.1229    2.4260 H   0  0  0  0  0  0  0  0  0  0  0  0
   -1.6817    0.9130    1.8091 H   0  0  0  0  0  0  0  0  0  0  0  0
    0.1688    1.3686   -0.3765 H   0  0  0  0  0  0  0  0  0  0  0  0
   -0.2478   -2.3485    0.7719 H   0  0  0  0  0  0  0  0  0  0  0  0
   -0.2163   -2.8721   -1.5013 H   0  0  0  0  0  0  0  0  0  0  0  0
    1.1824   -2.4190   -2.5154 H   0  0  0  0  0  0  0  0  0  0  0  0
    1.4003   -2.8418   -0.7952 H   0  0  0  0  0  0  0  0  0  0  0  0
  1  2  1  0  0  0  0
  1 11  1  0  0  0  0
  2 13  1  0  0  0  0
  2 12  1  0  0  0  0
  3  2  1  0  0  0  0
  4  3  1  0  0  0  0
  4  5  2  0  0  0  0
  6  4  1  0  0  0  0
  7 16  1  0  0  0  0
  7  6  1  0  0  0  0
  7 18  1  0  0  0  0
  8  6  2  0  0  0  0
  9  1  1  0  0  0  0
 10  1  1  0  0  0  0
 14  3  1  0  0  0  0
 15  5  1  0  0  0  0
 17  7  1  0  0  0  0
M  END
