16
title
C -0.8393391 2.9186964 1.3533702
C -0.8300583 1.4039216 1.5271125
N -0.1891597 0.7568335 0.39082044
C -0.08005495 -0.52311856 0.15221255
N -0.5269743 -1.5158751 0.88701665
H -0.30569243 -2.4168782 0.46079254
H -1.0217147 -1.4349546 1.7597873
C 0.6760054 -0.9272981 -1.1771849
O 1.0653576 0.06406124 -1.8070039
O 0.72958606 -2.1536958 -1.3260354
H 0.1799969 3.3084123 1.2749159
H -1.3893882 3.2049584 0.45232075
H -1.3192679 3.3928914 2.21262
H -0.29805934 1.129603 2.4479206
H -1.8570582 1.0259348 1.6187438
H 0.26391608 1.2800666 -0.36570007
