16
title
C -1.2158 2.694385 1.2409602
C -0.5504134 1.3908451 1.6867292
N 0.16545643 0.733293 0.60865855
C -0.17241524 -0.46589264 0.10424586
O -1.0917381 -1.1840538 0.47151285
C 0.767823 -0.87753993 -1.0517842
N 0.43326476 -2.0817337 -1.5496253
O 1.6829145 -0.16446468 -1.4278232
H -0.47693127 3.4077916 0.860759
H -1.9466943 2.5069346 0.44928807
H -1.7318352 3.1635828 2.0842178
H 0.14291252 1.5849541 2.5145144
H -1.2957586 0.67431897 2.0400748
H 0.9569093 1.1741682 0.15734644
H -0.35442176 -2.557258 -1.1368982
H 0.95386124 -2.4834323 -2.310043
