title
 OpenBabel02282109583D

 17 16  0  0  1  0  0  0  0  0999 V2000
   -1.7972    2.6218   -0.5916 C   0  0  0  0  0  0  0  0  0  0  0  0
   -0.8878    1.5478   -1.1554 C   0  0  0  0  0  0  0  0  0  0  0  0
   -0.4931    0.6917   -0.0673 O   0  0  0  0  0  0  0  0  0  0  0  0
    0.3220   -0.3280   -0.3785 C   0  0  1  0  0  0  0  0  0  0  0  0
    0.7442   -0.5606   -1.5500 N   0  0  0  0  0  0  0  0  0  0  0  0
    0.6838   -1.1780    0.8419 C   0  0  0  0  0  0  0  0  0  0  0  0
    0.1078   -0.7843    2.1789 C   0  0  0  0  0  0  0  0  0  0  0  0
    1.4147   -2.1275    0.6828 O   0  0  0  0  0  0  0  0  0  0  0  0
   -1.2794    3.2155    0.1671 H   0  0  0  0  0  0  0  0  0  0  0  0
   -2.1176    3.2931   -1.3937 H   0  0  0  0  0  0  0  0  0  0  0  0
   -2.6884    2.1813   -0.1355 H   0  0  0  0  0  0  0  0  0  0  0  0
   -1.3864    0.9394   -1.9172 H   0  0  0  0  0  0  0  0  0  0  0  0
    0.0128    1.9664   -1.6167 H   0  0  0  0  0  0  0  0  0  0  0  0
    1.3428   -1.3885   -1.5080 H   0  0  0  0  0  0  0  0  0  0  0  0
    0.4526   -1.4789    2.9451 H   0  0  0  0  0  0  0  0  0  0  0  0
    0.4055    0.2389    2.4294 H   0  0  0  0  0  0  0  0  0  0  0  0
   -0.9858   -0.7813    2.1305 H   0  0  0  0  0  0  0  0  0  0  0  0
  1 11  1  0  0  0  0
  1  9  1  0  0  0  0
  2  1  1  0  0  0  0
  2  3  1  0  0  0  0
  4  5  1  1  0  0  0
  4  3  1  0  0  0  0
  4  6  1  0  0  0  0
  5 14  1  0  0  0  0
  6  7  1  0  0  0  0
  7 16  1  0  0  0  0
  7 15  1  0  0  0  0
  8  6  2  0  0  0  0
 10  1  1  0  0  0  0
 12  2  1  0  0  0  0
 13  2  1  0  0  0  0
 17  7  1  0  0  0  0
M  RAD  2   4   2   5   2
M  END
