17
title
C -1.7972306 2.6218135 -0.59158415
C -0.88780653 1.5477875 -1.1554152
O -0.49314192 0.6916678 -0.0672828
C 0.3219603 -0.32795897 -0.37848955
N 0.74423313 -0.56056625 -1.550048
C 0.68381274 -1.1780479 0.8419055
C 0.10778484 -0.7843049 2.1789024
O 1.4147314 -2.127486 0.6828271
H -1.2793504 3.2154973 0.16711652
H -2.117634 3.2930753 -1.3937107
H -2.6884243 2.1812575 -0.13554597
H -1.3864422 0.93937683 -1.9172307
H 0.012826953 1.9664259 -1.616683
H 1.342785 -1.3884513 -1.5079896
H 0.45259115 -1.4789109 2.9450853
H 0.40549096 0.23892495 2.429395
H -0.9858343 -0.78131944 2.130507
