title
 OpenBabel02282109583D

 16 15  0  0  1  0  0  0  0  0999 V2000
    1.4827    2.6977    1.0390 C   0  0  0  0  0  0  0  0  0  0  0  0
    1.5170    1.5005    0.1095 C   0  0  0  0  0  0  0  0  0  0  0  0
    0.3200    0.7326    0.3376 O   0  0  0  0  0  0  0  0  0  0  0  0
    0.1739   -0.3808   -0.4057 C   0  0  2  0  0  0  0  0  0  0  0  0
    1.0154   -0.7663   -1.2663 N   0  0  0  0  0  0  0  0  0  0  0  0
   -1.1198   -1.1347   -0.1016 C   0  0  0  0  0  0  0  0  0  0  0  0
   -1.8985   -0.5735    0.8525 N   0  0  0  0  0  0  0  0  0  0  0  0
   -1.3814   -2.1592   -0.7013 O   0  0  0  0  0  0  0  0  0  0  0  0
    2.3802    3.3054    0.8914 H   0  0  0  0  0  0  0  0  0  0  0  0
    0.6083    3.3243    0.8402 H   0  0  0  0  0  0  0  0  0  0  0  0
    1.4516    2.3816    2.0858 H   0  0  0  0  0  0  0  0  0  0  0  0
    1.5481    1.7942   -0.9447 H   0  0  0  0  0  0  0  0  0  0  0  0
    2.3843    0.8578    0.2921 H   0  0  0  0  0  0  0  0  0  0  0  0
    0.6587   -1.6311   -1.6796 H   0  0  0  0  0  0  0  0  0  0  0  0
   -1.6170    0.2805    1.3010 H   0  0  0  0  0  0  0  0  0  0  0  0
   -2.7676   -1.0178    1.0965 H   0  0  0  0  0  0  0  0  0  0  0  0
  1 11  1  0  0  0  0
  2 13  1  0  0  0  0
  2  3  1  0  0  0  0
  2  1  1  0  0  0  0
  4  5  1  6  0  0  0
  4  6  1  0  0  0  0
  4  3  1  0  0  0  0
  6  7  1  0  0  0  0
  7 16  1  0  0  0  0
  7 15  1  0  0  0  0
  8  6  2  0  0  0  0
  9  1  1  0  0  0  0
 10  1  1  0  0  0  0
 12  2  1  0  0  0  0
 14  5  1  0  0  0  0
M  RAD  2   4   2   5   2
M  END
