16
title
C 1.4827167 2.6977108 1.0390362
C 1.5169795 1.5004538 0.10950567
O 0.319972 0.7326175 0.3375833
C 0.1739267 -0.38075766 -0.4057059
N 1.0153545 -0.7662963 -1.266311
C -1.1197908 -1.1347375 -0.10161307
N -1.8984728 -0.5735025 0.85246265
O -1.3814347 -2.1592202 -0.7012783
H 2.3801825 3.3054383 0.8914154
H 0.6083467 3.3243291 0.84024477
H 1.4515854 2.381556 2.0858157
H 1.5480667 1.7941577 -0.9446943
H 2.3842864 0.85779685 0.29205963
H 0.65865886 -1.631113 -1.679607
H -1.6170464 0.28051534 1.3010216
H -2.7676485 -1.0178027 1.0964862
