title
 OpenBabel02282109583D

 15 14  0  0  0  0  0  0  0  0999 V2000
   -0.8076    2.8589    1.3821 C   0  0  0  0  0  0  0  0  0  0  0  0
   -0.8286    1.3457    1.4554 C   0  0  0  0  0  0  0  0  0  0  0  0
   -0.1637    0.8426    0.2738 O   0  0  0  0  0  0  0  0  0  0  0  0
   -0.0881   -0.4762    0.1688 C   0  0  0  0  0  0  0  0  0  0  0  0
   -0.5235   -1.2730    0.9685 O   0  0  0  0  0  0  0  0  0  0  0  0
    0.6412   -0.9000   -1.1283 C   0  0  0  0  0  0  0  0  0  0  0  0
    0.6992   -2.2497   -1.2145 N   0  0  0  0  0  0  0  0  0  0  0  0
    1.0842   -0.1107   -1.9318 O   0  0  0  0  0  0  0  0  0  0  0  0
    0.2190    3.2334    1.3510 H   0  0  0  0  0  0  0  0  0  0  0  0
   -1.3305    3.2134    0.4900 H   0  0  0  0  0  0  0  0  0  0  0  0
   -1.3028    3.2769    2.2636 H   0  0  0  0  0  0  0  0  0  0  0  0
   -0.3046    0.9650    2.3378 H   0  0  0  0  0  0  0  0  0  0  0  0
   -1.8468    0.9448    1.4786 H   0  0  0  0  0  0  0  0  0  0  0  0
    0.3005   -2.8075   -0.4775 H   0  0  0  0  0  0  0  0  0  0  0  0
    1.1528   -2.6772   -2.0035 H   0  0  0  0  0  0  0  0  0  0  0  0
  1  2  1  0  0  0  0
  1 11  1  0  0  0  0
  2 13  1  0  0  0  0
  2 12  1  0  0  0  0
  3  2  1  0  0  0  0
  4  3  1  0  0  0  0
  4  5  2  0  0  0  0
  6  4  1  0  0  0  0
  7  6  1  0  0  0  0
  7 14  1  0  0  0  0
  8  6  2  0  0  0  0
  9  1  1  0  0  0  0
 10  1  1  0  0  0  0
 15  7  1  0  0  0  0
M  END
