15
title
C -1.0865735 2.8534188 -1.1763287
N -0.1797773 1.6831806 -1.1250257
H -0.6192832 0.7742759 -1.5697044
H 0.69411117 1.8793815 -1.6089699
C 0.09791079 1.079412 0.21755546
C -0.19132611 -0.4307583 -0.0015838795
O -0.7558248 -0.6842907 -1.0715894
C 0.5009528 -1.4014852 0.9654929
O -0.056718614 -2.108441 1.7816476
O 1.6900089 -1.1900289 0.603074
H -0.65371925 3.6897721 -0.6250769
H -1.2483982 3.137769 -2.2177584
H -2.038866 2.5694883 -0.7264525
H 1.1252345 1.2410967 0.53101367
H -0.5969055 1.5035766 0.9468536
