15
title
C -0.674641 3.034837 1.1395808
O -0.6843134 1.6253707 1.1815435
C -0.054939415 1.050385 0.07884185
C -0.10202708 -0.45782363 0.18876229
O -0.6101179 -1.0654687 1.0985923
C 0.5709123 -1.1991051 -0.988772
N 0.50491184 -2.5396 -0.84971076
O 1.0860115 -0.59239805 -1.9098247
H 0.3507785 3.4359624 1.1314468
H -1.2017844 3.4204679 0.25309336
H -1.1863644 3.386662 2.0378864
H -0.5237661 1.3367215 -0.8792582
H 1.0033345 1.3518995 -0.015552831
H 0.04918543 -2.9194932 -0.03533442
H 0.9068468 -3.1413379 -1.5481032
