15
title
N 1.1423405 2.5193567 0.0021382845
C 1.2318764 1.1716019 -0.005862877
O 2.257632 0.5190536 -0.019341568
C -0.16176496 0.49574587 0.004030991
O -1.1656252 1.1754067 0.016990803
C -0.15673123 -1.007753 -0.0035407066
C -1.5525352 -1.6108972 0.0066966196
O -1.395872 -3.0205915 -0.0018504956
H 1.976884 3.0803359 -0.002654656
H 0.22946723 2.9447784 0.0136854965
H 0.4131932 -1.349543 -0.8764198
H 0.42963353 -1.3581921 0.8548989
H -2.0981433 -1.2660335 0.89733547
H -2.1149352 -1.2571822 -0.8699152
H -2.2709544 -3.4189312 0.004262281
