title
 OpenBabel02282109583D

 18 17  0  0  1  0  0  0  0  0999 V2000
    1.6681    1.8774   -0.0189 C   0  0  0  0  0  0  0  0  0  0  0  0
    1.6184    0.3859    0.3400 C   0  0  1  0  0  0  0  0  0  0  0  0
    2.2391    0.1625    1.5768 O   0  0  0  0  0  0  0  0  0  0  0  0
    0.1873   -0.1618    0.3741 C   0  0  0  0  0  0  0  0  0  0  0  0
   -0.2085   -0.7024    1.3884 O   0  0  0  0  0  0  0  0  0  0  0  0
   -0.6752   -0.0263   -0.8593 C   0  0  0  0  0  0  0  0  0  0  0  0
   -1.9585   -0.8435   -0.7920 C   0  0  0  0  0  0  0  0  0  0  0  0
   -2.6640   -0.6010   -1.9992 O   0  0  0  0  0  0  0  0  0  0  0  0
    2.7045    2.2186    0.0375 H   0  0  0  0  0  0  0  0  0  0  0  0
    1.2980    2.0639   -1.0312 H   0  0  0  0  0  0  0  0  0  0  0  0
    1.0780    2.4636    0.6922 H   0  0  0  0  0  0  0  0  0  0  0  0
    2.1422   -0.1778   -0.4538 H   0  0  0  0  0  0  0  0  0  0  0  0
    1.5831   -0.3193    2.1069 H   0  0  0  0  0  0  0  0  0  0  0  0
   -0.9268    1.0339   -0.9950 H   0  0  0  0  0  0  0  0  0  0  0  0
   -0.0940   -0.3034   -1.7474 H   0  0  0  0  0  0  0  0  0  0  0  0
   -1.7135   -1.9089   -0.6701 H   0  0  0  0  0  0  0  0  0  0  0  0
   -2.5393   -0.5432    0.0905 H   0  0  0  0  0  0  0  0  0  0  0  0
   -3.4874   -1.0966   -1.9692 H   0  0  0  0  0  0  0  0  0  0  0  0
  1  9  1  0  0  0  0
  1  2  1  0  0  0  0
  1 11  1  0  0  0  0
  2 12  1  6  0  0  0
  2  4  1  0  0  0  0
  2  3  1  0  0  0  0
  3 13  1  0  0  0  0
  4  5  2  0  0  0  0
  6  7  1  0  0  0  0
  6  4  1  0  0  0  0
  7 16  1  0  0  0  0
  7 17  1  0  0  0  0
  8 18  1  0  0  0  0
  8  7  1  0  0  0  0
 10  1  1  0  0  0  0
 14  6  1  0  0  0  0
 15  6  1  0  0  0  0
M  END
