18
title
C 1.6680734 1.8774444 -0.018941486
C 1.618391 0.38594887 0.3400358
O 2.239055 0.16249411 1.5767803
C 0.18729712 -0.16176584 0.37413213
O -0.20853768 -0.7023743 1.3883563
C -0.675189 -0.026306568 -0.8592823
C -1.9585464 -0.84351295 -0.7920295
O -2.663978 -0.60103416 -1.9991654
H 2.7044873 2.2186124 0.037527688
H 1.2980362 2.063855 -1.031185
H 1.077951 2.4635532 0.6921741
H 2.142247 -0.17781118 -0.45377114
H 1.5830886 -0.31925794 2.1068702
H -0.9267585 1.0338778 -0.9950182
H -0.094042525 -0.30340818 -1.7474144
H -1.7134709 -1.908891 -0.6700507
H -2.5392885 -0.5431671 0.09052241
H -3.4874249 -1.0965661 -1.9691755
