22
title
C 1.3732284 3.3155646 -0.17808962
C 1.4303247 1.7944506 -0.019381609
C 0.06910566 1.1269946 -0.21020687
C 0.09374265 -0.39052972 -0.0985541
O 1.1297019 -1.0109926 -0.00736281
C -1.2655772 -1.0995637 -0.079376504
C -1.2040604 -2.4275532 -0.84128696
C -1.6752516 -1.3140036 1.3925214
H 2.361006 3.7647886 -0.03669704
H 1.0189556 3.600187 -1.175442
H 0.69478166 3.7695668 0.55329347
H 2.1379952 1.363597 -0.73507833
H 1.8191421 1.5336759 0.9713763
H -0.67106086 1.5160489 0.50389165
H -0.34868917 1.3683281 -1.2001426
H -2.0058851 -0.4377652 -0.5465186
H -0.41243288 -3.0590954 -0.43066773
H -2.156448 -2.9611964 -0.7650151
H -0.9870966 -2.2692392 -1.9022682
H -1.7302893 -0.36992583 1.9444348
H -2.65799 -1.7920765 1.4479151
H -0.95016867 -1.9599298 1.8973738
