20
title
C -0.6848983 3.2878945 -1.2802995
C -0.5010575 1.7743645 -1.4111763
C -0.097047925 1.1157616 -0.08990819
C 0.038140234 -0.39136475 -0.17023797
O -0.38796192 -1.0363064 -1.107052
C 0.7506175 -1.1315022 0.9684834
C 0.11214262 -0.85841745 2.3374171
O 0.76133525 -2.508082 0.7040977
H 0.23828608 3.7768164 -0.94923204
H -0.97120506 3.733586 -2.237542
H -1.4667879 3.5328903 -0.5525912
H -1.4236258 1.3080131 -1.7702739
H 0.2591219 1.5521076 -2.1686208
H 0.842203 1.5349908 0.29535395
H -0.8446083 1.3327509 0.687519
H 1.7852108 -0.7417523 0.9861383
H -0.9438254 -1.1455102 2.3323398
H 0.6238289 -1.460855 3.0918207
H 0.19558805 0.19446701 2.6219788
H 0.33264214 -2.6015744 -0.16265292
