title
 OpenBabel02282109583D

 19 18  0  0  1  0  0  0  0  0999 V2000
    1.6695    2.7069   -0.3139 C   0  0  0  0  0  0  0  0  0  0  0  0
    1.5547    1.5739    0.7073 C   0  0  0  0  0  0  0  0  0  0  0  0
    0.2759    0.8791    0.6411 N   0  0  0  0  0  0  0  0  0  0  0  0
    0.1377   -0.3876    0.1835 C   0  0  0  0  0  0  0  0  0  0  0  0
    1.0741   -1.0858   -0.1834 O   0  0  0  0  0  0  0  0  0  0  0  0
   -1.2941   -0.9530    0.1371 C   0  0  1  0  0  0  0  0  0  0  0  0
   -2.1518   -0.2335   -0.9147 C   0  0  0  0  0  0  0  0  0  0  0  0
   -1.2166   -2.3244   -0.1456 O   0  0  0  0  0  0  0  0  0  0  0  0
    2.6405    3.2035   -0.2223 H   0  0  0  0  0  0  0  0  0  0  0  0
    1.5744    2.3209   -1.3328 H   0  0  0  0  0  0  0  0  0  0  0  0
    0.8917    3.4632   -0.1613 H   0  0  0  0  0  0  0  0  0  0  0  0
    2.3197    0.8154    0.5305 H   0  0  0  0  0  0  0  0  0  0  0  0
    1.6973    1.9614    1.7232 H   0  0  0  0  0  0  0  0  0  0  0  0
   -0.5546    1.3780    0.9183 H   0  0  0  0  0  0  0  0  0  0  0  0
   -1.7516   -0.8096    1.1297 H   0  0  0  0  0  0  0  0  0  0  0  0
   -1.6802   -0.3051   -1.8993 H   0  0  0  0  0  0  0  0  0  0  0  0
   -3.1315   -0.7149   -0.9676 H   0  0  0  0  0  0  0  0  0  0  0  0
   -2.3008    0.8247   -0.6737 H   0  0  0  0  0  0  0  0  0  0  0  0
   -0.2755   -2.4786   -0.3401 H   0  0  0  0  0  0  0  0  0  0  0  0
  1  9  1  0  0  0  0
  1 11  1  0  0  0  0
  1  2  1  0  0  0  0
  2 13  1  0  0  0  0
  3  2  1  0  0  0  0
  3 14  1  0  0  0  0
  4  3  1  0  0  0  0
  5  4  2  0  0  0  0
  6  4  1  0  0  0  0
  6 15  1  1  0  0  0
  7 18  1  0  0  0  0
  7  6  1  0  0  0  0
  8  6  1  0  0  0  0
 10  1  1  0  0  0  0
 12  2  1  0  0  0  0
 16  7  1  0  0  0  0
 17  7  1  0  0  0  0
 19  8  1  0  0  0  0
M  END
