title
 OpenBabel02282109583D

 20 19  0  0  0  0  0  0  0  0999 V2000
   -1.0016    2.8214    1.4929 C   0  0  0  0  0  0  0  0  0  0  0  0
   -0.6115    1.3507    1.6058 C   0  0  0  0  0  0  0  0  0  0  0  0
   -0.0982    0.8504    0.3367 N   0  0  0  0  0  0  0  0  0  0  0  0
   -0.0744   -0.5162    0.1127 C   0  0  0  0  0  0  0  0  0  0  0  0
   -0.5906   -1.3079    0.8886 O   0  0  0  0  0  0  0  0  0  0  0  0
    0.5325   -0.9114   -1.0650 N   0  0  0  0  0  0  0  0  0  0  0  0
    0.7465   -2.3277   -1.2945 C   0  0  0  0  0  0  0  0  0  0  0  0
    1.0582    0.0131   -2.0467 C   0  0  0  0  0  0  0  0  0  0  0  0
   -0.1399    3.4478    1.2322 H   0  0  0  0  0  0  0  0  0  0  0  0
   -1.7680    2.9652    0.7255 H   0  0  0  0  0  0  0  0  0  0  0  0
   -1.3935    3.1853    2.4472 H   0  0  0  0  0  0  0  0  0  0  0  0
    0.1220    1.2145    2.4147 H   0  0  0  0  0  0  0  0  0  0  0  0
   -1.4730    0.7328    1.8644 H   0  0  0  0  0  0  0  0  0  0  0  0
    0.6299    1.4060   -0.0829 H   0  0  0  0  0  0  0  0  0  0  0  0
    0.3011   -2.6391   -2.2479 H   0  0  0  0  0  0  0  0  0  0  0  0
    1.8173   -2.5731   -1.3219 H   0  0  0  0  0  0  0  0  0  0  0  0
    0.2729   -2.8757   -0.4817 H   0  0  0  0  0  0  0  0  0  0  0  0
    2.0897    0.3369   -1.8334 H   0  0  0  0  0  0  0  0  0  0  0  0
    1.0652   -0.4730   -3.0269 H   0  0  0  0  0  0  0  0  0  0  0  0
    0.4209    0.8980   -2.1261 H   0  0  0  0  0  0  0  0  0  0  0  0
  1  2  1  0  0  0  0
  1 11  1  0  0  0  0
  2 13  1  0  0  0  0
  2 12  1  0  0  0  0
  3  2  1  0  0  0  0
  4  3  1  0  0  0  0
  4  5  2  0  0  0  0
  6  4  1  0  0  0  0
  7  6  1  0  0  0  0
  7 17  1  0  0  0  0
  8 18  1  0  0  0  0
  8  6  1  0  0  0  0
  9  1  1  0  0  0  0
 10  1  1  0  0  0  0
 14  3  1  0  0  0  0
 15  7  1  0  0  0  0
 16  7  1  0  0  0  0
 19  8  1  0  0  0  0
 20  8  1  0  0  0  0
M  END
