title
 OpenBabel02282109583D

 20 19  0  0  0  0  0  0  0  0999 V2000
   -2.0573    2.4347    0.8919 C   0  0  0  0  0  0  0  0  0  0  0  0
   -1.0410    1.3771    1.2773 C   0  0  0  0  0  0  0  0  0  0  0  0
   -0.5409    0.7880    0.0610 O   0  0  0  0  0  0  0  0  0  0  0  0
    0.3821   -0.1854    0.2126 C   0  0  0  0  0  0  0  0  0  0  0  0
    0.7947   -0.5483    1.2865 O   0  0  0  0  0  0  0  0  0  0  0  0
    0.7911   -0.7593   -1.1361 C   0  0  0  0  0  0  0  0  0  0  0  0
    2.1177   -1.5133   -1.0255 C   0  0  0  0  0  0  0  0  0  0  0  0
   -0.3427   -1.6574   -1.6710 C   0  0  0  0  0  0  0  0  0  0  0  0
   -1.5984    3.2100    0.2719 H   0  0  0  0  0  0  0  0  0  0  0  0
   -2.8872    1.9939    0.3322 H   0  0  0  0  0  0  0  0  0  0  0  0
   -2.4615    2.9075    1.7920 H   0  0  0  0  0  0  0  0  0  0  0  0
   -0.2010    1.8000    1.8374 H   0  0  0  0  0  0  0  0  0  0  0  0
   -1.4821    0.5906    1.8980 H   0  0  0  0  0  0  0  0  0  0  0  0
    0.8980    0.0888   -1.8225 H   0  0  0  0  0  0  0  0  0  0  0  0
    2.9220   -0.8576   -0.6808 H   0  0  0  0  0  0  0  0  0  0  0  0
    2.0346   -2.3353   -0.3097 H   0  0  0  0  0  0  0  0  0  0  0  0
    2.4022   -1.9248   -1.9986 H   0  0  0  0  0  0  0  0  0  0  0  0
   -1.2800   -1.1020   -1.7549 H   0  0  0  0  0  0  0  0  0  0  0  0
   -0.0815   -2.0454   -2.6600 H   0  0  0  0  0  0  0  0  0  0  0  0
   -0.5059   -2.5122   -1.0060 H   0  0  0  0  0  0  0  0  0  0  0  0
  1  2  1  0  0  0  0
  1 11  1  0  0  0  0
  2 12  1  0  0  0  0
  2 13  1  0  0  0  0
  3  4  1  0  0  0  0
  3  2  1  0  0  0  0
  4  5  2  0  0  0  0
  6  7  1  0  0  0  0
  6  4  1  0  0  0  0
  7 15  1  0  0  0  0
  7 16  1  0  0  0  0
  8  6  1  0  0  0  0
  8 20  1  0  0  0  0
  9  1  1  0  0  0  0
 10  1  1  0  0  0  0
 14  6  1  0  0  0  0
 17  7  1  0  0  0  0
 18  8  1  0  0  0  0
 19  8  1  0  0  0  0
M  END
