20
title
C -2.0573423 2.434701 0.8919298
C -1.0409718 1.377054 1.2772512
O -0.5408921 0.788022 0.06098731
C 0.3821046 -0.18541588 0.21263273
O 0.794732 -0.5482763 1.2865114
C 0.79106057 -0.75929797 -1.1361251
C 2.1177409 -1.5133017 -1.0254598
C -0.34265485 -1.6574324 -1.6709704
H -1.5984094 3.2099843 0.2718818
H -2.8871815 1.9939047 0.33220014
H -2.4614625 2.9075024 1.7920135
H -0.20099927 1.8000028 1.8373977
H -1.4820932 0.59059393 1.8979923
H 0.8979589 0.088791944 -1.8224654
H 2.921975 -0.85756266 -0.68079907
H 2.034568 -2.3353393 -0.3096874
H 2.402176 -1.9247757 -1.998632
H -1.2800227 -1.1020039 -1.7549012
H -0.08146968 -2.04544 -2.6600091
H -0.5058928 -2.5122006 -1.0059583
