19
title
C -1.0421752 2.9224362 1.2055372
C -0.95353 1.4145414 1.33782
O -0.32241935 0.906204 0.14390092
C -0.15462947 -0.4281785 0.08531205
O -0.5111082 -1.1902295 0.9506211
C 0.5624512 -0.84600884 -1.2032372
C 2.0523503 -0.4840197 -1.0940074
N 0.41154474 -2.2638645 -1.5066766
H -0.04722858 3.3653378 1.1054968
H -1.6333172 3.2037733 0.32950872
H -1.5199207 3.3456056 2.0941694
H -0.36136645 1.1121813 2.2072895
H -1.9404062 0.95203894 1.4386961
H 0.12649006 -0.2651878 -2.023709
H 2.5609846 -0.756929 -2.0211823
H 2.183922 0.5846107 -0.9085975
H 2.5209708 -1.0369412 -0.27222258
H 0.65813035 -2.794275 -0.67333347
H -0.5716796 -2.4716625 -1.6610183
