18
title
C 1.4455285 2.9899738 0.21017687
C 1.5784155 1.4803209 0.20093861
O 0.24362382 0.9241023 0.15492171
C 0.1604372 -0.408019 0.14823067
O 1.1110848 -1.1568029 0.17942068
C -1.2790939 -0.91004246 0.09831005
C -1.9890653 -0.4539066 -1.1831049
O -1.2802974 -2.3120687 0.2014219
H 2.4386704 3.4473085 0.24410419
H 0.93407285 3.342895 -0.6895934
H 0.8804892 3.3274446 1.0833901
H 2.1375196 1.1202266 -0.66792196
H 2.081923 1.1041319 1.096512
H -1.801082 -0.4732496 0.96404946
H -1.4615463 -0.83049554 -2.064747
H -3.0029037 -0.8612203 -1.1925392
H -2.0420837 0.63638514 -1.2359886
H -0.34784725 -2.5751717 0.22014578
