title
 OpenBabel02282109583D

 19 18  0  0  0  0  0  0  0  0999 V2000
   -0.7583    2.8455    1.3720 C   0  0  0  0  0  0  0  0  0  0  0  0
   -0.7675    1.3304    1.4469 C   0  0  0  0  0  0  0  0  0  0  0  0
   -0.1436    0.8357    0.2506 O   0  0  0  0  0  0  0  0  0  0  0  0
   -0.0731   -0.5176    0.1611 C   0  0  0  0  0  0  0  0  0  0  0  0
   -0.5004   -1.2644    1.0182 O   0  0  0  0  0  0  0  0  0  0  0  0
    0.5300   -0.9194   -0.9975 N   0  0  0  0  0  0  0  0  0  0  0  0
    0.6838   -2.3392   -1.2482 C   0  0  0  0  0  0  0  0  0  0  0  0
    1.0366   -0.0197   -2.0157 C   0  0  0  0  0  0  0  0  0  0  0  0
    0.2643    3.2284    1.3075 H   0  0  0  0  0  0  0  0  0  0  0  0
   -1.3133    3.1979    0.4977 H   0  0  0  0  0  0  0  0  0  0  0  0
   -1.2263    3.2639    2.2681 H   0  0  0  0  0  0  0  0  0  0  0  0
   -0.2166    0.9618    2.3178 H   0  0  0  0  0  0  0  0  0  0  0  0
   -1.7844    0.9314    1.5128 H   0  0  0  0  0  0  0  0  0  0  0  0
    0.1632   -2.6295   -2.1703 H   0  0  0  0  0  0  0  0  0  0  0  0
    1.7441   -2.6011   -1.3605 H   0  0  0  0  0  0  0  0  0  0  0  0
    0.2632   -2.8885   -0.4079 H   0  0  0  0  0  0  0  0  0  0  0  0
    0.8674    1.0122   -1.7208 H   0  0  0  0  0  0  0  0  0  0  0  0
    2.1134   -0.1752   -2.1660 H   0  0  0  0  0  0  0  0  0  0  0  0
    0.5352   -0.2026   -2.9756 H   0  0  0  0  0  0  0  0  0  0  0  0
  1  2  1  0  0  0  0
  1 11  1  0  0  0  0
  2 13  1  0  0  0  0
  2 12  1  0  0  0  0
  3  2  1  0  0  0  0
  4  3  1  0  0  0  0
  4  5  2  0  0  0  0
  6  4  1  0  0  0  0
  7  6  1  0  0  0  0
  7 16  1  0  0  0  0
  8 17  1  0  0  0  0
  8  6  1  0  0  0  0
  9  1  1  0  0  0  0
 10  1  1  0  0  0  0
 14  7  1  0  0  0  0
 15  7  1  0  0  0  0
 18  8  1  0  0  0  0
 19  8  1  0  0  0  0
M  END
