19
title
C 1.1065053 2.6080155 0.07085427
N 1.080055 1.1551528 0.061682552
C 2.3752632 0.50969076 0.124394275
C -0.1298433 0.50993574 -0.003843882
O -1.186457 1.1233159 -0.054675918
C -0.118504226 -1.016085 -0.011492774
C -1.5319556 -1.5792645 -0.08699552
O -1.4092337 -2.9960082 -0.088620424
H 1.6741321 2.9895623 -0.787585
H 0.08135527 2.9699752 0.02035594
H 1.5833781 2.9800022 0.98677176
H 2.9085114 0.7974964 1.0406384
H 2.2809463 -0.5736249 0.11376717
H 2.9989665 0.8069847 -0.72960025
H 0.4600985 -1.3948225 -0.8621486
H 0.37035012 -1.4041923 0.8897485
H -2.118734 -1.2207519 0.7690883
H -2.0284154 -1.2108613 -0.9944713
H -2.2940931 -3.3686264 -0.1364537
