title
 OpenBabel02282109583D

 20 19  0  0  0  0  0  0  0  0999 V2000
   -0.8645    3.1461    0.8781 C   0  0  0  0  0  0  0  0  0  0  0  0
   -0.6691    1.7612    1.0459 O   0  0  0  0  0  0  0  0  0  0  0  0
   -0.2142    1.1327   -0.1104 C   0  0  0  0  0  0  0  0  0  0  0  0
   -0.0359   -0.3635    0.1131 C   0  0  0  0  0  0  0  0  0  0  0  0
   -0.3150   -0.9041    1.1542 O   0  0  0  0  0  0  0  0  0  0  0  0
    0.5394   -1.1363   -1.0779 C   0  0  0  0  0  0  0  0  0  0  0  0
    1.9811   -1.5606   -0.7398 C   0  0  0  0  0  0  0  0  0  0  0  0
   -0.3442   -2.3525   -1.3906 C   0  0  0  0  0  0  0  0  0  0  0  0
    0.0694    3.6616    0.6029 H   0  0  0  0  0  0  0  0  0  0  0  0
   -1.6166    3.3627    0.1027 H   0  0  0  0  0  0  0  0  0  0  0  0
   -1.2179    3.5404    1.8333 H   0  0  0  0  0  0  0  0  0  0  0  0
   -0.9153    1.2638   -0.9578 H   0  0  0  0  0  0  0  0  0  0  0  0
    0.7522    1.5472   -0.4573 H   0  0  0  0  0  0  0  0  0  0  0  0
    0.5656   -0.4711   -1.9509 H   0  0  0  0  0  0  0  0  0  0  0  0
    2.4202   -2.1192   -1.5720 H   0  0  0  0  0  0  0  0  0  0  0  0
    2.6227   -0.6964   -0.5380 H   0  0  0  0  0  0  0  0  0  0  0  0
    1.9850   -2.1994    0.1481 H   0  0  0  0  0  0  0  0  0  0  0  0
   -1.3502   -2.0501   -1.6985 H   0  0  0  0  0  0  0  0  0  0  0  0
    0.0926   -2.9485   -2.1976 H   0  0  0  0  0  0  0  0  0  0  0  0
   -0.4393   -2.9810   -0.5013 H   0  0  0  0  0  0  0  0  0  0  0  0
  1  2  1  0  0  0  0
  1 11  1  0  0  0  0
  3  4  1  0  0  0  0
  3  2  1  0  0  0  0
  4  5  2  0  0  0  0
  6  7  1  0  0  0  0
  6  4  1  0  0  0  0
  7 16  1  0  0  0  0
  7 17  1  0  0  0  0
  8  6  1  0  0  0  0
  8 20  1  0  0  0  0
  9  1  1  0  0  0  0
 10  1  1  0  0  0  0
 12  3  1  0  0  0  0
 13  3  1  0  0  0  0
 14  6  1  0  0  0  0
 15  7  1  0  0  0  0
 18  8  1  0  0  0  0
 19  8  1  0  0  0  0
M  END
