18
title
C 0.58650386 3.0639348 -0.38685358
O 0.069990434 1.7558382 -0.267093
C 0.8695054 0.9227248 0.5322611
C 0.2718741 -0.47218627 0.6415894
O 0.68873346 -1.2426428 1.4805318
C -0.83119804 -0.9112126 -0.31622356
C -0.3006048 -0.9838447 -1.7600431
O -1.3384718 -2.153973 0.096212804
H -0.102606975 3.6274874 -1.0190529
H 0.6615586 3.5591884 0.59296083
H 1.5839566 3.0647073 -0.8523093
H 1.8879979 0.8202061 0.11717032
H 0.9823786 1.318245 1.5540593
H -1.6246041 -0.15113455 -0.2756
H 0.5391825 -1.6830765 -1.8227375
H -1.099682 -1.3552009 -2.4061017
H 0.0136704855 0.0005405562 -2.1134467
H -0.7427824 -2.454931 0.80075383
