title
 OpenBabel02282109583D

 19 18  0  0  0  0  0  0  0  0999 V2000
   -0.6354    3.0122    1.1754 C   0  0  0  0  0  0  0  0  0  0  0  0
   -0.6253    1.6053    1.1946 O   0  0  0  0  0  0  0  0  0  0  0  0
   -0.0372    1.0596    0.0525 C   0  0  0  0  0  0  0  0  0  0  0  0
   -0.0769   -0.4727    0.1706 C   0  0  0  0  0  0  0  0  0  0  0  0
   -0.5629   -1.0134    1.1431 O   0  0  0  0  0  0  0  0  0  0  0  0
    0.4656   -1.1777   -0.8778 N   0  0  0  0  0  0  0  0  0  0  0  0
    0.4489   -2.6296   -0.8286 C   0  0  0  0  0  0  0  0  0  0  0  0
    1.0494   -0.6022   -2.0719 C   0  0  0  0  0  0  0  0  0  0  0  0
    0.3832    3.4308    1.1287 H   0  0  0  0  0  0  0  0  0  0  0  0
   -1.2065    3.4084    0.3200 H   0  0  0  0  0  0  0  0  0  0  0  0
   -1.1110    3.3433    2.1013 H   0  0  0  0  0  0  0  0  0  0  0  0
   -0.5717    1.3795   -0.8599 H   0  0  0  0  0  0  0  0  0  0  0  0
    1.0080    1.4004   -0.0563 H   0  0  0  0  0  0  0  0  0  0  0  0
   -0.1249   -3.0396   -1.6699 H   0  0  0  0  0  0  0  0  0  0  0  0
    1.4694   -3.0298   -0.8842 H   0  0  0  0  0  0  0  0  0  0  0  0
   -0.0121   -2.9343    0.1092 H   0  0  0  0  0  0  0  0  0  0  0  0
    1.0563    0.4853   -2.0348 H   0  0  0  0  0  0  0  0  0  0  0  0
    2.0866   -0.9414   -2.1967 H   0  0  0  0  0  0  0  0  0  0  0  0
    0.4905   -0.9074   -2.9674 H   0  0  0  0  0  0  0  0  0  0  0  0
  1  2  1  0  0  0  0
  1 11  1  0  0  0  0
  3  4  1  0  0  0  0
  3  2  1  0  0  0  0
  4  5  2  0  0  0  0
  6  7  1  0  0  0  0
  6  4  1  0  0  0  0
  7 16  1  0  0  0  0
  8 17  1  0  0  0  0
  8  6  1  0  0  0  0
  9  1  1  0  0  0  0
 10  1  1  0  0  0  0
 12  3  1  0  0  0  0
 13  3  1  0  0  0  0
 14  7  1  0  0  0  0
 15  7  1  0  0  0  0
 18  8  1  0  0  0  0
 19  8  1  0  0  0  0
M  END
