title
 OpenBabel02282109583D

 18 17  0  0  1  0  0  0  0  0999 V2000
    1.3487    2.1540   -0.5508 C   0  0  0  0  0  0  0  0  0  0  0  0
    1.3797    0.6523   -0.7081 C   0  0  0  0  0  0  0  0  0  0  0  0
    2.4112    0.0386   -0.8869 O   0  0  0  0  0  0  0  0  0  0  0  0
    0.0627   -0.1277   -0.6431 C   0  0  1  0  0  0  0  0  0  0  0  0
    0.3152   -1.4928   -0.8452 O   0  0  0  0  0  0  0  0  0  0  0  0
   -0.6726    0.1049    0.6874 C   0  0  0  0  0  0  0  0  0  0  0  0
   -1.9705   -0.6901    0.7621 C   0  0  0  0  0  0  0  0  0  0  0  0
   -2.5905   -0.3773    2.0009 O   0  0  0  0  0  0  0  0  0  0  0  0
    2.2908    2.5790   -0.8992 H   0  0  0  0  0  0  0  0  0  0  0  0
    0.5084    2.5960   -1.0946 H   0  0  0  0  0  0  0  0  0  0  0  0
    1.2180    2.4085    0.5072 H   0  0  0  0  0  0  0  0  0  0  0  0
   -0.5728    0.2592   -1.4615 H   0  0  0  0  0  0  0  0  0  0  0  0
    1.2790   -1.5552   -0.9558 H   0  0  0  0  0  0  0  0  0  0  0  0
   -0.0250   -0.1929    1.5201 H   0  0  0  0  0  0  0  0  0  0  0  0
   -0.9060    1.1685    0.8106 H   0  0  0  0  0  0  0  0  0  0  0  0
   -2.6186   -0.4187   -0.0885 H   0  0  0  0  0  0  0  0  0  0  0  0
   -1.7441   -1.7606    0.6767 H   0  0  0  0  0  0  0  0  0  0  0  0
   -3.3478   -0.9594    2.1112 H   0  0  0  0  0  0  0  0  0  0  0  0
  1 11  1  0  0  0  0
  2  4  1  0  0  0  0
  2  1  1  0  0  0  0
  3  2  2  0  0  0  0
  4 12  1  6  0  0  0
  4  6  1  0  0  0  0
  5  4  1  0  0  0  0
  6  7  1  0  0  0  0
  6 15  1  0  0  0  0
  6 14  1  0  0  0  0
  7  8  1  0  0  0  0
  8 18  1  0  0  0  0
  9  1  1  0  0  0  0
 10  1  1  0  0  0  0
 13  5  1  0  0  0  0
 16  7  1  0  0  0  0
 17  7  1  0  0  0  0
M  END
