20
title
C -0.57959455 1.7506262 0.47843847
C -0.47790325 0.21269745 0.37384245
C 0.2038872 -0.26040393 -0.9185484
C -0.5368485 0.122934826 -2.1941466
O 0.12361559 -0.5186958 -3.2752547
C 0.29595605 -0.28645027 1.6003146
C -0.53042597 -0.66034055 2.8179915
O 1.5031317 -0.36079398 1.6006533
H 0.41385868 2.2025955 0.3965581
H -1.2114875 2.1600614 -0.3139145
H -1.012944 2.060842 1.4349347
H -1.4954473 -0.19822872 0.42348683
H 1.2254446 0.12927389 -0.953458
H 0.2935144 -1.352754 -0.9038916
H -1.590913 -0.1978234 -2.126661
H -0.53778625 1.2153354 -2.3284101
H -0.29962853 -0.24212286 -4.0931106
H -1.2701958 0.1136667 3.0484905
H -1.0915842 -1.5784974 2.6048663
H 0.119517654 -0.82770205 3.6776857
