21
title
C 1.5730253 3.05878 -0.59580386
C 1.6557342 1.570203 -0.24394497
C 0.27631855 0.9035968 -0.19491464
C 0.29854202 -0.6187369 0.07289078
C 0.8433794 -0.9776074 1.4622492
C -1.137151 -1.1382731 -0.052052476
N -1.411351 -1.8400432 -1.1909926
O -1.9858758 -0.91416806 0.7906577
H 2.565882 3.518595 -0.6214354
H 1.1099206 3.2094183 -1.5773569
H 0.97125185 3.6046896 0.13902086
H 2.2844987 1.0536265 -0.9820296
H 2.1626441 1.4567945 0.721133
H -0.3447895 1.3773478 0.57492936
H -0.23413908 1.0832945 -1.1509712
H 0.9257378 -1.0940286 -0.694096
H 1.8572077 -0.59546465 1.6047583
H 0.19227028 -0.55780023 2.2332816
H 0.8719629 -2.0626137 1.6042589
H -0.7070782 -2.0634935 -1.8707851
H -2.3458147 -2.1913407 -1.3234874
