20
title
C -0.68231606 3.0033772 1.6559452
C -0.7894499 1.4824154 1.5235456
C 0.053264942 0.925715 0.3712224
C -0.109892406 -0.59860826 0.21330455
O -1.4555404 -0.9398236 0.013067276
C 0.7335312 -1.1450429 -0.9418165
C 2.2313457 -0.94717574 -0.9113464
O 0.17548266 -1.7218385 -1.8525898
H 0.35191497 3.31822 1.8366686
H -1.025147 3.5052419 0.744218
H -1.2917509 3.3725166 2.4865956
H -0.4738461 1.005914 2.4614444
H -1.8315886 1.1891956 1.3639276
H -0.24564305 1.4048334 -0.5705628
H 1.1112403 1.1666636 0.53613126
H 0.2639372 -1.0803962 1.1356606
H -1.4705317 -1.408006 -0.8384668
H 2.4702785 0.08216191 -1.2025743
H 2.635759 -1.1006479 0.09355524
H 2.7058165 -1.6284771 -1.618778
