19
title
C -0.8133292 3.0541835 1.5229908
C -0.76391006 1.524493 1.5140213
C 0.00019764231 0.9598139 0.3126939
C -0.011899299 -0.5807419 0.2832629
O -1.3244022 -1.0761695 0.24550979
C 0.7387956 -1.1227229 -0.9441636
N 2.0783787 -0.92225266 -0.98188907
O 0.1239829 -1.6904154 -1.8331796
H 0.19300741 3.487585 1.555129
H -1.3088427 3.4391484 0.62478167
H -1.3637732 3.4283123 2.3917851
H -0.2959801 1.164247 2.4403765
H -1.7780709 1.1132818 1.5017139
H -0.45054683 1.3222955 -0.6202596
H 1.0372926 1.3223263 0.32501072
H 0.49037403 -0.9553783 1.1911764
H -1.3995191 -1.4974024 -0.6286419
H 2.5777395 -0.51205325 -0.21264417
H 2.6006556 -1.282515 -1.7636596
