21
title
C 1.5425631 2.9291966 0.38187435
C 1.2955192 1.4190578 0.41188598
C -0.19765759 1.0751044 0.34168956
N -0.46752965 -0.36018214 0.40932095
C -0.6566789 -0.924124 1.7312412
C -0.48417687 -1.067209 -0.7660762
C -0.7915312 -2.5582862 -0.69767404
O -0.26609027 -0.52201915 -1.8375655
H 2.6118984 3.15641 0.42359713
H 1.1432093 3.3762786 -0.5348795
H 1.0631728 3.4301887 1.2308216
H 1.7935294 0.93864745 -0.43669596
H 1.7311277 0.98969793 1.3233217
H -0.73759365 1.5569961 1.1664667
H -0.61174417 1.4447411 -0.59895754
H -0.7646016 -2.0059254 1.6841811
H 0.20162678 -0.70213056 2.3782113
H -1.5534306 -0.51103044 2.2128482
H -1.7543592 -2.761026 -0.2186164
H -0.8183434 -2.9261045 -1.7227098
H -0.021133188 -3.107409 -0.14654598
