19
title
C 0.5381516 2.1566758 0.09574184
N 0.4321729 0.7083921 0.053923596
C 0.40024304 0.017821094 1.3526504
C -0.99001884 -0.45247033 1.7977571
O -1.4088761 -1.643822 1.1819637
C 0.3941942 -0.03451649 -1.0868497
C 0.5997392 0.66660213 -2.4194582
O 0.2056567 -1.2494878 -1.052229
H 0.4488509 2.5845287 -0.9007419
H -0.26389802 2.577628 0.71317583
H 1.4979391 2.4739618 0.5244908
H 1.0650812 -0.8504099 1.3031733
H 0.8054003 0.71705353 2.0907688
H -0.9596305 -0.6273492 2.8824885
H -1.7094465 0.3701119 1.6293595
H -0.950127 -1.7043047 0.32682845
H 1.5146958 1.2655526 -2.4391794
H 0.65581775 -0.10654143 -3.1847253
H -0.2408095 1.3279171 -2.654137
