19
title
C -0.7613444 2.9862275 1.469129
N -0.71597224 1.4955063 1.44304
H -0.15388288 1.1414814 2.220092
H -1.6512301 1.1030703 1.5759902
C -0.13085468 0.8738247 0.1581132
C -0.12669732 -0.62810946 0.22227223
C -1.5009912 -1.2823172 0.12635644
C 0.89370483 -1.1202424 -0.95367366
O 1.8067898 -0.30154324 -1.1715372
O 0.61590666 -2.2236588 -1.4249573
H 0.25319916 3.3593738 1.3284031
H -1.3917226 3.324755 0.6467285
H -1.1655945 3.3332965 2.421377
H -0.75168145 1.2646995 -0.6534918
H 0.8952175 1.2309682 0.046953153
H 0.37772685 -0.9378092 1.15235
H -2.1273577 -1.1627889 1.0261046
H -2.0619519 -0.89250207 -0.7316657
H -1.3497218 -2.348444 -0.05363362
