20
title
C -0.671408 2.9328954 1.3486147
O -0.60700995 1.5271857 1.3465067
C -0.0077683222 1.0086905 0.1773882
C -0.023873378 -0.5168986 0.2703474
C -1.4671783 -1.060386 0.31810692
C 0.7262115 -1.1325495 -0.9094832
C 1.3066082 -2.5198207 -0.7013333
O 0.85051984 -0.54154223 -1.959363
H 0.33039826 3.3877373 1.2932843
H -1.2665684 3.316441 0.50484335
H -1.146252 3.2384264 2.284284
H -0.54979795 1.3364154 -0.7225368
H 1.0269403 1.3749905 0.07859434
H 0.48159164 -0.81147236 1.1991271
H -1.4903579 -2.1432624 0.47019872
H -2.0053174 -0.5837628 1.1397183
H -1.9924212 -0.83491033 -0.6159655
H 0.57756764 -3.1954007 -0.24306868
H 1.6510586 -2.9268556 -1.6527357
H 2.155476 -2.4542966 -0.009696705
