title
 OpenBabel02282109583D

 19 18  0  0  1  0  0  0  0  0999 V2000
   -1.1228    2.8995   -1.0494 C   0  0  0  0  0  0  0  0  0  0  0  0
   -0.9595    1.5053   -1.1491 O   0  0  0  0  0  0  0  0  0  0  0  0
   -0.3165    0.9484   -0.0232 C   0  0  0  0  0  0  0  0  0  0  0  0
   -0.1392   -0.5546   -0.2602 C   0  0  1  0  0  0  0  0  0  0  0  0
    0.7497   -0.8285   -1.4847 C   0  0  0  0  0  0  0  0  0  0  0  0
    0.4970   -1.1695    0.9873 C   0  0  0  0  0  0  0  0  0  0  0  0
   -0.1742   -2.2252    1.5315 N   0  0  0  0  0  0  0  0  0  0  0  0
    1.5351   -0.7444    1.4603 O   0  0  0  0  0  0  0  0  0  0  0  0
   -0.1559    3.4190   -0.9593 H   0  0  0  0  0  0  0  0  0  0  0  0
   -1.6226    3.2372   -1.9607 H   0  0  0  0  0  0  0  0  0  0  0  0
   -1.7413    3.1776   -0.1810 H   0  0  0  0  0  0  0  0  0  0  0  0
    0.6688    1.4093    0.1428 H   0  0  0  0  0  0  0  0  0  0  0  0
   -0.9172    1.1244    0.8857 H   0  0  0  0  0  0  0  0  0  0  0  0
   -1.1333   -0.9855   -0.4308 H   0  0  0  0  0  0  0  0  0  0  0  0
    0.7993   -1.8988   -1.7072 H   0  0  0  0  0  0  0  0  0  0  0  0
    0.3514   -0.3068   -2.3569 H   0  0  0  0  0  0  0  0  0  0  0  0
    1.7660   -0.4732   -1.2916 H   0  0  0  0  0  0  0  0  0  0  0  0
   -1.0085   -2.6034    1.1200 H   0  0  0  0  0  0  0  0  0  0  0  0
    0.2330   -2.6924    2.3254 H   0  0  0  0  0  0  0  0  0  0  0  0
  1  9  1  0  0  0  0
  1 11  1  0  0  0  0
  2  1  1  0  0  0  0
  2  3  1  0  0  0  0
  3 12  1  0  0  0  0
  3 13  1  0  0  0  0
  4 14  1  6  0  0  0
  4  3  1  0  0  0  0
  4  6  1  0  0  0  0
  5 17  1  0  0  0  0
  5  4  1  0  0  0  0
  6  8  2  0  0  0  0
  6  7  1  0  0  0  0
  7 19  1  0  0  0  0
 10  1  1  0  0  0  0
 15  5  1  0  0  0  0
 16  5  1  0  0  0  0
 18  7  1  0  0  0  0
M  END
