title
 OpenBabel02282109583D

 18 17  0  0  1  0  0  0  0  0999 V2000
    0.0273    2.7679    1.3902 C   0  0  0  0  0  0  0  0  0  0  0  0
    0.1724    1.3816    1.1742 O   0  0  0  0  0  0  0  0  0  0  0  0
   -0.7949    0.8595    0.2915 C   0  0  0  0  0  0  0  0  0  0  0  0
   -0.6120   -0.6636    0.1437 C   0  0  1  0  0  0  0  0  0  0  0  0
   -1.7495   -1.1848   -0.4876 O   0  0  0  0  0  0  0  0  0  0  0  0
    0.6377   -1.0243   -0.6735 C   0  0  0  0  0  0  0  0  0  0  0  0
    1.9966   -0.7607   -0.0827 C   0  0  0  0  0  0  0  0  0  0  0  0
    0.4783   -1.5262   -1.7680 O   0  0  0  0  0  0  0  0  0  0  0  0
    0.1396    3.3397    0.4563 H   0  0  0  0  0  0  0  0  0  0  0  0
   -0.9552    3.0071    1.8245 H   0  0  0  0  0  0  0  0  0  0  0  0
    0.8088    3.0730    2.0899 H   0  0  0  0  0  0  0  0  0  0  0  0
   -1.8119    1.0243    0.6777 H   0  0  0  0  0  0  0  0  0  0  0  0
   -0.7355    1.3417   -0.6987 H   0  0  0  0  0  0  0  0  0  0  0  0
   -0.5013   -1.0831    1.1557 H   0  0  0  0  0  0  0  0  0  0  0  0
   -1.4229   -1.5342   -1.3345 H   0  0  0  0  0  0  0  0  0  0  0  0
    2.0463    0.2581    0.3093 H   0  0  0  0  0  0  0  0  0  0  0  0
    2.1500   -1.4304    0.7723 H   0  0  0  0  0  0  0  0  0  0  0  0
    2.7714   -0.9432   -0.8282 H   0  0  0  0  0  0  0  0  0  0  0  0
  1 10  1  0  0  0  0
  1 11  1  0  0  0  0
  2  1  1  0  0  0  0
  3 12  1  0  0  0  0
  3  2  1  0  0  0  0
  4  3  1  0  0  0  0
  4 14  1  1  0  0  0
  5  4  1  0  0  0  0
  6  7  1  0  0  0  0
  6  4  1  0  0  0  0
  7 16  1  0  0  0  0
  7 17  1  0  0  0  0
  8  6  2  0  0  0  0
  9  1  1  0  0  0  0
 13  3  1  0  0  0  0
 15  5  1  0  0  0  0
 18  7  1  0  0  0  0
M  END
