17
title
N 1.4354893 1.9253765 -0.678446
C 1.4488673 0.57249546 -0.6276944
O 2.4759011 -0.08526674 -0.5728102
C 0.08567136 -0.13991639 -0.63307345
O 0.31387907 -1.5182972 -0.766932
C -0.7152069 0.16148975 0.6462484
C -2.0718992 -0.5475865 0.65234166
O -2.8344667 -0.24637422 1.811267
H 2.3126478 2.419544 -0.6876858
H 0.5825216 2.448796 -0.76731914
H -0.48745638 0.22202906 -1.5037574
H 1.281483 -1.6102672 -0.70880896
H -0.121832676 -0.16778669 1.5094799
H -0.8799649 1.240091 0.75649387
H -2.6737397 -0.20285341 -0.19675907
H -1.9212536 -1.6275151 0.529082
H -2.4052746 -0.6683567 2.5621147
