24
title
C 1.3455001 2.6263938 -0.04380822
C 1.2836248 1.089545 -0.037499152
C 2.0798745 0.5613477 1.1678141
C -0.1759033 0.557212 -0.07001457
C -0.9617672 1.1143407 -1.2698869
C -0.2181487 -0.9834053 -0.050572444
C -1.61658 -1.5908732 0.0060381913
O -1.462461 -2.9824219 0.25620916
H 2.3829021 2.9673615 0.035431188
H 0.92931104 3.0616393 -0.95533514
H 0.79652655 3.0445032 0.8091522
H 1.7813168 0.73138785 -0.95164084
H 1.5785794 0.81494516 2.110128
H 2.2158835 -0.5220414 1.1423204
H 3.0764923 1.0138552 1.1943296
H -0.6680918 0.91484946 0.8486875
H -1.994559 0.7550383 -1.2747002
H -1.0059004 2.205536 -1.2593229
H -0.5004456 0.80609304 -2.2163332
H 0.30427477 -1.3827474 -0.9302645
H 0.3140404 -1.3641381 0.82551694
H -2.1991966 -1.1061854 0.8081768
H -2.1580644 -1.4244232 -0.9365337
H -2.333613 -3.38877 0.23385258
