22
title
C 1.2733542 2.617385 -0.07910702
C 1.3036486 1.0838974 -0.010630959
C 2.1293528 0.615891 1.1967264
C -0.1308099 0.51222295 -0.008847411
O -0.88069415 1.0113684 -1.1212707
C -0.19108033 -1.0185844 0.036591064
C -1.6164575 -1.5580252 0.021880165
O -1.5400276 -2.9753706 0.0997766
H 2.2840781 3.0225832 -0.19128968
H 0.6619304 2.962941 -0.91486454
H 0.8479569 3.0368192 0.84076405
H 1.7942299 0.7090364 -0.92363197
H 2.300431 -0.46358737 1.1955215
H 3.1087382 1.1048484 1.2009628
H 1.6291562 0.877287 2.1372259
H -0.65840745 0.91475135 0.86762935
H -0.4516946 0.6916248 -1.923574
H 0.35618252 -1.4384071 -0.819501
H 0.30535442 -1.3924047 0.93743235
H -2.1759562 -1.1413976 0.87601244
H -2.1293995 -1.229463 -0.89184666
H -2.4335268 -3.325413 0.040523436
