title
 OpenBabel02282109583D

 22 21  0  0  1  0  0  0  0  0999 V2000
    1.3468    2.5998    0.0004 C   0  0  0  0  0  0  0  0  0  0  0  0
    1.2320    1.0738   -0.0056 C   0  0  1  0  0  0  0  0  0  0  0  0
    1.8722    0.5316    1.1495 O   0  0  0  0  0  0  0  0  0  0  0  0
   -0.2175    0.5517   -0.1386 C   0  0  1  0  0  0  0  0  0  0  0  0
   -0.9261    1.1351   -1.3719 C   0  0  0  0  0  0  0  0  0  0  0  0
   -0.2281   -0.9881   -0.1483 C   0  0  0  0  0  0  0  0  0  0  0  0
   -1.5823   -1.6092    0.1719 C   0  0  0  0  0  0  0  0  0  0  0  0
   -1.4241   -3.0210    0.1487 O   0  0  0  0  0  0  0  0  0  0  0  0
    2.3829    2.8849    0.2016 H   0  0  0  0  0  0  0  0  0  0  0  0
    1.0491    3.0417   -0.9539 H   0  0  0  0  0  0  0  0  0  0  0  0
    0.7137    3.0363    0.7842 H   0  0  0  0  0  0  0  0  0  0  0  0
    1.8169    0.6769   -0.8461 H   0  0  0  0  0  0  0  0  0  0  0  0
    1.4305    0.8983    1.9238 H   0  0  0  0  0  0  0  0  0  0  0  0
   -0.7564    0.8950    0.7609 H   0  0  0  0  0  0  0  0  0  0  0  0
   -1.0558    2.2181   -1.3001 H   0  0  0  0  0  0  0  0  0  0  0  0
   -0.3532    0.9244   -2.2831 H   0  0  0  0  0  0  0  0  0  0  0  0
   -1.9197    0.6975   -1.5028 H   0  0  0  0  0  0  0  0  0  0  0  0
    0.1007   -1.3547   -1.1294 H   0  0  0  0  0  0  0  0  0  0  0  0
    0.4947   -1.3546    0.5855 H   0  0  0  0  0  0  0  0  0  0  0  0
   -1.9205   -1.2640    1.1639 H   0  0  0  0  0  0  0  0  0  0  0  0
   -2.3438   -1.2904   -0.5573 H   0  0  0  0  0  0  0  0  0  0  0  0
   -2.2800   -3.4218    0.3253 H   0  0  0  0  0  0  0  0  0  0  0  0
  1  9  1  0  0  0  0
  1 11  1  0  0  0  0
  2 12  1  6  0  0  0
  2  1  1  0  0  0  0
  2  3  1  0  0  0  0
  3 13  1  0  0  0  0
  4  2  1  0  0  0  0
  4 14  1  1  0  0  0
  5 15  1  0  0  0  0
  5  4  1  0  0  0  0
  6  4  1  0  0  0  0
  6  7  1  0  0  0  0
  6 19  1  0  0  0  0
  7 20  1  0  0  0  0
  8  7  1  0  0  0  0
  8 22  1  0  0  0  0
 10  1  1  0  0  0  0
 16  5  1  0  0  0  0
 17  5  1  0  0  0  0
 18  6  1  0  0  0  0
 21  7  1  0  0  0  0
M  END
