20
title
C 1.2856771 2.5989997 -0.06114843
C 1.2615328 1.0736068 -0.014976567
O 1.97773 0.5701226 1.1091208
C -0.17620993 0.51012135 -0.052066013
O -0.8923329 1.0233711 -1.176088
C -0.20226729 -1.0176256 -0.009489203
C -1.6099914 -1.5867221 0.10790862
O -1.5075561 -3.003567 0.08816299
H 2.316176 2.9633167 -0.08140369
H 0.75216657 2.9695542 -0.9387846
H 0.79096407 3.0162299 0.82615834
H 1.8004751 0.6747586 -0.8864784
H 1.6463338 1.0237678 1.8922951
H -0.715466 0.90943533 0.820151
H -0.5216956 0.6125554 -1.9658508
H 0.2646081 -1.4150019 -0.9225941
H 0.409245 -1.365035 0.8276496
H -2.073462 -1.2336459 1.0445019
H -2.229877 -1.2149558 -0.7206931
H -2.3967285 -3.3677323 0.12337722
