title
 OpenBabel02282109583D

 26 25  0  0  1  0  0  0  0  0999 V2000
   -0.8048    3.1632   -1.4109 C   0  0  0  0  0  0  0  0  0  0  0  0
   -0.8607    1.6327   -1.3846 C   0  0  0  0  0  0  0  0  0  0  0  0
    0.0234    1.0257   -0.2870 C   0  0  0  0  0  0  0  0  0  0  0  0
   -0.0099   -0.5162   -0.1992 C   0  0  1  0  0  0  0  0  0  0  0  0
    0.7342   -1.1297   -1.3973 C   0  0  0  0  0  0  0  0  0  0  0  0
    0.5415   -1.0237    1.1625 C   0  0  0  0  0  0  0  0  0  0  0  0
   -0.3743   -0.6374    2.3363 C   0  0  0  0  0  0  0  0  0  0  0  0
    0.7663   -2.5445    1.1909 C   0  0  0  0  0  0  0  0  0  0  0  0
    0.2147    3.5187   -1.5980 H   0  0  0  0  0  0  0  0  0  0  0  0
   -1.4491    3.5741   -2.1947 H   0  0  0  0  0  0  0  0  0  0  0  0
   -1.1307    3.5885   -0.4550 H   0  0  0  0  0  0  0  0  0  0  0  0
   -1.8982    1.3078   -1.2290 H   0  0  0  0  0  0  0  0  0  0  0  0
   -0.5672    1.2473   -2.3682 H   0  0  0  0  0  0  0  0  0  0  0  0
    1.0643    1.3471   -0.4396 H   0  0  0  0  0  0  0  0  0  0  0  0
   -0.2856    1.4626    0.6688 H   0  0  0  0  0  0  0  0  0  0  0  0
   -1.0628   -0.8347   -0.2583 H   0  0  0  0  0  0  0  0  0  0  0  0
    0.5897   -2.2107   -1.4634 H   0  0  0  0  0  0  0  0  0  0  0  0
    0.3875   -0.7002   -2.3414 H   0  0  0  0  0  0  0  0  0  0  0  0
    1.8123   -0.9391   -1.3257 H   0  0  0  0  0  0  0  0  0  0  0  0
    1.5181   -0.5403    1.3191 H   0  0  0  0  0  0  0  0  0  0  0  0
   -1.3573   -1.1128    2.2310 H   0  0  0  0  0  0  0  0  0  0  0  0
    0.0532   -0.9750    3.2862 H   0  0  0  0  0  0  0  0  0  0  0  0
   -0.5345    0.4406    2.4168 H   0  0  0  0  0  0  0  0  0  0  0  0
    1.5275   -2.8682    0.4772 H   0  0  0  0  0  0  0  0  0  0  0  0
    1.0920   -2.8638    2.1865 H   0  0  0  0  0  0  0  0  0  0  0  0
   -0.1612   -3.0836    0.9611 H   0  0  0  0  0  0  0  0  0  0  0  0
  1  2  1  0  0  0  0
  1 11  1  0  0  0  0
  2 12  1  0  0  0  0
  2  3  1  0  0  0  0
  3  4  1  0  0  0  0
  3 15  1  0  0  0  0
  4 16  1  6  0  0  0
  4  6  1  0  0  0  0
  5 19  1  0  0  0  0
  5  4  1  0  0  0  0
  6  8  1  0  0  0  0
  6 20  1  0  0  0  0
  6  7  1  0  0  0  0
  7 23  1  0  0  0  0
  7 22  1  0  0  0  0
  8 25  1  0  0  0  0
  9  1  1  0  0  0  0
 10  1  1  0  0  0  0
 13  2  1  0  0  0  0
 14  3  1  0  0  0  0
 17  5  1  0  0  0  0
 18  5  1  0  0  0  0
 21  7  1  0  0  0  0
 24  8  1  0  0  0  0
 26  8  1  0  0  0  0
M  END
