26
title
C -0.8048393 3.1631706 -1.410949
C -0.86071336 1.6326749 -1.3845915
C 0.023449462 1.0256505 -0.2870297
C -0.009904642 -0.51617885 -0.19918832
C 0.73417795 -1.1296985 -1.397336
C 0.54149485 -1.0237243 1.162496
C -0.3742623 -0.63744545 2.3362806
C 0.7663479 -2.5445273 1.1909317
H 0.21468757 3.5187187 -1.5980195
H -1.4491371 3.574139 -2.1946776
H -1.1307484 3.5884984 -0.45498076
H -1.8982375 1.3078274 -1.2290101
H -0.56722677 1.2473062 -2.3682117
H 1.0642744 1.3471045 -0.4395872
H -0.2856293 1.4626161 0.6688355
H -1.0627732 -0.83472157 -0.2582905
H 0.5896683 -2.2106879 -1.4633975
H 0.38746592 -0.70024323 -2.341404
H 1.812292 -0.9391117 -1.3256755
H 1.5180589 -0.5402925 1.319112
H -1.3573079 -1.1127679 2.2310474
H 0.053180438 -0.9749589 3.2862453
H -0.53453636 0.44055036 2.4168203
H 1.5274907 -2.8681843 0.47715357
H 1.0920404 -2.8637612 2.1865048
H -0.16124077 -3.0836298 0.96106803
