title
 OpenBabel02282109583D

 24 23  0  0  1  0  0  0  0  0999 V2000
    1.6077    3.1842   -0.4553 C   0  0  0  0  0  0  0  0  0  0  0  0
    1.6649    1.6651   -0.2655 C   0  0  0  0  0  0  0  0  0  0  0  0
    0.2736    1.0215   -0.2436 C   0  0  0  0  0  0  0  0  0  0  0  0
    0.2549   -0.5176   -0.1851 C   0  0  1  0  0  0  0  0  0  0  0  0
    0.9414   -1.0577    1.0795 C   0  0  0  0  0  0  0  0  0  0  0  0
   -1.1999   -1.0284   -0.3245 C   0  0  1  0  0  0  0  0  0  0  0  0
   -1.3137   -2.5337   -0.5730 C   0  0  0  0  0  0  0  0  0  0  0  0
   -2.0121   -0.6282    0.7799 O   0  0  0  0  0  0  0  0  0  0  0  0
    2.6095    3.6253   -0.4621 H   0  0  0  0  0  0  0  0  0  0  0  0
    1.1209    3.4474   -1.4011 H   0  0  0  0  0  0  0  0  0  0  0  0
    1.0388    3.6615    0.3504 H   0  0  0  0  0  0  0  0  0  0  0  0
    2.2607    1.2184   -1.0736 H   0  0  0  0  0  0  0  0  0  0  0  0
    2.2000    1.4420    0.6652 H   0  0  0  0  0  0  0  0  0  0  0  0
   -0.3049    1.4114    0.6033 H   0  0  0  0  0  0  0  0  0  0  0  0
   -0.2682    1.3379   -1.1461 H   0  0  0  0  0  0  0  0  0  0  0  0
    0.8042   -0.8972   -1.0596 H   0  0  0  0  0  0  0  0  0  0  0  0
    0.9180   -2.1510    1.1253 H   0  0  0  0  0  0  0  0  0  0  0  0
    1.9921   -0.7603    1.1195 H   0  0  0  0  0  0  0  0  0  0  0  0
    0.4600   -0.6679    1.9843 H   0  0  0  0  0  0  0  0  0  0  0  0
   -1.6460   -0.5095   -1.1824 H   0  0  0  0  0  0  0  0  0  0  0  0
   -0.9234   -3.1146    0.2706 H   0  0  0  0  0  0  0  0  0  0  0  0
   -2.3626   -2.8098   -0.7120 H   0  0  0  0  0  0  0  0  0  0  0  0
   -0.7557   -2.8306   -1.4671 H   0  0  0  0  0  0  0  0  0  0  0  0
   -1.7647   -1.1709    1.5358 H   0  0  0  0  0  0  0  0  0  0  0  0
  1  2  1  0  0  0  0
  1 11  1  0  0  0  0
  2  3  1  0  0  0  0
  2 13  1  0  0  0  0
  3  4  1  0  0  0  0
  3 14  1  0  0  0  0
  4 16  1  6  0  0  0
  4  5  1  0  0  0  0
  5 18  1  0  0  0  0
  5 17  1  0  0  0  0
  5 19  1  0  0  0  0
  6 20  1  6  0  0  0
  6  4  1  0  0  0  0
  6  8  1  0  0  0  0
  7  6  1  0  0  0  0
  7 21  1  0  0  0  0
  8 24  1  0  0  0  0
  9  1  1  0  0  0  0
 10  1  1  0  0  0  0
 12  2  1  0  0  0  0
 15  3  1  0  0  0  0
 22  7  1  0  0  0  0
 23  7  1  0  0  0  0
M  END
