title
 OpenBabel02282109583D

 24 23  0  0  1  0  0  0  0  0999 V2000
   -1.2372    3.0976   -1.3253 C   0  0  0  0  0  0  0  0  0  0  0  0
   -1.1644    1.5700   -1.2673 C   0  0  0  0  0  0  0  0  0  0  0  0
   -0.3788    1.0484   -0.0584 C   0  0  0  0  0  0  0  0  0  0  0  0
   -0.2432   -0.4798   -0.0407 C   0  0  1  0  0  0  0  0  0  0  0  0
    0.4596   -0.9515   -1.1927 O   0  0  0  0  0  0  0  0  0  0  0  0
    0.3552   -1.0465    1.2683 C   0  0  0  0  0  0  0  0  0  0  0  0
    0.2349   -2.5762    1.2883 C   0  0  0  0  0  0  0  0  0  0  0  0
    1.8114   -0.6138    1.4994 C   0  0  0  0  0  0  0  0  0  0  0  0
   -0.2368    3.5407   -1.3903 H   0  0  0  0  0  0  0  0  0  0  0  0
   -1.8069    3.4369   -2.1962 H   0  0  0  0  0  0  0  0  0  0  0  0
   -1.7204    3.5085   -0.4315 H   0  0  0  0  0  0  0  0  0  0  0  0
   -2.1805    1.1545   -1.2393 H   0  0  0  0  0  0  0  0  0  0  0  0
   -0.7036    1.1792   -2.1810 H   0  0  0  0  0  0  0  0  0  0  0  0
    0.6225    1.5033   -0.0527 H   0  0  0  0  0  0  0  0  0  0  0  0
   -0.8651    1.3754    0.8706 H   0  0  0  0  0  0  0  0  0  0  0  0
   -1.2476   -0.9102   -0.1519 H   0  0  0  0  0  0  0  0  0  0  0  0
    1.3204   -0.5195   -1.2056 H   0  0  0  0  0  0  0  0  0  0  0  0
   -0.2528   -0.6411    2.0893 H   0  0  0  0  0  0  0  0  0  0  0  0
    0.7670   -3.0099    0.4363 H   0  0  0  0  0  0  0  0  0  0  0  0
    0.6559   -2.9953    2.2079 H   0  0  0  0  0  0  0  0  0  0  0  0
   -0.8115   -2.8931    1.2227 H   0  0  0  0  0  0  0  0  0  0  0  0
    2.4671   -0.9904    0.7051 H   0  0  0  0  0  0  0  0  0  0  0  0
    1.9219    0.4738    1.5467 H   0  0  0  0  0  0  0  0  0  0  0  0
    2.1881   -1.0228    2.4420 H   0  0  0  0  0  0  0  0  0  0  0  0
  1  2  1  0  0  0  0
  1 11  1  0  0  0  0
  2 12  1  0  0  0  0
  2  3  1  0  0  0  0
  3 14  1  0  0  0  0
  3  4  1  0  0  0  0
  3 15  1  0  0  0  0
  4 16  1  6  0  0  0
  4  6  1  0  0  0  0
  5  4  1  0  0  0  0
  6  7  1  0  0  0  0
  6  8  1  0  0  0  0
  6 18  1  0  0  0  0
  7 20  1  0  0  0  0
  8 23  1  0  0  0  0
  8 24  1  0  0  0  0
  9  1  1  0  0  0  0
 10  1  1  0  0  0  0
 13  2  1  0  0  0  0
 17  5  1  0  0  0  0
 19  7  1  0  0  0  0
 21  7  1  0  0  0  0
 22  8  1  0  0  0  0
M  END
