title
 OpenBabel02282109583D

 24 23  0  0  1  0  0  0  0  0999 V2000
   -0.5897    2.9149   -1.3699 C   0  0  0  0  0  0  0  0  0  0  0  0
   -0.4987    1.4036   -1.5072 C   0  0  0  0  0  0  0  0  0  0  0  0
    0.0706    0.8835   -0.3238 O   0  0  0  0  0  0  0  0  0  0  0  0
    0.1705   -0.5376   -0.2646 C   0  0  1  0  0  0  0  0  0  0  0  0
    1.4029   -1.0188   -1.0375 C   0  0  0  0  0  0  0  0  0  0  0  0
    0.1899   -0.9166    1.2284 C   0  0  0  0  0  0  0  0  0  0  0  0
   -1.0781   -0.4181    1.9351 C   0  0  0  0  0  0  0  0  0  0  0  0
    0.3709   -2.4257    1.4437 C   0  0  0  0  0  0  0  0  0  0  0  0
    0.4045    3.3466   -1.2233 H   0  0  0  0  0  0  0  0  0  0  0  0
   -1.0301    3.3545   -2.2700 H   0  0  0  0  0  0  0  0  0  0  0  0
   -1.2096    3.1861   -0.5105 H   0  0  0  0  0  0  0  0  0  0  0  0
   -1.5002    0.9696   -1.6682 H   0  0  0  0  0  0  0  0  0  0  0  0
    0.1081    1.1431   -2.3892 H   0  0  0  0  0  0  0  0  0  0  0  0
   -0.7343   -0.9783   -0.7206 H   0  0  0  0  0  0  0  0  0  0  0  0
    1.4352   -2.1096   -1.1027 H   0  0  0  0  0  0  0  0  0  0  0  0
    1.3967   -0.6318   -2.0604 H   0  0  0  0  0  0  0  0  0  0  0  0
    2.3195   -0.6712   -0.5494 H   0  0  0  0  0  0  0  0  0  0  0  0
    1.0527   -0.3964    1.6678 H   0  0  0  0  0  0  0  0  0  0  0  0
   -1.9677   -0.9311    1.5484 H   0  0  0  0  0  0  0  0  0  0  0  0
   -1.0264   -0.6143    3.0110 H   0  0  0  0  0  0  0  0  0  0  0  0
   -1.2115    0.6542    1.7834 H   0  0  0  0  0  0  0  0  0  0  0  0
   -0.4204   -2.9941    0.9394 H   0  0  0  0  0  0  0  0  0  0  0  0
    1.3333   -2.7888    1.0739 H   0  0  0  0  0  0  0  0  0  0  0  0
    0.3161   -2.6663    2.5102 H   0  0  0  0  0  0  0  0  0  0  0  0
  1  9  1  0  0  0  0
  1 11  1  0  0  0  0
  2  1  1  0  0  0  0
  2  3  1  0  0  0  0
  3  4  1  0  0  0  0
  4 14  1  6  0  0  0
  4  6  1  0  0  0  0
  5 17  1  0  0  0  0
  5  4  1  0  0  0  0
  6  8  1  0  0  0  0
  6 18  1  0  0  0  0
  6  7  1  0  0  0  0
  7 20  1  0  0  0  0
  8 24  1  0  0  0  0
 10  1  1  0  0  0  0
 12  2  1  0  0  0  0
 13  2  1  0  0  0  0
 15  5  1  0  0  0  0
 16  5  1  0  0  0  0
 19  7  1  0  0  0  0
 21  7  1  0  0  0  0
 22  8  1  0  0  0  0
 23  8  1  0  0  0  0
M  END
