title
 OpenBabel02282109583D

 22 21  0  0  1  0  0  0  0  0999 V2000
    1.4829    2.9450    0.1925 C   0  0  0  0  0  0  0  0  0  0  0  0
    1.5355    1.4525    0.4761 C   0  0  0  0  0  0  0  0  0  0  0  0
    0.2636    0.9025    0.1946 O   0  0  0  0  0  0  0  0  0  0  0  0
    0.1798   -0.5138    0.2567 C   0  0  1  0  0  0  0  0  0  0  0  0
    0.2294   -1.0417    1.6913 C   0  0  0  0  0  0  0  0  0  0  0  0
   -1.1336   -0.9032   -0.4513 C   0  0  1  0  0  0  0  0  0  0  0  0
   -1.2090   -0.3751   -1.8810 C   0  0  0  0  0  0  0  0  0  0  0  0
   -1.3238   -2.3151   -0.4042 O   0  0  0  0  0  0  0  0  0  0  0  0
    2.4510    3.4084    0.4049 H   0  0  0  0  0  0  0  0  0  0  0  0
    1.2304    3.1291   -0.8557 H   0  0  0  0  0  0  0  0  0  0  0  0
    0.7241    3.4260    0.8164 H   0  0  0  0  0  0  0  0  0  0  0  0
    2.3032    0.9666   -0.1498 H   0  0  0  0  0  0  0  0  0  0  0  0
    1.8177    1.2777    1.5257 H   0  0  0  0  0  0  0  0  0  0  0  0
    1.0165   -0.9515   -0.3216 H   0  0  0  0  0  0  0  0  0  0  0  0
    0.0293   -2.1151    1.6947 H   0  0  0  0  0  0  0  0  0  0  0  0
    1.2046   -0.8691    2.1546 H   0  0  0  0  0  0  0  0  0  0  0  0
   -0.5341   -0.5434    2.2980 H   0  0  0  0  0  0  0  0  0  0  0  0
   -1.9625   -0.4870    0.1342 H   0  0  0  0  0  0  0  0  0  0  0  0
   -0.3951   -0.7928   -2.4892 H   0  0  0  0  0  0  0  0  0  0  0  0
   -2.1592   -0.6622   -2.3393 H   0  0  0  0  0  0  0  0  0  0  0  0
   -1.1132    0.7119   -1.8965 H   0  0  0  0  0  0  0  0  0  0  0  0
   -0.7142   -2.7108   -1.0371 H   0  0  0  0  0  0  0  0  0  0  0  0
  1  9  1  0  0  0  0
  1  2  1  0  0  0  0
  1 11  1  0  0  0  0
  2 13  1  0  0  0  0
  3  4  1  0  0  0  0
  3  2  1  0  0  0  0
  4 14  1  6  0  0  0
  4  5  1  0  0  0  0
  5 15  1  0  0  0  0
  5 16  1  0  0  0  0
  5 17  1  0  0  0  0
  6  8  1  0  0  0  0
  6 18  1  1  0  0  0
  6  4  1  0  0  0  0
  7  6  1  0  0  0  0
 10  1  1  0  0  0  0
 12  2  1  0  0  0  0
 19  7  1  0  0  0  0
 20  7  1  0  0  0  0
 21  7  1  0  0  0  0
 22  8  1  0  0  0  0
M  END
