title
 OpenBabel02282109583D

 22 21  0  0  1  0  0  0  0  0999 V2000
    1.3881    3.0381   -0.3178 C   0  0  0  0  0  0  0  0  0  0  0  0
    1.4227    1.6326   -0.3046 O   0  0  0  0  0  0  0  0  0  0  0  0
    0.1344    1.0516   -0.2788 C   0  0  0  0  0  0  0  0  0  0  0  0
    0.2747   -0.4704   -0.2068 C   0  0  1  0  0  0  0  0  0  0  0  0
    1.0333   -0.8877    1.0608 C   0  0  0  0  0  0  0  0  0  0  0  0
   -1.1175   -1.1266   -0.3403 C   0  0  1  0  0  0  0  0  0  0  0  0
   -1.0695   -2.6477   -0.4896 C   0  0  0  0  0  0  0  0  0  0  0  0
   -1.9924   -0.7408    0.7210 O   0  0  0  0  0  0  0  0  0  0  0  0
    2.4218    3.3930   -0.3344 H   0  0  0  0  0  0  0  0  0  0  0  0
    0.8655    3.4269   -1.2067 H   0  0  0  0  0  0  0  0  0  0  0  0
    0.8866    3.4442    0.5752 H   0  0  0  0  0  0  0  0  0  0  0  0
   -0.4406    1.4173    0.5870 H   0  0  0  0  0  0  0  0  0  0  0  0
   -0.4279    1.3385   -1.1846 H   0  0  0  0  0  0  0  0  0  0  0  0
    0.8636   -0.7798   -1.0811 H   0  0  0  0  0  0  0  0  0  0  0  0
    0.4562   -0.6513    1.9631 H   0  0  0  0  0  0  0  0  0  0  0  0
    1.2611   -1.9574    1.0706 H   0  0  0  0  0  0  0  0  0  0  0  0
    1.9744   -0.3385    1.1251 H   0  0  0  0  0  0  0  0  0  0  0  0
   -1.5933   -0.7108   -1.2379 H   0  0  0  0  0  0  0  0  0  0  0  0
   -0.6479   -3.1248    0.4025 H   0  0  0  0  0  0  0  0  0  0  0  0
   -2.0799   -3.0394   -0.6351 H   0  0  0  0  0  0  0  0  0  0  0  0
   -0.4553   -2.9428   -1.3466 H   0  0  0  0  0  0  0  0  0  0  0  0
   -1.7095   -1.2042    1.5164 H   0  0  0  0  0  0  0  0  0  0  0  0
  1  2  1  0  0  0  0
  1 11  1  0  0  0  0
  2  3  1  0  0  0  0
  3  4  1  0  0  0  0
  3 12  1  0  0  0  0
  4 14  1  6  0  0  0
  4  5  1  0  0  0  0
  5 16  1  0  0  0  0
  5 17  1  0  0  0  0
  5 15  1  0  0  0  0
  6 18  1  6  0  0  0
  6  4  1  0  0  0  0
  6  8  1  0  0  0  0
  7  6  1  0  0  0  0
  7 19  1  0  0  0  0
  8 22  1  0  0  0  0
  9  1  1  0  0  0  0
 10  1  1  0  0  0  0
 13  3  1  0  0  0  0
 20  7  1  0  0  0  0
 21  7  1  0  0  0  0
M  END
