title
 OpenBabel02282109583D

 22 21  0  0  1  0  0  0  0  0999 V2000
    0.9884    2.9128   -0.8689 C   0  0  0  0  0  0  0  0  0  0  0  0
    0.7560    1.5249   -0.8576 O   0  0  0  0  0  0  0  0  0  0  0  0
    0.6957    0.9848    0.4431 C   0  0  0  0  0  0  0  0  0  0  0  0
    0.4953   -0.5310    0.3498 C   0  0  1  0  0  0  0  0  0  0  0  0
    0.5474   -1.0945    1.6575 O   0  0  0  0  0  0  0  0  0  0  0  0
   -0.7609   -0.9547   -0.4403 C   0  0  0  0  0  0  0  0  0  0  0  0
   -0.7258   -2.4631   -0.7185 C   0  0  0  0  0  0  0  0  0  0  0  0
   -2.0690   -0.5588    0.2613 C   0  0  0  0  0  0  0  0  0  0  0  0
    1.0203    3.2319   -1.9135 H   0  0  0  0  0  0  0  0  0  0  0  0
    0.1876    3.4658   -0.3523 H   0  0  0  0  0  0  0  0  0  0  0  0
    1.9455    3.1698   -0.3884 H   0  0  0  0  0  0  0  0  0  0  0  0
    1.6273    1.1821    0.9971 H   0  0  0  0  0  0  0  0  0  0  0  0
   -0.1260    1.4497    1.0184 H   0  0  0  0  0  0  0  0  0  0  0  0
    1.3703   -0.9433   -0.1662 H   0  0  0  0  0  0  0  0  0  0  0  0
   -0.2069   -0.7589    2.1536 H   0  0  0  0  0  0  0  0  0  0  0  0
   -0.7107   -0.4163   -1.3937 H   0  0  0  0  0  0  0  0  0  0  0  0
   -0.6890   -3.0264    0.2193 H   0  0  0  0  0  0  0  0  0  0  0  0
   -1.6122   -2.7829   -1.2757 H   0  0  0  0  0  0  0  0  0  0  0  0
    0.1570   -2.7367   -1.3060 H   0  0  0  0  0  0  0  0  0  0  0  0
   -2.1379    0.5188    0.4406 H   0  0  0  0  0  0  0  0  0  0  0  0
   -2.9302   -0.8423   -0.3515 H   0  0  0  0  0  0  0  0  0  0  0  0
   -2.1832   -1.0754    1.2226 H   0  0  0  0  0  0  0  0  0  0  0  0
  1  2  1  0  0  0  0
  1 11  1  0  0  0  0
  1 10  1  0  0  0  0
  2  3  1  0  0  0  0
  3 12  1  0  0  0  0
  3 13  1  0  0  0  0
  4 14  1  6  0  0  0
  4  3  1  0  0  0  0
  4  5  1  0  0  0  0
  5 15  1  0  0  0  0
  6  8  1  0  0  0  0
  6  4  1  0  0  0  0
  7  6  1  0  0  0  0
  7 17  1  0  0  0  0
  8 20  1  0  0  0  0
  8 22  1  0  0  0  0
  9  1  1  0  0  0  0
 16  6  1  0  0  0  0
 18  7  1  0  0  0  0
 19  7  1  0  0  0  0
 21  8  1  0  0  0  0
M  END
