22
title
C 0.9883588 2.9127681 -0.8688958
O 0.75597566 1.5249175 -0.85758454
C 0.6957373 0.9848376 0.44309872
C 0.49532124 -0.53096414 0.34978145
O 0.54742265 -1.0944693 1.6574581
C -0.7608724 -0.9546881 -0.44028154
C -0.72581774 -2.4631138 -0.71854305
C -2.069046 -0.55879116 0.2613296
H 1.0202974 3.2319071 -1.9135042
H 0.18759164 3.4657643 -0.35227656
H 1.9455066 3.169817 -0.38839355
H 1.6273451 1.182109 0.9971256
H -0.12595907 1.4497088 1.0183681
H 1.3703122 -0.9432893 -0.16615944
H -0.20689777 -0.7589302 2.1536458
H -0.71065265 -0.41628364 -1.3937124
H -0.68900734 -3.0263944 0.2193243
H -1.6121597 -2.7829204 -1.2757182
H 0.1570321 -2.7367148 -1.3059552
H -2.137857 0.5188091 0.44059628
H -2.9301558 -0.8423054 -0.35149857
H -2.1831992 -1.0753782 1.222582
