20
title
C -1.4401895 2.8224041 -0.5135647
O -1.2570345 1.430534 -0.42285597
C 0.04829995 1.0208458 -0.77475834
C 0.14007895 -0.4992558 -0.6133672
O 1.375049 -0.967827 -1.1266632
C -0.03416558 -0.93683356 0.84898233
C -0.20321138 -2.4470546 0.98488665
O 1.1593584 -0.48423973 1.505574
H -1.2744517 3.1897361 -1.5387537
H -2.471905 3.0384238 -0.22446941
H -0.75999254 3.3691075 0.1586398
H 0.27629402 1.2806231 -1.8202019
H 0.7989351 1.5090138 -0.13264476
H -0.65502244 -0.95406336 -1.2146041
H 2.0145311 -0.8228151 -0.41620284
H -0.9087123 -0.4157628 1.2605419
H -0.23198469 -2.7455537 2.0395622
H -1.1418985 -2.7727497 0.5255848
H 0.6234428 -2.966839 0.49310338
H 1.2009491 -0.8919923 2.3750792
