12
title
N 0.8257873 2.284679 -0.20723353
C 0.8567484 1.00072 0.22937192
O 1.780151 0.4552927 0.79235494
C -0.4776929 0.267264 0.005868099
O -1.5340822 0.858319 0.01874995
C -0.40893942 -1.2512708 -0.23486814
N -1.5106478 -1.9014044 0.21644296
O 0.52782947 -1.746692 -0.8214992
H 1.5938689 2.8916113 0.030552812
H -0.05863691 2.6919315 -0.46473876
H -2.315167 -1.3636694 0.4956591
H -1.630604 -2.8710845 -0.028898168
