title
 OpenBabel02282109583D

 12 11  0  0  0  0  0  0  0  0999 V2000
    0.8258    2.2847   -0.2072 N   0  0  0  0  0  0  0  0  0  0  0  0
    0.8567    1.0007    0.2294 C   0  0  0  0  0  0  0  0  0  0  0  0
    1.7802    0.4553    0.7924 O   0  0  0  0  0  0  0  0  0  0  0  0
   -0.4777    0.2673    0.0059 C   0  0  0  0  0  0  0  0  0  0  0  0
   -1.5341    0.8583    0.0187 O   0  0  0  0  0  0  0  0  0  0  0  0
   -0.4089   -1.2513   -0.2349 C   0  0  0  0  0  0  0  0  0  0  0  0
   -1.5106   -1.9014    0.2164 N   0  0  0  0  0  0  0  0  0  0  0  0
    0.5278   -1.7467   -0.8215 O   0  0  0  0  0  0  0  0  0  0  0  0
    1.5939    2.8916    0.0306 H   0  0  0  0  0  0  0  0  0  0  0  0
   -0.0586    2.6919   -0.4647 H   0  0  0  0  0  0  0  0  0  0  0  0
   -2.3152   -1.3637    0.4957 H   0  0  0  0  0  0  0  0  0  0  0  0
   -1.6306   -2.8711   -0.0289 H   0  0  0  0  0  0  0  0  0  0  0  0
  1  9  1  0  0  0  0
  1  2  1  0  0  0  0
  2  3  2  0  0  0  0
  4  5  2  0  0  0  0
  4  2  1  0  0  0  0
  6  4  1  0  0  0  0
  6  7  1  0  0  0  0
  7 11  1  0  0  0  0
  8  6  2  0  0  0  0
 10  1  1  0  0  0  0
 12  7  1  0  0  0  0
M  END
