16
title
C 0.6303907 1.8868616 1.0560607
C 0.73412746 0.38402036 0.9708001
O 0.92609465 -0.31795645 1.9376204
C 0.57142097 -0.30433202 -0.39861885
O 0.8433975 -1.6631565 -0.2828206
C -0.8848824 -0.071515135 -0.9053469
C -1.0740376 0.9747234 -1.9846244
O -1.7886733 -0.7267614 -0.4549097
H 1.2576941 2.3693166 0.29978785
H -0.4043124 2.1976554 0.86947036
H 0.9231826 2.2193763 2.0525084
H 1.2715315 0.16299742 -1.1075363
H 0.85075736 -1.8426383 0.6720705
H -0.55375534 1.9064602 -1.7380354
H -0.6305763 0.6053584 -2.9175584
H -2.1362448 1.1658162 -2.1410348
