18
title
C 0.33081612 1.9591235 0.14785117
C 0.27424794 0.52308255 -0.40192
C 1.0477663 -0.41399312 0.53610265
C 2.5435956 -0.52328414 0.3100996
O 0.48708746 -1.0152358 1.4238234
C -1.1792632 0.054969333 -0.5968936
C -1.3817021 -1.363383 -1.0919282
O -2.106919 0.7981656 -0.3847871
H 1.3610231 2.3206058 0.2096656
H -0.23768733 2.6279092 -0.5007165
H -0.1181561 2.001303 1.1429389
H 0.75948805 0.49562174 -1.3883128
H 3.0035622 0.46440998 0.20556647
H 3.0063524 -1.0685958 1.1333417
H 2.7291274 -1.0595357 -0.6286991
H -0.68169284 -1.6120375 -1.8967458
H -1.1905906 -2.0543358 -0.2649268
H -2.409035 -1.4882354 -1.4359372
