17
title
C 0.56239176 1.6147923 -0.8949511
C 0.45290756 0.12202249 -0.49598905
C 0.84083974 -0.019386007 0.9747411
C 2.2313037 -0.54512906 1.2540202
O 0.087823346 0.2954781 1.8752767
C -0.9502292 -0.40533572 -0.86078304
N -1.9425371 -0.06282279 0.0010466068
O -1.1257887 -1.0205535 -1.8947847
H 1.5818595 1.9863012 -0.7513266
H 0.3004692 1.7324457 -1.9493549
H -0.1158891 2.2238972 -0.2927651
H 1.1430618 -0.456075 -1.1145929
H 2.9788637 0.016088145 0.68260694
H 2.4509547 -0.4876418 2.320525
H 2.2984946 -1.5871418 0.9189675
H -1.6950123 0.26350528 0.925532
H -2.857036 -0.4488818 -0.17089717
