title
 OpenBabel02282109583D

 16 15  0  0  0  0  0  0  0  0999 V2000
   -0.8498    1.5667   -0.7877 C   0  0  0  0  0  0  0  0  0  0  0  0
   -0.0111    0.6919    0.1702 C   0  0  0  0  0  0  0  0  0  0  0  0
   -0.9109   -0.3654    0.8070 C   0  0  0  0  0  0  0  0  0  0  0  0
   -1.1274   -0.2221    2.1392 N   0  0  0  0  0  0  0  0  0  0  0  0
   -1.4273   -1.2680    0.1615 O   0  0  0  0  0  0  0  0  0  0  0  0
    1.1895    0.0925   -0.5954 C   0  0  0  0  0  0  0  0  0  0  0  0
    0.8944   -0.9792   -1.3719 N   0  0  0  0  0  0  0  0  0  0  0  0
    2.2859    0.6155   -0.5325 O   0  0  0  0  0  0  0  0  0  0  0  0
   -0.2051    2.2965   -1.2837 H   0  0  0  0  0  0  0  0  0  0  0  0
   -1.3318    0.9458   -1.5459 H   0  0  0  0  0  0  0  0  0  0  0  0
   -1.6270    2.1070   -0.2387 H   0  0  0  0  0  0  0  0  0  0  0  0
    0.4386    1.3284    0.9361 H   0  0  0  0  0  0  0  0  0  0  0  0
   -0.6747    0.4897    2.6843 H   0  0  0  0  0  0  0  0  0  0  0  0
   -1.7132   -0.8963    2.6053 H   0  0  0  0  0  0  0  0  0  0  0  0
    0.0075   -1.4495   -1.2426 H   0  0  0  0  0  0  0  0  0  0  0  0
    1.6530   -1.4335   -1.8534 H   0  0  0  0  0  0  0  0  0  0  0  0
  1 11  1  0  0  0  0
  1  2  1  0  0  0  0
  2  3  1  0  0  0  0
  2 12  1  0  0  0  0
  3  4  1  0  0  0  0
  4 14  1  0  0  0  0
  4 13  1  0  0  0  0
  5  3  2  0  0  0  0
  6  8  2  0  0  0  0
  6  2  1  0  0  0  0
  7 15  1  0  0  0  0
  7  6  1  0  0  0  0
  9  1  1  0  0  0  0
 10  1  1  0  0  0  0
 16  7  1  0  0  0  0
M  END
