16
title
C -1.1144474 1.4891515 0.43616125
N -0.25675315 0.34562758 0.109521106
C 0.48842925 -0.27553448 1.0992724
C 0.35847443 0.2927663 2.5003355
O 1.2239873 -1.2328639 0.89900106
C -0.2685475 -0.04653629 -1.2821658
N 0.5142995 -1.0956776 -1.5987475
O -0.9564388 0.5610217 -2.079509
H -1.5916909 1.800152 -0.48986748
H -1.8840742 1.2129031 1.1619406
H -0.52968025 2.3218505 0.8362851
H -0.67300427 0.24300045 2.8615222
H 0.9992078 -0.29834744 3.1531174
H 0.6674115 1.341484 2.5404375
H 1.061015 -1.5536702 -0.8798879
H 0.5133446 -1.3763694 -2.5634992
