15
title
C -0.32320395 1.8809822 -0.040364463
N -0.04889556 0.4453815 -0.011704517
C -0.1616589 -0.27399802 1.2140203
N 0.26151183 0.46570197 2.3087838
O -0.6288012 -1.3782426 1.3127254
C 0.2150864 -0.26718384 -1.1977711
N 0.08262625 0.4859848 -2.3546357
O 0.52278256 -1.4351879 -1.2270981
H 0.56559014 2.4732735 -0.29827648
H -1.1175464 2.1044066 -0.75996804
H -0.66781515 2.195463 0.9431506
H 1.0440192 1.0908897 2.18817
H 0.28489915 -0.08199542 3.1559932
H 0.21771787 1.4826889 -2.344158
H 0.467793 0.012059991 -3.1568422
