18
title
C -0.5670909 1.7884257 -1.1403829
C -0.32601243 0.26637968 -1.2694656
C 0.4283174 -0.08642451 -2.552581
C 0.42476162 -0.21308507 -0.039713502
O 1.6076584 -0.46755177 -0.019015789
C -0.3989146 -0.3739621 1.2676119
C 0.3883759 -0.73686355 2.5023956
O -1.5988594 -0.22354813 1.2497095
H 0.38326475 2.3320785 -1.1141646
H -1.1365141 2.1453488 -2.0034711
H -1.1344911 2.0290375 -0.238271
H -1.3085634 -0.21797155 -1.2518957
H 1.4218847 0.37001112 -2.5570385
H 0.56270635 -1.1673841 -2.6518857
H -0.1225939 0.27198952 -3.4271095
H 0.9488404 -1.6609532 2.3317695
H 1.13595 0.035867073 2.7099273
H -0.2876479 -0.8481655 3.350268
