title
 OpenBabel02282109583D

 17 16  0  0  0  0  0  0  0  0999 V2000
    1.1799    1.8250    0.1984 C   0  0  0  0  0  0  0  0  0  0  0  0
    1.2431    0.2898    0.3793 C   0  0  0  0  0  0  0  0  0  0  0  0
    1.9929   -0.1102    1.6509 C   0  0  0  0  0  0  0  0  0  0  0  0
   -0.1696   -0.2557    0.3763 C   0  0  0  0  0  0  0  0  0  0  0  0
   -0.7662   -0.6186    1.3664 O   0  0  0  0  0  0  0  0  0  0  0  0
   -0.8727   -0.3299   -1.0061 C   0  0  0  0  0  0  0  0  0  0  0  0
   -2.1450   -0.7704   -0.9035 N   0  0  0  0  0  0  0  0  0  0  0  0
   -0.3047   -0.0221   -2.0378 O   0  0  0  0  0  0  0  0  0  0  0  0
    2.1951    2.2310    0.1646 H   0  0  0  0  0  0  0  0  0  0  0  0
    0.6738    2.0908   -0.7319 H   0  0  0  0  0  0  0  0  0  0  0  0
    0.6552    2.2953    1.0368 H   0  0  0  0  0  0  0  0  0  0  0  0
    1.7373   -0.1161   -0.5103 H   0  0  0  0  0  0  0  0  0  0  0  0
    1.4832    0.2721    2.5396 H   0  0  0  0  0  0  0  0  0  0  0  0
    2.0581   -1.1974    1.7509 H   0  0  0  0  0  0  0  0  0  0  0  0
    3.0093    0.2938    1.6336 H   0  0  0  0  0  0  0  0  0  0  0  0
   -2.4987   -1.0179    0.0066 H   0  0  0  0  0  0  0  0  0  0  0  0
   -2.7073   -0.8844   -1.7294 H   0  0  0  0  0  0  0  0  0  0  0  0
  1  2  1  0  0  0  0
  1 11  1  0  0  0  0
  2  3  1  0  0  0  0
  3 14  1  0  0  0  0
  3 13  1  0  0  0  0
  4  2  1  0  0  0  0
  4  5  2  0  0  0  0
  6  7  1  0  0  0  0
  6  4  1  0  0  0  0
  7 16  1  0  0  0  0
  8  6  2  0  0  0  0
  9  1  1  0  0  0  0
 10  1  1  0  0  0  0
 12  2  1  0  0  0  0
 15  3  1  0  0  0  0
 17  7  1  0  0  0  0
M  END
