17
title
C 1.1799318 1.8249936 0.1983843
C 1.2430644 0.28982636 0.3793412
C 1.9928737 -0.11018506 1.650892
C -0.16957681 -0.25573638 0.37633196
O -0.7661788 -0.61862963 1.3663518
C -0.87270755 -0.32992753 -1.0061171
N -2.1450214 -0.77037674 -0.90348136
O -0.3047351 -0.022133112 -2.0377939
H 2.1950758 2.2310438 0.16456148
H 0.67382085 2.090825 -0.73185
H 0.65523034 2.2952821 1.0368261
H 1.7372794 -0.116131306 -0.51032174
H 1.4831604 0.27212298 2.5395954
H 2.0580623 -1.1974404 1.7509495
H 3.0092573 0.2938429 1.6336157
H -2.498718 -1.0179427 0.006606468
H -2.7072806 -0.884371 -1.7293812
