16
title
C -0.7576108 1.8539375 0.87102574
C -0.89054245 0.32018638 0.936048
O -2.2412663 -0.06451777 0.9775301
C -0.20922548 -0.33300686 -0.2565405
O -0.85344595 -0.9207609 -1.0993664
C 1.3291427 -0.25887424 -0.36935243
C 1.9283878 -0.8340854 -1.6267854
O 1.9703475 0.22249982 0.53549355
H 0.2859068 2.1640742 0.9534963
H -1.1820555 2.2363577 -0.06258003
H -1.3241884 2.2817042 1.7013093
H -0.3770975 -0.03160415 1.8424522
H -2.418399 -0.52211356 0.1420537
H 1.5401388 -0.30396944 -2.5029647
H 3.0146034 -0.75387436 -1.5859362
H 1.6232823 -1.8785306 -1.7437283
