title
 OpenBabel02282109583D

 15 14  0  0  1  0  0  0  0  0999 V2000
    1.1942    1.8083    0.1682 C   0  0  0  0  0  0  0  0  0  0  0  0
    1.2584    0.2747    0.3098 C   0  0  1  0  0  0  0  0  0  0  0  0
    1.9493   -0.0986    1.4756 O   0  0  0  0  0  0  0  0  0  0  0  0
   -0.1378   -0.3174    0.3265 C   0  0  0  0  0  0  0  0  0  0  0  0
   -0.5876   -0.8428    1.3241 O   0  0  0  0  0  0  0  0  0  0  0  0
   -0.9727   -0.2469   -0.9688 C   0  0  0  0  0  0  0  0  0  0  0  0
   -2.2092   -0.7639   -0.8071 N   0  0  0  0  0  0  0  0  0  0  0  0
   -0.5193    0.2204   -1.9963 O   0  0  0  0  0  0  0  0  0  0  0  0
    2.2128    2.1989    0.2250 H   0  0  0  0  0  0  0  0  0  0  0  0
    0.7501    2.0920   -0.7873 H   0  0  0  0  0  0  0  0  0  0  0  0
    0.6158    2.2445    0.9887 H   0  0  0  0  0  0  0  0  0  0  0  0
    1.7745   -0.1299   -0.5724 H   0  0  0  0  0  0  0  0  0  0  0  0
    1.2921   -0.4903    2.0691 H   0  0  0  0  0  0  0  0  0  0  0  0
   -2.4669   -1.1510    0.0862 H   0  0  0  0  0  0  0  0  0  0  0  0
   -2.8429   -0.8005   -1.5877 H   0  0  0  0  0  0  0  0  0  0  0  0
  1  9  1  0  0  0  0
  1  2  1  0  0  0  0
  1 11  1  0  0  0  0
  2 12  1  6  0  0  0
  2  4  1  0  0  0  0
  2  3  1  0  0  0  0
  3 13  1  0  0  0  0
  4  5  2  0  0  0  0
  6  7  1  0  0  0  0
  6  4  1  0  0  0  0
  7 14  1  0  0  0  0
  8  6  2  0  0  0  0
 10  1  1  0  0  0  0
 15  7  1  0  0  0  0
M  END
