title
 OpenBabel02282109583D

 18 17  0  0  0  0  0  0  0  0999 V2000
    0.0672    2.2706    1.0592 C   0  0  0  0  0  0  0  0  0  0  0  0
   -0.2289    0.8714    0.7883 N   0  0  0  0  0  0  0  0  0  0  0  0
   -0.4492    0.0561    1.9734 C   0  0  0  0  0  0  0  0  0  0  0  0
    0.3520    0.3096   -0.3274 C   0  0  0  0  0  0  0  0  0  0  0  0
    1.1077    0.9875   -1.1082 N   0  0  0  0  0  0  0  0  0  0  0  0
   -0.0537   -1.1214   -0.6839 C   0  0  0  0  0  0  0  0  0  0  0  0
   -1.5331   -1.3639   -0.9236 C   0  0  0  0  0  0  0  0  0  0  0  0
    0.7858   -1.9684   -0.8812 O   0  0  0  0  0  0  0  0  0  0  0  0
    1.0722    2.4068    1.4836 H   0  0  0  0  0  0  0  0  0  0  0  0
    0.0181    2.8366    0.1295 H   0  0  0  0  0  0  0  0  0  0  0  0
   -0.6704    2.6553    1.7699 H   0  0  0  0  0  0  0  0  0  0  0  0
   -0.6469   -0.9828    1.7030 H   0  0  0  0  0  0  0  0  0  0  0  0
    0.4236    0.0637    2.6438 H   0  0  0  0  0  0  0  0  0  0  0  0
   -1.3113    0.4350    2.5324 H   0  0  0  0  0  0  0  0  0  0  0  0
    1.3906    0.4165   -1.9034 H   0  0  0  0  0  0  0  0  0  0  0  0
   -1.8336   -0.8036   -1.8176 H   0  0  0  0  0  0  0  0  0  0  0  0
   -1.7108   -2.4274   -1.0893 H   0  0  0  0  0  0  0  0  0  0  0  0
   -2.1486   -0.9904   -0.1018 H   0  0  0  0  0  0  0  0  0  0  0  0
  1  9  1  0  0  0  0
  1 11  1  0  0  0  0
  2  1  1  0  0  0  0
  2  3  1  0  0  0  0
  3 14  1  0  0  0  0
  3 13  1  0  0  0  0
  4  2  1  0  0  0  0
  5  4  2  0  0  0  0
  6  4  1  0  0  0  0
  7  6  1  0  0  0  0
  7 18  1  0  0  0  0
  8  6  2  0  0  0  0
 10  1  1  0  0  0  0
 12  3  1  0  0  0  0
 15  5  1  0  0  0  0
 16  7  1  0  0  0  0
 17  7  1  0  0  0  0
M  END
