17
title
C 0.5596086 2.1876879 1.1439488
N 0.3433026 0.7697748 0.89302266
C 0.5430111 -0.10114474 2.0410442
C -0.01739692 0.38308465 -0.35996354
O -0.131313 1.1539267 -1.3047134
C -0.36325726 -1.1002587 -0.63259184
C -0.0023701717 -1.567964 -2.0217962
O -0.95680076 -1.7850081 0.16866235
H 1.5809228 2.3587017 1.5045818
H 0.40111765 2.7337701 0.21598576
H -0.13909698 2.5496004 1.9082072
H -0.22119027 0.08655178 2.805624
H 0.48700374 -1.1468757 1.7574133
H 1.5246391 0.10464745 2.4851222
H -0.44566694 -0.896342 -2.7605202
H 1.0831802 -1.5107399 -2.1637201
H -0.34528336 -2.593048 -2.1638684
