title
 OpenBabel02282109583D

 17 16  0  0  0  0  0  0  0  0999 V2000
    0.5596    2.1877    1.1439 C   0  0  0  0  0  0  0  0  0  0  0  0
    0.3433    0.7698    0.8930 N   0  0  0  0  0  0  0  0  0  0  0  0
    0.5430   -0.1011    2.0410 C   0  0  0  0  0  0  0  0  0  0  0  0
   -0.0174    0.3831   -0.3600 C   0  0  0  0  0  0  0  0  0  0  0  0
   -0.1313    1.1539   -1.3047 O   0  0  0  0  0  0  0  0  0  0  0  0
   -0.3633   -1.1003   -0.6326 C   0  0  0  0  0  0  0  0  0  0  0  0
   -0.0024   -1.5680   -2.0218 C   0  0  0  0  0  0  0  0  0  0  0  0
   -0.9568   -1.7850    0.1687 O   0  0  0  0  0  0  0  0  0  0  0  0
    1.5809    2.3587    1.5046 H   0  0  0  0  0  0  0  0  0  0  0  0
    0.4011    2.7338    0.2160 H   0  0  0  0  0  0  0  0  0  0  0  0
   -0.1391    2.5496    1.9082 H   0  0  0  0  0  0  0  0  0  0  0  0
   -0.2212    0.0866    2.8056 H   0  0  0  0  0  0  0  0  0  0  0  0
    0.4870   -1.1469    1.7574 H   0  0  0  0  0  0  0  0  0  0  0  0
    1.5246    0.1046    2.4851 H   0  0  0  0  0  0  0  0  0  0  0  0
   -0.4457   -0.8963   -2.7605 H   0  0  0  0  0  0  0  0  0  0  0  0
    1.0832   -1.5107   -2.1637 H   0  0  0  0  0  0  0  0  0  0  0  0
   -0.3453   -2.5930   -2.1639 H   0  0  0  0  0  0  0  0  0  0  0  0
  1  9  1  0  0  0  0
  1 11  1  0  0  0  0
  2  1  1  0  0  0  0
  2  3  1  0  0  0  0
  3 14  1  0  0  0  0
  3 12  1  0  0  0  0
  4  2  1  0  0  0  0
  5  4  2  0  0  0  0
  6  4  1  0  0  0  0
  6  8  2  0  0  0  0
  7  6  1  0  0  0  0
 10  1  1  0  0  0  0
 13  3  1  0  0  0  0
 15  7  1  0  0  0  0
 16  7  1  0  0  0  0
 17  7  1  0  0  0  0
M  END
