16
title
C 0.64637214 2.2369938 0.9993313
N 0.31583235 0.82354933 0.86427355
C 0.34840682 0.07307442 2.1146894
C 0.018820755 0.35426715 -0.3723844
O 0.01756028 1.06798 -1.3726202
C -0.34271705 -1.1517813 -0.57834697
N -0.59586 -1.3695085 -1.8849016
O -0.39605922 -2.0146294 0.28114936
H 1.6553316 2.3482213 1.4141291
H 0.59651715 2.7098079 0.021371799
H -0.05947689 2.723611 1.6830167
H 0.09286661 -0.96598697 1.9385686
H 1.3507583 0.14070036 2.55602
H -0.36051768 0.51591915 2.8255625
H -0.5250316 -0.5895742 -2.5193503
H -0.84570545 -2.2940035 -2.1900375
