title
 OpenBabel02282109583D

 16 15  0  0  0  0  0  0  0  0999 V2000
    0.6464    2.2370    0.9993 C   0  0  0  0  0  0  0  0  0  0  0  0
    0.3158    0.8235    0.8643 N   0  0  0  0  0  0  0  0  0  0  0  0
    0.3484    0.0731    2.1147 C   0  0  0  0  0  0  0  0  0  0  0  0
    0.0188    0.3543   -0.3724 C   0  0  0  0  0  0  0  0  0  0  0  0
    0.0176    1.0680   -1.3726 O   0  0  0  0  0  0  0  0  0  0  0  0
   -0.3427   -1.1518   -0.5783 C   0  0  0  0  0  0  0  0  0  0  0  0
   -0.5959   -1.3695   -1.8849 N   0  0  0  0  0  0  0  0  0  0  0  0
   -0.3961   -2.0146    0.2811 O   0  0  0  0  0  0  0  0  0  0  0  0
    1.6553    2.3482    1.4141 H   0  0  0  0  0  0  0  0  0  0  0  0
    0.5965    2.7098    0.0214 H   0  0  0  0  0  0  0  0  0  0  0  0
   -0.0595    2.7236    1.6830 H   0  0  0  0  0  0  0  0  0  0  0  0
    0.0929   -0.9660    1.9386 H   0  0  0  0  0  0  0  0  0  0  0  0
    1.3508    0.1407    2.5560 H   0  0  0  0  0  0  0  0  0  0  0  0
   -0.3605    0.5159    2.8256 H   0  0  0  0  0  0  0  0  0  0  0  0
   -0.5250   -0.5896   -2.5194 H   0  0  0  0  0  0  0  0  0  0  0  0
   -0.8457   -2.2940   -2.1900 H   0  0  0  0  0  0  0  0  0  0  0  0
  1  9  1  0  0  0  0
  1 11  1  0  0  0  0
  2  1  1  0  0  0  0
  2  3  1  0  0  0  0
  3 13  1  0  0  0  0
  3 14  1  0  0  0  0
  4  2  1  0  0  0  0
  5  4  2  0  0  0  0
  6  4  1  0  0  0  0
  6  8  2  0  0  0  0
  7  6  1  0  0  0  0
 10  1  1  0  0  0  0
 12  3  1  0  0  0  0
 15  7  1  0  0  0  0
 16  7  1  0  0  0  0
M  END
