22
title
C -0.5351086 1.9708198 -1.1790853
C -0.45492363 0.42976 -1.2388617
C 0.1931996 -0.046515442 -2.5411282
C 0.32525966 -0.051007368 -0.011783786
O 1.5209914 -0.2377073 -0.054247923
C -0.47719005 -0.2850277 1.2715709
C -1.0225314 -1.7293837 1.2356939
C 0.3727925 -0.03894279 2.520514
H 0.46674785 2.406913 -1.2464812
H -1.1299309 2.3522627 -2.014547
H -0.99661005 2.3234687 -0.25114644
H -1.4779562 0.03844776 -1.166154
H 1.2337385 0.28397423 -2.5886862
H 0.1907961 -1.1383986 -2.6107385
H -0.34281987 0.35258454 -3.4078212
H -1.33687 0.3975054 1.2646697
H -1.6453979 -1.9214838 2.1145823
H -1.6319976 -1.917362 0.34594804
H -0.19676891 -2.448075 1.2389917
H 0.70413965 1.0022259 2.5775948
H -0.19718343 -0.26653168 3.42665
H 1.2661263 -0.6680151 2.4999192
