title
 OpenBabel02282109583D

 22 21  0  0  0  0  0  0  0  0999 V2000
   -0.5351    1.9708   -1.1791 C   0  0  0  0  0  0  0  0  0  0  0  0
   -0.4549    0.4298   -1.2389 C   0  0  0  0  0  0  0  0  0  0  0  0
    0.1932   -0.0465   -2.5411 C   0  0  0  0  0  0  0  0  0  0  0  0
    0.3253   -0.0510   -0.0118 C   0  0  0  0  0  0  0  0  0  0  0  0
    1.5210   -0.2377   -0.0542 O   0  0  0  0  0  0  0  0  0  0  0  0
   -0.4772   -0.2850    1.2716 C   0  0  0  0  0  0  0  0  0  0  0  0
   -1.0225   -1.7294    1.2357 C   0  0  0  0  0  0  0  0  0  0  0  0
    0.3728   -0.0389    2.5205 C   0  0  0  0  0  0  0  0  0  0  0  0
    0.4667    2.4069   -1.2465 H   0  0  0  0  0  0  0  0  0  0  0  0
   -1.1299    2.3523   -2.0145 H   0  0  0  0  0  0  0  0  0  0  0  0
   -0.9966    2.3235   -0.2511 H   0  0  0  0  0  0  0  0  0  0  0  0
   -1.4780    0.0384   -1.1662 H   0  0  0  0  0  0  0  0  0  0  0  0
    1.2337    0.2840   -2.5887 H   0  0  0  0  0  0  0  0  0  0  0  0
    0.1908   -1.1384   -2.6107 H   0  0  0  0  0  0  0  0  0  0  0  0
   -0.3428    0.3526   -3.4078 H   0  0  0  0  0  0  0  0  0  0  0  0
   -1.3369    0.3975    1.2647 H   0  0  0  0  0  0  0  0  0  0  0  0
   -1.6454   -1.9215    2.1146 H   0  0  0  0  0  0  0  0  0  0  0  0
   -1.6320   -1.9174    0.3459 H   0  0  0  0  0  0  0  0  0  0  0  0
   -0.1968   -2.4481    1.2390 H   0  0  0  0  0  0  0  0  0  0  0  0
    0.7041    1.0022    2.5776 H   0  0  0  0  0  0  0  0  0  0  0  0
   -0.1972   -0.2665    3.4266 H   0  0  0  0  0  0  0  0  0  0  0  0
    1.2661   -0.6680    2.4999 H   0  0  0  0  0  0  0  0  0  0  0  0
  1 11  1  0  0  0  0
  2  1  1  0  0  0  0
  2 12  1  0  0  0  0
  2  4  1  0  0  0  0
  3  2  1  0  0  0  0
  4  6  1  0  0  0  0
  5  4  2  0  0  0  0
  6  8  1  0  0  0  0
  7 19  1  0  0  0  0
  7  6  1  0  0  0  0
  7 17  1  0  0  0  0
  8 20  1  0  0  0  0
  8 21  1  0  0  0  0
  9  1  1  0  0  0  0
 10  1  1  0  0  0  0
 13  3  1  0  0  0  0
 14  3  1  0  0  0  0
 15  3  1  0  0  0  0
 16  6  1  0  0  0  0
 18  7  1  0  0  0  0
 22  8  1  0  0  0  0
M  END
