title
 OpenBabel02282109583D

 21 20  0  0  0  0  0  0  0  0999 V2000
   -1.1781    1.5881    1.0518 C   0  0  0  0  0  0  0  0  0  0  0  0
   -0.7593    0.1047    1.0777 C   0  0  0  0  0  0  0  0  0  0  0  0
   -1.9532   -0.7984    1.4089 C   0  0  0  0  0  0  0  0  0  0  0  0
   -0.1848   -0.2837   -0.2941 C   0  0  0  0  0  0  0  0  0  0  0  0
   -0.9109   -0.7743   -1.1459 O   0  0  0  0  0  0  0  0  0  0  0  0
    1.1459   -0.0386   -0.5442 N   0  0  0  0  0  0  0  0  0  0  0  0
    1.6907   -0.3983   -1.8437 C   0  0  0  0  0  0  0  0  0  0  0  0
    2.0985    0.5691    0.3631 C   0  0  0  0  0  0  0  0  0  0  0  0
   -0.3320    2.2554    0.8598 H   0  0  0  0  0  0  0  0  0  0  0  0
   -1.9207    1.7545    0.2651 H   0  0  0  0  0  0  0  0  0  0  0  0
   -1.6251    1.8765    2.0083 H   0  0  0  0  0  0  0  0  0  0  0  0
   -0.0029   -0.0343    1.8568 H   0  0  0  0  0  0  0  0  0  0  0  0
   -2.7146   -0.7227    0.6303 H   0  0  0  0  0  0  0  0  0  0  0  0
   -1.6516   -1.8476    1.4742 H   0  0  0  0  0  0  0  0  0  0  0  0
   -2.3919   -0.5065    2.3685 H   0  0  0  0  0  0  0  0  0  0  0  0
    2.0624    0.4915   -2.3683 H   0  0  0  0  0  0  0  0  0  0  0  0
    2.5277   -1.0989   -1.7282 H   0  0  0  0  0  0  0  0  0  0  0  0
    0.9010   -0.8628   -2.4306 H   0  0  0  0  0  0  0  0  0  0  0  0
    1.6250    0.9012    1.2833 H   0  0  0  0  0  0  0  0  0  0  0  0
    2.9009   -0.1357    0.6221 H   0  0  0  0  0  0  0  0  0  0  0  0
    2.5667    1.4434   -0.1087 H   0  0  0  0  0  0  0  0  0  0  0  0
  1  2  1  0  0  0  0
  1 11  1  0  0  0  0
  2  3  1  0  0  0  0
  2 12  1  0  0  0  0
  3 14  1  0  0  0  0
  3 15  1  0  0  0  0
  4  2  1  0  0  0  0
  5  4  2  0  0  0  0
  6  4  1  0  0  0  0
  6  8  1  0  0  0  0
  7 17  1  0  0  0  0
  7  6  1  0  0  0  0
  8 20  1  0  0  0  0
  8 19  1  0  0  0  0
  9  1  1  0  0  0  0
 10  1  1  0  0  0  0
 13  3  1  0  0  0  0
 16  7  1  0  0  0  0
 18  7  1  0  0  0  0
 21  8  1  0  0  0  0
M  END
