18
title
C -0.89088213 1.7929995 -1.1400285
C -0.36782613 0.3549627 -1.2821765
O 0.4801189 0.25727126 -2.3961434
C 0.3658286 -0.114526056 -0.028613146
O 1.5244814 -0.4777759 -0.11945086
C -0.31780052 -0.14003482 1.3359796
C -1.5784097 -1.0190096 1.3333551
O 0.5833255 -0.590771 2.3128564
H -0.07161103 2.4796953 -0.9075968
H -1.3313357 2.0974672 -2.0922472
H -1.6561338 1.873877 -0.36257595
H -1.2329522 -0.31648222 -1.416105
H 1.3184952 -0.09639039 -2.0611496
H -0.61927664 0.89700395 1.5615216
H -1.9733706 -1.0618417 2.350995
H -2.355194 -0.61642784 0.6767557
H -1.3367481 -2.0381758 1.0176264
H 1.4163923 -0.76110893 1.8468632
