title
 OpenBabel02282109583D

 18 17  0  0  1  0  0  0  0  0999 V2000
   -0.8909    1.7930   -1.1400 C   0  0  0  0  0  0  0  0  0  0  0  0
   -0.3678    0.3550   -1.2822 C   0  0  1  0  0  0  0  0  0  0  0  0
    0.4801    0.2573   -2.3961 O   0  0  0  0  0  0  0  0  0  0  0  0
    0.3658   -0.1145   -0.0286 C   0  0  0  0  0  0  0  0  0  0  0  0
    1.5245   -0.4778   -0.1195 O   0  0  0  0  0  0  0  0  0  0  0  0
   -0.3178   -0.1400    1.3360 C   0  0  1  0  0  0  0  0  0  0  0  0
   -1.5784   -1.0190    1.3334 C   0  0  0  0  0  0  0  0  0  0  0  0
    0.5833   -0.5908    2.3129 O   0  0  0  0  0  0  0  0  0  0  0  0
   -0.0716    2.4797   -0.9076 H   0  0  0  0  0  0  0  0  0  0  0  0
   -1.3313    2.0975   -2.0922 H   0  0  0  0  0  0  0  0  0  0  0  0
   -1.6561    1.8739   -0.3626 H   0  0  0  0  0  0  0  0  0  0  0  0
   -1.2330   -0.3165   -1.4161 H   0  0  0  0  0  0  0  0  0  0  0  0
    1.3185   -0.0964   -2.0611 H   0  0  0  0  0  0  0  0  0  0  0  0
   -0.6193    0.8970    1.5615 H   0  0  0  0  0  0  0  0  0  0  0  0
   -1.9734   -1.0618    2.3510 H   0  0  0  0  0  0  0  0  0  0  0  0
   -2.3552   -0.6164    0.6768 H   0  0  0  0  0  0  0  0  0  0  0  0
   -1.3367   -2.0382    1.0176 H   0  0  0  0  0  0  0  0  0  0  0  0
    1.4164   -0.7611    1.8469 H   0  0  0  0  0  0  0  0  0  0  0  0
  1  9  1  0  0  0  0
  1 11  1  0  0  0  0
  2 12  1  6  0  0  0
  2  1  1  0  0  0  0
  2  4  1  0  0  0  0
  3 13  1  0  0  0  0
  3  2  1  0  0  0  0
  4  6  1  0  0  0  0
  5  4  2  0  0  0  0
  6 14  1  1  0  0  0
  6  8  1  0  0  0  0
  7  6  1  0  0  0  0
  7 15  1  0  0  0  0
 10  1  1  0  0  0  0
 16  7  1  0  0  0  0
 17  7  1  0  0  0  0
 18  8  1  0  0  0  0
M  END
