22
title
C -0.5558201 2.4239542 -0.81606025
C -0.4091264 0.89669424 -0.8418151
C 0.41001123 0.4648568 -2.0680625
C 0.21317554 0.3369557 0.45793822
C -0.5217329 0.7869567 1.7390041
C 0.19714904 -1.197375 0.4600716
C 1.4273816 -1.8916998 1.0150555
O -0.76308316 -1.8200426 0.06542997
H 0.4133488 2.9139574 -0.65876687
H -0.9525108 2.783326 -1.771247
H -1.2356727 2.7648487 -0.030882673
H -1.4060342 0.44801825 -0.92757344
H 1.4272243 0.8742569 -2.026348
H 0.4827001 -0.6237906 -2.143291
H -0.051703244 0.8284442 -2.9915867
H 1.2572056 0.6732097 0.5264893
H -1.5827901 0.525549 1.6795266
H -0.10707635 0.29925165 2.6277373
H -0.4349966 1.8654519 1.8879266
H 1.7189236 -1.4624417 1.9797447
H 1.2438768 -2.9618447 1.119124
H 2.2708967 -1.7310894 0.33251837
