20
title
C -0.64842516 1.3809279 -1.3052611
C -0.3756721 -0.12790185 -1.2471896
C 0.3563388 -0.61023647 -2.5061476
C 0.4484892 -0.50300217 0.012120506
O 1.698862 0.13331564 0.0025522918
C -0.28219715 -0.17271334 1.3163619
C -1.6292257 -0.8047518 1.5795147
O 0.2436766 0.58219516 2.108734
H 0.29554677 1.9327195 -1.3074437
H -1.1996416 1.6402218 -2.214054
H -1.2365975 1.728888 -0.44886038
H -1.3322299 -0.6638462 -1.1820301
H 1.3402302 -0.13844116 -2.579061
H 0.5029406 -1.6955733 -2.490416
H -0.21329759 -0.35954604 -3.4066176
H 0.58868945 -1.5994029 0.0037322254
H 1.7299865 0.6362992 0.83351684
H -1.6428983 -1.8570012 1.2803047
H -1.8791271 -0.7084251 2.6368885
H -2.3969848 -0.29100245 0.98951817
