title
 OpenBabel02282109583D

 19 18  0  0  1  0  0  0  0  0999 V2000
   -0.4769    1.4874   -1.2570 C   0  0  0  0  0  0  0  0  0  0  0  0
   -0.3793   -0.0433   -1.2647 C   0  0  0  0  0  0  0  0  0  0  0  0
    0.3105   -0.5538   -2.5362 C   0  0  0  0  0  0  0  0  0  0  0  0
    0.3750   -0.5702   -0.0165 C   0  0  1  0  0  0  0  0  0  0  0  0
    1.6913   -0.0853    0.0234 O   0  0  0  0  0  0  0  0  0  0  0  0
   -0.3180   -0.1748    1.2976 C   0  0  0  0  0  0  0  0  0  0  0  0
   -1.5512   -0.6906    1.5203 N   0  0  0  0  0  0  0  0  0  0  0  0
    0.2413    0.5758    2.0821 O   0  0  0  0  0  0  0  0  0  0  0  0
    0.5239    1.9268   -1.2252 H   0  0  0  0  0  0  0  0  0  0  0  0
   -0.9799    1.8467   -2.1599 H   0  0  0  0  0  0  0  0  0  0  0  0
   -1.0358    1.8580   -0.3918 H   0  0  0  0  0  0  0  0  0  0  0  0
   -1.3961   -0.4613   -1.2338 H   0  0  0  0  0  0  0  0  0  0  0  0
    1.3439   -0.1979   -2.5748 H   0  0  0  0  0  0  0  0  0  0  0  0
    0.3304   -1.6487   -2.5683 H   0  0  0  0  0  0  0  0  0  0  0  0
   -0.2099   -0.1990   -3.4314 H   0  0  0  0  0  0  0  0  0  0  0  0
    0.3941   -1.6720   -0.0697 H   0  0  0  0  0  0  0  0  0  0  0  0
    1.7299    0.4472    0.8373 H   0  0  0  0  0  0  0  0  0  0  0  0
   -1.9747   -1.3514    0.8932 H   0  0  0  0  0  0  0  0  0  0  0  0
   -2.0209   -0.4683    2.3827 H   0  0  0  0  0  0  0  0  0  0  0  0
  1  9  1  0  0  0  0
  1 11  1  0  0  0  0
  2  1  1  0  0  0  0
  2 12  1  0  0  0  0
  2  4  1  0  0  0  0
  3  2  1  0  0  0  0
  4 16  1  6  0  0  0
  4  5  1  0  0  0  0
  4  6  1  0  0  0  0
  5 17  1  0  0  0  0
  6  7  1  0  0  0  0
  6  8  2  0  0  0  0
  7 19  1  0  0  0  0
 10  1  1  0  0  0  0
 13  3  1  0  0  0  0
 14  3  1  0  0  0  0
 15  3  1  0  0  0  0
 18  7  1  0  0  0  0
M  END
