19
title
C -0.47691932 1.4873818 -1.2570418
C -0.37928388 -0.04328844 -1.2647166
C 0.31050056 -0.5537604 -2.5361614
C 0.37495798 -0.5702414 -0.016479276
O 1.6912947 -0.0852852 0.023402907
C -0.31804594 -0.17477676 1.297627
N -1.5511596 -0.69060665 1.5203443
O 0.24128313 0.57576394 2.082072
H 0.52394533 1.9268496 -1.2251779
H -0.97985494 1.8467128 -2.159916
H -1.0358349 1.8579624 -0.3918216
H -1.3960983 -0.4613129 -1.2338331
H 1.3438513 -0.19791134 -2.5747616
H 0.33042186 -1.6486661 -2.5683253
H -0.2098823 -0.19895853 -3.431375
H 0.39414626 -1.6720299 -0.06972995
H 1.7299039 0.44716522 0.83726287
H -1.974721 -1.351401 0.89318085
H -2.020872 -0.4682718 2.382682
