21
title
C -1.269343 1.9410669 0.52197176
C -0.9883505 0.43778992 0.64031684
C -2.2724752 -0.39873198 0.5730248
N 0.0054027117 -0.010651856 -0.3511605
C -0.24982008 0.25557268 -1.7571468
C 1.1821756 -0.559234 0.10206397
C 2.216284 -0.94307315 -0.94891334
O 1.4049944 -0.7438531 1.288785
H -0.3436474 2.5194066 0.5965666
H -1.7587689 2.1967666 -0.42435548
H -1.9342983 2.2599242 1.3303679
H -0.50708836 0.24767545 1.6007242
H -2.8076892 -0.26388618 -0.37379834
H -2.047699 -1.4621551 0.69210136
H -2.9547093 -0.10197821 1.3759264
H 0.1482152 1.2251142 -2.0873637
H 0.17910954 -0.5223043 -2.3902233
H -1.3272381 0.25945452 -1.9382775
H 2.4674885 -0.10794744 -1.6097887
H 3.1111715 -1.267513 -0.41928908
H 1.8618277 -1.7669246 -1.57761
