title
 OpenBabel02282109583D

 20 19  0  0  0  0  0  0  0  0999 V2000
    1.2231    2.0087    0.1146 C   0  0  0  0  0  0  0  0  0  0  0  0
    1.1305    0.4858    0.2778 C   0  0  0  0  0  0  0  0  0  0  0  0
    1.8588   -0.0075    1.5342 C   0  0  0  0  0  0  0  0  0  0  0  0
   -0.2620    0.0151    0.2396 N   0  0  0  0  0  0  0  0  0  0  0  0
   -1.1646    0.3414    1.3288 C   0  0  0  0  0  0  0  0  0  0  0  0
   -0.6768   -0.7036   -0.8593 C   0  0  0  0  0  0  0  0  0  0  0  0
   -1.9947   -1.1577   -0.8091 N   0  0  0  0  0  0  0  0  0  0  0  0
    0.0224   -0.9034   -1.8409 O   0  0  0  0  0  0  0  0  0  0  0  0
    2.2717    2.3199    0.0708 H   0  0  0  0  0  0  0  0  0  0  0  0
    0.7330    2.3257   -0.8099 H   0  0  0  0  0  0  0  0  0  0  0  0
    0.7594    2.5437    0.9515 H   0  0  0  0  0  0  0  0  0  0  0  0
    1.5894    0.0241   -0.5978 H   0  0  0  0  0  0  0  0  0  0  0  0
    1.4385    0.4232    2.4501 H   0  0  0  0  0  0  0  0  0  0  0  0
    1.8065   -1.0973    1.6137 H   0  0  0  0  0  0  0  0  0  0  0  0
    2.9137    0.2807    1.4929 H   0  0  0  0  0  0  0  0  0  0  0  0
   -2.1439    0.6406    0.9441 H   0  0  0  0  0  0  0  0  0  0  0  0
   -1.3056   -0.4904    2.0357 H   0  0  0  0  0  0  0  0  0  0  0  0
   -0.7643    1.1835    1.8964 H   0  0  0  0  0  0  0  0  0  0  0  0
   -2.3723   -1.4368    0.0834 H   0  0  0  0  0  0  0  0  0  0  0  0
   -2.1744   -1.8193   -1.5496 H   0  0  0  0  0  0  0  0  0  0  0  0
  1  2  1  0  0  0  0
  1 11  1  0  0  0  0
  2  3  1  0  0  0  0
  3 14  1  0  0  0  0
  3 13  1  0  0  0  0
  4  2  1  0  0  0  0
  4  5  1  0  0  0  0
  5 18  1  0  0  0  0
  5 17  1  0  0  0  0
  6  7  1  0  0  0  0
  6  4  1  0  0  0  0
  7 19  1  0  0  0  0
  8  6  2  0  0  0  0
  9  1  1  0  0  0  0
 10  1  1  0  0  0  0
 12  2  1  0  0  0  0
 15  3  1  0  0  0  0
 16  5  1  0  0  0  0
 20  7  1  0  0  0  0
M  END
