20
title
C 1.2230661 2.0087404 0.11460863
C 1.1304637 0.48581874 0.27777693
C 1.8588153 -0.00746417 1.5341845
N -0.26196328 0.015080005 0.23960675
C -1.164583 0.34141883 1.3288233
C -0.676821 -0.7035781 -0.8593165
N -1.9946752 -1.1577337 -0.8091456
O 0.022357328 -0.9034456 -1.8408532
H 2.2716796 2.3198724 0.07079401
H 0.7330168 2.3257298 -0.8098598
H 0.7594302 2.5436668 0.95145524
H 1.5894496 0.024102688 -0.5977948
H 1.4384654 0.4231658 2.4501045
H 1.806459 -1.0973479 1.6137482
H 2.9136524 0.2807428 1.4929452
H -2.1439404 0.64063436 0.944126
H -1.3055737 -0.49039602 2.0356987
H -0.7643018 1.1834933 1.8964176
H -2.3723278 -1.4368047 0.083352245
H -2.1743598 -1.8192648 -1.5495728
