title
 OpenBabel02282109583D

 18 17  0  0  1  0  0  0  0  0999 V2000
    0.8967    2.3927   -0.0720 C   0  0  0  0  0  0  0  0  0  0  0  0
    0.8904    0.8779    0.1049 C   0  0  1  0  0  0  0  0  0  0  0  0
    1.4767    0.4941    1.3451 O   0  0  0  0  0  0  0  0  0  0  0  0
   -0.5487    0.3023   -0.0523 C   0  0  1  0  0  0  0  0  0  0  0  0
   -1.1343    0.7947   -1.2273 O   0  0  0  0  0  0  0  0  0  0  0  0
   -0.5536   -1.2356   -0.1025 C   0  0  0  0  0  0  0  0  0  0  0  0
   -0.2220   -2.0244    1.1351 C   0  0  0  0  0  0  0  0  0  0  0  0
   -0.8456   -1.7637   -1.1574 O   0  0  0  0  0  0  0  0  0  0  0  0
    1.9189    2.7729    0.0068 H   0  0  0  0  0  0  0  0  0  0  0  0
    0.4785    2.6677   -1.0411 H   0  0  0  0  0  0  0  0  0  0  0  0
    0.2870    2.8733    0.7049 H   0  0  0  0  0  0  0  0  0  0  0  0
    1.5208    0.4188   -0.6661 H   0  0  0  0  0  0  0  0  0  0  0  0
    1.0958    1.0494    2.0347 H   0  0  0  0  0  0  0  0  0  0  0  0
   -1.1331    0.6257    0.8267 H   0  0  0  0  0  0  0  0  0  0  0  0
   -1.2470    0.0092   -1.7911 H   0  0  0  0  0  0  0  0  0  0  0  0
    0.7447   -1.7045    1.5323 H   0  0  0  0  0  0  0  0  0  0  0  0
   -0.9656   -1.8120    1.9127 H   0  0  0  0  0  0  0  0  0  0  0  0
   -0.2273   -3.0912    0.9082 H   0  0  0  0  0  0  0  0  0  0  0  0
  1  9  1  0  0  0  0
  1  2  1  0  0  0  0
  1 11  1  0  0  0  0
  2 12  1  6  0  0  0
  2  3  1  0  0  0  0
  3 13  1  0  0  0  0
  4  2  1  0  0  0  0
  4 14  1  1  0  0  0
  5  4  1  0  0  0  0
  6  4  1  0  0  0  0
  6  7  1  0  0  0  0
  7 16  1  0  0  0  0
  7 17  1  0  0  0  0
  8  6  2  0  0  0  0
 10  1  1  0  0  0  0
 15  5  1  0  0  0  0
 18  7  1  0  0  0  0
M  END
