18
title
C 0.8967202 2.3926904 -0.072014764
C 0.890358 0.877858 0.10486479
O 1.4766942 0.49413145 1.3450874
C -0.5487026 0.30229893 -0.052343648
O -1.1342711 0.79470193 -1.2273093
C -0.55358076 -1.2356246 -0.10245013
C -0.22202982 -2.0244052 1.1351055
O -0.8456317 -1.763679 -1.157371
H 1.9188653 2.7729409 0.006833253
H 0.47848836 2.667693 -1.0410929
H 0.2870322 2.873251 0.7048822
H 1.5208296 0.41877565 -0.6660631
H 1.0957778 1.0494282 2.0346525
H -1.133126 0.62566715 0.826681
H -1.2470136 0.009243946 -1.791131
H 0.744737 -1.7044778 1.5323138
H -0.965554 -1.812031 1.9126611
H -0.22725202 -3.0911646 0.90819883
