title
 OpenBabel02282109583D

 17 16  0  0  1  0  0  0  0  0999 V2000
    0.9444    2.3849   -0.1068 C   0  0  0  0  0  0  0  0  0  0  0  0
    0.9158    0.8717    0.0700 C   0  0  1  0  0  0  0  0  0  0  0  0
    1.4042    0.4935    1.3660 O   0  0  0  0  0  0  0  0  0  0  0  0
   -0.5186    0.3131   -0.0241 C   0  0  1  0  0  0  0  0  0  0  0  0
   -1.1554    0.8097   -1.1670 O   0  0  0  0  0  0  0  0  0  0  0  0
   -0.5683   -1.2296   -0.0880 C   0  0  0  0  0  0  0  0  0  0  0  0
    0.0515   -1.9017    0.9044 N   0  0  0  0  0  0  0  0  0  0  0  0
   -1.1845   -1.7634   -1.0003 O   0  0  0  0  0  0  0  0  0  0  0  0
    1.9731    2.7597   -0.0506 H   0  0  0  0  0  0  0  0  0  0  0  0
    0.5281    2.6565   -1.0783 H   0  0  0  0  0  0  0  0  0  0  0  0
    0.3557    2.8707    0.6779 H   0  0  0  0  0  0  0  0  0  0  0  0
    1.5253    0.3975   -0.7148 H   0  0  0  0  0  0  0  0  0  0  0  0
    2.3009    0.8289    1.4587 H   0  0  0  0  0  0  0  0  0  0  0  0
   -1.0459    0.6299    0.8921 H   0  0  0  0  0  0  0  0  0  0  0  0
   -1.4863    0.0104   -1.6180 H   0  0  0  0  0  0  0  0  0  0  0  0
    0.6848   -1.3996    1.5107 H   0  0  0  0  0  0  0  0  0  0  0  0
    0.0877   -2.9066    0.8466 H   0  0  0  0  0  0  0  0  0  0  0  0
  1  9  1  0  0  0  0
  1  2  1  0  0  0  0
  1 11  1  0  0  0  0
  2 12  1  6  0  0  0
  2  3  1  0  0  0  0
  3 13  1  0  0  0  0
  4  2  1  0  0  0  0
  4 14  1  1  0  0  0
  5  4  1  0  0  0  0
  6  4  1  0  0  0  0
  6  7  1  0  0  0  0
  7 16  1  0  0  0  0
  8  6  2  0  0  0  0
 10  1  1  0  0  0  0
 15  5  1  0  0  0  0
 17  7  1  0  0  0  0
M  END
