26
title
C -1.7975817 0.45719597 -1.1962621
C -0.3540219 0.8982219 -0.9074535
C -0.24845147 2.4318447 -0.9265959
C 0.24350815 0.28506583 0.39201337
C -0.5436849 0.70656514 1.6462586
C 0.41936943 -1.2586511 0.3275116
C 1.171078 -1.7276033 -0.92933697
C 1.140762 -1.8021301 1.5733817
H -2.489545 0.81381875 -0.42577913
H -2.1386185 0.86671597 -2.1530683
H -1.8944871 -0.6314341 -1.2521925
H 0.26761654 0.543925 -1.7374517
H -0.9138666 2.9027886 -0.19545323
H 0.77303123 2.7648578 -0.7122605
H -0.5258083 2.8224308 -1.9115916
H 1.2568258 0.7072554 0.48296183
H -1.5153146 0.20268427 1.6972482
H 0.00015179749 0.46494377 2.562343
H -0.7279424 1.7839657 1.6615374
H -0.58242524 -1.7113403 0.3072645
H 1.356301 -2.8058515 -0.8827622
H 0.61653006 -1.5346607 -1.8510212
H 2.1455042 -1.2308518 -1.0147322
H 0.58185446 -1.6227571 2.4948585
H 1.2914718 -2.8833418 1.4886522
H 2.1296024 -1.3400594 1.6855197
