title
 OpenBabel02282109583D

 26 25  0  0  0  0  0  0  0  0999 V2000
   -1.7976    0.4572   -1.1963 C   0  0  0  0  0  0  0  0  0  0  0  0
   -0.3540    0.8982   -0.9075 C   0  0  0  0  0  0  0  0  0  0  0  0
   -0.2485    2.4318   -0.9266 C   0  0  0  0  0  0  0  0  0  0  0  0
    0.2435    0.2851    0.3920 C   0  0  0  0  0  0  0  0  0  0  0  0
   -0.5437    0.7066    1.6463 C   0  0  0  0  0  0  0  0  0  0  0  0
    0.4194   -1.2587    0.3275 C   0  0  0  0  0  0  0  0  0  0  0  0
    1.1711   -1.7276   -0.9293 C   0  0  0  0  0  0  0  0  0  0  0  0
    1.1408   -1.8021    1.5734 C   0  0  0  0  0  0  0  0  0  0  0  0
   -2.4895    0.8138   -0.4258 H   0  0  0  0  0  0  0  0  0  0  0  0
   -2.1386    0.8667   -2.1531 H   0  0  0  0  0  0  0  0  0  0  0  0
   -1.8945   -0.6314   -1.2522 H   0  0  0  0  0  0  0  0  0  0  0  0
    0.2676    0.5439   -1.7375 H   0  0  0  0  0  0  0  0  0  0  0  0
   -0.9139    2.9028   -0.1955 H   0  0  0  0  0  0  0  0  0  0  0  0
    0.7730    2.7649   -0.7123 H   0  0  0  0  0  0  0  0  0  0  0  0
   -0.5258    2.8224   -1.9116 H   0  0  0  0  0  0  0  0  0  0  0  0
    1.2568    0.7073    0.4830 H   0  0  0  0  0  0  0  0  0  0  0  0
   -1.5153    0.2027    1.6972 H   0  0  0  0  0  0  0  0  0  0  0  0
    0.0002    0.4649    2.5623 H   0  0  0  0  0  0  0  0  0  0  0  0
   -0.7279    1.7840    1.6615 H   0  0  0  0  0  0  0  0  0  0  0  0
   -0.5824   -1.7113    0.3073 H   0  0  0  0  0  0  0  0  0  0  0  0
    1.3563   -2.8059   -0.8828 H   0  0  0  0  0  0  0  0  0  0  0  0
    0.6165   -1.5347   -1.8510 H   0  0  0  0  0  0  0  0  0  0  0  0
    2.1455   -1.2309   -1.0147 H   0  0  0  0  0  0  0  0  0  0  0  0
    0.5819   -1.6228    2.4949 H   0  0  0  0  0  0  0  0  0  0  0  0
    1.2915   -2.8833    1.4887 H   0  0  0  0  0  0  0  0  0  0  0  0
    2.1296   -1.3401    1.6855 H   0  0  0  0  0  0  0  0  0  0  0  0
  1  2  1  0  0  0  0
  1  9  1  0  0  0  0
  2  4  1  0  0  0  0
  3  2  1  0  0  0  0
  3 14  1  0  0  0  0
  3 13  1  0  0  0  0
  4 16  1  0  0  0  0
  4  5  1  0  0  0  0
  5 19  1  0  0  0  0
  5 17  1  0  0  0  0
  5 18  1  0  0  0  0
  6  4  1  0  0  0  0
  6  8  1  0  0  0  0
  7 21  1  0  0  0  0
  7  6  1  0  0  0  0
  8 26  1  0  0  0  0
  8 24  1  0  0  0  0
 10  1  1  0  0  0  0
 11  1  1  0  0  0  0
 12  2  1  0  0  0  0
 15  3  1  0  0  0  0
 20  6  1  0  0  0  0
 22  7  1  0  0  0  0
 23  7  1  0  0  0  0
 25  8  1  0  0  0  0
M  END
