24
title
C 1.1180371 2.3731246 0.08088227
C 1.0207162 0.85101986 0.26977703
C 1.6658113 0.47593975 1.6147114
C -0.431306 0.3080182 0.15575281
C -1.2166009 0.95235056 -0.9996313
C -0.4300481 -1.2385103 0.02687383
C -1.7980065 -1.8849295 0.25829923
O 0.13707858 -1.6630946 -1.2134142
H 2.1496825 2.7085342 0.23058473
H 0.81325823 2.6919394 -0.9189247
H 0.49278337 2.9051487 0.8090623
H 1.5959891 0.3720635 -0.5335345
H 1.1273621 0.94505453 2.4476764
H 1.6824946 -0.6020777 1.7951937
H 2.702475 0.8258706 1.6551585
H -0.95424557 0.55040675 1.0932353
H -0.68645895 0.83893234 -1.9523553
H -2.210671 0.50814676 -1.1105422
H -1.3648934 2.021744 -0.8363341
H 0.2540869 -1.6448914 0.77784795
H -2.5346773 -1.5640305 -0.48696032
H -1.7094646 -2.9728668 0.19209364
H -2.1924999 -1.6292261 1.2472174
H -0.49019384 -1.447321 -1.9114481
