24
title
C 0.91223866 2.4373338 0.2599845
C 1.0096794 0.9052557 0.20061721
C 1.8182883 0.3728002 1.3924518
C -0.40264302 0.28399372 0.10809545
O -1.1142102 0.81375176 -1.013995
C -0.46178204 -1.2623802 0.120066576
C -1.92147 -1.7333933 0.18749301
C 0.26121587 -1.898579 -1.0769619
H 1.9053138 2.8952422 0.20859021
H 0.3046515 2.8244035 -0.56034565
H 0.446222 2.7586985 1.1994684
H 1.5492086 0.6389286 -0.7213815
H 1.2751281 0.52391595 2.333209
H 2.0448449 -0.6930585 1.303897
H 2.7707417 0.90616703 1.4757348
H -0.97634476 0.6384029 0.9760083
H -0.597508 0.62299365 -1.8042405
H 0.03976768 -1.5969986 1.036287
H -2.4809265 -1.3744415 -0.6809184
H -1.9814023 -2.8263302 0.21110718
H -2.4197922 -1.3503076 1.0845549
H -0.19663697 -1.5941759 -2.0258439
H 1.3229247 -1.6352426 -1.1129482
H 0.19475132 -2.9899216 -1.0294912
