title
 OpenBabel02282109583D

 22 21  0  0  1  0  0  0  0  0999 V2000
    1.0849    2.3948    0.1807 C   0  0  0  0  0  0  0  0  0  0  0  0
    0.9727    0.8709    0.2363 C   0  0  1  0  0  0  0  0  0  0  0  0
    1.5684    0.3786    1.4393 O   0  0  0  0  0  0  0  0  0  0  0  0
   -0.4668    0.3289    0.0831 C   0  0  1  0  0  0  0  0  0  0  0  0
   -1.1883    0.9166   -1.1391 C   0  0  0  0  0  0  0  0  0  0  0  0
   -0.4306   -1.2198    0.0518 C   0  0  1  0  0  0  0  0  0  0  0  0
   -1.7859   -1.8774    0.3114 C   0  0  0  0  0  0  0  0  0  0  0  0
    0.1533   -1.7011   -1.1604 O   0  0  0  0  0  0  0  0  0  0  0  0
    2.1143    2.6911    0.4003 H   0  0  0  0  0  0  0  0  0  0  0  0
    0.8167    2.7937   -0.8011 H   0  0  0  0  0  0  0  0  0  0  0  0
    0.4281    2.8655    0.9246 H   0  0  0  0  0  0  0  0  0  0  0  0
    1.5785    0.4316   -0.5645 H   0  0  0  0  0  0  0  0  0  0  0  0
    1.1208    0.8055    2.1787 H   0  0  0  0  0  0  0  0  0  0  0  0
   -1.0209    0.6248    0.9881 H   0  0  0  0  0  0  0  0  0  0  0  0
   -1.3435    1.9931   -1.0365 H   0  0  0  0  0  0  0  0  0  0  0  0
   -0.6083    0.7521   -2.0538 H   0  0  0  0  0  0  0  0  0  0  0  0
   -2.1753    0.4644   -1.2797 H   0  0  0  0  0  0  0  0  0  0  0  0
    0.2678   -1.5349    0.8320 H   0  0  0  0  0  0  0  0  0  0  0  0
   -2.5264   -1.6033   -0.4500 H   0  0  0  0  0  0  0  0  0  0  0  0
   -1.6796   -2.9657    0.2973 H   0  0  0  0  0  0  0  0  0  0  0  0
   -2.1887   -1.5828    1.2861 H   0  0  0  0  0  0  0  0  0  0  0  0
   -0.4952   -1.5920   -1.8640 H   0  0  0  0  0  0  0  0  0  0  0  0
  1  2  1  0  0  0  0
  1  9  1  0  0  0  0
  1 11  1  0  0  0  0
  2 12  1  6  0  0  0
  2  3  1  0  0  0  0
  3 13  1  0  0  0  0
  4  2  1  0  0  0  0
  4 14  1  1  0  0  0
  5 15  1  0  0  0  0
  5  4  1  0  0  0  0
  6  4  1  0  0  0  0
  6  7  1  0  0  0  0
  6 18  1  1  0  0  0
  7 21  1  0  0  0  0
  8  6  1  0  0  0  0
 10  1  1  0  0  0  0
 16  5  1  0  0  0  0
 17  5  1  0  0  0  0
 19  7  1  0  0  0  0
 20  7  1  0  0  0  0
 22  8  1  0  0  0  0
M  END
