22
title
C 1.0849363 2.3947651 0.18074378
C 0.97274137 0.870863 0.23633991
O 1.5683846 0.3786205 1.4393259
C -0.46682444 0.3289043 0.08310645
C -1.1883289 0.9165682 -1.139069
C -0.43063393 -1.2197793 0.05181417
C -1.7859055 -1.8774042 0.31140846
O 0.15331116 -1.7011278 -1.1603996
H 2.1142657 2.691111 0.4002831
H 0.8167173 2.7936695 -0.80109525
H 0.42812255 2.8655477 0.92461306
H 1.5785385 0.43159914 -0.5645035
H 1.1207901 0.80547696 2.1786883
H -1.020904 0.62482923 0.9881106
H -1.3434585 1.9931048 -1.0365034
H -0.60832 0.75212395 -2.053824
H -2.1753392 0.46442014 -1.2796522
H 0.26784995 -1.5349443 0.83201444
H -2.5263627 -1.6032712 -0.45002523
H -1.6795875 -2.9656978 0.29731625
H -2.1887114 -1.5828304 1.2860522
H -0.4951854 -1.5920494 -1.8639734
