title
 OpenBabel02282109583D

 20 19  0  0  1  0  0  0  0  0999 V2000
    1.0244    2.3777    0.2710 C   0  0  0  0  0  0  0  0  0  0  0  0
    1.0065    0.8530    0.2678 C   0  0  1  0  0  0  0  0  0  0  0  0
    1.6470    0.3135    1.4249 O   0  0  0  0  0  0  0  0  0  0  0  0
   -0.4258    0.2882    0.1418 C   0  0  1  0  0  0  0  0  0  0  0  0
   -1.1145    0.8515   -0.9632 O   0  0  0  0  0  0  0  0  0  0  0  0
   -0.4238   -1.2457    0.0332 C   0  0  1  0  0  0  0  0  0  0  0  0
   -1.8137   -1.8454    0.2245 C   0  0  0  0  0  0  0  0  0  0  0  0
    0.0780   -1.5076   -1.2860 O   0  0  0  0  0  0  0  0  0  0  0  0
    2.0515    2.7476    0.3307 H   0  0  0  0  0  0  0  0  0  0  0  0
    0.5488    2.7690   -0.6305 H   0  0  0  0  0  0  0  0  0  0  0  0
    0.4675    2.7676    1.1340 H   0  0  0  0  0  0  0  0  0  0  0  0
    1.5926    0.4760   -0.5780 H   0  0  0  0  0  0  0  0  0  0  0  0
    1.2744    0.7579    2.1947 H   0  0  0  0  0  0  0  0  0  0  0  0
   -0.9857    0.5771    1.0428 H   0  0  0  0  0  0  0  0  0  0  0  0
   -0.8376    0.3241   -1.7253 H   0  0  0  0  0  0  0  0  0  0  0  0
    0.2724   -1.6407    0.7837 H   0  0  0  0  0  0  0  0  0  0  0  0
   -2.5258   -1.3801   -0.4625 H   0  0  0  0  0  0  0  0  0  0  0  0
   -1.8028   -2.9268    0.0434 H   0  0  0  0  0  0  0  0  0  0  0  0
   -2.1653   -1.6883    1.2494 H   0  0  0  0  0  0  0  0  0  0  0  0
   -0.0451   -2.4410   -1.4798 H   0  0  0  0  0  0  0  0  0  0  0  0
  1  9  1  0  0  0  0
  1 11  1  0  0  0  0
  2 12  1  6  0  0  0
  2  1  1  0  0  0  0
  2  3  1  0  0  0  0
  3 13  1  0  0  0  0
  4  2  1  0  0  0  0
  4 14  1  1  0  0  0
  5  4  1  0  0  0  0
  6  4  1  0  0  0  0
  6  7  1  0  0  0  0
  6 16  1  1  0  0  0
  7 19  1  0  0  0  0
  8  6  1  0  0  0  0
 10  1  1  0  0  0  0
 15  5  1  0  0  0  0
 17  7  1  0  0  0  0
 18  7  1  0  0  0  0
 20  8  1  0  0  0  0
M  END
