title
 OpenBabel02282109583D

 20 20  0  0  0  0  0  0  0  0999 V2000
    0.3786    3.5092   -0.4977 C   0  0  0  0  0  0  0  0  0  0  0  0
    0.2881    2.0621   -0.3612 C   0  0  0  0  0  0  0  0  0  0  0  0
    0.2123    0.8644   -0.2472 C   0  0  0  0  0  0  0  0  0  0  0  0
    0.1156   -0.5797   -0.1045 C   0  0  0  0  0  0  0  0  0  0  0  0
    1.0652   -1.2936   -1.0793 C   0  0  0  0  0  0  0  0  0  0  0  0
    0.2399   -1.1451    1.3570 C   0  0  0  0  0  0  0  0  0  0  0  0
   -0.9841   -2.0592    1.0904 C   0  0  0  0  0  0  0  0  0  0  0  0
   -1.3333   -1.1881   -0.1441 C   0  0  0  0  0  0  0  0  0  0  0  0
    1.1197    3.7945   -1.2529 H   0  0  0  0  0  0  0  0  0  0  0  0
   -0.5818    3.9430   -0.7983 H   0  0  0  0  0  0  0  0  0  0  0  0
    0.6718    3.9821    0.4465 H   0  0  0  0  0  0  0  0  0  0  0  0
    2.1031   -1.0018   -0.8917 H   0  0  0  0  0  0  0  0  0  0  0  0
    0.9900   -2.3807   -0.9692 H   0  0  0  0  0  0  0  0  0  0  0  0
    0.8214   -1.0369   -2.1147 H   0  0  0  0  0  0  0  0  0  0  0  0
    1.1907   -1.6234    1.6069 H   0  0  0  0  0  0  0  0  0  0  0  0
    0.0273   -0.3737    2.1001 H   0  0  0  0  0  0  0  0  0  0  0  0
   -0.6960   -3.0778    0.8178 H   0  0  0  0  0  0  0  0  0  0  0  0
   -1.7358   -2.1189    1.8800 H   0  0  0  0  0  0  0  0  0  0  0  0
   -2.0874   -0.4316    0.0822 H   0  0  0  0  0  0  0  0  0  0  0  0
   -1.6133   -1.7001   -1.0686 H   0  0  0  0  0  0  0  0  0  0  0  0
  1  2  1  0  0  0  0
  1 11  1  0  0  0  0
  2  3  3  0  0  0  0
  3  4  1  0  0  0  0
  4  6  1  0  0  0  0
  5 13  1  0  0  0  0
  5 12  1  0  0  0  0
  5  4  1  0  0  0  0
  6 15  1  0  0  0  0
  6 16  1  0  0  0  0
  7  6  1  0  0  0  0
  7 18  1  0  0  0  0
  8  4  1  0  0  0  0
  8 19  1  0  0  0  0
  8  7  1  0  0  0  0
  9  1  1  0  0  0  0
 10  1  1  0  0  0  0
 14  5  1  0  0  0  0
 17  7  1  0  0  0  0
 20  8  1  0  0  0  0
M  END
