20
title
C 0.3786288 3.5092018 -0.49766153
C 0.28813693 2.0620997 -0.36115393
C 0.21226998 0.8643757 -0.24722023
C 0.11561812 -0.5796509 -0.10449666
C 1.0652338 -1.2936039 -1.0792509
C 0.23989592 -1.1451044 1.3570285
C -0.9840566 -2.0592158 1.0904248
C -1.3333142 -1.188148 -0.14407587
H 1.11966 3.7945302 -1.2529058
H -0.58184844 3.943025 -0.79831314
H 0.6717747 3.9821095 0.44654533
H 2.1030917 -1.0018365 -0.8917155
H 0.98999715 -2.3806667 -0.9692207
H 0.8213951 -1.03691 -2.114672
H 1.1907238 -1.6233516 1.6069137
H 0.02734523 -0.37369657 2.1000504
H -0.6960141 -3.0777721 0.81775266
H -1.7358077 -2.118927 1.8800007
H -2.0874314 -0.43155217 0.082196556
H -1.6133223 -1.7000678 -1.0686135
