title
 OpenBabel02282109583D

 18 18  0  0  1  0  0  0  0  0999 V2000
    0.2810    3.4710   -0.3111 C   0  0  0  0  0  0  0  0  0  0  0  0
    0.2590    2.0169   -0.2511 C   0  0  0  0  0  0  0  0  0  0  0  0
    0.2308    0.8135   -0.2040 C   0  0  0  0  0  0  0  0  0  0  0  0
    0.2049   -0.6451   -0.1464 C   0  0  1  0  0  0  0  0  0  0  0  0
    1.1015   -1.2653   -1.2136 C   0  0  0  0  0  0  0  0  0  0  0  0
    0.3314   -1.2429    1.2896 C   0  0  0  0  0  0  0  0  0  0  0  0
   -1.1341   -1.6684    1.0982 C   0  0  0  0  0  0  0  0  0  0  0  0
   -1.1580   -1.1662   -0.2528 O   0  0  0  0  0  0  0  0  0  0  0  0
    0.9641    3.8289   -1.0893 H   0  0  0  0  0  0  0  0  0  0  0  0
   -0.7147    3.8692   -0.5356 H   0  0  0  0  0  0  0  0  0  0  0  0
    0.6040    3.9056    0.6414 H   0  0  0  0  0  0  0  0  0  0  0  0
    2.1373   -0.9375   -1.0812 H   0  0  0  0  0  0  0  0  0  0  0  0
    1.0597   -2.3563   -1.1489 H   0  0  0  0  0  0  0  0  0  0  0  0
    0.7660   -0.9599   -2.2084 H   0  0  0  0  0  0  0  0  0  0  0  0
    1.0490   -2.0623    1.3601 H   0  0  0  0  0  0  0  0  0  0  0  0
    0.5233   -0.5175    2.0794 H   0  0  0  0  0  0  0  0  0  0  0  0
   -1.3376   -2.7449    1.1369 H   0  0  0  0  0  0  0  0  0  0  0  0
   -1.8566   -1.1485    1.7395 H   0  0  0  0  0  0  0  0  0  0  0  0
  1  2  1  0  0  0  0
  1 11  1  0  0  0  0
  2  3  3  0  0  0  0
  4  3  1  6  0  0  0
  4  6  1  0  0  0  0
  5 13  1  0  0  0  0
  5 12  1  0  0  0  0
  5  4  1  0  0  0  0
  6 15  1  0  0  0  0
  6 16  1  0  0  0  0
  7 17  1  0  0  0  0
  7  6  1  0  0  0  0
  7 18  1  0  0  0  0
  8  4  1  0  0  0  0
  8  7  1  0  0  0  0
  9  1  1  0  0  0  0
 10  1  1  0  0  0  0
 14  5  1  0  0  0  0
M  END
