title
 OpenBabel02282109583D

 18 18  0  0  0  0  0  0  0  0999 V2000
    0.2169    3.5611   -0.2967 C   0  0  0  0  0  0  0  0  0  0  0  0
    0.2000    2.1057   -0.2564 C   0  0  0  0  0  0  0  0  0  0  0  0
    0.1841    0.9014   -0.2219 C   0  0  0  0  0  0  0  0  0  0  0  0
    0.1672   -0.5504   -0.1833 C   0  0  0  0  0  0  0  0  0  0  0  0
    1.0968   -1.1665   -1.2373 C   0  0  0  0  0  0  0  0  0  0  0  0
    0.3193   -1.2175    1.2188 C   0  0  0  0  0  0  0  0  0  0  0  0
   -0.8734   -1.9982    1.0247 O   0  0  0  0  0  0  0  0  0  0  0  0
   -1.2339   -1.2355   -0.1406 C   0  0  0  0  0  0  0  0  0  0  0  0
    1.2420    3.9467   -0.3280 H   0  0  0  0  0  0  0  0  0  0  0  0
   -0.3053    3.9401   -1.1823 H   0  0  0  0  0  0  0  0  0  0  0  0
   -0.2719    3.9907    0.5847 H   0  0  0  0  0  0  0  0  0  0  0  0
    2.1302   -0.8446   -1.0776 H   0  0  0  0  0  0  0  0  0  0  0  0
    1.0595   -2.2589   -1.1804 H   0  0  0  0  0  0  0  0  0  0  0  0
    0.7977   -0.8598   -2.2440 H   0  0  0  0  0  0  0  0  0  0  0  0
    1.2083   -1.8431    1.3603 H   0  0  0  0  0  0  0  0  0  0  0  0
    0.2235   -0.5161    2.0566 H   0  0  0  0  0  0  0  0  0  0  0  0
   -2.0607   -0.5424    0.0574 H   0  0  0  0  0  0  0  0  0  0  0  0
   -1.4837   -1.8742   -0.9957 H   0  0  0  0  0  0  0  0  0  0  0  0
  1  2  1  0  0  0  0
  1 11  1  0  0  0  0
  2  3  3  0  0  0  0
  3  4  1  0  0  0  0
  4  8  1  0  0  0  0
  4  6  1  0  0  0  0
  5 13  1  0  0  0  0
  5 12  1  0  0  0  0
  5  4  1  0  0  0  0
  6 15  1  0  0  0  0
  6 16  1  0  0  0  0
  7  6  1  0  0  0  0
  8 17  1  0  0  0  0
  8  7  1  0  0  0  0
  9  1  1  0  0  0  0
 10  1  1  0  0  0  0
 14  5  1  0  0  0  0
 18  8  1  0  0  0  0
M  END
