18
title
C 0.21692123 3.5611246 -0.2966972
C 0.20000812 2.1057239 -0.2564413
C 0.18407403 0.90136373 -0.22192712
C 0.16719042 -0.550418 -0.18334983
C 1.096756 -1.1664609 -1.2372867
C 0.31925088 -1.2175249 1.218808
O -0.87340355 -1.998247 1.0247028
C -1.2339152 -1.2354652 -0.14055125
H 1.2420162 3.9467175 -0.32797873
H -0.3053285 3.9401016 -1.1822543
H -0.27191576 3.9907029 0.584693
H 2.130155 -0.8446373 -1.0776418
H 1.05945 -2.2589488 -1.180419
H 0.79767245 -0.8597871 -2.2439938
H 1.2082655 -1.8430871 1.3602903
H 0.22345926 -0.5161058 2.0566037
H -2.0606894 -0.5424284 0.05744368
H -1.4836944 -1.8741828 -0.99573857
