title
 OpenBabel02282109583D

 18 18  0  0  0  0  0  0  0  0999 V2000
    0.2082    3.4390   -0.2244 C   0  0  0  0  0  0  0  0  0  0  0  0
    0.1883    1.9832   -0.2241 C   0  0  0  0  0  0  0  0  0  0  0  0
    0.1590    0.7782   -0.2275 C   0  0  0  0  0  0  0  0  0  0  0  0
    0.1733   -0.6815   -0.2401 C   0  0  0  0  0  0  0  0  0  0  0  0
    0.9194   -1.1844   -1.3352 O   0  0  0  0  0  0  0  0  0  0  0  0
    0.4819   -1.2967    1.1708 C   0  0  0  0  0  0  0  0  0  0  0  0
   -1.0434   -1.4761    1.3857 C   0  0  0  0  0  0  0  0  0  0  0  0
   -1.2403   -1.3266   -0.1453 C   0  0  0  0  0  0  0  0  0  0  0  0
    0.9208    3.8321    0.5090 H   0  0  0  0  0  0  0  0  0  0  0  0
    0.4924    3.8305   -1.2074 H   0  0  0  0  0  0  0  0  0  0  0  0
   -0.7789    3.8473    0.0195 H   0  0  0  0  0  0  0  0  0  0  0  0
    1.6819   -0.6100   -1.4619 H   0  0  0  0  0  0  0  0  0  0  0  0
    0.9907   -2.2539    1.0298 H   0  0  0  0  0  0  0  0  0  0  0  0
    1.0403   -0.6821    1.8793 H   0  0  0  0  0  0  0  0  0  0  0  0
   -1.3778   -2.4087    1.8432 H   0  0  0  0  0  0  0  0  0  0  0  0
   -1.4785   -0.6388    1.9366 H   0  0  0  0  0  0  0  0  0  0  0  0
   -2.0831   -0.7399   -0.5136 H   0  0  0  0  0  0  0  0  0  0  0  0
   -1.2150   -2.2922   -0.6570 H   0  0  0  0  0  0  0  0  0  0  0  0
  1  2  1  0  0  0  0
  1 11  1  0  0  0  0
  1  9  1  0  0  0  0
  3  2  3  0  0  0  0
  4  3  1  0  0  0  0
  4  8  1  0  0  0  0
  4  6  1  0  0  0  0
  5  4  1  0  0  0  0
  6  7  1  0  0  0  0
  6 14  1  0  0  0  0
  7 15  1  0  0  0  0
  7 16  1  0  0  0  0
  8  7  1  0  0  0  0
 10  1  1  0  0  0  0
 12  5  1  0  0  0  0
 13  6  1  0  0  0  0
 17  8  1  0  0  0  0
 18  8  1  0  0  0  0
M  END
