19
title
C -0.060721822 1.7959408 0.5233111
C 0.2513831 0.30607352 0.45347095
C -1.0317547 -0.52127814 0.2076379
C -1.6712795 -0.2211794 -1.0730553
N -2.1575677 0.026706025 -2.091995
C 1.4124029 -0.13342896 -0.49578294
C 1.9640508 -1.0515978 0.6276893
C 1.0599136 -0.3035849 1.6441411
H 0.85190904 2.372569 0.70226115
H -0.5086175 2.154365 -0.40972283
H -0.760803 2.0168483 1.3380779
H -0.8038582 -1.5931149 0.23044842
H -1.7548753 -0.33512822 1.0110095
H 1.1272446 -0.5993597 -1.4424684
H 2.083173 0.7016679 -0.71464723
H 1.6757183 -2.0980542 0.49735978
H 3.0400715 -1.019487 0.8090882
H 1.6037507 0.47149974 2.1909351
H 0.50179815 -0.9051333 2.367885
