17
title
C 0.045860965 1.6868718 -0.5827775
C 0.23272486 0.18121786 -0.4885831
C -1.0865188 -0.5615303 -0.18482426
C -1.7286198 -0.11461798 1.049266
N -2.239863 0.24910617 2.019485
C 1.0595222 -0.4873466 -1.6180708
C 2.0545118 -0.83339083 -0.4938051
O 1.2395979 -0.16743056 0.49426565
H 1.0036986 2.1702216 -0.79104894
H -0.6552025 1.9428669 -1.3848643
H -0.34378213 2.0852678 0.35827097
H -1.7867085 -0.42097822 -1.0170485
H -0.8843713 -1.6344783 -0.1042802
H 0.5842123 -1.3373135 -2.1116009
H 1.4301405 0.20429029 -2.376028
H 2.1730232 -1.9011803 -0.27479854
H 3.047746 -0.37807956 -0.57602066
