17
title
C 0.12652098 1.791014 0.5239259
C 0.2367757 0.27518034 0.44295916
C -1.1276454 -0.39965203 0.18767191
C -1.7204936 -0.010648494 -1.0911778
N -2.164854 0.3096366 -2.1088781
C 1.3549943 -0.32045278 -0.45102483
O 1.8232204 -1.1569833 0.62712616
C 1.0045834 -0.45035335 1.5775734
H 1.105913 2.2425919 0.7065284
H -0.27219495 2.209231 -0.40587127
H -0.5406681 2.0945044 1.3388747
H -1.0073786 -1.4888877 0.19647196
H -1.829604 -0.14662851 0.9913139
H 1.0415596 -0.9024758 -1.3247418
H 2.1124368 0.41191727 -0.76044875
H 1.5966678 0.22427925 2.2109983
H 0.43013605 -1.1299423 2.2189376
