title
 OpenBabel02282109583D

 17 17  0  0  0  0  0  0  0  0999 V2000
    0.1265    1.7910    0.5239 C   0  0  0  0  0  0  0  0  0  0  0  0
    0.2368    0.2752    0.4430 C   0  0  0  0  0  0  0  0  0  0  0  0
   -1.1276   -0.3997    0.1877 C   0  0  0  0  0  0  0  0  0  0  0  0
   -1.7205   -0.0106   -1.0912 C   0  0  0  0  0  0  0  0  0  0  0  0
   -2.1649    0.3096   -2.1089 N   0  0  0  0  0  0  0  0  0  0  0  0
    1.3550   -0.3205   -0.4510 C   0  0  0  0  0  0  0  0  0  0  0  0
    1.8232   -1.1570    0.6271 O   0  0  0  0  0  0  0  0  0  0  0  0
    1.0046   -0.4504    1.5776 C   0  0  0  0  0  0  0  0  0  0  0  0
    1.1059    2.2426    0.7065 H   0  0  0  0  0  0  0  0  0  0  0  0
   -0.2722    2.2092   -0.4059 H   0  0  0  0  0  0  0  0  0  0  0  0
   -0.5407    2.0945    1.3389 H   0  0  0  0  0  0  0  0  0  0  0  0
   -1.0074   -1.4889    0.1965 H   0  0  0  0  0  0  0  0  0  0  0  0
   -1.8296   -0.1466    0.9913 H   0  0  0  0  0  0  0  0  0  0  0  0
    1.0416   -0.9025   -1.3247 H   0  0  0  0  0  0  0  0  0  0  0  0
    2.1124    0.4119   -0.7604 H   0  0  0  0  0  0  0  0  0  0  0  0
    1.5967    0.2243    2.2110 H   0  0  0  0  0  0  0  0  0  0  0  0
    0.4301   -1.1299    2.2189 H   0  0  0  0  0  0  0  0  0  0  0  0
  1  9  1  0  0  0  0
  1 11  1  0  0  0  0
  2  1  1  0  0  0  0
  2  8  1  0  0  0  0
  3 12  1  0  0  0  0
  3  2  1  0  0  0  0
  3 13  1  0  0  0  0
  4  3  1  0  0  0  0
  5  4  3  0  0  0  0
  6  2  1  0  0  0  0
  6  7  1  0  0  0  0
  7  8  1  0  0  0  0
  8 16  1  0  0  0  0
  8 17  1  0  0  0  0
 10  1  1  0  0  0  0
 14  6  1  0  0  0  0
 15  6  1  0  0  0  0
M  END
