16
title
N -0.54842603 1.683643 -0.078075305
C -0.49011678 0.2374117 -0.014570554
C 0.43526587 -0.43408296 -1.0639685
C 1.8101919 0.04503153 -0.94960696
N 2.880527 0.46267188 -0.8220295
C -0.29427707 -0.34959355 1.404226
O -1.4532765 -1.1958959 1.2489245
C -1.8579147 -0.48112366 0.06557684
H 0.37846217 2.079932 0.06125128
H -0.8558009 1.9910125 -0.9977302
H 0.42112014 -1.5227243 -0.93936944
H 0.0674828 -0.21818587 -2.0744925
H 0.61800927 -0.92560655 1.5928814
H -0.43220818 0.4013806 2.1908412
H -2.6840825 0.21366397 0.25969356
H -2.1242867 -1.1575736 -0.75529295
