title
 OpenBabel02282109583D

 16 16  0  0  0  0  0  0  0  0999 V2000
   -0.4470    1.5986   -0.1439 O   0  0  0  0  0  0  0  0  0  0  0  0
   -0.4487    0.2032   -0.0216 C   0  0  0  0  0  0  0  0  0  0  0  0
    0.4785   -0.4615   -1.0570 C   0  0  0  0  0  0  0  0  0  0  0  0
    1.8478    0.0221   -0.9246 C   0  0  0  0  0  0  0  0  0  0  0  0
    2.9480    0.4851   -0.7746 C   0  0  0  0  0  0  0  0  0  0  0  0
   -0.3301   -0.4004    1.4042 C   0  0  0  0  0  0  0  0  0  0  0  0
   -1.5441   -1.1563    1.2050 O   0  0  0  0  0  0  0  0  0  0  0  0
   -1.8634   -0.4033    0.0171 C   0  0  0  0  0  0  0  0  0  0  0  0
    0.4723    1.8875   -0.2142 H   0  0  0  0  0  0  0  0  0  0  0  0
    0.4398   -1.5497   -0.9320 H   0  0  0  0  0  0  0  0  0  0  0  0
    0.1003   -0.2356   -2.0618 H   0  0  0  0  0  0  0  0  0  0  0  0
    3.9346    0.8619   -0.6609 H   0  0  0  0  0  0  0  0  0  0  0  0
    0.5297   -1.0431    1.6228 H   0  0  0  0  0  0  0  0  0  0  0  0
   -0.4391    0.3609    2.1871 H   0  0  0  0  0  0  0  0  0  0  0  0
   -2.6334    0.3573    0.1968 H   0  0  0  0  0  0  0  0  0  0  0  0
   -2.1645   -1.0477   -0.8169 H   0  0  0  0  0  0  0  0  0  0  0  0
  1  2  1  0  0  0  0
  2  8  1  0  0  0  0
  2  6  1  0  0  0  0
  3 10  1  0  0  0  0
  3  4  1  0  0  0  0
  3  2  1  0  0  0  0
  4  5  3  0  0  0  0
  5 12  1  0  0  0  0
  6 13  1  0  0  0  0
  6 14  1  0  0  0  0
  7  6  1  0  0  0  0
  8 15  1  0  0  0  0
  8  7  1  0  0  0  0
  9  1  1  0  0  0  0
 11  3  1  0  0  0  0
 16  8  1  0  0  0  0
M  END
