17
title
O -0.40447354 1.6055411 -0.3257681
C -0.48693112 0.2400127 -0.0032058805
C 0.37590885 -0.60099727 -0.97399724
C 1.7803906 -0.20469412 -0.9004898
N 2.8724597 0.16318813 -0.8060886
C -0.30419627 -0.16769227 1.4912823
C -1.5906603 -1.0309538 1.3751588
C -1.9461448 -0.2705224 0.06786371
H 0.5146347 1.8889544 -0.24000317
H 0.28976804 -1.6687357 -0.7463894
H 0.016667673 -0.445894 -1.9969882
H 0.6288597 -0.66185904 1.7733881
H -0.4534321 0.70592034 2.129957
H -1.3725717 -2.0878932 1.2004371
H -2.3068695 -0.96170396 2.195067
H -2.6151662 0.57334787 0.24854897
H -2.3208237 -0.84638137 -0.78238827
