title
 OpenBabel02282109583D

 15 15  0  0  0  0  0  0  0  0999 V2000
   -0.4875    1.6040   -0.1451 O   0  0  0  0  0  0  0  0  0  0  0  0
   -0.4636    0.2119   -0.0097 C   0  0  0  0  0  0  0  0  0  0  0  0
    0.4524   -0.4533   -1.0581 C   0  0  0  0  0  0  0  0  0  0  0  0
    1.8246    0.0304   -0.9266 C   0  0  0  0  0  0  0  0  0  0  0  0
    2.8842    0.4688   -0.7789 N   0  0  0  0  0  0  0  0  0  0  0  0
   -0.3221   -0.3894    1.4146 C   0  0  0  0  0  0  0  0  0  0  0  0
   -1.5175   -1.1743    1.2191 O   0  0  0  0  0  0  0  0  0  0  0  0
   -1.8673   -0.4191    0.0419 C   0  0  0  0  0  0  0  0  0  0  0  0
    0.4152    1.9414   -0.0844 H   0  0  0  0  0  0  0  0  0  0  0  0
    0.4314   -1.5414   -0.9393 H   0  0  0  0  0  0  0  0  0  0  0  0
    0.0858   -0.2149   -2.0625 H   0  0  0  0  0  0  0  0  0  0  0  0
    0.5537   -1.0105    1.6312 H   0  0  0  0  0  0  0  0  0  0  0  0
   -0.4462    0.3701    2.1966 H   0  0  0  0  0  0  0  0  0  0  0  0
   -2.6441    0.3302    0.2374 H   0  0  0  0  0  0  0  0  0  0  0  0
   -2.1707   -1.0621   -0.7917 H   0  0  0  0  0  0  0  0  0  0  0  0
  1  9  1  0  0  0  0
  1  2  1  0  0  0  0
  2  8  1  0  0  0  0
  2  6  1  0  0  0  0
  3 10  1  0  0  0  0
  3  4  1  0  0  0  0
  3  2  1  0  0  0  0
  4  5  3  0  0  0  0
  6 12  1  0  0  0  0
  6 13  1  0  0  0  0
  7  6  1  0  0  0  0
  8 14  1  0  0  0  0
  8  7  1  0  0  0  0
 11  3  1  0  0  0  0
 15  8  1  0  0  0  0
M  END
