15
title
O -0.4874632 1.6039772 -0.14512599
C -0.4635979 0.21187222 -0.0096783675
C 0.45239407 -0.45329064 -1.0581149
C 1.8246292 0.030435102 -0.92663896
N 2.8841503 0.4688017 -0.7788666
C -0.3220891 -0.38942164 1.4145544
O -1.5174729 -1.1742527 1.2190922
C -1.8673491 -0.419082 0.04190316
H 0.4152469 1.9413923 -0.08441793
H 0.43136477 -1.5413972 -0.9392713
H 0.08582895 -0.21485136 -2.0624506
H 0.5537219 -1.0105182 1.6312436
H -0.44619337 0.37012914 2.196562
H -2.6441169 0.3302321 0.23735814
H -2.170684 -1.0620971 -0.79170847
