title
 OpenBabel02282109583D

 20 20  0  0  0  0  0  0  0  0999 V2000
    0.1702    1.5907    0.5228 C   0  0  0  0  0  0  0  0  0  0  0  0
    0.3159    0.0713    0.3955 C   0  0  0  0  0  0  0  0  0  0  0  0
   -1.0291   -0.5825    0.0365 C   0  0  0  0  0  0  0  0  0  0  0  0
   -1.5657   -0.1368   -1.3047 C   0  0  0  0  0  0  0  0  0  0  0  0
   -2.6559    0.3406   -1.4922 O   0  0  0  0  0  0  0  0  0  0  0  0
    1.5511   -0.3329   -0.4785 C   0  0  0  0  0  0  0  0  0  0  0  0
    2.3792   -0.5264    0.8193 C   0  0  0  0  0  0  0  0  0  0  0  0
    1.0534   -0.5478    1.6263 C   0  0  0  0  0  0  0  0  0  0  0  0
    1.1208    2.0576    0.7998 H   0  0  0  0  0  0  0  0  0  0  0  0
   -0.1596    2.0431   -0.4191 H   0  0  0  0  0  0  0  0  0  0  0  0
   -0.5667    1.8497    1.2912 H   0  0  0  0  0  0  0  0  0  0  0  0
   -0.8892   -1.6721   -0.0165 H   0  0  0  0  0  0  0  0  0  0  0  0
   -1.7878   -0.3752    0.7987 H   0  0  0  0  0  0  0  0  0  0  0  0
   -0.8583   -0.2844   -2.1547 H   0  0  0  0  0  0  0  0  0  0  0  0
    1.3903   -1.2797   -1.0034 H   0  0  0  0  0  0  0  0  0  0  0  0
    1.9083    0.4050   -1.2019 H   0  0  0  0  0  0  0  0  0  0  0  0
    3.0096   -1.4161    0.8770 H   0  0  0  0  0  0  0  0  0  0  0  0
    2.9970    0.3440    1.0535 H   0  0  0  0  0  0  0  0  0  0  0  0
    1.0161    0.0239    2.5577 H   0  0  0  0  0  0  0  0  0  0  0  0
    0.7151   -1.5675    1.8337 H   0  0  0  0  0  0  0  0  0  0  0  0
  1  9  1  0  0  0  0
  1 11  1  0  0  0  0
  2  1  1  0  0  0  0
  2  8  1  0  0  0  0
  3  2  1  0  0  0  0
  3 13  1  0  0  0  0
  4  3  1  0  0  0  0
  5  4  2  0  0  0  0
  6  2  1  0  0  0  0
  6  7  1  0  0  0  0
  7 17  1  0  0  0  0
  7 18  1  0  0  0  0
  7  8  1  0  0  0  0
  8 20  1  0  0  0  0
  8 19  1  0  0  0  0
 10  1  1  0  0  0  0
 12  3  1  0  0  0  0
 14  4  1  0  0  0  0
 15  6  1  0  0  0  0
 16  6  1  0  0  0  0
M  END
