19
title
C 0.16719143 1.6479828 0.5660229
C 0.16956262 0.122447 0.4411351
C 1.2718114 -0.40296572 -0.52974725
C 2.175242 -0.68786395 0.7000623
C 0.9169318 -0.5879204 1.6054779
N -1.1806366 -0.38555518 0.21253496
C -1.8698771 -0.19614463 -0.93981785
O -1.4479625 0.3896544 -1.9170587
H 1.1803472 2.0240204 0.7403667
H -0.2157212 2.0945637 -0.3543797
H -0.46315214 1.9659542 1.4034624
H 0.9528811 -1.3205518 -1.0281209
H 1.6303283 0.29970816 -1.2832094
H 2.7158484 -1.635957 0.7127379
H 2.8894331 0.11640723 0.8932677
H 0.99990237 -0.0363907 2.5457292
H 0.49117762 -1.5752968 1.8108112
H -1.644605 -0.86125076 0.97067773
H -2.8800457 -0.65343 -0.8992631
