18
title
C 0.3808036 1.7881767 0.40601775
C 0.36382335 0.2673022 0.3288682
C 1.4400009 -0.35221058 -0.61216897
C 2.3179164 -0.62058854 0.640622
C 1.052707 -0.43296373 1.5226531
O -0.9946868 -0.19482517 0.16729797
C -1.5560589 -0.09769965 -1.048338
O -2.688138 -0.41789812 -1.2658472
H 1.3916368 2.1513731 0.61448723
H 0.048874587 2.2385051 -0.53525335
H -0.28204712 2.1312325 1.2058711
H 1.0808287 -1.2841836 -1.0559543
H 1.845782 0.28640354 -1.4005231
H 2.8171742 -1.5890981 0.69258183
H 3.0633554 0.16147552 0.80355376
H 1.1441793 0.14127818 2.447398
H 0.5586187 -1.3829089 1.7375224
H -0.8675955 0.29343402 -1.8209646
