17
title
C 0.102906525 1.7188853 0.5980419
C 0.12873746 0.19901317 0.4536317
C 1.2366112 -0.33739817 -0.48766124
O 2.0040636 -0.8236504 0.638401
C 0.928422 -0.54613805 1.547563
N -1.2006359 -0.34878144 0.21901476
C -1.8452761 -0.20941107 -0.9671329
O -1.3758864 0.34044838 -1.9432592
H 1.1116793 2.100731 0.781766
H -0.2822683 2.1722658 -0.3183353
H -0.536648 2.017733 1.435369
H 0.91280687 -1.1475816 -1.14853
H 1.7815343 0.41399607 -1.0666343
H 1.2498388 0.055306576 2.406092
H 0.4454617 -1.4652821 1.9117548
H -1.6853992 -0.7929077 0.98327017
H -2.8539276 -0.66810966 -0.9542067
