title
 OpenBabel02282109583D

 17 17  0  0  0  0  0  0  0  0999 V2000
    0.1029    1.7189    0.5980 C   0  0  0  0  0  0  0  0  0  0  0  0
    0.1287    0.1990    0.4536 C   0  0  0  0  0  0  0  0  0  0  0  0
    1.2366   -0.3374   -0.4877 C   0  0  0  0  0  0  0  0  0  0  0  0
    2.0041   -0.8237    0.6384 O   0  0  0  0  0  0  0  0  0  0  0  0
    0.9284   -0.5461    1.5476 C   0  0  0  0  0  0  0  0  0  0  0  0
   -1.2006   -0.3488    0.2190 N   0  0  0  0  0  0  0  0  0  0  0  0
   -1.8453   -0.2094   -0.9671 C   0  0  0  0  0  0  0  0  0  0  0  0
   -1.3759    0.3404   -1.9433 O   0  0  0  0  0  0  0  0  0  0  0  0
    1.1117    2.1007    0.7818 H   0  0  0  0  0  0  0  0  0  0  0  0
   -0.2823    2.1723   -0.3183 H   0  0  0  0  0  0  0  0  0  0  0  0
   -0.5366    2.0177    1.4354 H   0  0  0  0  0  0  0  0  0  0  0  0
    0.9128   -1.1476   -1.1485 H   0  0  0  0  0  0  0  0  0  0  0  0
    1.7815    0.4140   -1.0666 H   0  0  0  0  0  0  0  0  0  0  0  0
    1.2498    0.0553    2.4061 H   0  0  0  0  0  0  0  0  0  0  0  0
    0.4455   -1.4653    1.9118 H   0  0  0  0  0  0  0  0  0  0  0  0
   -1.6854   -0.7929    0.9833 H   0  0  0  0  0  0  0  0  0  0  0  0
   -2.8539   -0.6681   -0.9542 H   0  0  0  0  0  0  0  0  0  0  0  0
  1  9  1  0  0  0  0
  1 11  1  0  0  0  0
  2  1  1  0  0  0  0
  2  5  1  0  0  0  0
  3  2  1  0  0  0  0
  3  4  1  0  0  0  0
  4  5  1  0  0  0  0
  5 15  1  0  0  0  0
  5 14  1  0  0  0  0
  6  2  1  0  0  0  0
  6 16  1  0  0  0  0
  7 17  1  0  0  0  0
  7  6  1  0  0  0  0
  8  7  2  0  0  0  0
 10  1  1  0  0  0  0
 12  3  1  0  0  0  0
 13  3  1  0  0  0  0
M  END
