title
 OpenBabel02282109583D

 17 17  0  0  0  0  0  0  0  0999 V2000
    0.2790    1.8279    0.3892 C   0  0  0  0  0  0  0  0  0  0  0  0
    0.3121    0.3096    0.3096 C   0  0  0  0  0  0  0  0  0  0  0  0
    1.4323   -0.2983   -0.5763 C   0  0  0  0  0  0  0  0  0  0  0  0
    2.1831   -0.6799    0.5907 O   0  0  0  0  0  0  0  0  0  0  0  0
    1.0655   -0.3892    1.4570 C   0  0  0  0  0  0  0  0  0  0  0  0
   -0.9982   -0.2321    0.1519 O   0  0  0  0  0  0  0  0  0  0  0  0
   -1.5827   -0.0955   -1.0555 C   0  0  0  0  0  0  0  0  0  0  0  0
   -2.7775   -0.4659   -1.2225 N   0  0  0  0  0  0  0  0  0  0  0  0
    1.2825    2.2165    0.5849 H   0  0  0  0  0  0  0  0  0  0  0  0
   -0.0807    2.2689   -0.5462 H   0  0  0  0  0  0  0  0  0  0  0  0
   -0.3859    2.1475    1.1970 H   0  0  0  0  0  0  0  0  0  0  0  0
    1.1035   -1.1682   -1.1601 H   0  0  0  0  0  0  0  0  0  0  0  0
    1.9899    0.3906   -1.2209 H   0  0  0  0  0  0  0  0  0  0  0  0
    1.3542    0.2306    2.3122 H   0  0  0  0  0  0  0  0  0  0  0  0
    0.5568   -1.2962    1.8039 H   0  0  0  0  0  0  0  0  0  0  0  0
   -0.9247    0.3352   -1.8224 H   0  0  0  0  0  0  0  0  0  0  0  0
   -3.0558   -0.3157   -2.1900 H   0  0  0  0  0  0  0  0  0  0  0  0
  1  9  1  0  0  0  0
  1 11  1  0  0  0  0
  2  1  1  0  0  0  0
  2  5  1  0  0  0  0
  3  2  1  0  0  0  0
  3  4  1  0  0  0  0
  4  5  1  0  0  0  0
  5 15  1  0  0  0  0
  5 14  1  0  0  0  0
  6  2  1  0  0  0  0
  7  6  1  0  0  0  0
  8  7  2  0  0  0  0
 10  1  1  0  0  0  0
 12  3  1  0  0  0  0
 13  3  1  0  0  0  0
 16  7  1  0  0  0  0
 17  8  1  0  0  0  0
M  END
