17
title
C 0.27901247 1.8279005 0.3891541
C 0.3121318 0.3096298 0.3096464
C 1.4323182 -0.2982511 -0.57633954
O 2.1831121 -0.67993015 0.5906776
C 1.0654576 -0.3891898 1.4569536
O -0.9981737 -0.23210664 0.15185718
C -1.582677 -0.095458366 -1.0554867
N -2.7774518 -0.46594885 -1.2224549
H 1.2824816 2.2165241 0.5849338
H -0.080657706 2.2688763 -0.54616416
H -0.3859494 2.1475272 1.1969713
H 1.1035316 -1.1681668 -1.1600931
H 1.9898664 0.39062113 -1.2208688
H 1.3542203 0.2306489 2.3122423
H 0.55675095 -1.2962054 1.8039298
H -0.9247283 0.3351685 -1.8224155
H -3.0557826 -0.31571963 -2.1899896
