16
title
C 0.29690745 1.840692 0.40858307
C 0.32219896 0.32369247 0.32560867
C 1.4438552 -0.29267186 -0.5506177
O 2.1856523 -0.6693805 0.62314934
C 1.0575193 -0.38538313 1.4777898
O -1.0022571 -0.20146713 0.15249291
C -1.5589311 -0.113520764 -1.0705817
O -2.6705372 -0.48437178 -1.3005811
H 1.3003137 2.2208595 0.6202309
H -0.045720678 2.2858694 -0.5311133
H -0.37672627 2.1634502 1.2078623
H 1.1173941 -1.1655132 -1.1314701
H 2.0052834 0.39150882 -1.1961849
H 1.3344129 0.22746553 2.3417678
H 0.5445647 -1.2953695 1.8108903
H -0.88248396 0.32386076 -1.829707
