title
 OpenBabel02282109583D

 18 18  0  0  0  0  0  0  0  0999 V2000
   -0.2861    1.7305   -0.4350 O   0  0  0  0  0  0  0  0  0  0  0  0
   -0.5300    0.3836   -0.0834 C   0  0  0  0  0  0  0  0  0  0  0  0
    0.3341   -0.4550   -1.0398 C   0  0  0  0  0  0  0  0  0  0  0  0
    1.8003   -0.1122   -0.8738 C   0  0  0  0  0  0  0  0  0  0  0  0
    2.5655   -0.7583   -0.2014 O   0  0  0  0  0  0  0  0  0  0  0  0
   -0.3691   -0.0296    1.4117 C   0  0  0  0  0  0  0  0  0  0  0  0
   -1.6545   -0.8901    1.2732 C   0  0  0  0  0  0  0  0  0  0  0  0
   -2.0076   -0.1041   -0.0186 C   0  0  0  0  0  0  0  0  0  0  0  0
   -0.7666    2.2935    0.1804 H   0  0  0  0  0  0  0  0  0  0  0  0
    0.1967   -1.5189   -0.8300 H   0  0  0  0  0  0  0  0  0  0  0  0
    0.0169   -0.2388   -2.0664 H   0  0  0  0  0  0  0  0  0  0  0  0
    2.1339    0.8079   -1.3977 H   0  0  0  0  0  0  0  0  0  0  0  0
    0.5628   -0.5208    1.6980 H   0  0  0  0  0  0  0  0  0  0  0  0
   -0.5282    0.8334    2.0672 H   0  0  0  0  0  0  0  0  0  0  0  0
   -1.4300   -1.9404    1.0723 H   0  0  0  0  0  0  0  0  0  0  0  0
   -2.3731   -0.8443    2.0930 H   0  0  0  0  0  0  0  0  0  0  0  0
   -2.6754    0.7391    0.1884 H   0  0  0  0  0  0  0  0  0  0  0  0
   -2.3991   -0.6546   -0.8781 H   0  0  0  0  0  0  0  0  0  0  0  0
  1  2  1  0  0  0  0
  1  9  1  0  0  0  0
  2  8  1  0  0  0  0
  2  6  1  0  0  0  0
  3  4  1  0  0  0  0
  3 10  1  0  0  0  0
  3  2  1  0  0  0  0
  4  5  2  0  0  0  0
  6 13  1  0  0  0  0
  6 14  1  0  0  0  0
  7  6  1  0  0  0  0
  7 16  1  0  0  0  0
  8 17  1  0  0  0  0
  8  7  1  0  0  0  0
 11  3  1  0  0  0  0
 12  4  1  0  0  0  0
 15  7  1  0  0  0  0
 18  8  1  0  0  0  0
M  END
