title
 OpenBabel02282109583D

 16 16  0  0  0  0  0  0  0  0999 V2000
   -0.3807    1.7369   -0.2408 O   0  0  0  0  0  0  0  0  0  0  0  0
   -0.5097    0.3440   -0.0965 C   0  0  0  0  0  0  0  0  0  0  0  0
    0.4109   -0.2938   -1.1423 C   0  0  0  0  0  0  0  0  0  0  0  0
    1.8495    0.1194   -0.8918 C   0  0  0  0  0  0  0  0  0  0  0  0
    2.5948   -0.4903   -0.1661 O   0  0  0  0  0  0  0  0  0  0  0  0
   -0.3767   -0.2742    1.3209 C   0  0  0  0  0  0  0  0  0  0  0  0
   -1.5909   -1.0288    1.1281 O   0  0  0  0  0  0  0  0  0  0  0  0
   -1.9319   -0.2702   -0.0462 C   0  0  0  0  0  0  0  0  0  0  0  0
   -0.9054    2.1680    0.4424 H   0  0  0  0  0  0  0  0  0  0  0  0
    0.3357   -1.3817   -1.0660 H   0  0  0  0  0  0  0  0  0  0  0  0
    0.0907    0.0313   -2.1380 H   0  0  0  0  0  0  0  0  0  0  0  0
    2.1780    1.0502   -1.3999 H   0  0  0  0  0  0  0  0  0  0  0  0
    0.4916   -0.9087    1.5188 H   0  0  0  0  0  0  0  0  0  0  0  0
   -0.4763    0.4733    2.1229 H   0  0  0  0  0  0  0  0  0  0  0  0
   -2.7101    0.4832    0.1528 H   0  0  0  0  0  0  0  0  0  0  0  0
   -2.2501   -0.9058   -0.8799 H   0  0  0  0  0  0  0  0  0  0  0  0
  1  2  1  0  0  0  0
  1  9  1  0  0  0  0
  2  8  1  0  0  0  0
  2  6  1  0  0  0  0
  3 10  1  0  0  0  0
  3  4  1  0  0  0  0
  3  2  1  0  0  0  0
  4  5  2  0  0  0  0
  6 13  1  0  0  0  0
  6 14  1  0  0  0  0
  7  6  1  0  0  0  0
  8 15  1  0  0  0  0
  8  7  1  0  0  0  0
 11  3  1  0  0  0  0
 12  4  1  0  0  0  0
 16  8  1  0  0  0  0
M  END
