16
title
O -0.38065127 1.736854 -0.2407937
C -0.5097167 0.3440135 -0.09648609
C 0.41091833 -0.2938414 -1.1423445
C 1.8495383 0.11936866 -0.89180505
O 2.5948443 -0.490276 -0.1661306
C -0.37668684 -0.27418783 1.3209333
O -1.5908711 -1.0288137 1.1280671
C -1.9319236 -0.27016184 -0.046238177
H -0.9054313 2.168015 0.44242415
H 0.33572242 -1.3816564 -1.0659808
H 0.09072879 0.031302616 -2.1380405
H 2.1779869 1.0501586 -1.3998965
H 0.49156454 -0.90870017 1.518814
H -0.4763341 0.47330433 2.122917
H -2.7100918 0.48315054 0.15275133
H -2.2501235 -0.90583223 -0.8798749
