22
title
C 0.46754786 1.7633069 0.4963138
C 0.4264483 0.23467687 0.39797574
C -0.98631847 -0.2964321 0.14281861
C -1.6205791 0.15638906 -1.1682612
O -2.8485901 -0.54548776 -1.3135759
C 1.5570226 -0.32069612 -0.53343666
C 2.4328332 -0.59398675 0.7178813
C 1.1690241 -0.430407 1.603532
H 1.4744859 2.1152656 0.7449262
H 0.17985247 2.2407956 -0.44645464
H -0.21175553 2.1239204 1.2776169
H -0.9632354 -1.3931295 0.1325789
H -1.6482629 -0.008122497 0.97018373
H -1.7903076 1.243667 -1.1597639
H -0.9387585 -0.060817473 -2.007188
H -3.27183 -0.2438857 -2.122552
H 1.2542235 -1.2460461 -1.0330819
H 1.9580352 0.36223903 -1.2880334
H 2.9475384 -1.556367 0.76173156
H 3.1716602 0.19286613 0.89148736
H 1.2646228 0.17036049 2.5126748
H 0.725462 -1.3937149 1.8728132
