20
title
C 0.39909133 1.820766 -0.6364539
C 0.43263718 0.30411592 -0.49365184
C -0.93894076 -0.31519425 -0.2166028
C -1.5888298 0.15143475 1.089965
O -2.8016994 -0.53621244 1.3630328
C 1.2691078 -0.44120073 -1.5690145
C 2.1969678 -0.8151117 -0.39863452
O 1.3860378 -0.08888877 0.5448006
H 1.3967801 2.2031353 -0.869809
H -0.28338557 2.1212053 -1.4392035
H 0.0682153 2.295297 0.29180098
H -1.6140084 -0.10870416 -1.0565184
H -0.8145422 -1.4055916 -0.16893432
H -0.8674251 0.045175683 1.9126458
H -1.8653185 1.2083035 1.0291826
H -2.5838113 -1.4604764 1.519782
H 0.7604031 -1.2754304 -2.0554898
H 1.7126534 0.20236276 -2.3309188
H 2.2507572 -1.8840531 -0.15717998
H 3.2179494 -0.41788775 -0.45139688
