title
 OpenBabel02282109583D

 20 20  0  0  0  0  0  0  0  0999 V2000
    0.4872    1.8329    0.4114 C   0  0  0  0  0  0  0  0  0  0  0  0
    0.4598    0.3064    0.3249 C   0  0  0  0  0  0  0  0  0  0  0  0
   -0.9554   -0.2740    0.2864 C   0  0  0  0  0  0  0  0  0  0  0  0
   -1.7968    0.1676   -0.9070 C   0  0  0  0  0  0  0  0  0  0  0  0
   -3.0101   -0.5684   -0.8650 O   0  0  0  0  0  0  0  0  0  0  0  0
    1.4587   -0.2723   -0.7156 C   0  0  0  0  0  0  0  0  0  0  0  0
    2.3323   -0.7633    0.3185 O   0  0  0  0  0  0  0  0  0  0  0  0
    1.4035   -0.3777    1.3501 C   0  0  0  0  0  0  0  0  0  0  0  0
    1.5158    2.1956    0.5064 H   0  0  0  0  0  0  0  0  0  0  0  0
    0.0550    2.2987   -0.4804 H   0  0  0  0  0  0  0  0  0  0  0  0
   -0.0769    2.1884    1.2813 H   0  0  0  0  0  0  0  0  0  0  0  0
   -0.8991   -1.3689    0.2630 H   0  0  0  0  0  0  0  0  0  0  0  0
   -1.4896   -0.0093    1.2080 H   0  0  0  0  0  0  0  0  0  0  0  0
   -1.9912    1.2498   -0.8617 H   0  0  0  0  0  0  0  0  0  0  0  0
   -1.2470   -0.0256   -1.8438 H   0  0  0  0  0  0  0  0  0  0  0  0
   -3.5658   -0.2752   -1.5929 H   0  0  0  0  0  0  0  0  0  0  0  0
    1.0632   -1.0869   -1.3382 H   0  0  0  0  0  0  0  0  0  0  0  0
    1.9587    0.4582   -1.3643 H   0  0  0  0  0  0  0  0  0  0  0  0
    1.8653    0.2825    2.0951 H   0  0  0  0  0  0  0  0  0  0  0  0
    0.9742   -1.2493    1.8626 H   0  0  0  0  0  0  0  0  0  0  0  0
  1  9  1  0  0  0  0
  1 11  1  0  0  0  0
  2  1  1  0  0  0  0
  2  8  1  0  0  0  0
  3  2  1  0  0  0  0
  3 13  1  0  0  0  0
  4  5  1  0  0  0  0
  4 14  1  0  0  0  0
  4  3  1  0  0  0  0
  6  7  1  0  0  0  0
  6  2  1  0  0  0  0
  7  8  1  0  0  0  0
  8 20  1  0  0  0  0
  8 19  1  0  0  0  0
 10  1  1  0  0  0  0
 12  3  1  0  0  0  0
 15  4  1  0  0  0  0
 16  5  1  0  0  0  0
 17  6  1  0  0  0  0
 18  6  1  0  0  0  0
M  END
