title
 OpenBabel02282109583D

 22 22  0  0  0  0  0  0  0  0999 V2000
    1.1232    3.1722   -0.0484 C   0  0  0  0  0  0  0  0  0  0  0  0
    1.2160    1.6445   -0.1093 C   0  0  0  0  0  0  0  0  0  0  0  0
   -0.1512    0.9778   -0.3094 C   0  0  0  0  0  0  0  0  0  0  0  0
   -0.1452   -0.5554   -0.2858 C   0  0  0  0  0  0  0  0  0  0  0  0
    0.7097   -1.1713   -1.3919 C   0  0  0  0  0  0  0  0  0  0  0  0
    0.0683   -1.1858    1.1182 C   0  0  0  0  0  0  0  0  0  0  0  0
   -1.2669   -1.7259    1.1394 O   0  0  0  0  0  0  0  0  0  0  0  0
   -1.5614   -1.1794   -0.1605 C   0  0  0  0  0  0  0  0  0  0  0  0
    2.1089    3.6267    0.0912 H   0  0  0  0  0  0  0  0  0  0  0  0
    0.6967    3.5790   -0.9721 H   0  0  0  0  0  0  0  0  0  0  0  0
    0.4849    3.4981    0.7803 H   0  0  0  0  0  0  0  0  0  0  0  0
    1.8938    1.3574   -0.9217 H   0  0  0  0  0  0  0  0  0  0  0  0
    1.6735    1.2702    0.8163 H   0  0  0  0  0  0  0  0  0  0  0  0
   -0.8354    1.3336    0.4729 H   0  0  0  0  0  0  0  0  0  0  0  0
   -0.5813    1.3150   -1.2635 H   0  0  0  0  0  0  0  0  0  0  0  0
    1.7671   -0.9117   -1.2788 H   0  0  0  0  0  0  0  0  0  0  0  0
    0.6352   -2.2635   -1.3788 H   0  0  0  0  0  0  0  0  0  0  0  0
    0.3845   -0.8247   -2.3798 H   0  0  0  0  0  0  0  0  0  0  0  0
    0.8310   -1.9739    1.1723 H   0  0  0  0  0  0  0  0  0  0  0  0
    0.2357   -0.4759    1.9392 H   0  0  0  0  0  0  0  0  0  0  0  0
   -2.3919   -0.4616   -0.1263 H   0  0  0  0  0  0  0  0  0  0  0  0
   -1.7996   -1.9629   -0.8922 H   0  0  0  0  0  0  0  0  0  0  0  0
  1  9  1  0  0  0  0
  1 11  1  0  0  0  0
  2  1  1  0  0  0  0
  2 13  1  0  0  0  0
  3  4  1  0  0  0  0
  3  2  1  0  0  0  0
  3 14  1  0  0  0  0
  4  8  1  0  0  0  0
  4  6  1  0  0  0  0
  5 17  1  0  0  0  0
  5 16  1  0  0  0  0
  5  4  1  0  0  0  0
  6  7  1  0  0  0  0
  6 19  1  0  0  0  0
  6 20  1  0  0  0  0
  8 21  1  0  0  0  0
  8  7  1  0  0  0  0
 10  1  1  0  0  0  0
 12  2  1  0  0  0  0
 15  3  1  0  0  0  0
 18  5  1  0  0  0  0
 22  8  1  0  0  0  0
M  END
