title
 OpenBabel02282109583D

 20 20  0  0  0  0  0  0  0  0999 V2000
    1.1809    3.1198   -0.1185 C   0  0  0  0  0  0  0  0  0  0  0  0
    1.2256    1.5896   -0.0954 C   0  0  0  0  0  0  0  0  0  0  0  0
   -0.1597    0.9576   -0.2706 C   0  0  0  0  0  0  0  0  0  0  0  0
   -0.1519   -0.5667   -0.2747 C   0  0  0  0  0  0  0  0  0  0  0  0
    0.6689   -0.9842   -1.3390 O   0  0  0  0  0  0  0  0  0  0  0  0
    0.0698   -1.2260    1.1156 C   0  0  0  0  0  0  0  0  0  0  0  0
   -1.3316   -1.5405    1.2236 O   0  0  0  0  0  0  0  0  0  0  0  0
   -1.5608   -1.2070   -0.1593 C   0  0  0  0  0  0  0  0  0  0  0  0
    2.1797    3.5490    0.0077 H   0  0  0  0  0  0  0  0  0  0  0  0
    0.7780    3.4891   -1.0682 H   0  0  0  0  0  0  0  0  0  0  0  0
    0.5458    3.5129    0.6836 H   0  0  0  0  0  0  0  0  0  0  0  0
    1.8844    1.2211   -0.8879 H   0  0  0  0  0  0  0  0  0  0  0  0
    1.6656    1.2523    0.8523 H   0  0  0  0  0  0  0  0  0  0  0  0
   -0.8322    1.2935    0.5286 H   0  0  0  0  0  0  0  0  0  0  0  0
   -0.6003    1.2951   -1.2179 H   0  0  0  0  0  0  0  0  0  0  0  0
    0.7017   -1.9467   -1.3424 H   0  0  0  0  0  0  0  0  0  0  0  0
    0.6966   -2.1302    1.0714 H   0  0  0  0  0  0  0  0  0  0  0  0
    0.4174   -0.5907    1.9377 H   0  0  0  0  0  0  0  0  0  0  0  0
   -2.4302   -0.5532   -0.2928 H   0  0  0  0  0  0  0  0  0  0  0  0
   -1.6824   -2.1019   -0.7889 H   0  0  0  0  0  0  0  0  0  0  0  0
  1  2  1  0  0  0  0
  1  9  1  0  0  0  0
  1 11  1  0  0  0  0
  2 13  1  0  0  0  0
  3  2  1  0  0  0  0
  3 14  1  0  0  0  0
  4  3  1  0  0  0  0
  4  8  1  0  0  0  0
  4  6  1  0  0  0  0
  5  4  1  0  0  0  0
  6  7  1  0  0  0  0
  6 18  1  0  0  0  0
  8  7  1  0  0  0  0
 10  1  1  0  0  0  0
 12  2  1  0  0  0  0
 15  3  1  0  0  0  0
 16  5  1  0  0  0  0
 17  6  1  0  0  0  0
 19  8  1  0  0  0  0
 20  8  1  0  0  0  0
M  END
