title
 OpenBabel02282109583D

 22 22  0  0  0  0  0  0  0  0999 V2000
   -0.4004    2.8410    1.0037 C   0  0  0  0  0  0  0  0  0  0  0  0
   -0.4394    1.4361    0.9694 O   0  0  0  0  0  0  0  0  0  0  0  0
    0.4009    0.8822   -0.0216 C   0  0  0  0  0  0  0  0  0  0  0  0
    0.3030   -0.6398    0.0275 C   0  0  0  0  0  0  0  0  0  0  0  0
    0.7851   -1.1750    1.3715 C   0  0  0  0  0  0  0  0  0  0  0  0
   -1.0891   -1.1424   -0.4742 C   0  0  0  0  0  0  0  0  0  0  0  0
   -0.4758   -1.3986   -1.8773 C   0  0  0  0  0  0  0  0  0  0  0  0
    0.9403   -1.2673   -1.2531 C   0  0  0  0  0  0  0  0  0  0  0  0
    0.6109    3.2177    1.2265 H   0  0  0  0  0  0  0  0  0  0  0  0
   -0.7249    3.2836    0.0480 H   0  0  0  0  0  0  0  0  0  0  0  0
   -1.0807    3.1703    1.7932 H   0  0  0  0  0  0  0  0  0  0  0  0
    0.1066    1.2566   -1.0176 H   0  0  0  0  0  0  0  0  0  0  0  0
    1.4477    1.1950    0.1442 H   0  0  0  0  0  0  0  0  0  0  0  0
    0.2012   -0.7476    2.1917 H   0  0  0  0  0  0  0  0  0  0  0  0
    0.6944   -2.2653    1.4138 H   0  0  0  0  0  0  0  0  0  0  0  0
    1.8386   -0.9199    1.5418 H   0  0  0  0  0  0  0  0  0  0  0  0
   -1.3863   -2.0697    0.0239 H   0  0  0  0  0  0  0  0  0  0  0  0
   -1.9144   -0.4309   -0.3993 H   0  0  0  0  0  0  0  0  0  0  0  0
   -0.7166   -2.3498   -2.3574 H   0  0  0  0  0  0  0  0  0  0  0  0
   -0.6974   -0.5971   -2.5870 H   0  0  0  0  0  0  0  0  0  0  0  0
    1.6744   -0.6584   -1.7905 H   0  0  0  0  0  0  0  0  0  0  0  0
    1.3940   -2.2393   -1.0399 H   0  0  0  0  0  0  0  0  0  0  0  0
  1  9  1  0  0  0  0
  1 11  1  0  0  0  0
  2  1  1  0  0  0  0
  3  4  1  0  0  0  0
  3 13  1  0  0  0  0
  3  2  1  0  0  0  0
  4  5  1  0  0  0  0
  5 15  1  0  0  0  0
  5 16  1  0  0  0  0
  5 14  1  0  0  0  0
  6 18  1  0  0  0  0
  6 17  1  0  0  0  0
  6  4  1  0  0  0  0
  7  8  1  0  0  0  0
  7  6  1  0  0  0  0
  8 22  1  0  0  0  0
  8  4  1  0  0  0  0
 10  1  1  0  0  0  0
 12  3  1  0  0  0  0
 19  7  1  0  0  0  0
 20  7  1  0  0  0  0
 21  8  1  0  0  0  0
M  END
