22
title
C -0.40044898 2.8409529 1.003688
O -0.43942434 1.4360735 0.9694351
C 0.40086845 0.8822271 -0.02158334
C 0.30300817 -0.63978934 0.02753673
C 0.7851283 -1.174959 1.371488
C -1.0891322 -1.1424415 -0.47418204
C -0.4758464 -1.3986261 -1.8773054
C 0.9402742 -1.2672596 -1.2530962
H 0.61085093 3.2176588 1.2265148
H -0.72494185 3.2836325 0.048046805
H -1.0807089 3.1703455 1.7931731
H 0.106615774 1.2566434 -1.017614
H 1.4476918 1.1950288 0.1442356
H 0.20122172 -0.7476349 2.1917002
H 0.69443995 -2.2653146 1.4138341
H 1.838566 -0.9198997 1.5417513
H -1.3862807 -2.069727 0.02385054
H -1.9144304 -0.43092653 -0.39926353
H -0.71658254 -2.34981 -2.357392
H -0.6974277 -0.5971451 -2.5869887
H 1.6744365 -0.65836763 -1.7905174
H 1.3940004 -2.2393398 -1.039945
