title
 OpenBabel02282109583D

 20 20  0  0  0  0  0  0  0  0999 V2000
    0.9041    2.9494   -0.0379 C   0  0  0  0  0  0  0  0  0  0  0  0
    0.9742    1.5441   -0.0744 O   0  0  0  0  0  0  0  0  0  0  0  0
   -0.2758    0.9322   -0.3080 C   0  0  0  0  0  0  0  0  0  0  0  0
   -0.0866   -0.5800   -0.3169 C   0  0  0  0  0  0  0  0  0  0  0  0
    0.8491   -1.0331   -1.4301 C   0  0  0  0  0  0  0  0  0  0  0  0
    0.1764   -1.1447    1.1020 C   0  0  0  0  0  0  0  0  0  0  0  0
   -1.1810   -1.6255    1.2092 O   0  0  0  0  0  0  0  0  0  0  0  0
   -1.4369   -1.3252   -0.1761 C   0  0  0  0  0  0  0  0  0  0  0  0
    1.9129    3.3232    0.1533 H   0  0  0  0  0  0  0  0  0  0  0  0
    0.5456    3.3652   -0.9929 H   0  0  0  0  0  0  0  0  0  0  0  0
    0.2352    3.3042    0.7620 H   0  0  0  0  0  0  0  0  0  0  0  0
   -0.9947    1.2158    0.4796 H   0  0  0  0  0  0  0  0  0  0  0  0
   -0.6968    1.2679   -1.2728 H   0  0  0  0  0  0  0  0  0  0  0  0
    1.8216   -0.5424   -1.3375 H   0  0  0  0  0  0  0  0  0  0  0  0
    1.0016   -2.1165   -1.4001 H   0  0  0  0  0  0  0  0  0  0  0  0
    0.4387   -0.7782   -2.4143 H   0  0  0  0  0  0  0  0  0  0  0  0
    0.9042   -1.9667    1.1341 H   0  0  0  0  0  0  0  0  0  0  0  0
    0.4245   -0.4151    1.8804 H   0  0  0  0  0  0  0  0  0  0  0  0
   -2.3495   -0.7296   -0.3094 H   0  0  0  0  0  0  0  0  0  0  0  0
   -1.5146   -2.2344   -0.7885 H   0  0  0  0  0  0  0  0  0  0  0  0
  1  9  1  0  0  0  0
  1 11  1  0  0  0  0
  2  1  1  0  0  0  0
  3  2  1  0  0  0  0
  3 12  1  0  0  0  0
  4  3  1  0  0  0  0
  4  8  1  0  0  0  0
  4  6  1  0  0  0  0
  5 15  1  0  0  0  0
  5 14  1  0  0  0  0
  5  4  1  0  0  0  0
  6 17  1  0  0  0  0
  6  7  1  0  0  0  0
  6 18  1  0  0  0  0
  8  7  1  0  0  0  0
 10  1  1  0  0  0  0
 13  3  1  0  0  0  0
 16  5  1  0  0  0  0
 19  8  1  0  0  0  0
 20  8  1  0  0  0  0
M  END
