20
title
C 0.7836409 2.95586 0.07609684
O 0.87888473 1.5516149 0.014279211
C -0.37442064 0.9057583 -0.121107526
C -0.09327053 -0.5819328 -0.28860173
O 0.742846 -0.7803223 -1.40497
C 0.3123901 -1.2857587 1.0453287
C -1.1545342 -1.7748315 1.1897343
C -1.3791434 -1.4410064 -0.3114111
H 1.7984349 3.3498814 0.16993867
H 0.32015002 3.3727808 -0.8313167
H 0.19314891 3.2833855 0.9454321
H -1.0086663 1.0968683 0.75920665
H -0.9034512 1.2818867 -1.0123663
H 1.4179611 -0.090998895 -1.3588127
H 0.9986783 -2.1082776 0.83096224
H 0.73397714 -0.66099334 1.8360851
H -1.3044709 -2.8128064 1.4923656
H -1.7464303 -1.1369314 1.8516275
H -2.3115735 -0.94717765 -0.6007175
H -1.2245246 -2.3096943 -0.9557218
