title
 OpenBabel02282109583D

 20 20  0  0  0  0  0  0  0  0999 V2000
    0.8269    2.9920    0.1883 O   0  0  0  0  0  0  0  0  0  0  0  0
    1.0979    1.6121   -0.0041 C   0  0  0  0  0  0  0  0  0  0  0  0
   -0.2391    0.8967   -0.1632 C   0  0  0  0  0  0  0  0  0  0  0  0
   -0.1327   -0.6246   -0.3108 C   0  0  0  0  0  0  0  0  0  0  0  0
    0.6107   -0.9914   -1.4623 O   0  0  0  0  0  0  0  0  0  0  0  0
    0.2215   -1.3771    1.0153 C   0  0  0  0  0  0  0  0  0  0  0  0
   -1.2875   -1.6918    1.1996 C   0  0  0  0  0  0  0  0  0  0  0  0
   -1.5135   -1.3266   -0.2922 C   0  0  0  0  0  0  0  0  0  0  0  0
    1.6656    3.4561    0.2653 H   0  0  0  0  0  0  0  0  0  0  0  0
    1.7153    1.4593   -0.9051 H   0  0  0  0  0  0  0  0  0  0  0  0
    1.6542    1.1944    0.8511 H   0  0  0  0  0  0  0  0  0  0  0  0
   -0.8589    1.1386    0.7082 H   0  0  0  0  0  0  0  0  0  0  0  0
   -0.7498    1.3015   -1.0444 H   0  0  0  0  0  0  0  0  0  0  0  0
    1.5116   -0.6663   -1.3647 H   0  0  0  0  0  0  0  0  0  0  0  0
    0.8013   -2.2757    0.7890 H   0  0  0  0  0  0  0  0  0  0  0  0
    0.7244   -0.8158    1.8075 H   0  0  0  0  0  0  0  0  0  0  0  0
   -1.5477   -2.7065    1.5063 H   0  0  0  0  0  0  0  0  0  0  0  0
   -1.7781   -0.9913    1.8802 H   0  0  0  0  0  0  0  0  0  0  0  0
   -2.3846   -0.7181   -0.5481 H   0  0  0  0  0  0  0  0  0  0  0  0
   -1.4869   -2.2055   -0.9405 H   0  0  0  0  0  0  0  0  0  0  0  0
  1  9  1  0  0  0  0
  2  1  1  0  0  0  0
  2 11  1  0  0  0  0
  3  2  1  0  0  0  0
  3 12  1  0  0  0  0
  4  8  1  0  0  0  0
  4  3  1  0  0  0  0
  4  6  1  0  0  0  0
  5 14  1  0  0  0  0
  5  4  1  0  0  0  0
  6  7  1  0  0  0  0
  6 16  1  0  0  0  0
  7 17  1  0  0  0  0
  7 18  1  0  0  0  0
  8  7  1  0  0  0  0
 10  2  1  0  0  0  0
 13  3  1  0  0  0  0
 15  6  1  0  0  0  0
 19  8  1  0  0  0  0
 20  8  1  0  0  0  0
M  END
