20
title
O 0.82692146 2.9919999 0.18834364
C 1.0978792 1.6121145 -0.0041062045
C -0.23910967 0.89669067 -0.16315785
C -0.13272753 -0.62460166 -0.3107796
O 0.6107212 -0.991442 -1.4622508
C 0.22151604 -1.3771064 1.0153302
C -1.2875191 -1.6917562 1.1996218
C -1.5134591 -1.326621 -0.29220545
H 1.6656442 3.4560797 0.2652727
H 1.7153286 1.4593227 -0.9051076
H 1.654157 1.1943623 0.8511347
H -0.8589353 1.1385905 0.7081967
H -0.749782 1.3014816 -1.0443727
H 1.5116342 -0.66630536 -1.3646833
H 0.80128807 -2.2756565 0.7890241
H 0.7244138 -0.8157969 1.807518
H -1.5477241 -2.7065022 1.5062933
H -1.7781433 -0.99130493 1.880249
H -2.3845649 -0.71811754 -0.5481221
H -1.4868594 -2.2054577 -0.9405285
