title
 OpenBabel02282109583D

 18 18  0  0  0  0  0  0  0  0999 V2000
    1.0442    2.9596   -0.0871 O   0  0  0  0  0  0  0  0  0  0  0  0
    1.2160    1.5510   -0.1518 C   0  0  0  0  0  0  0  0  0  0  0  0
   -0.1713    0.9318   -0.2803 C   0  0  0  0  0  0  0  0  0  0  0  0
   -0.1618   -0.5901   -0.2681 C   0  0  0  0  0  0  0  0  0  0  0  0
    0.6649   -1.0179   -1.3251 O   0  0  0  0  0  0  0  0  0  0  0  0
    0.0570   -1.2393    1.1283 C   0  0  0  0  0  0  0  0  0  0  0  0
   -1.3409   -1.5686    1.2291 O   0  0  0  0  0  0  0  0  0  0  0  0
   -1.5702   -1.2304   -0.1523 C   0  0  0  0  0  0  0  0  0  0  0  0
    1.9147    3.3675   -0.0898 H   0  0  0  0  0  0  0  0  0  0  0  0
    1.8310    1.2558   -1.0119 H   0  0  0  0  0  0  0  0  0  0  0  0
    1.7157    1.1714    0.7553 H   0  0  0  0  0  0  0  0  0  0  0  0
   -0.8000    1.2899    0.5421 H   0  0  0  0  0  0  0  0  0  0  0  0
   -0.6287    1.2783   -1.2140 H   0  0  0  0  0  0  0  0  0  0  0  0
    0.6804   -1.9809   -1.3326 H   0  0  0  0  0  0  0  0  0  0  0  0
    0.6949   -2.1360    1.0936 H   0  0  0  0  0  0  0  0  0  0  0  0
    0.3913   -0.5942    1.9483 H   0  0  0  0  0  0  0  0  0  0  0  0
   -2.4385   -0.5750   -0.2835 H   0  0  0  0  0  0  0  0  0  0  0  0
   -1.6926   -2.1225   -0.7856 H   0  0  0  0  0  0  0  0  0  0  0  0
  2  1  1  0  0  0  0
  2 11  1  0  0  0  0
  3  4  1  0  0  0  0
  3  2  1  0  0  0  0
  3 12  1  0  0  0  0
  4  8  1  0  0  0  0
  4  6  1  0  0  0  0
  5  4  1  0  0  0  0
  6  7  1  0  0  0  0
  6 16  1  0  0  0  0
  8  7  1  0  0  0  0
  9  1  1  0  0  0  0
 10  2  1  0  0  0  0
 13  3  1  0  0  0  0
 14  5  1  0  0  0  0
 15  6  1  0  0  0  0
 17  8  1  0  0  0  0
 18  8  1  0  0  0  0
M  END
