20
title
C 0.46180704 3.351244 -0.040613547
C 0.43605486 1.8951342 -0.037656978
C 0.41283503 0.68957525 -0.02855738
C 0.42720792 -0.7509894 -0.0476743
C 1.58832 -1.3622822 -0.8200655
C -0.06686349 -1.4843384 1.1954213
C -0.9054507 -1.499256 -0.052719485
C -2.2301247 -0.77585953 -0.111613676
H 1.385169 3.7294252 -0.4937631
H -0.3774767 3.7678368 -0.60918415
H 0.40557745 3.756145 0.97631264
H 2.547792 -1.0551199 -0.39153248
H 1.5384377 -2.4554224 -0.79362714
H 1.5712514 -1.045319 -1.8678231
H 0.46402177 -2.3850384 1.4861758
H -0.40853184 -0.8747439 2.02473
H -0.87605953 -2.4263663 -0.6206729
H -2.184966 0.17237443 0.43049398
H -2.5142405 -0.55202955 -1.1456709
H -3.0259664 -1.3851432 0.3310815
