title
 OpenBabel02282109583D

 18 18  0  0  1  0  0  0  0  0999 V2000
    0.2985    3.3390   -0.0558 C   0  0  0  0  0  0  0  0  0  0  0  0
    0.3623    1.8838   -0.0564 C   0  0  0  0  0  0  0  0  0  0  0  0
    0.4531    0.6799   -0.0388 C   0  0  0  0  0  0  0  0  0  0  0  0
    0.4971   -0.7577   -0.0613 C   0  0  1  0  0  0  0  0  0  0  0  0
    1.6104   -1.3818   -0.8870 C   0  0  0  0  0  0  0  0  0  0  0  0
    0.0169   -1.4938    1.1963 C   0  0  0  0  0  0  0  0  0  0  0  0
   -0.8655   -1.4434   -0.0183 C   0  0  1  0  0  0  0  0  0  0  0  0
   -2.0350   -0.6932   -0.0150 O   0  0  0  0  0  0  0  0  0  0  0  0
    1.3005    3.7753    0.0228 H   0  0  0  0  0  0  0  0  0  0  0  0
   -0.1594    3.7241   -0.9736 H   0  0  0  0  0  0  0  0  0  0  0  0
   -0.2897    3.7106    0.7905 H   0  0  0  0  0  0  0  0  0  0  0  0
    2.5926   -1.1266   -0.4760 H   0  0  0  0  0  0  0  0  0  0  0  0
    1.5198   -2.4722   -0.8910 H   0  0  0  0  0  0  0  0  0  0  0  0
    1.5746   -1.0323   -1.9236 H   0  0  0  0  0  0  0  0  0  0  0  0
    0.5199   -2.4220    1.4478 H   0  0  0  0  0  0  0  0  0  0  0  0
   -0.2813   -0.8839    2.0410 H   0  0  0  0  0  0  0  0  0  0  0  0
   -0.9645   -2.3485   -0.6125 H   0  0  0  0  0  0  0  0  0  0  0  0
   -1.7855    0.2349   -0.1257 H   0  0  0  0  0  0  0  0  0  0  0  0
  1  9  1  0  0  0  0
  1 11  1  0  0  0  0
  2  1  1  0  0  0  0
  2  3  3  0  0  0  0
  4  3  1  0  0  0  0
  4  7  1  6  0  0  0
  4  6  1  0  0  0  0
  5 12  1  0  0  0  0
  5  4  1  0  0  0  0
  6 15  1  0  0  0  0
  6 16  1  0  0  0  0
  7 17  1  6  0  0  0
  7  8  1  0  0  0  0
  7  6  1  0  0  0  0
 10  1  1  0  0  0  0
 13  5  1  0  0  0  0
 14  5  1  0  0  0  0
 18  8  1  0  0  0  0
M  END
