18
title
C 0.29851642 3.3389792 -0.05577022
C 0.36227858 1.8837595 -0.05642945
C 0.45308 0.6798974 -0.038811613
C 0.49706754 -0.7576654 -0.061335016
C 1.6103952 -1.3817999 -0.88704437
C 0.016931126 -1.4937692 1.1963353
C -0.86553556 -1.4433734 -0.018254826
O -2.035014 -0.6931801 -0.014962398
H 1.3004624 3.7752988 0.02283763
H -0.15939261 3.7241082 -0.97358376
H -0.2896692 3.7106225 0.79053015
H 2.5925953 -1.1265507 -0.47600585
H 1.5198323 -2.4722466 -0.8909523
H 1.5745671 -1.0322568 -1.9235764
H 0.5199373 -2.4219599 1.4477738
H -0.28130016 -0.8839178 2.0410242
H -0.9644714 -2.3485374 -0.6125217
H -1.785492 0.23492955 -0.12568492
