19
title
C 0.49311775 3.3695166 -0.03503875
C 0.45064586 1.9143622 -0.043727975
C 0.4094107 0.7103423 -0.034067575
C 0.4013125 -0.73317266 -0.07619991
C 1.5919471 -1.345289 -0.79673797
N -0.100793004 -1.408279 1.152176
C -0.89855397 -1.4831133 -0.07990604
C -2.2456083 -0.8069351 -0.063679375
H 1.4812639 3.7402601 -0.3294631
H -0.24040717 3.7963707 -0.72824913
H 0.2755356 3.7657156 0.9630534
H 2.5260744 -1.0891905 -0.28615102
H 1.5045478 -2.4364603 -0.83266604
H 1.6604639 -0.97313404 -1.8236167
H 0.42310715 -2.270066 1.289623
H -0.8684665 -2.4252007 -0.62793976
H -2.187542 0.15005097 0.45870838
H -2.600921 -0.6254895 -1.0837694
H -2.9832563 -1.4350903 0.4470828
