18
title
C 0.48763484 3.382832 -0.00939311
C 0.4379792 1.928082 -0.011344957
C 0.39131218 0.72333646 -0.020237928
C 0.3951203 -0.7168013 -0.038076766
O 1.4226878 -1.3032304 -0.80068994
C -0.069412306 -1.4817771 1.1956465
C -0.89580184 -1.5014621 -0.068538286
C -2.2439704 -0.8252374 -0.13982634
H 1.3807744 3.744281 -0.53117734
H -0.38444498 3.814106 -0.51350963
H 0.5159618 3.7838316 1.0099959
H 2.2612576 -1.0021964 -0.432641
H 0.5025087 -2.3681884 1.44626
H -0.43408015 -0.90581024 2.039521
H -0.7991162 -2.410194 -0.6560861
H -2.2436466 0.11523471 0.41820958
H -2.5174494 -0.5969051 -1.1753677
H -3.02329 -1.4696797 0.28120112
