20
title
C -0.77153176 2.2772841 -1.6823786
C -0.6595498 0.80562985 -1.3472346
C 0.67163676 0.08650866 -1.3691595
C -0.055771597 0.28151974 -0.05936988
C 0.5180066 1.2295018 0.9754568
C -0.7372974 -0.95081997 0.54376787
C 0.17034 -1.8129195 1.2970917
C 0.930237 -2.512052 1.9129901
H 0.1038013 2.843424 -1.3527553
H -0.8600447 2.417763 -2.765461
H -1.6546026 2.7299418 -1.2171361
H -1.5000846 0.22036245 -1.7154675
H 0.72405666 -0.9109707 -1.7934171
H 1.5613589 0.68479013 -1.54099
H 1.0537096 2.0632706 0.51623327
H -0.27134 1.6482507 1.6117742
H 1.2219324 0.69935924 1.6251304
H -1.5567821 -0.6283573 1.2015066
H -1.2041599 -1.5374979 -0.25714
H 1.5948875 -3.1363723 2.4566197
