19
title
C -0.7645143 2.3221076 -1.6440952
C -0.6635257 0.8436425 -1.3374007
C 0.6585835 0.11091245 -1.3828449
C -0.053122118 0.29500318 -0.062163886
C 0.5402802 1.2163534 0.98583716
C -0.7479976 -0.9356523 0.5234749
C 0.16919826 -1.8152758 1.2531743
N 0.905573 -2.4970174 1.8264382
H 0.12183218 2.872909 -1.3186035
H -0.8671851 2.4803247 -2.7231069
H -1.6359898 2.77495 -1.1583213
H -1.5137534 0.27323675 -1.7063192
H 0.6968082 -0.8795889 -1.8244514
H 1.5545667 0.7006689 -1.5491639
H 1.0709509 2.05689 0.53429323
H -0.23685898 1.6248584 1.6430452
H 1.2559022 0.6742638 1.6132212
H -1.5489625 -0.6315481 1.2094381
H -1.2204422 -1.5221406 -0.27201003
