18
title
C -0.7325887 2.3111212 -1.5433148
C -0.6654475 0.8095568 -1.3739722
C 0.6689279 0.07984047 -1.4323795
C -0.09055437 0.19392876 -0.13213056
O 0.37919295 1.0952197 0.8290729
C -0.7459117 -1.0456909 0.47169524
C 0.18810622 -1.7790581 1.3229445
C 0.99571407 -2.3258822 2.026806
H 0.09808914 2.7972841 -1.027655
H -0.69258803 2.5849113 -2.6030853
H -1.6622362 2.7142823 -1.1273791
H -1.5059474 0.2700256 -1.8056146
H 0.7260215 -0.880759 -1.9337016
H 1.5579971 0.6951356 -1.5220326
H 1.0517516 0.6331282 1.3450197
H -1.6154978 -0.7365043 1.0656537
H -1.1179363 -1.6971835 -0.32739502
H 1.6906449 -2.8375561 2.6456559
