17
title
C -0.740806 2.315708 -1.5608656
C -0.66677845 0.8165178 -1.3773988
C 0.6686027 0.09130688 -1.427609
C -0.08565318 0.21819355 -0.12707314
O 0.37773752 1.124503 0.82965523
C -0.75289553 -1.0127343 0.48273578
C 0.19405001 -1.76973 1.3040192
N 0.9769561 -2.3237436 1.9490185
H 0.085269816 2.8114936 -1.0472213
H -0.69816935 2.5775478 -2.623178
H -1.6743505 2.7170968 -1.1527361
H -1.5059742 0.26867455 -1.8003258
H 0.73027945 -0.8759797 -1.915086
H 1.5565282 0.7068971 -1.5261557
H 1.1634591 0.7483192 1.2444711
H -1.5922207 -0.70085615 1.1146171
H -1.1507987 -1.6665257 -0.29982886
