title
 OpenBabel02282109583D

 18 18  0  0  1  0  0  0  0  0999 V2000
   -0.7486    2.3048   -1.6688 C   0  0  0  0  0  0  0  0  0  0  0  0
   -0.6852    0.8471   -1.2806 C   0  0  1  0  0  0  0  0  0  0  0  0
    0.6378    0.1959   -1.2797 N   0  0  0  0  0  0  0  0  0  0  0  0
   -0.0960    0.3255   -0.0115 C   0  0  1  0  0  0  0  0  0  0  0  0
    0.5349    1.2238    1.0319 C   0  0  0  0  0  0  0  0  0  0  0  0
   -0.7554   -0.9314    0.5636 C   0  0  0  0  0  0  0  0  0  0  0  0
    0.2045   -1.8402    1.1958 C   0  0  0  0  0  0  0  0  0  0  0  0
    0.9697   -2.5522    1.6886 N   0  0  0  0  0  0  0  0  0  0  0  0
    0.1132    2.8587   -1.2922 H   0  0  0  0  0  0  0  0  0  0  0  0
   -0.7559    2.4041   -2.7593 H   0  0  0  0  0  0  0  0  0  0  0  0
   -1.6609    2.7721   -1.2825 H   0  0  0  0  0  0  0  0  0  0  0  0
   -1.5148    0.2571   -1.6727 H   0  0  0  0  0  0  0  0  0  0  0  0
    0.5872   -0.7518   -1.6454 H   0  0  0  0  0  0  0  0  0  0  0  0
    1.0590    2.0570    0.5633 H   0  0  0  0  0  0  0  0  0  0  0  0
   -0.2220    1.6245    1.7157 H   0  0  0  0  0  0  0  0  0  0  0  0
    1.2649    0.6634    1.6254 H   0  0  0  0  0  0  0  0  0  0  0  0
   -1.5084   -0.6542    1.3116 H   0  0  0  0  0  0  0  0  0  0  0  0
   -1.2812   -1.4814   -0.2249 H   0  0  0  0  0  0  0  0  0  0  0  0
  1  9  1  0  0  0  0
  1 11  1  0  0  0  0
  1  2  1  0  0  0  0
  2  3  1  0  0  0  0
  2  4  1  1  0  0  0
  3  4  1  0  0  0  0
  4  6  1  1  0  0  0
  4  5  1  0  0  0  0
  5 16  1  0  0  0  0
  5 15  1  0  0  0  0
  6  7  1  0  0  0  0
  6 17  1  0  0  0  0
  7  8  3  0  0  0  0
 10  1  1  0  0  0  0
 12  2  1  0  0  0  0
 13  3  1  0  0  0  0
 14  5  1  0  0  0  0
 18  6  1  0  0  0  0
M  END
