18
title
C -0.7486018 2.304815 -1.668758
C -0.68522596 0.84710133 -1.2806368
N 0.6378378 0.19587334 -1.2797334
C -0.09598306 0.3255424 -0.011482363
C 0.5348998 1.223802 1.0318856
C -0.75538516 -0.9313562 0.56357026
C 0.20449755 -1.8402238 1.1958365
N 0.969698 -2.5521796 1.688618
H 0.113214284 2.858653 -1.2922028
H -0.755852 2.4040673 -2.75932
H -1.6608719 2.7721257 -1.2824739
H -1.5148039 0.2571252 -1.6727066
H 0.58721405 -0.75183034 -1.6453563
H 1.0590159 2.0569546 0.5632595
H -0.22197482 1.6244813 1.7156641
H 1.2648556 0.66340613 1.625396
H -1.508406 -0.65419745 1.311584
H -1.2812067 -1.4813972 -0.22491395
