18
title
C -0.65964335 2.2452493 -1.7470671
C -0.661643 0.8057396 -1.300236
O 0.6000616 0.12620643 -1.227851
C -0.14159949 0.30268052 -0.013903524
C 0.48301297 1.203447 1.0272567
C -0.75740695 -0.9903463 0.53133357
C 0.18700115 -1.8208159 1.2713997
C 0.9712481 -2.4949949 1.8835828
H 0.123732135 2.827234 -1.2590778
H -0.49589992 2.2994943 -2.828514
H -1.6278383 2.7110574 -1.5329416
H -1.4457704 0.2041851 -1.7683203
H 0.9617668 2.0701714 0.57088387
H -0.27321506 1.5532068 1.7388725
H 1.2409378 0.6500333 1.589112
H -1.6043986 -0.73251724 1.1817305
H -1.1663061 -1.5614964 -0.3093908
H 1.66234 -3.0991943 2.4170682
