17
title
C -0.6758385 2.3098912 -1.6771672
C -0.68794006 0.859726 -1.2691886
O 0.5650531 0.15953086 -1.2467358
C -0.13696758 0.3185311 -0.011033318
C 0.528911 1.1746938 1.0416938
C -0.76033974 -0.9810755 0.5095943
C 0.20284255 -1.83576 1.2044262
N 0.9679326 -2.4981916 1.7618457
H 0.13463993 2.864818 -1.2024269
H -0.5484609 2.388565 -2.7617207
H -1.6277078 2.7855072 -1.4174448
H -1.4934446 0.28111506 -1.7293296
H 0.98467183 2.061691 0.60176504
H -0.19654547 1.4913639 1.7990333
H 1.3151547 0.60526425 1.5468892
H -1.5798308 -0.7509148 1.201146
H -1.1842183 -1.5414511 -0.32891145
