title
 OpenBabel02282109583D

 17 17  0  0  1  0  0  0  0  0999 V2000
   -0.6758    2.3099   -1.6772 C   0  0  0  0  0  0  0  0  0  0  0  0
   -0.6879    0.8597   -1.2692 C   0  0  1  0  0  0  0  0  0  0  0  0
    0.5651    0.1595   -1.2467 O   0  0  0  0  0  0  0  0  0  0  0  0
   -0.1370    0.3185   -0.0110 C   0  0  1  0  0  0  0  0  0  0  0  0
    0.5289    1.1747    1.0417 C   0  0  0  0  0  0  0  0  0  0  0  0
   -0.7603   -0.9811    0.5096 C   0  0  0  0  0  0  0  0  0  0  0  0
    0.2028   -1.8358    1.2044 C   0  0  0  0  0  0  0  0  0  0  0  0
    0.9679   -2.4982    1.7618 N   0  0  0  0  0  0  0  0  0  0  0  0
    0.1346    2.8648   -1.2024 H   0  0  0  0  0  0  0  0  0  0  0  0
   -0.5485    2.3886   -2.7617 H   0  0  0  0  0  0  0  0  0  0  0  0
   -1.6277    2.7855   -1.4174 H   0  0  0  0  0  0  0  0  0  0  0  0
   -1.4934    0.2811   -1.7293 H   0  0  0  0  0  0  0  0  0  0  0  0
    0.9847    2.0617    0.6018 H   0  0  0  0  0  0  0  0  0  0  0  0
   -0.1965    1.4914    1.7990 H   0  0  0  0  0  0  0  0  0  0  0  0
    1.3152    0.6053    1.5469 H   0  0  0  0  0  0  0  0  0  0  0  0
   -1.5798   -0.7509    1.2011 H   0  0  0  0  0  0  0  0  0  0  0  0
   -1.1842   -1.5415   -0.3289 H   0  0  0  0  0  0  0  0  0  0  0  0
  1 11  1  0  0  0  0
  1  2  1  0  0  0  0
  1  9  1  0  0  0  0
  2  3  1  0  0  0  0
  2  4  1  1  0  0  0
  3  4  1  0  0  0  0
  4  6  1  1  0  0  0
  4  5  1  0  0  0  0
  5 15  1  0  0  0  0
  5 14  1  0  0  0  0
  6 16  1  0  0  0  0
  6  7  1  0  0  0  0
  7  8  3  0  0  0  0
 10  1  1  0  0  0  0
 12  2  1  0  0  0  0
 13  5  1  0  0  0  0
 17  6  1  0  0  0  0
M  END
