title
 OpenBabel02282109583D

 19 19  0  0  1  0  0  0  0  0999 V2000
   -0.5455    1.8893   -1.4030 C   0  0  0  0  0  0  0  0  0  0  0  0
   -0.2912    0.4637   -1.2740 N   0  0  0  0  0  0  0  0  0  0  0  0
    1.0178   -0.0479   -1.6667 C   0  0  0  0  0  0  0  0  0  0  0  0
    0.5967   -0.0534   -0.2331 C   0  0  1  0  0  0  0  0  0  0  0  0
    1.2958    0.8617    0.7540 C   0  0  0  0  0  0  0  0  0  0  0  0
    0.1086   -1.3764    0.3665 C   0  0  0  0  0  0  0  0  0  0  0  0
   -0.8344   -1.1980    1.4662 C   0  0  0  0  0  0  0  0  0  0  0  0
   -1.6059   -1.0324    2.3733 C   0  0  0  0  0  0  0  0  0  0  0  0
    0.3406    2.5303   -1.2762 H   0  0  0  0  0  0  0  0  0  0  0  0
   -0.9537    2.0803   -2.4008 H   0  0  0  0  0  0  0  0  0  0  0  0
   -1.2973    2.1908   -0.6669 H   0  0  0  0  0  0  0  0  0  0  0  0
    1.0202   -0.9613   -2.2581 H   0  0  0  0  0  0  0  0  0  0  0  0
    1.7847    0.6735   -1.9499 H   0  0  0  0  0  0  0  0  0  0  0  0
    1.6694    1.7724    0.2822 H   0  0  0  0  0  0  0  0  0  0  0  0
    0.6205    1.1420    1.5684 H   0  0  0  0  0  0  0  0  0  0  0  0
    2.1535    0.3457    1.1993 H   0  0  0  0  0  0  0  0  0  0  0  0
   -0.3659   -1.9602   -0.4293 H   0  0  0  0  0  0  0  0  0  0  0  0
    0.9740   -1.9550    0.7178 H   0  0  0  0  0  0  0  0  0  0  0  0
   -2.2939   -0.8981    3.1706 H   0  0  0  0  0  0  0  0  0  0  0  0
  1  9  1  0  0  0  0
  1  2  1  0  0  0  0
  1 11  1  0  0  0  0
  2  4  1  0  0  0  0
  3  2  1  0  0  0  0
  3  4  1  0  0  0  0
  4  6  1  1  0  0  0
  4  5  1  0  0  0  0
  5 16  1  0  0  0  0
  5 15  1  0  0  0  0
  6 18  1  0  0  0  0
  6  7  1  0  0  0  0
  7  8  3  0  0  0  0
  8 19  1  0  0  0  0
 10  1  1  0  0  0  0
 12  3  1  0  0  0  0
 13  3  1  0  0  0  0
 14  5  1  0  0  0  0
 17  6  1  0  0  0  0
M  END
