19
title
C -0.54553574 1.8893129 -1.4030181
N -0.29118407 0.46368352 -1.2740117
C 1.017778 -0.047850635 -1.6667471
C 0.5967159 -0.053415563 -0.23305674
C 1.2958239 0.86172503 0.7540056
C 0.10863566 -1.3764359 0.36649862
C -0.83442867 -1.1979991 1.4662205
C -1.6059135 -1.0323662 2.3732657
H 0.34056565 2.530339 -1.2761673
H -0.95374715 2.0802505 -2.400791
H -1.297276 2.1907768 -0.6669161
H 1.0201668 -0.96133935 -2.258094
H 1.7847412 0.6735337 -1.9498886
H 1.6694382 1.7723837 0.28223065
H 0.62051886 1.1420459 1.5684069
H 2.1535022 0.34572104 1.1993238
H -0.36586216 -1.9601606 -0.4292923
H 0.97401065 -1.9550372 0.71776766
H -2.2939293 -0.89812934 3.1705937
