title
 OpenBabel02282109583D

 18 18  0  0  1  0  0  0  0  0999 V2000
   -0.5197    1.8974   -1.4097 C   0  0  0  0  0  0  0  0  0  0  0  0
   -0.2553    0.4721   -1.2829 N   0  0  0  0  0  0  0  0  0  0  0  0
    1.0638   -0.0299   -1.6498 C   0  0  0  0  0  0  0  0  0  0  0  0
    0.6118   -0.0420   -0.2257 C   0  0  1  0  0  0  0  0  0  0  0  0
    1.2811    0.8662    0.7878 C   0  0  0  0  0  0  0  0  0  0  0  0
    0.1143   -1.3723    0.3484 C   0  0  0  0  0  0  0  0  0  0  0  0
   -0.8644   -1.1855    1.4205 C   0  0  0  0  0  0  0  0  0  0  0  0
   -1.6275   -1.0142    2.2714 N   0  0  0  0  0  0  0  0  0  0  0  0
    0.3596    2.5424   -1.2623 H   0  0  0  0  0  0  0  0  0  0  0  0
   -0.9092    2.0876   -2.4145 H   0  0  0  0  0  0  0  0  0  0  0  0
   -1.2886    2.1882   -0.6877 H   0  0  0  0  0  0  0  0  0  0  0  0
    1.0854   -0.9406   -2.2448 H   0  0  0  0  0  0  0  0  0  0  0  0
    1.8341    0.6966   -1.9088 H   0  0  0  0  0  0  0  0  0  0  0  0
    1.6643    1.7795    0.3300 H   0  0  0  0  0  0  0  0  0  0  0  0
    0.5843    1.1452    1.5850 H   0  0  0  0  0  0  0  0  0  0  0  0
    2.1283    0.3511    1.2535 H   0  0  0  0  0  0  0  0  0  0  0  0
   -0.3512   -1.9566   -0.4502 H   0  0  0  0  0  0  0  0  0  0  0  0
    0.9553   -1.9554    0.7430 H   0  0  0  0  0  0  0  0  0  0  0  0
  1  2  1  0  0  0  0
  1  9  1  0  0  0  0
  1 11  1  0  0  0  0
  2  4  1  0  0  0  0
  3  2  1  0  0  0  0
  3  4  1  0  0  0  0
  4  6  1  1  0  0  0
  4  5  1  0  0  0  0
  5 16  1  0  0  0  0
  5 15  1  0  0  0  0
  6 18  1  0  0  0  0
  6  7  1  0  0  0  0
  7  8  3  0  0  0  0
 10  1  1  0  0  0  0
 12  3  1  0  0  0  0
 13  3  1  0  0  0  0
 14  5  1  0  0  0  0
 17  6  1  0  0  0  0
M  END
