title
 OpenBabel02282109583D

 16 16  0  0  1  0  0  0  0  0999 V2000
   -0.5323    1.4224   -0.0307 N   0  0  0  0  0  0  0  0  0  0  0  0
   -0.2469    0.0088   -0.0252 C   0  0  1  0  0  0  0  0  0  0  0  0
    0.8853   -0.4938   -0.9194 C   0  0  0  0  0  0  0  0  0  0  0  0
    2.1773    0.0787   -0.5334 C   0  0  0  0  0  0  0  0  0  0  0  0
    3.1733    0.5638   -0.2043 N   0  0  0  0  0  0  0  0  0  0  0  0
   -0.4982   -0.6898    1.2984 C   0  0  0  0  0  0  0  0  0  0  0  0
   -1.4817   -0.8495    0.1616 C   0  0  1  0  0  0  0  0  0  0  0  0
   -2.7207   -0.2303    0.2005 O   0  0  0  0  0  0  0  0  0  0  0  0
    0.1737    1.9484    0.4754 H   0  0  0  0  0  0  0  0  0  0  0  0
   -0.5682    1.7884   -0.9779 H   0  0  0  0  0  0  0  0  0  0  0  0
    0.9548   -1.5862   -0.8753 H   0  0  0  0  0  0  0  0  0  0  0  0
    0.6880   -0.2334   -1.9674 H   0  0  0  0  0  0  0  0  0  0  0  0
    0.1414   -1.5241    1.5662 H   0  0  0  0  0  0  0  0  0  0  0  0
   -0.8072   -0.0644    2.1285 H   0  0  0  0  0  0  0  0  0  0  0  0
   -1.5284   -1.8091   -0.3450 H   0  0  0  0  0  0  0  0  0  0  0  0
   -2.5283    0.7168    0.2941 H   0  0  0  0  0  0  0  0  0  0  0  0
  1  2  1  0  0  0  0
  1  9  1  0  0  0  0
  2  7  1  6  0  0  0
  2  6  1  0  0  0  0
  3 11  1  0  0  0  0
  3  4  1  0  0  0  0
  3  2  1  0  0  0  0
  4  5  3  0  0  0  0
  6 13  1  0  0  0  0
  6 14  1  0  0  0  0
  7 15  1  6  0  0  0
  7  8  1  0  0  0  0
  7  6  1  0  0  0  0
  8 16  1  0  0  0  0
 10  1  1  0  0  0  0
 12  3  1  0  0  0  0
M  END
