16
title
O 1.6437299 2.1435397 0.18195637
C 1.5227268 0.7594076 0.15689033
C 0.8726952 0.01508694 1.312185
C 0.16184597 0.15351622 -0.020106744
O -0.8409583 1.1303099 -0.11091996
C -0.0733393 -1.0567806 -0.9124244
C -1.2934265 -1.7664276 -0.53432673
C -2.3160348 -2.2970731 -0.18989201
H 0.74561125 2.4950972 0.11425208
H 2.3676314 0.28778476 -0.33761397
H 1.261698 -0.9557592 1.6015079
H 0.49826634 0.62694985 2.1258843
H -1.6346116 0.78461844 0.3143
H -0.14827509 -0.7229044 -1.9549444
H 0.7889259 -1.731248 -0.85350245
H -3.2093768 -2.7934282 0.09889211
