title
 OpenBabel02282109583D

 15 15  0  0  1  0  0  0  0  0999 V2000
    1.6790    2.1320    0.1927 O   0  0  0  0  0  0  0  0  0  0  0  0
    1.5342    0.7532    0.1598 C   0  0  1  0  0  0  0  0  0  0  0  0
    0.8726    0.0122    1.3094 C   0  0  0  0  0  0  0  0  0  0  0  0
    0.1566    0.1773   -0.0155 C   0  0  1  0  0  0  0  0  0  0  0  0
   -0.8311    1.1678   -0.1012 O   0  0  0  0  0  0  0  0  0  0  0  0
   -0.0893   -1.0158   -0.9278 C   0  0  0  0  0  0  0  0  0  0  0  0
   -1.2952   -1.7453   -0.5285 C   0  0  0  0  0  0  0  0  0  0  0  0
   -2.2592   -2.2794   -0.1807 N   0  0  0  0  0  0  0  0  0  0  0  0
    0.7878    2.5020    0.1254 H   0  0  0  0  0  0  0  0  0  0  0  0
    2.3667    0.2678   -0.3423 H   0  0  0  0  0  0  0  0  0  0  0  0
    1.2402   -0.9700    1.5871 H   0  0  0  0  0  0  0  0  0  0  0  0
    0.5135    0.6217    2.1318 H   0  0  0  0  0  0  0  0  0  0  0  0
   -1.5775    0.9149    0.4544 H   0  0  0  0  0  0  0  0  0  0  0  0
   -0.2109   -0.6709   -1.9607 H   0  0  0  0  0  0  0  0  0  0  0  0
    0.7667   -1.6981   -0.9052 H   0  0  0  0  0  0  0  0  0  0  0  0
  2  4  1  6  0  0  0
  2  1  1  0  0  0  0
  2  3  1  0  0  0  0
  3 11  1  0  0  0  0
  3 12  1  0  0  0  0
  4  5  1  1  0  0  0
  4  3  1  0  0  0  0
  5 13  1  0  0  0  0
  6 15  1  0  0  0  0
  6  7  1  0  0  0  0
  6  4  1  0  0  0  0
  7  8  3  0  0  0  0
  9  1  1  0  0  0  0
 10  2  1  0  0  0  0
 14  6  1  0  0  0  0
M  END
