18
title
C 0.07163727 1.5881951 0.40358725
C 0.22334196 0.086570285 0.24596766
C -0.9837044 -0.61526865 -0.36116222
C -1.2268882 -0.21079116 -1.8018671
O -2.293238 0.11349965 -2.2568836
C 1.6051943 -0.46462253 -0.08703157
C 1.0104967 -0.66625834 1.285752
O 1.50275 0.06275315 2.371039
H 0.9311257 2.0151749 0.9221886
H -0.02847855 2.0798194 -0.57058775
H -0.8232897 1.8272578 0.98890185
H -0.8160003 -1.7022358 -0.36199734
H -1.8968402 -0.42039776 0.21098123
H -0.3155397 -0.24099492 -2.4437048
H 1.6939521 -1.3206134 -0.74827516
H 2.4123335 0.2559741 -0.16809002
H 0.6604368 -1.6680601 1.538186
H 2.3870447 -0.26110452 2.5710294
