19
title
C -0.9553294 2.524968 -1.0970739
C -0.8022625 1.0211979 -1.040606
C 0.519655 0.34155598 -1.3107336
C -0.07275677 0.30558494 0.0779677
C 0.60587585 1.0489464 1.2125533
N -0.6737593 -0.9471011 0.4760136
C 0.046430405 -2.05774 0.7954499
O 1.2518512 -2.1587293 0.71844035
H -0.048919503 3.0410562 -0.7696412
H -1.1611447 2.8484776 -2.123081
H -1.7825596 2.8716311 -0.4674073
H -1.6692593 0.47801855 -1.4108018
H 0.5297308 -0.5786722 -1.881441
H 1.392955 0.96970505 -1.4541605
H 1.0720499 1.9745718 0.8673416
H -0.10907978 1.3026848 2.0035493
H 1.387525 0.41648802 1.6422079
H -1.6620182 -0.95883703 0.67881113
H -0.6111164 -2.886585 1.131335
