title
 OpenBabel02282109583D

 19 19  0  0  1  0  0  0  0  0999 V2000
   -0.6444    2.2931   -1.8676 C   0  0  0  0  0  0  0  0  0  0  0  0
   -0.6102    0.8493   -1.4274 C   0  0  1  0  0  0  0  0  0  0  0  0
    0.6981    0.1664   -1.4264 N   0  0  0  0  0  0  0  0  0  0  0  0
   -0.0229    0.3542   -0.1476 C   0  0  1  0  0  0  0  0  0  0  0  0
    0.6426    1.2902    0.8430 C   0  0  0  0  0  0  0  0  0  0  0  0
   -0.6724   -0.8667    0.4952 C   0  0  0  0  0  0  0  0  0  0  0  0
    0.3381   -1.7871    1.1543 C   0  0  0  0  0  0  0  0  0  0  0  0
    0.2272   -2.2498    2.2598 O   0  0  0  0  0  0  0  0  0  0  0  0
    0.2364    2.8401   -1.5265 H   0  0  0  0  0  0  0  0  0  0  0  0
   -0.6678    2.3538   -2.9610 H   0  0  0  0  0  0  0  0  0  0  0  0
   -1.5385    2.7969   -1.4844 H   0  0  0  0  0  0  0  0  0  0  0  0
   -1.4579    0.2660   -1.7887 H   0  0  0  0  0  0  0  0  0  0  0  0
    0.6016   -0.7886   -1.7633 H   0  0  0  0  0  0  0  0  0  0  0  0
    1.1653    2.1005    0.3340 H   0  0  0  0  0  0  0  0  0  0  0  0
   -0.0967    1.7224    1.5265 H   0  0  0  0  0  0  0  0  0  0  0  0
    1.3799    0.7532    1.4504 H   0  0  0  0  0  0  0  0  0  0  0  0
   -1.4170   -0.5828    1.2462 H   0  0  0  0  0  0  0  0  0  0  0  0
   -1.1863   -1.4550   -0.2791 H   0  0  0  0  0  0  0  0  0  0  0  0
    1.2236   -2.0263    0.5203 H   0  0  0  0  0  0  0  0  0  0  0  0
  1  9  1  0  0  0  0
  1 11  1  0  0  0  0
  1  2  1  0  0  0  0
  2  3  1  0  0  0  0
  2  4  1  1  0  0  0
  3  4  1  0  0  0  0
  4  6  1  1  0  0  0
  4  5  1  0  0  0  0
  5 16  1  0  0  0  0
  5 15  1  0  0  0  0
  6  7  1  0  0  0  0
  6 17  1  0  0  0  0
  7  8  2  0  0  0  0
 10  1  1  0  0  0  0
 12  2  1  0  0  0  0
 13  3  1  0  0  0  0
 14  5  1  0  0  0  0
 18  6  1  0  0  0  0
 19  7  1  0  0  0  0
M  END
