18
title
C -0.46490055 2.2890882 -1.904258
C -0.5730346 0.8739291 -1.3982172
O 0.636321 0.10829411 -1.3027337
C -0.08969219 0.38690442 -0.09046668
C 0.60534734 1.286607 0.90877753
C -0.7525994 -0.84619147 0.51566726
C 0.27211684 -1.8206832 1.0650378
O 0.24678986 -2.2891002 2.1742187
H 0.36717373 2.8281584 -1.4486331
H -0.31030783 2.2857406 -2.9883237
H -1.391571 2.836714 -1.7011207
H -1.4027013 0.31342706 -1.836843
H 1.1357265 2.1017487 0.41593784
H -0.11941512 1.7114003 1.6115543
H 1.3354973 0.716888 1.4936863
H -1.4483037 -0.5768121 1.3159281
H -1.309255 -1.3704953 -0.27157253
H 1.0749916 -2.0858567 0.3424819
