19
title
C -0.38204113 2.0710642 -1.3964746
N -0.20388328 0.6285729 -1.3265837
C 1.0984284 0.07872186 -1.6849457
C 0.61675096 0.018586194 -0.27165088
C 1.3095733 0.8569648 0.78832364
C 0.029457027 -1.289861 0.25340965
C -1.1467681 -1.0392025 1.173414
O -1.2577935 -1.4751382 2.2910192
H 0.52713895 2.6582198 -1.1976153
H -0.73136735 2.3282654 -2.4015386
H -1.1529438 2.37864 -0.68267006
H 1.0929412 -0.8063031 -2.317333
H 1.903337 0.78196514 -1.8988603
H 1.7540178 1.765519 0.3777235
H 0.61506253 1.1467229 1.5851583
H 2.1135006 0.27758223 1.2543023
H -0.34350047 -1.8697801 -0.59968823
H 0.777855 -1.8849149 0.7857318
H -1.9353565 -0.39360502 0.7247939
