title
 OpenBabel02282109583D

 20 20  0  0  1  0  0  0  0  0999 V2000
    0.3390    1.7375    0.4182 C   0  0  0  0  0  0  0  0  0  0  0  0
    0.3098    0.2278    0.2630 C   0  0  1  0  0  0  0  0  0  0  0  0
   -0.9954   -0.3644   -0.2442 C   0  0  0  0  0  0  0  0  0  0  0  0
   -1.3450    0.0413   -1.6732 C   0  0  0  0  0  0  0  0  0  0  0  0
   -2.5252   -0.6601   -2.0399 O   0  0  0  0  0  0  0  0  0  0  0  0
    1.6010   -0.4651   -0.1545 C   0  0  0  0  0  0  0  0  0  0  0  0
    1.0843   -0.5964    1.2582 C   0  0  1  0  0  0  0  0  0  0  0  0
    1.7323    0.0774    2.2993 O   0  0  0  0  0  0  0  0  0  0  0  0
    1.2435    2.0557    0.9393 H   0  0  0  0  0  0  0  0  0  0  0  0
    0.3044    2.2419   -0.5533 H   0  0  0  0  0  0  0  0  0  0  0  0
   -0.5204    2.0827    1.0047 H   0  0  0  0  0  0  0  0  0  0  0  0
   -0.9476   -1.4594   -0.2149 H   0  0  0  0  0  0  0  0  0  0  0  0
   -1.8216   -0.0697    0.4155 H   0  0  0  0  0  0  0  0  0  0  0  0
   -1.4983    1.1296   -1.7342 H   0  0  0  0  0  0  0  0  0  0  0  0
   -0.5064   -0.2084   -2.3433 H   0  0  0  0  0  0  0  0  0  0  0  0
   -2.7734   -0.3859   -2.9274 H   0  0  0  0  0  0  0  0  0  0  0  0
    1.5502   -1.3269   -0.8126 H   0  0  0  0  0  0  0  0  0  0  0  0
    2.4752    0.1628   -0.2951 H   0  0  0  0  0  0  0  0  0  0  0  0
    0.6494   -1.5539    1.5471 H   0  0  0  0  0  0  0  0  0  0  0  0
    2.5883   -0.3416    2.4342 H   0  0  0  0  0  0  0  0  0  0  0  0
  1  9  1  0  0  0  0
  1 11  1  0  0  0  0
  2  1  1  0  0  0  0
  2  7  1  1  0  0  0
  3 12  1  0  0  0  0
  3  2  1  0  0  0  0
  3 13  1  0  0  0  0
  4  3  1  0  0  0  0
  5  4  1  0  0  0  0
  6  2  1  0  0  0  0
  6  7  1  0  0  0  0
  7 19  1  1  0  0  0
  7  8  1  0  0  0  0
  8 20  1  0  0  0  0
 10  1  1  0  0  0  0
 14  4  1  0  0  0  0
 15  4  1  0  0  0  0
 16  5  1  0  0  0  0
 17  6  1  0  0  0  0
 18  6  1  0  0  0  0
M  END
