title
 OpenBabel02282109583D

 20 20  0  0  1  0  0  0  0  0999 V2000
   -0.7167    2.5169   -1.5687 C   0  0  0  0  0  0  0  0  0  0  0  0
   -0.5914    1.0190   -1.4059 C   0  0  1  0  0  0  0  0  0  0  0  0
    0.7660    0.3445   -1.5079 C   0  0  0  0  0  0  0  0  0  0  0  0
    0.0435    0.4166   -0.1807 C   0  0  1  0  0  0  0  0  0  0  0  0
    0.5163    1.3486    0.7647 O   0  0  0  0  0  0  0  0  0  0  0  0
   -0.5420   -0.8398    0.4349 C   0  0  0  0  0  0  0  0  0  0  0  0
    0.4888   -1.6801    1.1947 C   0  0  0  0  0  0  0  0  0  0  0  0
   -0.0619   -2.8676    1.7407 O   0  0  0  0  0  0  0  0  0  0  0  0
    0.1046    3.0312   -1.0656 H   0  0  0  0  0  0  0  0  0  0  0  0
   -0.7073    2.7969   -2.6276 H   0  0  0  0  0  0  0  0  0  0  0  0
   -1.6525    2.8839   -1.1332 H   0  0  0  0  0  0  0  0  0  0  0  0
   -1.4228    0.4486   -1.8134 H   0  0  0  0  0  0  0  0  0  0  0  0
    0.8454   -0.6120   -2.0143 H   0  0  0  0  0  0  0  0  0  0  0  0
    1.6252    0.9964   -1.6323 H   0  0  0  0  0  0  0  0  0  0  0  0
    1.4049    1.0867    1.0256 H   0  0  0  0  0  0  0  0  0  0  0  0
   -1.3469   -0.5482    1.1244 H   0  0  0  0  0  0  0  0  0  0  0  0
   -0.9934   -1.4619   -0.3456 H   0  0  0  0  0  0  0  0  0  0  0  0
    1.2802   -2.0081    0.5116 H   0  0  0  0  0  0  0  0  0  0  0  0
    0.9650   -1.0681    1.9776 H   0  0  0  0  0  0  0  0  0  0  0  0
   -0.7400   -2.6112    2.3741 H   0  0  0  0  0  0  0  0  0  0  0  0
  1  2  1  0  0  0  0
  1 11  1  0  0  0  0
  1  9  1  0  0  0  0
  2  4  1  1  0  0  0
  3  2  1  0  0  0  0
  3  4  1  0  0  0  0
  4  6  1  0  0  0  0
  4  5  1  1  0  0  0
  5 15  1  0  0  0  0
  6 16  1  0  0  0  0
  6  7  1  0  0  0  0
  7  8  1  0  0  0  0
  7 19  1  0  0  0  0
  8 20  1  0  0  0  0
 10  1  1  0  0  0  0
 12  2  1  0  0  0  0
 13  3  1  0  0  0  0
 14  3  1  0  0  0  0
 17  6  1  0  0  0  0
 18  7  1  0  0  0  0
M  END
