20
title
C -0.7167457 2.516916 -1.5687076
C -0.5914006 1.0189517 -1.4058954
C 0.7660288 0.34448645 -1.5079365
C 0.043470938 0.41664347 -0.18069412
O 0.51634556 1.3485559 0.7646949
C -0.5419675 -0.83976907 0.43494174
C 0.48875198 -1.6800777 1.194653
O -0.06186865 -2.8675845 1.7407455
H 0.104637526 3.0312114 -1.065569
H -0.7073108 2.7969482 -2.6275983
H -1.6525185 2.8838906 -1.1332139
H -1.4227893 0.44856587 -1.8134063
H 0.8453588 -0.6119929 -2.0142999
H 1.6252271 0.9963654 -1.6322631
H 1.4048539 1.0867016 1.0256231
H -1.3469034 -0.54821545 1.1244268
H -0.9934349 -1.4619445 -0.34558716
H 1.2801983 -2.0081291 0.51161134
H 0.96498364 -1.0681158 1.9776199
H -0.73996407 -2.6111758 2.374098
