21
title
C -0.6090441 2.202699 -1.8311585
C -0.6835366 0.8596265 -1.1432518
N 0.5325856 0.03121086 -1.1352553
C -0.017046595 0.5136577 0.14881773
C 0.84690773 1.5179362 0.8879333
C -0.71886146 -0.49760213 1.0521301
C 0.16651955 -1.6563857 1.5109535
O 0.3386118 -2.5374792 0.40254873
H 0.35954943 2.6817482 -1.6754502
H -0.7468371 2.0827117 -2.9114954
H -1.3934964 2.8755212 -1.4664745
H -1.6257436 0.33800182 -1.3169758
H 0.3158448 -0.95588356 -1.243781
H 1.4173292 2.1365707 0.19386669
H 0.23650983 2.1722386 1.5214199
H 1.5695883 1.0093998 1.5368158
H -1.1096877 0.017286738 1.9385151
H -1.5805948 -0.93713266 0.5362193
H 1.1363436 -1.2835617 1.8712934
H -0.31633458 -2.18296 2.3486779
H 1.057496 -3.1439779 0.6010712
