title
 OpenBabel02282109583D

 21 21  0  0  1  0  0  0  0  0999 V2000
   -0.6090    2.2027   -1.8312 C   0  0  0  0  0  0  0  0  0  0  0  0
   -0.6835    0.8596   -1.1433 C   0  0  1  0  0  0  0  0  0  0  0  0
    0.5326    0.0312   -1.1353 N   0  0  0  0  0  0  0  0  0  0  0  0
   -0.0170    0.5137    0.1488 C   0  0  1  0  0  0  0  0  0  0  0  0
    0.8469    1.5179    0.8879 C   0  0  0  0  0  0  0  0  0  0  0  0
   -0.7189   -0.4976    1.0521 C   0  0  0  0  0  0  0  0  0  0  0  0
    0.1665   -1.6564    1.5110 C   0  0  0  0  0  0  0  0  0  0  0  0
    0.3386   -2.5375    0.4025 O   0  0  0  0  0  0  0  0  0  0  0  0
    0.3595    2.6817   -1.6755 H   0  0  0  0  0  0  0  0  0  0  0  0
   -0.7468    2.0827   -2.9115 H   0  0  0  0  0  0  0  0  0  0  0  0
   -1.3935    2.8755   -1.4665 H   0  0  0  0  0  0  0  0  0  0  0  0
   -1.6257    0.3380   -1.3170 H   0  0  0  0  0  0  0  0  0  0  0  0
    0.3158   -0.9559   -1.2438 H   0  0  0  0  0  0  0  0  0  0  0  0
    1.4173    2.1366    0.1939 H   0  0  0  0  0  0  0  0  0  0  0  0
    0.2365    2.1722    1.5214 H   0  0  0  0  0  0  0  0  0  0  0  0
    1.5696    1.0094    1.5368 H   0  0  0  0  0  0  0  0  0  0  0  0
   -1.1097    0.0173    1.9385 H   0  0  0  0  0  0  0  0  0  0  0  0
   -1.5806   -0.9371    0.5362 H   0  0  0  0  0  0  0  0  0  0  0  0
    1.1363   -1.2836    1.8713 H   0  0  0  0  0  0  0  0  0  0  0  0
   -0.3163   -2.1830    2.3487 H   0  0  0  0  0  0  0  0  0  0  0  0
    1.0575   -3.1440    0.6011 H   0  0  0  0  0  0  0  0  0  0  0  0
  1  9  1  0  0  0  0
  1 11  1  0  0  0  0
  1  2  1  0  0  0  0
  2  3  1  0  0  0  0
  2  4  1  1  0  0  0
  3  4  1  0  0  0  0
  4  5  1  1  0  0  0
  4  6  1  0  0  0  0
  5 15  1  0  0  0  0
  5 16  1  0  0  0  0
  6  7  1  0  0  0  0
  6 17  1  0  0  0  0
  7 19  1  0  0  0  0
  7 20  1  0  0  0  0
  8 21  1  0  0  0  0
  8  7  1  0  0  0  0
 10  1  1  0  0  0  0
 12  2  1  0  0  0  0
 13  3  1  0  0  0  0
 14  5  1  0  0  0  0
 18  6  1  0  0  0  0
M  END
