title
 OpenBabel02282109583D

 24 24  0  0  1  0  0  0  0  0999 V2000
   -0.7351    2.9430   -1.3017 C   0  0  0  0  0  0  0  0  0  0  0  0
   -0.5994    1.4183   -1.3428 C   0  0  0  0  0  0  0  0  0  0  0  0
   -0.3619    0.8073    0.0470 C   0  0  0  0  0  0  0  0  0  0  0  0
   -0.1627   -0.7027    0.0462 C   0  0  1  0  0  0  0  0  0  0  0  0
   -1.3758   -1.5023   -0.4002 C   0  0  0  0  0  0  0  0  0  0  0  0
    1.1998   -1.2489   -0.3296 C   0  0  0  0  0  0  0  0  0  0  0  0
    0.7151   -1.3563    1.0988 C   0  0  1  0  0  0  0  0  0  0  0  0
    1.4020   -0.6147    2.2256 C   0  0  0  0  0  0  0  0  0  0  0  0
    0.1693    3.4114   -0.8968 H   0  0  0  0  0  0  0  0  0  0  0  0
   -0.9050    3.3571   -2.3007 H   0  0  0  0  0  0  0  0  0  0  0  0
   -1.5749    3.2492   -0.6677 H   0  0  0  0  0  0  0  0  0  0  0  0
   -1.5029    0.9884   -1.7910 H   0  0  0  0  0  0  0  0  0  0  0  0
    0.2312    1.1386   -2.0035 H   0  0  0  0  0  0  0  0  0  0  0  0
    0.5120    1.2977    0.4900 H   0  0  0  0  0  0  0  0  0  0  0  0
   -1.2118    1.0593    0.6982 H   0  0  0  0  0  0  0  0  0  0  0  0
   -1.6572   -1.2754   -1.4343 H   0  0  0  0  0  0  0  0  0  0  0  0
   -1.1822   -2.5782   -0.3441 H   0  0  0  0  0  0  0  0  0  0  0  0
   -2.2448   -1.2879    0.2343 H   0  0  0  0  0  0  0  0  0  0  0  0
    1.2556   -2.1467   -0.9370 H   0  0  0  0  0  0  0  0  0  0  0  0
    1.9904   -0.5317   -0.5320 H   0  0  0  0  0  0  0  0  0  0  0  0
    0.3769   -2.3484    1.3914 H   0  0  0  0  0  0  0  0  0  0  0  0
    1.8124    0.3460    1.9029 H   0  0  0  0  0  0  0  0  0  0  0  0
    0.7161   -0.4205    3.0583 H   0  0  0  0  0  0  0  0  0  0  0  0
    2.2375   -1.2060    2.6174 H   0  0  0  0  0  0  0  0  0  0  0  0
  1  9  1  0  0  0  0
  1 11  1  0  0  0  0
  2  1  1  0  0  0  0
  2  3  1  0  0  0  0
  3 14  1  0  0  0  0
  3 15  1  0  0  0  0
  4  3  1  0  0  0  0
  4  7  1  1  0  0  0
  5 17  1  0  0  0  0
  5  4  1  0  0  0  0
  5 18  1  0  0  0  0
  6  4  1  0  0  0  0
  6  7  1  0  0  0  0
  7 21  1  1  0  0  0
  7  8  1  0  0  0  0
  8 24  1  0  0  0  0
  8 23  1  0  0  0  0
 10  1  1  0  0  0  0
 12  2  1  0  0  0  0
 13  2  1  0  0  0  0
 16  5  1  0  0  0  0
 19  6  1  0  0  0  0
 20  6  1  0  0  0  0
 22  8  1  0  0  0  0
M  END
