22
title
C 1.4199146 2.9718072 0.062402904
C 1.4180639 1.4482127 0.21670249
C 0.14705548 0.8000407 -0.34998474
C 0.08661315 -0.71169466 -0.18699673
C 1.0795643 -1.5056436 -1.0164902
C -0.27436855 -1.260402 1.1868906
C -1.2589408 -1.3486145 0.045322753
O -2.3895411 -0.52356845 0.037361957
H 2.331969 3.415528 0.4741838
H 1.3546671 3.2632682 -0.99196213
H 0.5658732 3.4227412 0.5802355
H 2.3044627 1.0341071 -0.27961257
H 1.513881 1.1849904 1.2779682
H -0.7326073 1.2421454 0.12803668
H 0.06349382 1.0447137 -1.418516
H 2.1131344 -1.2850094 -0.72876084
H 0.93017924 -2.583042 -0.89257807
H 0.9728128 -1.274008 -2.08294
H 0.20684764 -2.1669765 1.5400904
H -0.5004434 -0.53544337 1.9628617
H -1.4191178 -2.3290646 -0.4055475
H -2.972371 -0.8151328 0.74581164
