title
 OpenBabel02282109583D

 22 22  0  0  1  0  0  0  0  0999 V2000
   -0.6273    2.9301   -1.3343 C   0  0  0  0  0  0  0  0  0  0  0  0
   -0.4150    1.4142   -1.3323 C   0  0  0  0  0  0  0  0  0  0  0  0
   -0.5309    0.8032    0.0733 C   0  0  0  0  0  0  0  0  0  0  0  0
   -0.2572   -0.6916    0.1030 C   0  0  1  0  0  0  0  0  0  0  0  0
   -1.3234   -1.5658   -0.5298 C   0  0  0  0  0  0  0  0  0  0  0  0
    1.0911   -1.0741   -0.2384 O   0  0  0  0  0  0  0  0  0  0  0  0
    0.6406   -1.3099    1.1015 C   0  0  1  0  0  0  0  0  0  0  0  0
    1.3657   -0.6007    2.2166 C   0  0  0  0  0  0  0  0  0  0  0  0
    0.1095    3.4346   -0.6990 H   0  0  0  0  0  0  0  0  0  0  0  0
   -0.5338    3.3434   -2.3434 H   0  0  0  0  0  0  0  0  0  0  0  0
   -1.6222    3.1939   -0.9577 H   0  0  0  0  0  0  0  0  0  0  0  0
   -1.1422    0.9462   -2.0064 H   0  0  0  0  0  0  0  0  0  0  0  0
    0.5767    1.1739   -1.7322 H   0  0  0  0  0  0  0  0  0  0  0  0
    0.1656    1.3246    0.7365 H   0  0  0  0  0  0  0  0  0  0  0  0
   -1.5373    0.9845    0.4746 H   0  0  0  0  0  0  0  0  0  0  0  0
   -1.4799   -1.3001   -1.5799 H   0  0  0  0  0  0  0  0  0  0  0  0
   -1.0306   -2.6179   -0.4902 H   0  0  0  0  0  0  0  0  0  0  0  0
   -2.2803   -1.4501   -0.0088 H   0  0  0  0  0  0  0  0  0  0  0  0
    0.4529   -2.3668    1.3110 H   0  0  0  0  0  0  0  0  0  0  0  0
    1.5729    0.4433    1.9760 H   0  0  0  0  0  0  0  0  0  0  0  0
    0.7795   -0.6397    3.1415 H   0  0  0  0  0  0  0  0  0  0  0  0
    2.3241   -1.0949    2.4091 H   0  0  0  0  0  0  0  0  0  0  0  0
  1  2  1  0  0  0  0
  1 11  1  0  0  0  0
  1  9  1  0  0  0  0
  2  3  1  0  0  0  0
  3  4  1  0  0  0  0
  3 15  1  0  0  0  0
  3 14  1  0  0  0  0
  4  7  1  1  0  0  0
  5 17  1  0  0  0  0
  5 18  1  0  0  0  0
  5  4  1  0  0  0  0
  6  4  1  0  0  0  0
  6  7  1  0  0  0  0
  7 19  1  1  0  0  0
  7  8  1  0  0  0  0
  8 22  1  0  0  0  0
  8 21  1  0  0  0  0
 10  1  1  0  0  0  0
 12  2  1  0  0  0  0
 13  2  1  0  0  0  0
 16  5  1  0  0  0  0
 20  8  1  0  0  0  0
M  END
