22
title
C -0.6272516 2.9301224 -1.3342928
C -0.41495898 1.4142488 -1.3322589
C -0.5308833 0.8032213 0.0733462
C -0.2572336 -0.69156295 0.10295433
C -1.3234292 -1.565805 -0.52976876
O 1.0910827 -1.0740612 -0.23838776
C 0.6406257 -1.3099248 1.1015414
C 1.3656944 -0.60071045 2.2166421
H 0.10947297 3.434606 -0.6990299
H -0.53377837 3.343422 -2.3433938
H -1.6221507 3.1939414 -0.95772797
H -1.1421778 0.94621193 -2.0064332
H 0.576723 1.1739151 -1.7322314
H 0.16555676 1.3245785 0.7364984
H -1.5373299 0.9845068 0.47458762
H -1.4799138 -1.3001461 -1.579925
H -1.030561 -2.617857 -0.49017334
H -2.280314 -1.4500706 -0.008822976
H 0.45285544 -2.3667777 1.3109576
H 1.5728644 0.44331944 1.9760407
H 0.7794696 -0.6397365 3.141472
H 2.324075 -1.0948513 2.4090564
