title
 OpenBabel02282109583D

 22 22  0  0  1  0  0  0  0  0999 V2000
   -0.7813    2.9341   -1.3653 C   0  0  0  0  0  0  0  0  0  0  0  0
   -0.6271    1.4112   -1.3503 C   0  0  0  0  0  0  0  0  0  0  0  0
   -0.2873    0.8564    0.0405 C   0  0  0  0  0  0  0  0  0  0  0  0
   -0.1156   -0.6506    0.0609 C   0  0  1  0  0  0  0  0  0  0  0  0
   -1.2789   -1.3618   -0.2998 O   0  0  0  0  0  0  0  0  0  0  0  0
    1.2065   -1.2843   -0.3164 C   0  0  0  0  0  0  0  0  0  0  0  0
    0.6921   -1.3569    1.1121 C   0  0  1  0  0  0  0  0  0  0  0  0
    1.4022   -0.6564    2.2490 C   0  0  0  0  0  0  0  0  0  0  0  0
    0.1454    3.4289   -1.0536 H   0  0  0  0  0  0  0  0  0  0  0  0
   -1.0341    3.3006   -2.3652 H   0  0  0  0  0  0  0  0  0  0  0  0
   -1.5736    3.2578   -0.6814 H   0  0  0  0  0  0  0  0  0  0  0  0
   -1.5602    0.9535   -1.7037 H   0  0  0  0  0  0  0  0  0  0  0  0
    0.1555    1.1117   -2.0600 H   0  0  0  0  0  0  0  0  0  0  0  0
    0.6288    1.3362    0.4023 H   0  0  0  0  0  0  0  0  0  0  0  0
   -1.0856    1.1288    0.7437 H   0  0  0  0  0  0  0  0  0  0  0  0
   -1.3998   -1.2665   -1.2506 H   0  0  0  0  0  0  0  0  0  0  0  0
    1.1791   -2.1891   -0.9137 H   0  0  0  0  0  0  0  0  0  0  0  0
    2.0501   -0.6302   -0.5184 H   0  0  0  0  0  0  0  0  0  0  0  0
    0.2632   -2.3193    1.3776 H   0  0  0  0  0  0  0  0  0  0  0  0
    1.8688    0.2799    1.9291 H   0  0  0  0  0  0  0  0  0  0  0  0
    0.7140   -0.4228    3.0690 H   0  0  0  0  0  0  0  0  0  0  0  0
    2.1973   -1.2924    2.6536 H   0  0  0  0  0  0  0  0  0  0  0  0
  1  2  1  0  0  0  0
  1  9  1  0  0  0  0
  1 11  1  0  0  0  0
  2  3  1  0  0  0  0
  3  4  1  0  0  0  0
  3 14  1  0  0  0  0
  3 15  1  0  0  0  0
  4  7  1  1  0  0  0
  5  4  1  0  0  0  0
  6  4  1  0  0  0  0
  6  7  1  0  0  0  0
  7 19  1  1  0  0  0
  7  8  1  0  0  0  0
  8 22  1  0  0  0  0
  8 21  1  0  0  0  0
 10  1  1  0  0  0  0
 12  2  1  0  0  0  0
 13  2  1  0  0  0  0
 16  5  1  0  0  0  0
 17  6  1  0  0  0  0
 18  6  1  0  0  0  0
 20  8  1  0  0  0  0
M  END
