20
title
C -0.7601795 2.9645724 -1.3062513
C -0.5842165 1.4442205 -1.3384943
C -0.30888322 0.84613895 0.047457412
C -0.14823656 -0.6600177 0.031116918
O -1.3042557 -1.3803768 -0.31924176
C 1.1855719 -1.2813492 -0.35733503
C 0.6740945 -1.3473477 1.070733
O 1.2637141 -0.5570375 2.0606806
H 0.13917072 3.4577935 -0.9210792
H -0.95924604 3.3659577 -2.3049
H -1.595601 3.2515607 -0.65829694
H -1.4907415 0.98812354 -1.7588143
H 0.23781653 1.1814126 -2.0173123
H 0.5911723 1.2938528 0.47972232
H -1.1374729 1.0930405 0.72370964
H -1.4405906 -1.2744067 -1.2668505
H 1.1723454 -2.194936 -0.9416569
H 2.0136917 -0.60825384 -0.5555094
H 0.28686485 -2.308755 1.4060589
H 2.1331668 -0.9235134 2.2518132
