title
 OpenBabel02282109583D

 22 22  0  0  1  0  0  0  0  0999 V2000
    1.2505    2.7565    0.0520 C   0  0  0  0  0  0  0  0  0  0  0  0
    1.3732    1.2496    0.2064 C   0  0  0  0  0  0  0  0  0  0  0  0
    0.2119    0.6547   -0.3526 O   0  0  0  0  0  0  0  0  0  0  0  0
    0.0945   -0.7301   -0.1669 C   0  0  1  0  0  0  0  0  0  0  0  0
    1.0411   -1.5652   -1.0034 C   0  0  0  0  0  0  0  0  0  0  0  0
   -0.3206   -1.2074    1.2085 C   0  0  0  0  0  0  0  0  0  0  0  0
   -1.3145   -1.2115    0.0594 C   0  0  1  0  0  0  0  0  0  0  0  0
   -2.4868   -0.2567    0.0568 C   0  0  0  0  0  0  0  0  0  0  0  0
    2.1352    3.2551    0.4595 H   0  0  0  0  0  0  0  0  0  0  0  0
    1.1550    3.0272   -1.0035 H   0  0  0  0  0  0  0  0  0  0  0  0
    0.3674    3.1276    0.5802 H   0  0  0  0  0  0  0  0  0  0  0  0
    2.2790    0.8893   -0.3045 H   0  0  0  0  0  0  0  0  0  0  0  0
    1.4664    0.9721    1.2675 H   0  0  0  0  0  0  0  0  0  0  0  0
    2.0869   -1.4078   -0.7179 H   0  0  0  0  0  0  0  0  0  0  0  0
    0.8249   -2.6304   -0.8814 H   0  0  0  0  0  0  0  0  0  0  0  0
    0.9363   -1.3125   -2.0639 H   0  0  0  0  0  0  0  0  0  0  0  0
    0.0673   -2.1501    1.5806 H   0  0  0  0  0  0  0  0  0  0  0  0
   -0.4623   -0.4466    1.9694 H   0  0  0  0  0  0  0  0  0  0  0  0
   -1.5298   -2.1894   -0.3650 H   0  0  0  0  0  0  0  0  0  0  0  0
   -2.1854    0.7278    0.4203 H   0  0  0  0  0  0  0  0  0  0  0  0
   -2.8882   -0.1268   -0.9543 H   0  0  0  0  0  0  0  0  0  0  0  0
   -3.2964   -0.6300    0.6934 H   0  0  0  0  0  0  0  0  0  0  0  0
  1  2  1  0  0  0  0
  1  9  1  0  0  0  0
  1 11  1  0  0  0  0
  2 13  1  0  0  0  0
  3  4  1  0  0  0  0
  3  2  1  0  0  0  0
  4  7  1  6  0  0  0
  4  6  1  0  0  0  0
  5 15  1  0  0  0  0
  5 14  1  0  0  0  0
  5  4  1  0  0  0  0
  6 17  1  0  0  0  0
  6 18  1  0  0  0  0
  7 19  1  6  0  0  0
  7  6  1  0  0  0  0
  8  7  1  0  0  0  0
  8 20  1  0  0  0  0
  8 22  1  0  0  0  0
 10  1  1  0  0  0  0
 12  2  1  0  0  0  0
 16  5  1  0  0  0  0
 21  8  1  0  0  0  0
M  END
