title
 OpenBabel02282109583D

 20 20  0  0  1  0  0  0  0  0999 V2000
   -0.6358    2.7598    1.0351 C   0  0  0  0  0  0  0  0  0  0  0  0
   -0.8712    1.2595    1.0647 C   0  0  0  0  0  0  0  0  0  0  0  0
    0.2024    0.6283    0.3744 O   0  0  0  0  0  0  0  0  0  0  0  0
    0.0865   -0.7606    0.1928 C   0  0  1  0  0  0  0  0  0  0  0  0
    0.3694   -1.5973    1.4172 C   0  0  0  0  0  0  0  0  0  0  0  0
   -0.9054   -1.2266   -0.8620 C   0  0  0  0  0  0  0  0  0  0  0  0
    0.5801   -1.1683   -1.1684 C   0  0  1  0  0  0  0  0  0  0  0  0
    1.0767   -0.1874   -2.0200 O   0  0  0  0  0  0  0  0  0  0  0  0
    0.3186    3.0092    1.5074 H   0  0  0  0  0  0  0  0  0  0  0  0
   -0.6155    3.1279    0.0051 H   0  0  0  0  0  0  0  0  0  0  0  0
   -1.4347    3.2795    1.5722 H   0  0  0  0  0  0  0  0  0  0  0  0
   -0.9152    0.8987    2.1023 H   0  0  0  0  0  0  0  0  0  0  0  0
   -1.8265    1.0014    0.5857 H   0  0  0  0  0  0  0  0  0  0  0  0
   -0.4025   -1.4706    2.1849 H   0  0  0  0  0  0  0  0  0  0  0  0
    0.3991   -2.6588    1.1551 H   0  0  0  0  0  0  0  0  0  0  0  0
    1.3360   -1.3237    1.8526 H   0  0  0  0  0  0  0  0  0  0  0  0
   -1.3879   -2.1904   -0.7351 H   0  0  0  0  0  0  0  0  0  0  0  0
   -1.5146   -0.4669   -1.3402 H   0  0  0  0  0  0  0  0  0  0  0  0
    1.1237   -2.1050   -1.2586 H   0  0  0  0  0  0  0  0  0  0  0  0
    1.0165    0.6416   -1.5248 H   0  0  0  0  0  0  0  0  0  0  0  0
  1  2  1  0  0  0  0
  1  9  1  0  0  0  0
  1 11  1  0  0  0  0
  2 12  1  0  0  0  0
  3  2  1  0  0  0  0
  4  7  1  6  0  0  0
  4  3  1  0  0  0  0
  4  5  1  0  0  0  0
  5 16  1  0  0  0  0
  5 14  1  0  0  0  0
  6 17  1  0  0  0  0
  6  4  1  0  0  0  0
  7 19  1  6  0  0  0
  7  6  1  0  0  0  0
  8 20  1  0  0  0  0
  8  7  1  0  0  0  0
 10  1  1  0  0  0  0
 13  2  1  0  0  0  0
 15  5  1  0  0  0  0
 18  6  1  0  0  0  0
M  END
