title
 OpenBabel02282109583D

 22 22  0  0  1  0  0  0  0  0999 V2000
   -0.6115    2.7887   -1.1555 C   0  0  0  0  0  0  0  0  0  0  0  0
   -0.4538    1.3923   -1.1692 O   0  0  0  0  0  0  0  0  0  0  0  0
   -0.2676    0.8475    0.1249 C   0  0  0  0  0  0  0  0  0  0  0  0
   -0.1847   -0.6566    0.0101 C   0  0  1  0  0  0  0  0  0  0  0  0
   -1.4522   -1.2953   -0.5289 C   0  0  0  0  0  0  0  0  0  0  0  0
    1.1418   -1.2666   -0.3868 C   0  0  0  0  0  0  0  0  0  0  0  0
    0.6247   -1.4480    1.0208 C   0  0  1  0  0  0  0  0  0  0  0  0
    1.3414   -0.8494    2.2137 C   0  0  0  0  0  0  0  0  0  0  0  0
    0.2729    3.2985   -0.7395 H   0  0  0  0  0  0  0  0  0  0  0  0
   -0.7503    3.1145   -2.1895 H   0  0  0  0  0  0  0  0  0  0  0  0
   -1.4893    3.0980   -0.5649 H   0  0  0  0  0  0  0  0  0  0  0  0
    0.6430    1.2679    0.5784 H   0  0  0  0  0  0  0  0  0  0  0  0
   -1.1143    1.1338    0.7750 H   0  0  0  0  0  0  0  0  0  0  0  0
   -1.7038   -0.8831   -1.5103 H   0  0  0  0  0  0  0  0  0  0  0  0
   -1.3358   -2.3785   -0.6313 H   0  0  0  0  0  0  0  0  0  0  0  0
   -2.3019   -1.1124    0.1406 H   0  0  0  0  0  0  0  0  0  0  0  0
    1.1374   -2.1136   -1.0648 H   0  0  0  0  0  0  0  0  0  0  0  0
    1.9813   -0.5926   -0.5284 H   0  0  0  0  0  0  0  0  0  0  0  0
    0.2031   -2.4290    1.2301 H   0  0  0  0  0  0  0  0  0  0  0  0
    1.8417    0.0916    1.9695 H   0  0  0  0  0  0  0  0  0  0  0  0
    0.6535   -0.6567    3.0450 H   0  0  0  0  0  0  0  0  0  0  0  0
    2.1124   -1.5381    2.5769 H   0  0  0  0  0  0  0  0  0  0  0  0
  1  9  1  0  0  0  0
  1 11  1  0  0  0  0
  2  1  1  0  0  0  0
  2  3  1  0  0  0  0
  3 12  1  0  0  0  0
  3 13  1  0  0  0  0
  4  3  1  0  0  0  0
  4  7  1  1  0  0  0
  5  4  1  0  0  0  0
  5 16  1  0  0  0  0
  6  4  1  0  0  0  0
  6  7  1  0  0  0  0
  7 19  1  1  0  0  0
  7  8  1  0  0  0  0
  8 22  1  0  0  0  0
  8 21  1  0  0  0  0
 10  1  1  0  0  0  0
 14  5  1  0  0  0  0
 15  5  1  0  0  0  0
 17  6  1  0  0  0  0
 18  6  1  0  0  0  0
 20  8  1  0  0  0  0
M  END
