22
title
C -0.6115254 2.7886572 -1.155466
O -0.4538044 1.3922721 -1.1692075
C -0.26759064 0.84745604 0.12491497
C -0.18471174 -0.65663594 0.010096395
C -1.452174 -1.2952613 -0.5288985
C 1.1418396 -1.2665809 -0.38679227
C 0.6247108 -1.4479564 1.0207973
C 1.3413558 -0.8494255 2.2137141
H 0.27293852 3.2984943 -0.7394703
H -0.75030893 3.1145096 -2.1894712
H -1.4893426 3.098009 -0.56494546
H 0.64301014 1.2678645 0.578419
H -1.114327 1.133843 0.77498883
H -1.703821 -0.8830754 -1.5102701
H -1.3358237 -2.3785472 -0.6312531
H -2.3018975 -1.1123978 0.14055368
H 1.1374261 -2.1135733 -1.0648209
H 1.9813304 -0.5925886 -0.52840245
H 0.20309485 -2.429014 1.2300909
H 1.841708 0.091593355 1.9694531
H 0.65347695 -0.65670437 3.045021
H 2.1123893 -1.5381399 2.5768886
