20
title
C 0.43521485 2.8257751 0.2777722
O 0.18218867 1.4466928 0.43947506
C 0.65929943 0.6619312 -0.6454627
C 0.38006935 -0.8117098 -0.4192454
C 0.9583784 -1.684765 -1.5154456
C 0.37228844 -1.339502 1.0093353
C -0.91909784 -1.229935 0.23105647
O -1.9267592 -0.33033222 0.5709436
H 0.044165175 3.3356733 1.1608701
H 1.5140506 3.024325 0.19666128
H -0.060403783 3.2269135 -0.61874294
H 0.17944662 0.9950605 -1.5819702
H 1.7445977 0.8245342 -0.76232815
H 2.0526423 -1.6115569 -1.5513761
H 0.7050753 -2.7360067 -1.3505976
H 0.57083803 -1.4015743 -2.5017307
H 0.7975851 -2.3195908 1.2028791
H 0.5238822 -0.6121604 1.7993122
H -1.361335 -2.1565206 -0.12436499
H -1.4954586 0.51738304 0.7483246
