20
title
C -0.5291155 2.797838 -1.2130784
O -0.47649488 1.3927023 -1.1823338
C -0.24603091 0.8809524 0.113015786
C -0.20815061 -0.63107044 0.039658085
C -1.3542122 -1.2636114 -0.72058153
O 1.0838541 -1.207316 -0.22491221
C 0.5030724 -1.417188 1.0663731
C 1.2358705 -0.87169605 2.267955
H 0.41737023 3.2503865 -0.87714934
H -0.7144205 3.0956178 -2.2478638
H -1.3399327 3.1910095 -0.57849604
H 0.70218146 1.2664515 0.51191866
H -1.0539325 1.1982715 0.79748356
H -1.3700783 -0.897502 -1.7494464
H -1.248489 -2.3509357 -0.73186624
H -2.3144479 -1.0087973 -0.2583233
H 0.13202657 -2.435485 1.2110121
H 1.6054014 0.14208238 2.1054678
H 0.58038497 -0.86973363 3.1458666
H 2.0962372 -1.5090812 2.498118
