title
 OpenBabel02282109583D

 20 20  0  0  1  0  0  0  0  0999 V2000
   -0.5291    2.7978   -1.2131 C   0  0  0  0  0  0  0  0  0  0  0  0
   -0.4765    1.3927   -1.1823 O   0  0  0  0  0  0  0  0  0  0  0  0
   -0.2460    0.8810    0.1130 C   0  0  0  0  0  0  0  0  0  0  0  0
   -0.2082   -0.6311    0.0397 C   0  0  1  0  0  0  0  0  0  0  0  0
   -1.3542   -1.2636   -0.7206 C   0  0  0  0  0  0  0  0  0  0  0  0
    1.0839   -1.2073   -0.2249 O   0  0  0  0  0  0  0  0  0  0  0  0
    0.5031   -1.4172    1.0664 C   0  0  1  0  0  0  0  0  0  0  0  0
    1.2359   -0.8717    2.2680 C   0  0  0  0  0  0  0  0  0  0  0  0
    0.4174    3.2504   -0.8771 H   0  0  0  0  0  0  0  0  0  0  0  0
   -0.7144    3.0956   -2.2479 H   0  0  0  0  0  0  0  0  0  0  0  0
   -1.3399    3.1910   -0.5785 H   0  0  0  0  0  0  0  0  0  0  0  0
    0.7022    1.2665    0.5119 H   0  0  0  0  0  0  0  0  0  0  0  0
   -1.0539    1.1983    0.7975 H   0  0  0  0  0  0  0  0  0  0  0  0
   -1.3701   -0.8975   -1.7494 H   0  0  0  0  0  0  0  0  0  0  0  0
   -1.2485   -2.3509   -0.7319 H   0  0  0  0  0  0  0  0  0  0  0  0
   -2.3144   -1.0088   -0.2583 H   0  0  0  0  0  0  0  0  0  0  0  0
    0.1320   -2.4355    1.2110 H   0  0  0  0  0  0  0  0  0  0  0  0
    1.6054    0.1421    2.1055 H   0  0  0  0  0  0  0  0  0  0  0  0
    0.5804   -0.8697    3.1459 H   0  0  0  0  0  0  0  0  0  0  0  0
    2.0962   -1.5091    2.4981 H   0  0  0  0  0  0  0  0  0  0  0  0
  1  2  1  0  0  0  0
  1  9  1  0  0  0  0
  1 11  1  0  0  0  0
  2  3  1  0  0  0  0
  3 12  1  0  0  0  0
  3 13  1  0  0  0  0
  4  3  1  0  0  0  0
  4  7  1  1  0  0  0
  5 16  1  0  0  0  0
  5  4  1  0  0  0  0
  6  4  1  0  0  0  0
  6  7  1  0  0  0  0
  7 17  1  1  0  0  0
  7  8  1  0  0  0  0
  8 20  1  0  0  0  0
  8 19  1  0  0  0  0
 10  1  1  0  0  0  0
 14  5  1  0  0  0  0
 15  5  1  0  0  0  0
 18  8  1  0  0  0  0
M  END
