title
 OpenBabel02282109583D

 20 20  0  0  1  0  0  0  0  0999 V2000
    1.3804    2.7790    0.0399 C   0  0  0  0  0  0  0  0  0  0  0  0
    1.2456    1.3859    0.1922 O   0  0  0  0  0  0  0  0  0  0  0  0
   -0.0362    0.9028   -0.1799 C   0  0  0  0  0  0  0  0  0  0  0  0
    0.0388   -0.6014   -0.1287 C   0  0  1  0  0  0  0  0  0  0  0  0
    1.0430   -1.1081   -0.9661 O   0  0  0  0  0  0  0  0  0  0  0  0
   -0.2341   -1.3366    1.1660 C   0  0  0  0  0  0  0  0  0  0  0  0
   -1.1761   -1.4716   -0.0183 C   0  0  1  0  0  0  0  0  0  0  0  0
   -2.5942   -0.9451    0.0237 C   0  0  0  0  0  0  0  0  0  0  0  0
    2.3991    3.0441    0.3331 H   0  0  0  0  0  0  0  0  0  0  0  0
    1.2149    3.0938   -1.0023 H   0  0  0  0  0  0  0  0  0  0  0  0
    0.6729    3.3286    0.6804 H   0  0  0  0  0  0  0  0  0  0  0  0
   -0.8084    1.2971    0.4970 H   0  0  0  0  0  0  0  0  0  0  0  0
   -0.2772    1.2347   -1.2035 H   0  0  0  0  0  0  0  0  0  0  0  0
    1.8418   -0.6148   -0.7401 H   0  0  0  0  0  0  0  0  0  0  0  0
    0.4117   -2.1744    1.4014 H   0  0  0  0  0  0  0  0  0  0  0  0
   -0.5721   -0.7608    2.0223 H   0  0  0  0  0  0  0  0  0  0  0  0
   -1.0596   -2.3990   -0.5731 H   0  0  0  0  0  0  0  0  0  0  0  0
   -2.6765   -0.0339    0.6240 H   0  0  0  0  0  0  0  0  0  0  0  0
   -2.9699   -0.7191   -0.9805 H   0  0  0  0  0  0  0  0  0  0  0  0
   -3.2654   -1.6873    0.4695 H   0  0  0  0  0  0  0  0  0  0  0  0
  1  2  1  0  0  0  0
  1  9  1  0  0  0  0
  1 11  1  0  0  0  0
  3  4  1  0  0  0  0
  3  2  1  0  0  0  0
  3 12  1  0  0  0  0
  4  7  1  6  0  0  0
  4  6  1  0  0  0  0
  5 14  1  0  0  0  0
  5  4  1  0  0  0  0
  6 15  1  0  0  0  0
  6 16  1  0  0  0  0
  7 17  1  6  0  0  0
  7  8  1  0  0  0  0
  7  6  1  0  0  0  0
  8 20  1  0  0  0  0
  8 18  1  0  0  0  0
 10  1  1  0  0  0  0
 13  3  1  0  0  0  0
 19  8  1  0  0  0  0
M  END
