18
title
C 0.091553204 2.166258 0.91729593
C -0.35426804 0.7138223 0.9299762
O -0.83082026 0.20361808 1.9182588
C -0.18902726 -0.08205641 -0.3604687
C -1.317912 0.267362 -1.337305
C 1.2270454 -0.111425705 -1.001771
O 1.2932575 -1.5412058 -0.8854225
C 0.04102855 -1.5976623 -0.165597
H 1.1867232 2.21203 0.93918616
H -0.23043163 2.6851263 0.009428333
H -0.2976993 2.6755993 1.7995476
H -1.3047143 1.3265846 -1.6142057
H -1.2125446 -0.31973255 -2.254874
H -2.2947683 0.042184107 -0.897402
H 1.283884 0.22623545 -2.0444374
H 2.0200646 0.3845638 -0.42552966
H 0.16923697 -1.9034792 0.87769663
H -0.6828977 -2.2600925 -0.65400773
