title
 OpenBabel02282109583D

 19 19  0  0  0  0  0  0  0  0999 V2000
    0.1374    1.8359    0.1819 C   0  0  0  0  0  0  0  0  0  0  0  0
    0.2209    0.3078    0.0758 C   0  0  0  0  0  0  0  0  0  0  0  0
    1.3366   -0.1773   -0.9129 C   0  0  0  0  0  0  0  0  0  0  0  0
    2.2549   -0.4582    0.3075 C   0  0  0  0  0  0  0  0  0  0  0  0
    1.0200   -0.3409    1.2412 C   0  0  0  0  0  0  0  0  0  0  0  0
   -1.1756   -0.2721   -0.1315 C   0  0  0  0  0  0  0  0  0  0  0  0
   -1.6884   -0.1004   -1.3892 N   0  0  0  0  0  0  0  0  0  0  0  0
   -1.8052   -0.8175    0.7547 O   0  0  0  0  0  0  0  0  0  0  0  0
    1.1301    2.2642    0.3562 H   0  0  0  0  0  0  0  0  0  0  0  0
   -0.2668    2.2821   -0.7329 H   0  0  0  0  0  0  0  0  0  0  0  0
   -0.5088    2.1293    1.0156 H   0  0  0  0  0  0  0  0  0  0  0  0
    1.0548   -1.0933   -1.4403 H   0  0  0  0  0  0  0  0  0  0  0  0
    1.6899    0.5531   -1.6474 H   0  0  0  0  0  0  0  0  0  0  0  0
    2.7860   -1.4122    0.3094 H   0  0  0  0  0  0  0  0  0  0  0  0
    2.9854    0.3384    0.4700 H   0  0  0  0  0  0  0  0  0  0  0  0
    1.1322    0.2635    2.1446 H   0  0  0  0  0  0  0  0  0  0  0  0
    0.5939   -1.3054    1.5223 H   0  0  0  0  0  0  0  0  0  0  0  0
   -1.1178    0.2134   -2.1546 H   0  0  0  0  0  0  0  0  0  0  0  0
   -2.5756   -0.5285   -1.5987 H   0  0  0  0  0  0  0  0  0  0  0  0
  1  9  1  0  0  0  0
  1 11  1  0  0  0  0
  2  1  1  0  0  0  0
  2  5  1  0  0  0  0
  3  2  1  0  0  0  0
  3  4  1  0  0  0  0
  4 14  1  0  0  0  0
  4 15  1  0  0  0  0
  4  5  1  0  0  0  0
  5 17  1  0  0  0  0
  5 16  1  0  0  0  0
  6  2  1  0  0  0  0
  6  8  2  0  0  0  0
  7  6  1  0  0  0  0
 10  1  1  0  0  0  0
 12  3  1  0  0  0  0
 13  3  1  0  0  0  0
 18  7  1  0  0  0  0
 19  7  1  0  0  0  0
M  END
