17
title
C -0.04894514 1.9036541 -0.3727498
C 0.19926867 0.42018119 -0.16284522
C 1.074732 -0.3115508 -1.2144243
C 2.0110567 -0.6106656 -0.030231835
O 1.1920455 0.16745713 0.87588084
C -1.1275971 -0.30206978 0.11597359
N -1.1628758 -0.94847953 1.3066282
O -2.038276 -0.27771997 -0.6916673
H 0.878044 2.4105992 -0.65405047
H -0.79495066 2.0381682 -1.159791
H -0.4282404 2.3606355 0.54699844
H 0.6087966 -1.1688015 -1.7000089
H 1.4919899 0.3514604 -1.9739449
H 2.062213 -1.6632172 0.2727905
H 3.0275376 -0.20904838 -0.09694448
H -0.37026253 -0.87980914 1.9235551
H -2.0089858 -1.4118496 1.5918578
