17
title
C 0.072080255 1.8944035 0.21322615
C 0.20053194 0.37477016 0.07603945
C 1.3465188 -0.10931953 -0.85661095
O 2.0812836 -0.6491415 0.25137192
C 1.0281768 -0.31271192 1.1841815
C -1.176617 -0.25077018 -0.1362181
N -1.6762317 -0.13409998 -1.4023789
O -1.801843 -0.7747724 0.76505524
H 1.0518489 2.342666 0.4056855
H -0.33802792 2.3473344 -0.69555557
H -0.59167266 2.1502707 1.0452042
H 1.0679207 -0.8842646 -1.5842413
H 1.8997238 0.6847755 -1.3758259
H 1.3867093 0.34531486 1.9843104
H 0.55183214 -1.1960498 1.6194713
H -1.1264707 0.20806125 -2.1706238
H -2.5687876 -0.55613124 -1.6008435
