title
 OpenBabel02282109583D

 16 16  0  0  0  0  0  0  0  0999 V2000
    0.7615    2.1476    0.2163 N   0  0  0  0  0  0  0  0  0  0  0  0
    0.9128    0.7998    0.1573 C   0  0  0  0  0  0  0  0  0  0  0  0
    1.9908    0.2359    0.1131 O   0  0  0  0  0  0  0  0  0  0  0  0
   -0.4041    0.0150    0.1204 C   0  0  0  0  0  0  0  0  0  0  0  0
   -1.5327    0.8360    0.5468 N   0  0  0  0  0  0  0  0  0  0  0  0
   -0.6601   -0.6980   -1.2360 C   0  0  0  0  0  0  0  0  0  0  0  0
   -0.7133   -1.9895   -0.6115 O   0  0  0  0  0  0  0  0  0  0  0  0
   -0.2980   -1.4397    0.6571 C   0  0  0  0  0  0  0  0  0  0  0  0
    1.5800    2.7277    0.1370 H   0  0  0  0  0  0  0  0  0  0  0  0
   -0.1629    2.5414    0.1452 H   0  0  0  0  0  0  0  0  0  0  0  0
   -2.4060    0.3550    0.3523 H   0  0  0  0  0  0  0  0  0  0  0  0
   -1.5011    0.9796    1.5535 H   0  0  0  0  0  0  0  0  0  0  0  0
   -1.6030   -0.4229   -1.7262 H   0  0  0  0  0  0  0  0  0  0  0  0
    0.1648   -0.6182   -1.9528 H   0  0  0  0  0  0  0  0  0  0  0  0
    0.7200   -1.7393    0.9216 H   0  0  0  0  0  0  0  0  0  0  0  0
   -0.9977   -1.6880    1.4648 H   0  0  0  0  0  0  0  0  0  0  0  0
  2  1  1  0  0  0  0
  3  2  2  0  0  0  0
  4  2  1  0  0  0  0
  4  5  1  0  0  0  0
  4  8  1  0  0  0  0
  5 12  1  0  0  0  0
  6  7  1  0  0  0  0
  6  4  1  0  0  0  0
  7  8  1  0  0  0  0
  8 15  1  0  0  0  0
  8 16  1  0  0  0  0
  9  1  1  0  0  0  0
 10  1  1  0  0  0  0
 11  5  1  0  0  0  0
 13  6  1  0  0  0  0
 14  6  1  0  0  0  0
M  END
