title
 OpenBabel02282109583D

 17 17  0  0  0  0  0  0  0  0999 V2000
    0.8030    2.0348    0.4170 N   0  0  0  0  0  0  0  0  0  0  0  0
    0.8421    0.7241    0.0765 C   0  0  0  0  0  0  0  0  0  0  0  0
    1.8632    0.1355   -0.2363 O   0  0  0  0  0  0  0  0  0  0  0  0
   -0.5117    0.0071    0.0978 C   0  0  0  0  0  0  0  0  0  0  0  0
   -1.4921    0.9201    0.5506 O   0  0  0  0  0  0  0  0  0  0  0  0
   -0.7744   -0.7475   -1.2448 C   0  0  0  0  0  0  0  0  0  0  0  0
   -0.2497   -2.0490   -0.5829 C   0  0  0  0  0  0  0  0  0  0  0  0
   -0.4133   -1.3801    0.8075 C   0  0  0  0  0  0  0  0  0  0  0  0
    1.6639    2.5550    0.4287 H   0  0  0  0  0  0  0  0  0  0  0  0
   -0.0655    2.4641    0.6844 H   0  0  0  0  0  0  0  0  0  0  0  0
   -2.3477    0.4818    0.5318 H   0  0  0  0  0  0  0  0  0  0  0  0
   -1.8506   -0.7859   -1.4460 H   0  0  0  0  0  0  0  0  0  0  0  0
   -0.2587   -0.3789   -2.1331 H   0  0  0  0  0  0  0  0  0  0  0  0
   -0.8196   -2.9622   -0.7652 H   0  0  0  0  0  0  0  0  0  0  0  0
    0.8007   -2.2165   -0.8184 H   0  0  0  0  0  0  0  0  0  0  0  0
    0.3898   -1.5090    1.5345 H   0  0  0  0  0  0  0  0  0  0  0  0
   -1.3704   -1.6252    1.2802 H   0  0  0  0  0  0  0  0  0  0  0  0
  1  9  1  0  0  0  0
  1 10  1  0  0  0  0
  2  4  1  0  0  0  0
  2  1  1  0  0  0  0
  3  2  2  0  0  0  0
  4  5  1  0  0  0  0
  4  8  1  0  0  0  0
  6  7  1  0  0  0  0
  6  4  1  0  0  0  0
  7  8  1  0  0  0  0
  8 17  1  0  0  0  0
  8 16  1  0  0  0  0
 11  5  1  0  0  0  0
 12  6  1  0  0  0  0
 13  6  1  0  0  0  0
 14  7  1  0  0  0  0
 15  7  1  0  0  0  0
M  END
