15
title
N 0.8008855 2.096319 0.50947875
C 0.9152218 0.7982354 0.14316088
O 1.9698446 0.2398983 -0.09822631
C -0.40342173 0.032016847 0.042468287
O -1.4733927 0.8935217 0.36859497
C -0.56693983 -0.80912775 -1.251752
O -0.6948886 -2.0313253 -0.50059533
C -0.40101942 -1.3560308 0.73715246
H 1.6360083 2.6511123 0.5922939
H -0.102997825 2.4953535 0.69448817
H -2.2995393 0.40413967 0.3030467
H -1.4680016 -0.57245487 -1.8322695
H 0.3134612 -0.8127838 -1.9017383
H 0.56811094 -1.6520284 1.1503936
H -1.1909811 -1.4855503 1.4882209
