title
 OpenBabel02282109583D

 22 22  0  0  1  0  0  0  0  0999 V2000
   -2.2321    0.1069   -0.6715 C   0  0  0  0  0  0  0  0  0  0  0  0
   -0.7430    0.4586   -0.7965 C   0  0  0  0  0  0  0  0  0  0  0  0
   -0.5267    1.9711   -0.9405 C   0  0  0  0  0  0  0  0  0  0  0  0
    0.1034   -0.1388    0.3439 C   0  0  1  0  0  0  0  0  0  0  0  0
   -0.2552    0.3654    1.7363 C   0  0  0  0  0  0  0  0  0  0  0  0
    0.3289   -1.6733    0.2434 C   0  0  0  0  0  0  0  0  0  0  0  0
    1.8006   -1.3075   -0.0180 C   0  0  0  0  0  0  0  0  0  0  0  0
    1.5225    0.1018    0.0771 O   0  0  0  0  0  0  0  0  0  0  0  0
   -2.6963    0.6183    0.1783 H   0  0  0  0  0  0  0  0  0  0  0  0
   -2.7738    0.4138   -1.5719 H   0  0  0  0  0  0  0  0  0  0  0  0
   -2.3887   -0.9695   -0.5415 H   0  0  0  0  0  0  0  0  0  0  0  0
   -0.3626   -0.0124   -1.7134 H   0  0  0  0  0  0  0  0  0  0  0  0
   -0.9693    2.5259   -0.1061 H   0  0  0  0  0  0  0  0  0  0  0  0
    0.5404    2.2037   -0.9811 H   0  0  0  0  0  0  0  0  0  0  0  0
   -0.9944    2.3381   -1.8598 H   0  0  0  0  0  0  0  0  0  0  0  0
   -1.2849    0.1047    2.0010 H   0  0  0  0  0  0  0  0  0  0  0  0
    0.4115   -0.0825    2.4786 H   0  0  0  0  0  0  0  0  0  0  0  0
   -0.1461    1.4516    1.8015 H   0  0  0  0  0  0  0  0  0  0  0  0
    0.1384   -2.2328    1.1611 H   0  0  0  0  0  0  0  0  0  0  0  0
   -0.1865   -2.1611   -0.5864 H   0  0  0  0  0  0  0  0  0  0  0  0
    2.5152   -1.6366    0.7468 H   0  0  0  0  0  0  0  0  0  0  0  0
    2.1942   -1.5835   -1.0041 H   0  0  0  0  0  0  0  0  0  0  0  0
  1 11  1  0  0  0  0
  1  9  1  0  0  0  0
  2  1  1  0  0  0  0
  3  2  1  0  0  0  0
  3 13  1  0  0  0  0
  4  2  1  6  0  0  0
  4  5  1  0  0  0  0
  5 18  1  0  0  0  0
  5 16  1  0  0  0  0
  5 17  1  0  0  0  0
  6  4  1  0  0  0  0
  6 19  1  0  0  0  0
  7  8  1  0  0  0  0
  7  6  1  0  0  0  0
  7 21  1  0  0  0  0
  8  4  1  0  0  0  0
 10  1  1  0  0  0  0
 12  2  1  0  0  0  0
 14  3  1  0  0  0  0
 15  3  1  0  0  0  0
 20  6  1  0  0  0  0
 22  7  1  0  0  0  0
M  END
