title
 OpenBabel02282109583D

 22 22  0  0  0  0  0  0  0  0999 V2000
   -0.8223    1.9573   -0.9872 C   0  0  0  0  0  0  0  0  0  0  0  0
   -0.5145    0.4531   -1.0287 C   0  0  0  0  0  0  0  0  0  0  0  0
    0.2056    0.0737   -2.3310 C   0  0  0  0  0  0  0  0  0  0  0  0
    0.2395   -0.0303    0.2256 C   0  0  0  0  0  0  0  0  0  0  0  0
    1.6242    0.5920    0.4126 C   0  0  0  0  0  0  0  0  0  0  0  0
   -0.5978   -0.0311    1.5340 C   0  0  0  0  0  0  0  0  0  0  0  0
   -0.4032   -1.4464    1.7188 O   0  0  0  0  0  0  0  0  0  0  0  0
    0.2416   -1.5692    0.4365 C   0  0  0  0  0  0  0  0  0  0  0  0
    0.0899    2.5584   -1.0630 H   0  0  0  0  0  0  0  0  0  0  0  0
   -1.4704    2.2412   -1.8226 H   0  0  0  0  0  0  0  0  0  0  0  0
   -1.3337    2.2402   -0.0608 H   0  0  0  0  0  0  0  0  0  0  0  0
   -1.4783   -0.0762   -1.0239 H   0  0  0  0  0  0  0  0  0  0  0  0
    1.1476    0.6205   -2.4457 H   0  0  0  0  0  0  0  0  0  0  0  0
    0.4329   -0.9970   -2.3705 H   0  0  0  0  0  0  0  0  0  0  0  0
   -0.4174    0.3116   -3.1993 H   0  0  0  0  0  0  0  0  0  0  0  0
    1.5691    1.6807    0.5125 H   0  0  0  0  0  0  0  0  0  0  0  0
    2.0953    0.2014    1.3203 H   0  0  0  0  0  0  0  0  0  0  0  0
    2.2879    0.3635   -0.4274 H   0  0  0  0  0  0  0  0  0  0  0  0
   -0.1960    0.5526    2.3716 H   0  0  0  0  0  0  0  0  0  0  0  0
   -1.6597    0.2206    1.4021 H   0  0  0  0  0  0  0  0  0  0  0  0
   -0.3750   -2.1335   -0.2775 H   0  0  0  0  0  0  0  0  0  0  0  0
    1.2245   -2.0504    0.5144 H   0  0  0  0  0  0  0  0  0  0  0  0
  1 11  1  0  0  0  0
  2 12  1  0  0  0  0
  2  1  1  0  0  0  0
  2  4  1  0  0  0  0
  3  2  1  0  0  0  0
  4  5  1  0  0  0  0
  4  8  1  0  0  0  0
  4  6  1  0  0  0  0
  5 16  1  0  0  0  0
  5 17  1  0  0  0  0
  6  7  1  0  0  0  0
  6 19  1  0  0  0  0
  8 22  1  0  0  0  0
  8  7  1  0  0  0  0
  9  1  1  0  0  0  0
 10  1  1  0  0  0  0
 13  3  1  0  0  0  0
 14  3  1  0  0  0  0
 15  3  1  0  0  0  0
 18  5  1  0  0  0  0
 20  6  1  0  0  0  0
 21  8  1  0  0  0  0
M  END
