title
 OpenBabel02282109583D

 20 20  0  0  0  0  0  0  0  0999 V2000
    1.1395    1.9882   -0.1358 C   0  0  0  0  0  0  0  0  0  0  0  0
    1.0973    0.4685    0.0798 C   0  0  0  0  0  0  0  0  0  0  0  0
    1.8493    0.0716    1.3583 C   0  0  0  0  0  0  0  0  0  0  0  0
   -0.3452   -0.0501    0.0997 C   0  0  0  0  0  0  0  0  0  0  0  0
   -1.0014    0.5562    1.1893 O   0  0  0  0  0  0  0  0  0  0  0  0
   -1.0776   -0.0204   -1.2707 C   0  0  0  0  0  0  0  0  0  0  0  0
   -0.9857   -1.4520   -1.3946 O   0  0  0  0  0  0  0  0  0  0  0  0
   -0.4964   -1.5898   -0.0474 C   0  0  0  0  0  0  0  0  0  0  0  0
    2.1741    2.3411   -0.1893 H   0  0  0  0  0  0  0  0  0  0  0  0
    0.6414    2.2812   -1.0659 H   0  0  0  0  0  0  0  0  0  0  0  0
    0.6427    2.5067    0.6886 H   0  0  0  0  0  0  0  0  0  0  0  0
    1.5835   -0.0186   -0.7761 H   0  0  0  0  0  0  0  0  0  0  0  0
    1.3779    0.5215    2.2362 H   0  0  0  0  0  0  0  0  0  0  0  0
    1.8617   -1.0138    1.5027 H   0  0  0  0  0  0  0  0  0  0  0  0
    2.8887    0.4114    1.3151 H   0  0  0  0  0  0  0  0  0  0  0  0
   -1.9102    0.2398    1.2164 H   0  0  0  0  0  0  0  0  0  0  0  0
   -2.1193    0.3273   -1.2007 H   0  0  0  0  0  0  0  0  0  0  0  0
   -0.5843    0.4983   -2.1005 H   0  0  0  0  0  0  0  0  0  0  0  0
    0.4141   -2.1978    0.0010 H   0  0  0  0  0  0  0  0  0  0  0  0
   -1.2499   -2.0204    0.6292 H   0  0  0  0  0  0  0  0  0  0  0  0
  1  2  1  0  0  0  0
  1 11  1  0  0  0  0
  2  4  1  0  0  0  0
  2  3  1  0  0  0  0
  3 14  1  0  0  0  0
  3 13  1  0  0  0  0
  4  5  1  0  0  0  0
  5 16  1  0  0  0  0
  6 17  1  0  0  0  0
  6  4  1  0  0  0  0
  7  6  1  0  0  0  0
  7  8  1  0  0  0  0
  8 19  1  0  0  0  0
  8  4  1  0  0  0  0
  8 20  1  0  0  0  0
  9  1  1  0  0  0  0
 10  1  1  0  0  0  0
 12  2  1  0  0  0  0
 15  3  1  0  0  0  0
 18  6  1  0  0  0  0
M  END
