title
 OpenBabel02282109583D

 20 20  0  0  1  0  0  0  0  0999 V2000
    1.6313    0.3655   -1.5997 C   0  0  0  0  0  0  0  0  0  0  0  0
    1.0230    0.5193   -0.2030 C   0  0  1  0  0  0  0  0  0  0  0  0
    0.9974    1.8815    0.2026 O   0  0  0  0  0  0  0  0  0  0  0  0
   -0.3614   -0.1398   -0.0560 C   0  0  1  0  0  0  0  0  0  0  0  0
   -1.4567    0.5593   -0.8518 C   0  0  0  0  0  0  0  0  0  0  0  0
   -0.3545   -1.6900   -0.1372 C   0  0  0  0  0  0  0  0  0  0  0  0
   -0.8296   -1.6323    1.3256 C   0  0  0  0  0  0  0  0  0  0  0  0
   -0.7351   -0.1960    1.3526 O   0  0  0  0  0  0  0  0  0  0  0  0
    2.6387    0.7899   -1.6100 H   0  0  0  0  0  0  0  0  0  0  0  0
    1.6965   -0.6832   -1.9049 H   0  0  0  0  0  0  0  0  0  0  0  0
    1.0357    0.8946   -2.3531 H   0  0  0  0  0  0  0  0  0  0  0  0
    1.6738    0.0278    0.5296 H   0  0  0  0  0  0  0  0  0  0  0  0
    0.6024    2.3960   -0.5090 H   0  0  0  0  0  0  0  0  0  0  0  0
   -1.2502    0.5463   -1.9273 H   0  0  0  0  0  0  0  0  0  0  0  0
   -2.4177    0.0654   -0.6851 H   0  0  0  0  0  0  0  0  0  0  0  0
   -1.5561    1.5975   -0.5207 H   0  0  0  0  0  0  0  0  0  0  0  0
   -1.0486   -2.1281   -0.8564 H   0  0  0  0  0  0  0  0  0  0  0  0
    0.6335   -2.1337   -0.2781 H   0  0  0  0  0  0  0  0  0  0  0  0
   -1.8560   -1.9798    1.5009 H   0  0  0  0  0  0  0  0  0  0  0  0
   -0.1708   -2.1024    2.0654 H   0  0  0  0  0  0  0  0  0  0  0  0
  1  2  1  0  0  0  0
  2  4  1  0  0  0  0
  2  3  1  0  0  0  0
  2 12  1  1  0  0  0
  4  5  1  6  0  0  0
  4  8  1  0  0  0  0
  5 15  1  0  0  0  0
  5 16  1  0  0  0  0
  6  4  1  0  0  0  0
  6  7  1  0  0  0  0
  7  8  1  0  0  0  0
  7 19  1  0  0  0  0
  7 20  1  0  0  0  0
  9  1  1  0  0  0  0
 10  1  1  0  0  0  0
 11  1  1  0  0  0  0
 13  3  1  0  0  0  0
 14  5  1  0  0  0  0
 17  6  1  0  0  0  0
 18  6  1  0  0  0  0
M  END
