title
 OpenBabel02282109583D

 20 20  0  0  1  0  0  0  0  0999 V2000
    1.1963    1.9836   -0.1519 C   0  0  0  0  0  0  0  0  0  0  0  0
    1.0499    0.4734    0.0440 C   0  0  1  0  0  0  0  0  0  0  0  0
    1.6658    0.0477    1.2591 O   0  0  0  0  0  0  0  0  0  0  0  0
   -0.4007   -0.0224    0.1083 C   0  0  0  0  0  0  0  0  0  0  0  0
   -1.2025    0.6045    1.2442 C   0  0  0  0  0  0  0  0  0  0  0  0
   -1.0875   -0.0643   -1.2804 C   0  0  0  0  0  0  0  0  0  0  0  0
   -0.9875   -1.4984   -1.3464 O   0  0  0  0  0  0  0  0  0  0  0  0
   -0.4763   -1.5677    0.0020 C   0  0  0  0  0  0  0  0  0  0  0  0
    2.2536    2.2516   -0.2595 H   0  0  0  0  0  0  0  0  0  0  0  0
    0.6816    2.3218   -1.0572 H   0  0  0  0  0  0  0  0  0  0  0  0
    0.7954    2.5315    0.7049 H   0  0  0  0  0  0  0  0  0  0  0  0
    1.5265   -0.0359   -0.8106 H   0  0  0  0  0  0  0  0  0  0  0  0
    2.5822    0.3408    1.2495 H   0  0  0  0  0  0  0  0  0  0  0  0
   -1.3504    1.6786    1.0900 H   0  0  0  0  0  0  0  0  0  0  0  0
   -2.1927    0.1441    1.3151 H   0  0  0  0  0  0  0  0  0  0  0  0
   -0.6874    0.4663    2.1986 H   0  0  0  0  0  0  0  0  0  0  0  0
   -2.1315    0.2781   -1.2811 H   0  0  0  0  0  0  0  0  0  0  0  0
   -0.5567    0.4233   -2.1086 H   0  0  0  0  0  0  0  0  0  0  0  0
    0.4783   -2.1016    0.0593 H   0  0  0  0  0  0  0  0  0  0  0  0
   -1.1927   -2.0396    0.6873 H   0  0  0  0  0  0  0  0  0  0  0  0
  1  2  1  0  0  0  0
  1 11  1  0  0  0  0
  2 12  1  6  0  0  0
  2  4  1  0  0  0  0
  2  3  1  0  0  0  0
  4  5  1  0  0  0  0
  5 15  1  0  0  0  0
  5 16  1  0  0  0  0
  6  4  1  0  0  0  0
  7  6  1  0  0  0  0
  7  8  1  0  0  0  0
  8 19  1  0  0  0  0
  8  4  1  0  0  0  0
  8 20  1  0  0  0  0
  9  1  1  0  0  0  0
 10  1  1  0  0  0  0
 13  3  1  0  0  0  0
 14  5  1  0  0  0  0
 17  6  1  0  0  0  0
 18  6  1  0  0  0  0
M  END
