20
title
C -1.00596 1.8354243 -0.89410925
C -0.639212 0.34675658 -0.863717
O -0.04503662 -0.048253644 -2.0920846
C 0.30429292 -0.03100537 0.29140958
O 1.5658597 0.60128385 0.09027431
C -0.31888723 0.04782335 1.715469
C -0.53219455 -1.4905157 1.6668864
C 0.45375615 -1.5608625 0.46871313
H -0.1117645 2.4596999 -1.0094088
H -1.650826 2.0343995 -1.7534353
H -1.5329343 2.149659 0.012500204
H -1.5603284 -0.24199314 -0.76874614
H 0.8833168 0.2115857 -2.0207033
H 1.460313 1.5450616 0.25480995
H 0.4440425 0.33171454 2.4454873
H -1.1983558 0.6817476 1.8549789
H -0.26317623 -2.0527449 2.5627534
H -1.5533913 -1.7600771 1.386329
H 0.18577719 -2.1762705 -0.39157006
H 1.4706672 -1.8038143 0.78504705
