title
 OpenBabel02282109583D

 22 22  0  0  1  0  0  0  0  0999 V2000
    0.9635    2.1162   -0.4052 C   0  0  0  0  0  0  0  0  0  0  0  0
    0.8801    0.6468    0.0342 C   0  0  0  0  0  0  0  0  0  0  0  0
    1.5268    0.4356    1.4122 C   0  0  0  0  0  0  0  0  0  0  0  0
   -0.5545    0.1129   -0.0139 C   0  0  1  0  0  0  0  0  0  0  0  0
   -1.5729    0.7812    0.8937 C   0  0  0  0  0  0  0  0  0  0  0  0
   -1.0607   -0.3829   -1.3611 C   0  0  0  0  0  0  0  0  0  0  0  0
   -0.7404   -1.3620   -0.2561 C   0  0  1  0  0  0  0  0  0  0  0  0
    0.4059   -2.1617   -0.3428 O   0  0  0  0  0  0  0  0  0  0  0  0
    2.0074    2.4409   -0.4666 H   0  0  0  0  0  0  0  0  0  0  0  0
    0.5055    2.2659   -1.3885 H   0  0  0  0  0  0  0  0  0  0  0  0
    0.4577    2.7804    0.3043 H   0  0  0  0  0  0  0  0  0  0  0  0
    1.4563    0.0499   -0.6803 H   0  0  0  0  0  0  0  0  0  0  0  0
    1.4943   -0.6195    1.6974 H   0  0  0  0  0  0  0  0  0  0  0  0
    2.5756    0.7509    1.3961 H   0  0  0  0  0  0  0  0  0  0  0  0
    1.0250    1.0192    2.1919 H   0  0  0  0  0  0  0  0  0  0  0  0
   -1.7152    1.8352    0.6319 H   0  0  0  0  0  0  0  0  0  0  0  0
   -2.5489    0.2924    0.8105 H   0  0  0  0  0  0  0  0  0  0  0  0
   -1.2711    0.7341    1.9453 H   0  0  0  0  0  0  0  0  0  0  0  0
   -2.0989   -0.2175   -1.6316 H   0  0  0  0  0  0  0  0  0  0  0  0
   -0.3644   -0.3471   -2.1935 H   0  0  0  0  0  0  0  0  0  0  0  0
   -1.5804   -1.8414    0.2485 H   0  0  0  0  0  0  0  0  0  0  0  0
    0.2663   -2.8063   -1.0440 H   0  0  0  0  0  0  0  0  0  0  0  0
  1  2  1  0  0  0  0
  1 11  1  0  0  0  0
  2  3  1  0  0  0  0
  3 13  1  0  0  0  0
  3 15  1  0  0  0  0
  4  7  1  1  0  0  0
  4  2  1  0  0  0  0
  4  5  1  0  0  0  0
  5 18  1  0  0  0  0
  6  7  1  0  0  0  0
  6  4  1  0  0  0  0
  7 21  1  1  0  0  0
  8  7  1  0  0  0  0
  9  1  1  0  0  0  0
 10  1  1  0  0  0  0
 12  2  1  0  0  0  0
 14  3  1  0  0  0  0
 16  5  1  0  0  0  0
 17  5  1  0  0  0  0
 19  6  1  0  0  0  0
 20  6  1  0  0  0  0
 22  8  1  0  0  0  0
M  END
