title
 OpenBabel02282109583D

 23 23  0  0  1  0  0  0  0  0999 V2000
    1.6199   -1.0177   -1.3753 C   0  0  0  0  0  0  0  0  0  0  0  0
    1.0735   -0.1815   -0.2059 C   0  0  0  0  0  0  0  0  0  0  0  0
    1.8028    1.1689   -0.1111 C   0  0  0  0  0  0  0  0  0  0  0  0
   -0.4487   -0.0240   -0.2901 C   0  0  1  0  0  0  0  0  0  0  0  0
   -0.9847    0.7740   -1.4667 C   0  0  0  0  0  0  0  0  0  0  0  0
   -1.2920   -1.1384    0.2445 C   0  0  0  0  0  0  0  0  0  0  0  0
   -1.2640    0.1514    0.9244 N   0  0  0  0  0  0  0  0  0  0  0  0
   -0.6789    0.2098    2.2538 C   0  0  0  0  0  0  0  0  0  0  0  0
    2.6925   -1.1992   -1.2496 H   0  0  0  0  0  0  0  0  0  0  0  0
    1.1180   -1.9883   -1.4397 H   0  0  0  0  0  0  0  0  0  0  0  0
    1.4855   -0.5058   -2.3339 H   0  0  0  0  0  0  0  0  0  0  0  0
    1.2931   -0.7399    0.7107 H   0  0  0  0  0  0  0  0  0  0  0  0
    1.6968    1.7484   -1.0339 H   0  0  0  0  0  0  0  0  0  0  0  0
    1.4191    1.7790    0.7122 H   0  0  0  0  0  0  0  0  0  0  0  0
    2.8740    1.0147    0.0557 H   0  0  0  0  0  0  0  0  0  0  0  0
   -0.7158    0.3147   -2.4238 H   0  0  0  0  0  0  0  0  0  0  0  0
   -2.0738    0.8300   -1.4060 H   0  0  0  0  0  0  0  0  0  0  0  0
   -0.6007    1.7993   -1.4648 H   0  0  0  0  0  0  0  0  0  0  0  0
   -2.2302   -1.4118   -0.2343 H   0  0  0  0  0  0  0  0  0  0  0  0
   -0.7706   -1.9718    0.7176 H   0  0  0  0  0  0  0  0  0  0  0  0
    0.1569   -0.4848    2.4320 H   0  0  0  0  0  0  0  0  0  0  0  0
   -0.3288    1.2271    2.4574 H   0  0  0  0  0  0  0  0  0  0  0  0
   -1.4615   -0.0256    2.9832 H   0  0  0  0  0  0  0  0  0  0  0  0
  1  9  1  0  0  0  0
  1  2  1  0  0  0  0
  2  3  1  0  0  0  0
  2 12  1  0  0  0  0
  3 15  1  0  0  0  0
  3 14  1  0  0  0  0
  4  5  1  6  0  0  0
  4  2  1  0  0  0  0
  4  6  1  0  0  0  0
  4  7  1  0  0  0  0
  5 18  1  0  0  0  0
  5 17  1  0  0  0  0
  6 20  1  0  0  0  0
  6  7  1  0  0  0  0
  7  8  1  0  0  0  0
  8 21  1  0  0  0  0
  8 22  1  0  0  0  0
  8 23  1  0  0  0  0
 10  1  1  0  0  0  0
 11  1  1  0  0  0  0
 13  3  1  0  0  0  0
 16  5  1  0  0  0  0
 19  6  1  0  0  0  0
M  END
