title
 OpenBabel02282109583D

 22 22  0  0  1  0  0  0  0  0999 V2000
    1.4069    1.2653    1.4120 C   0  0  0  0  0  0  0  0  0  0  0  0
    0.2245    0.3507    1.0524 C   0  0  0  0  0  0  0  0  0  0  0  0
   -1.0986    0.9169    1.5883 C   0  0  0  0  0  0  0  0  0  0  0  0
    0.1512    0.1235   -0.4534 C   0  0  1  0  0  0  0  0  0  0  0  0
   -0.1059    1.2943   -1.1980 O   0  0  0  0  0  0  0  0  0  0  0  0
    1.0271   -0.9135   -1.1189 C   0  0  0  0  0  0  0  0  0  0  0  0
   -0.4808   -1.0982   -1.0609 C   0  0  1  0  0  0  0  0  0  0  0  0
   -1.1080   -2.2218   -0.2658 C   0  0  0  0  0  0  0  0  0  0  0  0
    2.3519    0.8680    1.0264 H   0  0  0  0  0  0  0  0  0  0  0  0
    1.2666    2.2726    1.0025 H   0  0  0  0  0  0  0  0  0  0  0  0
    1.5037    1.3711    2.4969 H   0  0  0  0  0  0  0  0  0  0  0  0
    0.4061   -0.6223    1.5242 H   0  0  0  0  0  0  0  0  0  0  0  0
   -1.3441    1.8519    1.0763 H   0  0  0  0  0  0  0  0  0  0  0  0
   -1.9255    0.2199    1.4224 H   0  0  0  0  0  0  0  0  0  0  0  0
   -1.0351    1.1182    2.6626 H   0  0  0  0  0  0  0  0  0  0  0  0
    0.6978    1.8255   -1.1983 H   0  0  0  0  0  0  0  0  0  0  0  0
    1.4725   -0.6594   -2.0747 H   0  0  0  0  0  0  0  0  0  0  0  0
    1.6387   -1.5501   -0.4856 H   0  0  0  0  0  0  0  0  0  0  0  0
   -0.9879   -0.8753   -1.9957 H   0  0  0  0  0  0  0  0  0  0  0  0
   -0.5652   -2.4231    0.6624 H   0  0  0  0  0  0  0  0  0  0  0  0
   -2.1477   -1.9980   -0.0027 H   0  0  0  0  0  0  0  0  0  0  0  0
   -1.1074   -3.1494   -0.8491 H   0  0  0  0  0  0  0  0  0  0  0  0
  1 11  1  0  0  0  0
  2  1  1  0  0  0  0
  2 12  1  0  0  0  0
  2  3  1  0  0  0  0
  3 15  1  0  0  0  0
  4  7  1  6  0  0  0
  4  2  1  0  0  0  0
  5  4  1  0  0  0  0
  6  7  1  0  0  0  0
  6 18  1  0  0  0  0
  6  4  1  0  0  0  0
  7 19  1  6  0  0  0
  7  8  1  0  0  0  0
  8 21  1  0  0  0  0
  8 20  1  0  0  0  0
  9  1  1  0  0  0  0
 10  1  1  0  0  0  0
 13  3  1  0  0  0  0
 14  3  1  0  0  0  0
 16  5  1  0  0  0  0
 17  6  1  0  0  0  0
 22  8  1  0  0  0  0
M  END
