title
 OpenBabel02282109583D

 20 20  0  0  1  0  0  0  0  0999 V2000
   -0.9035    2.0972   -0.6163 C   0  0  0  0  0  0  0  0  0  0  0  0
   -0.4916    0.6277   -0.7889 C   0  0  0  0  0  0  0  0  0  0  0  0
    0.3793    0.4261   -2.0376 C   0  0  0  0  0  0  0  0  0  0  0  0
    0.2275    0.1140    0.4520 C   0  0  1  0  0  0  0  0  0  0  0  0
    1.4493    0.7467    0.7444 O   0  0  0  0  0  0  0  0  0  0  0  0
   -0.5761   -0.3975    1.6362 C   0  0  0  0  0  0  0  0  0  0  0  0
    0.2332   -1.3453    0.7682 C   0  0  1  0  0  0  0  0  0  0  0  0
   -0.4157   -2.2025   -0.1249 O   0  0  0  0  0  0  0  0  0  0  0  0
   -0.0250    2.7474   -0.5253 H   0  0  0  0  0  0  0  0  0  0  0  0
   -1.4718    2.4468   -1.4837 H   0  0  0  0  0  0  0  0  0  0  0  0
   -1.5264    2.2393    0.2737 H   0  0  0  0  0  0  0  0  0  0  0  0
   -1.3981    0.0240   -0.9025 H   0  0  0  0  0  0  0  0  0  0  0  0
    1.3410    0.9350   -1.9208 H   0  0  0  0  0  0  0  0  0  0  0  0
    0.5742   -0.6370   -2.2028 H   0  0  0  0  0  0  0  0  0  0  0  0
   -0.1152    0.8272   -2.9283 H   0  0  0  0  0  0  0  0  0  0  0  0
    1.2499    1.6229    1.0917 H   0  0  0  0  0  0  0  0  0  0  0  0
   -0.2059   -0.1890    2.6342 H   0  0  0  0  0  0  0  0  0  0  0  0
   -1.6562   -0.4292    1.5333 H   0  0  0  0  0  0  0  0  0  0  0  0
    1.1591   -1.7272    1.1965 H   0  0  0  0  0  0  0  0  0  0  0  0
   -0.8503   -2.8922    0.3873 H   0  0  0  0  0  0  0  0  0  0  0  0
  1  9  1  0  0  0  0
  1 11  1  0  0  0  0
  2  1  1  0  0  0  0
  2  4  1  0  0  0  0
  3 13  1  0  0  0  0
  3  2  1  0  0  0  0
  4  5  1  0  0  0  0
  4  7  1  6  0  0  0
  4  6  1  0  0  0  0
  5 16  1  0  0  0  0
  6 17  1  0  0  0  0
  7 19  1  1  0  0  0
  7  6  1  0  0  0  0
  8 20  1  0  0  0  0
  8  7  1  0  0  0  0
 10  1  1  0  0  0  0
 12  2  1  0  0  0  0
 14  3  1  0  0  0  0
 15  3  1  0  0  0  0
 18  6  1  0  0  0  0
M  END
