22
title
C 0.9437055 2.11559 -0.41291898
C 0.85358167 0.64513826 0.0055916514
O 1.4527122 0.43939325 1.2866443
C -0.5639393 0.08007006 -0.050490864
C -1.5787361 0.77580285 0.8408817
C -1.0522339 -0.45692754 -1.3798181
C -0.7478853 -1.4112558 -0.24706297
C 0.3906377 -2.4066768 -0.3238398
H 1.9879102 2.4399495 -0.4113804
H 0.53114295 2.2667952 -1.4154165
H 0.3902378 2.7630925 0.27673578
H 1.482132 0.06473081 -0.6765262
H 1.0257872 1.0364381 1.9098624
H -1.722636 1.8257781 0.56365854
H -2.5542006 0.28505298 0.77406067
H -1.2747617 0.74122256 1.8943886
H -2.0850453 -0.28088242 -1.663445
H -0.35853678 -0.44157398 -2.216096
H -1.6242595 -1.8099391 0.25982645
H 1.2156253 -2.0494483 -0.94598067
H 0.7967694 -2.6226397 0.66967285
H 0.042808823 -3.3490396 -0.7613159
