title
 OpenBabel02282109583D

 18 18  0  0  1  0  0  0  0  0999 V2000
    0.9847    2.0545   -0.5368 C   0  0  0  0  0  0  0  0  0  0  0  0
    0.9103    0.6248    0.0131 C   0  0  1  0  0  0  0  0  0  0  0  0
    1.3969    0.5699    1.3458 O   0  0  0  0  0  0  0  0  0  0  0  0
   -0.5042    0.0670   -0.0272 C   0  0  1  0  0  0  0  0  0  0  0  0
   -1.3504    0.6540    0.9380 O   0  0  0  0  0  0  0  0  0  0  0  0
   -1.1340   -0.3968   -1.3223 C   0  0  0  0  0  0  0  0  0  0  0  0
   -0.7513   -1.3902   -0.2376 C   0  0  1  0  0  0  0  0  0  0  0  0
    0.3592   -2.2140   -0.4162 O   0  0  0  0  0  0  0  0  0  0  0  0
    2.0044    2.4343   -0.4370 H   0  0  0  0  0  0  0  0  0  0  0  0
    0.6958    2.0955   -1.5923 H   0  0  0  0  0  0  0  0  0  0  0  0
    0.3266    2.7259    0.0281 H   0  0  0  0  0  0  0  0  0  0  0  0
    1.5560   -0.0310   -0.5780 H   0  0  0  0  0  0  0  0  0  0  0  0
    0.6514    0.8167    1.9080 H   0  0  0  0  0  0  0  0  0  0  0  0
   -1.6413    1.5074    0.5967 H   0  0  0  0  0  0  0  0  0  0  0  0
   -2.1881   -0.1935   -1.4789 H   0  0  0  0  0  0  0  0  0  0  0  0
   -0.5152   -0.3763   -2.2138 H   0  0  0  0  0  0  0  0  0  0  0  0
   -1.5670   -1.8137    0.3473 H   0  0  0  0  0  0  0  0  0  0  0  0
    0.1317   -2.8816   -1.0716 H   0  0  0  0  0  0  0  0  0  0  0  0
  1  9  1  0  0  0  0
  1  2  1  0  0  0  0
  1 11  1  0  0  0  0
  2 12  1  6  0  0  0
  2  3  1  0  0  0  0
  3 13  1  0  0  0  0
  4  7  1  1  0  0  0
  4  2  1  0  0  0  0
  4  5  1  0  0  0  0
  6  7  1  0  0  0  0
  6  4  1  0  0  0  0
  7 17  1  1  0  0  0
  8  7  1  0  0  0  0
 10  1  1  0  0  0  0
 14  5  1  0  0  0  0
 15  6  1  0  0  0  0
 16  6  1  0  0  0  0
 18  8  1  0  0  0  0
M  END
