18
title
C 0.77136624 2.2485268 0.45341322
C 0.64858574 0.84381515 -0.09885954
O 1.6205335 0.29597816 -0.6069511
C -0.65601903 0.1423663 0.019382123
C -1.8306019 0.84190613 0.6739394
C -0.95871943 -0.86046416 -1.1112971
C -0.52760226 -1.4016563 0.20094416
O 0.68833804 -2.0166502 0.39334878
H 1.7803862 2.6187365 0.27107882
H 0.039604876 2.9180238 -0.011277546
H 0.56784415 2.256146 1.5300088
H -2.1595047 1.7159209 0.09972646
H -2.6853516 0.16243078 0.7421398
H -1.5991962 1.1745679 1.6911929
H -1.9981856 -0.94361204 -1.4113175
H -0.23413828 -0.89222497 -1.9180533
H -1.2835615 -1.8324913 0.85089785
H 1.346245 -1.4878725 -0.09276646
