title
 OpenBabel02282109583D

 17 17  0  0  1  0  0  0  0  0999 V2000
    0.2454    1.8103   -0.2209 C   0  0  0  0  0  0  0  0  0  0  0  0
    0.2041    0.2978   -0.1404 C   0  0  1  0  0  0  0  0  0  0  0  0
    1.5258   -0.4719   -0.1746 C   0  0  0  0  0  0  0  0  0  0  0  0
    0.7568   -0.3781    1.1039 C   0  0  1  0  0  0  0  0  0  0  0  0
    1.1938    0.4684    2.1265 O   0  0  0  0  0  0  0  0  0  0  0  0
   -0.9457   -0.4526   -0.7623 C   0  0  0  0  0  0  0  0  0  0  0  0
   -1.9038    0.3043   -1.3694 N   0  0  0  0  0  0  0  0  0  0  0  0
   -1.0176   -1.6709   -0.7248 O   0  0  0  0  0  0  0  0  0  0  0  0
    1.0891    2.1947    0.3537 H   0  0  0  0  0  0  0  0  0  0  0  0
    0.3498    2.1557   -1.2559 H   0  0  0  0  0  0  0  0  0  0  0  0
   -0.6578    2.2609    0.2075 H   0  0  0  0  0  0  0  0  0  0  0  0
    1.5230   -1.4200   -0.6987 H   0  0  0  0  0  0  0  0  0  0  0  0
    2.4242    0.1301   -0.2625 H   0  0  0  0  0  0  0  0  0  0  0  0
    0.2199   -1.2685    1.4236 H   0  0  0  0  0  0  0  0  0  0  0  0
    1.9823    0.0757    2.5150 H   0  0  0  0  0  0  0  0  0  0  0  0
   -1.8709    1.3063   -1.4044 H   0  0  0  0  0  0  0  0  0  0  0  0
   -2.6866   -0.1753   -1.7813 H   0  0  0  0  0  0  0  0  0  0  0  0
  1  2  1  0  0  0  0
  1 11  1  0  0  0  0
  1  9  1  0  0  0  0
  2  4  1  1  0  0  0
  3  2  1  0  0  0  0
  3  4  1  0  0  0  0
  4 14  1  1  0  0  0
  4  5  1  0  0  0  0
  5 15  1  0  0  0  0
  6  8  2  0  0  0  0
  6  2  1  0  0  0  0
  7  6  1  0  0  0  0
 10  1  1  0  0  0  0
 12  3  1  0  0  0  0
 13  3  1  0  0  0  0
 16  7  1  0  0  0  0
 17  7  1  0  0  0  0
M  END
