19
title
C -0.6813257 2.4086788 -0.9711639
C -0.44531602 0.91538 -0.9889512
C 0.89044297 0.32166806 -1.3050169
C 0.33664528 0.18927936 0.109090894
C 0.998405 0.9662981 1.2314656
C -0.21338664 -1.1824808 0.4131467
N -0.108019605 -1.6062553 1.7083144
O -0.7158844 -1.8885639 -0.44627836
H 0.2063273 2.9688725 -0.6644254
H -0.952457 2.7570415 -1.9738344
H -1.5003142 2.6798818 -0.29570284
H -1.2838849 0.32696673 -1.3486828
H 0.9177588 -0.5830047 -1.9001818
H 1.7336955 0.99430245 -1.4302083
H 1.4044156 1.914251 0.87283355
H 0.2950153 1.2062261 2.0389817
H 1.8359578 0.40529326 1.6620677
H 0.19396101 -1.008102 2.4551105
H -0.5378303 -2.4868631 1.938626
