17
title
C -0.38142452 2.4055078 -1.0873818
C -0.36034563 0.89442337 -1.0897661
C 0.9141827 0.13569018 -1.3331338
C 0.30146337 0.13659248 0.049174033
O 1.0091656 0.84714305 1.0355842
C -0.354603 -1.1452304 0.495949
N -0.13482983 -1.4556209 1.8062878
O -1.0331137 -1.8222142 -0.25663617
H 0.52797747 2.8156862 -0.63889927
H -0.4539568 2.79103 -2.109512
H -1.2416505 2.7937098 -0.5295953
H -1.2577072 0.40495634 -1.4555777
H 0.8647708 -0.7918736 -1.8904651
H 1.8317246 0.7061963 -1.4298719
H 0.38164884 1.4083635 1.5058086
H 0.6003856 -0.97461987 2.2977483
H -0.4207314 -2.3691764 2.1188776
