title
 OpenBabel02282109583D

 19 19  0  0  1  0  0  0  0  0999 V2000
   -0.6658    2.5032   -0.6745 C   0  0  0  0  0  0  0  0  0  0  0  0
   -0.6081    0.9970   -0.7476 C   0  0  1  0  0  0  0  0  0  0  0  0
    0.5317    0.3771   -1.4126 N   0  0  0  0  0  0  0  0  0  0  0  0
    0.3729    0.1519    0.0350 C   0  0  1  0  0  0  0  0  0  0  0  0
    1.4239    0.7592    0.9404 C   0  0  0  0  0  0  0  0  0  0  0  0
   -0.1948   -1.1997    0.4004 C   0  0  0  0  0  0  0  0  0  0  0  0
   -0.1303   -1.6404    1.8485 C   0  0  0  0  0  0  0  0  0  0  0  0
   -0.6998   -1.9023   -0.4532 O   0  0  0  0  0  0  0  0  0  0  0  0
    0.3276    2.9434   -0.5716 H   0  0  0  0  0  0  0  0  0  0  0  0
   -1.1093    2.9007   -1.5939 H   0  0  0  0  0  0  0  0  0  0  0  0
   -1.2868    2.8325    0.1654 H   0  0  0  0  0  0  0  0  0  0  0  0
   -1.5720    0.5150   -0.9064 H   0  0  0  0  0  0  0  0  0  0  0  0
    0.2171   -0.4730   -1.8822 H   0  0  0  0  0  0  0  0  0  0  0  0
    1.7935    1.6951    0.5203 H   0  0  0  0  0  0  0  0  0  0  0  0
    1.0328    0.9632    1.9423 H   0  0  0  0  0  0  0  0  0  0  0  0
    2.2844    0.0890    1.0432 H   0  0  0  0  0  0  0  0  0  0  0  0
   -0.5884   -0.8909    2.5029 H   0  0  0  0  0  0  0  0  0  0  0  0
   -0.6461   -2.5946    1.9588 H   0  0  0  0  0  0  0  0  0  0  0  0
    0.9110   -1.7480    2.1709 H   0  0  0  0  0  0  0  0  0  0  0  0
  1  9  1  0  0  0  0
  1 11  1  0  0  0  0
  2  1  1  0  0  0  0
  2  4  1  1  0  0  0
  3  2  1  0  0  0  0
  3  4  1  0  0  0  0
  4  6  1  1  0  0  0
  4  5  1  0  0  0  0
  5 16  1  0  0  0  0
  5 15  1  0  0  0  0
  6  7  1  0  0  0  0
  7 18  1  0  0  0  0
  7 19  1  0  0  0  0
  7 17  1  0  0  0  0
  8  6  2  0  0  0  0
 10  1  1  0  0  0  0
 12  2  1  0  0  0  0
 13  3  1  0  0  0  0
 14  5  1  0  0  0  0
M  END
