18
title
C -0.76206386 2.4592664 -0.77782714
C -0.5744582 0.9623294 -0.8264487
N 0.7055148 0.4401216 -1.299818
C 0.32846808 0.19812948 0.10490394
C 1.1717362 0.8822865 1.1611345
C -0.15611623 -1.212839 0.36621833
N -0.1082216 -1.6449517 1.65639
O -0.56159824 -1.9236945 -0.54052645
H 0.1623929 2.9766448 -0.5140642
H -1.076508 2.8261275 -1.7608469
H -1.5378953 2.7348523 -0.05524683
H -1.4551705 0.4020338 -1.1353426
H 0.534021 -0.4290501 -1.806468
H 1.581177 1.8150544 0.77237093
H 0.5895382 1.1225998 2.0593004
H 2.0184739 0.2527548 1.4556632
H 0.17357795 -1.0546678 2.4176102
H -0.46594545 -2.5640163 1.857996
