17
title
C -0.3575426 2.1556659 -1.5740688
C -0.2104357 0.7177836 -1.1525332
O 1.1159555 0.22960964 -0.9020288
C 0.18941166 0.26478586 0.20136255
C 0.49101666 1.1985368 1.3468498
C -0.32264963 -1.1012694 0.6406358
N 0.0752876 -2.1233854 -0.16264874
O -1.0435628 -1.2291702 1.6125466
H 0.29484233 2.8190322 -1.0044115
H -0.10335029 2.259909 -2.6340728
H -1.3946049 2.4826906 -1.4449204
H -0.82088953 0.017629897 -1.7258292
H 0.71364355 2.2092915 1.0042707
H -0.36586237 1.2186097 2.023307
H 1.3536029 0.8307463 1.9117795
H 0.7990271 -1.9566993 -0.84267
H -0.16694038 -3.0631473 0.103034206
