title
 OpenBabel02282109583D

 19 19  0  0  1  0  0  0  0  0999 V2000
   -0.6084    2.2090   -1.0983 C   0  0  0  0  0  0  0  0  0  0  0  0
   -0.6114    0.7645   -0.9158 N   0  0  0  0  0  0  0  0  0  0  0  0
    0.4307   -0.0148   -1.5448 C   0  0  0  0  0  0  0  0  0  0  0  0
    0.3922    0.1316   -0.0429 C   0  0  1  0  0  0  0  0  0  0  0  0
    1.4891    0.9200    0.6464 C   0  0  0  0  0  0  0  0  0  0  0  0
   -0.1362   -1.0290    0.7773 C   0  0  0  0  0  0  0  0  0  0  0  0
   -1.4604   -1.6474    0.3757 C   0  0  0  0  0  0  0  0  0  0  0  0
    0.4924   -1.4312    1.7328 O   0  0  0  0  0  0  0  0  0  0  0  0
    0.3898    2.6502   -1.2320 H   0  0  0  0  0  0  0  0  0  0  0  0
   -1.2029    2.4438   -1.9868 H   0  0  0  0  0  0  0  0  0  0  0  0
   -1.0850    2.6851   -0.2361 H   0  0  0  0  0  0  0  0  0  0  0  0
    0.1244   -0.9364   -2.0340 H   0  0  0  0  0  0  0  0  0  0  0  0
    1.2438    0.5124   -2.0444 H   0  0  0  0  0  0  0  0  0  0  0  0
    1.9645    1.6381   -0.0237 H   0  0  0  0  0  0  0  0  0  0  0  0
    1.0978    1.4597    1.5151 H   0  0  0  0  0  0  0  0  0  0  0  0
    2.2496    0.2287    1.0142 H   0  0  0  0  0  0  0  0  0  0  0  0
   -1.4531   -1.9788   -0.6670 H   0  0  0  0  0  0  0  0  0  0  0  0
   -1.6669   -2.4937    1.0316 H   0  0  0  0  0  0  0  0  0  0  0  0
   -2.2557   -0.9006    0.4519 H   0  0  0  0  0  0  0  0  0  0  0  0
  1  2  1  0  0  0  0
  1 11  1  0  0  0  0
  2  4  1  0  0  0  0
  3  2  1  0  0  0  0
  3  4  1  0  0  0  0
  4  5  1  0  0  0  0
  4  6  1  1  0  0  0
  5 16  1  0  0  0  0
  5 15  1  0  0  0  0
  6  8  2  0  0  0  0
  7 19  1  0  0  0  0
  7  6  1  0  0  0  0
  7 18  1  0  0  0  0
  9  1  1  0  0  0  0
 10  1  1  0  0  0  0
 12  3  1  0  0  0  0
 13  3  1  0  0  0  0
 14  5  1  0  0  0  0
 17  7  1  0  0  0  0
M  END
