19
title
C -0.60842 2.2090197 -1.0983325
N -0.6114062 0.7644502 -0.91584295
C 0.43071613 -0.0148284435 -1.5448204
C 0.3921626 0.1315544 -0.042905793
C 1.4890828 0.9199816 0.6464275
C -0.13622472 -1.0289737 0.7772659
C -1.4604071 -1.6474103 0.3757247
O 0.49242947 -1.4311663 1.732762
H 0.38982287 2.6502063 -1.2319694
H -1.2029321 2.4438174 -1.9867632
H -1.0850395 2.6851437 -0.23614417
H 0.124355406 -0.93636125 -2.0339544
H 1.2437729 0.51242006 -2.0443609
H 1.9645104 1.6380641 -0.02374588
H 1.0978255 1.4597275 1.5150698
H 2.249586 0.22874969 1.0142092
H -1.4530827 -1.9788035 -0.66701704
H -1.6669209 -2.4936604 1.0316216
H -2.255653 -0.9005832 0.45193842
