18
title
C -0.67256165 2.2459412 -0.99787194
N -0.6078498 0.793998 -0.90045047
C 0.521988 0.10823174 -1.508618
C 0.3822552 0.16159715 -0.013722645
C 1.3706863 0.95803726 0.81219125
C -0.12083526 -1.091378 0.6933117
N -1.3328186 -1.5266197 0.26005208
O 0.5426096 -1.6529586 1.5467682
H 0.30883622 2.7396574 -1.0285802
H -1.2132014 2.5092065 -1.9122882
H -1.2323489 2.6426575 -0.14541589
H 0.2921663 -0.80350274 -2.053405
H 1.3152936 0.71664786 -1.9419472
H 1.8972124 1.7085178 0.21984197
H 0.87124944 1.4612359 1.647171
H 2.1001217 0.26672158 1.2376766
H -1.880698 -0.90749055 -0.31752795
H -1.7571993 -2.3057175 0.7339505
