15
title
N 0.6714633 2.1332421 -0.026104987
C 0.71893746 0.78815097 -0.18418261
O 1.7658069 0.15796714 -0.3216625
C -0.6115942 0.10309242 -0.16276456
O -1.7313572 0.921182 0.05669277
C -0.7649648 -1.1537263 -1.0123559
C -0.6186377 -1.2884715 0.47501928
O 0.50323945 -1.8262022 1.0666397
H 1.538382 2.623412 0.12224237
H -0.19761862 2.5536735 0.25943115
H -2.0908685 1.1691165 -0.80313075
H -1.744991 -1.3185275 -1.4487296
H 0.08580474 -1.4190698 -1.6304102
H -1.519662 -1.5053322 1.0397446
H 1.2716863 -1.4085376 0.63631856
