title
 OpenBabel02282109583D

 15 15  0  0  1  0  0  0  0  0999 V2000
    1.1077    1.0152    1.5890 C   0  0  0  0  0  0  0  0  0  0  0  0
    0.4198    1.4548    0.3177 C   0  0  0  0  0  0  0  0  0  0  0  0
    0.6007    2.5279   -0.2079 O   0  0  0  0  0  0  0  0  0  0  0  0
   -0.5345    0.4694   -0.3466 C   0  0  1  0  0  0  0  0  0  0  0  0
    0.1058   -0.5309   -1.3452 C   0  0  0  0  0  0  0  0  0  0  0  0
   -0.4026   -1.5750   -0.3736 C   0  0  0  0  0  0  0  0  0  0  0  0
   -0.3763   -2.8244   -0.3239 N   0  0  0  0  0  0  0  0  0  0  0  0
   -0.9456   -0.6476    0.5023 O   0  0  0  0  0  0  0  0  0  0  0  0
    1.7950    1.7941    1.9195 H   0  0  0  0  0  0  0  0  0  0  0  0
    0.3618    0.8108    2.3642 H   0  0  0  0  0  0  0  0  0  0  0  0
    1.6500    0.0760    1.4321 H   0  0  0  0  0  0  0  0  0  0  0  0
   -1.4017    1.0103   -0.7312 H   0  0  0  0  0  0  0  0  0  0  0  0
   -0.3444   -0.5600   -2.3376 H   0  0  0  0  0  0  0  0  0  0  0  0
    1.1919   -0.4807   -1.4404 H   0  0  0  0  0  0  0  0  0  0  0  0
   -0.8442   -3.1791    0.5116 H   0  0  0  0  0  0  0  0  0  0  0  0
  1  9  1  0  0  0  0
  1 10  1  0  0  0  0
  2  1  1  0  0  0  0
  3  2  2  0  0  0  0
  4 12  1  6  0  0  0
  4  2  1  0  0  0  0
  4  8  1  0  0  0  0
  5  6  1  0  0  0  0
  5  4  1  0  0  0  0
  6  7  2  0  0  0  0
  6  8  1  0  0  0  0
  7 15  1  0  0  0  0
 11  1  1  0  0  0  0
 13  5  1  0  0  0  0
 14  5  1  0  0  0  0
M  END
