title
 OpenBabel02282109583D

 15 15  0  0  1  0  0  0  0  0999 V2000
    0.8336    2.5928    0.5611 C   0  0  0  0  0  0  0  0  0  0  0  0
    0.9065    1.0792    0.5317 C   0  0  0  0  0  0  0  0  0  0  0  0
    1.9498    0.4714    0.4791 O   0  0  0  0  0  0  0  0  0  0  0  0
   -0.4277    0.3439    0.5911 C   0  0  1  0  0  0  0  0  0  0  0  0
   -1.1786    0.2130   -0.7780 C   0  0  0  0  0  0  0  0  0  0  0  0
   -0.8775   -1.3017   -0.6420 C   0  0  0  0  0  0  0  0  0  0  0  0
   -1.0306   -2.2718   -1.3276 O   0  0  0  0  0  0  0  0  0  0  0  0
   -0.3280   -1.1128    0.6119 N   0  0  0  0  0  0  0  0  0  0  0  0
    1.8208    3.0149    0.3712 H   0  0  0  0  0  0  0  0  0  0  0  0
    0.1150    2.9687   -0.1748 H   0  0  0  0  0  0  0  0  0  0  0  0
    0.4829    2.9247    1.5456 H   0  0  0  0  0  0  0  0  0  0  0  0
   -1.0444    0.7592    1.3975 H   0  0  0  0  0  0  0  0  0  0  0  0
   -2.2345    0.4861   -0.7689 H   0  0  0  0  0  0  0  0  0  0  0  0
   -0.6810    0.6779   -1.6314 H   0  0  0  0  0  0  0  0  0  0  0  0
    0.3718   -1.6720    1.0799 H   0  0  0  0  0  0  0  0  0  0  0  0
  1 11  1  0  0  0  0
  2  1  1  0  0  0  0
  2  4  1  0  0  0  0
  3  2  2  0  0  0  0
  4  8  1  0  0  0  0
  4 12  1  1  0  0  0
  5 13  1  0  0  0  0
  5  6  1  0  0  0  0
  5  4  1  0  0  0  0
  6  8  1  0  0  0  0
  7  6  2  0  0  0  0
  8 15  1  0  0  0  0
  9  1  1  0  0  0  0
 10  1  1  0  0  0  0
 14  5  1  0  0  0  0
M  END
