title
 OpenBabel02282109583D

 15 15  0  0  0  0  0  0  0  0999 V2000
   -0.3523    2.2220    1.3382 C   0  0  0  0  0  0  0  0  0  0  0  0
   -0.3200    0.7037    1.3689 C   0  0  0  0  0  0  0  0  0  0  0  0
   -0.3561    0.0471    2.3929 O   0  0  0  0  0  0  0  0  0  0  0  0
   -0.2614    0.0970    0.1454 N   0  0  0  0  0  0  0  0  0  0  0  0
    0.1265    0.5765   -1.1892 C   0  0  0  0  0  0  0  0  0  0  0  0
    0.3898   -0.9091   -1.5389 C   0  0  0  0  0  0  0  0  0  0  0  0
    0.7350   -1.4851   -2.5219 O   0  0  0  0  0  0  0  0  0  0  0  0
    0.0164   -1.3231   -0.1020 C   0  0  0  0  0  0  0  0  0  0  0  0
    0.6135    2.6219    1.0091 H   0  0  0  0  0  0  0  0  0  0  0  0
   -1.1154    2.5940    0.6478 H   0  0  0  0  0  0  0  0  0  0  0  0
   -0.5586    2.5846    2.3447 H   0  0  0  0  0  0  0  0  0  0  0  0
   -0.6723    1.0533   -1.7693 H   0  0  0  0  0  0  0  0  0  0  0  0
    1.0219    1.2101   -1.2206 H   0  0  0  0  0  0  0  0  0  0  0  0
    0.8405   -1.7325    0.4943 H   0  0  0  0  0  0  0  0  0  0  0  0
   -0.8493   -1.9886   -0.0141 H   0  0  0  0  0  0  0  0  0  0  0  0
  1  2  1  0  0  0  0
  1 11  1  0  0  0  0
  2  3  2  0  0  0  0
  4  2  1  0  0  0  0
  5  4  1  0  0  0  0
  6  5  1  0  0  0  0
  6  8  1  0  0  0  0
  7  6  2  0  0  0  0
  8 15  1  0  0  0  0
  8  4  1  0  0  0  0
  8 14  1  0  0  0  0
  9  1  1  0  0  0  0
 10  1  1  0  0  0  0
 12  5  1  0  0  0  0
 13  5  1  0  0  0  0
M  END
