14
title
N 1.2650157 0.61672777 1.5594326
C 0.5636718 1.288942 0.6149201
O 0.79990065 2.419124 0.2362018
C -0.59003603 0.5072317 0.00064110116
C -0.34924957 -0.069721565 -1.4128333
C -0.5468687 -1.4065279 -0.73119944
N -0.5510309 -2.6013863 -1.0993997
O -0.7515693 -0.8522207 0.5287112
H 2.0276892 1.0811706 2.0236964
H 0.97991574 -0.30425888 1.8462014
H -1.5122144 1.0797276 0.11904048
H -1.1004848 0.17838933 -2.1629322
H 0.6468249 0.098248556 -1.824267
H -0.738261 -3.2368317 -0.32222754
