15
title
N 0.50424147 2.3511534 1.3521681
C 0.743885 1.2650418 0.56637424
O 1.829315 1.0496074 0.05779342
C -0.43125904 0.3260819 0.35810632
C -0.723722 -0.030003803 -1.1376276
C -0.75883675 -1.5054278 -0.7170806
O -1.2077017 -2.498458 -1.2077723
C -0.1190197 -1.1814613 0.6395423
H 1.255932 3.0018265 1.5128345
H -0.39211202 2.532317 1.7670455
H -1.3319979 0.6577842 0.87968016
H -1.6162245 0.382004 -1.612726
H 0.15655415 0.17500775 -1.7561204
H 0.9614872 -1.3577888 0.60949844
H -0.54801726 -1.6518965 1.5264909
