13
title
N 1.2946595 0.6677674 1.5143583
C 0.64648706 1.3068056 0.5109954
O 0.9623112 2.382038 0.042059977
C -0.5550176 0.559134 -0.053707223
C -0.34029615 -0.14951342 -1.4057543
C -0.6252558 -1.4172974 -0.60283077
O -0.69750345 -2.5867293 -0.780429
O -0.8158754 -0.7368581 0.5874813
H 2.0789967 1.1223093 1.9520704
H 0.9378858 -0.19536054 1.8885015
H -1.4370874 1.1988778 0.0025010288
H -1.0740494 0.06384331 -2.1837459
H 0.66572446 -0.0888862 -1.822957
