title
 OpenBabel02282109583D

 13 13  0  0  1  0  0  0  0  0999 V2000
    1.2947    0.6678    1.5144 N   0  0  0  0  0  0  0  0  0  0  0  0
    0.6465    1.3068    0.5110 C   0  0  0  0  0  0  0  0  0  0  0  0
    0.9623    2.3820    0.0421 O   0  0  0  0  0  0  0  0  0  0  0  0
   -0.5550    0.5591   -0.0537 C   0  0  1  0  0  0  0  0  0  0  0  0
   -0.3403   -0.1495   -1.4058 C   0  0  0  0  0  0  0  0  0  0  0  0
   -0.6253   -1.4173   -0.6028 C   0  0  0  0  0  0  0  0  0  0  0  0
   -0.6975   -2.5867   -0.7804 O   0  0  0  0  0  0  0  0  0  0  0  0
   -0.8159   -0.7369    0.5875 O   0  0  0  0  0  0  0  0  0  0  0  0
    2.0790    1.1223    1.9521 H   0  0  0  0  0  0  0  0  0  0  0  0
    0.9379   -0.1954    1.8885 H   0  0  0  0  0  0  0  0  0  0  0  0
   -1.4371    1.1989    0.0025 H   0  0  0  0  0  0  0  0  0  0  0  0
   -1.0740    0.0638   -2.1837 H   0  0  0  0  0  0  0  0  0  0  0  0
    0.6657   -0.0889   -1.8230 H   0  0  0  0  0  0  0  0  0  0  0  0
  1 10  1  0  0  0  0
  1  9  1  0  0  0  0
  2  1  1  0  0  0  0
  3  2  2  0  0  0  0
  4 11  1  6  0  0  0
  4  2  1  0  0  0  0
  4  8  1  0  0  0  0
  5  6  1  0  0  0  0
  5  4  1  0  0  0  0
  6  8  1  0  0  0  0
  7  6  2  0  0  0  0
 12  5  1  0  0  0  0
 13  5  1  0  0  0  0
M  END
