title
 OpenBabel02282109583D

 14 14  0  0  0  0  0  0  0  0999 V2000
    1.2544    2.1051    0.2497 N   0  0  0  0  0  0  0  0  0  0  0  0
    1.3225    0.7224    0.2816 C   0  0  0  0  0  0  0  0  0  0  0  0
    2.3557    0.0967    0.1428 O   0  0  0  0  0  0  0  0  0  0  0  0
    0.0990    0.1020    0.4630 N   0  0  0  0  0  0  0  0  0  0  0  0
   -1.2049    0.5537   -0.0714 C   0  0  0  0  0  0  0  0  0  0  0  0
   -1.5017   -0.9328   -0.3729 C   0  0  0  0  0  0  0  0  0  0  0  0
   -2.4455   -1.5275   -0.7902 O   0  0  0  0  0  0  0  0  0  0  0  0
   -0.0911   -1.3162    0.1052 C   0  0  0  0  0  0  0  0  0  0  0  0
    2.1571    2.5473    0.3325 H   0  0  0  0  0  0  0  0  0  0  0  0
    0.5156    2.5569    0.7665 H   0  0  0  0  0  0  0  0  0  0  0  0
   -1.8748    1.0216    0.6590 H   0  0  0  0  0  0  0  0  0  0  0  0
   -1.1362    1.1892   -0.9631 H   0  0  0  0  0  0  0  0  0  0  0  0
    0.5865   -1.6650   -0.6828 H   0  0  0  0  0  0  0  0  0  0  0  0
   -0.0505   -2.0157    0.9463 H   0  0  0  0  0  0  0  0  0  0  0  0
  1  2  1  0  0  0  0
  1  9  1  0  0  0  0
  1 10  1  0  0  0  0
  2  4  1  0  0  0  0
  3  2  2  0  0  0  0
  5  4  1  0  0  0  0
  5 11  1  0  0  0  0
  6  5  1  0  0  0  0
  6  8  1  0  0  0  0
  7  6  2  0  0  0  0
  8  4  1  0  0  0  0
  8 14  1  0  0  0  0
 12  5  1  0  0  0  0
 13  8  1  0  0  0  0
M  END
