19
title
C 0.70608604 2.4090867 -0.87362766
C 0.9379537 0.8930272 -0.97012216
C 2.0616508 0.44938874 -0.023439754
C -0.37719023 0.15418157 -0.740367
C -0.4156294 -1.387785 -0.6443362
C -0.9038737 -1.1343858 0.7654231
N -1.2593846 -1.860409 1.723609
O -0.84363854 0.24020883 0.6569192
H 1.6303642 2.9593275 -1.0735446
H -0.048559915 2.7454596 -1.592345
H 0.36023903 2.6811867 0.12893589
H 1.2338554 0.6542291 -2.0025198
H 1.7875197 0.64100486 1.0179783
H 2.2966058 -0.61450076 -0.12162959
H 2.9776728 1.007318 -0.23895852
H -1.1547632 0.5647417 -1.3932588
H -1.1370275 -1.8863363 -1.2935337
H 0.54431385 -1.9012918 -0.7098678
H -1.5383284 -1.2973006 2.5290873
