title
 OpenBabel02282109583D

 19 19  0  0  1  0  0  0  0  0999 V2000
    0.7061    2.4091   -0.8736 C   0  0  0  0  0  0  0  0  0  0  0  0
    0.9380    0.8930   -0.9701 C   0  0  0  0  0  0  0  0  0  0  0  0
    2.0617    0.4494   -0.0234 C   0  0  0  0  0  0  0  0  0  0  0  0
   -0.3772    0.1542   -0.7404 C   0  0  1  0  0  0  0  0  0  0  0  0
   -0.4156   -1.3878   -0.6443 C   0  0  0  0  0  0  0  0  0  0  0  0
   -0.9039   -1.1344    0.7654 C   0  0  0  0  0  0  0  0  0  0  0  0
   -1.2594   -1.8604    1.7236 N   0  0  0  0  0  0  0  0  0  0  0  0
   -0.8436    0.2402    0.6569 O   0  0  0  0  0  0  0  0  0  0  0  0
    1.6304    2.9593   -1.0735 H   0  0  0  0  0  0  0  0  0  0  0  0
   -0.0486    2.7455   -1.5923 H   0  0  0  0  0  0  0  0  0  0  0  0
    0.3602    2.6812    0.1289 H   0  0  0  0  0  0  0  0  0  0  0  0
    1.2339    0.6542   -2.0025 H   0  0  0  0  0  0  0  0  0  0  0  0
    1.7875    0.6410    1.0180 H   0  0  0  0  0  0  0  0  0  0  0  0
    2.2966   -0.6145   -0.1216 H   0  0  0  0  0  0  0  0  0  0  0  0
    2.9777    1.0073   -0.2390 H   0  0  0  0  0  0  0  0  0  0  0  0
   -1.1548    0.5647   -1.3933 H   0  0  0  0  0  0  0  0  0  0  0  0
   -1.1370   -1.8863   -1.2935 H   0  0  0  0  0  0  0  0  0  0  0  0
    0.5443   -1.9013   -0.7099 H   0  0  0  0  0  0  0  0  0  0  0  0
   -1.5383   -1.2973    2.5291 H   0  0  0  0  0  0  0  0  0  0  0  0
  1 11  1  0  0  0  0
  2  1  1  0  0  0  0
  2  4  1  0  0  0  0
  2  3  1  0  0  0  0
  3 13  1  0  0  0  0
  4 16  1  6  0  0  0
  4  5  1  0  0  0  0
  4  8  1  0  0  0  0
  5  6  1  0  0  0  0
  6  7  2  0  0  0  0
  7 19  1  0  0  0  0
  8  6  1  0  0  0  0
  9  1  1  0  0  0  0
 10  1  1  0  0  0  0
 12  2  1  0  0  0  0
 14  3  1  0  0  0  0
 15  3  1  0  0  0  0
 17  5  1  0  0  0  0
 18  5  1  0  0  0  0
M  END
