title
 OpenBabel02282109583D

 20 20  0  0  0  0  0  0  0  0999 V2000
   -0.6766    2.2597   -1.2719 C   0  0  0  0  0  0  0  0  0  0  0  0
   -0.4309    0.7460   -1.3343 C   0  0  0  0  0  0  0  0  0  0  0  0
    0.2717    0.3568   -2.6421 C   0  0  0  0  0  0  0  0  0  0  0  0
    0.3606    0.2644   -0.1175 C   0  0  0  0  0  0  0  0  0  0  0  0
   -0.3139    0.3850    1.2884 C   0  0  0  0  0  0  0  0  0  0  0  0
    0.1127   -1.0657    1.5581 C   0  0  0  0  0  0  0  0  0  0  0  0
    0.1851   -1.7396    2.5441 O   0  0  0  0  0  0  0  0  0  0  0  0
    0.5149   -1.2780    0.0910 C   0  0  0  0  0  0  0  0  0  0  0  0
    0.2719    2.8096   -1.2950 H   0  0  0  0  0  0  0  0  0  0  0  0
   -1.2755    2.5968   -2.1241 H   0  0  0  0  0  0  0  0  0  0  0  0
   -1.2054    2.5463   -0.3573 H   0  0  0  0  0  0  0  0  0  0  0  0
   -1.4092    0.2413   -1.3104 H   0  0  0  0  0  0  0  0  0  0  0  0
    1.2544    0.8381   -2.7145 H   0  0  0  0  0  0  0  0  0  0  0  0
    0.4248   -0.7248   -2.7126 H   0  0  0  0  0  0  0  0  0  0  0  0
   -0.3148    0.6690   -3.5122 H   0  0  0  0  0  0  0  0  0  0  0  0
    1.3443    0.7477   -0.1079 H   0  0  0  0  0  0  0  0  0  0  0  0
    0.0564    1.1375    1.9889 H   0  0  0  0  0  0  0  0  0  0  0  0
   -1.4057    0.4723    1.2302 H   0  0  0  0  0  0  0  0  0  0  0  0
   -0.2444   -1.8581   -0.4477 H   0  0  0  0  0  0  0  0  0  0  0  0
    1.4901   -1.7394   -0.0826 H   0  0  0  0  0  0  0  0  0  0  0  0
  1 11  1  0  0  0  0
  2 12  1  0  0  0  0
  2  1  1  0  0  0  0
  2  4  1  0  0  0  0
  3  2  1  0  0  0  0
  4 16  1  0  0  0  0
  4  8  1  0  0  0  0
  4  5  1  0  0  0  0
  5  6  1  0  0  0  0
  5 17  1  0  0  0  0
  6  7  2  0  0  0  0
  8  6  1  0  0  0  0
  9  1  1  0  0  0  0
 10  1  1  0  0  0  0
 13  3  1  0  0  0  0
 14  3  1  0  0  0  0
 15  3  1  0  0  0  0
 18  5  1  0  0  0  0
 19  8  1  0  0  0  0
 20  8  1  0  0  0  0
M  END
