title
 OpenBabel02282109583D

 19 19  0  0  1  0  0  0  0  0999 V2000
    1.1151    2.3784   -0.7182 C   0  0  0  0  0  0  0  0  0  0  0  0
    1.2061    0.8454   -0.7718 C   0  0  0  0  0  0  0  0  0  0  0  0
    2.1182    0.3157    0.3421 C   0  0  0  0  0  0  0  0  0  0  0  0
   -0.2023    0.2345   -0.7622 C   0  0  1  0  0  0  0  0  0  0  0  0
   -0.3769   -1.3146   -0.7155 C   0  0  0  0  0  0  0  0  0  0  0  0
   -1.1761   -1.0772    0.5886 C   0  0  0  0  0  0  0  0  0  0  0  0
   -1.7985   -1.7530    1.3620 O   0  0  0  0  0  0  0  0  0  0  0  0
   -0.9262    0.2749    0.5225 N   0  0  0  0  0  0  0  0  0  0  0  0
    2.1061    2.8347   -0.8025 H   0  0  0  0  0  0  0  0  0  0  0  0
    0.4930    2.7742   -1.5281 H   0  0  0  0  0  0  0  0  0  0  0  0
    0.6818    2.7122    0.2324 H   0  0  0  0  0  0  0  0  0  0  0  0
    1.6448    0.5681   -1.7411 H   0  0  0  0  0  0  0  0  0  0  0  0
    1.7002    0.5352    1.3293 H   0  0  0  0  0  0  0  0  0  0  0  0
    2.2695   -0.7655    0.2765 H   0  0  0  0  0  0  0  0  0  0  0  0
    3.1035    0.7879    0.2816 H   0  0  0  0  0  0  0  0  0  0  0  0
   -0.7864    0.6846   -1.5754 H   0  0  0  0  0  0  0  0  0  0  0  0
   -0.9741   -1.7395   -1.5241 H   0  0  0  0  0  0  0  0  0  0  0  0
    0.5358   -1.8982   -0.5912 H   0  0  0  0  0  0  0  0  0  0  0  0
   -1.3408    1.0388    1.0363 H   0  0  0  0  0  0  0  0  0  0  0  0
  1 11  1  0  0  0  0
  2  4  1  0  0  0  0
  2  1  1  0  0  0  0
  2  3  1  0  0  0  0
  3 13  1  0  0  0  0
  4 16  1  6  0  0  0
  4  5  1  0  0  0  0
  4  8  1  0  0  0  0
  5 18  1  0  0  0  0
  5  6  1  0  0  0  0
  6  7  2  0  0  0  0
  8  6  1  0  0  0  0
  8 19  1  0  0  0  0
  9  1  1  0  0  0  0
 10  1  1  0  0  0  0
 12  2  1  0  0  0  0
 14  3  1  0  0  0  0
 15  3  1  0  0  0  0
 17  5  1  0  0  0  0
M  END
