19
title
C 1.1151063 2.3784368 -0.7181636
C 1.2060591 0.8454446 -0.7717739
C 2.1182034 0.31572697 0.3420841
C -0.20227768 0.23449959 -0.76222765
C -0.37688053 -1.314569 -0.7154755
C -1.1760836 -1.0771532 0.58855814
O -1.798521 -1.753022 1.361973
N -0.9262004 0.2748715 0.52254444
H 2.1061428 2.8346727 -0.80247337
H 0.4929943 2.7741594 -1.5281194
H 0.6817748 2.7122097 0.23242396
H 1.6447928 0.5680985 -1.7410971
H 1.7001771 0.53517926 1.3293405
H 2.26949 -0.7655071 0.27647382
H 3.1035225 0.7878686 0.28164035
H -0.78641415 0.6845991 -1.5754042
H -0.9741249 -1.7394869 -1.5241421
H 0.5357836 -1.8982301 -0.5911748
H -1.3408308 1.0388168 1.0362812
