title
 OpenBabel02282109583D

 18 18  0  0  1  0  0  0  0  0999 V2000
    0.2986    2.3764    1.1694 C   0  0  0  0  0  0  0  0  0  0  0  0
    0.2977    0.8511    1.3569 C   0  0  0  0  0  0  0  0  0  0  0  0
   -1.0916    0.3520    1.7777 C   0  0  0  0  0  0  0  0  0  0  0  0
    0.8314    0.1760    0.0968 C   0  0  1  0  0  0  0  0  0  0  0  0
    0.8094   -1.3583   -0.0488 C   0  0  0  0  0  0  0  0  0  0  0  0
   -0.1410   -1.0743   -1.2119 C   0  0  0  0  0  0  0  0  0  0  0  0
   -0.7450   -1.6876   -2.0308 O   0  0  0  0  0  0  0  0  0  0  0  0
   -0.1005    0.2870   -1.0459 O   0  0  0  0  0  0  0  0  0  0  0  0
    1.2987    2.7497    0.9258 H   0  0  0  0  0  0  0  0  0  0  0  0
   -0.3752    2.6637    0.3558 H   0  0  0  0  0  0  0  0  0  0  0  0
   -0.0363    2.8809    2.0806 H   0  0  0  0  0  0  0  0  0  0  0  0
    1.0161    0.6009    2.1515 H   0  0  0  0  0  0  0  0  0  0  0  0
   -1.8298    0.5553    0.9966 H   0  0  0  0  0  0  0  0  0  0  0  0
   -1.1063   -0.7215    1.9885 H   0  0  0  0  0  0  0  0  0  0  0  0
   -1.4148    0.8658    2.6877 H   0  0  0  0  0  0  0  0  0  0  0  0
    1.7867    0.6233   -0.1943 H   0  0  0  0  0  0  0  0  0  0  0  0
    1.7492   -1.8264   -0.3460 H   0  0  0  0  0  0  0  0  0  0  0  0
    0.3632   -1.9246    0.7693 H   0  0  0  0  0  0  0  0  0  0  0  0
  1  2  1  0  0  0  0
  1 11  1  0  0  0  0
  2  3  1  0  0  0  0
  2 12  1  0  0  0  0
  3 14  1  0  0  0  0
  3 15  1  0  0  0  0
  4 16  1  6  0  0  0
  4  2  1  0  0  0  0
  5  4  1  0  0  0  0
  5 18  1  0  0  0  0
  6  8  1  0  0  0  0
  6  5  1  0  0  0  0
  7  6  2  0  0  0  0
  8  4  1  0  0  0  0
  9  1  1  0  0  0  0
 10  1  1  0  0  0  0
 13  3  1  0  0  0  0
 17  5  1  0  0  0  0
M  END
