17
title
C 0.7343609 2.351333 -0.9403116
C 0.86098003 0.82964444 -1.0367996
O 1.8867975 0.33165318 -0.19191478
C -0.46282098 0.1317344 -0.74448925
C -0.45511898 -1.4005959 -0.56727827
C -0.86681163 -1.0870477 0.85351324
N -1.1599325 -1.7624214 1.8664057
O -0.8286295 0.2879794 0.6756706
H 1.7070738 2.8175526 -1.1140952
H 0.024345601 2.738465 -1.678526
H 0.37963307 2.6425312 0.054260332
H 1.1624672 0.5493402 -2.0543492
H 1.6270641 0.53829134 0.71414447
H -1.2664441 0.5217263 -1.3765212
H -1.1855186 -1.9643114 -1.1484226
H 0.53214455 -1.856554 -0.64835495
H -1.4008509 -1.1627927 2.6574385
