title
 OpenBabel02282109583D

 17 17  0  0  1  0  0  0  0  0999 V2000
    1.1033    2.3445   -0.7701 C   0  0  0  0  0  0  0  0  0  0  0  0
    1.1480    0.8154   -0.8257 C   0  0  1  0  0  0  0  0  0  0  0  0
    1.9653    0.2814    0.2031 O   0  0  0  0  0  0  0  0  0  0  0  0
   -0.2532    0.1980   -0.7872 C   0  0  1  0  0  0  0  0  0  0  0  0
   -0.3483   -1.3481   -0.6340 C   0  0  0  0  0  0  0  0  0  0  0  0
   -1.1516   -1.0615    0.6532 C   0  0  0  0  0  0  0  0  0  0  0  0
   -1.7767   -1.6998    1.4525 O   0  0  0  0  0  0  0  0  0  0  0  0
   -0.9135    0.3010    0.5336 N   0  0  0  0  0  0  0  0  0  0  0  0
    2.1182    2.7490   -0.7826 H   0  0  0  0  0  0  0  0  0  0  0  0
    0.5514    2.7597   -1.6202 H   0  0  0  0  0  0  0  0  0  0  0  0
    0.6159    2.6849    0.1514 H   0  0  0  0  0  0  0  0  0  0  0  0
    1.6219    0.5026   -1.7647 H   0  0  0  0  0  0  0  0  0  0  0  0
    1.4792    0.3951    1.0298 H   0  0  0  0  0  0  0  0  0  0  0  0
   -0.8668    0.5913   -1.6059 H   0  0  0  0  0  0  0  0  0  0  0  0
   -0.9172   -1.8717   -1.4035 H   0  0  0  0  0  0  0  0  0  0  0  0
    0.6095   -1.8404   -0.4630 H   0  0  0  0  0  0  0  0  0  0  0  0
   -1.4487    1.0606    0.9324 H   0  0  0  0  0  0  0  0  0  0  0  0
  1 11  1  0  0  0  0
  2 12  1  6  0  0  0
  2  4  1  0  0  0  0
  2  1  1  0  0  0  0
  2  3  1  0  0  0  0
  3 13  1  0  0  0  0
  4 14  1  6  0  0  0
  4  5  1  0  0  0  0
  4  8  1  0  0  0  0
  5 16  1  0  0  0  0
  5  6  1  0  0  0  0
  6  7  2  0  0  0  0
  8  6  1  0  0  0  0
  8 17  1  0  0  0  0
  9  1  1  0  0  0  0
 10  1  1  0  0  0  0
 15  5  1  0  0  0  0
M  END
