title
 OpenBabel02282109583D

 16 16  0  0  1  0  0  0  0  0999 V2000
    0.7960    2.3493   -0.9073 C   0  0  0  0  0  0  0  0  0  0  0  0
    0.9153    0.8277   -0.9994 C   0  0  1  0  0  0  0  0  0  0  0  0
    1.8850    0.3148   -0.0988 O   0  0  0  0  0  0  0  0  0  0  0  0
   -0.4294    0.1387   -0.7856 C   0  0  1  0  0  0  0  0  0  0  0  0
   -0.4328   -1.3894   -0.6073 C   0  0  0  0  0  0  0  0  0  0  0  0
   -0.8930   -1.0649    0.8115 C   0  0  0  0  0  0  0  0  0  0  0  0
   -1.1926   -1.6417    1.8045 O   0  0  0  0  0  0  0  0  0  0  0  0
   -0.8726    0.3000    0.6133 O   0  0  0  0  0  0  0  0  0  0  0  0
    1.7805    2.8076   -1.0271 H   0  0  0  0  0  0  0  0  0  0  0  0
    0.1313    2.7424   -1.6834 H   0  0  0  0  0  0  0  0  0  0  0  0
    0.3881    2.6429    0.0660 H   0  0  0  0  0  0  0  0  0  0  0  0
    1.2722    0.5465   -1.9985 H   0  0  0  0  0  0  0  0  0  0  0  0
    1.6131    0.5753    0.7897 H   0  0  0  0  0  0  0  0  0  0  0  0
   -1.1956    0.5315   -1.4596 H   0  0  0  0  0  0  0  0  0  0  0  0
   -1.1553   -1.9525   -1.1993 H   0  0  0  0  0  0  0  0  0  0  0  0
    0.5497   -1.8604   -0.6479 H   0  0  0  0  0  0  0  0  0  0  0  0
  1 11  1  0  0  0  0
  2 12  1  6  0  0  0
  2  1  1  0  0  0  0
  2  4  1  0  0  0  0
  2  3  1  0  0  0  0
  3 13  1  0  0  0  0
  4 14  1  6  0  0  0
  4  5  1  0  0  0  0
  4  8  1  0  0  0  0
  5  6  1  0  0  0  0
  6  7  2  0  0  0  0
  8  6  1  0  0  0  0
  9  1  1  0  0  0  0
 10  1  1  0  0  0  0
 15  5  1  0  0  0  0
 16  5  1  0  0  0  0
M  END
