16
title
C 0.7959623 2.3493261 -0.90729517
C 0.9152978 0.8277139 -0.99941695
O 1.8849922 0.31484953 -0.09876885
C -0.42938763 0.13874964 -0.7855976
C -0.4328267 -1.3894182 -0.60726905
C -0.8930051 -1.0649368 0.81148714
O -1.192638 -1.6416949 1.8044786
O -0.8725602 0.3000151 0.61329824
H 1.7805055 2.8076332 -1.0270578
H 0.13126098 2.7423966 -1.6834004
H 0.3881219 2.642882 0.06599871
H 1.2721782 0.54646516 -1.9985391
H 1.6131498 0.57527554 0.7896933
H -1.1955782 0.5315068 -1.4595783
H -1.1553138 -1.9524597 -1.1992774
H 0.5497146 -1.860403 -0.64789903
