title
 OpenBabel02282109583D

 24 24  0  0  1  0  0  0  0  0999 V2000
    1.2107    2.3909    0.2971 C   0  0  0  0  0  0  0  0  0  0  0  0
    1.2447    0.8686    0.4906 C   0  0  0  0  0  0  0  0  0  0  0  0
    1.9395    0.4938    1.8069 C   0  0  0  0  0  0  0  0  0  0  0  0
   -0.1588    0.2705    0.4165 C   0  0  1  0  0  0  0  0  0  0  0  0
   -0.9492    0.3462   -0.9213 C   0  0  0  0  0  0  0  0  0  0  0  0
   -1.4851   -1.0877   -0.6498 C   0  0  1  0  0  0  0  0  0  0  0  0
   -1.6165   -2.0617   -1.8102 C   0  0  0  0  0  0  0  0  0  0  0  0
   -0.3263   -1.2755    0.3693 C   0  0  0  0  0  0  0  0  0  0  0  0
    2.2205    2.8149    0.3034 H   0  0  0  0  0  0  0  0  0  0  0  0
    0.7386    2.6641   -0.6521 H   0  0  0  0  0  0  0  0  0  0  0  0
    0.6437    2.8741    1.1021 H   0  0  0  0  0  0  0  0  0  0  0  0
    1.8290    0.4356   -0.3355 H   0  0  0  0  0  0  0  0  0  0  0  0
    1.3985    0.9093    2.6659 H   0  0  0  0  0  0  0  0  0  0  0  0
    1.9894   -0.5918    1.9392 H   0  0  0  0  0  0  0  0  0  0  0  0
    2.9626    0.8829    1.8410 H   0  0  0  0  0  0  0  0  0  0  0  0
   -0.7694    0.6837    1.2305 H   0  0  0  0  0  0  0  0  0  0  0  0
   -1.6780    1.1509   -1.0492 H   0  0  0  0  0  0  0  0  0  0  0  0
   -0.2680    0.3557   -1.7810 H   0  0  0  0  0  0  0  0  0  0  0  0
   -2.4377   -1.0246   -0.1107 H   0  0  0  0  0  0  0  0  0  0  0  0
   -0.6739   -2.1406   -2.3643 H   0  0  0  0  0  0  0  0  0  0  0  0
   -1.8819   -3.0661   -1.4607 H   0  0  0  0  0  0  0  0  0  0  0  0
   -2.3910   -1.7402   -2.5159 H   0  0  0  0  0  0  0  0  0  0  0  0
    0.5414   -1.7511   -0.1042 H   0  0  0  0  0  0  0  0  0  0  0  0
   -0.5432   -1.8031    1.3018 H   0  0  0  0  0  0  0  0  0  0  0  0
  1  9  1  0  0  0  0
  1  2  1  0  0  0  0
  1 11  1  0  0  0  0
  2  3  1  0  0  0  0
  3 15  1  0  0  0  0
  3 14  1  0  0  0  0
  3 13  1  0  0  0  0
  4  2  1  0  0  0  0
  4 16  1  1  0  0  0
  5  6  1  0  0  0  0
  5  4  1  0  0  0  0
  6 19  1  1  0  0  0
  6  8  1  0  0  0  0
  7 21  1  0  0  0  0
  7  6  1  0  0  0  0
  8  4  1  0  0  0  0
  8 24  1  0  0  0  0
 10  1  1  0  0  0  0
 12  2  1  0  0  0  0
 17  5  1  0  0  0  0
 18  5  1  0  0  0  0
 20  7  1  0  0  0  0
 22  7  1  0  0  0  0
 23  8  1  0  0  0  0
M  END
