22
title
C -0.119981125 2.3053484 1.3361785
C -0.06561109 0.7715832 1.4234957
C -1.479736 0.1780806 1.4499737
C 0.7967712 0.22745071 0.28417778
C 0.95817 -1.2891092 0.04162442
C 0.5314699 -0.9565389 -1.4049875
C -0.632364 -1.7014074 -2.0246267
O 0.19214545 0.40009034 -1.0236012
H 0.8828768 2.743345 1.3799834
H -0.5809126 2.6173754 0.39334357
H -0.7081061 2.7267563 2.1574185
H 0.45112178 0.49577737 2.3550346
H -1.9938883 0.3799883 0.50597125
H -1.4724648 -0.90475535 1.6083771
H -2.0660532 0.6224208 2.2602434
H 1.7730101 0.7364994 0.31241453
H 1.9585956 -1.7015176 0.18146215
H 0.23417595 -1.9104307 0.57316196
H 1.3840426 -0.9473127 -2.1004736
H -1.4790484 -1.7481463 -1.3332015
H -0.963149 -1.200464 -2.9401536
H -0.335517 -2.7238455 -2.283742
