title
 OpenBabel02282109583D

 22 22  0  0  1  0  0  0  0  0999 V2000
   -0.1200    2.3053    1.3362 C   0  0  0  0  0  0  0  0  0  0  0  0
   -0.0656    0.7716    1.4235 C   0  0  0  0  0  0  0  0  0  0  0  0
   -1.4797    0.1781    1.4500 C   0  0  0  0  0  0  0  0  0  0  0  0
    0.7968    0.2275    0.2842 C   0  0  1  0  0  0  0  0  0  0  0  0
    0.9582   -1.2891    0.0416 C   0  0  0  0  0  0  0  0  0  0  0  0
    0.5315   -0.9565   -1.4050 C   0  0  1  0  0  0  0  0  0  0  0  0
   -0.6324   -1.7014   -2.0246 C   0  0  0  0  0  0  0  0  0  0  0  0
    0.1921    0.4001   -1.0236 O   0  0  0  0  0  0  0  0  0  0  0  0
    0.8829    2.7433    1.3800 H   0  0  0  0  0  0  0  0  0  0  0  0
   -0.5809    2.6174    0.3933 H   0  0  0  0  0  0  0  0  0  0  0  0
   -0.7081    2.7268    2.1574 H   0  0  0  0  0  0  0  0  0  0  0  0
    0.4511    0.4958    2.3550 H   0  0  0  0  0  0  0  0  0  0  0  0
   -1.9939    0.3800    0.5060 H   0  0  0  0  0  0  0  0  0  0  0  0
   -1.4725   -0.9048    1.6084 H   0  0  0  0  0  0  0  0  0  0  0  0
   -2.0661    0.6224    2.2602 H   0  0  0  0  0  0  0  0  0  0  0  0
    1.7730    0.7365    0.3124 H   0  0  0  0  0  0  0  0  0  0  0  0
    1.9586   -1.7015    0.1815 H   0  0  0  0  0  0  0  0  0  0  0  0
    0.2342   -1.9104    0.5732 H   0  0  0  0  0  0  0  0  0  0  0  0
    1.3840   -0.9473   -2.1005 H   0  0  0  0  0  0  0  0  0  0  0  0
   -1.4790   -1.7481   -1.3332 H   0  0  0  0  0  0  0  0  0  0  0  0
   -0.9631   -1.2005   -2.9402 H   0  0  0  0  0  0  0  0  0  0  0  0
   -0.3355   -2.7238   -2.2837 H   0  0  0  0  0  0  0  0  0  0  0  0
  1  9  1  0  0  0  0
  1  2  1  0  0  0  0
  1 11  1  0  0  0  0
  2  3  1  0  0  0  0
  2 12  1  0  0  0  0
  3 14  1  0  0  0  0
  3 15  1  0  0  0  0
  4 16  1  1  0  0  0
  4  2  1  0  0  0  0
  5 17  1  0  0  0  0
  5  4  1  0  0  0  0
  5 18  1  0  0  0  0
  6 19  1  6  0  0  0
  6  8  1  0  0  0  0
  6  5  1  0  0  0  0
  7  6  1  0  0  0  0
  7 20  1  0  0  0  0
  8  4  1  0  0  0  0
 10  1  1  0  0  0  0
 13  3  1  0  0  0  0
 21  7  1  0  0  0  0
 22  7  1  0  0  0  0
M  END
