title
 OpenBabel02282109583D

 22 22  0  0  1  0  0  0  0  0999 V2000
    1.1921    2.4049    0.3333 C   0  0  0  0  0  0  0  0  0  0  0  0
    1.1860    0.8820    0.4753 C   0  0  1  0  0  0  0  0  0  0  0  0
    1.8417    0.4689    1.6743 O   0  0  0  0  0  0  0  0  0  0  0  0
   -0.2141    0.2884    0.3856 C   0  0  1  0  0  0  0  0  0  0  0  0
   -0.9620    0.3124   -0.9781 C   0  0  0  0  0  0  0  0  0  0  0  0
   -1.4791   -1.1247   -0.6818 C   0  0  1  0  0  0  0  0  0  0  0  0
   -1.5422   -2.1351   -1.8165 C   0  0  0  0  0  0  0  0  0  0  0  0
   -0.3590   -1.2572    0.3890 C   0  0  0  0  0  0  0  0  0  0  0  0
    2.2125    2.7906    0.4085 H   0  0  0  0  0  0  0  0  0  0  0  0
    0.7713    2.7167   -0.6282 H   0  0  0  0  0  0  0  0  0  0  0  0
    0.5916    2.8699    1.1257 H   0  0  0  0  0  0  0  0  0  0  0  0
    1.7975    0.4467   -0.3264 H   0  0  0  0  0  0  0  0  0  0  0  0
    1.3418    0.8284    2.4157 H   0  0  0  0  0  0  0  0  0  0  0  0
   -0.8425    0.7345    1.1692 H   0  0  0  0  0  0  0  0  0  0  0  0
   -1.7001    1.1002   -1.1489 H   0  0  0  0  0  0  0  0  0  0  0  0
   -0.2545    0.3128   -1.8162 H   0  0  0  0  0  0  0  0  0  0  0  0
   -2.4551   -1.0646   -0.1860 H   0  0  0  0  0  0  0  0  0  0  0  0
   -0.5758   -2.2106   -2.3282 H   0  0  0  0  0  0  0  0  0  0  0  0
   -1.8010   -3.1337   -1.4464 H   0  0  0  0  0  0  0  0  0  0  0  0
   -2.2934   -1.8522   -2.5628 H   0  0  0  0  0  0  0  0  0  0  0  0
    0.5368   -1.7345   -0.0240 H   0  0  0  0  0  0  0  0  0  0  0  0
   -0.6055   -1.7493    1.3325 H   0  0  0  0  0  0  0  0  0  0  0  0
  1  9  1  0  0  0  0
  1  2  1  0  0  0  0
  1 11  1  0  0  0  0
  2 12  1  6  0  0  0
  2  3  1  0  0  0  0
  3 13  1  0  0  0  0
  4  8  1  0  0  0  0
  4  2  1  0  0  0  0
  4 14  1  1  0  0  0
  5  6  1  0  0  0  0
  5  4  1  0  0  0  0
  6 17  1  1  0  0  0
  6  8  1  0  0  0  0
  7 19  1  0  0  0  0
  7  6  1  0  0  0  0
  8 22  1  0  0  0  0
 10  1  1  0  0  0  0
 15  5  1  0  0  0  0
 16  5  1  0  0  0  0
 18  7  1  0  0  0  0
 20  7  1  0  0  0  0
 21  8  1  0  0  0  0
M  END
