title
 OpenBabel02282109583D

 19 19  0  0  1  0  0  0  0  0999 V2000
   -2.2730    1.9807   -0.6922 C   0  0  0  0  0  0  0  0  0  0  0  0
   -1.3261    0.8314   -0.3889 C   0  0  1  0  0  0  0  0  0  0  0  0
    0.0054    0.7297   -1.1847 C   0  0  0  0  0  0  0  0  0  0  0  0
    0.7534    0.3657    0.1332 C   0  0  1  0  0  0  0  0  0  0  0  0
   -0.4962    0.8789    0.9245 C   0  0  0  0  0  0  0  0  0  0  0  0
    0.9582   -1.1296    0.2996 C   0  0  0  0  0  0  0  0  0  0  0  0
    2.1402   -1.4950    0.8779 N   0  0  0  0  0  0  0  0  0  0  0  0
    0.1258   -1.9522   -0.0408 O   0  0  0  0  0  0  0  0  0  0  0  0
   -1.7547    2.9457   -0.6361 H   0  0  0  0  0  0  0  0  0  0  0  0
   -2.6986    1.8899   -1.6980 H   0  0  0  0  0  0  0  0  0  0  0  0
   -3.1069    2.0091    0.0185 H   0  0  0  0  0  0  0  0  0  0  0  0
   -1.8499   -0.1256   -0.4493 H   0  0  0  0  0  0  0  0  0  0  0  0
    0.0494   -0.0121   -1.9838 H   0  0  0  0  0  0  0  0  0  0  0  0
    0.3317    1.7004   -1.5706 H   0  0  0  0  0  0  0  0  0  0  0  0
    1.6817    0.9122    0.3209 H   0  0  0  0  0  0  0  0  0  0  0  0
   -0.3427    1.9032    1.2785 H   0  0  0  0  0  0  0  0  0  0  0  0
   -0.8386    0.2634    1.7596 H   0  0  0  0  0  0  0  0  0  0  0  0
    2.8233   -0.8249    1.1816 H   0  0  0  0  0  0  0  0  0  0  0  0
    2.3055   -2.4731    1.0509 H   0  0  0  0  0  0  0  0  0  0  0  0
  1  9  1  0  0  0  0
  1  2  1  0  0  0  0
  1 11  1  0  0  0  0
  2 12  1  6  0  0  0
  2  5  1  0  0  0  0
  3  2  1  0  0  0  0
  3  4  1  0  0  0  0
  4  6  1  0  0  0  0
  4 15  1  1  0  0  0
  4  5  1  0  0  0  0
  5 16  1  0  0  0  0
  5 17  1  0  0  0  0
  6  7  1  0  0  0  0
  7 19  1  0  0  0  0
  7 18  1  0  0  0  0
  8  6  2  0  0  0  0
 10  1  1  0  0  0  0
 13  3  1  0  0  0  0
 14  3  1  0  0  0  0
M  END
