title
 OpenBabel02282109583D

 18 18  0  0  1  0  0  0  0  0999 V2000
   -1.9025    2.2226    0.7605 C   0  0  0  0  0  0  0  0  0  0  0  0
   -1.1813    0.8915    0.7654 C   0  0  1  0  0  0  0  0  0  0  0  0
   -1.3516   -0.0363   -0.4604 C   0  0  0  0  0  0  0  0  0  0  0  0
    0.1701    0.1247   -0.6180 C   0  0  1  0  0  0  0  0  0  0  0  0
    0.2445    1.0376    0.4982 O   0  0  0  0  0  0  0  0  0  0  0  0
    1.0135   -1.1374   -0.4373 C   0  0  0  0  0  0  0  0  0  0  0  0
    2.2944   -0.9796    0.3508 C   0  0  0  0  0  0  0  0  0  0  0  0
    0.6566   -2.1826   -0.9308 O   0  0  0  0  0  0  0  0  0  0  0  0
   -1.7704    2.7334   -0.1985 H   0  0  0  0  0  0  0  0  0  0  0  0
   -2.9743    2.0751    0.9329 H   0  0  0  0  0  0  0  0  0  0  0  0
   -1.5152    2.8716    1.5522 H   0  0  0  0  0  0  0  0  0  0  0  0
   -1.3313    0.3815    1.7265 H   0  0  0  0  0  0  0  0  0  0  0  0
   -1.6807   -1.0568   -0.2653 H   0  0  0  0  0  0  0  0  0  0  0  0
   -1.9459    0.3899   -1.2701 H   0  0  0  0  0  0  0  0  0  0  0  0
    0.5022    0.6059   -1.5508 H   0  0  0  0  0  0  0  0  0  0  0  0
    2.0653   -0.6153    1.3564 H   0  0  0  0  0  0  0  0  0  0  0  0
    2.8250   -1.9311    0.3941 H   0  0  0  0  0  0  0  0  0  0  0  0
    2.9295   -0.2155   -0.1126 H   0  0  0  0  0  0  0  0  0  0  0  0
  1  2  1  0  0  0  0
  1 10  1  0  0  0  0
  1 11  1  0  0  0  0
  2 12  1  1  0  0  0
  3 13  1  0  0  0  0
  3  2  1  0  0  0  0
  4 15  1  6  0  0  0
  4  3  1  0  0  0  0
  4  6  1  0  0  0  0
  4  5  1  0  0  0  0
  5  2  1  0  0  0  0
  6  7  1  0  0  0  0
  7 17  1  0  0  0  0
  7 16  1  0  0  0  0
  8  6  2  0  0  0  0
  9  1  1  0  0  0  0
 14  3  1  0  0  0  0
 18  7  1  0  0  0  0
M  END
