17
title
C -1.8930459 2.2257588 0.7637296
C -1.1103723 0.930643 0.7698247
C -1.3569463 -0.084558755 -0.36947247
C 0.14540549 0.09573409 -0.67249745
O 0.27228576 1.1192988 0.34176892
C 1.0118343 -1.1385624 -0.42907068
N 1.823279 -1.0328734 0.6520981
O 0.93927366 -2.1075714 -1.1607623
H -1.8840921 2.6805003 -0.2315717
H -2.933054 2.0411923 1.0546081
H -1.4618655 2.9393938 1.4727949
H -1.1322297 0.47596195 1.7691987
H -1.6596035 -1.0902113 -0.0779446
H -2.0199318 0.28051504 -1.1556078
H 0.38557082 0.47933772 -1.6700749
H 1.8390917 -0.16904083 1.1690949
H 2.46763 -1.7762023 0.8622456
