title
 OpenBabel02282109583D

 17 17  0  0  1  0  0  0  0  0999 V2000
   -1.8930    2.2258    0.7637 C   0  0  0  0  0  0  0  0  0  0  0  0
   -1.1104    0.9306    0.7698 C   0  0  1  0  0  0  0  0  0  0  0  0
   -1.3569   -0.0846   -0.3695 C   0  0  0  0  0  0  0  0  0  0  0  0
    0.1454    0.0957   -0.6725 C   0  0  1  0  0  0  0  0  0  0  0  0
    0.2723    1.1193    0.3418 O   0  0  0  0  0  0  0  0  0  0  0  0
    1.0118   -1.1386   -0.4291 C   0  0  0  0  0  0  0  0  0  0  0  0
    1.8233   -1.0329    0.6521 N   0  0  0  0  0  0  0  0  0  0  0  0
    0.9393   -2.1076   -1.1608 O   0  0  0  0  0  0  0  0  0  0  0  0
   -1.8841    2.6805   -0.2316 H   0  0  0  0  0  0  0  0  0  0  0  0
   -2.9331    2.0412    1.0546 H   0  0  0  0  0  0  0  0  0  0  0  0
   -1.4619    2.9394    1.4728 H   0  0  0  0  0  0  0  0  0  0  0  0
   -1.1322    0.4760    1.7692 H   0  0  0  0  0  0  0  0  0  0  0  0
   -1.6596   -1.0902   -0.0779 H   0  0  0  0  0  0  0  0  0  0  0  0
   -2.0199    0.2805   -1.1556 H   0  0  0  0  0  0  0  0  0  0  0  0
    0.3856    0.4793   -1.6701 H   0  0  0  0  0  0  0  0  0  0  0  0
    1.8391   -0.1690    1.1691 H   0  0  0  0  0  0  0  0  0  0  0  0
    2.4676   -1.7762    0.8622 H   0  0  0  0  0  0  0  0  0  0  0  0
  1  2  1  0  0  0  0
  1 10  1  0  0  0  0
  1 11  1  0  0  0  0
  2 12  1  1  0  0  0
  3 13  1  0  0  0  0
  3  2  1  0  0  0  0
  4 15  1  6  0  0  0
  4  6  1  0  0  0  0
  4  3  1  0  0  0  0
  4  5  1  0  0  0  0
  5  2  1  0  0  0  0
  6  7  1  0  0  0  0
  7 17  1  0  0  0  0
  7 16  1  0  0  0  0
  8  6  2  0  0  0  0
  9  1  1  0  0  0  0
 14  3  1  0  0  0  0
M  END
