19
title
C -0.88212514 2.8915532 -0.13307899
C -1.244594 1.4221178 -0.2809296
C -0.3110682 0.55714875 -1.1861564
N -0.045602713 -0.29371226 -0.029973755
C -0.8583043 0.4833517 0.9055068
C 0.8213143 -1.3334901 0.08153375
C 0.9158903 -1.9448123 1.4715091
O 1.462819 -1.7331514 -0.8758807
H 0.17137393 3.0113912 0.14352016
H -1.0441629 3.4328442 -1.0712347
H -1.489434 3.374368 0.64007264
H -2.2963579 1.3155411 -0.55651367
H -0.79008365 0.036122438 -2.021283
H 0.5795334 1.0743568 -1.5622332
H -0.28316048 0.9728284 1.702747
H -1.6842097 -0.07435573 1.3627288
H -0.06636253 -2.267326 1.8322165
H 1.586461 -2.8024547 1.4277897
H 1.307381 -1.2186956 2.1924682
