title
 OpenBabel02282109583D

 19 19  0  0  0  0  0  0  0  0999 V2000
   -0.8821    2.8916   -0.1331 C   0  0  0  0  0  0  0  0  0  0  0  0
   -1.2446    1.4221   -0.2809 C   0  0  0  0  0  0  0  0  0  0  0  0
   -0.3111    0.5571   -1.1862 C   0  0  0  0  0  0  0  0  0  0  0  0
   -0.0456   -0.2937   -0.0300 N   0  0  0  0  0  0  0  0  0  0  0  0
   -0.8583    0.4834    0.9055 C   0  0  0  0  0  0  0  0  0  0  0  0
    0.8213   -1.3335    0.0815 C   0  0  0  0  0  0  0  0  0  0  0  0
    0.9159   -1.9448    1.4715 C   0  0  0  0  0  0  0  0  0  0  0  0
    1.4628   -1.7332   -0.8759 O   0  0  0  0  0  0  0  0  0  0  0  0
    0.1714    3.0114    0.1435 H   0  0  0  0  0  0  0  0  0  0  0  0
   -1.0442    3.4328   -1.0712 H   0  0  0  0  0  0  0  0  0  0  0  0
   -1.4894    3.3744    0.6401 H   0  0  0  0  0  0  0  0  0  0  0  0
   -2.2964    1.3155   -0.5565 H   0  0  0  0  0  0  0  0  0  0  0  0
   -0.7901    0.0361   -2.0213 H   0  0  0  0  0  0  0  0  0  0  0  0
    0.5795    1.0744   -1.5622 H   0  0  0  0  0  0  0  0  0  0  0  0
   -0.2832    0.9728    1.7027 H   0  0  0  0  0  0  0  0  0  0  0  0
   -1.6842   -0.0744    1.3627 H   0  0  0  0  0  0  0  0  0  0  0  0
   -0.0664   -2.2673    1.8322 H   0  0  0  0  0  0  0  0  0  0  0  0
    1.5865   -2.8025    1.4278 H   0  0  0  0  0  0  0  0  0  0  0  0
    1.3074   -1.2187    2.1925 H   0  0  0  0  0  0  0  0  0  0  0  0
  1  9  1  0  0  0  0
  1 11  1  0  0  0  0
  2  1  1  0  0  0  0
  2  5  1  0  0  0  0
  3  2  1  0  0  0  0
  3  4  1  0  0  0  0
  4  6  1  0  0  0  0
  4  5  1  0  0  0  0
  5 16  1  0  0  0  0
  5 15  1  0  0  0  0
  6  7  1  0  0  0  0
  7 17  1  0  0  0  0
  7 19  1  0  0  0  0
  8  6  2  0  0  0  0
 10  1  1  0  0  0  0
 12  2  1  0  0  0  0
 13  3  1  0  0  0  0
 14  3  1  0  0  0  0
 18  7  1  0  0  0  0
M  END
