title
 OpenBabel02282109583D

 17 17  0  0  0  0  0  0  0  0999 V2000
   -0.7714    2.2398   -0.0768 C   0  0  0  0  0  0  0  0  0  0  0  0
   -1.4579    0.9245   -0.2320 N   0  0  0  0  0  0  0  0  0  0  0  0
   -2.4496    1.0741   -0.4023 H   0  0  0  0  0  0  0  0  0  0  0  0
   -1.2014   -0.1083    0.8774 C   0  0  0  0  0  0  0  0  0  0  0  0
   -0.3652   -0.9747   -0.0897 C   0  0  0  0  0  0  0  0  0  0  0  0
   -0.8295   -0.0528   -1.2385 C   0  0  0  0  0  0  0  0  0  0  0  0
    1.1861   -0.8078    0.1873 C   0  0  0  0  0  0  0  0  0  0  0  0
    1.8370   -1.8450    0.2744 O   0  0  0  0  0  0  0  0  0  0  0  0
    1.5197    0.4053    0.2776 O   0  0  0  0  0  0  0  0  0  0  0  0
    0.2827    1.9950    0.1020 H   0  0  0  0  0  0  0  0  0  0  0  0
   -0.9118    2.8130   -0.9959 H   0  0  0  0  0  0  0  0  0  0  0  0
   -1.2217    2.7668    0.7674 H   0  0  0  0  0  0  0  0  0  0  0  0
   -0.6454    0.3490    1.6945 H   0  0  0  0  0  0  0  0  0  0  0  0
   -2.1561   -0.5148    1.2168 H   0  0  0  0  0  0  0  0  0  0  0  0
   -0.6663   -2.0171   -0.1700 H   0  0  0  0  0  0  0  0  0  0  0  0
   -1.6078   -0.4329   -1.9032 H   0  0  0  0  0  0  0  0  0  0  0  0
   -0.0325    0.4404   -1.7929 H   0  0  0  0  0  0  0  0  0  0  0  0
  1 10  1  0  0  0  0
  1 12  1  0  0  0  0
  2  1  1  0  0  0  0
  2  4  1  0  0  0  0
  3  2  1  0  0  0  0
  4 14  1  0  0  0  0
  4 13  1  0  0  0  0
  5  7  1  0  0  0  0
  5  4  1  0  0  0  0
  6  2  1  0  0  0  0
  6  5  1  0  0  0  0
  7  8  2  0  0  0  0
  7  9  1  0  0  0  0
 11  1  1  0  0  0  0
 15  5  1  0  0  0  0
 16  6  1  0  0  0  0
 17  6  1  0  0  0  0
M  RAD  1   9   2
M  END
