16
title
N 1.1784515 2.101098 0.53577363
C 1.2771043 0.71660775 0.5273158
O 2.3387585 0.121973366 0.4996767
N 0.063300766 0.06682977 0.5288038
C -1.2164507 0.5063577 -0.054618597
C -1.5652087 -0.9788726 -0.30848593
O -1.9419856 -1.2073914 -1.6417282
C -0.10091802 -1.3277371 0.10230678
H 2.0483537 2.5543814 0.77023494
H 0.363318 2.5144835 0.9624224
H -1.8726785 1.0564995 0.6282622
H -1.1065977 1.0639168 -0.9918088
H -2.3087265 -1.3700986 0.3967695
H -2.1112826 -2.148217 -1.7551088
H 0.5307164 -1.5918059 -0.7528573
H 0.034419928 -2.0641913 0.89982015
