title
 OpenBabel02282109583D

 20 21  0  0  1  0  0  0  0  0999 V2000
   -0.5507    2.2291    0.1037 C   0  0  0  0  0  0  0  0  0  0  0  0
   -0.4570    0.6983    0.0213 C   0  0  0  0  0  0  0  0  0  0  0  0
   -1.9009    0.1857   -0.1656 C   0  0  0  0  0  0  0  0  0  0  0  0
    0.7334    0.0981   -0.8379 C   0  0  1  0  0  0  0  0  0  0  0  0
    1.6984    0.5440    0.3037 C   0  0  0  0  0  0  0  0  0  0  0  0
    0.4724   -0.0786    1.0285 C   0  0  2  0  0  0  0  0  0  0  0  0
    0.6338   -1.2307   -0.0375 C   0  0  1  0  0  0  0  0  0  0  0  0
   -0.3249   -2.2204   -0.3055 O   0  0  0  0  0  0  0  0  0  0  0  0
    0.4048    2.7534    0.0867 H   0  0  0  0  0  0  0  0  0  0  0  0
   -1.1398    2.6044   -0.7414 H   0  0  0  0  0  0  0  0  0  0  0  0
   -1.0785    2.5276    1.0168 H   0  0  0  0  0  0  0  0  0  0  0  0
   -2.1926    0.1883   -1.2243 H   0  0  0  0  0  0  0  0  0  0  0  0
   -2.0685   -0.8094    0.2451 H   0  0  0  0  0  0  0  0  0  0  0  0
   -2.5995    0.8566    0.3451 H   0  0  0  0  0  0  0  0  0  0  0  0
    0.8920    0.2085   -1.9143 H   0  0  0  0  0  0  0  0  0  0  0  0
    2.6364   -0.0115    0.3764 H   0  0  0  0  0  0  0  0  0  0  0  0
    1.8739    1.6073    0.4345 H   0  0  0  0  0  0  0  0  0  0  0  0
    0.3300   -0.1871    2.1057 H   0  0  0  0  0  0  0  0  0  0  0  0
    1.5827   -1.7645    0.0694 H   0  0  0  0  0  0  0  0  0  0  0  0
   -0.9848   -1.8747   -0.9094 H   0  0  0  0  0  0  0  0  0  0  0  0
  1 11  1  0  0  0  0
  2  1  1  0  0  0  0
  2  6  1  0  0  0  0
  3  2  1  0  0  0  0
  3 13  1  0  0  0  0
  3 14  1  0  0  0  0
  4  7  1  1  0  0  0
  4  2  1  0  0  0  0
  4  5  1  0  0  0  0
  5 16  1  0  0  0  0
  5 17  1  0  0  0  0
  5  6  1  0  0  0  0
  6  7  1  6  0  0  0
  6 18  1  0  0  0  0
  7 19  1  1  0  0  0
  8  7  1  0  0  0  0
  9  1  1  0  0  0  0
 10  1  1  0  0  0  0
 12  3  1  0  0  0  0
 15  4  1  0  0  0  0
 20  8  1  0  0  0  0
M  END
