18
title
C -0.6014047 2.1961927 -0.07564489
C -0.5361869 0.6693809 -0.12668285
C -1.9017241 0.10478818 -0.515877
C 0.7853967 0.0834186 -0.73660666
O 1.5320326 0.6383627 0.41391522
C 0.32768318 0.010015064 1.0088551
C 0.67825234 -1.2177002 0.133793
O -0.2548709 -2.2428896 -0.0612956
H 0.35800537 2.6306617 0.20361003
H -0.8983388 2.5960817 -1.0519519
H -1.3590294 2.519458 0.6474488
H -2.2080824 0.52327 -1.4818661
H -1.9199984 -0.9793576 -0.58515275
H -2.653398 0.41907746 0.21758214
H 1.2198473 0.23167133 -1.7276676
H 0.21645863 0.0739628 2.0929747
H 1.6727341 -1.6050725 0.37652695
H 0.17122354 -2.9401333 -0.5686562
