18
title
C -0.5350888 2.2180796 -0.11177327
C -0.3706968 0.7031311 -0.096599855
O -1.646912 0.13472182 -0.4238827
C 0.89926517 0.024476169 -0.72515166
C 1.6760026 0.5062228 0.5333712
C 0.32510248 -0.027611973 1.0920633
C 0.57107884 -1.2547047 0.13361773
O -0.41577616 -2.166519 -0.20628634
H -0.8228368 2.5542095 -1.116661
H -1.3356999 2.5072694 0.57575333
H 0.36845854 2.7624726 0.1620966
H -1.9535283 0.5401736 -1.2421124
H 1.2300439 0.0699389 -1.7648677
H 2.5576928 -0.08125156 0.7966359
H 1.8787702 1.5703443 0.6296703
H -0.004670851 -0.04156089 2.1321614
H 1.4576977 -1.8378652 0.39703923
H -1.208502 -1.6471637 -0.40437445
