title
 OpenBabel02282109583D

 18 19  0  0  1  0  0  0  0  0999 V2000
   -0.5351    2.2181   -0.1118 C   0  0  0  0  0  0  0  0  0  0  0  0
   -0.3707    0.7031   -0.0966 C   0  0  1  0  0  0  0  0  0  0  0  0
   -1.6469    0.1347   -0.4239 O   0  0  0  0  0  0  0  0  0  0  0  0
    0.8993    0.0245   -0.7252 C   0  0  1  0  0  0  0  0  0  0  0  0
    1.6760    0.5062    0.5334 C   0  0  0  0  0  0  0  0  0  0  0  0
    0.3251   -0.0276    1.0921 C   0  0  2  0  0  0  0  0  0  0  0  0
    0.5711   -1.2547    0.1336 C   0  0  1  0  0  0  0  0  0  0  0  0
   -0.4158   -2.1665   -0.2063 O   0  0  0  0  0  0  0  0  0  0  0  0
   -0.8228    2.5542   -1.1167 H   0  0  0  0  0  0  0  0  0  0  0  0
   -1.3357    2.5073    0.5758 H   0  0  0  0  0  0  0  0  0  0  0  0
    0.3685    2.7625    0.1621 H   0  0  0  0  0  0  0  0  0  0  0  0
   -1.9535    0.5402   -1.2421 H   0  0  0  0  0  0  0  0  0  0  0  0
    1.2300    0.0699   -1.7649 H   0  0  0  0  0  0  0  0  0  0  0  0
    2.5577   -0.0813    0.7966 H   0  0  0  0  0  0  0  0  0  0  0  0
    1.8788    1.5703    0.6297 H   0  0  0  0  0  0  0  0  0  0  0  0
   -0.0047   -0.0416    2.1322 H   0  0  0  0  0  0  0  0  0  0  0  0
    1.4577   -1.8379    0.3970 H   0  0  0  0  0  0  0  0  0  0  0  0
   -1.2085   -1.6472   -0.4044 H   0  0  0  0  0  0  0  0  0  0  0  0
  1  2  1  0  0  0  0
  1 11  1  0  0  0  0
  1 10  1  0  0  0  0
  2  3  1  6  0  0  0
  4  2  1  1  0  0  0
  4  5  1  0  0  0  0
  5 15  1  0  0  0  0
  5 14  1  0  0  0  0
  5  6  1  0  0  0  0
  6  2  1  6  0  0  0
  6 16  1  0  0  0  0
  7  4  1  6  0  0  0
  7 17  1  0  0  0  0
  7  6  1  0  0  0  0
  8  7  1  0  0  0  0
  9  1  1  0  0  0  0
 12  3  1  0  0  0  0
 13  4  1  0  0  0  0
 18  8  1  0  0  0  0
M  END
