17
title
C -0.47503594 2.223433 -0.12886854
C -0.39222312 0.70895183 -0.11044262
O -1.6642107 0.14457001 -0.4129588
C 0.87591887 0.0054685674 -0.71300066
N 1.6149132 0.56389153 0.4868948
C 0.334768 -0.011902968 1.0617607
C 0.54293984 -1.2716992 0.141115
O -0.44360098 -2.1920555 -0.17239039
H 0.48326594 2.6656618 0.14019181
H -0.7512776 2.5778239 -1.1308523
H -1.2447406 2.5653667 0.5702714
H -2.0140927 0.5943821 -1.1890908
H 1.2815188 0.08381315 -1.7242044
H 2.3901453 -0.06396458 0.71846193
H 0.10438093 0.04511102 2.127354
H 1.4406896 -1.8389342 0.41040915
H -1.2368864 -1.6787856 -0.38331106
