title
 OpenBabel02282109583D

 22 23  0  0  1  0  0  0  0  0999 V2000
   -1.1452    2.4063    0.4655 C   0  0  0  0  0  0  0  0  0  0  0  0
   -0.8635    0.9617    0.0698 C   0  0  1  0  0  0  0  0  0  0  0  0
    0.4223    0.5475   -0.7246 C   0  0  1  0  0  0  0  0  0  0  0  0
    1.2121    0.7665    0.6003 C   0  0  0  0  0  0  0  0  0  0  0  0
   -0.0717   -0.0210    0.9989 C   0  0  2  0  0  0  0  0  0  0  0  0
    0.1665   -0.9419   -0.2630 C   0  0  0  0  0  0  0  0  0  0  0  0
   -1.0149   -1.7222   -0.8592 C   0  0  0  0  0  0  0  0  0  0  0  0
    1.3521   -1.9181   -0.2451 C   0  0  0  0  0  0  0  0  0  0  0  0
   -0.2901    2.9390    0.8867 H   0  0  0  0  0  0  0  0  0  0  0  0
   -1.4874    2.9741   -0.4074 H   0  0  0  0  0  0  0  0  0  0  0  0
   -1.9511    2.4412    1.2078 H   0  0  0  0  0  0  0  0  0  0  0  0
   -1.7886    0.5496   -0.3313 H   0  0  0  0  0  0  0  0  0  0  0  0
    0.7111    0.8802   -1.7253 H   0  0  0  0  0  0  0  0  0  0  0  0
    2.1742    0.2726    0.7131 H   0  0  0  0  0  0  0  0  0  0  0  0
    1.2872    1.7914    0.9600 H   0  0  0  0  0  0  0  0  0  0  0  0
   -0.3573   -0.3494    2.0019 H   0  0  0  0  0  0  0  0  0  0  0  0
   -1.9484   -1.1668   -0.9442 H   0  0  0  0  0  0  0  0  0  0  0  0
   -0.7565   -2.0787   -1.8630 H   0  0  0  0  0  0  0  0  0  0  0  0
   -1.2196   -2.6102   -0.2499 H   0  0  0  0  0  0  0  0  0  0  0  0
    1.0984   -2.8028    0.3503 H   0  0  0  0  0  0  0  0  0  0  0  0
    1.5622   -2.2691   -1.2621 H   0  0  0  0  0  0  0  0  0  0  0  0
    2.2797   -1.5119    0.1562 H   0  0  0  0  0  0  0  0  0  0  0  0
  1  9  1  0  0  0  0
  1 11  1  0  0  0  0
  2 12  1  6  0  0  0
  2  1  1  0  0  0  0
  3  6  1  0  0  0  0
  3  2  1  1  0  0  0
  3  4  1  0  0  0  0
  4 14  1  0  0  0  0
  4 15  1  0  0  0  0
  4  5  1  0  0  0  0
  5  2  1  6  0  0  0
  5 16  1  0  0  0  0
  6  8  1  0  0  0  0
  6  5  1  0  0  0  0
  7  6  1  0  0  0  0
  7 19  1  0  0  0  0
  8 22  1  0  0  0  0
  8 20  1  0  0  0  0
 10  1  1  0  0  0  0
 13  3  1  0  0  0  0
 17  7  1  0  0  0  0
 18  7  1  0  0  0  0
 21  8  1  0  0  0  0
M  END
