title
 OpenBabel02282109583D

 20 21  0  0  1  0  0  0  0  0999 V2000
   -0.9936    2.5298    0.0185 C   0  0  0  0  0  0  0  0  0  0  0  0
   -0.8359    1.0162   -0.0482 C   0  0  1  0  0  0  0  0  0  0  0  0
    0.2788    0.3413   -0.9148 C   0  0  1  0  0  0  0  0  0  0  0  0
    1.3069    0.7905    0.1689 C   0  0  0  0  0  0  0  0  0  0  0  0
    0.0766    0.2408    0.9604 C   0  0  2  0  0  0  0  0  0  0  0  0
    0.0691   -0.9539   -0.0419 C   0  0  1  0  0  0  0  0  0  0  0  0
   -1.1553   -1.8447   -0.2294 C   0  0  0  0  0  0  0  0  0  0  0  0
    1.1987   -1.7980    0.1274 O   0  0  0  0  0  0  0  0  0  0  0  0
   -0.0563    3.0737    0.1508 H   0  0  0  0  0  0  0  0  0  0  0  0
   -1.4622    2.9002   -0.9004 H   0  0  0  0  0  0  0  0  0  0  0  0
   -1.6531    2.8032    0.8500 H   0  0  0  0  0  0  0  0  0  0  0  0
   -1.8299    0.5836   -0.1769 H   0  0  0  0  0  0  0  0  0  0  0  0
    0.3914    0.3937   -2.0008 H   0  0  0  0  0  0  0  0  0  0  0  0
    2.2238    0.2119    0.2381 H   0  0  0  0  0  0  0  0  0  0  0  0
    1.5033    1.8583    0.2470 H   0  0  0  0  0  0  0  0  0  0  0  0
   -0.0404    0.1763    2.0444 H   0  0  0  0  0  0  0  0  0  0  0  0
   -2.0973   -1.3072   -0.3386 H   0  0  0  0  0  0  0  0  0  0  0  0
   -1.0299   -2.4601   -1.1301 H   0  0  0  0  0  0  0  0  0  0  0  0
   -1.2430   -2.5251    0.6232 H   0  0  0  0  0  0  0  0  0  0  0  0
    1.2038   -2.4307   -0.5978 H   0  0  0  0  0  0  0  0  0  0  0  0
  1  9  1  0  0  0  0
  1 11  1  0  0  0  0
  2 12  1  6  0  0  0
  2  1  1  0  0  0  0
  3  2  1  1  0  0  0
  3  4  1  0  0  0  0
  4 14  1  0  0  0  0
  4 15  1  0  0  0  0
  4  5  1  0  0  0  0
  5  2  1  6  0  0  0
  5 16  1  0  0  0  0
  6  3  1  6  0  0  0
  6  8  1  0  0  0  0
  6  5  1  0  0  0  0
  7  6  1  0  0  0  0
  7 19  1  0  0  0  0
 10  1  1  0  0  0  0
 13  3  1  0  0  0  0
 17  7  1  0  0  0  0
 18  7  1  0  0  0  0
 20  8  1  0  0  0  0
M  END
