20
title
C -0.99695206 2.4565587 0.35542646
C -0.91631055 0.9678361 0.06836906
C 0.26108384 0.43412033 -0.79709405
O 1.1804018 0.77231574 0.31627133
C 0.023245618 0.0862385 0.94024444
C 0.101408884 -1.0027076 -0.18689525
C -1.1114193 -1.8685544 -0.5263301
C 1.3657101 -1.8612242 -0.1857733
H -0.007821634 2.8628654 0.57226866
H -1.4166356 2.9937384 -0.50235116
H -1.6515216 2.650369 1.2124292
H -1.9008887 0.5523699 -0.1496129
H 0.5708804 0.7275346 -1.8028468
H 0.046790585 -0.039009094 2.0253074
H -2.0620856 -1.3346364 -0.5496016
H -0.9716137 -2.3372378 -1.5070009
H -1.2059358 -2.6798778 0.20424691
H 1.2764581 -2.6718972 0.54653865
H 1.5113274 -2.3282077 -1.166676
H 2.2471144 -1.2678587 0.054064546
