18
title
C -0.88963616 2.51805 0.35298002
C -0.88506544 1.0255942 0.072010905
C 0.24650155 0.44011825 -0.8101567
O 1.208557 0.70946705 0.29976785
C 0.0051298565 0.1083576 0.948186
C 0.037599187 -0.9841021 -0.18054394
C -1.1479429 -1.8678808 -0.50996274
O 1.1704497 -1.7993534 -0.17886652
H 0.120379135 2.8762083 0.559207
H -1.2888311 3.071752 -0.50361294
H -1.524798 2.7474194 1.2153335
H -1.8893338 0.6513146 -0.13647851
H 0.56571484 0.7199595 -1.8159686
H 0.037300687 -0.006338365 2.0333936
H -2.0966773 -1.3321507 -0.53889936
H -0.9851745 -2.3412318 -1.482698
H -1.2207052 -2.6654787 0.23523462
H 1.9013762 -1.1998279 0.034626517
