title
 OpenBabel02282109583D

 18 19  0  0  1  0  0  0  0  0999 V2000
   -0.8896    2.5181    0.3530 C   0  0  0  0  0  0  0  0  0  0  0  0
   -0.8851    1.0256    0.0720 C   0  0  1  0  0  0  0  0  0  0  0  0
    0.2465    0.4401   -0.8102 C   0  0  1  0  0  0  0  0  0  0  0  0
    1.2086    0.7095    0.2998 O   0  0  0  0  0  0  0  0  0  0  0  0
    0.0051    0.1084    0.9482 C   0  0  2  0  0  0  0  0  0  0  0  0
    0.0376   -0.9841   -0.1805 C   0  0  1  0  0  0  0  0  0  0  0  0
   -1.1479   -1.8679   -0.5100 C   0  0  0  0  0  0  0  0  0  0  0  0
    1.1704   -1.7994   -0.1789 O   0  0  0  0  0  0  0  0  0  0  0  0
    0.1204    2.8762    0.5592 H   0  0  0  0  0  0  0  0  0  0  0  0
   -1.2888    3.0718   -0.5036 H   0  0  0  0  0  0  0  0  0  0  0  0
   -1.5248    2.7474    1.2153 H   0  0  0  0  0  0  0  0  0  0  0  0
   -1.8893    0.6513   -0.1365 H   0  0  0  0  0  0  0  0  0  0  0  0
    0.5657    0.7200   -1.8160 H   0  0  0  0  0  0  0  0  0  0  0  0
    0.0373   -0.0063    2.0334 H   0  0  0  0  0  0  0  0  0  0  0  0
   -2.0967   -1.3322   -0.5389 H   0  0  0  0  0  0  0  0  0  0  0  0
   -0.9852   -2.3412   -1.4827 H   0  0  0  0  0  0  0  0  0  0  0  0
   -1.2207   -2.6655    0.2352 H   0  0  0  0  0  0  0  0  0  0  0  0
    1.9014   -1.1998    0.0346 H   0  0  0  0  0  0  0  0  0  0  0  0
  1  9  1  0  0  0  0
  1 11  1  0  0  0  0
  2  3  1  6  0  0  0
  2  1  1  0  0  0  0
  2  5  1  0  0  0  0
  3  6  1  6  0  0  0
  3  4  1  0  0  0  0
  4  5  1  0  0  0  0
  5  6  1  6  0  0  0
  5 14  1  0  0  0  0
  6  8  1  1  0  0  0
  7  6  1  0  0  0  0
  7 17  1  0  0  0  0
  8 18  1  0  0  0  0
 10  1  1  0  0  0  0
 12  2  1  0  0  0  0
 13  3  1  0  0  0  0
 15  7  1  0  0  0  0
 16  7  1  0  0  0  0
M  END
