title
 OpenBabel02282109583D

 22 23  0  0  1  0  0  0  0  0999 V2000
   -0.6951    1.9600   -0.4175 C   0  0  0  0  0  0  0  0  0  0  0  0
   -0.7822    0.4383   -0.3559 C   0  0  0  0  0  0  0  0  0  0  0  0
   -2.2340   -0.0186   -0.5318 C   0  0  0  0  0  0  0  0  0  0  0  0
    0.1749   -0.3633   -1.3036 C   0  0  0  0  0  0  0  0  0  0  0  0
    0.6243   -1.2589   -0.1154 C   0  0  1  0  0  0  0  0  0  0  0  0
    1.9697   -0.8530    0.5318 C   0  0  0  0  0  0  0  0  0  0  0  0
    1.2273    0.2083    1.3996 C   0  0  0  0  0  0  0  0  0  0  0  0
   -0.1445   -0.3004    0.8644 C   0  0  1  0  0  0  0  0  0  0  0  0
    0.3354    2.3187   -0.3400 H   0  0  0  0  0  0  0  0  0  0  0  0
   -1.0980    2.3303   -1.3678 H   0  0  0  0  0  0  0  0  0  0  0  0
   -1.2743    2.4251    0.3893 H   0  0  0  0  0  0  0  0  0  0  0  0
   -2.6298    0.2980   -1.5039 H   0  0  0  0  0  0  0  0  0  0  0  0
   -2.3189   -1.1094   -0.4759 H   0  0  0  0  0  0  0  0  0  0  0  0
   -2.8765    0.4056    0.2488 H   0  0  0  0  0  0  0  0  0  0  0  0
   -0.3268   -0.8807   -2.1262 H   0  0  0  0  0  0  0  0  0  0  0  0
    0.9885    0.2351   -1.7269 H   0  0  0  0  0  0  0  0  0  0  0  0
    0.4058   -2.3238   -0.2055 H   0  0  0  0  0  0  0  0  0  0  0  0
    2.4095   -1.6515    1.1356 H   0  0  0  0  0  0  0  0  0  0  0  0
    2.7387   -0.4827   -0.1535 H   0  0  0  0  0  0  0  0  0  0  0  0
    1.3568    0.0722    2.4759 H   0  0  0  0  0  0  0  0  0  0  0  0
    1.4623    1.2504    1.1697 H   0  0  0  0  0  0  0  0  0  0  0  0
   -0.8433   -0.6537    1.6263 H   0  0  0  0  0  0  0  0  0  0  0  0
  1  2  1  0  0  0  0
  1  9  1  0  0  0  0
  1 11  1  0  0  0  0
  2  8  1  0  0  0  0
  3 13  1  0  0  0  0
  3  2  1  0  0  0  0
  3 14  1  0  0  0  0
  4  2  1  0  0  0  0
  4  5  1  0  0  0  0
  5  6  1  0  0  0  0
  5  8  1  1  0  0  0
  6 18  1  0  0  0  0
  6  7  1  0  0  0  0
  7 20  1  0  0  0  0
  8  7  1  0  0  0  0
  8 22  1  1  0  0  0
 10  1  1  0  0  0  0
 12  3  1  0  0  0  0
 15  4  1  0  0  0  0
 16  4  1  0  0  0  0
 17  5  1  0  0  0  0
 19  6  1  0  0  0  0
 21  7  1  0  0  0  0
M  END
