20
title
C -0.61745685 1.9209764 -0.32196325
C -0.7812088 0.40773332 -0.37599197
C -2.2406583 -0.0018910181 -0.58072543
C 0.17826733 -0.36568323 -1.3527352
C 0.6776455 -1.2558833 -0.18243605
C 1.8891337 -0.6844304 0.5674655
O 1.0481496 0.19491446 1.3517936
C -0.15309086 -0.3905224 0.8065122
H 0.4110035 2.1912634 -0.07058019
H -0.87184685 2.373211 -1.2875339
H -1.2736145 2.3636339 0.43646106
H -2.6184182 0.3688859 -1.5401318
H -2.3575284 -1.091966 -0.57816005
H -2.877476 0.40392587 0.21353675
H -0.34294435 -0.9061665 -2.1469443
H 0.9607423 0.24666049 -1.8111049
H 0.5963903 -2.336767 -0.28444365
H 2.4121015 -1.4046609 1.2104604
H 2.6275592 -0.1348953 -0.030336685
H -0.8221228 -0.76157874 1.5901481
