18
title
C -0.57131886 1.8643861 -0.36856505
C -0.784416 0.36451373 -0.3081572
C -2.2264705 -0.052074015 -0.5643427
O 0.10326211 -0.3479211 -1.246678
C 0.645 -1.1682214 -0.20346744
C 1.891489 -0.5653673 0.46148106
O 1.0674704 0.19059248 1.3900032
C -0.13754858 -0.40199122 0.877248
H 0.44808742 2.1197252 -0.074340284
H -0.7496635 2.2231479 -1.3871447
H -1.2648643 2.3811688 0.30296424
H -2.5286164 0.24311846 -1.5737352
H -2.3422587 -1.137398 -0.48127735
H -2.902299 0.4241733 0.15402523
H 0.6133058 -2.2361815 -0.42613864
H 2.5269945 -1.2822906 0.9966875
H 2.5016253 0.07379705 -0.18493773
H -0.7848068 -0.8036104 1.6597521
