18
title
C -1.2155641 1.547223 -0.47968215
C -0.81768197 0.07934584 -0.43976244
O -1.9449743 -0.75684065 -0.66608083
C 0.42892334 -0.34040183 -1.3013307
C 1.1328511 -0.82906264 -0.021846175
O 1.9055653 0.21245146 0.62101954
C 0.84493524 0.47233588 1.5711235
C -0.11164311 -0.4747119 0.8384021
H -0.35908684 2.2052429 -0.30964762
H -1.6239927 1.7971011 -1.4670901
H -1.9839545 1.7615539 0.26977655
H -2.3093567 -0.5329689 -1.5299687
H 0.1749318 -1.1485301 -1.9927536
H 0.95942813 0.45411184 -1.8315878
H 1.6529815 -1.7901094 -0.028707951
H 1.1191498 0.123285934 2.575537
H 0.5818737 1.5347419 1.6284293
H -0.70623803 -1.182265 1.41245
