19
title
C -0.49753854 1.8858558 -0.48638892
C -0.7538117 0.3902829 -0.36260164
O -2.1463332 0.117570944 -0.3900542
C 0.102413975 -0.54957736 -1.273041
N 0.6870326 -1.2512666 -0.091834694
C 1.9349475 -0.6003376 0.42732552
C 1.1365463 0.15088627 1.5264184
C -0.13696441 -0.38115048 0.8390927
H 0.56795335 2.127417 -0.44130185
H -0.871378 2.2515392 -1.4514173
H -1.0158314 2.431898 0.3080229
H -2.5113354 0.502795 -1.1944274
H -0.514136 -1.2225343 -1.8774679
H 0.8426081 -0.06290998 -1.9197875
H 2.6682036 -1.3279697 0.7876211
H 2.430308 0.045903627 -0.308278
H 1.2781539 -0.26463997 2.5262496
H 1.2601573 1.2344561 1.5850304
H -0.89148855 -0.87061334 1.4597317
