title
 OpenBabel02282109583D

 19 20  0  0  1  0  0  0  0  0999 V2000
   -0.4975    1.8859   -0.4864 C   0  0  0  0  0  0  0  0  0  0  0  0
   -0.7538    0.3903   -0.3626 C   0  0  1  0  0  0  0  0  0  0  0  0
   -2.1463    0.1176   -0.3901 O   0  0  0  0  0  0  0  0  0  0  0  0
    0.1024   -0.5496   -1.2730 C   0  0  0  0  0  0  0  0  0  0  0  0
    0.6870   -1.2513   -0.0918 N   0  0  1  0  0  0  0  0  0  0  0  0
    1.9349   -0.6003    0.4273 C   0  0  0  0  0  0  0  0  0  0  0  0
    1.1365    0.1509    1.5264 C   0  0  0  0  0  0  0  0  0  0  0  0
   -0.1370   -0.3812    0.8391 C   0  0  1  0  0  0  0  0  0  0  0  0
    0.5680    2.1274   -0.4413 H   0  0  0  0  0  0  0  0  0  0  0  0
   -0.8714    2.2515   -1.4514 H   0  0  0  0  0  0  0  0  0  0  0  0
   -1.0158    2.4319    0.3080 H   0  0  0  0  0  0  0  0  0  0  0  0
   -2.5113    0.5028   -1.1944 H   0  0  0  0  0  0  0  0  0  0  0  0
   -0.5141   -1.2225   -1.8775 H   0  0  0  0  0  0  0  0  0  0  0  0
    0.8426   -0.0629   -1.9198 H   0  0  0  0  0  0  0  0  0  0  0  0
    2.6682   -1.3280    0.7876 H   0  0  0  0  0  0  0  0  0  0  0  0
    2.4303    0.0459   -0.3083 H   0  0  0  0  0  0  0  0  0  0  0  0
    1.2782   -0.2646    2.5262 H   0  0  0  0  0  0  0  0  0  0  0  0
    1.2602    1.2345    1.5850 H   0  0  0  0  0  0  0  0  0  0  0  0
   -0.8915   -0.8706    1.4597 H   0  0  0  0  0  0  0  0  0  0  0  0
  1  9  1  0  0  0  0
  1  2  1  0  0  0  0
  1 11  1  0  0  0  0
  2  8  1  1  0  0  0
  3  2  1  0  0  0  0
  4  2  1  0  0  0  0
  4  5  1  0  0  0  0
  5  6  1  0  0  0  0
  5  8  1  1  0  0  0
  6 15  1  0  0  0  0
  6  7  1  0  0  0  0
  7 18  1  0  0  0  0
  7 17  1  0  0  0  0
  8 19  1  1  0  0  0
  8  7  1  0  0  0  0
 10  1  1  0  0  0  0
 12  3  1  0  0  0  0
 13  4  1  0  0  0  0
 14  4  1  0  0  0  0
 16  6  1  0  0  0  0
M  END
