18
title
C -1.1445192 1.5730441 0.2714095
C -1.068342 0.05567072 0.2460871
C -2.2920291 -0.60695606 0.86295116
C -0.42952824 -0.71957576 -0.8586793
C 0.77567995 0.010129302 -1.4689674
C 1.4172323 -0.015577708 -0.054321457
O 2.5175571 0.24474396 0.34472403
C 0.23182918 -0.7000974 0.5547394
H -0.25590158 2.0557384 -0.13944523
H -2.0122604 1.9214289 -0.30084383
H -1.2636179 1.9279325 1.3008227
H -3.1988196 -0.31130108 0.32350865
H -2.2210054 -1.6982578 0.8306798
H -2.4145083 -0.3066926 1.9090618
H -0.91866046 -1.5705689 -1.3164235
H 1.3640468 -0.6226096 -2.1405356
H 0.6063123 0.9761346 -1.9512275
H 0.2601874 -1.4500437 1.3366313
