title
 OpenBabel02282109583D

 17 18  0  0  1  0  0  0  0  0999 V2000
   -0.9409    1.5853   -0.5650 C   0  0  0  0  0  0  0  0  0  0  0  0
   -0.9063    0.0713   -0.6209 C   0  0  0  0  0  0  0  0  0  0  0  0
   -2.1653   -0.5512   -1.2014 C   0  0  0  0  0  0  0  0  0  0  0  0
    0.3557   -0.7067   -0.8835 C   0  0  1  0  0  0  0  0  0  0  0  0
    1.5527   -0.1026   -0.2967 N   0  0  0  0  0  0  0  0  0  0  0  0
    0.9875   -0.0841    0.9950 C   0  0  0  0  0  0  0  0  0  0  0  0
    1.3961    0.3483    2.0351 O   0  0  0  0  0  0  0  0  0  0  0  0
   -0.2734   -0.7778    0.5025 C   0  0  1  0  0  0  0  0  0  0  0  0
   -0.0176    2.0126   -0.1679 H   0  0  0  0  0  0  0  0  0  0  0  0
   -1.1042    2.0002   -1.5663 H   0  0  0  0  0  0  0  0  0  0  0  0
   -1.7628    1.9257    0.0735 H   0  0  0  0  0  0  0  0  0  0  0  0
   -2.3484   -0.1739   -2.2135 H   0  0  0  0  0  0  0  0  0  0  0  0
   -2.0900   -1.6417   -1.2551 H   0  0  0  0  0  0  0  0  0  0  0  0
   -3.0402   -0.3047   -0.5905 H   0  0  0  0  0  0  0  0  0  0  0  0
    0.4472   -1.4992   -1.6161 H   0  0  0  0  0  0  0  0  0  0  0  0
    2.0512    0.6852   -0.6951 H   0  0  0  0  0  0  0  0  0  0  0  0
   -0.8068   -1.5869    0.9816 H   0  0  0  0  0  0  0  0  0  0  0  0
  1  9  1  0  0  0  0
  1 11  1  0  0  0  0
  2  1  1  0  0  0  0
  2  8  1  0  0  0  0
  3  2  1  0  0  0  0
  3 14  1  0  0  0  0
  4  2  1  0  0  0  0
  4  5  1  0  0  0  0
  4  8  1  1  0  0  0
  5  6  1  0  0  0  0
  6  7  2  0  0  0  0
  8 17  1  1  0  0  0
  8  6  1  0  0  0  0
 10  1  1  0  0  0  0
 12  3  1  0  0  0  0
 13  3  1  0  0  0  0
 15  4  1  0  0  0  0
 16  5  1  0  0  0  0
M  END
