title
 OpenBabel02282109583D

 17 18  0  0  1  0  0  0  0  0999 V2000
   -0.9740    1.5908   -0.5745 C   0  0  0  0  0  0  0  0  0  0  0  0
   -0.9188    0.0779   -0.6092 C   0  0  0  0  0  0  0  0  0  0  0  0
   -2.1482   -0.5912   -1.2001 C   0  0  0  0  0  0  0  0  0  0  0  0
    0.3544   -0.6671   -0.8368 C   0  0  1  0  0  0  0  0  0  0  0  0
    1.4902    0.0563   -0.2969 O   0  0  0  0  0  0  0  0  0  0  0  0
    0.9682   -0.0890    0.9934 C   0  0  0  0  0  0  0  0  0  0  0  0
    1.4687    0.2081    2.1028 N   0  0  0  0  0  0  0  0  0  0  0  0
   -0.2869   -0.7500    0.5344 C   0  0  1  0  0  0  0  0  0  0  0  0
   -0.0402    2.0236   -0.2128 H   0  0  0  0  0  0  0  0  0  0  0  0
   -1.1618    1.9853   -1.5795 H   0  0  0  0  0  0  0  0  0  0  0  0
   -1.7868    1.9306    0.0757 H   0  0  0  0  0  0  0  0  0  0  0  0
   -2.3238   -0.2357   -2.2210 H   0  0  0  0  0  0  0  0  0  0  0  0
   -2.0427   -1.6803   -1.2345 H   0  0  0  0  0  0  0  0  0  0  0  0
   -3.0392   -0.3600   -0.6067 H   0  0  0  0  0  0  0  0  0  0  0  0
    0.5625   -1.4203   -1.5857 H   0  0  0  0  0  0  0  0  0  0  0  0
    2.3929    0.6281    1.9896 H   0  0  0  0  0  0  0  0  0  0  0  0
   -0.8128   -1.5483    1.0378 H   0  0  0  0  0  0  0  0  0  0  0  0
  1  9  1  0  0  0  0
  1 11  1  0  0  0  0
  2  1  1  0  0  0  0
  2  8  1  0  0  0  0
  3  2  1  0  0  0  0
  3 14  1  0  0  0  0
  4  2  1  0  0  0  0
  4  5  1  0  0  0  0
  4  8  1  1  0  0  0
  5  6  1  0  0  0  0
  6  7  2  0  0  0  0
  8  6  1  0  0  0  0
  8 17  1  1  0  0  0
 10  1  1  0  0  0  0
 12  3  1  0  0  0  0
 13  3  1  0  0  0  0
 15  4  1  0  0  0  0
 16  7  1  0  0  0  0
M  END
