16
title
C -0.97913355 1.5957139 -0.568651
C -0.9302492 0.08240868 -0.6160299
C -2.169705 -0.5747969 -1.1997339
C 0.33706632 -0.6660873 -0.84520125
O 1.4757923 0.057881676 -0.30974385
C 0.9718054 -0.09559698 0.9830385
O 1.503894 0.20826067 1.9995606
C -0.29589668 -0.7599088 0.52533203
H -0.037283555 2.0253136 -0.22426374
H -1.1849481 1.9951895 -1.5679213
H -1.7796229 1.9332311 0.097549275
H -2.3498597 -0.20891728 -2.2159936
H -2.0727086 -1.664126 -1.2436599
H -3.0534816 -0.34008613 -0.5975016
H 0.5449297 -1.4249686 -1.5874444
H -0.8258784 -1.5559143 1.028226
