16
title
C -1.1379412 1.5866606 0.31229824
C -1.0395899 0.0795363 0.24149275
O -2.17576 -0.57505566 0.7384519
C -0.42860216 -0.70037115 -0.8580461
C 0.7836997 0.00981029 -1.4731506
C 1.4460423 -0.04026326 -0.066182025
O 2.552873 0.21116659 0.32123485
C 0.2577328 -0.7038581 0.5496209
H -0.2511059 2.082823 -0.08646185
H -2.0151603 1.9319198 -0.24406968
H -1.2479953 1.9084554 1.3548996
H -2.3155587 -0.2824797 1.6460644
H -0.96233547 -1.5285108 -1.3050102
H 1.3443305 -0.63287085 -2.158569
H 0.6312073 0.9831958 -1.9462727
H 0.24497087 -1.4455302 1.3385339
