title
 OpenBabel02282109583D

 15 16  0  0  1  0  0  0  0  0999 V2000
   -0.9178    1.6097   -0.5837 C   0  0  0  0  0  0  0  0  0  0  0  0
   -0.8754    0.1003   -0.5994 C   0  0  1  0  0  0  0  0  0  0  0  0
   -2.0599   -0.5028   -1.0467 O   0  0  0  0  0  0  0  0  0  0  0  0
    0.3572   -0.7260   -0.8775 C   0  0  1  0  0  0  0  0  0  0  0  0
    1.5712   -0.1590   -0.2931 N   0  0  0  0  0  0  0  0  0  0  0  0
    1.0081   -0.1028    0.9982 C   0  0  0  0  0  0  0  0  0  0  0  0
    1.4272    0.3393    2.0297 O   0  0  0  0  0  0  0  0  0  0  0  0
   -0.2741   -0.7619    0.5139 C   0  0  1  0  0  0  0  0  0  0  0  0
    0.0088    2.0457   -0.2057 H   0  0  0  0  0  0  0  0  0  0  0  0
   -1.0826    1.9957   -1.5977 H   0  0  0  0  0  0  0  0  0  0  0  0
   -1.7413    1.9525    0.0493 H   0  0  0  0  0  0  0  0  0  0  0  0
   -2.2591   -0.1515   -1.9220 H   0  0  0  0  0  0  0  0  0  0  0  0
    0.3961   -1.5237   -1.6078 H   0  0  0  0  0  0  0  0  0  0  0  0
    2.1113    0.5973   -0.6983 H   0  0  0  0  0  0  0  0  0  0  0  0
   -0.8593   -1.5353    0.9889 H   0  0  0  0  0  0  0  0  0  0  0  0
  1  9  1  0  0  0  0
  1 11  1  0  0  0  0
  2  4  1  6  0  0  0
  2  1  1  0  0  0  0
  3  2  1  0  0  0  0
  4  5  1  0  0  0  0
  4  8  1  1  0  0  0
  5  6  1  0  0  0  0
  6  7  2  0  0  0  0
  8  2  1  6  0  0  0
  8 15  1  0  0  0  0
  8  6  1  0  0  0  0
 10  1  1  0  0  0  0
 12  3  1  0  0  0  0
 13  4  1  0  0  0  0
 14  5  1  0  0  0  0
M  END
