title
 OpenBabel02282109583D

 14 15  0  0  1  0  0  0  0  0999 V2000
   -0.9368    1.6125   -0.6317 C   0  0  0  0  0  0  0  0  0  0  0  0
   -0.8825    0.1053   -0.6323 C   0  0  1  0  0  0  0  0  0  0  0  0
   -1.9663   -0.5300   -1.2382 O   0  0  0  0  0  0  0  0  0  0  0  0
    0.3539   -0.6941   -0.8036 C   0  0  1  0  0  0  0  0  0  0  0  0
    1.4904    0.0120   -0.2555 O   0  0  0  0  0  0  0  0  0  0  0  0
    0.9564   -0.1086    1.0348 C   0  0  0  0  0  0  0  0  0  0  0  0
    1.4723    0.2136    2.0535 O   0  0  0  0  0  0  0  0  0  0  0  0
   -0.3129   -0.7438    0.5569 C   0  0  1  0  0  0  0  0  0  0  0  0
   -0.0160    2.0485   -0.2425 H   0  0  0  0  0  0  0  0  0  0  0  0
   -1.0883    1.9710   -1.6545 H   0  0  0  0  0  0  0  0  0  0  0  0
   -1.7711    1.9661   -0.0152 H   0  0  0  0  0  0  0  0  0  0  0  0
   -2.7746   -0.2266   -0.8096 H   0  0  0  0  0  0  0  0  0  0  0  0
    0.5363   -1.4673   -1.5365 H   0  0  0  0  0  0  0  0  0  0  0  0
   -0.9087   -1.5016    1.0429 H   0  0  0  0  0  0  0  0  0  0  0  0
  1  9  1  0  0  0  0
  1 11  1  0  0  0  0
  2  4  1  6  0  0  0
  2  1  1  0  0  0  0
  3 12  1  0  0  0  0
  3  2  1  0  0  0  0
  4  5  1  0  0  0  0
  4  8  1  1  0  0  0
  5  6  1  0  0  0  0
  6  7  2  0  0  0  0
  8  2  1  6  0  0  0
  8  6  1  0  0  0  0
  8 14  1  0  0  0  0
 10  1  1  0  0  0  0
 13  4  1  0  0  0  0
M  END
