19
title
C -0.88394666 1.4035649 0.7738708
C -0.77088827 -0.10620732 0.662596
C -1.897059 -0.84247094 1.3688391
C -0.21266554 -0.8229054 -0.51137716
C 0.9609024 -0.131733 -1.1828613
O 0.63435644 1.0203607 -1.9336557
C 1.6049817 -0.012601004 0.2281002
N 0.5075756 -0.8341943 0.84784395
H -0.21818505 1.9380683 0.09914203
H -1.9066036 1.7065948 0.52651197
H -0.68845254 1.7207365 1.805402
H -2.8611608 -0.61978227 0.8990347
H -1.732767 -1.9223901 1.343042
H -1.9517918 -0.5354259 2.4187508
H -0.6926309 -1.7141778 -0.9059426
H 1.5209332 -0.8464262 -1.7990761
H 1.4266479 1.3142811 -2.394524
H 2.558329 -0.5367088 0.3253268
H 1.7070022 0.9968942 0.63478047
