20
title
C -0.946365 1.4368949 -0.68583536
C -0.8423833 -0.07726452 -0.6168913
C -2.0861943 -0.7761377 -1.1490904
C 0.4307577 -0.8364565 -0.8838055
C 1.6693659 -0.097536616 -0.36789376
C 1.0628346 -0.1725442 1.0788727
O 0.85396725 1.0129321 1.8210106
C -0.19699234 -0.82581896 0.5282821
H -0.099547856 1.9405481 -0.22223985
H -1.029643 1.7680992 -1.728424
H -1.8464489 1.7751936 -0.159758
H -2.274944 -0.49433768 -2.191389
H -1.9870249 -1.8656446 -1.1095407
H -2.9709358 -0.49795488 -0.56519943
H 0.4577312 -1.660336 -1.5876368
H 2.5949075 -0.67028713 -0.4635125
H 1.8342655 0.90717345 -0.76767856
H 1.6275277 -0.9012895 1.6763539
H 1.7062807 1.3102769 2.155411
H -0.73528373 -1.616104 1.0400522
