title
 OpenBabel02282109583D

 20 21  0  0  1  0  0  0  0  0999 V2000
   -0.9464    1.4369   -0.6858 C   0  0  0  0  0  0  0  0  0  0  0  0
   -0.8424   -0.0773   -0.6169 C   0  0  0  0  0  0  0  0  0  0  0  0
   -2.0862   -0.7761   -1.1491 C   0  0  0  0  0  0  0  0  0  0  0  0
    0.4308   -0.8365   -0.8838 C   0  0  1  0  0  0  0  0  0  0  0  0
    1.6694   -0.0975   -0.3679 C   0  0  0  0  0  0  0  0  0  0  0  0
    1.0628   -0.1725    1.0789 C   0  0  1  0  0  0  0  0  0  0  0  0
    0.8540    1.0129    1.8210 O   0  0  0  0  0  0  0  0  0  0  0  0
   -0.1970   -0.8258    0.5283 C   0  0  1  0  0  0  0  0  0  0  0  0
   -0.0995    1.9405   -0.2222 H   0  0  0  0  0  0  0  0  0  0  0  0
   -1.0296    1.7681   -1.7284 H   0  0  0  0  0  0  0  0  0  0  0  0
   -1.8464    1.7752   -0.1598 H   0  0  0  0  0  0  0  0  0  0  0  0
   -2.2749   -0.4943   -2.1914 H   0  0  0  0  0  0  0  0  0  0  0  0
   -1.9870   -1.8656   -1.1095 H   0  0  0  0  0  0  0  0  0  0  0  0
   -2.9709   -0.4980   -0.5652 H   0  0  0  0  0  0  0  0  0  0  0  0
    0.4577   -1.6603   -1.5876 H   0  0  0  0  0  0  0  0  0  0  0  0
    2.5949   -0.6703   -0.4635 H   0  0  0  0  0  0  0  0  0  0  0  0
    1.8343    0.9072   -0.7677 H   0  0  0  0  0  0  0  0  0  0  0  0
    1.6275   -0.9013    1.6764 H   0  0  0  0  0  0  0  0  0  0  0  0
    1.7063    1.3103    2.1554 H   0  0  0  0  0  0  0  0  0  0  0  0
   -0.7353   -1.6161    1.0401 H   0  0  0  0  0  0  0  0  0  0  0  0
  1  2  1  0  0  0  0
  1  9  1  0  0  0  0
  1 11  1  0  0  0  0
  2  8  1  0  0  0  0
  3 13  1  0  0  0  0
  3  2  1  0  0  0  0
  3 14  1  0  0  0  0
  4  2  1  0  0  0  0
  4  5  1  0  0  0  0
  4  8  1  1  0  0  0
  5  6  1  0  0  0  0
  6  8  1  6  0  0  0
  6 18  1  0  0  0  0
  6  7  1  0  0  0  0
  7 19  1  0  0  0  0
  8 20  1  1  0  0  0
 10  1  1  0  0  0  0
 12  3  1  0  0  0  0
 15  4  1  0  0  0  0
 16  5  1  0  0  0  0
 17  5  1  0  0  0  0
M  END
