title
 OpenBabel02282109583D

 18 19  0  0  1  0  0  0  0  0999 V2000
   -0.9348    1.4539   -0.6988 C   0  0  0  0  0  0  0  0  0  0  0  0
   -0.8131   -0.0499   -0.5980 C   0  0  1  0  0  0  0  0  0  0  0  0
   -1.9836   -0.7259   -1.0102 O   0  0  0  0  0  0  0  0  0  0  0  0
    0.4351   -0.8490   -0.8714 C   0  0  1  0  0  0  0  0  0  0  0  0
    1.6923   -0.1457   -0.3551 C   0  0  0  0  0  0  0  0  0  0  0  0
    1.0730   -0.1823    1.0903 C   0  0  1  0  0  0  0  0  0  0  0  0
    0.8893    1.0238    1.8044 O   0  0  0  0  0  0  0  0  0  0  0  0
   -0.1989   -0.8093    0.5428 C   0  0  1  0  0  0  0  0  0  0  0  0
   -0.0873    1.9676   -0.2461 H   0  0  0  0  0  0  0  0  0  0  0  0
   -1.0175    1.7644   -1.7488 H   0  0  0  0  0  0  0  0  0  0  0  0
   -1.8402    1.7785   -0.1770 H   0  0  0  0  0  0  0  0  0  0  0  0
   -2.1008   -0.5513   -1.9505 H   0  0  0  0  0  0  0  0  0  0  0  0
    0.4133   -1.6702   -1.5772 H   0  0  0  0  0  0  0  0  0  0  0  0
    2.5997   -0.7488   -0.4366 H   0  0  0  0  0  0  0  0  0  0  0  0
    1.8934    0.8492   -0.7636 H   0  0  0  0  0  0  0  0  0  0  0  0
    1.6130   -0.9139    1.7059 H   0  0  0  0  0  0  0  0  0  0  0  0
    1.7439    1.3009    2.1503 H   0  0  0  0  0  0  0  0  0  0  0  0
   -0.7878   -1.5663    1.0459 H   0  0  0  0  0  0  0  0  0  0  0  0
  1  2  1  0  0  0  0
  1  9  1  0  0  0  0
  1 11  1  0  0  0  0
  2  4  1  6  0  0  0
  3  2  1  0  0  0  0
  4  5  1  0  0  0  0
  4  8  1  1  0  0  0
  5  6  1  0  0  0  0
  6  8  1  6  0  0  0
  6 16  1  0  0  0  0
  6  7  1  0  0  0  0
  7 17  1  0  0  0  0
  8  2  1  6  0  0  0
  8 18  1  0  0  0  0
 10  1  1  0  0  0  0
 12  3  1  0  0  0  0
 13  4  1  0  0  0  0
 14  5  1  0  0  0  0
 15  5  1  0  0  0  0
M  END
