18
title
C -0.9347845 1.4538523 -0.6987547
C -0.8130743 -0.04985823 -0.5980423
O -1.9835931 -0.7258602 -1.0101961
C 0.43509272 -0.8489577 -0.8714138
C 1.692295 -0.14574145 -0.3551189
C 1.0730453 -0.18228239 1.090291
O 0.88934857 1.0237962 1.8043909
C -0.19892076 -0.80933774 0.54280335
H -0.08731851 1.9675908 -0.24614836
H -1.0174599 1.7644128 -1.7487938
H -1.8401589 1.778458 -0.17695539
H -2.1008165 -0.5512862 -1.950522
H 0.41326752 -1.6702375 -1.5771977
H 2.5997338 -0.74883384 -0.43660253
H 1.893365 0.84915304 -0.76361024
H 1.613031 -0.91387457 1.705915
H 1.743889 1.3008755 2.1502764
H -0.7877844 -1.5663095 1.0459187
