22
title
C -0.81081915 2.5913541 -0.63690907
C -0.7649313 1.0689566 -0.57692844
C 0.2968656 0.42318884 -1.5304376
C 1.057458 -0.111202754 -0.31151262
C 0.012548175 0.5130897 0.6285522
C 0.20141843 -0.9838962 0.5764369
C -0.850051 -1.938645 0.041144393
C 0.9484594 -1.5433496 1.7783604
H 0.19064942 3.0198479 -0.51512975
H -1.2100942 2.935983 -1.5972183
H -1.4460158 2.9999819 0.15724245
H -1.7816268 0.67308694 -0.68455625
H -0.057715986 -0.31757632 -2.2547555
H 0.86032677 1.1878753 -2.072106
H 2.1378517 -0.11881498 -0.21442911
H 0.17107615 1.0628988 1.5513742
H -1.3807153 -1.5494517 -0.8300809
H -0.39118698 -2.890552 -0.2516588
H -1.5988884 -2.1593282 0.8112328
H 0.25984553 -1.7600683 2.6034162
H 1.4621494 -2.4773383 1.5220475
H 1.7006338 -0.83884805 2.14751
