20
title
C -0.74611545 2.5556476 -0.6672624
C -0.7717314 1.0490575 -0.505342
O 0.17806499 0.40646234 -1.4139866
C 0.9622796 -0.034527645 -0.30467725
C -0.025446722 0.501592 0.71066034
C 0.2183538 -0.9985994 0.5783981
C -0.8168208 -1.9482785 0.011629144
C 1.0495658 -1.5644768 1.7171811
H 0.25983185 2.9482017 -0.49161947
H -1.0550299 2.8320284 -1.679834
H -1.4347267 3.026371 0.04354201
H -1.7855886 0.6605757 -0.6662808
H 2.0422623 0.027977245 -0.3936509
H 0.13556723 1.0422666 1.6354853
H -1.2434539 -1.5652589 -0.91747934
H -0.3581499 -2.918056 -0.21281944
H -1.6299592 -2.1241474 0.72527456
H 0.4193278 -1.8050741 2.5810995
H 1.5590181 -2.4843712 1.4093162
H 1.8126743 -0.85393775 2.0526607
