title
 OpenBabel02282109583D

 20 21  0  0  1  0  0  0  0  0999 V2000
   -0.7461    2.5556   -0.6673 C   0  0  0  0  0  0  0  0  0  0  0  0
   -0.7717    1.0491   -0.5053 C   0  0  1  0  0  0  0  0  0  0  0  0
    0.1781    0.4065   -1.4140 O   0  0  0  0  0  0  0  0  0  0  0  0
    0.9623   -0.0345   -0.3047 C   0  0  1  0  0  0  0  0  0  0  0  0
   -0.0254    0.5016    0.7107 C   0  0  2  0  0  0  0  0  0  0  0  0
    0.2184   -0.9986    0.5784 C   0  0  0  0  0  0  0  0  0  0  0  0
   -0.8168   -1.9483    0.0116 C   0  0  0  0  0  0  0  0  0  0  0  0
    1.0496   -1.5645    1.7172 C   0  0  0  0  0  0  0  0  0  0  0  0
    0.2598    2.9482   -0.4916 H   0  0  0  0  0  0  0  0  0  0  0  0
   -1.0550    2.8320   -1.6798 H   0  0  0  0  0  0  0  0  0  0  0  0
   -1.4347    3.0264    0.0435 H   0  0  0  0  0  0  0  0  0  0  0  0
   -1.7856    0.6606   -0.6663 H   0  0  0  0  0  0  0  0  0  0  0  0
    2.0423    0.0280   -0.3937 H   0  0  0  0  0  0  0  0  0  0  0  0
    0.1356    1.0423    1.6355 H   0  0  0  0  0  0  0  0  0  0  0  0
   -1.2435   -1.5653   -0.9175 H   0  0  0  0  0  0  0  0  0  0  0  0
   -0.3581   -2.9181   -0.2128 H   0  0  0  0  0  0  0  0  0  0  0  0
   -1.6300   -2.1241    0.7253 H   0  0  0  0  0  0  0  0  0  0  0  0
    0.4193   -1.8051    2.5811 H   0  0  0  0  0  0  0  0  0  0  0  0
    1.5590   -2.4844    1.4093 H   0  0  0  0  0  0  0  0  0  0  0  0
    1.8127   -0.8539    2.0527 H   0  0  0  0  0  0  0  0  0  0  0  0
  1  2  1  0  0  0  0
  1  9  1  0  0  0  0
  1 11  1  0  0  0  0
  2  5  1  1  0  0  0
  3  2  1  0  0  0  0
  3  4  1  0  0  0  0
  4  6  1  0  0  0  0
  4  5  1  1  0  0  0
  5 14  1  1  0  0  0
  6  5  1  0  0  0  0
  6  8  1  0  0  0  0
  7  6  1  0  0  0  0
  7 17  1  0  0  0  0
  8 20  1  0  0  0  0
  8 18  1  0  0  0  0
 10  1  1  0  0  0  0
 12  2  1  0  0  0  0
 13  4  1  0  0  0  0
 15  7  1  0  0  0  0
 16  7  1  0  0  0  0
 19  8  1  0  0  0  0
M  END
