title
 OpenBabel02282109583D

 18 19  0  0  1  0  0  0  0  0999 V2000
   -0.7329    2.5806   -0.6579 C   0  0  0  0  0  0  0  0  0  0  0  0
   -0.7639    1.0719   -0.5225 C   0  0  1  0  0  0  0  0  0  0  0  0
    0.2056    0.4427   -1.4247 O   0  0  0  0  0  0  0  0  0  0  0  0
    0.9674   -0.0170   -0.3083 C   0  0  1  0  0  0  0  0  0  0  0  0
   -0.0433    0.5038    0.6970 C   0  0  2  0  0  0  0  0  0  0  0  0
    0.1881   -0.9852    0.5446 C   0  0  1  0  0  0  0  0  0  0  0  0
   -0.8124   -1.9662   -0.0141 C   0  0  0  0  0  0  0  0  0  0  0  0
    0.9156   -1.4433    1.6593 O   0  0  0  0  0  0  0  0  0  0  0  0
    0.2697    2.9674   -0.4536 H   0  0  0  0  0  0  0  0  0  0  0  0
   -1.0191    2.8732   -1.6725 H   0  0  0  0  0  0  0  0  0  0  0  0
   -1.4360    3.0405    0.0455 H   0  0  0  0  0  0  0  0  0  0  0  0
   -1.7739    0.6868   -0.7120 H   0  0  0  0  0  0  0  0  0  0  0  0
    2.0502    0.0296   -0.3581 H   0  0  0  0  0  0  0  0  0  0  0  0
    0.0992    1.0001    1.6478 H   0  0  0  0  0  0  0  0  0  0  0  0
   -1.2529   -1.5941   -0.9410 H   0  0  0  0  0  0  0  0  0  0  0  0
   -0.3157   -2.9164   -0.2468 H   0  0  0  0  0  0  0  0  0  0  0  0
   -1.6087   -2.1707    0.7085 H   0  0  0  0  0  0  0  0  0  0  0  0
    1.4543   -2.1886    1.3702 H   0  0  0  0  0  0  0  0  0  0  0  0
  1  2  1  0  0  0  0
  1  9  1  0  0  0  0
  1 11  1  0  0  0  0
  2  5  1  1  0  0  0
  3  2  1  0  0  0  0
  3  4  1  0  0  0  0
  4  6  1  6  0  0  0
  5  4  1  6  0  0  0
  5 14  1  0  0  0  0
  6  5  1  1  0  0  0
  6  8  1  0  0  0  0
  7  6  1  0  0  0  0
  7 17  1  0  0  0  0
 10  1  1  0  0  0  0
 12  2  1  0  0  0  0
 13  4  1  0  0  0  0
 15  7  1  0  0  0  0
 16  7  1  0  0  0  0
 18  8  1  0  0  0  0
M  END
