18
title
C -0.7328939 2.5805838 -0.657874
C -0.76385057 1.0718688 -0.5225136
O 0.20556179 0.4426677 -1.4246678
C 0.96740955 -0.016974367 -0.30832422
C -0.04330215 0.50378275 0.69704235
C 0.18813786 -0.98520285 0.5446197
C -0.81236905 -1.966161 -0.014072062
O 0.9155521 -1.4433198 1.6592565
H 0.26970538 2.9673648 -0.45357493
H -1.0191244 2.873184 -1.6724914
H -1.4360284 3.0404916 0.045510765
H -1.7739382 0.6868378 -0.7119797
H 2.0502214 0.029634558 -0.358136
H 0.09916642 1.0000886 1.6478333
H -1.2528836 -1.594131 -0.94101167
H -0.31565112 -2.916357 -0.24683017
H -1.608653 -2.1707263 0.7085122
H 1.4543306 -2.1886055 1.3702124
