20
title
C -0.6897434 1.9639105 -0.19566141
C -0.69378936 0.4306322 -0.21509977
C -2.129442 -0.091525696 -0.33340862
C 0.29064274 -0.14980683 -1.2978938
C 1.3052281 -0.80364865 -0.3376639
C 0.424711 -1.5906909 0.6551457
C 0.07803952 -0.12968865 1.0161793
O 1.461673 0.2254471 0.6931538
H 0.3234818 2.3415802 -0.041167915
H -1.0686758 2.366956 -1.1413686
H -1.3291355 2.3494918 0.6075262
H -2.6044743 0.2922546 -1.242871
H -2.1772127 -1.1835054 -0.37396023
H -2.7381501 0.23897901 0.51654327
H -0.18397236 -0.87333745 -1.9675798
H 0.7554207 0.6317181 -1.9038128
H 2.2469754 -1.1810619 -0.73666596
H -0.3483911 -2.2630806 0.27732792
H 1.0196112 -2.06656 1.4351507
H -0.2422106 0.1868105 2.0102165
