20
title
C -0.7157012 1.9567407 -0.20085199
C -0.6543905 0.42862734 -0.11759533
C -2.0699472 -0.13283367 -0.28118533
O 0.20566595 -0.087820254 -1.1826612
C 1.2306175 -0.78022546 -0.45097122
C 0.44819468 -1.5804338 0.61727947
C 0.12946737 -0.12619866 1.0999805
C 1.6027969 0.20109352 0.68576807
H 0.26497144 2.4219093 -0.092708915
H -1.1212674 2.2560396 -1.1720997
H -1.3742653 2.3567352 0.57767165
H -2.4747548 0.16780944 -1.2523346
H -2.0967638 -1.2222118 -0.23291141
H -2.731313 0.26270655 0.49723992
H 1.9456822 -1.216906 -1.146843
H -0.3616977 -2.2258422 0.27678058
H 1.0958443 -2.115114 1.3141448
H -0.2684469 0.09360746 2.090574
H 2.33083 -0.20954885 1.3874032
H 1.8719548 1.2206604 0.4092634
