20
title
C -0.7874 1.9810892 -0.20175958
C -0.62449145 0.46234852 -0.17833927
O -1.9146414 -0.15204673 -0.19983493
C 0.3283647 -0.110697255 -1.291964
C 1.3274033 -0.8759198 -0.4015519
C 0.3895798 -1.5612723 0.6342521
C 0.118226916 -0.08747159 1.0584924
C 1.6138545 0.17147534 0.7119323
H 0.17005083 2.5010672 -0.112483926
H -1.2456487 2.3041487 -1.1452442
H -1.43727 2.3027499 0.61791885
H -2.3868759 0.18155174 -0.9697079
H -0.2260715 -0.7664114 -1.9697418
H 0.8114695 0.6742046 -1.883263
H 2.1298347 -1.4188304 -0.90269357
H -0.45587644 -2.1458764 0.26931825
H 0.94460934 -2.1149495 1.3951468
H -0.3116972 0.17115264 2.0267663
H 2.2836447 -0.20864974 1.4866999
H 1.9260842 1.1767806 0.4142424
