18
title
C -0.7277588 1.9756362 -0.2087103
C -0.64482456 0.45445848 -0.21744202
O -1.938747 -0.13706747 -0.25403064
C 0.33734816 -0.12691954 -1.2994692
C 1.2998849 -0.8383756 -0.33049402
C 0.36736578 -1.5836153 0.6498429
C 0.09740495 -0.11306109 1.0208027
O 1.4882034 0.19265077 0.6983343
H 0.2631324 2.4068325 -0.04704667
H -1.1086074 2.353348 -1.1658262
H -1.3991596 2.3167129 0.58607954
H -2.4428244 0.2898482 -0.9540732
H -0.17855658 -0.80831367 -1.9809465
H 0.8482427 0.64725244 -1.877038
H 2.2288916 -1.2591451 -0.71512425
H -0.4523329 -2.1874576 0.2592707
H 0.9271832 -2.1004772 1.4296857
H -0.22647022 0.22214589 2.006156
