title
 OpenBabel02282109583D

 18 19  0  0  1  0  0  0  0  0999 V2000
   -0.7278    1.9756   -0.2087 C   0  0  0  0  0  0  0  0  0  0  0  0
   -0.6448    0.4545   -0.2174 C   0  0  1  0  0  0  0  0  0  0  0  0
   -1.9387   -0.1371   -0.2540 O   0  0  0  0  0  0  0  0  0  0  0  0
    0.3373   -0.1269   -1.2995 C   0  0  0  0  0  0  0  0  0  0  0  0
    1.2999   -0.8384   -0.3305 C   0  0  2  0  0  0  0  0  0  0  0  0
    0.3674   -1.5836    0.6498 C   0  0  0  0  0  0  0  0  0  0  0  0
    0.0974   -0.1131    1.0208 C   0  0  1  0  0  0  0  0  0  0  0  0
    1.4882    0.1927    0.6983 O   0  0  0  0  0  0  0  0  0  0  0  0
    0.2631    2.4068   -0.0470 H   0  0  0  0  0  0  0  0  0  0  0  0
   -1.1086    2.3533   -1.1658 H   0  0  0  0  0  0  0  0  0  0  0  0
   -1.3992    2.3167    0.5861 H   0  0  0  0  0  0  0  0  0  0  0  0
   -2.4428    0.2898   -0.9541 H   0  0  0  0  0  0  0  0  0  0  0  0
   -0.1786   -0.8083   -1.9809 H   0  0  0  0  0  0  0  0  0  0  0  0
    0.8482    0.6473   -1.8770 H   0  0  0  0  0  0  0  0  0  0  0  0
    2.2289   -1.2591   -0.7151 H   0  0  0  0  0  0  0  0  0  0  0  0
   -0.4523   -2.1875    0.2593 H   0  0  0  0  0  0  0  0  0  0  0  0
    0.9272   -2.1005    1.4297 H   0  0  0  0  0  0  0  0  0  0  0  0
   -0.2265    0.2221    2.0062 H   0  0  0  0  0  0  0  0  0  0  0  0
  1  9  1  0  0  0  0
  1 11  1  0  0  0  0
  2  1  1  0  0  0  0
  2  7  1  1  0  0  0
  3  2  1  0  0  0  0
  4  5  1  0  0  0  0
  4  2  1  0  0  0  0
  5 15  1  6  0  0  0
  5  6  1  0  0  0  0
  5  8  1  0  0  0  0
  6  7  1  0  0  0  0
  6 17  1  0  0  0  0
  7 18  1  1  0  0  0
  8  7  1  0  0  0  0
 10  1  1  0  0  0  0
 12  3  1  0  0  0  0
 13  4  1  0  0  0  0
 14  4  1  0  0  0  0
 16  6  1  0  0  0  0
M  END
