14
title
N -0.40250334 2.3849967 -0.85662246
C -0.34626192 1.1915913 -0.4181512
C -1.6376554 0.47837517 -0.059268475
C -1.4870973 -0.9194622 0.45231065
C -0.30652696 -1.5230198 0.5907414
C 0.95664483 -0.8453382 0.24405035
O 2.053729 -1.3539073 0.35260376
N 0.82302207 0.45765087 -0.23193295
H 0.52537614 2.7597098 -1.0637656
H -2.1695046 1.0935662 0.6771583
H -2.2852151 0.4868919 -0.94493145
H -2.403363 -1.4413402 0.7148492
H -0.19727682 -2.5349607 0.9607988
H 1.7025775 0.902248 -0.46217513
