13
title
N -0.38772568 2.4198682 0.5974842
C -0.37436166 1.1794534 0.34903842
O 0.78745836 0.5823129 -0.1306818
C 0.9144117 -0.75043017 -0.43281305
O 1.9670535 -1.1448026 -0.8383709
C -0.29270494 -1.6493945 -0.23405908
C -1.5204163 -0.9734054 0.28211462
C -1.5442976 0.3316311 0.54680014
H 0.5230537 2.8362567 0.3955594
H -0.48436314 -2.139703 -1.197366
H 0.023880322 -2.4617171 0.43300787
H -2.402156 -1.5877104 0.4360028
H -2.4214745 0.843358 0.9212071
