title
 OpenBabel02282109583D

 13 13  0  0  0  0  0  0  0  0999 V2000
   -0.3877    2.4199    0.5975 N   0  0  0  0  0  0  0  0  0  0  0  0
   -0.3744    1.1795    0.3490 C   0  0  0  0  0  0  0  0  0  0  0  0
    0.7875    0.5823   -0.1307 O   0  0  0  0  0  0  0  0  0  0  0  0
    0.9144   -0.7504   -0.4328 C   0  0  0  0  0  0  0  0  0  0  0  0
    1.9671   -1.1448   -0.8384 O   0  0  0  0  0  0  0  0  0  0  0  0
   -0.2927   -1.6494   -0.2341 C   0  0  0  0  0  0  0  0  0  0  0  0
   -1.5204   -0.9734    0.2821 C   0  0  0  0  0  0  0  0  0  0  0  0
   -1.5443    0.3316    0.5468 C   0  0  0  0  0  0  0  0  0  0  0  0
    0.5231    2.8363    0.3956 H   0  0  0  0  0  0  0  0  0  0  0  0
   -0.4844   -2.1397   -1.1974 H   0  0  0  0  0  0  0  0  0  0  0  0
    0.0239   -2.4617    0.4330 H   0  0  0  0  0  0  0  0  0  0  0  0
   -2.4022   -1.5877    0.4360 H   0  0  0  0  0  0  0  0  0  0  0  0
   -2.4215    0.8434    0.9212 H   0  0  0  0  0  0  0  0  0  0  0  0
  2  8  1  0  0  0  0
  2  1  2  0  0  0  0
  3  2  1  0  0  0  0
  4  6  1  0  0  0  0
  4  3  1  0  0  0  0
  5  4  2  0  0  0  0
  6  7  1  0  0  0  0
  6 11  1  0  0  0  0
  7 12  1  0  0  0  0
  7  8  2  0  0  0  0
  8 13  1  0  0  0  0
  9  1  1  0  0  0  0
 10  6  1  0  0  0  0
M  END
