14
title
N 0.057077717 2.0938618 -1.3996843
C 0.20200157 1.1598556 -0.5666799
C -0.926886 0.6428892 0.29337275
C -0.88987535 -0.8621853 0.41467118
N -1.925883 -1.5783718 0.38255465
O 0.37394413 -1.3885801 0.5390864
C 1.4127699 -0.44049758 0.6642534
O 1.3981631 0.5081649 -0.38145843
H 0.94175196 2.2984743 -1.8684742
H -0.8270611 1.0770293 1.2989702
H -1.8839722 0.9640712 -0.10972072
H -1.6846431 -2.5653312 0.49206942
H 1.3510928 0.06533331 1.6378728
H 2.351356 -0.98734075 0.5817973
