title
 OpenBabel02282109583D

 14 14  0  0  0  0  0  0  0  0999 V2000
    0.0571    2.0939   -1.3997 N   0  0  0  0  0  0  0  0  0  0  0  0
    0.2020    1.1599   -0.5667 C   0  0  0  0  0  0  0  0  0  0  0  0
   -0.9269    0.6429    0.2934 C   0  0  0  0  0  0  0  0  0  0  0  0
   -0.8899   -0.8622    0.4147 C   0  0  0  0  0  0  0  0  0  0  0  0
   -1.9259   -1.5784    0.3826 N   0  0  0  0  0  0  0  0  0  0  0  0
    0.3739   -1.3886    0.5391 O   0  0  0  0  0  0  0  0  0  0  0  0
    1.4128   -0.4405    0.6643 C   0  0  0  0  0  0  0  0  0  0  0  0
    1.3982    0.5082   -0.3815 O   0  0  0  0  0  0  0  0  0  0  0  0
    0.9418    2.2985   -1.8685 H   0  0  0  0  0  0  0  0  0  0  0  0
   -0.8271    1.0770    1.2990 H   0  0  0  0  0  0  0  0  0  0  0  0
   -1.8840    0.9641   -0.1097 H   0  0  0  0  0  0  0  0  0  0  0  0
   -1.6846   -2.5653    0.4921 H   0  0  0  0  0  0  0  0  0  0  0  0
    1.3511    0.0653    1.6379 H   0  0  0  0  0  0  0  0  0  0  0  0
    2.3514   -0.9873    0.5818 H   0  0  0  0  0  0  0  0  0  0  0  0
  1  2  2  0  0  0  0
  2  8  1  0  0  0  0
  2  3  1  0  0  0  0
  3  4  1  0  0  0  0
  3 10  1  0  0  0  0
  4  6  1  0  0  0  0
  5  4  2  0  0  0  0
  5 12  1  0  0  0  0
  6  7  1  0  0  0  0
  7 13  1  0  0  0  0
  8  7  1  0  0  0  0
  9  1  1  0  0  0  0
 11  3  1  0  0  0  0
 14  7  1  0  0  0  0
M  END
