15
title
N 0.09468719 2.097887 -1.361174
C 0.22980808 1.1703069 -0.5133192
C -0.95652694 0.60645634 0.23254766
C -0.94134074 -0.9170089 0.33598065
O -1.9465696 -1.5796006 0.36063612
C 0.45864862 -1.5152133 0.4223528
C 1.4948031 -0.44068733 0.7355633
O 1.447787 0.62019485 -0.2269548
H 1.0038848 2.3548489 -1.7516917
H -0.93080264 0.9825911 1.2673838
H -1.8822335 0.95711696 -0.22041865
H 0.4663414 -2.3171039 1.1661607
H 0.6842516 -1.9720616 -0.5497412
H 1.3476279 -0.03348413 1.7452134
H 2.51122 -0.8347627 0.6807425
