13
title
N 0.10282359 2.1807797 -1.280472
C 0.22525653 1.2026213 -0.49679142
C -0.938764 0.6232645 0.2713041
C -0.89281285 -0.896059 0.32302693
O -1.8336499 -1.6248561 0.23235963
O 0.367401 -1.4038914 0.47792247
C 1.3965926 -0.45572582 0.69379014
O 1.4169065 0.5517042 -0.2938498
H 1.0026 2.425731 -1.6979455
H -0.9026208 0.9900515 1.3075064
H -1.8797374 0.9522894 -0.16336428
H 1.2933128 -0.011156236 1.692953
H 2.339837 -0.99420685 0.6152263
