title
 OpenBabel02282109583D

 16 16  0  0  0  0  0  0  0  0999 V2000
   -0.4007    2.5163   -0.3895 N   0  0  0  0  0  0  0  0  0  0  0  0
   -0.3543    1.2512   -0.2580 C   0  0  0  0  0  0  0  0  0  0  0  0
   -1.6267    0.4428   -0.1538 C   0  0  0  0  0  0  0  0  0  0  0  0
   -1.4540   -0.7889    0.7405 C   0  0  0  0  0  0  0  0  0  0  0  0
   -0.2982   -1.6498    0.2224 C   0  0  0  0  0  0  0  0  0  0  0  0
    0.9843   -0.8621    0.0192 C   0  0  0  0  0  0  0  0  0  0  0  0
    2.0906   -1.3544    0.0433 O   0  0  0  0  0  0  0  0  0  0  0  0
    0.8258    0.4997   -0.2144 N   0  0  0  0  0  0  0  0  0  0  0  0
    0.5329    2.9254   -0.4728 H   0  0  0  0  0  0  0  0  0  0  0  0
   -2.4130    1.1117    0.1983 H   0  0  0  0  0  0  0  0  0  0  0  0
   -1.9071    0.1204   -1.1660 H   0  0  0  0  0  0  0  0  0  0  0  0
   -1.2507   -0.4743    1.7710 H   0  0  0  0  0  0  0  0  0  0  0  0
   -2.3789   -1.3722    0.7635 H   0  0  0  0  0  0  0  0  0  0  0  0
   -0.0587   -2.4827    0.8869 H   0  0  0  0  0  0  0  0  0  0  0  0
   -0.5616   -2.0885   -0.7496 H   0  0  0  0  0  0  0  0  0  0  0  0
    1.7029    0.9947   -0.3222 H   0  0  0  0  0  0  0  0  0  0  0  0
  1  2  2  0  0  0  0
  2  8  1  0  0  0  0
  2  3  1  0  0  0  0
  3 10  1  0  0  0  0
  3  4  1  0  0  0  0
  4 13  1  0  0  0  0
  4 12  1  0  0  0  0
  5  4  1  0  0  0  0
  5 14  1  0  0  0  0
  6  7  2  0  0  0  0
  6  5  1  0  0  0  0
  8  6  1  0  0  0  0
  9  1  1  0  0  0  0
 11  3  1  0  0  0  0
 15  5  1  0  0  0  0
 16  8  1  0  0  0  0
M  END
