15
title
N -0.41708812 2.3582525 -0.78504455
C -0.37075847 1.1288999 -0.5133437
C -1.5706837 0.2272006 -0.5907536
C -1.5513068 -0.8071699 0.53655654
C -0.24869144 -1.6019744 0.44736066
C 0.9905201 -0.7337632 0.3497598
O 2.0912967 -1.0886518 0.649959
O 0.8362447 0.5504169 -0.13421144
H 0.5074831 2.7825677 -0.68555105
H -2.458907 0.8594988 -0.5756696
H -1.5541056 -0.29061952 -1.5596747
H -1.622958 -0.30423024 1.5078295
H -2.411094 -1.4778022 0.4589757
H -0.09607148 -2.2740955 1.2943017
H -0.25549307 -2.2313159 -0.45291817
