title
 OpenBabel02282109583D

 15 15  0  0  0  0  0  0  0  0999 V2000
   -0.3959    2.4983   -0.5608 N   0  0  0  0  0  0  0  0  0  0  0  0
   -0.3384    1.2451   -0.3448 C   0  0  0  0  0  0  0  0  0  0  0  0
   -1.6011    0.4206   -0.2477 C   0  0  0  0  0  0  0  0  0  0  0  0
   -1.4386   -0.7327    0.7417 C   0  0  0  0  0  0  0  0  0  0  0  0
   -0.2412   -1.4842    0.3922 N   0  0  0  0  0  0  0  0  0  0  0  0
    0.9453   -0.8652    0.0972 C   0  0  0  0  0  0  0  0  0  0  0  0
    2.0241   -1.4218    0.0841 O   0  0  0  0  0  0  0  0  0  0  0  0
    0.8279    0.4955   -0.2103 N   0  0  0  0  0  0  0  0  0  0  0  0
    0.5361    2.9131   -0.6331 H   0  0  0  0  0  0  0  0  0  0  0  0
   -2.4225    1.0808    0.0314 H   0  0  0  0  0  0  0  0  0  0  0  0
   -1.8173    0.0104   -1.2417 H   0  0  0  0  0  0  0  0  0  0  0  0
   -1.3872   -0.3449    1.7704 H   0  0  0  0  0  0  0  0  0  0  0  0
   -2.2995   -1.4039    0.6860 H   0  0  0  0  0  0  0  0  0  0  0  0
   -0.1192   -2.4138    0.7625 H   0  0  0  0  0  0  0  0  0  0  0  0
    1.7186    0.9399   -0.3815 H   0  0  0  0  0  0  0  0  0  0  0  0
  1  2  2  0  0  0  0
  2  3  1  0  0  0  0
  2  8  1  0  0  0  0
  3 10  1  0  0  0  0
  3  4  1  0  0  0  0
  4 12  1  0  0  0  0
  5  4  1  0  0  0  0
  5 14  1  0  0  0  0
  6  5  1  0  0  0  0
  7  6  2  0  0  0  0
  8  6  1  0  0  0  0
  9  1  1  0  0  0  0
 11  3  1  0  0  0  0
 13  4  1  0  0  0  0
 15  8  1  0  0  0  0
M  END
