title
 OpenBabel02282109583D

 15 15  0  0  0  0  0  0  0  0999 V2000
   -0.3760    2.5234   -0.3768 N   0  0  0  0  0  0  0  0  0  0  0  0
   -0.3166    1.2611   -0.2395 C   0  0  0  0  0  0  0  0  0  0  0  0
   -1.5866    0.4323   -0.1396 C   0  0  0  0  0  0  0  0  0  0  0  0
   -1.4536   -0.7695    0.6759 N   0  0  0  0  0  0  0  0  0  0  0  0
   -0.3464   -1.5991    0.2197 C   0  0  0  0  0  0  0  0  0  0  0  0
    0.9775   -0.8653    0.0079 C   0  0  0  0  0  0  0  0  0  0  0  0
    2.0581   -1.4102   -0.0055 O   0  0  0  0  0  0  0  0  0  0  0  0
    0.8605    0.5070   -0.1763 N   0  0  0  0  0  0  0  0  0  0  0  0
    0.5519    2.9455   -0.4621 H   0  0  0  0  0  0  0  0  0  0  0  0
   -2.3790    1.0745    0.2466 H   0  0  0  0  0  0  0  0  0  0  0  0
   -1.8797    0.1287   -1.1542 H   0  0  0  0  0  0  0  0  0  0  0  0
   -1.3066   -0.5078    1.6458 H   0  0  0  0  0  0  0  0  0  0  0  0
   -0.1592   -2.4129    0.9235 H   0  0  0  0  0  0  0  0  0  0  0  0
   -0.6166   -2.0653   -0.7383 H   0  0  0  0  0  0  0  0  0  0  0  0
    1.7455    0.9905   -0.2765 H   0  0  0  0  0  0  0  0  0  0  0  0
  1  2  2  0  0  0  0
  2  8  1  0  0  0  0
  2  3  1  0  0  0  0
  3 10  1  0  0  0  0
  3  4  1  0  0  0  0
  4 12  1  0  0  0  0
  5  4  1  0  0  0  0
  5 13  1  0  0  0  0
  6  5  1  0  0  0  0
  7  6  2  0  0  0  0
  8  6  1  0  0  0  0
  9  1  1  0  0  0  0
 11  3  1  0  0  0  0
 14  5  1  0  0  0  0
 15  8  1  0  0  0  0
M  END
