title
 OpenBabel02282109583D

 15 15  0  0  0  0  0  0  0  0999 V2000
   -0.3954    2.3833   -0.8833 N   0  0  0  0  0  0  0  0  0  0  0  0
   -0.2887    1.1773   -0.4936 C   0  0  0  0  0  0  0  0  0  0  0  0
   -1.5153    0.2848   -0.4611 C   0  0  0  0  0  0  0  0  0  0  0  0
   -1.4267   -0.7112    0.5345 O   0  0  0  0  0  0  0  0  0  0  0  0
   -0.3082   -1.5456    0.3253 C   0  0  0  0  0  0  0  0  0  0  0  0
    0.9979   -0.7736    0.3446 C   0  0  0  0  0  0  0  0  0  0  0  0
    2.0670   -1.3507    0.7208 N   0  0  0  0  0  0  0  0  0  0  0  0
    0.8845    0.5433   -0.0930 N   0  0  0  0  0  0  0  0  0  0  0  0
    0.5069    2.8643   -0.9024 H   0  0  0  0  0  0  0  0  0  0  0  0
   -2.3865    0.9029   -0.2453 H   0  0  0  0  0  0  0  0  0  0  0  0
   -1.6494   -0.1694   -1.4581 H   0  0  0  0  0  0  0  0  0  0  0  0
   -0.2837   -2.2858    1.1248 H   0  0  0  0  0  0  0  0  0  0  0  0
   -0.3914   -2.0773   -0.6384 H   0  0  0  0  0  0  0  0  0  0  0  0
    2.8831   -0.7391    0.6454 H   0  0  0  0  0  0  0  0  0  0  0  0
    1.7235    1.1086   -0.0651 H   0  0  0  0  0  0  0  0  0  0  0  0
  1  2  2  0  0  0  0
  2  3  1  0  0  0  0
  2  8  1  0  0  0  0
  3 10  1  0  0  0  0
  3  4  1  0  0  0  0
  5  6  1  0  0  0  0
  5  4  1  0  0  0  0
  5 12  1  0  0  0  0
  6  7  2  0  0  0  0
  8 15  1  0  0  0  0
  8  6  1  0  0  0  0
  9  1  1  0  0  0  0
 11  3  1  0  0  0  0
 13  5  1  0  0  0  0
 14  7  1  0  0  0  0
M  END
