15
title
N -0.39537463 2.383298 -0.88327235
C -0.28868046 1.1773152 -0.4935597
C -1.515262 0.28477103 -0.4611387
O -1.4267263 -0.71123075 0.5344566
C -0.30820933 -1.5456347 0.3252996
C 0.99787766 -0.77364385 0.34455588
N 2.0670292 -1.3507407 0.72075915
N 0.88449246 0.54334635 -0.09295202
H 0.506919 2.8642673 -0.9023556
H -2.3864627 0.90286225 -0.24525435
H -1.6494408 -0.16939007 -1.4581277
H -0.28365505 -2.2857695 1.1248201
H -0.39137858 -2.0772762 -0.6383873
H 2.883129 -0.73907244 0.64544773
H 1.7234567 1.1085819 -0.065054275
