title
 OpenBabel02282109583D

 13 13  0  0  0  0  0  0  0  0999 V2000
   -0.3769    2.3784   -0.7533 N   0  0  0  0  0  0  0  0  0  0  0  0
   -0.3133    1.1581   -0.4603 C   0  0  0  0  0  0  0  0  0  0  0  0
   -1.4929    0.2263   -0.5681 C   0  0  0  0  0  0  0  0  0  0  0  0
   -1.4755   -0.7242    0.4777 O   0  0  0  0  0  0  0  0  0  0  0  0
   -0.3259   -1.5295    0.4042 C   0  0  0  0  0  0  0  0  0  0  0  0
    0.9753   -0.7439    0.3280 C   0  0  0  0  0  0  0  0  0  0  0  0
    2.0507   -1.2100    0.5514 O   0  0  0  0  0  0  0  0  0  0  0  0
    0.8752    0.5812   -0.0308 O   0  0  0  0  0  0  0  0  0  0  0  0
    0.5333    2.8304   -0.6445 H   0  0  0  0  0  0  0  0  0  0  0  0
   -2.4093    0.8090   -0.4834 H   0  0  0  0  0  0  0  0  0  0  0  0
   -1.4817   -0.2716   -1.5527 H   0  0  0  0  0  0  0  0  0  0  0  0
   -0.2878   -2.1485    1.3024 H   0  0  0  0  0  0  0  0  0  0  0  0
   -0.3540   -2.2023   -0.4703 H   0  0  0  0  0  0  0  0  0  0  0  0
  1  9  1  0  0  0  0
  1  2  2  0  0  0  0
  2  8  1  0  0  0  0
  3 10  1  0  0  0  0
  3  2  1  0  0  0  0
  3  4  1  0  0  0  0
  5  4  1  0  0  0  0
  5 12  1  0  0  0  0
  6  5  1  0  0  0  0
  6  7  2  0  0  0  0
  8  6  1  0  0  0  0
 11  3  1  0  0  0  0
 13  5  1  0  0  0  0
M  END
