title
 OpenBabel02282109583D

 13 13  0  0  0  0  0  0  0  0999 V2000
    0.1641    2.3415   -0.9119 N   0  0  0  0  0  0  0  0  0  0  0  0
    0.2686    1.1763   -0.4389 C   0  0  0  0  0  0  0  0  0  0  0  0
   -0.7996    0.5433    0.1811 N   0  0  0  0  0  0  0  0  0  0  0  0
   -0.9136   -0.8286    0.3565 C   0  0  0  0  0  0  0  0  0  0  0  0
   -2.0299   -1.3793    0.5642 N   0  0  0  0  0  0  0  0  0  0  0  0
    0.2805   -1.4872    0.2734 O   0  0  0  0  0  0  0  0  0  0  0  0
    1.4112   -0.6574    0.4404 C   0  0  0  0  0  0  0  0  0  0  0  0
    1.4012    0.4134   -0.4806 O   0  0  0  0  0  0  0  0  0  0  0  0
    1.0606    2.6634   -1.2695 H   0  0  0  0  0  0  0  0  0  0  0  0
   -1.6668    1.0594    0.1930 H   0  0  0  0  0  0  0  0  0  0  0  0
   -1.9110   -2.3761    0.7297 H   0  0  0  0  0  0  0  0  0  0  0  0
    1.4447   -0.2699    1.4670 H   0  0  0  0  0  0  0  0  0  0  0  0
    2.2883   -1.2629    0.2178 H   0  0  0  0  0  0  0  0  0  0  0  0
  1  2  2  0  0  0  0
  2  3  1  0  0  0  0
  3 10  1  0  0  0  0
  3  4  1  0  0  0  0
  4  5  2  0  0  0  0
  5 11  1  0  0  0  0
  6  4  1  0  0  0  0
  6  7  1  0  0  0  0
  7 12  1  0  0  0  0
  8  2  1  0  0  0  0
  8  7  1  0  0  0  0
  9  1  1  0  0  0  0
 13  7  1  0  0  0  0
M  END
