title
 OpenBabel02282109583D

 16 16  0  0  0  0  0  0  0  0999 V2000
   -0.2076   -2.3528    0.6558 O   0  0  0  0  0  0  0  0  0  0  0  0
   -0.2386   -1.1473    0.6474 C   0  0  0  0  0  0  0  0  0  0  0  0
   -1.5294   -0.3427    0.6967 C   0  0  0  0  0  0  0  0  0  0  0  0
   -1.5723    0.7054   -0.4309 C   0  0  0  0  0  0  0  0  0  0  0  0
   -0.3422    1.6316   -0.4031 C   0  0  0  0  0  0  0  0  0  0  0  0
    0.9493    0.8282   -0.4530 C   0  0  0  0  0  0  0  0  0  0  0  0
    1.8375    1.0482   -1.2385 O   0  0  0  0  0  0  0  0  0  0  0  0
    1.0382   -0.3071    0.5695 C   0  0  0  0  0  0  0  0  0  0  0  0
   -2.3715   -1.0357    0.6423 H   0  0  0  0  0  0  0  0  0  0  0  0
   -1.5752    0.1700    1.6683 H   0  0  0  0  0  0  0  0  0  0  0  0
   -1.6217    0.1951   -1.4003 H   0  0  0  0  0  0  0  0  0  0  0  0
   -2.4844    1.3025   -0.3438 H   0  0  0  0  0  0  0  0  0  0  0  0
   -0.3433    2.3372   -1.2364 H   0  0  0  0  0  0  0  0  0  0  0  0
   -0.3476    2.2114    0.5311 H   0  0  0  0  0  0  0  0  0  0  0  0
    1.1694    0.1634    1.5557 H   0  0  0  0  0  0  0  0  0  0  0  0
    1.9021   -0.9401    0.3658 H   0  0  0  0  0  0  0  0  0  0  0  0
  2  1  2  0  0  0  0
  2  3  1  0  0  0  0
  3 10  1  0  0  0  0
  4  5  1  0  0  0  0
  4 12  1  0  0  0  0
  4  3  1  0  0  0  0
  5 14  1  0  0  0  0
  6  5  1  0  0  0  0
  6  8  1  0  0  0  0
  7  6  2  0  0  0  0
  8  2  1  0  0  0  0
  8 15  1  0  0  0  0
  9  3  1  0  0  0  0
 11  4  1  0  0  0  0
 13  5  1  0  0  0  0
 16  8  1  0  0  0  0
M  END
