13
title
O -0.28471556 -2.5016327 -0.112785205
C -0.33287212 -1.2968905 -0.074827366
C -1.5989237 -0.4645554 -0.11585343
C -1.3754896 0.8620584 0.5941398
O -0.232769 1.5523784 0.06079578
C 0.92350924 0.87316155 -0.07925519
O 1.9684583 1.4293776 -0.26561254
N 0.81915355 -0.519783 -0.003889417
H -1.8603618 -0.29322103 -1.1669778
H -2.4089036 -1.0366215 0.340826
H -2.2131448 1.5462952 0.45438758
H -1.2268103 0.71027803 1.6703194
H 1.7008134 -1.0119376 -0.06662952
