title
 OpenBabel02282109583D

 15 15  0  0  0  0  0  0  0  0999 V2000
   -0.0671   -1.9838    1.4917 O   0  0  0  0  0  0  0  0  0  0  0  0
   -0.2075   -1.1556    0.6280 C   0  0  0  0  0  0  0  0  0  0  0  0
   -1.5531   -0.4697    0.3474 C   0  0  0  0  0  0  0  0  0  0  0  0
   -1.5494    0.4879   -0.7511 N   0  0  0  0  0  0  0  0  0  0  0  0
   -0.4552    1.4473   -0.6719 C   0  0  0  0  0  0  0  0  0  0  0  0
    0.9362    0.8415   -0.4338 C   0  0  0  0  0  0  0  0  0  0  0  0
    1.9349    1.5121   -0.3668 O   0  0  0  0  0  0  0  0  0  0  0  0
    0.9412   -0.6770   -0.2595 C   0  0  0  0  0  0  0  0  0  0  0  0
   -2.3084   -1.2415    0.1697 H   0  0  0  0  0  0  0  0  0  0  0  0
   -1.8502    0.0384    1.2756 H   0  0  0  0  0  0  0  0  0  0  0  0
   -1.5376    0.0071   -1.6430 H   0  0  0  0  0  0  0  0  0  0  0  0
   -0.4213    2.0537   -1.5822 H   0  0  0  0  0  0  0  0  0  0  0  0
   -0.6417    2.1486    0.1536 H   0  0  0  0  0  0  0  0  0  0  0  0
    1.9027   -1.0291    0.1140 H   0  0  0  0  0  0  0  0  0  0  0  0
    0.7720   -1.1109   -1.2580 H   0  0  0  0  0  0  0  0  0  0  0  0
  2  1  2  0  0  0  0
  3  2  1  0  0  0  0
  3 10  1  0  0  0  0
  4  5  1  0  0  0  0
  4  3  1  0  0  0  0
  5  6  1  0  0  0  0
  5 13  1  0  0  0  0
  6  7  2  0  0  0  0
  6  8  1  0  0  0  0
  8 14  1  0  0  0  0
  8  2  1  0  0  0  0
  9  3  1  0  0  0  0
 11  4  1  0  0  0  0
 12  5  1  0  0  0  0
 15  8  1  0  0  0  0
M  END
