15
title
O -0.06706505 -1.9837724 1.4916834
C -0.20747538 -1.155602 0.6279516
C -1.5530915 -0.46973917 0.3473623
N -1.5493718 0.48795 -0.7511333
C -0.45522502 1.4473432 -0.67187536
C 0.9362138 0.8414961 -0.43382114
O 1.9349157 1.5121065 -0.36680442
C 0.94118184 -0.6769705 -0.25954098
H -2.3084033 -1.2414912 0.1697266
H -1.8502092 0.038374797 1.2755808
H -1.5376124 0.007050172 -1.6429949
H -0.4212815 2.0537496 -1.5822442
H -0.64174414 2.14861 0.15364482
H 1.902742 -1.0290631 0.113955595
H 0.771975 -1.1108797 -1.2579503
