title
 OpenBabel02282109583D

 14 14  0  0  0  0  0  0  0  0999 V2000
   -0.2507   -2.4782   -0.1390 O   0  0  0  0  0  0  0  0  0  0  0  0
   -0.2951   -1.2733   -0.0759 C   0  0  0  0  0  0  0  0  0  0  0  0
   -1.5878   -0.4720   -0.0488 C   0  0  0  0  0  0  0  0  0  0  0  0
   -1.3879    0.8073    0.6153 N   0  0  0  0  0  0  0  0  0  0  0  0
   -0.3719    1.6143   -0.0437 C   0  0  0  0  0  0  0  0  0  0  0  0
    0.9626    0.8847   -0.0697 C   0  0  0  0  0  0  0  0  0  0  0  0
    2.0329    1.4402   -0.1294 O   0  0  0  0  0  0  0  0  0  0  0  0
    0.8638   -0.5033   -0.0598 N   0  0  0  0  0  0  0  0  0  0  0  0
   -1.9303   -0.3882   -1.0995 H   0  0  0  0  0  0  0  0  0  0  0  0
   -2.3264   -1.0695    0.4890 H   0  0  0  0  0  0  0  0  0  0  0  0
   -2.2616    1.3164    0.6747 H   0  0  0  0  0  0  0  0  0  0  0  0
   -0.6111    1.8744   -1.0941 H   0  0  0  0  0  0  0  0  0  0  0  0
   -0.2175    2.5496    0.4976 H   0  0  0  0  0  0  0  0  0  0  0  0
    1.7393   -1.0134   -0.0896 H   0  0  0  0  0  0  0  0  0  0  0  0
  1  2  2  0  0  0  0
  2  8  1  0  0  0  0
  2  3  1  0  0  0  0
  3 10  1  0  0  0  0
  3  4  1  0  0  0  0
  4 11  1  0  0  0  0
  5 13  1  0  0  0  0
  5  4  1  0  0  0  0
  6  8  1  0  0  0  0
  6  5  1  0  0  0  0
  7  6  2  0  0  0  0
  9  3  1  0  0  0  0
 12  5  1  0  0  0  0
 14  8  1  0  0  0  0
M  END
