14
title
O -0.25065908 -2.4781735 -0.13898551
C -0.29508492 -1.2732575 -0.075885035
C -1.5878428 -0.47203225 -0.048794802
N -1.3879126 0.8073332 0.61533237
C -0.37189046 1.6142964 -0.043684997
C 0.9625872 0.88466805 -0.069736175
O 2.032924 1.4401755 -0.12944016
N 0.86382014 -0.503261 -0.05980739
H -1.9303435 -0.3882087 -1.0994748
H -2.3263648 -1.0694892 0.48902124
H -2.261562 1.3163562 0.6746684
H -0.611143 1.8744216 -1.0940987
H -0.21751076 2.549582 0.49762225
H 1.7392809 -1.0134078 -0.08962817
