title
 OpenBabel02282109583D

 18 18  0  0  0  0  0  0  0  0999 V2000
    0.0269    2.7357    0.3134 C   0  0  0  0  0  0  0  0  0  0  0  0
    0.0296    1.2356    0.2601 C   0  0  0  0  0  0  0  0  0  0  0  0
   -0.0271    0.5599   -0.9011 C   0  0  0  0  0  0  0  0  0  0  0  0
    0.0334   -0.9110   -0.9951 C   0  0  0  0  0  0  0  0  0  0  0  0
   -0.0471   -1.4877   -2.0629 O   0  0  0  0  0  0  0  0  0  0  0  0
    0.2473   -1.6628    0.3144 C   0  0  0  0  0  0  0  0  0  0  0  0
   -0.3826   -0.9329    1.5049 C   0  0  0  0  0  0  0  0  0  0  0  0
    0.1144    0.5151    1.5853 C   0  0  0  0  0  0  0  0  0  0  0  0
    0.9097    3.1049    0.8511 H   0  0  0  0  0  0  0  0  0  0  0  0
    0.0184    3.1811   -0.6839 H   0  0  0  0  0  0  0  0  0  0  0  0
   -0.8463    3.1031    0.8674 H   0  0  0  0  0  0  0  0  0  0  0  0
   -0.1007    1.0817   -1.8515 H   0  0  0  0  0  0  0  0  0  0  0  0
   -0.1374   -2.6786    0.1936 H   0  0  0  0  0  0  0  0  0  0  0  0
    1.3339   -1.7486    0.4636 H   0  0  0  0  0  0  0  0  0  0  0  0
   -1.4734   -0.9280    1.3888 H   0  0  0  0  0  0  0  0  0  0  0  0
   -0.1663   -1.4607    2.4393 H   0  0  0  0  0  0  0  0  0  0  0  0
    1.1612    0.5379    1.9269 H   0  0  0  0  0  0  0  0  0  0  0  0
   -0.4500    1.0744    2.3415 H   0  0  0  0  0  0  0  0  0  0  0  0
  1  9  1  0  0  0  0
  1 11  1  0  0  0  0
  2  1  1  0  0  0  0
  2  8  1  0  0  0  0
  3  2  2  0  0  0  0
  4  3  1  0  0  0  0
  4  6  1  0  0  0  0
  5  4  2  0  0  0  0
  6 14  1  0  0  0  0
  6  7  1  0  0  0  0
  7  8  1  0  0  0  0
  7 16  1  0  0  0  0
  8 17  1  0  0  0  0
  8 18  1  0  0  0  0
 10  1  1  0  0  0  0
 12  3  1  0  0  0  0
 13  6  1  0  0  0  0
 15  7  1  0  0  0  0
M  END
