17
title
C -0.17312494 2.6929803 0.3430649
C -0.056704856 1.1973253 0.25526682
C -0.07640747 0.52524555 -0.92937714
C -0.08071964 -0.9273128 -0.9950283
O -0.09323829 -1.5641599 -2.034838
C -0.15221964 -1.6302595 0.3675451
C 0.55273736 -0.82555073 1.4571211
N 0.04982989 0.5447487 1.4564118
H 0.72690004 3.1314948 0.7916282
H -0.3150142 3.132496 -0.64454246
H -1.0229766 2.9757566 0.9749527
H -0.16151033 1.0714843 -1.8605058
H -1.2145212 -1.7465839 0.62131745
H 0.27732396 -2.6300244 0.27500114
H 0.38234428 -1.2622013 2.4453783
H 1.6393399 -0.8320667 1.2690086
H 0.3139802 1.1142097 2.245637
