17
title
C 0.05234392 2.739837 0.28306288
C 0.019529244 1.2416372 0.2211048
C -0.07238419 0.55656415 -0.9319097
C 0.0141834235 -0.91417706 -0.9867023
O -0.047694154 -1.5349199 -2.0304227
C 0.24486087 -1.6083678 0.35797378
N -0.3084373 -0.8936361 1.508004
C 0.11737934 0.5014993 1.5409459
H 0.95850915 3.0862408 0.7964592
H 0.027751552 3.189617 -0.7120547
H -0.79618233 3.125591 0.8624045
H -0.16496958 1.0623035 -1.8895408
H -0.16624025 -2.6197119 0.30765527
H 1.3314799 -1.7117237 0.49764922
H -1.3220057 -0.9182888 1.4447294
H 1.1629997 0.54528815 1.8880802
H -0.46759883 1.029123 2.3037088
