title
 OpenBabel02282109583D

 17 17  0  0  0  0  0  0  0  0999 V2000
    0.1349    2.7502    0.2833 C   0  0  0  0  0  0  0  0  0  0  0  0
    0.0652    1.2522    0.2439 C   0  0  0  0  0  0  0  0  0  0  0  0
    0.0613    0.5495   -0.8966 C   0  0  0  0  0  0  0  0  0  0  0  0
    0.0847   -0.9325   -0.9403 C   0  0  0  0  0  0  0  0  0  0  0  0
    0.2395   -1.5586   -1.9757 O   0  0  0  0  0  0  0  0  0  0  0  0
   -0.0353   -1.5548    0.2834 N   0  0  0  0  0  0  0  0  0  0  0  0
   -0.5865   -0.8604    1.4375 C   0  0  0  0  0  0  0  0  0  0  0  0
    0.0528    0.5226    1.5680 C   0  0  0  0  0  0  0  0  0  0  0  0
    1.0100    3.0829    0.8567 H   0  0  0  0  0  0  0  0  0  0  0  0
    0.1968    3.1807   -0.7188 H   0  0  0  0  0  0  0  0  0  0  0  0
   -0.7437    3.1701    0.7890 H   0  0  0  0  0  0  0  0  0  0  0  0
    0.1010    1.0293   -1.8686 H   0  0  0  0  0  0  0  0  0  0  0  0
   -0.1667   -2.5537    0.2170 H   0  0  0  0  0  0  0  0  0  0  0  0
   -1.6793   -0.7461    1.3514 H   0  0  0  0  0  0  0  0  0  0  0  0
   -0.3914   -1.4567    2.3336 H   0  0  0  0  0  0  0  0  0  0  0  0
    1.0867    0.4297    1.9309 H   0  0  0  0  0  0  0  0  0  0  0  0
   -0.4885    1.1051    2.3219 H   0  0  0  0  0  0  0  0  0  0  0  0
  1 11  1  0  0  0  0
  1  9  1  0  0  0  0
  2  1  1  0  0  0  0
  2  8  1  0  0  0  0
  3  2  2  0  0  0  0
  4  3  1  0  0  0  0
  4  6  1  0  0  0  0
  5  4  2  0  0  0  0
  6  7  1  0  0  0  0
  7  8  1  0  0  0  0
  7 15  1  0  0  0  0
  8 16  1  0  0  0  0
  8 17  1  0  0  0  0
 10  1  1  0  0  0  0
 12  3  1  0  0  0  0
 13  6  1  0  0  0  0
 14  7  1  0  0  0  0
M  END
