17
title
C 0.13494371 2.75016 0.283283
C 0.06523018 1.2521572 0.24387255
C 0.06131149 0.5495413 -0.89656603
C 0.08473095 -0.9324918 -0.94030607
O 0.23945822 -1.5586073 -1.9756843
N -0.035330296 -1.5547528 0.28340235
C -0.58654296 -0.860414 1.4375467
C 0.052782457 0.52257746 1.5679858
H 1.0099938 3.0829139 0.85669976
H 0.19683714 3.1806886 -0.7188153
H -0.74371797 3.1701417 0.7890479
H 0.100972906 1.0292606 -1.868555
H -0.16667022 -2.5537388 0.21702564
H -1.6792877 -0.7461344 1.351422
H -0.3913912 -1.4566867 2.3336291
H 1.0867474 0.4296597 1.9308827
H -0.48851165 1.1050918 2.3218699
