title
 OpenBabel02282109583D

 16 16  0  0  0  0  0  0  0  0999 V2000
    0.0199    2.7600    0.3282 C   0  0  0  0  0  0  0  0  0  0  0  0
    0.0185    1.2630    0.2648 C   0  0  0  0  0  0  0  0  0  0  0  0
   -0.1120    0.5724   -0.8757 C   0  0  0  0  0  0  0  0  0  0  0  0
    0.0275   -0.8973   -0.9464 C   0  0  0  0  0  0  0  0  0  0  0  0
    0.1655   -1.5020   -1.9785 O   0  0  0  0  0  0  0  0  0  0  0  0
    0.0579   -1.5767    0.2353 O   0  0  0  0  0  0  0  0  0  0  0  0
   -0.3958   -0.8970    1.4111 C   0  0  0  0  0  0  0  0  0  0  0  0
    0.2080    0.4944    1.5486 C   0  0  0  0  0  0  0  0  0  0  0  0
    0.9501    3.1259    0.7816 H   0  0  0  0  0  0  0  0  0  0  0  0
   -0.0813    3.2098   -0.6621 H   0  0  0  0  0  0  0  0  0  0  0  0
   -0.7977    3.1239    0.9630 H   0  0  0  0  0  0  0  0  0  0  0  0
   -0.2299    1.0591   -1.8374 H   0  0  0  0  0  0  0  0  0  0  0  0
   -1.4912   -0.8240    1.3784 H   0  0  0  0  0  0  0  0  0  0  0  0
   -0.1211   -1.5442    2.2468 H   0  0  0  0  0  0  0  0  0  0  0  0
    1.2789    0.4330    1.7882 H   0  0  0  0  0  0  0  0  0  0  0  0
   -0.2681    1.0146    2.3881 H   0  0  0  0  0  0  0  0  0  0  0  0
  1  9  1  0  0  0  0
  1 11  1  0  0  0  0
  2  1  1  0  0  0  0
  2  8  1  0  0  0  0
  3  2  2  0  0  0  0
  4  3  1  0  0  0  0
  4  6  1  0  0  0  0
  5  4  2  0  0  0  0
  6  7  1  0  0  0  0
  7  8  1  0  0  0  0
  7 14  1  0  0  0  0
  8 15  1  0  0  0  0
  8 16  1  0  0  0  0
 10  1  1  0  0  0  0
 12  3  1  0  0  0  0
 13  7  1  0  0  0  0
M  END
