16
title
N 0.2947426 2.6256964 0.04341601
C 0.22568418 1.250028 -0.033833515
C -0.91678935 0.53953856 0.061623976
C -0.9449143 -0.9107907 -0.041049015
N -2.0382059 -1.5591264 -0.12538254
O 0.26441944 -1.5686102 -0.10294684
C 1.399993 -0.8779919 0.41056535
C 1.5351012 0.5204463 -0.18345033
H 1.0995227 3.061159 -0.38029036
H -0.56384146 3.1303482 -0.12119989
H -1.884906 1.0171996 0.15501066
H -1.8366425 -2.5586054 -0.18891716
H 1.3244151 -0.8065908 1.5043947
H 2.2629879 -1.501612 0.16499928
H 1.8134155 0.46217516 -1.2442341
H 2.3357012 1.0612558 0.33496118
