17
title
N 0.32342786 2.5809212 0.2715465
C 0.25617734 1.22282 0.10657594
C -0.9171356 0.53916156 0.085741
C -0.9948683 -0.9138501 0.04521156
O -2.0568297 -1.5156043 0.033913646
C 0.33664107 -1.6688175 0.047642592
C 1.4638819 -0.86885697 -0.6104778
C 1.5896642 0.5185621 0.027314648
H 1.1478188 3.06253 -0.0483943
H -0.53185916 3.1103144 0.20493214
H -1.8661301 1.0668417 0.12964867
H 0.5927229 -1.8808241 1.0957592
H 0.17698231 -2.633894 -0.43966955
H 2.4170768 -1.4018295 -0.5323994
H 1.2504324 -0.7523777 -1.6797935
H 2.299187 1.1395146 -0.5348063
H 1.9994407 0.43441018 1.043856
