title
 OpenBabel02282109583D

 16 16  0  0  0  0  0  0  0  0999 V2000
    0.2962    2.5823    0.2525 N   0  0  0  0  0  0  0  0  0  0  0  0
    0.2168    1.2256    0.0854 C   0  0  0  0  0  0  0  0  0  0  0  0
   -0.9504    0.5378    0.0400 C   0  0  0  0  0  0  0  0  0  0  0  0
   -0.9852   -0.9142    0.0305 C   0  0  0  0  0  0  0  0  0  0  0  0
   -2.0166   -1.5644    0.0568 O   0  0  0  0  0  0  0  0  0  0  0  0
    0.3756   -1.6172    0.0407 C   0  0  0  0  0  0  0  0  0  0  0  0
    1.4029   -0.7904   -0.5878 N   0  0  0  0  0  0  0  0  0  0  0  0
    1.5437    0.5042    0.0563 C   0  0  0  0  0  0  0  0  0  0  0  0
    1.1188    3.0568   -0.0840 H   0  0  0  0  0  0  0  0  0  0  0  0
   -0.5570    3.1135    0.1727 H   0  0  0  0  0  0  0  0  0  0  0  0
   -1.9078    1.0510    0.0545 H   0  0  0  0  0  0  0  0  0  0  0  0
    0.5998   -1.8724    1.0960 H   0  0  0  0  0  0  0  0  0  0  0  0
    0.2719   -2.5568   -0.5069 H   0  0  0  0  0  0  0  0  0  0  0  0
    2.2939   -1.2737   -0.5810 H   0  0  0  0  0  0  0  0  0  0  0  0
    2.2729    1.1022   -0.5058 H   0  0  0  0  0  0  0  0  0  0  0  0
    1.9166    0.4518    1.0999 H   0  0  0  0  0  0  0  0  0  0  0  0
  2  1  1  0  0  0  0
  3 11  1  0  0  0  0
  3  2  2  0  0  0  0
  4  3  1  0  0  0  0
  4  6  1  0  0  0  0
  4  5  2  0  0  0  0
  6 12  1  0  0  0  0
  7 14  1  0  0  0  0
  7  6  1  0  0  0  0
  7  8  1  0  0  0  0
  8  2  1  0  0  0  0
  8 16  1  0  0  0  0
  9  1  1  0  0  0  0
 10  1  1  0  0  0  0
 13  6  1  0  0  0  0
 15  8  1  0  0  0  0
M  END
