15
title
N 0.28492457 2.5829468 0.24419162
C 0.19031322 1.2305052 0.07975966
C -0.9764982 0.5419807 0.019655986
C -0.9858026 -0.9089867 0.031357195
O -1.9960061 -1.5902833 0.07649258
C 0.3928008 -1.5788037 0.03252107
O 1.4121745 -0.7736776 -0.53912294
C 1.5095605 0.4873424 0.06462598
H 1.1230183 3.0504155 -0.062404152
H -0.5582267 3.13067 0.17041783
H -1.9377126 1.047633 0.018036587
H 0.6465667 -1.853171 1.071966
H 0.34101653 -2.4962559 -0.55631113
H 2.2534273 1.0528827 -0.5099345
H 1.8857465 0.41278866 1.102044
