16
title
N 0.289781 2.6191816 -0.061410703
C 0.23212378 1.2441865 -0.069869004
C -0.9171103 0.5342152 -0.07766637
C -0.9420438 -0.93174064 -0.09551215
O -1.965727 -1.5850714 -0.2267938
N 0.2979417 -1.5513505 0.0055350284
C 1.4262884 -0.84915125 0.59247714
C 1.5626006 0.530234 -0.053615354
H 1.1437246 3.0478907 -0.3816339
H -0.54416263 3.1162772 -0.3354972
H -1.8873392 1.015478 -0.1280275
H 0.22078627 -2.5427158 0.1822806
H 1.3103431 -0.7233083 1.6815951
H 2.3362434 -1.4330479 0.42490086
H 1.9230019 0.4275886 -1.0864381
H 2.303104 1.1233044 0.49410924
