title
 OpenBabel02282109583D

 16 16  0  0  0  0  0  0  0  0999 V2000
    0.2898    2.6192   -0.0614 N   0  0  0  0  0  0  0  0  0  0  0  0
    0.2321    1.2442   -0.0699 C   0  0  0  0  0  0  0  0  0  0  0  0
   -0.9171    0.5342   -0.0777 C   0  0  0  0  0  0  0  0  0  0  0  0
   -0.9420   -0.9317   -0.0955 C   0  0  0  0  0  0  0  0  0  0  0  0
   -1.9657   -1.5851   -0.2268 O   0  0  0  0  0  0  0  0  0  0  0  0
    0.2979   -1.5514    0.0055 N   0  0  0  0  0  0  0  0  0  0  0  0
    1.4263   -0.8492    0.5925 C   0  0  0  0  0  0  0  0  0  0  0  0
    1.5626    0.5302   -0.0536 C   0  0  0  0  0  0  0  0  0  0  0  0
    1.1437    3.0479   -0.3816 H   0  0  0  0  0  0  0  0  0  0  0  0
   -0.5442    3.1163   -0.3355 H   0  0  0  0  0  0  0  0  0  0  0  0
   -1.8873    1.0155   -0.1280 H   0  0  0  0  0  0  0  0  0  0  0  0
    0.2208   -2.5427    0.1823 H   0  0  0  0  0  0  0  0  0  0  0  0
    1.3103   -0.7233    1.6816 H   0  0  0  0  0  0  0  0  0  0  0  0
    2.3362   -1.4330    0.4249 H   0  0  0  0  0  0  0  0  0  0  0  0
    1.9230    0.4276   -1.0864 H   0  0  0  0  0  0  0  0  0  0  0  0
    2.3031    1.1233    0.4941 H   0  0  0  0  0  0  0  0  0  0  0  0
  2  1  1  0  0  0  0
  2  8  1  0  0  0  0
  3  2  2  0  0  0  0
  4  3  1  0  0  0  0
  4  6  1  0  0  0  0
  5  4  2  0  0  0  0
  6 12  1  0  0  0  0
  6  7  1  0  0  0  0
  7 13  1  0  0  0  0
  8 16  1  0  0  0  0
  8  7  1  0  0  0  0
  9  1  1  0  0  0  0
 10  1  1  0  0  0  0
 11  3  1  0  0  0  0
 14  7  1  0  0  0  0
 15  8  1  0  0  0  0
M  END
