title
 OpenBabel02282109583D

 15 15  0  0  0  0  0  0  0  0999 V2000
    0.3151    2.6241    0.0310 N   0  0  0  0  0  0  0  0  0  0  0  0
    0.2449    1.2572    0.0461 C   0  0  0  0  0  0  0  0  0  0  0  0
   -0.9074    0.5505   -0.0045 C   0  0  0  0  0  0  0  0  0  0  0  0
   -0.9400   -0.9062    0.0826 C   0  0  0  0  0  0  0  0  0  0  0  0
   -1.9395   -1.5563    0.2636 O   0  0  0  0  0  0  0  0  0  0  0  0
    0.2641   -1.5680   -0.0033 O   0  0  0  0  0  0  0  0  0  0  0  0
    1.3721   -0.8566   -0.5463 C   0  0  0  0  0  0  0  0  0  0  0  0
    1.5529    0.5123    0.1007 C   0  0  0  0  0  0  0  0  0  0  0  0
    1.1683    3.0603    0.3397 H   0  0  0  0  0  0  0  0  0  0  0  0
   -0.5239    3.1459    0.2313 H   0  0  0  0  0  0  0  0  0  0  0  0
   -1.8775    1.0337   -0.0104 H   0  0  0  0  0  0  0  0  0  0  0  0
    2.2456   -1.4920   -0.3821 H   0  0  0  0  0  0  0  0  0  0  0  0
    1.2329   -0.7345   -1.6292 H   0  0  0  0  0  0  0  0  0  0  0  0
    2.3364    1.0677   -0.4277 H   0  0  0  0  0  0  0  0  0  0  0  0
    1.8734    0.4064    1.1456 H   0  0  0  0  0  0  0  0  0  0  0  0
  1  2  1  0  0  0  0
  1 10  1  0  0  0  0
  1  9  1  0  0  0  0
  2  8  1  0  0  0  0
  3  2  2  0  0  0  0
  3  4  1  0  0  0  0
  4  5  2  0  0  0  0
  6  4  1  0  0  0  0
  7 12  1  0  0  0  0
  7  6  1  0  0  0  0
  7  8  1  0  0  0  0
  8 15  1  0  0  0  0
 11  3  1  0  0  0  0
 13  7  1  0  0  0  0
 14  8  1  0  0  0  0
M  END
