17
title
C -0.3209839 2.659572 0.2770914
C -0.41602066 1.1638871 0.22424711
C -1.5451798 0.45772362 0.33984524
C -1.5139492 -1.0482365 0.31956837
C -0.34301102 -1.5580002 -0.53568643
C 0.96738285 -0.8313011 -0.26467758
O 2.064451 -1.3413805 -0.36209387
N 0.8144495 0.5033561 0.04893443
H 0.33074597 2.9853973 1.0979217
H 0.10087006 3.0645003 -0.6508426
H -1.3057766 3.1034746 0.43173638
H -2.4859092 0.976469 0.4782529
H -1.4207872 -1.4360257 1.3457364
H -2.4543688 -1.4526154 -0.06853385
H -0.16250844 -2.6264648 -0.40534693
H -0.5686632 -1.3934137 -1.5983096
H 1.6756065 1.0219498 0.14229608
