title
 OpenBabel02282109583D

 17 17  0  0  0  0  0  0  0  0999 V2000
   -0.3210    2.6596    0.2771 C   0  0  0  0  0  0  0  0  0  0  0  0
   -0.4160    1.1639    0.2242 C   0  0  0  0  0  0  0  0  0  0  0  0
   -1.5452    0.4577    0.3398 C   0  0  0  0  0  0  0  0  0  0  0  0
   -1.5139   -1.0482    0.3196 C   0  0  0  0  0  0  0  0  0  0  0  0
   -0.3430   -1.5580   -0.5357 C   0  0  0  0  0  0  0  0  0  0  0  0
    0.9674   -0.8313   -0.2647 C   0  0  0  0  0  0  0  0  0  0  0  0
    2.0645   -1.3414   -0.3621 O   0  0  0  0  0  0  0  0  0  0  0  0
    0.8144    0.5034    0.0489 N   0  0  0  0  0  0  0  0  0  0  0  0
    0.3307    2.9854    1.0979 H   0  0  0  0  0  0  0  0  0  0  0  0
    0.1009    3.0645   -0.6508 H   0  0  0  0  0  0  0  0  0  0  0  0
   -1.3058    3.1035    0.4317 H   0  0  0  0  0  0  0  0  0  0  0  0
   -2.4859    0.9765    0.4783 H   0  0  0  0  0  0  0  0  0  0  0  0
   -1.4208   -1.4360    1.3457 H   0  0  0  0  0  0  0  0  0  0  0  0
   -2.4544   -1.4526   -0.0685 H   0  0  0  0  0  0  0  0  0  0  0  0
   -0.1625   -2.6265   -0.4053 H   0  0  0  0  0  0  0  0  0  0  0  0
   -0.5687   -1.3934   -1.5983 H   0  0  0  0  0  0  0  0  0  0  0  0
    1.6756    1.0219    0.1423 H   0  0  0  0  0  0  0  0  0  0  0  0
  1 11  1  0  0  0  0
  1  9  1  0  0  0  0
  2  1  1  0  0  0  0
  2  3  2  0  0  0  0
  3 12  1  0  0  0  0
  4  3  1  0  0  0  0
  4 13  1  0  0  0  0
  5 15  1  0  0  0  0
  5  6  1  0  0  0  0
  5  4  1  0  0  0  0
  6  8  1  0  0  0  0
  7  6  2  0  0  0  0
  8 17  1  0  0  0  0
  8  2  1  0  0  0  0
 10  1  1  0  0  0  0
 14  4  1  0  0  0  0
 16  5  1  0  0  0  0
M  END
