title
 OpenBabel02282109583D

 16 16  0  0  0  0  0  0  0  0999 V2000
   -0.3838    2.6778   -0.0149 C   0  0  0  0  0  0  0  0  0  0  0  0
   -0.4392    1.1804   -0.0690 C   0  0  0  0  0  0  0  0  0  0  0  0
   -1.5625    0.4595   -0.1227 C   0  0  0  0  0  0  0  0  0  0  0  0
   -1.5308   -1.0402   -0.2034 C   0  0  0  0  0  0  0  0  0  0  0  0
   -0.2005   -1.5383    0.1320 N   0  0  0  0  0  0  0  0  0  0  0  0
    0.9692   -0.8284    0.0960 C   0  0  0  0  0  0  0  0  0  0  0  0
    2.0695   -1.3335    0.2217 O   0  0  0  0  0  0  0  0  0  0  0  0
    0.8036    0.5412   -0.0699 N   0  0  0  0  0  0  0  0  0  0  0  0
    0.1836    3.0792   -0.8634 H   0  0  0  0  0  0  0  0  0  0  0  0
   -1.3874    3.1048   -0.0412 H   0  0  0  0  0  0  0  0  0  0  0  0
    0.1139    3.0213    0.9004 H   0  0  0  0  0  0  0  0  0  0  0  0
   -2.5261    0.9513   -0.1359 H   0  0  0  0  0  0  0  0  0  0  0  0
   -2.2574   -1.4757    0.4970 H   0  0  0  0  0  0  0  0  0  0  0  0
   -1.8360   -1.3818   -1.2088 H   0  0  0  0  0  0  0  0  0  0  0  0
   -0.0553   -2.5340    0.1791 H   0  0  0  0  0  0  0  0  0  0  0  0
    1.6521    1.0733    0.0310 H   0  0  0  0  0  0  0  0  0  0  0  0
  1 11  1  0  0  0  0
  2  1  1  0  0  0  0
  3  2  2  0  0  0  0
  4  3  1  0  0  0  0
  4  5  1  0  0  0  0
  4 13  1  0  0  0  0
  5 15  1  0  0  0  0
  6  5  1  0  0  0  0
  6  7  2  0  0  0  0
  8  2  1  0  0  0  0
  8 16  1  0  0  0  0
  8  6  1  0  0  0  0
  9  1  1  0  0  0  0
 10  1  1  0  0  0  0
 12  3  1  0  0  0  0
 14  4  1  0  0  0  0
M  END
