title
 OpenBabel02282109583D

 17 17  0  0  0  0  0  0  0  0999 V2000
    0.0077    2.7555   -0.1272 C   0  0  0  0  0  0  0  0  0  0  0  0
    0.1583    1.2710   -0.2794 C   0  0  0  0  0  0  0  0  0  0  0  0
    0.1629    0.6342   -1.4479 C   0  0  0  0  0  0  0  0  0  0  0  0
    0.3289   -0.8531   -1.5183 C   0  0  0  0  0  0  0  0  0  0  0  0
   -0.1548   -1.5532   -0.3633 O   0  0  0  0  0  0  0  0  0  0  0  0
   -0.1821   -0.9587    0.8585 C   0  0  0  0  0  0  0  0  0  0  0  0
   -0.6362   -1.5618    1.8763 N   0  0  0  0  0  0  0  0  0  0  0  0
    0.3483    0.4528    0.9753 C   0  0  0  0  0  0  0  0  0  0  0  0
    0.8664    3.1849    0.4049 H   0  0  0  0  0  0  0  0  0  0  0  0
   -0.0784    3.2543   -1.0960 H   0  0  0  0  0  0  0  0  0  0  0  0
   -0.8807    3.0013    0.4679 H   0  0  0  0  0  0  0  0  0  0  0  0
    0.0645    1.1655   -2.3900 H   0  0  0  0  0  0  0  0  0  0  0  0
   -0.2305   -1.2713   -2.3612 H   0  0  0  0  0  0  0  0  0  0  0  0
    1.3852   -1.1262   -1.6701 H   0  0  0  0  0  0  0  0  0  0  0  0
   -0.9377   -2.5037    1.6173 H   0  0  0  0  0  0  0  0  0  0  0  0
    1.4216    0.4011    1.2159 H   0  0  0  0  0  0  0  0  0  0  0  0
   -0.1315    0.9087    1.8439 H   0  0  0  0  0  0  0  0  0  0  0  0
  1  9  1  0  0  0  0
  1 11  1  0  0  0  0
  2  1  1  0  0  0  0
  2  8  1  0  0  0  0
  3  2  2  0  0  0  0
  4  3  1  0  0  0  0
  4  5  1  0  0  0  0
  5  6  1  0  0  0  0
  6  8  1  0  0  0  0
  6  7  2  0  0  0  0
  8 16  1  0  0  0  0
  8 17  1  0  0  0  0
 10  1  1  0  0  0  0
 12  3  1  0  0  0  0
 13  4  1  0  0  0  0
 14  4  1  0  0  0  0
 15  7  1  0  0  0  0
M  END
