16
title
C 0.014246673 2.8038826 -0.19214045
C 0.015281992 1.306318 -0.3037674
C 0.061225783 0.6548814 -1.461237
C 0.062422518 -0.8326275 -1.5763224
O 0.011601441 -1.5598414 -0.34452927
C -0.038122825 -0.98369545 0.8761484
O -0.07986057 -1.6868596 1.8487355
C -0.03936866 0.5335328 0.98375803
H 0.87081605 3.1550968 0.3972451
H 0.05541825 3.2819676 -1.1740129
H -0.8858073 3.1592264 0.32561064
H 0.10117536 1.1907076 -2.4061506
H -0.794784 -1.1731155 -2.1735044
H 0.96303946 -1.1771369 -2.1031218
H 0.80352974 0.79868734 1.6360528
H -0.9318205 0.8024226 1.5646894
