15
title
C -0.30286843 2.6730735 0.29710338
C -0.41092125 1.1801482 0.26925427
C -1.5376568 0.46752965 0.30352268
C -1.4262785 -1.0254377 0.31032827
O -0.25205913 -1.4913603 -0.3910751
C 0.911073 -0.81689984 -0.28237852
O 1.9591035 -1.3077422 -0.61129135
N 0.8043322 0.4825343 0.19278163
H 0.30219394 3.004747 1.1498617
H 0.17870207 3.0534213 -0.611787
H -1.290143 3.129621 0.3825307
H -2.5103328 0.9385829 0.3398792
H -1.3884023 -1.4293779 1.3340677
H -2.2661602 -1.503254 -0.20014548
H 1.6695532 0.9964928 0.13806464
