15
title
N -0.306944 2.4861236 0.35708988
C -0.41356704 1.1118727 0.19340093
N -1.5418364 0.5234988 0.1514919
C -1.5013728 -0.93431884 0.17383124
C -0.32196212 -1.5138614 -0.62233585
C 0.9846875 -0.86832625 -0.20360334
O 2.0682054 -1.4064188 -0.18750097
N 0.8298921 0.46428314 0.14949872
H 0.38071457 2.9368408 -0.23235162
H -1.2138026 2.929536 0.29826972
H -1.4493589 -1.2833366 1.2170497
H -2.44369 -1.3142664 -0.23111089
H -0.22346422 -2.5950236 -0.50603926
H -0.46240187 -1.3059225 -1.691562
H 1.6646805 0.9517719 0.44299102
