title
 OpenBabel02282109583D

 18 18  0  0  1  0  0  0  0  0999 V2000
   -0.8465    2.5774    0.2107 C   0  0  0  0  0  0  0  0  0  0  0  0
   -0.7549    1.0461    0.2802 C   0  0  1  0  0  0  0  0  0  0  0  0
   -0.1338    0.4653   -1.0095 C   0  0  0  0  0  0  0  0  0  0  0  0
    0.1730   -1.0151   -0.8760 C   0  0  0  0  0  0  0  0  0  0  0  0
   -0.2218   -1.8438   -1.6618 O   0  0  0  0  0  0  0  0  0  0  0  0
    1.0326   -1.3855    0.3285 C   0  0  0  0  0  0  0  0  0  0  0  0
    0.8225   -0.4749    1.5104 C   0  0  0  0  0  0  0  0  0  0  0  0
    0.0188    0.5871    1.4934 C   0  0  0  0  0  0  0  0  0  0  0  0
    0.1507    3.0254    0.1378 H   0  0  0  0  0  0  0  0  0  0  0  0
   -1.4262    2.8966   -0.6611 H   0  0  0  0  0  0  0  0  0  0  0  0
   -1.3321    2.9823    1.1047 H   0  0  0  0  0  0  0  0  0  0  0  0
   -1.7827    0.6598    0.3640 H   0  0  0  0  0  0  0  0  0  0  0  0
   -0.7803    0.6171   -1.8772 H   0  0  0  0  0  0  0  0  0  0  0  0
    0.8171    0.9861   -1.1942 H   0  0  0  0  0  0  0  0  0  0  0  0
    0.8308   -2.4323    0.5822 H   0  0  0  0  0  0  0  0  0  0  0  0
    2.0862   -1.3580    0.0084 H   0  0  0  0  0  0  0  0  0  0  0  0
    1.3486   -0.7407    2.4241 H   0  0  0  0  0  0  0  0  0  0  0  0
   -0.1067    1.1772    2.3989 H   0  0  0  0  0  0  0  0  0  0  0  0
  1  2  1  0  0  0  0
  1 11  1  0  0  0  0
  2 12  1  1  0  0  0
  2  8  1  0  0  0  0
  3  4  1  0  0  0  0
  3  2  1  0  0  0  0
  4  6  1  0  0  0  0
  5  4  2  0  0  0  0
  6 15  1  0  0  0  0
  6  7  1  0  0  0  0
  7 17  1  0  0  0  0
  8  7  2  0  0  0  0
  8 18  1  0  0  0  0
  9  1  1  0  0  0  0
 10  1  1  0  0  0  0
 13  3  1  0  0  0  0
 14  3  1  0  0  0  0
 16  6  1  0  0  0  0
M  END
