title
 OpenBabel02282109583D

 17 17  0  0  1  0  0  0  0  0999 V2000
   -0.7755    2.6213    0.2762 C   0  0  0  0  0  0  0  0  0  0  0  0
   -0.7333    1.0888    0.3095 C   0  0  1  0  0  0  0  0  0  0  0  0
   -0.0571    0.5215   -0.9534 C   0  0  0  0  0  0  0  0  0  0  0  0
    0.2332   -0.9733   -0.8988 C   0  0  0  0  0  0  0  0  0  0  0  0
    0.2216   -1.7067   -1.8653 O   0  0  0  0  0  0  0  0  0  0  0  0
    0.5850   -1.4288    0.3556 N   0  0  0  0  0  0  0  0  0  0  0  0
    0.5567   -0.6409    1.5116 C   0  0  0  0  0  0  0  0  0  0  0  0
   -0.0347    0.5542    1.5376 C   0  0  0  0  0  0  0  0  0  0  0  0
    0.2369    3.0396    0.2549 H   0  0  0  0  0  0  0  0  0  0  0  0
   -1.3094    2.9811   -0.6091 H   0  0  0  0  0  0  0  0  0  0  0  0
   -1.2844    3.0188    1.1604 H   0  0  0  0  0  0  0  0  0  0  0  0
   -1.7753    0.7287    0.3270 H   0  0  0  0  0  0  0  0  0  0  0  0
   -0.6436    0.7116   -1.8546 H   0  0  0  0  0  0  0  0  0  0  0  0
    0.9154    1.0173   -1.0893 H   0  0  0  0  0  0  0  0  0  0  0  0
    0.8720   -2.3944    0.4043 H   0  0  0  0  0  0  0  0  0  0  0  0
    1.0423   -1.0833    2.3736 H   0  0  0  0  0  0  0  0  0  0  0  0
   -0.0388    1.1330    2.4537 H   0  0  0  0  0  0  0  0  0  0  0  0
  1  2  1  0  0  0  0
  1 11  1  0  0  0  0
  2 12  1  1  0  0  0
  2  8  1  0  0  0  0
  3  4  1  0  0  0  0
  3  2  1  0  0  0  0
  4  6  1  0  0  0  0
  5  4  2  0  0  0  0
  6 15  1  0  0  0  0
  6  7  1  0  0  0  0
  7  8  2  0  0  0  0
  7 16  1  0  0  0  0
  8 17  1  0  0  0  0
  9  1  1  0  0  0  0
 10  1  1  0  0  0  0
 13  3  1  0  0  0  0
 14  3  1  0  0  0  0
M  END
