15
title
C -0.87118995 2.5626435 0.22078095
C -0.72681046 1.0433255 0.28150856
C -0.11373594 0.4668804 -1.0044436
C 0.1882066 -1.0049769 -0.85914755
O 0.06841276 -1.8483592 -1.6944199
O 0.6907648 -1.3595923 0.38153353
C 0.6871464 -0.428912 1.4015898
N 0.07046179 0.66547316 1.4509327
H 0.10751466 3.036367 0.09331989
H -1.512211 2.8595603 -0.6149561
H -1.308884 2.9353027 1.1498784
H -1.7269 0.60678697 0.42436552
H -0.7538124 0.60115695 -1.878004
H 0.8382449 0.9778804 -1.2050891
H 1.2933117 -0.79267144 2.2266686
