title
 OpenBabel02282109583D

 15 15  0  0  1  0  0  0  0  0999 V2000
   -0.8712    2.5626    0.2208 C   0  0  0  0  0  0  0  0  0  0  0  0
   -0.7268    1.0433    0.2815 C   0  0  1  0  0  0  0  0  0  0  0  0
   -0.1137    0.4669   -1.0044 C   0  0  0  0  0  0  0  0  0  0  0  0
    0.1882   -1.0050   -0.8591 C   0  0  0  0  0  0  0  0  0  0  0  0
    0.0684   -1.8484   -1.6944 O   0  0  0  0  0  0  0  0  0  0  0  0
    0.6908   -1.3596    0.3815 O   0  0  0  0  0  0  0  0  0  0  0  0
    0.6871   -0.4289    1.4016 C   0  0  0  0  0  0  0  0  0  0  0  0
    0.0705    0.6655    1.4509 N   0  0  0  0  0  0  0  0  0  0  0  0
    0.1075    3.0364    0.0933 H   0  0  0  0  0  0  0  0  0  0  0  0
   -1.5122    2.8596   -0.6150 H   0  0  0  0  0  0  0  0  0  0  0  0
   -1.3089    2.9353    1.1499 H   0  0  0  0  0  0  0  0  0  0  0  0
   -1.7269    0.6068    0.4244 H   0  0  0  0  0  0  0  0  0  0  0  0
   -0.7538    0.6012   -1.8780 H   0  0  0  0  0  0  0  0  0  0  0  0
    0.8382    0.9779   -1.2051 H   0  0  0  0  0  0  0  0  0  0  0  0
    1.2933   -0.7927    2.2267 H   0  0  0  0  0  0  0  0  0  0  0  0
  1  2  1  0  0  0  0
  1 11  1  0  0  0  0
  2 12  1  1  0  0  0
  2  8  1  0  0  0  0
  3  4  1  0  0  0  0
  3  2  1  0  0  0  0
  4  6  1  0  0  0  0
  5  4  2  0  0  0  0
  6  7  1  0  0  0  0
  7  8  2  0  0  0  0
  7 15  1  0  0  0  0
  9  1  1  0  0  0  0
 10  1  1  0  0  0  0
 13  3  1  0  0  0  0
 14  3  1  0  0  0  0
M  END
