17
title
C -0.6870587 2.4353156 0.17959289
C -0.8418092 0.93226135 0.41426703
O -0.5049034 0.28226617 -0.82586503
C 0.17974775 -0.8934209 -0.89561343
N 0.104738526 -1.6342579 -1.9199442
C 1.1175709 -1.2542382 0.23526584
C 0.8379449 -0.5306558 1.5159855
C -0.051824104 0.45071232 1.5910635
H 0.36346656 2.6885653 0.011679733
H -1.2667996 2.7394938 -0.6955887
H -1.0477475 2.9945304 1.0481687
H -1.9081184 0.7190356 0.59107345
H -0.5528196 -1.2321898 -2.5914366
H 1.0741787 -2.3394637 0.37090033
H 2.143898 -1.0475264 -0.1002605
H 1.3967984 -0.83970255 2.3947089
H -0.25254232 0.9629355 2.5277882
