15
title
C -0.32089627 2.311267 0.112432875
C -0.9226689 0.9433363 0.44281512
O -0.7998733 0.078364596 -0.7212523
C 0.24414027 -0.7574375 -0.8990629
O 0.4662183 -1.2692403 -1.9653008
N 1.0055072 -1.0131539 0.22982876
C 0.6227675 -0.6112419 1.5078644
C -0.32303408 0.3109482 1.6647558
H 0.7615945 2.2333245 -0.02496158
H -0.7671974 2.7110558 -0.8022946
H -0.51185495 3.0113819 0.9319864
H -2.0060422 1.0511357 0.56242853
H 1.6977651 -1.7325302 0.10304517
H 1.1351835 -1.1034592 2.3254068
H -0.64873314 0.63210434 2.6446407
