title
 OpenBabel02282109583D

 15 15  0  0  1  0  0  0  0  0999 V2000
    0.6251    2.4767    0.5756 O   0  0  0  0  0  0  0  0  0  0  0  0
    0.6386    1.0562    0.5096 C   0  0  1  0  0  0  0  0  0  0  0  0
   -0.7882    0.4801    0.5711 C   0  0  0  0  0  0  0  0  0  0  0  0
   -0.9114   -0.9982    0.2177 C   0  0  0  0  0  0  0  0  0  0  0  0
   -1.7554   -1.7379    0.6752 O   0  0  0  0  0  0  0  0  0  0  0  0
   -0.0187   -1.4221   -0.7477 N   0  0  0  0  0  0  0  0  0  0  0  0
    1.0273   -0.6398   -1.2441 C   0  0  0  0  0  0  0  0  0  0  0  0
    1.3609    0.5350   -0.7059 C   0  0  0  0  0  0  0  0  0  0  0  0
    0.2352    2.7998   -0.2449 H   0  0  0  0  0  0  0  0  0  0  0  0
    1.1871    0.7573    1.4143 H   0  0  0  0  0  0  0  0  0  0  0  0
   -1.2481    0.6418    1.5465 H   0  0  0  0  0  0  0  0  0  0  0  0
   -1.4016    1.0145   -0.1700 H   0  0  0  0  0  0  0  0  0  0  0  0
   -0.1339   -2.3742   -1.0603 H   0  0  0  0  0  0  0  0  0  0  0  0
    1.5536   -1.0740   -2.0861 H   0  0  0  0  0  0  0  0  0  0  0  0
    2.1930    1.1071   -1.0972 H   0  0  0  0  0  0  0  0  0  0  0  0
  2  3  1  0  0  0  0
  2  1  1  0  0  0  0
  2 10  1  1  0  0  0
  3 11  1  0  0  0  0
  4  3  1  0  0  0  0
  4  5  2  0  0  0  0
  6  4  1  0  0  0  0
  7  6  1  0  0  0  0
  7  8  2  0  0  0  0
  8  2  1  0  0  0  0
  9  1  1  0  0  0  0
 12  3  1  0  0  0  0
 13  6  1  0  0  0  0
 14  7  1  0  0  0  0
 15  8  1  0  0  0  0
M  END
