17
title
C -1.5953639 1.5389265 0.24997774
C -1.4062629 0.013766725 0.25409785
C -0.6237294 -0.48795825 -0.9686916
C 0.8816634 -0.18428087 -0.9091275
O 1.525162 0.00028918366 -1.9279083
C 1.4505529 -0.22577319 0.4278005
C 0.65064293 -0.37282076 1.5147384
N -0.70976925 -0.43735304 1.4655516
H -0.6311262 2.0553944 0.25222835
H -2.1480887 1.8509365 -0.641582
H -2.1620405 1.864044 1.1287998
H -2.3943946 -0.4599119 0.25658855
H -0.7198978 -1.5798298 -1.035181
H -1.0328624 -0.06758972 -1.8899764
H 2.5259778 -0.17845991 0.53835315
H 1.0732489 -0.46533242 2.5117183
H -1.1996062 -0.3050102 2.3362157
