title
 OpenBabel02282109583D

 18 18  0  0  1  0  0  0  0  0999 V2000
   -0.5528    2.6589   -0.2951 C   0  0  0  0  0  0  0  0  0  0  0  0
   -0.5361    1.1288   -0.3196 C   0  0  1  0  0  0  0  0  0  0  0  0
    0.1839    0.5807   -1.5625 C   0  0  0  0  0  0  0  0  0  0  0  0
    0.3696   -0.9099   -1.5112 C   0  0  0  0  0  0  0  0  0  0  0  0
    0.3222   -1.6214   -0.3776 C   0  0  0  0  0  0  0  0  0  0  0  0
    0.1286   -0.9861    0.9440 C   0  0  0  0  0  0  0  0  0  0  0  0
    0.0386   -1.6406    1.9637 O   0  0  0  0  0  0  0  0  0  0  0  0
    0.0946    0.5385    0.9512 C   0  0  0  0  0  0  0  0  0  0  0  0
    0.4644    3.0628   -0.2320 H   0  0  0  0  0  0  0  0  0  0  0  0
   -1.0181    3.0654   -1.1996 H   0  0  0  0  0  0  0  0  0  0  0  0
   -1.1135    3.0335    0.5673 H   0  0  0  0  0  0  0  0  0  0  0  0
   -1.5754    0.7740   -0.3675 H   0  0  0  0  0  0  0  0  0  0  0  0
   -0.3649    0.8538   -2.4722 H   0  0  0  0  0  0  0  0  0  0  0  0
    1.1715    1.0596   -1.6644 H   0  0  0  0  0  0  0  0  0  0  0  0
    0.5525   -1.4175   -2.4563 H   0  0  0  0  0  0  0  0  0  0  0  0
    0.4394   -2.7006   -0.3698 H   0  0  0  0  0  0  0  0  0  0  0  0
    1.1358    0.8863    1.0367 H   0  0  0  0  0  0  0  0  0  0  0  0
   -0.4231    0.8649    1.8575 H   0  0  0  0  0  0  0  0  0  0  0  0
  1  9  1  0  0  0  0
  1 11  1  0  0  0  0
  2 12  1  6  0  0  0
  2  1  1  0  0  0  0
  2  8  1  0  0  0  0
  3  4  1  0  0  0  0
  3  2  1  0  0  0  0
  4  5  2  0  0  0  0
  5 16  1  0  0  0  0
  5  6  1  0  0  0  0
  6  8  1  0  0  0  0
  6  7  2  0  0  0  0
  8 17  1  0  0  0  0
  8 18  1  0  0  0  0
 10  1  1  0  0  0  0
 13  3  1  0  0  0  0
 14  3  1  0  0  0  0
 15  4  1  0  0  0  0
M  END
