17
title
C -0.83053285 2.5072975 -0.28833047
C -0.76780903 0.9821755 -0.30913424
C -0.17446588 0.43653822 -1.6137904
C 0.14274646 -1.0300804 -1.4994488
C 0.39679462 -1.5981892 -0.31894177
C 0.42563957 -0.8133443 0.94261944
O 0.80933934 -1.2808152 2.0012813
N 0.034724183 0.50092083 0.8146429
H 0.172134 2.9378266 -0.37435606
H -1.4412761 2.876745 -1.1174215
H -1.2800088 2.8695416 0.64253926
H -1.7961211 0.59099746 -0.22547324
H -0.87774205 0.61683273 -2.4339216
H 0.7442326 0.9877891 -1.8661761
H 0.19203945 -1.61382 -2.415191
H 0.6506708 -2.646146 -0.21108146
H -0.06888222 0.97673 1.7005533
