16
title
O 0.41333285 2.5148902 -0.25272104
C 0.53988004 1.1023397 -0.28263202
C 1.2349418 0.55617595 0.9736893
C 1.1279974 -0.94066405 1.0638613
C 0.17847042 -1.6465449 0.43681017
C -0.8743109 -1.0033357 -0.38121238
O -1.7126532 -1.6531708 -0.97189873
C -0.86633116 0.5219027 -0.40625316
H 1.2954571 2.8987427 -0.2897991
H 1.1252811 0.7884813 -1.1625795
H 2.289669 0.85905915 0.9919462
H 0.7712304 1.0194271 1.8569615
H 1.8674388 -1.4557011 1.6728387
H 0.12549473 -2.7283392 0.50652987
H -1.4646332 0.8773163 0.4448677
H -1.3618186 0.8663915 -1.316313
