title
 OpenBabel02282109583D

 16 16  0  0  1  0  0  0  0  0999 V2000
    0.4133    2.5149   -0.2527 O   0  0  0  0  0  0  0  0  0  0  0  0
    0.5399    1.1023   -0.2826 C   0  0  1  0  0  0  0  0  0  0  0  0
    1.2349    0.5562    0.9737 C   0  0  0  0  0  0  0  0  0  0  0  0
    1.1280   -0.9407    1.0639 C   0  0  0  0  0  0  0  0  0  0  0  0
    0.1785   -1.6465    0.4368 C   0  0  0  0  0  0  0  0  0  0  0  0
   -0.8743   -1.0033   -0.3812 C   0  0  0  0  0  0  0  0  0  0  0  0
   -1.7127   -1.6532   -0.9719 O   0  0  0  0  0  0  0  0  0  0  0  0
   -0.8663    0.5219   -0.4063 C   0  0  0  0  0  0  0  0  0  0  0  0
    1.2955    2.8987   -0.2898 H   0  0  0  0  0  0  0  0  0  0  0  0
    1.1253    0.7885   -1.1626 H   0  0  0  0  0  0  0  0  0  0  0  0
    2.2897    0.8591    0.9919 H   0  0  0  0  0  0  0  0  0  0  0  0
    0.7712    1.0194    1.8570 H   0  0  0  0  0  0  0  0  0  0  0  0
    1.8674   -1.4557    1.6728 H   0  0  0  0  0  0  0  0  0  0  0  0
    0.1255   -2.7283    0.5065 H   0  0  0  0  0  0  0  0  0  0  0  0
   -1.4646    0.8773    0.4449 H   0  0  0  0  0  0  0  0  0  0  0  0
   -1.3618    0.8664   -1.3163 H   0  0  0  0  0  0  0  0  0  0  0  0
  2 10  1  6  0  0  0
  2  1  1  0  0  0  0
  2  3  1  0  0  0  0
  3 11  1  0  0  0  0
  3  4  1  0  0  0  0
  3 12  1  0  0  0  0
  4 13  1  0  0  0  0
  5 14  1  0  0  0  0
  5  4  2  0  0  0  0
  6  5  1  0  0  0  0
  7  6  2  0  0  0  0
  8  6  1  0  0  0  0
  8  2  1  0  0  0  0
  8 15  1  0  0  0  0
  9  1  1  0  0  0  0
 16  8  1  0  0  0  0
M  END
