title
 OpenBabel02282109583D

 20 20  0  0  1  0  0  0  0  0999 V2000
   -0.9563    2.5427    0.3551 C   0  0  0  0  0  0  0  0  0  0  0  0
   -0.9119    1.0067    0.3691 C   0  0  1  0  0  0  0  0  0  0  0  0
   -0.2646    0.4503   -0.9101 C   0  0  0  0  0  0  0  0  0  0  0  0
    0.0367   -1.0391   -0.7843 C   0  0  1  0  0  0  0  0  0  0  0  0
    0.5313   -1.4843   -2.0413 O   0  0  0  0  0  0  0  0  0  0  0  0
    1.0393   -1.2839    0.3508 C   0  0  0  0  0  0  0  0  0  0  0  0
    0.6707   -0.5157    1.5946 C   0  0  0  0  0  0  0  0  0  0  0  0
   -0.2045    0.4891    1.6001 C   0  0  0  0  0  0  0  0  0  0  0  0
    0.0554    2.9624    0.3349 H   0  0  0  0  0  0  0  0  0  0  0  0
   -1.4924    2.9106   -0.5259 H   0  0  0  0  0  0  0  0  0  0  0  0
   -1.4629    2.9325    1.2443 H   0  0  0  0  0  0  0  0  0  0  0  0
   -1.9552    0.6541    0.4086 H   0  0  0  0  0  0  0  0  0  0  0  0
   -0.9128    0.6193   -1.7762 H   0  0  0  0  0  0  0  0  0  0  0  0
    0.6775    0.9785   -1.1073 H   0  0  0  0  0  0  0  0  0  0  0  0
   -0.9022   -1.5648   -0.5395 H   0  0  0  0  0  0  0  0  0  0  0  0
    0.7464   -2.4192   -1.9615 H   0  0  0  0  0  0  0  0  0  0  0  0
    1.1003   -2.3577    0.5778 H   0  0  0  0  0  0  0  0  0  0  0  0
    2.0396   -0.9927   -0.0012 H   0  0  0  0  0  0  0  0  0  0  0  0
    1.1494   -0.8194    2.5226 H   0  0  0  0  0  0  0  0  0  0  0  0
   -0.4383    0.9913    2.5372 H   0  0  0  0  0  0  0  0  0  0  0  0
  1  2  1  0  0  0  0
  1 11  1  0  0  0  0
  2 12  1  1  0  0  0
  2  8  1  0  0  0  0
  3  4  1  0  0  0  0
  3  2  1  0  0  0  0
  4 15  1  1  0  0  0
  4  6  1  0  0  0  0
  5 16  1  0  0  0  0
  5  4  1  0  0  0  0
  6 17  1  0  0  0  0
  6  7  1  0  0  0  0
  7  8  2  0  0  0  0
  7 19  1  0  0  0  0
  8 20  1  0  0  0  0
  9  1  1  0  0  0  0
 10  1  1  0  0  0  0
 13  3  1  0  0  0  0
 14  3  1  0  0  0  0
 18  6  1  0  0  0  0
M  END
