20
title
C -0.9562876 2.5427356 0.3550881
C -0.9119188 1.0067437 0.3691144
C -0.26458886 0.45034415 -0.9100523
C 0.03667374 -1.0390953 -0.78432965
O 0.5313056 -1.4842669 -2.0412974
C 1.0393391 -1.2839237 0.35078648
C 0.67069894 -0.51571244 1.5945723
C -0.20454054 0.48910946 1.6000679
H 0.05539991 2.9624195 0.33490834
H -1.4923911 2.910625 -0.52593106
H -1.4629047 2.9325316 1.2443142
H -1.9552414 0.654145 0.4086269
H -0.9127611 0.61933404 -1.7762201
H 0.6775176 0.97854173 -1.1073408
H -0.9022084 -1.5647992 -0.5395007
H 0.746357 -2.419187 -1.9615319
H 1.1002647 -2.3577409 0.5778009
H 2.0396457 -0.9926848 -0.001222234
H 1.149408 -0.8194023 2.522594
H -0.4382979 0.9912728 2.5372136
