title
 OpenBabel02282109583D

 22 22  0  0  1  0  0  0  0  0999 V2000
   -0.7105    2.6345   -0.3397 C   0  0  0  0  0  0  0  0  0  0  0  0
   -0.6746    1.1042   -0.3439 C   0  0  1  0  0  0  0  0  0  0  0  0
    0.0115    0.5551   -1.6072 C   0  0  0  0  0  0  0  0  0  0  0  0
    0.3068   -0.9187   -1.5096 C   0  0  0  0  0  0  0  0  0  0  0  0
    0.2546   -1.6067   -0.3700 C   0  0  0  0  0  0  0  0  0  0  0  0
   -0.0663   -0.9953    0.9736 C   0  0  1  0  0  0  0  0  0  0  0  0
    0.8420   -1.5636    2.0748 C   0  0  0  0  0  0  0  0  0  0  0  0
    0.0138    0.5389    0.9070 C   0  0  0  0  0  0  0  0  0  0  0  0
    0.3037    3.0503   -0.3047 H   0  0  0  0  0  0  0  0  0  0  0  0
   -1.1975    3.0245   -1.2402 H   0  0  0  0  0  0  0  0  0  0  0  0
   -1.2567    3.0173    0.5290 H   0  0  0  0  0  0  0  0  0  0  0  0
   -1.7112    0.7366   -0.3463 H   0  0  0  0  0  0  0  0  0  0  0  0
   -0.6144    0.7510   -2.4881 H   0  0  0  0  0  0  0  0  0  0  0  0
    0.9471    1.1074   -1.7901 H   0  0  0  0  0  0  0  0  0  0  0  0
    0.5691   -1.4292   -2.4339 H   0  0  0  0  0  0  0  0  0  0  0  0
    0.4610   -2.6758   -0.3779 H   0  0  0  0  0  0  0  0  0  0  0  0
   -1.1012   -1.2723    1.2334 H   0  0  0  0  0  0  0  0  0  0  0  0
    1.8941   -1.3373    1.8691 H   0  0  0  0  0  0  0  0  0  0  0  0
    0.5895   -1.1367    3.0513 H   0  0  0  0  0  0  0  0  0  0  0  0
    0.7431   -2.6519    2.1484 H   0  0  0  0  0  0  0  0  0  0  0  0
    1.0711    0.8416    0.8990 H   0  0  0  0  0  0  0  0  0  0  0  0
   -0.4268    0.9732    1.8129 H   0  0  0  0  0  0  0  0  0  0  0  0
  1  9  1  0  0  0  0
  1 11  1  0  0  0  0
  2 12  1  6  0  0  0
  2  1  1  0  0  0  0
  2  8  1  0  0  0  0
  3  4  1  0  0  0  0
  3  2  1  0  0  0  0
  4  5  2  0  0  0  0
  5  6  1  0  0  0  0
  6 17  1  1  0  0  0
  6  7  1  0  0  0  0
  7 20  1  0  0  0  0
  7 19  1  0  0  0  0
  8  6  1  0  0  0  0
  8 22  1  0  0  0  0
 10  1  1  0  0  0  0
 13  3  1  0  0  0  0
 14  3  1  0  0  0  0
 15  4  1  0  0  0  0
 16  5  1  0  0  0  0
 18  7  1  0  0  0  0
 21  8  1  0  0  0  0
M  END
