22
title
C -0.7104567 2.6344576 -0.33972672
C -0.67462605 1.1042072 -0.34385815
C 0.01150874 0.5550613 -1.6072166
C 0.30682817 -0.91867274 -1.509581
C 0.25456068 -1.6067452 -0.37003437
C -0.066347145 -0.9952603 0.9736363
C 0.8420041 -1.5635738 2.0748253
C 0.013783551 0.5388565 0.906961
H 0.30370644 3.0503018 -0.3046966
H -1.1974982 3.0245254 -1.2402114
H -1.256674 3.0172713 0.5289803
H -1.711226 0.7366475 -0.34633237
H -0.61441314 0.7510218 -2.4881148
H 0.9471076 1.1073911 -1.790101
H 0.56913596 -1.4291613 -2.4338999
H 0.46097293 -2.675788 -0.37793165
H -1.1011637 -1.272315 1.233374
H 1.8941474 -1.3372808 1.8690996
H 0.589456 -1.136749 3.0513113
H 0.74310166 -2.6518817 2.1484044
H 1.0711334 0.8415865 0.89897615
H -0.42676854 0.97324395 1.8129385
