title
 OpenBabel02282109583D

 20 20  0  0  1  0  0  0  0  0999 V2000
   -0.6383    2.6730   -0.3446 C   0  0  0  0  0  0  0  0  0  0  0  0
   -0.6387    1.1423   -0.3600 C   0  0  1  0  0  0  0  0  0  0  0  0
    0.0520    0.5845   -1.6180 C   0  0  0  0  0  0  0  0  0  0  0  0
    0.3177   -0.8954   -1.5272 C   0  0  0  0  0  0  0  0  0  0  0  0
    0.2220   -1.5923   -0.3954 C   0  0  0  0  0  0  0  0  0  0  0  0
   -0.1193   -0.9772    0.9391 C   0  0  1  0  0  0  0  0  0  0  0  0
    0.6581   -1.5550    1.9881 O   0  0  0  0  0  0  0  0  0  0  0  0
    0.0153    0.5501    0.8971 C   0  0  0  0  0  0  0  0  0  0  0  0
    0.3844    3.0648   -0.2899 H   0  0  0  0  0  0  0  0  0  0  0  0
   -1.1015    3.0798   -1.2503 H   0  0  0  0  0  0  0  0  0  0  0  0
   -1.1900    3.0616    0.5176 H   0  0  0  0  0  0  0  0  0  0  0  0
   -1.6841    0.8013   -0.3818 H   0  0  0  0  0  0  0  0  0  0  0  0
   -0.5565    0.7986   -2.5066 H   0  0  0  0  0  0  0  0  0  0  0  0
    1.0026    1.1157   -1.7855 H   0  0  0  0  0  0  0  0  0  0  0  0
    0.5952   -1.4019   -2.4495 H   0  0  0  0  0  0  0  0  0  0  0  0
    0.4054   -2.6642   -0.3818 H   0  0  0  0  0  0  0  0  0  0  0  0
   -1.1520   -1.2405    1.2074 H   0  0  0  0  0  0  0  0  0  0  0  0
    1.5852   -1.4152    1.7638 H   0  0  0  0  0  0  0  0  0  0  0  0
    1.0856    0.8053    0.9011 H   0  0  0  0  0  0  0  0  0  0  0  0
   -0.4155    0.9814    1.8071 H   0  0  0  0  0  0  0  0  0  0  0  0
  1  9  1  0  0  0  0
  1 11  1  0  0  0  0
  2 12  1  6  0  0  0
  2  1  1  0  0  0  0
  2  8  1  0  0  0  0
  3  4  1  0  0  0  0
  3  2  1  0  0  0  0
  4  5  2  0  0  0  0
  5 16  1  0  0  0  0
  5  6  1  0  0  0  0
  6 17  1  1  0  0  0
  6  7  1  0  0  0  0
  8 19  1  0  0  0  0
  8  6  1  0  0  0  0
  8 20  1  0  0  0  0
 10  1  1  0  0  0  0
 13  3  1  0  0  0  0
 14  3  1  0  0  0  0
 15  4  1  0  0  0  0
 18  7  1  0  0  0  0
M  END
