18
title
O 0.49662822 2.5301914 -0.31942195
C 0.61823434 1.1147889 -0.35146356
C 1.3475252 0.5677361 0.88473
C 1.1725615 -0.92304045 1.0232137
C 0.24927938 -1.6160351 0.3570928
C -0.74965674 -0.9931546 -0.5879205
O -2.0415702 -1.5780145 -0.4349824
C -0.7896039 0.5330216 -0.43318906
H 1.3827327 2.9047868 -0.28239858
H 1.176844 0.80270636 -1.250568
H 2.416768 0.81702346 0.83749187
H 0.95685405 1.083914 1.7736375
H 1.8507841 -1.4384805 1.6993971
H 0.16694057 -2.6935687 0.4771753
H -0.4721009 -1.2457975 -1.6205606
H -2.31621 -1.4278308 0.47674203
H -1.3266228 0.7864331 0.49105227
H -1.3388522 0.98701453 -1.2623482
