title
 OpenBabel02282109583D

 20 20  0  0  1  0  0  0  0  0999 V2000
   -0.6525    2.5820    0.3078 C   0  0  0  0  0  0  0  0  0  0  0  0
   -0.6371    1.0626    0.2398 C   0  0  1  0  0  0  0  0  0  0  0  0
    0.1026    0.5185   -0.9886 C   0  0  0  0  0  0  0  0  0  0  0  0
    0.3607   -0.9662   -0.8669 C   0  0  0  0  0  0  0  0  0  0  0  0
    0.7369   -1.7006   -2.1229 C   0  0  0  0  0  0  0  0  0  0  0  0
    0.2488   -1.5599    0.3214 C   0  0  0  0  0  0  0  0  0  0  0  0
   -0.0875   -0.8071    1.5787 C   0  0  0  0  0  0  0  0  0  0  0  0
   -0.0141    0.5967    1.4308 O   0  0  0  0  0  0  0  0  0  0  0  0
    0.3695    2.9678    0.3777 H   0  0  0  0  0  0  0  0  0  0  0  0
   -1.1229    3.0031   -0.5860 H   0  0  0  0  0  0  0  0  0  0  0  0
   -1.2067    2.9206    1.1872 H   0  0  0  0  0  0  0  0  0  0  0  0
   -1.6758    0.6880    0.2093 H   0  0  0  0  0  0  0  0  0  0  0  0
   -0.4894    0.7225   -1.8913 H   0  0  0  0  0  0  0  0  0  0  0  0
    1.0524    1.0576   -1.1199 H   0  0  0  0  0  0  0  0  0  0  0  0
    1.6415   -1.2722   -2.5742 H   0  0  0  0  0  0  0  0  0  0  0  0
    0.9233   -2.7610   -1.9324 H   0  0  0  0  0  0  0  0  0  0  0  0
   -0.0535   -1.6217   -2.8808 H   0  0  0  0  0  0  0  0  0  0  0  0
    0.4021   -2.6318    0.4256 H   0  0  0  0  0  0  0  0  0  0  0  0
   -1.0915   -1.1047    1.9378 H   0  0  0  0  0  0  0  0  0  0  0  0
    0.6178   -1.0648    2.3785 H   0  0  0  0  0  0  0  0  0  0  0  0
  1  9  1  0  0  0  0
  1 11  1  0  0  0  0
  2 12  1  6  0  0  0
  2  1  1  0  0  0  0
  2  8  1  0  0  0  0
  3  4  1  0  0  0  0
  3  2  1  0  0  0  0
  4  6  2  0  0  0  0
  5 16  1  0  0  0  0
  5  4  1  0  0  0  0
  6 18  1  0  0  0  0
  6  7  1  0  0  0  0
  7 19  1  0  0  0  0
  7 20  1  0  0  0  0
  8  7  1  0  0  0  0
 10  1  1  0  0  0  0
 13  3  1  0  0  0  0
 14  3  1  0  0  0  0
 15  5  1  0  0  0  0
 17  5  1  0  0  0  0
M  END
