22
title
C -0.671206 2.6494617 -0.2420967
C -0.64315706 1.1194758 -0.28296298
C 0.030828519 0.58529675 -1.5544688
C -0.054033298 -0.94477654 -1.6290728
C 0.27145305 -1.5972679 -0.31121838
C 0.33487007 -0.94988894 0.855002
C 0.69597185 -1.6417837 2.1416771
C 0.052334767 0.5333163 0.9567227
H 0.3447375 3.0610158 -0.27755475
H -1.2256721 3.059972 -1.0927608
H -1.1452583 3.0162084 0.6750173
H -1.681933 0.7574441 -0.28145045
H -0.42396852 1.0343546 -2.445213
H 1.0857301 0.89312667 -1.5518318
H -1.0615396 -1.2492185 -1.9522346
H 0.6233059 -1.3226573 -2.4059196
H 0.46683487 -2.6681392 -0.3324047
H 0.91600394 -2.7013972 1.9850699
H 1.5755754 -1.1776612 2.6076133
H -0.11681713 -1.5662541 2.8760889
H 0.998291 1.0693638 1.1373931
H -0.558593 0.72707987 1.8496002
