title
 OpenBabel02282109583D

 19 19  0  0  1  0  0  0  0  0999 V2000
   -0.6831    2.5248   -0.2104 C   0  0  0  0  0  0  0  0  0  0  0  0
   -0.7077    1.0126   -0.3556 C   0  0  1  0  0  0  0  0  0  0  0  0
    0.0263    0.4828   -1.5828 C   0  0  0  0  0  0  0  0  0  0  0  0
    0.0378   -1.0473   -1.5298 C   0  0  0  0  0  0  0  0  0  0  0  0
    0.4047   -1.5785   -0.2225 N   0  0  0  0  0  0  0  0  0  0  0  0
    0.3290   -0.8202    0.7910 C   0  0  0  0  0  0  0  0  0  0  0  0
    0.7440   -1.2793    2.1585 C   0  0  0  0  0  0  0  0  0  0  0  0
   -0.1099    0.4715    0.8392 O   0  0  0  0  0  0  0  0  0  0  0  0
    0.3478    2.8911   -0.1849 H   0  0  0  0  0  0  0  0  0  0  0  0
   -1.1989    2.9943   -1.0535 H   0  0  0  0  0  0  0  0  0  0  0  0
   -1.1796    2.8303    0.7146 H   0  0  0  0  0  0  0  0  0  0  0  0
   -1.7505    0.6627   -0.3832 H   0  0  0  0  0  0  0  0  0  0  0  0
   -0.4562    0.8468   -2.4961 H   0  0  0  0  0  0  0  0  0  0  0  0
    1.0531    0.8685   -1.5755 H   0  0  0  0  0  0  0  0  0  0  0  0
   -0.9488   -1.4458   -1.8051 H   0  0  0  0  0  0  0  0  0  0  0  0
    0.7401   -1.4513   -2.2676 H   0  0  0  0  0  0  0  0  0  0  0  0
    1.1276   -2.2970    2.1014 H   0  0  0  0  0  0  0  0  0  0  0  0
    1.5145   -0.6147    2.5625 H   0  0  0  0  0  0  0  0  0  0  0  0
   -0.1064   -1.2420    2.8471 H   0  0  0  0  0  0  0  0  0  0  0  0
  1  9  1  0  0  0  0
  1 11  1  0  0  0  0
  2 12  1  6  0  0  0
  2  1  1  0  0  0  0
  2  8  1  0  0  0  0
  3 14  1  0  0  0  0
  3  4  1  0  0  0  0
  3  2  1  0  0  0  0
  4  5  1  0  0  0  0
  5  6  2  0  0  0  0
  6  8  1  0  0  0  0
  6  7  1  0  0  0  0
  7 18  1  0  0  0  0
  7 19  1  0  0  0  0
 10  1  1  0  0  0  0
 13  3  1  0  0  0  0
 15  4  1  0  0  0  0
 16  4  1  0  0  0  0
 17  7  1  0  0  0  0
M  END
