title
 OpenBabel02282109583D

 18 18  0  0  1  0  0  0  0  0999 V2000
   -0.6227    2.5992    0.2731 C   0  0  0  0  0  0  0  0  0  0  0  0
   -0.5955    1.0794    0.2287 C   0  0  1  0  0  0  0  0  0  0  0  0
    0.0942    0.5315   -1.0415 C   0  0  0  0  0  0  0  0  0  0  0  0
    0.2557   -0.9789   -0.9657 C   0  0  0  0  0  0  0  0  0  0  0  0
   -0.0506   -1.7225   -1.8678 O   0  0  0  0  0  0  0  0  0  0  0  0
    0.8112   -1.4636    0.3639 C   0  0  0  0  0  0  0  0  0  0  0  0
    0.0697   -0.7764    1.5266 C   0  0  0  0  0  0  0  0  0  0  0  0
    0.0852    0.6306    1.3929 O   0  0  0  0  0  0  0  0  0  0  0  0
    0.3966    2.9977    0.2702 H   0  0  0  0  0  0  0  0  0  0  0  0
   -1.1560    2.9994   -0.5940 H   0  0  0  0  0  0  0  0  0  0  0  0
   -1.1236    2.9430    1.1818 H   0  0  0  0  0  0  0  0  0  0  0  0
   -1.6304    0.6948    0.2515 H   0  0  0  0  0  0  0  0  0  0  0  0
   -0.4639    0.7891   -1.9451 H   0  0  0  0  0  0  0  0  0  0  0  0
    1.0930    0.9841   -1.1063 H   0  0  0  0  0  0  0  0  0  0  0  0
    0.7316   -2.5521    0.4187 H   0  0  0  0  0  0  0  0  0  0  0  0
    1.8715   -1.1856    0.4172 H   0  0  0  0  0  0  0  0  0  0  0  0
   -0.9684   -1.1453    1.5730 H   0  0  0  0  0  0  0  0  0  0  0  0
    0.5500   -1.0050    2.4817 H   0  0  0  0  0  0  0  0  0  0  0  0
  1 11  1  0  0  0  0
  2 12  1  1  0  0  0
  2  1  1  0  0  0  0
  2  8  1  0  0  0  0
  3  4  1  0  0  0  0
  3  2  1  0  0  0  0
  4  6  1  0  0  0  0
  5  4  2  0  0  0  0
  6 16  1  0  0  0  0
  6 15  1  0  0  0  0
  6  7  1  0  0  0  0
  7 17  1  0  0  0  0
  7 18  1  0  0  0  0
  8  7  1  0  0  0  0
  9  1  1  0  0  0  0
 10  1  1  0  0  0  0
 13  3  1  0  0  0  0
 14  3  1  0  0  0  0
M  END
