title
 OpenBabel02282109583D

 20 20  0  0  1  0  0  0  0  0999 V2000
   -0.6188    2.6705   -0.2072 C   0  0  0  0  0  0  0  0  0  0  0  0
   -0.5833    1.1404   -0.2497 C   0  0  1  0  0  0  0  0  0  0  0  0
    0.0837    0.6103   -1.5292 C   0  0  0  0  0  0  0  0  0  0  0  0
    0.1012   -0.9226   -1.5731 C   0  0  0  0  0  0  0  0  0  0  0  0
    0.8050   -1.5174   -0.3375 C   0  0  0  0  0  0  0  0  0  0  0  0
    0.2303   -0.9545    0.9557 C   0  0  0  0  0  0  0  0  0  0  0  0
   -0.1179   -1.6578    1.8758 O   0  0  0  0  0  0  0  0  0  0  0  0
    0.1219    0.5638    0.9988 C   0  0  0  0  0  0  0  0  0  0  0  0
    0.3957    3.0863   -0.2223 H   0  0  0  0  0  0  0  0  0  0  0  0
   -1.1591    3.0774   -1.0684 H   0  0  0  0  0  0  0  0  0  0  0  0
   -1.1128    3.0319    0.7006 H   0  0  0  0  0  0  0  0  0  0  0  0
   -1.6209    0.7752   -0.2401 H   0  0  0  0  0  0  0  0  0  0  0  0
   -0.4388    1.0043   -2.4086 H   0  0  0  0  0  0  0  0  0  0  0  0
    1.1137    0.9923   -1.5827 H   0  0  0  0  0  0  0  0  0  0  0  0
   -0.9301   -1.2967   -1.6137 H   0  0  0  0  0  0  0  0  0  0  0  0
    0.5955   -1.2753   -2.4843 H   0  0  0  0  0  0  0  0  0  0  0  0
    0.7351   -2.6071   -0.3058 H   0  0  0  0  0  0  0  0  0  0  0  0
    1.8713   -1.2501   -0.3709 H   0  0  0  0  0  0  0  0  0  0  0  0
    1.1430    0.9723    1.0432 H   0  0  0  0  0  0  0  0  0  0  0  0
   -0.3896    0.8491    1.9219 H   0  0  0  0  0  0  0  0  0  0  0  0
  1 11  1  0  0  0  0
  2 12  1  1  0  0  0
  2  1  1  0  0  0  0
  2  8  1  0  0  0  0
  3  2  1  0  0  0  0
  4  3  1  0  0  0  0
  4  5  1  0  0  0  0
  5 17  1  0  0  0  0
  5  6  1  0  0  0  0
  6  8  1  0  0  0  0
  6  7  2  0  0  0  0
  8 19  1  0  0  0  0
  8 20  1  0  0  0  0
  9  1  1  0  0  0  0
 10  1  1  0  0  0  0
 13  3  1  0  0  0  0
 14  3  1  0  0  0  0
 15  4  1  0  0  0  0
 16  4  1  0  0  0  0
 18  5  1  0  0  0  0
M  END
