title
 OpenBabel02282109583D

 19 19  0  0  1  0  0  0  0  0999 V2000
   -1.0234    2.4392   -0.2830 C   0  0  0  0  0  0  0  0  0  0  0  0
   -0.9427    0.9123   -0.3108 C   0  0  1  0  0  0  0  0  0  0  0  0
   -0.2998    0.3821   -1.5940 C   0  0  0  0  0  0  0  0  0  0  0  0
   -0.0495   -1.1239   -1.4889 C   0  0  0  0  0  0  0  0  0  0  0  0
    0.9141   -1.4140   -0.3334 C   0  0  0  0  0  0  0  0  0  0  0  0
    0.5783   -0.6885    0.9660 C   0  0  0  0  0  0  0  0  0  0  0  0
    1.0129   -1.0559    2.0425 O   0  0  0  0  0  0  0  0  0  0  0  0
   -0.1945    0.4372    0.8531 N   0  0  0  0  0  0  0  0  0  0  0  0
   -0.0236    2.8806   -0.3438 H   0  0  0  0  0  0  0  0  0  0  0  0
   -1.6192    2.8058   -1.1245 H   0  0  0  0  0  0  0  0  0  0  0  0
   -1.4970    2.7938    0.6390 H   0  0  0  0  0  0  0  0  0  0  0  0
   -1.9712    0.5162   -0.2645 H   0  0  0  0  0  0  0  0  0  0  0  0
   -0.9554    0.6167   -2.4388 H   0  0  0  0  0  0  0  0  0  0  0  0
    0.6505    0.9051   -1.7655 H   0  0  0  0  0  0  0  0  0  0  0  0
   -1.0034   -1.6400   -1.3194 H   0  0  0  0  0  0  0  0  0  0  0  0
    0.3557   -1.5171   -2.4268 H   0  0  0  0  0  0  0  0  0  0  0  0
    0.9729   -2.4790   -0.0967 H   0  0  0  0  0  0  0  0  0  0  0  0
    1.9311   -1.1027   -0.6060 H   0  0  0  0  0  0  0  0  0  0  0  0
   -0.4090    0.8600    1.7463 H   0  0  0  0  0  0  0  0  0  0  0  0
  1 11  1  0  0  0  0
  2  1  1  0  0  0  0
  2 12  1  1  0  0  0
  2  8  1  0  0  0  0
  3  4  1  0  0  0  0
  3  2  1  0  0  0  0
  4 15  1  0  0  0  0
  4  5  1  0  0  0  0
  5 17  1  0  0  0  0
  5  6  1  0  0  0  0
  6  7  2  0  0  0  0
  8  6  1  0  0  0  0
  8 19  1  0  0  0  0
  9  1  1  0  0  0  0
 10  1  1  0  0  0  0
 13  3  1  0  0  0  0
 14  3  1  0  0  0  0
 16  4  1  0  0  0  0
 18  5  1  0  0  0  0
M  END
