18
title
C -0.90972257 2.5088742 -0.2853572
C -0.857599 0.9816859 -0.30287346
C -0.20961715 0.43207753 -1.5758133
C -0.056893125 -1.0850496 -1.4790804
N 0.6509232 -1.4189432 -0.25509238
C 0.5107114 -0.73835415 0.93616045
O 0.938315 -1.1748974 1.9914709
N -0.09074308 0.50004166 0.84009826
H 0.09786205 2.92981 -0.35950214
H -1.5096478 2.8831024 -1.1205325
H -1.3645278 2.8756454 0.6412602
H -1.8934401 0.6024744 -0.2577563
H -0.8213114 0.69077134 -2.4451106
H 0.77662367 0.89231604 -1.7040491
H -1.0506461 -1.560364 -1.5196776
H 0.5140155 -1.4648962 -2.3330827
H 0.99037796 -2.3585734 -0.12694037
H -0.26742485 0.91282713 1.7428738
