title
 OpenBabel02282109583D

 19 19  0  0  1  0  0  0  0  0999 V2000
   -0.6665    2.6812   -0.2193 C   0  0  0  0  0  0  0  0  0  0  0  0
   -0.6262    1.1531   -0.2755 C   0  0  1  0  0  0  0  0  0  0  0  0
    0.1395    0.6256   -1.4936 C   0  0  0  0  0  0  0  0  0  0  0  0
    0.1358   -0.8968   -1.4934 C   0  0  0  0  0  0  0  0  0  0  0  0
    0.6290   -1.4688   -0.2725 O   0  0  0  0  0  0  0  0  0  0  0  0
    0.2167   -0.9418    0.9216 C   0  0  0  0  0  0  0  0  0  0  0  0
    0.1045   -1.6626    1.9566 N   0  0  0  0  0  0  0  0  0  0  0  0
    0.0211    0.5557    0.9836 C   0  0  0  0  0  0  0  0  0  0  0  0
    0.3461    3.0981   -0.1646 H   0  0  0  0  0  0  0  0  0  0  0  0
   -1.1515    3.0972   -1.1085 H   0  0  0  0  0  0  0  0  0  0  0  0
   -1.2178    3.0312    0.6595 H   0  0  0  0  0  0  0  0  0  0  0  0
   -1.6596    0.7817   -0.3402 H   0  0  0  0  0  0  0  0  0  0  0  0
   -0.3100    0.9796   -2.4287 H   0  0  0  0  0  0  0  0  0  0  0  0
    1.1731    0.9952   -1.4693 H   0  0  0  0  0  0  0  0  0  0  0  0
   -0.8846   -1.2699   -1.6643 H   0  0  0  0  0  0  0  0  0  0  0  0
    0.7772   -1.3042   -2.2788 H   0  0  0  0  0  0  0  0  0  0  0  0
    0.3114   -2.6363    1.7212 H   0  0  0  0  0  0  0  0  0  0  0  0
    1.0164    1.0071    1.1084 H   0  0  0  0  0  0  0  0  0  0  0  0
   -0.5473    0.7817    1.8878 H   0  0  0  0  0  0  0  0  0  0  0  0
  1  9  1  0  0  0  0
  1 11  1  0  0  0  0
  2 12  1  6  0  0  0
  2  1  1  0  0  0  0
  2  8  1  0  0  0  0
  3  4  1  0  0  0  0
  3 14  1  0  0  0  0
  3  2  1  0  0  0  0
  4  5  1  0  0  0  0
  5  6  1  0  0  0  0
  6  8  1  0  0  0  0
  6  7  2  0  0  0  0
  8 18  1  0  0  0  0
  8 19  1  0  0  0  0
 10  1  1  0  0  0  0
 13  3  1  0  0  0  0
 15  4  1  0  0  0  0
 16  4  1  0  0  0  0
 17  7  1  0  0  0  0
M  END
