title
 OpenBabel02282109583D

 18 18  0  0  1  0  0  0  0  0999 V2000
   -0.6529    2.6979   -0.2457 C   0  0  0  0  0  0  0  0  0  0  0  0
   -0.6390    1.1691   -0.3094 C   0  0  1  0  0  0  0  0  0  0  0  0
    0.1639    0.6273   -1.4940 C   0  0  0  0  0  0  0  0  0  0  0  0
    0.0797   -0.8909   -1.5196 C   0  0  0  0  0  0  0  0  0  0  0  0
    0.4563   -1.5207   -0.2830 O   0  0  0  0  0  0  0  0  0  0  0  0
    0.2389   -0.9409    0.9235 C   0  0  0  0  0  0  0  0  0  0  0  0
    0.3589   -1.6049    1.9170 O   0  0  0  0  0  0  0  0  0  0  0  0
   -0.0559    0.5538    0.9689 C   0  0  0  0  0  0  0  0  0  0  0  0
    0.3651    3.0953   -0.1578 H   0  0  0  0  0  0  0  0  0  0  0  0
   -1.1032    3.1269   -1.1468 H   0  0  0  0  0  0  0  0  0  0  0  0
   -1.2242    3.0540    0.6178 H   0  0  0  0  0  0  0  0  0  0  0  0
   -1.6759    0.8195   -0.4200 H   0  0  0  0  0  0  0  0  0  0  0  0
   -0.2183    1.0145   -2.4455 H   0  0  0  0  0  0  0  0  0  0  0  0
    1.2114    0.9457   -1.4116 H   0  0  0  0  0  0  0  0  0  0  0  0
   -0.9446   -1.2081   -1.7574 H   0  0  0  0  0  0  0  0  0  0  0  0
    0.7448   -1.3214   -2.2725 H   0  0  0  0  0  0  0  0  0  0  0  0
    0.9075    1.0343    1.1929 H   0  0  0  0  0  0  0  0  0  0  0  0
   -0.6904    0.7257    1.8420 H   0  0  0  0  0  0  0  0  0  0  0  0
  1  9  1  0  0  0  0
  1 11  1  0  0  0  0
  2 12  1  6  0  0  0
  2  1  1  0  0  0  0
  2  8  1  0  0  0  0
  3 14  1  0  0  0  0
  3  2  1  0  0  0  0
  4  3  1  0  0  0  0
  4  5  1  0  0  0  0
  5  6  1  0  0  0  0
  6  8  1  0  0  0  0
  6  7  2  0  0  0  0
  8 17  1  0  0  0  0
  8 18  1  0  0  0  0
 10  1  1  0  0  0  0
 13  3  1  0  0  0  0
 15  4  1  0  0  0  0
 16  4  1  0  0  0  0
M  END
