title
 OpenBabel02282109583D

 19 19  0  0  1  0  0  0  0  0999 V2000
   -0.6186    2.6755   -0.1874 C   0  0  0  0  0  0  0  0  0  0  0  0
   -0.6081    1.1452   -0.2219 C   0  0  1  0  0  0  0  0  0  0  0  0
    0.0804    0.5961   -1.4861 C   0  0  0  0  0  0  0  0  0  0  0  0
    0.1432   -0.8635   -1.5527 N   0  0  0  0  0  0  0  0  0  0  0  0
    0.8083   -1.4523   -0.3847 C   0  0  0  0  0  0  0  0  0  0  0  0
    0.2343   -0.9614    0.9452 C   0  0  0  0  0  0  0  0  0  0  0  0
   -0.0720   -1.7122    1.8426 O   0  0  0  0  0  0  0  0  0  0  0  0
    0.0676    0.5497    1.0338 C   0  0  0  0  0  0  0  0  0  0  0  0
    0.4027    3.0744   -0.1891 H   0  0  0  0  0  0  0  0  0  0  0  0
   -1.1400    3.0885   -1.0573 H   0  0  0  0  0  0  0  0  0  0  0  0
   -1.1193    3.0485    0.7118 H   0  0  0  0  0  0  0  0  0  0  0  0
   -1.6500    0.7922   -0.2392 H   0  0  0  0  0  0  0  0  0  0  0  0
   -0.4333    0.9604   -2.3827 H   0  0  0  0  0  0  0  0  0  0  0  0
    1.1105    0.9795   -1.5343 H   0  0  0  0  0  0  0  0  0  0  0  0
   -0.7987   -1.2384   -1.6205 H   0  0  0  0  0  0  0  0  0  0  0  0
    0.7396   -2.5420   -0.4213 H   0  0  0  0  0  0  0  0  0  0  0  0
    1.8742   -1.1818   -0.4247 H   0  0  0  0  0  0  0  0  0  0  0  0
    1.0758    0.9830    1.1253 H   0  0  0  0  0  0  0  0  0  0  0  0
   -0.4789    0.7918    1.9496 H   0  0  0  0  0  0  0  0  0  0  0  0
  1 11  1  0  0  0  0
  2 12  1  6  0  0  0
  2  1  1  0  0  0  0
  2  8  1  0  0  0  0
  3  2  1  0  0  0  0
  4  3  1  0  0  0  0
  4  5  1  0  0  0  0
  5  6  1  0  0  0  0
  6  8  1  0  0  0  0
  6  7  2  0  0  0  0
  8 18  1  0  0  0  0
  8 19  1  0  0  0  0
  9  1  1  0  0  0  0
 10  1  1  0  0  0  0
 13  3  1  0  0  0  0
 14  3  1  0  0  0  0
 15  4  1  0  0  0  0
 16  5  1  0  0  0  0
 17  5  1  0  0  0  0
M  END
