title
 OpenBabel02282109583D

 18 18  0  0  1  0  0  0  0  0999 V2000
   -1.0433    2.4286   -0.2563 C   0  0  0  0  0  0  0  0  0  0  0  0
   -0.9674    0.9019   -0.2749 C   0  0  1  0  0  0  0  0  0  0  0  0
   -0.2986    0.3639   -1.5474 C   0  0  0  0  0  0  0  0  0  0  0  0
   -0.0147   -1.0649   -1.4900 N   0  0  0  0  0  0  0  0  0  0  0  0
    0.8752   -1.3807   -0.3743 C   0  0  0  0  0  0  0  0  0  0  0  0
    0.5904   -0.6772    0.9564 C   0  0  0  0  0  0  0  0  0  0  0  0
    1.0970   -1.0465    1.9999 O   0  0  0  0  0  0  0  0  0  0  0  0
   -0.2263    0.4174    0.8882 N   0  0  0  0  0  0  0  0  0  0  0  0
   -0.0414    2.8665   -0.3088 H   0  0  0  0  0  0  0  0  0  0  0  0
   -1.6294    2.7937   -1.1054 H   0  0  0  0  0  0  0  0  0  0  0  0
   -1.5251    2.7892    0.6589 H   0  0  0  0  0  0  0  0  0  0  0  0
   -1.9963    0.5043   -0.2430 H   0  0  0  0  0  0  0  0  0  0  0  0
   -0.9392    0.5751   -2.4096 H   0  0  0  0  0  0  0  0  0  0  0  0
    0.6509    0.8925   -1.7073 H   0  0  0  0  0  0  0  0  0  0  0  0
   -0.8854   -1.5771   -1.3849 H   0  0  0  0  0  0  0  0  0  0  0  0
    0.8713   -2.4561   -0.1824 H   0  0  0  0  0  0  0  0  0  0  0  0
    1.9062   -1.1199   -0.6508 H   0  0  0  0  0  0  0  0  0  0  0  0
   -0.4208    0.8392    1.7866 H   0  0  0  0  0  0  0  0  0  0  0  0
  1 11  1  0  0  0  0
  2  1  1  0  0  0  0
  2 12  1  1  0  0  0
  2  8  1  0  0  0  0
  3  4  1  0  0  0  0
  3  2  1  0  0  0  0
  4 15  1  0  0  0  0
  4  5  1  0  0  0  0
  5 16  1  0  0  0  0
  5  6  1  0  0  0  0
  6  7  2  0  0  0  0
  8  6  1  0  0  0  0
  8 18  1  0  0  0  0
  9  1  1  0  0  0  0
 10  1  1  0  0  0  0
 13  3  1  0  0  0  0
 14  3  1  0  0  0  0
 17  5  1  0  0  0  0
M  END
