17
title
C -0.68609095 2.5166438 -0.16042759
C -0.7363274 1.011067 -0.3676255
C 0.11525152 0.5150243 -1.5322033
N 0.17971507 -0.94078 -1.5894426
C 0.7196608 -1.4705938 -0.34229392
C 0.2741687 -0.80208284 0.96017677
O 0.49423352 -1.2880353 2.0362957
O -0.32869476 0.40769556 0.88674885
H 0.3438187 2.8477693 0.0044380855
H -1.0833696 3.0346906 -1.0387754
H -1.2814296 2.8015318 0.71033555
H -1.7770295 0.69767064 -0.5379963
H -0.29302326 0.903175 -2.471037
H 1.1381073 0.9032218 -1.4349105
H -0.75299007 -1.312606 -1.7425882
H 0.49938098 -2.536512 -0.2525973
H 1.8154359 -1.3846887 -0.3580179
