title
 OpenBabel02282109583D

 17 17  0  0  1  0  0  0  0  0999 V2000
   -0.6453    2.5309   -0.1676 C   0  0  0  0  0  0  0  0  0  0  0  0
   -0.6838    1.0214   -0.3310 C   0  0  1  0  0  0  0  0  0  0  0  0
    0.1597    0.5085   -1.4874 C   0  0  0  0  0  0  0  0  0  0  0  0
    0.1462   -0.9041   -1.5021 O   0  0  0  0  0  0  0  0  0  0  0  0
    0.7606   -1.4182   -0.3369 C   0  0  0  0  0  0  0  0  0  0  0  0
    0.2170   -0.8345    0.9534 C   0  0  0  0  0  0  0  0  0  0  0  0
    0.2813   -1.5009    2.0259 N   0  0  0  0  0  0  0  0  0  0  0  0
   -0.2290    0.4523    0.9192 O   0  0  0  0  0  0  0  0  0  0  0  0
    0.3828    2.8798   -0.0310 H   0  0  0  0  0  0  0  0  0  0  0  0
   -1.0677    3.0209   -1.0500 H   0  0  0  0  0  0  0  0  0  0  0  0
   -1.2281    2.8313    0.7065 H   0  0  0  0  0  0  0  0  0  0  0  0
   -1.7167    0.6806   -0.4857 H   0  0  0  0  0  0  0  0  0  0  0  0
   -0.2604    0.8453   -2.4393 H   0  0  0  0  0  0  0  0  0  0  0  0
    1.1917    0.8908   -1.4040 H   0  0  0  0  0  0  0  0  0  0  0  0
    0.6096   -2.4975   -0.3258 H   0  0  0  0  0  0  0  0  0  0  0  0
    1.8468   -1.2226   -0.3616 H   0  0  0  0  0  0  0  0  0  0  0  0
   -0.0669   -0.9433    2.8091 H   0  0  0  0  0  0  0  0  0  0  0  0
  1  9  1  0  0  0  0
  1 11  1  0  0  0  0
  2 12  1  6  0  0  0
  2  1  1  0  0  0  0
  2  8  1  0  0  0  0
  3 14  1  0  0  0  0
  3  2  1  0  0  0  0
  4  3  1  0  0  0  0
  4  5  1  0  0  0  0
  5 15  1  0  0  0  0
  5  6  1  0  0  0  0
  6  7  2  0  0  0  0
  7 17  1  0  0  0  0
  8  6  1  0  0  0  0
 10  1  1  0  0  0  0
 13  3  1  0  0  0  0
 16  5  1  0  0  0  0
M  END
