17
title
C -1.0710891 2.4161303 -0.24832888
C -0.9718575 0.8915207 -0.2619203
C -0.2563466 0.3710978 -1.508087
O -0.059309278 -1.0242809 -1.421084
C 0.8461491 -1.358132 -0.38662127
C 0.5854697 -0.6705388 0.9538693
O 1.1228951 -1.0565053 1.9744614
N -0.23897561 0.41494504 0.9084191
H -0.07664255 2.8724105 -0.27794635
H -1.6459135 2.771278 -1.1091084
H -1.5795933 2.766132 0.65605736
H -1.9872838 0.46704692 -0.25978827
H -0.86726964 0.55298597 -2.396199
H 0.7060752 0.89655024 -1.6325334
H 0.78166103 -2.436458 -0.22834262
H 1.8838631 -1.1226904 -0.6763082
H -0.43646702 0.8312304 1.8084074
