16
title
C -0.7163268 2.5089796 -0.15075938
C -0.7419486 1.0037342 -0.35571173
C 0.15848759 0.5198115 -1.4795679
O 0.13240102 -0.8917111 -1.5329697
C 0.68719137 -1.449525 -0.3621234
C 0.26782945 -0.79724586 0.9536923
O 0.5238725 -1.3032583 2.0115871
O -0.35068688 0.40126178 0.90479064
H 0.30289373 2.857329 0.04192874
H -1.1004933 3.0207036 -1.0384188
H -1.339133 2.7831862 0.70391595
H -1.7643987 0.6642004 -0.5639732
H -0.2104621 0.88536596 -2.441625
H 1.1864619 0.89362884 -1.3351376
H 0.393684 -2.5004785 -0.32111636
H 1.7893002 -1.4126376 -0.38700932
