17
title
C -0.5976736 2.481724 -0.2133625
C -0.6378326 0.97473544 -0.31548586
O 0.094793834 0.5676923 -1.4266622
C 0.10006378 -0.8496197 -1.5451272
C 0.7946638 -1.451317 -0.3242165
C 0.24237987 -0.8766208 0.95900744
N 0.19401935 -1.5514487 2.0275536
O -0.10648074 0.44691148 0.91745156
H 0.43986413 2.8152497 -0.13564405
H -1.0504472 2.924201 -1.1035042
H -1.1464448 2.810274 0.67163765
H -1.6732917 0.5996404 -0.39841592
H -0.93304574 -1.2223037 -1.633097
H 0.6298313 -1.0880457 -2.469731
H 0.7092582 -2.5387027 -0.2912592
H 1.8601272 -1.1958481 -0.36991018
H -0.17392841 -0.9729137 2.7864368
