16
title
C -0.633983 2.4708896 -0.20536986
C -0.6970552 0.96838355 -0.3536403
O 0.0930758 0.57534885 -1.4262094
C 0.084161445 -0.8379057 -1.5724674
C 0.74446774 -1.4650486 -0.34745875
C 0.2784239 -0.8478566 0.9644525
O 0.43032277 -1.3773532 2.0299149
O -0.26120335 0.3950888 0.90319884
H 0.4037397 2.781399 -0.06214638
H -1.029955 2.9471877 -1.1052568
H -1.2232817 2.7840137 0.6586806
H -1.7321945 0.61770356 -0.5021757
H -0.95062417 -1.1962969 -1.6901453
H 0.6296965 -1.067421 -2.4901714
H 0.58240724 -2.5438266 -0.29027364
H 1.8275783 -1.3014078 -0.3900314
