18
title
C 0.05204577 2.592326 -0.53688645
N 0.045342613 1.1397245 -0.5601952
C -1.2856658 0.5813437 -0.73351485
C -1.1674612 -0.9096988 -1.0259876
N -0.34639972 -1.5508128 -0.011348146
C 0.6291995 -0.9393354 0.7203571
O 1.3788065 -1.5526365 1.4566712
C 0.6857093 0.5831967 0.6247428
H 1.0820141 2.9537215 -0.4564533
H -0.37358907 2.9810784 -1.4671568
H -0.52242845 3.015988 0.30929503
H -1.9258395 0.7408882 0.15748654
H -1.7738111 1.0733964 -1.5804238
H -2.1620145 -1.3694137 -1.0261695
H -0.73203856 -1.0462536 -2.025692
H -0.32953304 -2.559358 0.03854088
H 1.7423748 0.8632327 0.6446869
H 0.23633012 0.96951026 1.562885
