title
 OpenBabel02282109583D

 18 18  0  0  0  0  0  0  0  0999 V2000
   -0.4924    2.5916   -0.2446 C   0  0  0  0  0  0  0  0  0  0  0  0
   -0.4766    1.1401   -0.2977 N   0  0  0  0  0  0  0  0  0  0  0  0
    0.2859    0.6243   -1.4222 C   0  0  0  0  0  0  0  0  0  0  0  0
    0.0886   -0.8791   -1.4901 C   0  0  0  0  0  0  0  0  0  0  0  0
    0.4456   -1.5368   -0.2661 O   0  0  0  0  0  0  0  0  0  0  0  0
    0.1000   -0.9461    0.9131 C   0  0  0  0  0  0  0  0  0  0  0  0
   -0.0476   -1.6115    1.9787 N   0  0  0  0  0  0  0  0  0  0  0  0
    0.0311    0.5659    0.9421 C   0  0  0  0  0  0  0  0  0  0  0  0
    0.5149    3.0311   -0.1118 H   0  0  0  0  0  0  0  0  0  0  0  0
   -0.9195    2.9906   -1.1696 H   0  0  0  0  0  0  0  0  0  0  0  0
   -1.1168    2.9227    0.5909 H   0  0  0  0  0  0  0  0  0  0  0  0
   -0.0844    1.0719   -2.3509 H   0  0  0  0  0  0  0  0  0  0  0  0
    1.3656    0.8643   -1.3427 H   0  0  0  0  0  0  0  0  0  0  0  0
   -0.9623   -1.1012   -1.7135 H   0  0  0  0  0  0  0  0  0  0  0  0
    0.7182   -1.3294   -2.2613 H   0  0  0  0  0  0  0  0  0  0  0  0
    0.0894   -2.6069    1.7885 H   0  0  0  0  0  0  0  0  0  0  0  0
    1.0553    0.9334    1.1658 H   0  0  0  0  0  0  0  0  0  0  0  0
   -0.6053    0.8534    1.7808 H   0  0  0  0  0  0  0  0  0  0  0  0
  1  9  1  0  0  0  0
  1 11  1  0  0  0  0
  2  1  1  0  0  0  0
  2  8  1  0  0  0  0
  3 13  1  0  0  0  0
  3  2  1  0  0  0  0
  4  3  1  0  0  0  0
  4  5  1  0  0  0  0
  5  6  1  0  0  0  0
  6  8  1  0  0  0  0
  6  7  2  0  0  0  0
  8 17  1  0  0  0  0
  8 18  1  0  0  0  0
 10  1  1  0  0  0  0
 12  3  1  0  0  0  0
 14  4  1  0  0  0  0
 15  4  1  0  0  0  0
 16  7  1  0  0  0  0
M  END
