title
 OpenBabel02282109583D

 18 18  0  0  1  0  0  0  0  0999 V2000
   -0.0162    2.5267    0.5910 O   0  0  0  0  0  0  0  0  0  0  0  0
    0.0618    1.1098    0.6252 C   0  0  1  0  0  0  0  0  0  0  0  0
   -1.3666    0.5745    0.6879 C   0  0  0  0  0  0  0  0  0  0  0  0
   -1.3881   -0.9591    0.6924 C   0  0  0  0  0  0  0  0  0  0  0  0
   -0.6669   -1.5446   -0.5383 C   0  0  0  0  0  0  0  0  0  0  0  0
    0.7343   -0.9674   -0.6835 C   0  0  0  0  0  0  0  0  0  0  0  0
    1.7166   -1.6551   -0.8354 O   0  0  0  0  0  0  0  0  0  0  0  0
    0.8032    0.5541   -0.6077 C   0  0  0  0  0  0  0  0  0  0  0  0
    0.8803    2.8776    0.5826 H   0  0  0  0  0  0  0  0  0  0  0  0
    0.5985    0.7815    1.5315 H   0  0  0  0  0  0  0  0  0  0  0  0
   -1.8585    0.9728    1.5806 H   0  0  0  0  0  0  0  0  0  0  0  0
   -1.9180    0.9609   -0.1791 H   0  0  0  0  0  0  0  0  0  0  0  0
   -0.9027   -1.3311    1.6039 H   0  0  0  0  0  0  0  0  0  0  0  0
   -2.4199   -1.3224    0.7212 H   0  0  0  0  0  0  0  0  0  0  0  0
   -0.5928   -2.6335   -0.4944 H   0  0  0  0  0  0  0  0  0  0  0  0
   -1.2321   -1.2812   -1.4437 H   0  0  0  0  0  0  0  0  0  0  0  0
    0.3152    0.9708   -1.4994 H   0  0  0  0  0  0  0  0  0  0  0  0
    1.8545    0.8573   -0.6197 H   0  0  0  0  0  0  0  0  0  0  0  0
  1  2  1  0  0  0  0
  2  3  1  0  0  0  0
  2 10  1  1  0  0  0
  3  4  1  0  0  0  0
  3 11  1  0  0  0  0
  4 14  1  0  0  0  0
  4 13  1  0  0  0  0
  5 15  1  0  0  0  0
  5  4  1  0  0  0  0
  6  8  1  0  0  0  0
  6  5  1  0  0  0  0
  7  6  2  0  0  0  0
  8  2  1  0  0  0  0
  9  1  1  0  0  0  0
 12  3  1  0  0  0  0
 16  5  1  0  0  0  0
 17  8  1  0  0  0  0
 18  8  1  0  0  0  0
M  END
