16
title
O -0.031354602 2.5538352 0.62554836
C 0.03157068 1.1395456 0.6982827
C -1.3828528 0.5949622 0.5853618
C -1.342802 -0.92358804 0.67118317
O -0.4481956 -1.5433633 -0.26972818
C 0.7090638 -0.9564996 -0.66254145
O 1.5330871 -1.6123819 -1.2375791
C 0.866097 0.5445151 -0.43862945
H 0.8644528 2.9014947 0.6880192
H 0.45465696 0.825256 1.6674862
H -2.0133288 0.9865977 1.389459
H -1.8181217 0.9185319 -0.3670569
H -1.0406675 -1.2417498 1.6776372
H -2.321981 -1.3606613 0.46392018
H 0.55049574 1.028809 -1.3721257
H 1.9354575 0.7416695 -0.32393605
