title
 OpenBabel02282109583D

 16 16  0  0  1  0  0  0  0  0999 V2000
   -0.0314    2.5538    0.6255 O   0  0  0  0  0  0  0  0  0  0  0  0
    0.0316    1.1395    0.6983 C   0  0  1  0  0  0  0  0  0  0  0  0
   -1.3829    0.5950    0.5854 C   0  0  0  0  0  0  0  0  0  0  0  0
   -1.3428   -0.9236    0.6712 C   0  0  0  0  0  0  0  0  0  0  0  0
   -0.4482   -1.5434   -0.2697 O   0  0  0  0  0  0  0  0  0  0  0  0
    0.7091   -0.9565   -0.6625 C   0  0  0  0  0  0  0  0  0  0  0  0
    1.5331   -1.6124   -1.2376 O   0  0  0  0  0  0  0  0  0  0  0  0
    0.8661    0.5445   -0.4386 C   0  0  0  0  0  0  0  0  0  0  0  0
    0.8645    2.9015    0.6880 H   0  0  0  0  0  0  0  0  0  0  0  0
    0.4547    0.8253    1.6675 H   0  0  0  0  0  0  0  0  0  0  0  0
   -2.0133    0.9866    1.3895 H   0  0  0  0  0  0  0  0  0  0  0  0
   -1.8181    0.9185   -0.3671 H   0  0  0  0  0  0  0  0  0  0  0  0
   -1.0407   -1.2417    1.6776 H   0  0  0  0  0  0  0  0  0  0  0  0
   -2.3220   -1.3607    0.4639 H   0  0  0  0  0  0  0  0  0  0  0  0
    0.5505    1.0288   -1.3721 H   0  0  0  0  0  0  0  0  0  0  0  0
    1.9355    0.7417   -0.3239 H   0  0  0  0  0  0  0  0  0  0  0  0
  1  9  1  0  0  0  0
  1  2  1  0  0  0  0
  2 10  1  1  0  0  0
  3  4  1  0  0  0  0
  3  2  1  0  0  0  0
  3 11  1  0  0  0  0
  4 13  1  0  0  0  0
  5  4  1  0  0  0  0
  6  8  1  0  0  0  0
  6  5  1  0  0  0  0
  7  6  2  0  0  0  0
  8 16  1  0  0  0  0
  8  2  1  0  0  0  0
 12  3  1  0  0  0  0
 14  4  1  0  0  0  0
 15  8  1  0  0  0  0
M  END
