title
 OpenBabel02282109583D

 17 17  0  0  1  0  0  0  0  0999 V2000
    0.3428    2.5345   -0.3522 O   0  0  0  0  0  0  0  0  0  0  0  0
    0.4912    1.1232   -0.3910 C   0  0  1  0  0  0  0  0  0  0  0  0
    1.2309    0.5776    0.8423 C   0  0  0  0  0  0  0  0  0  0  0  0
    1.2779   -0.8822    0.8938 N   0  0  0  0  0  0  0  0  0  0  0  0
   -0.0579   -1.4886    0.8641 C   0  0  0  0  0  0  0  0  0  0  0  0
   -0.9245   -0.9851   -0.2924 C   0  0  0  0  0  0  0  0  0  0  0  0
   -1.5538   -1.7273   -1.0091 O   0  0  0  0  0  0  0  0  0  0  0  0
   -0.9202    0.5286   -0.4693 C   0  0  0  0  0  0  0  0  0  0  0  0
    1.2186    2.9321   -0.3980 H   0  0  0  0  0  0  0  0  0  0  0  0
    1.0512    0.8194   -1.2928 H   0  0  0  0  0  0  0  0  0  0  0  0
    2.2573    0.9630    0.8683 H   0  0  0  0  0  0  0  0  0  0  0  0
    0.7241    0.9460    1.7443 H   0  0  0  0  0  0  0  0  0  0  0  0
    1.8232   -1.2356    0.1129 H   0  0  0  0  0  0  0  0  0  0  0  0
    0.0243   -2.5757    0.7976 H   0  0  0  0  0  0  0  0  0  0  0  0
   -0.5655   -1.2469    1.8096 H   0  0  0  0  0  0  0  0  0  0  0  0
   -1.5033    0.9658    0.3543 H   0  0  0  0  0  0  0  0  0  0  0  0
   -1.4159    0.7887   -1.4067 H   0  0  0  0  0  0  0  0  0  0  0  0
  2 10  1  6  0  0  0
  2  1  1  0  0  0  0
  2  3  1  0  0  0  0
  3 11  1  0  0  0  0
  3  4  1  0  0  0  0
  3 12  1  0  0  0  0
  5  4  1  0  0  0  0
  5 15  1  0  0  0  0
  6  5  1  0  0  0  0
  7  6  2  0  0  0  0
  8  2  1  0  0  0  0
  8  6  1  0  0  0  0
  8 16  1  0  0  0  0
  9  1  1  0  0  0  0
 13  4  1  0  0  0  0
 14  5  1  0  0  0  0
 17  8  1  0  0  0  0
M  END
