17
title
O 0.34280553 2.5344996 -0.35221776
C 0.4912083 1.1232246 -0.39102986
C 1.2308592 0.57755274 0.8422567
N 1.2779149 -0.8821668 0.89380664
C -0.05785219 -1.4885591 0.8641059
C -0.9245308 -0.9850736 -0.29235497
O -1.5538092 -1.7272869 -1.0091343
C -0.9201736 0.52861065 -0.4692774
H 1.2186103 2.932052 -0.398026
H 1.0512147 0.81936496 -1.2927699
H 2.2572808 0.96296036 0.86833555
H 0.72409856 0.9460039 1.7442762
H 1.8232268 -1.2356094 0.1128704
H 0.024282146 -2.5757 0.79760295
H -0.5654934 -1.2469436 1.8096405
H -1.5032586 0.9658416 0.35431278
H -1.4159245 0.78871626 -1.406732
