title
 OpenBabel02282109583D

 16 16  0  0  1  0  0  0  0  0999 V2000
    0.3579    2.5287   -0.3689 O   0  0  0  0  0  0  0  0  0  0  0  0
    0.5114    1.1189   -0.4144 C   0  0  1  0  0  0  0  0  0  0  0  0
    1.1743    0.5782    0.8575 C   0  0  0  0  0  0  0  0  0  0  0  0
    1.2725   -0.8332    0.8063 O   0  0  0  0  0  0  0  0  0  0  0  0
    0.0087   -1.4718    0.8169 C   0  0  0  0  0  0  0  0  0  0  0  0
   -0.9237   -0.9818   -0.2941 C   0  0  0  0  0  0  0  0  0  0  0  0
   -1.6668   -1.7345   -0.8755 O   0  0  0  0  0  0  0  0  0  0  0  0
   -0.8876    0.5166   -0.5597 C   0  0  0  0  0  0  0  0  0  0  0  0
    1.2286    2.9320   -0.4466 H   0  0  0  0  0  0  0  0  0  0  0  0
    1.1272    0.8151   -1.2747 H   0  0  0  0  0  0  0  0  0  0  0  0
    2.1975    0.9552    0.9551 H   0  0  0  0  0  0  0  0  0  0  0  0
    0.5997    0.9115    1.7383 H   0  0  0  0  0  0  0  0  0  0  0  0
    0.1783   -2.5427    0.6921 H   0  0  0  0  0  0  0  0  0  0  0  0
   -0.5037   -1.3109    1.7837 H   0  0  0  0  0  0  0  0  0  0  0  0
   -1.5258    0.9923    0.2000 H   0  0  0  0  0  0  0  0  0  0  0  0
   -1.3306    0.7252   -1.5357 H   0  0  0  0  0  0  0  0  0  0  0  0
  2 10  1  6  0  0  0
  2  1  1  0  0  0  0
  2  3  1  0  0  0  0
  3 11  1  0  0  0  0
  3 12  1  0  0  0  0
  4  5  1  0  0  0  0
  4  3  1  0  0  0  0
  5 14  1  0  0  0  0
  6  5  1  0  0  0  0
  7  6  2  0  0  0  0
  8  2  1  0  0  0  0
  8  6  1  0  0  0  0
  8 15  1  0  0  0  0
  9  1  1  0  0  0  0
 13  5  1  0  0  0  0
 16  8  1  0  0  0  0
M  END
