18
title
C -0.13696933 2.7303178 0.37140697
C -0.15770657 1.2318714 0.2653085
C -0.23958576 0.56774867 -0.8892186
C -0.18807857 -0.93474126 -0.97204214
O 0.60962135 -1.3817763 -2.0655634
C 0.32919118 -1.5016162 0.35639212
O -0.3384263 -0.9098344 1.4534761
C -0.073429346 0.47278908 1.5693573
H 0.7629377 3.078274 0.89489716
H -0.1586661 3.2006905 -0.6147553
H -0.99483806 3.1009028 0.946979
H -0.3227716 1.0982168 -1.8358032
H -1.1860256 -1.3423216 -1.1766555
H 1.4655708 -0.94373775 -1.993816
H 0.15544067 -2.5784936 0.42012447
H 1.4184997 -1.3263309 0.41573483
H 0.92364025 0.6388082 2.020863
H -0.80860513 0.86646897 2.2821777
