title
 OpenBabel02282109583D

 22 22  0  0  1  0  0  0  0  0999 V2000
   -1.1037    2.4273   -0.3174 C   0  0  0  0  0  0  0  0  0  0  0  0
   -1.0209    0.8929   -0.3272 C   0  0  1  0  0  0  0  0  0  0  0  0
   -0.3330    0.3708   -1.5984 C   0  0  0  0  0  0  0  0  0  0  0  0
   -0.0070   -1.1206   -1.4799 C   0  0  0  0  0  0  0  0  0  0  0  0
    0.9498   -1.3768   -0.3085 C   0  0  0  0  0  0  0  0  0  0  0  0
    0.5635   -0.6171    0.9421 C   0  0  0  0  0  0  0  0  0  0  0  0
    1.2472   -1.0470    2.2119 C   0  0  0  0  0  0  0  0  0  0  0  0
   -0.3285    0.3770    0.9129 C   0  0  0  0  0  0  0  0  0  0  0  0
   -0.1023    2.8723   -0.3115 H   0  0  0  0  0  0  0  0  0  0  0  0
   -1.6329    2.7976   -1.2020 H   0  0  0  0  0  0  0  0  0  0  0  0
   -1.6352    2.7908    0.5686 H   0  0  0  0  0  0  0  0  0  0  0  0
   -2.0566    0.5146   -0.3216 H   0  0  0  0  0  0  0  0  0  0  0  0
   -0.9667    0.5628   -2.4719 H   0  0  0  0  0  0  0  0  0  0  0  0
    0.5979    0.9336   -1.7556 H   0  0  0  0  0  0  0  0  0  0  0  0
   -0.9371   -1.6809   -1.3176 H   0  0  0  0  0  0  0  0  0  0  0  0
    0.4274   -1.4982   -2.4120 H   0  0  0  0  0  0  0  0  0  0  0  0
    0.9937   -2.4508   -0.0823 H   0  0  0  0  0  0  0  0  0  0  0  0
    1.9774   -1.1012   -0.5921 H   0  0  0  0  0  0  0  0  0  0  0  0
    2.3390   -0.9752    2.1164 H   0  0  0  0  0  0  0  0  0  0  0  0
    0.9415   -0.4357    3.0654 H   0  0  0  0  0  0  0  0  0  0  0  0
    1.0275   -2.0969    2.4464 H   0  0  0  0  0  0  0  0  0  0  0  0
   -0.5843    0.8803    1.8452 H   0  0  0  0  0  0  0  0  0  0  0  0
  1  9  1  0  0  0  0
  1 11  1  0  0  0  0
  2 12  1  1  0  0  0
  2  1  1  0  0  0  0
  2  8  1  0  0  0  0
  3  4  1  0  0  0  0
  3  2  1  0  0  0  0
  4 15  1  0  0  0  0
  4  5  1  0  0  0  0
  5 17  1  0  0  0  0
  5  6  1  0  0  0  0
  6  7  1  0  0  0  0
  7 21  1  0  0  0  0
  7 20  1  0  0  0  0
  8  6  2  0  0  0  0
  8 22  1  0  0  0  0
 10  1  1  0  0  0  0
 13  3  1  0  0  0  0
 14  3  1  0  0  0  0
 16  4  1  0  0  0  0
 18  5  1  0  0  0  0
 19  7  1  0  0  0  0
M  END
