22
title
C -1.1036527 2.427278 -0.31735504
C -1.0209237 0.89294595 -0.32716024
C -0.3329737 0.37081784 -1.5983772
C -0.00701155 -1.1205609 -1.4799389
C 0.9498209 -1.3767785 -0.30847022
C 0.5634546 -0.61714053 0.94214547
C 1.2471524 -1.0469769 2.211864
C -0.3285326 0.3769981 0.91291904
H -0.1022913 2.8722615 -0.31148827
H -1.6329364 2.797551 -1.2019714
H -1.6351936 2.790841 0.5686084
H -2.0566242 0.51459056 -0.32160133
H -0.9667485 0.56284875 -2.4718907
H 0.5978795 0.9335887 -1.755599
H -0.9370519 -1.6808873 -1.3175793
H 0.42742977 -1.4981862 -2.4120386
H 0.99365485 -2.450807 -0.08233975
H 1.977429 -1.1011586 -0.5920744
H 2.3389983 -0.9751979 2.1163933
H 0.9415406 -0.4357444 3.0654156
H 1.0274934 -2.0969253 2.4464445
H -0.584334 0.8803478 1.8452044
