20
title
C -1.0423899 2.4522207 -0.33464214
C -1.0026244 0.9186968 -0.2797903
C -0.3056963 0.33659074 -1.5140344
O -0.09390057 -1.0568138 -1.3809695
C 0.8064651 -1.367966 -0.33857495
C 0.5536937 -0.60898864 0.94329077
C 1.3135986 -1.0836358 2.1494787
C -0.29623276 0.41872415 0.9570437
H -0.030308131 2.8719568 -0.34367585
H -1.5628984 2.8030603 -1.2323378
H -1.5650055 2.8618956 0.53570294
H -2.0402672 0.5522674 -0.27123538
H -0.9142019 0.46983778 -2.413719
H 0.65420777 0.8586844 -1.6725332
H 0.7069698 -2.4467087 -0.16305363
H 1.8510981 -1.19775 -0.6638945
H 2.3969977 -1.0596408 1.9726316
H 1.1013465 -0.4633055 3.0241473
H 1.0622268 -2.1229339 2.398042
H -0.48928303 0.94856787 1.8889183
