title
 OpenBabel02282109583D

 20 20  0  0  1  0  0  0  0  0999 V2000
   -1.0424    2.4522   -0.3346 C   0  0  0  0  0  0  0  0  0  0  0  0
   -1.0026    0.9187   -0.2798 C   0  0  1  0  0  0  0  0  0  0  0  0
   -0.3057    0.3366   -1.5140 C   0  0  0  0  0  0  0  0  0  0  0  0
   -0.0939   -1.0568   -1.3810 O   0  0  0  0  0  0  0  0  0  0  0  0
    0.8065   -1.3680   -0.3386 C   0  0  0  0  0  0  0  0  0  0  0  0
    0.5537   -0.6090    0.9433 C   0  0  0  0  0  0  0  0  0  0  0  0
    1.3136   -1.0836    2.1495 C   0  0  0  0  0  0  0  0  0  0  0  0
   -0.2962    0.4187    0.9570 C   0  0  0  0  0  0  0  0  0  0  0  0
   -0.0303    2.8720   -0.3437 H   0  0  0  0  0  0  0  0  0  0  0  0
   -1.5629    2.8031   -1.2323 H   0  0  0  0  0  0  0  0  0  0  0  0
   -1.5650    2.8619    0.5357 H   0  0  0  0  0  0  0  0  0  0  0  0
   -2.0403    0.5523   -0.2712 H   0  0  0  0  0  0  0  0  0  0  0  0
   -0.9142    0.4698   -2.4137 H   0  0  0  0  0  0  0  0  0  0  0  0
    0.6542    0.8587   -1.6725 H   0  0  0  0  0  0  0  0  0  0  0  0
    0.7070   -2.4467   -0.1631 H   0  0  0  0  0  0  0  0  0  0  0  0
    1.8511   -1.1978   -0.6639 H   0  0  0  0  0  0  0  0  0  0  0  0
    2.3970   -1.0596    1.9726 H   0  0  0  0  0  0  0  0  0  0  0  0
    1.1013   -0.4633    3.0241 H   0  0  0  0  0  0  0  0  0  0  0  0
    1.0622   -2.1229    2.3980 H   0  0  0  0  0  0  0  0  0  0  0  0
   -0.4893    0.9486    1.8889 H   0  0  0  0  0  0  0  0  0  0  0  0
  1  2  1  0  0  0  0
  1 11  1  0  0  0  0
  2 12  1  1  0  0  0
  2  8  1  0  0  0  0
  3  4  1  0  0  0  0
  3  2  1  0  0  0  0
  4  5  1  0  0  0  0
  5 15  1  0  0  0  0
  5  6  1  0  0  0  0
  6  8  2  0  0  0  0
  6  7  1  0  0  0  0
  7 19  1  0  0  0  0
  7 18  1  0  0  0  0
  8 20  1  0  0  0  0
  9  1  1  0  0  0  0
 10  1  1  0  0  0  0
 13  3  1  0  0  0  0
 14  3  1  0  0  0  0
 16  5  1  0  0  0  0
 17  7  1  0  0  0  0
M  END
