20
title
C -0.8307616 2.5709994 0.37223834
C -0.7849094 1.055326 0.27568603
C -0.09106302 0.5382212 -0.99172044
C 0.08723593 -0.98389983 -0.91111434
C 0.9360199 -1.560041 -2.0319698
O 0.7215904 -1.3215754 0.32336923
C 0.010124747 -0.8239745 1.4232372
O -0.089016855 0.57375926 1.4264288
H 0.18252605 2.983969 0.36180374
H -1.3875157 2.9926875 -0.47024128
H -1.3170122 2.879327 1.3017477
H -1.8147732 0.6542192 0.29943454
H -0.6755331 0.8051124 -1.8798162
H 0.8949903 1.0102443 -1.0781543
H -0.91273826 -1.4548943 -0.92803836
H 1.9344269 -1.1122775 -2.0221562
H 1.0440971 -2.6413503 -1.9112107
H 0.4745437 -1.3611302 -3.0041025
H -1.0042393 -1.2701259 1.4444091
H 0.5644671 -1.1088252 2.3200529
