20
title
C -0.7744463 2.5758042 0.3675231
C -0.7398027 1.0561566 0.30610302
C -0.057661172 0.52392256 -0.9621043
C 0.05374706 -0.9982879 -0.9255638
O 0.7883679 -1.4015126 -2.0729134
C 0.71651775 -1.4345958 0.38558605
C -0.012339828 -0.80355203 1.5758508
O -0.05622309 0.6061693 1.4725327
H 0.24212307 2.9805753 0.34760392
H -1.3274218 2.9828272 -0.4842661
H -1.257932 2.9084544 1.2898555
H -1.7752581 0.6690583 0.33624402
H -0.61351895 0.8357499 -1.8527677
H 0.9511706 0.9477783 -1.0356482
H -0.9650665 -1.4241023 -0.95975256
H 0.8894059 -2.358436 -2.0397694
H 0.7088695 -2.5284605 0.48100975
H 1.762107 -1.1058445 0.37758368
H -1.0363126 -1.2115049 1.6479034
H 0.5003961 -1.028225 2.5155451
