24
title
C -0.7805727 2.6383724 -0.30612013
C -0.7309144 1.107662 -0.3189782
C -0.05825392 0.56999767 -1.5935618
C 0.015199209 -0.96241647 -1.6015666
C 0.7136902 -1.4965901 -0.34437943
C 0.050201915 -0.9834927 0.94505066
C 0.76576394 -1.5013936 2.1962297
C -0.0245978 0.55275476 0.92965275
H 0.23021129 3.0636578 -0.31545565
H -1.3117186 3.0274491 -1.1815907
H -1.2892056 3.013569 0.5885897
H -1.7665379 0.7339236 -0.30824935
H -0.59474546 0.93005055 -2.4799008
H 0.95924145 0.9832867 -1.6583987
H -1.0027615 -1.3735735 -1.6527047
H 0.5345736 -1.312212 -2.5012026
H 0.72137755 -2.593388 -0.35009775
H 1.7671342 -1.1795392 -0.351045
H -0.98213863 -1.3660209 0.96109146
H 1.803016 -1.1469655 2.2298114
H 0.2691743 -1.158644 3.1105082
H 0.7890292 -2.5963557 2.217775
H 0.99729437 0.96058995 0.97287065
H -0.53431433 0.9091122 1.8341756
