title
 OpenBabel02282109583D

 22 22  0  0  1  0  0  0  0  0999 V2000
   -0.7721    2.6512   -0.3067 C   0  0  0  0  0  0  0  0  0  0  0  0
   -0.7307    1.1203   -0.3316 C   0  0  1  0  0  0  0  0  0  0  0  0
   -0.0538    0.5877   -1.6065 C   0  0  0  0  0  0  0  0  0  0  0  0
    0.0165   -0.9456   -1.6234 C   0  0  0  0  0  0  0  0  0  0  0  0
    0.7088   -1.4836   -0.3629 C   0  0  0  0  0  0  0  0  0  0  0  0
    0.0273   -0.9690    0.9100 C   0  0  1  0  0  0  0  0  0  0  0  0
    0.7208   -1.3667    2.0874 O   0  0  0  0  0  0  0  0  0  0  0  0
   -0.0325    0.5573    0.9178 C   0  0  0  0  0  0  0  0  0  0  0  0
    0.2410    3.0705   -0.3063 H   0  0  0  0  0  0  0  0  0  0  0  0
   -1.2962    3.0493   -1.1822 H   0  0  0  0  0  0  0  0  0  0  0  0
   -1.2838    3.0210    0.5881 H   0  0  0  0  0  0  0  0  0  0  0  0
   -1.7687    0.7535   -0.3306 H   0  0  0  0  0  0  0  0  0  0  0  0
   -0.5881    0.9517   -2.4923 H   0  0  0  0  0  0  0  0  0  0  0  0
    0.9642    0.9992   -1.6667 H   0  0  0  0  0  0  0  0  0  0  0  0
   -1.0015   -1.3549   -1.6832 H   0  0  0  0  0  0  0  0  0  0  0  0
    0.5414   -1.2939   -2.5197 H   0  0  0  0  0  0  0  0  0  0  0  0
    0.7117   -2.5819   -0.3670 H   0  0  0  0  0  0  0  0  0  0  0  0
    1.7582   -1.1617   -0.3414 H   0  0  0  0  0  0  0  0  0  0  0  0
   -1.0067   -1.3581    0.9336 H   0  0  0  0  0  0  0  0  0  0  0  0
    0.7991   -2.3260    2.0741 H   0  0  0  0  0  0  0  0  0  0  0  0
    0.9963    0.9397    0.9717 H   0  0  0  0  0  0  0  0  0  0  0  0
   -0.5402    0.8929    1.8290 H   0  0  0  0  0  0  0  0  0  0  0  0
  1  9  1  0  0  0  0
  1 11  1  0  0  0  0
  2 12  1  1  0  0  0
  2  1  1  0  0  0  0
  2  8  1  0  0  0  0
  3  2  1  0  0  0  0
  4  3  1  0  0  0  0
  4  5  1  0  0  0  0
  5 18  1  0  0  0  0
  5  6  1  0  0  0  0
  6  8  1  0  0  0  0
  6 19  1  1  0  0  0
  6  7  1  0  0  0  0
  8 21  1  0  0  0  0
  8 22  1  0  0  0  0
 10  1  1  0  0  0  0
 13  3  1  0  0  0  0
 14  3  1  0  0  0  0
 15  4  1  0  0  0  0
 16  4  1  0  0  0  0
 17  5  1  0  0  0  0
 20  7  1  0  0  0  0
M  END
