title
 OpenBabel02282109583D

 22 22  0  0  1  0  0  0  0  0999 V2000
   -0.8300    2.6510   -0.3101 C   0  0  0  0  0  0  0  0  0  0  0  0
   -0.7720    1.1217   -0.3075 C   0  0  1  0  0  0  0  0  0  0  0  0
   -0.0770    0.5623   -1.5586 C   0  0  0  0  0  0  0  0  0  0  0  0
    0.0452   -0.9601   -1.4717 C   0  0  0  0  0  0  0  0  0  0  0  0
    0.7200   -1.3698   -0.2960 O   0  0  0  0  0  0  0  0  0  0  0  0
    0.0567   -0.9573    0.8948 C   0  0  1  0  0  0  0  0  0  0  0  0
    0.8434   -1.5322    2.0634 C   0  0  0  0  0  0  0  0  0  0  0  0
   -0.0682    0.5712    0.9440 C   0  0  0  0  0  0  0  0  0  0  0  0
    0.1783    3.0815   -0.3148 H   0  0  0  0  0  0  0  0  0  0  0  0
   -1.3560    3.0273   -1.1942 H   0  0  0  0  0  0  0  0  0  0  0  0
   -1.3488    3.0309    0.5768 H   0  0  0  0  0  0  0  0  0  0  0  0
   -1.8046    0.7399   -0.3034 H   0  0  0  0  0  0  0  0  0  0  0  0
   -0.6281    0.8389   -2.4658 H   0  0  0  0  0  0  0  0  0  0  0  0
    0.9282    0.9959   -1.6440 H   0  0  0  0  0  0  0  0  0  0  0  0
   -0.9603   -1.4165   -1.5081 H   0  0  0  0  0  0  0  0  0  0  0  0
    0.6225   -1.3613   -2.3103 H   0  0  0  0  0  0  0  0  0  0  0  0
   -0.9623   -1.3883    0.8967 H   0  0  0  0  0  0  0  0  0  0  0  0
    1.8593   -1.1250    2.0756 H   0  0  0  0  0  0  0  0  0  0  0  0
    0.3588   -1.2858    3.0131 H   0  0  0  0  0  0  0  0  0  0  0  0
    0.9125   -2.6200    1.9783 H   0  0  0  0  0  0  0  0  0  0  0  0
    0.9404    1.0013    1.0171 H   0  0  0  0  0  0  0  0  0  0  0  0
   -0.6119    0.8669    1.8497 H   0  0  0  0  0  0  0  0  0  0  0  0
  1  2  1  0  0  0  0
  1 11  1  0  0  0  0
  2 12  1  1  0  0  0
  2  8  1  0  0  0  0
  3  4  1  0  0  0  0
  3  2  1  0  0  0  0
  4  5  1  0  0  0  0
  5  6  1  0  0  0  0
  6 17  1  1  0  0  0
  6  8  1  0  0  0  0
  6  7  1  0  0  0  0
  7 18  1  0  0  0  0
  7 19  1  0  0  0  0
  8 21  1  0  0  0  0
  8 22  1  0  0  0  0
  9  1  1  0  0  0  0
 10  1  1  0  0  0  0
 13  3  1  0  0  0  0
 14  3  1  0  0  0  0
 15  4  1  0  0  0  0
 16  4  1  0  0  0  0
 20  7  1  0  0  0  0
M  END
