22
title
C -0.8299912 2.6509547 -0.310053
C -0.77199787 1.1216954 -0.30748448
C -0.0769673 0.5623333 -1.5585876
C 0.04520512 -0.9600633 -1.4716527
O 0.71996266 -1.3698171 -0.29600248
C 0.05666018 -0.95726925 0.8947829
C 0.8433812 -1.5322334 2.0634365
C -0.068203986 0.5711591 0.94397664
H 0.17830533 3.081467 -0.3148333
H -1.3560057 3.0273004 -1.1941662
H -1.3488102 3.0308611 0.57679313
H -1.8046432 0.73985046 -0.3034368
H -0.6281147 0.838948 -2.4658277
H 0.9282492 0.99587816 -1.6440452
H -0.9602647 -1.4165431 -1.5081373
H 0.6225408 -1.3612894 -2.310259
H -0.9622619 -1.3882574 0.8967402
H 1.8592992 -1.1250111 2.0755568
H 0.3587895 -1.2857589 3.0130525
H 0.91250724 -2.6200347 1.978292
H 0.9403593 1.0013198 1.0171386
H -0.6118705 0.8669465 1.8497262
