22
title
C -0.81776035 2.6205804 -0.28892767
C -0.77018017 1.0910361 -0.26616582
C -0.06814174 0.5357445 -1.511859
O -0.0066633704 -0.87894315 -1.5108159
C 0.70778227 -1.3849694 -0.39787972
C 0.06848575 -0.9849315 0.937868
C 0.8624973 -1.5385753 2.1233268
C -0.06871705 0.5451929 0.9878702
H 0.19205643 3.0477695 -0.29492217
H -1.3418504 2.992344 -1.1761289
H -1.336028 3.0111318 0.5928982
H -1.7988654 0.7046264 -0.27861845
H -0.6052668 0.8168449 -2.4234648
H 0.95097387 0.9603062 -1.5775801
H 0.7238631 -2.4733267 -0.51521015
H 1.754371 -1.0284199 -0.4241839
H -0.9405956 -1.4198676 0.9535792
H 1.8845216 -1.1416038 2.1349475
H 0.39185393 -1.2661091 3.0735927
H 0.93011963 -2.631278 2.0854523
H 0.9349518 0.9924497 1.0599146
H -0.6091906 0.8513599 1.8922275
