title
 OpenBabel02282109583D

 20 20  0  0  1  0  0  0  0  0999 V2000
   -0.7974    2.5045   -0.2295 C   0  0  0  0  0  0  0  0  0  0  0  0
   -0.7549    0.9865   -0.2937 C   0  0  1  0  0  0  0  0  0  0  0  0
   -0.0529    0.4623   -1.5474 C   0  0  0  0  0  0  0  0  0  0  0  0
    0.0488   -0.9510   -1.5217 O   0  0  0  0  0  0  0  0  0  0  0  0
    0.7334   -1.3935   -0.3623 C   0  0  0  0  0  0  0  0  0  0  0  0
    0.0427   -0.8958    0.9083 C   0  0  1  0  0  0  0  0  0  0  0  0
    0.7983   -1.2614    2.1754 C   0  0  0  0  0  0  0  0  0  0  0  0
   -0.0659    0.5244    0.8648 O   0  0  0  0  0  0  0  0  0  0  0  0
    0.2155    2.9186   -0.2461 H   0  0  0  0  0  0  0  0  0  0  0  0
   -1.3559    2.9124   -1.0776 H   0  0  0  0  0  0  0  0  0  0  0  0
   -1.2826    2.8293    0.6945 H   0  0  0  0  0  0  0  0  0  0  0  0
   -1.7807    0.5787   -0.2857 H   0  0  0  0  0  0  0  0  0  0  0  0
   -0.6184    0.7195   -2.4483 H   0  0  0  0  0  0  0  0  0  0  0  0
    0.9496    0.9186   -1.6171 H   0  0  0  0  0  0  0  0  0  0  0  0
    0.7404   -2.4871   -0.4006 H   0  0  0  0  0  0  0  0  0  0  0  0
    1.7765   -1.0330   -0.3708 H   0  0  0  0  0  0  0  0  0  0  0  0
   -0.9715   -1.3310    0.9338 H   0  0  0  0  0  0  0  0  0  0  0  0
    1.8089   -0.8417    2.1552 H   0  0  0  0  0  0  0  0  0  0  0  0
    0.2813   -0.8615    3.0514 H   0  0  0  0  0  0  0  0  0  0  0  0
    0.8731   -2.3480    2.2817 H   0  0  0  0  0  0  0  0  0  0  0  0
  1 11  1  0  0  0  0
  2 12  1  1  0  0  0
  2  1  1  0  0  0  0
  2  8  1  0  0  0  0
  3  4  1  0  0  0  0
  3  2  1  0  0  0  0
  4  5  1  0  0  0  0
  5  6  1  0  0  0  0
  6 17  1  1  0  0  0
  6  7  1  0  0  0  0
  7 20  1  0  0  0  0
  7 19  1  0  0  0  0
  8  6  1  0  0  0  0
  9  1  1  0  0  0  0
 10  1  1  0  0  0  0
 13  3  1  0  0  0  0
 14  3  1  0  0  0  0
 15  5  1  0  0  0  0
 16  5  1  0  0  0  0
 18  7  1  0  0  0  0
M  END
