20
title
C -0.7973806 2.5045128 -0.22947483
C -0.7548722 0.9865434 -0.29372
C -0.05290758 0.46226868 -1.5474172
O 0.048809417 -0.9510415 -1.5216594
C 0.73342156 -1.3934782 -0.3623453
C 0.04272432 -0.8958072 0.90833676
C 0.7983432 -1.26143 2.1754308
O -0.06586342 0.524367 0.86483085
H 0.21553862 2.9186084 -0.24613331
H -1.3558798 2.9124074 -1.077589
H -1.282597 2.8293118 0.6944835
H -1.7806928 0.578673 -0.28570598
H -0.61837596 0.71951526 -2.4483266
H 0.9495603 0.9186189 -1.6170695
H 0.7403585 -2.4871223 -0.4005821
H 1.7764968 -1.0329614 -0.3708003
H -0.97152406 -1.3309886 0.93379915
H 1.8088857 -0.8417254 2.1551714
H 0.28129733 -0.86147195 3.0514019
H 0.8730836 -2.3480375 2.2817063
