18
title
O 0.5248649 2.498978 -0.47478503
C 0.6121126 1.0820639 -0.51006883
C 1.3390666 0.537699 0.728544
O 1.3351594 -0.8788464 0.7558484
C 0.019181626 -1.4014472 0.80533683
C -0.79941356 -0.99172294 -0.42794475
O -2.1469278 -1.4263681 -0.31933433
C -0.8107904 0.5299368 -0.55374366
H 1.4140837 2.857527 -0.5604615
H 1.1585389 0.7453276 -1.4058906
H 2.391196 0.84284294 0.732126
H 0.85629773 0.9535767 1.6286699
H 0.12235595 -2.4904833 0.8641367
H -0.5115733 -1.0560609 1.7082514
H -0.31865993 -1.4249414 -1.319946
H -2.1565256 -2.3883455 -0.3527237
H -1.3786383 0.94969964 0.2860391
H -1.3148465 0.8365547 -1.4746951
