title
 OpenBabel02282109583D

 18 18  0  0  1  0  0  0  0  0999 V2000
    0.5249    2.4990   -0.4748 O   0  0  0  0  0  0  0  0  0  0  0  0
    0.6121    1.0821   -0.5101 C   0  0  1  0  0  0  0  0  0  0  0  0
    1.3391    0.5377    0.7285 C   0  0  0  0  0  0  0  0  0  0  0  0
    1.3352   -0.8788    0.7558 O   0  0  0  0  0  0  0  0  0  0  0  0
    0.0192   -1.4014    0.8053 C   0  0  0  0  0  0  0  0  0  0  0  0
   -0.7994   -0.9917   -0.4279 C   0  0  1  0  0  0  0  0  0  0  0  0
   -2.1469   -1.4264   -0.3193 O   0  0  0  0  0  0  0  0  0  0  0  0
   -0.8108    0.5299   -0.5537 C   0  0  0  0  0  0  0  0  0  0  0  0
    1.4141    2.8575   -0.5605 H   0  0  0  0  0  0  0  0  0  0  0  0
    1.1585    0.7453   -1.4059 H   0  0  0  0  0  0  0  0  0  0  0  0
    2.3912    0.8428    0.7321 H   0  0  0  0  0  0  0  0  0  0  0  0
    0.8563    0.9536    1.6287 H   0  0  0  0  0  0  0  0  0  0  0  0
    0.1224   -2.4905    0.8641 H   0  0  0  0  0  0  0  0  0  0  0  0
   -0.5116   -1.0561    1.7083 H   0  0  0  0  0  0  0  0  0  0  0  0
   -0.3187   -1.4249   -1.3199 H   0  0  0  0  0  0  0  0  0  0  0  0
   -2.1565   -2.3883   -0.3527 H   0  0  0  0  0  0  0  0  0  0  0  0
   -1.3786    0.9497    0.2860 H   0  0  0  0  0  0  0  0  0  0  0  0
   -1.3148    0.8366   -1.4747 H   0  0  0  0  0  0  0  0  0  0  0  0
  2 10  1  6  0  0  0
  2  1  1  0  0  0  0
  2  3  1  0  0  0  0
  3 11  1  0  0  0  0
  3  4  1  0  0  0  0
  3 12  1  0  0  0  0
  4  5  1  0  0  0  0
  5 13  1  0  0  0  0
  5 14  1  0  0  0  0
  6 15  1  6  0  0  0
  6  7  1  0  0  0  0
  6  5  1  0  0  0  0
  8  2  1  0  0  0  0
  8  6  1  0  0  0  0
  8 17  1  0  0  0  0
  9  1  1  0  0  0  0
 16  7  1  0  0  0  0
 18  8  1  0  0  0  0
M  END
