title
 OpenBabel02282109583D

 22 22  0  0  1  0  0  0  0  0999 V2000
   -0.8661    1.7044   -1.8392 C   0  0  0  0  0  0  0  0  0  0  0  0
   -0.3437    0.2737   -1.6507 C   0  0  0  0  0  0  0  0  0  0  0  0
    0.4413   -0.1833   -2.8876 C   0  0  0  0  0  0  0  0  0  0  0  0
    0.5219    0.1262   -0.3845 C   0  0  0  0  0  0  0  0  0  0  0  0
   -0.2037    0.4108    0.9152 C   0  0  1  0  0  0  0  0  0  0  0  0
   -1.1408   -0.6264    1.5126 C   0  0  0  0  0  0  0  0  0  0  0  0
    0.1723   -0.3045    2.1816 C   0  0  1  0  0  0  0  0  0  0  0  0
    1.2273   -1.2217    2.1097 O   0  0  0  0  0  0  0  0  0  0  0  0
   -0.0349    2.4147   -1.9301 H   0  0  0  0  0  0  0  0  0  0  0  0
   -1.4700    1.7851   -2.7493 H   0  0  0  0  0  0  0  0  0  0  0  0
   -1.4905    2.0261   -1.0004 H   0  0  0  0  0  0  0  0  0  0  0  0
   -1.2127   -0.3896   -1.5352 H   0  0  0  0  0  0  0  0  0  0  0  0
    1.3270    0.4448   -3.0429 H   0  0  0  0  0  0  0  0  0  0  0  0
    0.7844   -1.2182   -2.7832 H   0  0  0  0  0  0  0  0  0  0  0  0
   -0.1708   -0.1213   -3.7937 H   0  0  0  0  0  0  0  0  0  0  0  0
    0.9307   -0.8883   -0.3395 H   0  0  0  0  0  0  0  0  0  0  0  0
    1.3893    0.7971   -0.4657 H   0  0  0  0  0  0  0  0  0  0  0  0
   -0.5039    1.4450    1.0581 H   0  0  0  0  0  0  0  0  0  0  0  0
   -2.0672   -0.3085    1.9790 H   0  0  0  0  0  0  0  0  0  0  0  0
   -1.1944   -1.5824    1.0003 H   0  0  0  0  0  0  0  0  0  0  0  0
    0.1399    0.2704    3.1074 H   0  0  0  0  0  0  0  0  0  0  0  0
    0.9995   -1.9768    2.6615 H   0  0  0  0  0  0  0  0  0  0  0  0
  1  2  1  0  0  0  0
  1 11  1  0  0  0  0
  2 12  1  0  0  0  0
  2  4  1  0  0  0  0
  3 14  1  0  0  0  0
  3  2  1  0  0  0  0
  4 16  1  0  0  0  0
  4  5  1  0  0  0  0
  5 18  1  0  0  0  0
  5  6  1  0  0  0  0
  5  7  1  1  0  0  0
  6 19  1  0  0  0  0
  6  7  1  0  0  0  0
  7 21  1  1  0  0  0
  8  7  1  0  0  0  0
  8 22  1  0  0  0  0
  9  1  1  0  0  0  0
 10  1  1  0  0  0  0
 13  3  1  0  0  0  0
 15  3  1  0  0  0  0
 17  4  1  0  0  0  0
 20  6  1  0  0  0  0
M  END
