23
title
C 1.5558863 1.3464699 0.4831643
C 1.6790818 -0.17352732 0.3134832
C 2.5197265 -0.7841985 1.4420674
C 0.30890203 -0.87425494 0.21815155
C -0.5250492 -0.4400218 -0.97444254
C -1.9435222 -0.8691924 -1.1381925
N -1.6214194 0.5384628 -0.9367904
C -2.0438986 1.1342884 0.32056302
H 2.5437872 1.8186983 0.5000429
H 0.98206174 1.7987736 -0.33100432
H 1.0555974 1.5959615 1.426631
H 2.203641 -0.36145595 -0.6351203
H 2.0427146 -0.6236244 2.41664
H 2.646978 -1.8638655 1.3088211
H 3.5157585 -0.3313294 1.4841428
H 0.4813149 -1.9557428 0.13386996
H -0.24445975 -0.7331902 1.1544571
H 0.06300927 -0.34643435 -1.8885922
H -2.3408961 -1.1436479 -2.1125839
H -2.3906865 -1.4070135 -0.301221
H -2.0432627 0.4474833 1.1822752
H -1.4008646 1.9862851 0.56060404
H -3.066443 1.5062609 0.19704682
