title
 OpenBabel02282109583D

 23 23  0  0  1  0  0  0  0  0999 V2000
    1.5559    1.3465    0.4832 C   0  0  0  0  0  0  0  0  0  0  0  0
    1.6791   -0.1735    0.3135 C   0  0  0  0  0  0  0  0  0  0  0  0
    2.5197   -0.7842    1.4421 C   0  0  0  0  0  0  0  0  0  0  0  0
    0.3089   -0.8743    0.2182 C   0  0  0  0  0  0  0  0  0  0  0  0
   -0.5250   -0.4400   -0.9744 C   0  0  1  0  0  0  0  0  0  0  0  0
   -1.9435   -0.8692   -1.1382 C   0  0  0  0  0  0  0  0  0  0  0  0
   -1.6214    0.5385   -0.9368 N   0  0  0  0  0  0  0  0  0  0  0  0
   -2.0439    1.1343    0.3206 C   0  0  0  0  0  0  0  0  0  0  0  0
    2.5438    1.8187    0.5000 H   0  0  0  0  0  0  0  0  0  0  0  0
    0.9821    1.7988   -0.3310 H   0  0  0  0  0  0  0  0  0  0  0  0
    1.0556    1.5960    1.4266 H   0  0  0  0  0  0  0  0  0  0  0  0
    2.2036   -0.3615   -0.6351 H   0  0  0  0  0  0  0  0  0  0  0  0
    2.0427   -0.6236    2.4166 H   0  0  0  0  0  0  0  0  0  0  0  0
    2.6470   -1.8639    1.3088 H   0  0  0  0  0  0  0  0  0  0  0  0
    3.5158   -0.3313    1.4841 H   0  0  0  0  0  0  0  0  0  0  0  0
    0.4813   -1.9557    0.1339 H   0  0  0  0  0  0  0  0  0  0  0  0
   -0.2445   -0.7332    1.1545 H   0  0  0  0  0  0  0  0  0  0  0  0
    0.0630   -0.3464   -1.8886 H   0  0  0  0  0  0  0  0  0  0  0  0
   -2.3409   -1.1436   -2.1126 H   0  0  0  0  0  0  0  0  0  0  0  0
   -2.3907   -1.4070   -0.3012 H   0  0  0  0  0  0  0  0  0  0  0  0
   -2.0433    0.4475    1.1823 H   0  0  0  0  0  0  0  0  0  0  0  0
   -1.4009    1.9863    0.5606 H   0  0  0  0  0  0  0  0  0  0  0  0
   -3.0664    1.5063    0.1970 H   0  0  0  0  0  0  0  0  0  0  0  0
  1  9  1  0  0  0  0
  1 11  1  0  0  0  0
  2  1  1  0  0  0  0
  2  3  1  0  0  0  0
  3 15  1  0  0  0  0
  3 13  1  0  0  0  0
  4  2  1  0  0  0  0
  4 17  1  0  0  0  0
  5 18  1  6  0  0  0
  5  7  1  0  0  0  0
  5  4  1  0  0  0  0
  6  5  1  0  0  0  0
  6  7  1  0  0  0  0
  6 20  1  0  0  0  0
  7  8  1  0  0  0  0
  8 22  1  0  0  0  0
  8 21  1  0  0  0  0
 10  1  1  0  0  0  0
 12  2  1  0  0  0  0
 14  3  1  0  0  0  0
 16  4  1  0  0  0  0
 19  6  1  0  0  0  0
 23  8  1  0  0  0  0
M  END
