22
title
C -0.096676424 1.772324 -1.1431073
C -0.436731 0.32640478 -1.5112693
C 0.22028862 -0.10836288 -2.8159652
O -0.010150447 -0.6109657 -0.5217239
C -0.7243623 -0.5755903 0.67584115
C -0.26876178 -1.5131524 1.7500347
C -0.100136355 -0.015614837 1.938214
C 1.2878164 0.5833234 1.9210464
H 0.986515 1.9007425 -1.0519396
H -0.4605807 2.454793 -1.9182184
H -0.5594118 2.060667 -0.19558898
H -1.5319191 0.24053556 -1.6159469
H 1.3098584 -0.043448538 -2.7317166
H -0.04367365 -1.1427847 -3.0503619
H -0.10098146 0.5324347 -3.642409
H -1.7986631 -0.44118464 0.5409859
H -1.01127 -2.0500896 2.3300493
H 0.6320365 -2.0784163 1.5335099
H -0.79419017 0.45567805 2.630462
H 1.8893124 0.13447352 1.1261374
H 1.2554039 1.6638097 1.7426704
H 1.8014284 0.41764608 2.874356
