20
title
C -0.16879283 1.7617457 -1.1374743
C -0.4111158 0.30062708 -1.5185591
C 0.32696596 -0.103256695 -2.7884743
O 0.022509556 -0.6140139 -0.49982306
C -0.75745136 -0.6137716 0.66377455
C -0.2619083 -1.5034459 1.7741835
C -0.12028967 0.00089550926 1.8860316
O 1.1332417 0.5912492 1.7337508
H 0.90163064 1.9626946 -1.0248471
H -0.5581616 2.421825 -1.9193217
H -0.66417223 2.018547 -0.19815107
H -1.4923162 0.14828211 -1.6669114
H 1.4066358 0.02340416 -2.658648
H 0.13106303 -1.151242 -3.0287776
H 0.0072596483 0.5163119 -3.6313088
H -1.8289324 -0.5245722 0.48930934
H -0.99324256 -2.0208447 2.385808
H 0.6482599 -2.059387 1.5742478
H -0.73150355 0.5363245 2.6058538
H 1.4230424 0.3631928 0.83954173
