title
 OpenBabel02282109583D

 22 22  0  0  1  0  0  0  0  0999 V2000
    1.4569    2.6275   -0.1210 C   0  0  0  0  0  0  0  0  0  0  0  0
    1.3686    1.1002   -0.0958 C   0  0  1  0  0  0  0  0  0  0  0  0
    1.8123    0.5819    1.1551 O   0  0  0  0  0  0  0  0  0  0  0  0
   -0.0359    0.5966   -0.4673 C   0  0  0  0  0  0  0  0  0  0  0  0
   -0.1315   -0.9128   -0.5469 C   0  0  1  0  0  0  0  0  0  0  0  0
   -0.4787   -1.7494    0.6595 C   0  0  0  0  0  0  0  0  0  0  0  0
   -1.4450   -1.6663   -0.4976 C   0  0  1  0  0  0  0  0  0  0  0  0
   -2.7860   -0.9791   -0.3523 C   0  0  0  0  0  0  0  0  0  0  0  0
    2.4610    2.9528    0.1640 H   0  0  0  0  0  0  0  0  0  0  0  0
    1.2302    3.0254   -1.1157 H   0  0  0  0  0  0  0  0  0  0  0  0
    0.7421    3.0697    0.5849 H   0  0  0  0  0  0  0  0  0  0  0  0
    2.0858    0.6931   -0.8206 H   0  0  0  0  0  0  0  0  0  0  0  0
    1.2058    0.9001    1.8330 H   0  0  0  0  0  0  0  0  0  0  0  0
   -0.7518    0.9915    0.2667 H   0  0  0  0  0  0  0  0  0  0  0  0
   -0.3150    1.0426   -1.4321 H   0  0  0  0  0  0  0  0  0  0  0  0
    0.6140   -1.3479   -1.2097 H   0  0  0  0  0  0  0  0  0  0  0  0
    0.0660   -2.6702    0.8366 H   0  0  0  0  0  0  0  0  0  0  0  0
   -0.7489   -1.2190    1.5681 H   0  0  0  0  0  0  0  0  0  0  0  0
   -1.4800   -2.5463   -1.1357 H   0  0  0  0  0  0  0  0  0  0  0  0
   -2.7390   -0.1306    0.3365 H   0  0  0  0  0  0  0  0  0  0  0  0
   -3.1541   -0.6049   -1.3146 H   0  0  0  0  0  0  0  0  0  0  0  0
   -3.5362   -1.6743    0.0409 H   0  0  0  0  0  0  0  0  0  0  0  0
  1  2  1  0  0  0  0
  1  9  1  0  0  0  0
  1 11  1  0  0  0  0
  2 12  1  6  0  0  0
  2  3  1  0  0  0  0
  3 13  1  0  0  0  0
  4  2  1  0  0  0  0
  4 14  1  0  0  0  0
  5  7  1  6  0  0  0
  5  4  1  0  0  0  0
  5  6  1  0  0  0  0
  6 17  1  0  0  0  0
  6 18  1  0  0  0  0
  7 19  1  6  0  0  0
  7  8  1  0  0  0  0
  7  6  1  0  0  0  0
  8 22  1  0  0  0  0
  8 20  1  0  0  0  0
 10  1  1  0  0  0  0
 15  4  1  0  0  0  0
 16  5  1  0  0  0  0
 21  8  1  0  0  0  0
M  END
