title
 OpenBabel02282109583D

 21 21  0  0  1  0  0  0  0  0999 V2000
    1.0858    2.6163    0.4377 C   0  0  0  0  0  0  0  0  0  0  0  0
    1.0472    1.0992    0.2546 C   0  0  1  0  0  0  0  0  0  0  0  0
    2.0817    0.4630    1.0029 O   0  0  0  0  0  0  0  0  0  0  0  0
   -0.3312    0.5072    0.5958 C   0  0  0  0  0  0  0  0  0  0  0  0
   -0.4118   -0.9871    0.3572 C   0  0  1  0  0  0  0  0  0  0  0  0
   -1.7250   -1.6804    0.2193 C   0  0  0  0  0  0  0  0  0  0  0  0
   -0.8152   -1.5941   -0.9167 N   0  0  0  0  0  0  0  0  0  0  0  0
   -1.2198   -0.7637   -2.0391 C   0  0  0  0  0  0  0  0  0  0  0  0
    2.0870    2.9985    0.2215 H   0  0  0  0  0  0  0  0  0  0  0  0
    0.3710    3.1164   -0.2240 H   0  0  0  0  0  0  0  0  0  0  0  0
    0.8301    2.8891    1.4697 H   0  0  0  0  0  0  0  0  0  0  0  0
    1.2864    0.8580   -0.7882 H   0  0  0  0  0  0  0  0  0  0  0  0
    1.9504    0.6899    1.9307 H   0  0  0  0  0  0  0  0  0  0  0  0
   -0.5358    0.7044    1.6592 H   0  0  0  0  0  0  0  0  0  0  0  0
   -1.1073    1.0407    0.0373 H   0  0  0  0  0  0  0  0  0  0  0  0
    0.4039   -1.5300    0.8300 H   0  0  0  0  0  0  0  0  0  0  0  0
   -1.8866   -2.6714    0.6368 H   0  0  0  0  0  0  0  0  0  0  0  0
   -2.6133   -1.0472    0.2041 H   0  0  0  0  0  0  0  0  0  0  0  0
   -1.8290    0.1154   -1.7734 H   0  0  0  0  0  0  0  0  0  0  0  0
   -0.3314   -0.4164   -2.5775 H   0  0  0  0  0  0  0  0  0  0  0  0
   -1.8110   -1.3763   -2.7277 H   0  0  0  0  0  0  0  0  0  0  0  0
  1 11  1  0  0  0  0
  2 12  1  6  0  0  0
  2  1  1  0  0  0  0
  2  4  1  0  0  0  0
  2  3  1  0  0  0  0
  3 13  1  0  0  0  0
  4 14  1  0  0  0  0
  5  4  1  0  0  0  0
  5 16  1  1  0  0  0
  6  5  1  0  0  0  0
  6 17  1  0  0  0  0
  7  6  1  0  0  0  0
  7  5  1  0  0  0  0
  8 19  1  0  0  0  0
  8  7  1  0  0  0  0
  9  1  1  0  0  0  0
 10  1  1  0  0  0  0
 15  4  1  0  0  0  0
 18  6  1  0  0  0  0
 20  8  1  0  0  0  0
 21  8  1  0  0  0  0
M  END
