21
title
C 1.0858184 2.6163175 0.43765494
C 1.0471658 1.099172 0.25459325
O 2.0817049 0.4630112 1.0029144
C -0.3312142 0.5072333 0.5957905
C -0.4118123 -0.98709697 0.35724288
C -1.7249967 -1.680366 0.21933405
N -0.8152394 -1.5941491 -0.91669625
C -1.2197889 -0.76368505 -2.0390503
H 2.0870051 2.998521 0.22152752
H 0.3710168 3.1163523 -0.22403626
H 0.8300848 2.8890567 1.4696895
H 1.2864497 0.8579785 -0.7882115
H 1.9503715 0.68989 1.9306933
H -0.5357827 0.7044146 1.65924
H -1.1072916 1.0406557 0.037322238
H 0.40387976 -1.5300472 0.82998836
H -1.8866228 -2.6713853 0.6368385
H -2.6132908 -1.0472033 0.20407416
H -1.8289615 0.11544859 -1.7734239
H -0.3314401 -0.4164384 -2.577486
H -1.8110348 -1.3762865 -2.72773
