20
title
C 1.239172 2.641612 -0.12450425
C 1.1155941 1.1267015 -0.28272867
O 2.3637445 0.4776287 -0.040685654
C -0.00025751942 0.53901637 0.5959753
C -0.16596273 -0.94988203 0.401061
O -1.3050938 -1.5722835 1.0084548
C -1.2133019 -1.583333 -0.42113158
C -2.2815852 -0.8510171 -1.1924808
H 2.057857 3.0203507 -0.7422615
H 0.315402 3.1496656 -0.41930506
H 1.44569 2.907372 0.92007077
H 0.8956001 0.89499277 -1.3324046
H 2.64388 0.7090228 0.85235536
H 0.2429069 0.73016614 1.65176
H -0.9414823 1.0611895 0.39996374
H 0.7612387 -1.5094633 0.5263908
H -0.97188544 -2.5680635 -0.82873106
H -2.4986033 0.12963684 -0.76453257
H -1.9765553 -0.71956456 -2.236583
H -3.2110367 -1.4302506 -1.1878031
