title
 OpenBabel02282109583D

 21 21  0  0  1  0  0  0  0  0999 V2000
   -0.9460    2.4937   -1.2527 C   0  0  0  0  0  0  0  0  0  0  0  0
   -0.9249    0.9824   -1.0764 C   0  0  1  0  0  0  0  0  0  0  0  0
   -0.2170    0.4320   -2.1789 O   0  0  0  0  0  0  0  0  0  0  0  0
   -0.2719    0.5597    0.2465 C   0  0  0  0  0  0  0  0  0  0  0  0
   -0.1420   -0.8979    0.2675 N   0  0  0  0  0  0  0  0  0  0  0  0
    1.2013   -1.4723    0.1654 C   0  0  0  0  0  0  0  0  0  0  0  0
    0.4383   -1.5615    1.4396 C   0  0  1  0  0  0  0  0  0  0  0  0
    0.8728   -0.7986    2.6715 C   0  0  0  0  0  0  0  0  0  0  0  0
    0.0741    2.8910   -1.2665 H   0  0  0  0  0  0  0  0  0  0  0  0
   -1.4253    2.7570   -2.1991 H   0  0  0  0  0  0  0  0  0  0  0  0
   -1.4974    2.9742   -0.4384 H   0  0  0  0  0  0  0  0  0  0  0  0
   -1.9595    0.6015   -1.0713 H   0  0  0  0  0  0  0  0  0  0  0  0
   -0.2172   -0.5223   -2.0415 H   0  0  0  0  0  0  0  0  0  0  0  0
    0.6957    1.0759    0.3515 H   0  0  0  0  0  0  0  0  0  0  0  0
   -0.9120    0.8738    1.0800 H   0  0  0  0  0  0  0  0  0  0  0  0
    1.3081   -2.3363   -0.4862 H   0  0  0  0  0  0  0  0  0  0  0  0
    2.0416   -0.7796    0.1368 H   0  0  0  0  0  0  0  0  0  0  0  0
   -0.0529   -2.5082    1.6631 H   0  0  0  0  0  0  0  0  0  0  0  0
    1.4308    0.1069    2.4217 H   0  0  0  0  0  0  0  0  0  0  0  0
    0.0105   -0.5096    3.2829 H   0  0  0  0  0  0  0  0  0  0  0  0
    1.5188   -1.4292    3.2913 H   0  0  0  0  0  0  0  0  0  0  0  0
  1  2  1  0  0  0  0
  1 11  1  0  0  0  0
  2 12  1  6  0  0  0
  2  4  1  0  0  0  0
  3 13  1  0  0  0  0
  3  2  1  0  0  0  0
  4  5  1  0  0  0  0
  4 14  1  0  0  0  0
  4 15  1  0  0  0  0
  5  7  1  0  0  0  0
  6  5  1  0  0  0  0
  6  7  1  0  0  0  0
  7 18  1  1  0  0  0
  7  8  1  0  0  0  0
  8 20  1  0  0  0  0
  8 21  1  0  0  0  0
  9  1  1  0  0  0  0
 10  1  1  0  0  0  0
 16  6  1  0  0  0  0
 17  6  1  0  0  0  0
 19  8  1  0  0  0  0
M  END
