17
title
C -0.3232724 2.5875795 0.92958665
C -0.039665315 1.116087 1.0065117
N 0.68457127 0.6047966 1.9076226
O -0.68851477 0.46644032 -0.02383436
C -0.65183705 -0.940882 -0.020066394
C -0.98935527 -1.5789869 -1.3418372
C 0.43917507 -1.5812657 -0.8445996
O 1.4044312 -0.77832013 -1.4434807
H 0.2058753 3.1021605 1.7300885
H -0.005630259 2.987419 -0.038705837
H -1.3985678 2.771157 1.0169395
H 0.7934574 -0.40264708 1.7960534
H -0.9983039 -1.3906126 0.9067873
H -1.5608773 -2.5003703 -1.3358183
H -1.2195725 -0.89925796 -2.1555178
H 0.8695227 -2.517485 -0.5041293
H 1.0858601 0.13175231 -1.4123833
