18
title
C 0.9566892 2.852058 0.010709104
C 1.114241 1.3410571 -0.033665527
O 2.1637447 0.80092835 0.23031156
C -0.12655161 0.55445755 -0.44312105
C 0.037756693 -0.94000405 -0.31396845
C -0.28817058 -1.6328033 0.99416554
C -1.167763 -1.8277396 -0.21599603
O -2.4185064 -1.1981772 -0.26711094
H 1.9244812 3.321852 0.18995072
H 0.52459776 3.2283094 -0.92286915
H 0.26415765 3.12984 0.81404525
H -0.9900446 0.90567034 0.13223417
H -0.3553133 0.8324619 -1.4833075
H 0.88440114 -1.3407508 -0.86101365
H 0.34301114 -2.4479554 1.3297752
H -0.69241357 -1.0139385 1.7893292
H -1.1253419 -2.7897496 -0.7266789
H -3.004003 -1.655639 0.34497458
