title
 OpenBabel02282109583D

 17 17  0  0  1  0  0  0  0  0999 V2000
    1.0678    2.6664    0.0067 C   0  0  0  0  0  0  0  0  0  0  0  0
    1.2051    1.1551    0.1162 C   0  0  0  0  0  0  0  0  0  0  0  0
    2.2718    0.6111    0.3405 O   0  0  0  0  0  0  0  0  0  0  0  0
    0.0470    0.4559   -0.0667 N   0  0  0  0  0  0  0  0  0  0  0  0
    0.0215   -0.9702   -0.0926 C   0  0  1  0  0  0  0  0  0  0  0  0
   -0.7656   -1.7348    0.9576 C   0  0  0  0  0  0  0  0  0  0  0  0
   -1.2825   -1.6138   -0.4572 C   0  0  1  0  0  0  0  0  0  0  0  0
   -2.3266   -0.7186   -0.7294 O   0  0  0  0  0  0  0  0  0  0  0  0
    1.5318    3.1240    0.8835 H   0  0  0  0  0  0  0  0  0  0  0  0
    1.6216    3.0094   -0.8722 H   0  0  0  0  0  0  0  0  0  0  0  0
    0.0327    3.0087   -0.0727 H   0  0  0  0  0  0  0  0  0  0  0  0
   -0.8081    0.9244   -0.3218 H   0  0  0  0  0  0  0  0  0  0  0  0
    0.9480   -1.4025   -0.4500 H   0  0  0  0  0  0  0  0  0  0  0  0
   -0.3888   -2.6931    1.2977 H   0  0  0  0  0  0  0  0  0  0  0  0
   -1.2673   -1.1370    1.7112 H   0  0  0  0  0  0  0  0  0  0  0  0
   -1.2616   -2.4942   -1.0976 H   0  0  0  0  0  0  0  0  0  0  0  0
   -3.1245   -1.0440   -0.3006 H   0  0  0  0  0  0  0  0  0  0  0  0
  1  2  1  0  0  0  0
  1  9  1  0  0  0  0
  2  3  2  0  0  0  0
  4  2  1  0  0  0  0
  5  7  1  6  0  0  0
  5  4  1  0  0  0  0
  5  6  1  0  0  0  0
  6 14  1  0  0  0  0
  6 15  1  0  0  0  0
  7 16  1  6  0  0  0
  7  6  1  0  0  0  0
  8  7  1  0  0  0  0
  8 17  1  0  0  0  0
 10  1  1  0  0  0  0
 11  1  1  0  0  0  0
 12  4  1  0  0  0  0
 13  5  1  0  0  0  0
M  END
