16
title
C -0.0984695 2.612548 0.9364786
C -0.32756886 1.132068 1.1103307
O -0.9166026 0.60508305 2.0144005
O 0.24564284 0.44105247 0.08642035
C 0.10170576 -0.9682327 0.110839896
C -0.88223773 -1.5783304 -0.8552806
C 0.60698116 -1.6216339 -1.138875
O 1.1455345 -0.83203274 -2.1527822
H 0.973215 2.8253806 0.8892562
H -0.5406826 2.9526083 -0.0044525373
H -0.54763454 3.147655 1.7719308
H 0.2558787 -1.4017187 1.0908623
H -1.4017717 -2.4824169 -0.55757326
H -1.457684 -0.88618594 -1.4603176
H 1.1206529 -2.5739832 -1.0417488
H 1.2100747 0.06766884 -1.8113661
