title
 OpenBabel02282109583D

 16 16  0  0  1  0  0  0  0  0999 V2000
   -0.0985    2.6125    0.9365 C   0  0  0  0  0  0  0  0  0  0  0  0
   -0.3276    1.1321    1.1103 C   0  0  0  0  0  0  0  0  0  0  0  0
   -0.9166    0.6051    2.0144 O   0  0  0  0  0  0  0  0  0  0  0  0
    0.2456    0.4411    0.0864 O   0  0  0  0  0  0  0  0  0  0  0  0
    0.1017   -0.9682    0.1108 C   0  0  1  0  0  0  0  0  0  0  0  0
   -0.8822   -1.5783   -0.8553 C   0  0  0  0  0  0  0  0  0  0  0  0
    0.6070   -1.6216   -1.1389 C   0  0  1  0  0  0  0  0  0  0  0  0
    1.1455   -0.8320   -2.1528 O   0  0  0  0  0  0  0  0  0  0  0  0
    0.9732    2.8254    0.8893 H   0  0  0  0  0  0  0  0  0  0  0  0
   -0.5407    2.9526   -0.0045 H   0  0  0  0  0  0  0  0  0  0  0  0
   -0.5476    3.1477    1.7719 H   0  0  0  0  0  0  0  0  0  0  0  0
    0.2559   -1.4017    1.0909 H   0  0  0  0  0  0  0  0  0  0  0  0
   -1.4018   -2.4824   -0.5576 H   0  0  0  0  0  0  0  0  0  0  0  0
   -1.4577   -0.8862   -1.4603 H   0  0  0  0  0  0  0  0  0  0  0  0
    1.1207   -2.5740   -1.0417 H   0  0  0  0  0  0  0  0  0  0  0  0
    1.2101    0.0677   -1.8114 H   0  0  0  0  0  0  0  0  0  0  0  0
  1  2  1  0  0  0  0
  1 11  1  0  0  0  0
  2  3  2  0  0  0  0
  4  5  1  0  0  0  0
  4  2  1  0  0  0  0
  5  7  1  6  0  0  0
  5 12  1  0  0  0  0
  6 13  1  0  0  0  0
  6  5  1  0  0  0  0
  7 15  1  1  0  0  0
  7  6  1  0  0  0  0
  8 16  1  0  0  0  0
  8  7  1  0  0  0  0
  9  1  1  0  0  0  0
 10  1  1  0  0  0  0
 14  6  1  0  0  0  0
M  END
