19
title
C -1.479082 1.6280286 -2.013325
C -0.7914359 0.2802492 -2.0471098
C 0.68941724 0.15043916 -1.78409
C -0.31369781 -0.43779856 -0.80527616
C -0.48839736 0.13107479 0.5879446
C 0.4395423 -0.43391705 1.6697387
N 1.6533883 -0.8740365 1.230482
O 0.11999833 -0.45517433 2.8422437
H -1.0477017 2.2936904 -1.2604963
H -1.3869058 2.1303282 -2.9823382
H -2.5473406 1.5252572 -1.7927442
H -1.1773291 -0.38092363 -2.8191042
H 1.2780042 -0.5154337 -2.406916
H 1.2154229 1.0501591 -1.476377
H -0.41651404 -1.5197338 -0.8437358
H -0.33393586 1.216472 0.58455265
H -1.5057398 -0.030330671 0.9567348
H 1.8989968 -0.8694163 0.25639713
H 2.3031604 -1.2358326 1.9083439
