18
title
C -1.0911695 1.3555471 -1.4707023
C -0.8047495 -0.10888563 -1.7062159
C 0.5324934 -0.5671519 -2.2388253
C 0.13785985 -0.8818204 -0.8172579
N 0.8395242 -0.2029022 0.23377298
C 0.21367207 -0.008827715 1.4529831
N 1.0755855 0.42084333 2.4588063
O -0.96960765 -0.21160042 1.6395545
H -0.18919167 1.8884687 -1.1579926
H -1.4643719 1.8320303 -2.3835275
H -1.8414276 1.4783591 -0.6838362
H -1.6638787 -0.68570274 -2.0371058
H 0.5767047 -1.382693 -2.9518898
H 1.2926737 0.19505279 -2.3797812
H -0.1472865 -1.9077389 -0.593534
H 1.8391417 -0.3412399 0.25888154
H 1.8565761 0.9986551 2.1846006
H 0.57604617 0.77072144 3.2626474
