19
title
C -1.2950809 1.4449373 -1.3058039
C -0.8889217 0.03340654 -1.6629571
C 0.4956027 -0.24853204 -2.222521
C 0.13142677 -0.7101765 -0.8472174
O 0.7897876 -0.035685107 0.20564958
C 0.29621014 -0.22362201 1.4530172
C 1.1249169 0.54762274 2.44842
N -0.7120008 -0.96549463 1.6616142
H -0.45180133 2.0011792 -0.88760304
H -1.6518611 1.9865674 -2.1882493
H -2.097936 1.4441013 -0.5610419
H -1.6935533 -0.58623993 -2.0500503
H 0.62095803 -0.9904845 -3.0032892
H 1.1782576 0.592892 -2.2836382
H -0.026751975 -1.7622677 -0.64202946
H 1.1121632 1.614175 2.203683
H 0.74733025 0.40929666 3.462628
H 2.167872 0.2194437 2.4051065
H -0.92766225 -0.9984081 2.655429
