title
 OpenBabel02282109583D

 18 18  0  0  1  0  0  0  0  0999 V2000
   -1.1729    1.5113   -1.4524 C   0  0  0  0  0  0  0  0  0  0  0  0
   -0.8807    0.0499   -1.7055 C   0  0  1  0  0  0  0  0  0  0  0  0
    0.4841   -0.3856   -2.2104 C   0  0  0  0  0  0  0  0  0  0  0  0
    0.0571   -0.7213   -0.8174 C   0  0  1  0  0  0  0  0  0  0  0  0
    0.7465   -0.0262    0.2079 O   0  0  0  0  0  0  0  0  0  0  0  0
    0.2789   -0.2066    1.4686 C   0  0  0  0  0  0  0  0  0  0  0  0
    1.1065    0.5862    2.4515 C   0  0  0  0  0  0  0  0  0  0  0  0
   -0.6560   -0.9127    1.7428 O   0  0  0  0  0  0  0  0  0  0  0  0
   -0.2972    2.0227   -1.0442 H   0  0  0  0  0  0  0  0  0  0  0  0
   -1.4592    2.0192   -2.3793 H   0  0  0  0  0  0  0  0  0  0  0  0
   -1.9938    1.6299   -0.7368 H   0  0  0  0  0  0  0  0  0  0  0  0
   -1.7273   -0.5256   -2.0707 H   0  0  0  0  0  0  0  0  0  0  0  0
    0.5599   -1.1865   -2.9373 H   0  0  0  0  0  0  0  0  0  0  0  0
    1.2380    0.3887   -2.3090 H   0  0  0  0  0  0  0  0  0  0  0  0
   -0.1893   -1.7395   -0.5433 H   0  0  0  0  0  0  0  0  0  0  0  0
    1.0639    1.6511    2.2053 H   0  0  0  0  0  0  0  0  0  0  0  0
    0.7271    0.4224    3.4592 H   0  0  0  0  0  0  0  0  0  0  0  0
    2.1549    0.2810    2.3917 H   0  0  0  0  0  0  0  0  0  0  0  0
  1  9  1  0  0  0  0
  1 11  1  0  0  0  0
  2  1  1  0  0  0  0
  2  4  1  1  0  0  0
  3  2  1  0  0  0  0
  3  4  1  0  0  0  0
  4 15  1  1  0  0  0
  4  5  1  0  0  0  0
  5  6  1  0  0  0  0
  6  8  2  0  0  0  0
  6  7  1  0  0  0  0
  7 17  1  0  0  0  0
 10  1  1  0  0  0  0
 12  2  1  0  0  0  0
 13  3  1  0  0  0  0
 14  3  1  0  0  0  0
 16  7  1  0  0  0  0
 18  7  1  0  0  0  0
M  END
