title
 OpenBabel02282109583D

 19 19  0  0  1  0  0  0  0  0999 V2000
   -1.1703    1.1916   -2.3931 C   0  0  0  0  0  0  0  0  0  0  0  0
   -1.5394    0.0617   -1.4572 C   0  0  1  0  0  0  0  0  0  0  0  0
   -0.6838   -1.1521   -1.3243 C   0  0  0  0  0  0  0  0  0  0  0  0
   -0.8196   -0.2140   -0.2106 N   0  0  0  0  0  0  0  0  0  0  0  0
    0.3402    0.5855    0.1491 C   0  0  0  0  0  0  0  0  0  0  0  0
    1.1040    0.0070    1.3470 C   0  0  0  0  0  0  0  0  0  0  0  0
    0.3044   -0.7619    2.3764 C   0  0  0  0  0  0  0  0  0  0  0  0
    2.2919    0.2044    1.4560 O   0  0  0  0  0  0  0  0  0  0  0  0
   -0.0931    1.2625   -2.5606 H   0  0  0  0  0  0  0  0  0  0  0  0
   -1.6474    1.0357   -3.3663 H   0  0  0  0  0  0  0  0  0  0  0  0
   -1.5193    2.1557   -2.0067 H   0  0  0  0  0  0  0  0  0  0  0  0
   -2.6145   -0.0755   -1.3450 H   0  0  0  0  0  0  0  0  0  0  0  0
   -1.1206   -2.1368   -1.1791 H   0  0  0  0  0  0  0  0  0  0  0  0
    0.2587   -1.1510   -1.8718 H   0  0  0  0  0  0  0  0  0  0  0  0
    1.0743    0.7374   -0.6545 H   0  0  0  0  0  0  0  0  0  0  0  0
   -0.0094    1.5808    0.4610 H   0  0  0  0  0  0  0  0  0  0  0  0
   -0.5695   -0.1845    2.6949 H   0  0  0  0  0  0  0  0  0  0  0  0
   -0.0885   -1.6813    1.9312 H   0  0  0  0  0  0  0  0  0  0  0  0
    0.9409   -0.9990    3.2297 H   0  0  0  0  0  0  0  0  0  0  0  0
  1 11  1  0  0  0  0
  1  2  1  0  0  0  0
  2 12  1  1  0  0  0
  2  3  1  0  0  0  0
  2  4  1  0  0  0  0
  3 13  1  0  0  0  0
  3  4  1  0  0  0  0
  4  5  1  0  0  0  0
  5 16  1  0  0  0  0
  5  6  1  0  0  0  0
  6  8  2  0  0  0  0
  6  7  1  0  0  0  0
  7 17  1  0  0  0  0
  7 19  1  0  0  0  0
  9  1  1  0  0  0  0
 10  1  1  0  0  0  0
 14  3  1  0  0  0  0
 15  5  1  0  0  0  0
 18  7  1  0  0  0  0
M  END
