18
title
C -1.1181258 1.8218392 -1.9776288
C -0.78698105 0.34977025 -1.965029
N 0.57667446 -0.037888374 -1.5575491
C -0.5761077 -0.46532032 -0.73437804
C -0.6582279 0.07422794 0.6815924
C 0.43933475 -0.4742109 1.6037621
N 1.7029747 -0.19540876 1.1710579
O 0.19726837 -1.0650613 2.63812
H -0.63538194 2.351123 -1.1535729
H -0.77273893 2.2797272 -2.9104714
H -2.1998518 1.9773029 -1.9061072
H -1.2038614 -0.20078811 -2.8077524
H 0.9187559 -0.8107977 -2.1210043
H -0.8556736 -1.5147609 -0.8135491
H -0.58314884 1.1657233 0.6760408
H -1.6162122 -0.19685972 1.1302283
H 1.8413507 0.13394353 0.2253463
H 2.471694 -0.6035974 1.6776528
