title
 OpenBabel02282109583D

 18 18  0  0  1  0  0  0  0  0999 V2000
   -1.3166    1.8387   -1.9401 C   0  0  0  0  0  0  0  0  0  0  0  0
   -1.1742    0.3447   -1.7905 C   0  0  1  0  0  0  0  0  0  0  0  0
    0.1493   -0.2025   -1.8115 O   0  0  0  0  0  0  0  0  0  0  0  0
   -0.6206   -0.3341   -0.6087 C   0  0  1  0  0  0  0  0  0  0  0  0
   -0.0988    0.3853    0.6124 C   0  0  0  0  0  0  0  0  0  0  0  0
    0.7110   -0.5257    1.5399 C   0  0  0  0  0  0  0  0  0  0  0  0
    1.6703    0.1739    2.4829 C   0  0  0  0  0  0  0  0  0  0  0  0
    0.5744   -1.7264    1.5326 O   0  0  0  0  0  0  0  0  0  0  0  0
   -0.6083    2.3834   -1.3126 H   0  0  0  0  0  0  0  0  0  0  0  0
   -1.1411    2.1318   -2.9804 H   0  0  0  0  0  0  0  0  0  0  0  0
   -2.3319    2.1520   -1.6731 H   0  0  0  0  0  0  0  0  0  0  0  0
   -1.8868   -0.2307   -2.3862 H   0  0  0  0  0  0  0  0  0  0  0  0
   -0.9471   -1.3524   -0.4026 H   0  0  0  0  0  0  0  0  0  0  0  0
    0.4992    1.2554    0.3282 H   0  0  0  0  0  0  0  0  0  0  0  0
   -0.9363    0.7674    1.2162 H   0  0  0  0  0  0  0  0  0  0  0  0
    1.1758    1.0040    2.9993 H   0  0  0  0  0  0  0  0  0  0  0  0
    2.0694   -0.5364    3.2078 H   0  0  0  0  0  0  0  0  0  0  0  0
    2.4963    0.6068    1.9057 H   0  0  0  0  0  0  0  0  0  0  0  0
  1  2  1  0  0  0  0
  1 11  1  0  0  0  0
  1  9  1  0  0  0  0
  2  4  1  1  0  0  0
  3  2  1  0  0  0  0
  3  4  1  0  0  0  0
  4 13  1  1  0  0  0
  4  5  1  0  0  0  0
  5 15  1  0  0  0  0
  5  6  1  0  0  0  0
  6  7  1  0  0  0  0
  7 16  1  0  0  0  0
  7 17  1  0  0  0  0
  8  6  2  0  0  0  0
 10  1  1  0  0  0  0
 12  2  1  0  0  0  0
 14  5  1  0  0  0  0
 18  7  1  0  0  0  0
M  END
