title
 OpenBabel02282109583D

 17 17  0  0  1  0  0  0  0  0999 V2000
   -1.1445    1.8330   -1.9210 C   0  0  0  0  0  0  0  0  0  0  0  0
   -0.7630    0.3765   -1.9438 C   0  0  1  0  0  0  0  0  0  0  0  0
    0.5618    0.0271   -1.5130 O   0  0  0  0  0  0  0  0  0  0  0  0
   -0.5566   -0.4705   -0.7540 C   0  0  1  0  0  0  0  0  0  0  0  0
   -0.6870   -0.0009    0.6783 C   0  0  0  0  0  0  0  0  0  0  0  0
    0.4375   -0.5109    1.5932 C   0  0  0  0  0  0  0  0  0  0  0  0
    1.6913   -0.2286    1.1383 N   0  0  0  0  0  0  0  0  0  0  0  0
    0.2165   -1.0735    2.6468 O   0  0  0  0  0  0  0  0  0  0  0  0
   -0.8269    2.3285   -1.0018 H   0  0  0  0  0  0  0  0  0  0  0  0
   -0.6777    2.3545   -2.7629 H   0  0  0  0  0  0  0  0  0  0  0  0
   -2.2298    1.9413   -2.0212 H   0  0  0  0  0  0  0  0  0  0  0  0
   -1.0594   -0.1471   -2.8549 H   0  0  0  0  0  0  0  0  0  0  0  0
   -0.7109   -1.5433   -0.8830 H   0  0  0  0  0  0  0  0  0  0  0  0
   -0.6932    1.0920    0.7267 H   0  0  0  0  0  0  0  0  0  0  0  0
   -1.6258   -0.3643    1.1023 H   0  0  0  0  0  0  0  0  0  0  0  0
    1.8314    0.1012    0.1958 H   0  0  0  0  0  0  0  0  0  0  0  0
    2.4715   -0.6010    1.6547 H   0  0  0  0  0  0  0  0  0  0  0  0
  1  9  1  0  0  0  0
  2  1  1  0  0  0  0
  2  3  1  0  0  0  0
  2  4  1  1  0  0  0
  3  4  1  0  0  0  0
  4 13  1  6  0  0  0
  4  5  1  0  0  0  0
  5 14  1  0  0  0  0
  5 15  1  0  0  0  0
  5  6  1  0  0  0  0
  6  8  2  0  0  0  0
  7  6  1  0  0  0  0
  7 17  1  0  0  0  0
 10  1  1  0  0  0  0
 11  1  1  0  0  0  0
 12  2  1  0  0  0  0
 16  7  1  0  0  0  0
M  END
