19
title
C -0.84648585 0.9421568 -1.8437479
N -0.39898112 -0.43937412 -1.7847713
C 0.9989476 -0.7351809 -2.0591896
C 0.43936098 -0.8973426 -0.68320715
C 0.9132453 -0.004723149 0.44428527
C -0.12195079 0.20032547 1.5492443
C 0.39465994 0.8092741 2.8410845
O -1.2838476 -0.099870846 1.4018978
H -0.07033338 1.689682 -1.6085955
H -1.2039589 1.1507077 -2.857243
H -1.6787742 1.0739198 -1.1470261
H 1.1962795 -1.5972713 -2.6917753
H 1.6791065 0.10353123 -2.2154994
H 0.17763154 -1.9002585 -0.34978735
H 1.8267608 -0.4216172 0.8899895
H 1.2051663 0.9890938 0.0820844
H 1.0568746 0.09619604 3.346511
H 0.99001217 1.7070084 2.6419454
H -0.44074392 1.0520352 3.4986424
