16
title
N 1.0558909 2.5259242 -0.08492978
C 1.1877992 1.1595201 0.14828646
O 2.2606206 0.6320479 0.37767118
N 2.2351109e-05 0.4696011 0.06511796
C 0.00018423733 -0.9601996 0.07066863
C -0.9431763 -1.7092981 0.9926174
C -1.210554 -1.639977 -0.4946072
O -2.20351 -0.7714962 -0.9704874
H 1.8735185 3.040025 0.20652781
H 0.18564773 2.9596498 0.18588154
H -0.78418654 0.8939271 -0.40828663
H 0.98134464 -1.3786938 -0.11552517
H -0.6206166 -2.6514266 1.4224317
H -1.5780774 -1.1002126 1.6275691
H -1.0692528 -2.5381417 -1.0937119
H -3.060106 -1.1032851 -0.683518
