title
 OpenBabel02282109583D

 16 16  0  0  1  0  0  0  0  0999 V2000
    1.0559    2.5259   -0.0849 N   0  0  0  0  0  0  0  0  0  0  0  0
    1.1878    1.1595    0.1483 C   0  0  0  0  0  0  0  0  0  0  0  0
    2.2606    0.6320    0.3777 O   0  0  0  0  0  0  0  0  0  0  0  0
    0.0000    0.4696    0.0651 N   0  0  0  0  0  0  0  0  0  0  0  0
    0.0002   -0.9602    0.0707 C   0  0  1  0  0  0  0  0  0  0  0  0
   -0.9432   -1.7093    0.9926 C   0  0  0  0  0  0  0  0  0  0  0  0
   -1.2106   -1.6400   -0.4946 C   0  0  1  0  0  0  0  0  0  0  0  0
   -2.2035   -0.7715   -0.9705 O   0  0  0  0  0  0  0  0  0  0  0  0
    1.8735    3.0400    0.2065 H   0  0  0  0  0  0  0  0  0  0  0  0
    0.1856    2.9596    0.1859 H   0  0  0  0  0  0  0  0  0  0  0  0
   -0.7842    0.8939   -0.4083 H   0  0  0  0  0  0  0  0  0  0  0  0
    0.9813   -1.3787   -0.1155 H   0  0  0  0  0  0  0  0  0  0  0  0
   -0.6206   -2.6514    1.4224 H   0  0  0  0  0  0  0  0  0  0  0  0
   -1.5781   -1.1002    1.6276 H   0  0  0  0  0  0  0  0  0  0  0  0
   -1.0693   -2.5381   -1.0937 H   0  0  0  0  0  0  0  0  0  0  0  0
   -3.0601   -1.1033   -0.6835 H   0  0  0  0  0  0  0  0  0  0  0  0
  1  2  1  0  0  0  0
  1 10  1  0  0  0  0
  1  9  1  0  0  0  0
  2  3  2  0  0  0  0
  4  5  1  0  0  0  0
  4  2  1  0  0  0  0
  5  7  1  6  0  0  0
  5  6  1  0  0  0  0
  6 13  1  0  0  0  0
  6 14  1  0  0  0  0
  7 15  1  6  0  0  0
  7  6  1  0  0  0  0
  8 16  1  0  0  0  0
  8  7  1  0  0  0  0
 11  4  1  0  0  0  0
 12  5  1  0  0  0  0
M  END
