18
title
C 0.17511941 2.5251906 0.06752402
C 0.09443225 1.0306158 0.029102188
C -1.0008868 0.2578463 -0.060449388
C -2.4334414 0.6846787 -0.14581206
C -0.6564595 -1.2124777 -0.07006018
C 0.8724202 -1.2400208 0.030192155
O 1.5645391 -2.2237446 0.05380744
C 1.3610497 0.21095337 0.094892904
H 0.7820744 2.9058025 -0.7642752
H -0.8049733 3.0037136 0.013133844
H 0.66592294 2.8670478 0.9880754
H -2.8997972 0.30816752 -1.0655415
H -3.0158422 0.26904237 0.6867989
H -2.5536988 1.7699455 -0.12947308
H -1.0988065 -1.771095 0.7666905
H -0.9836261 -1.7328007 -0.9811383
H 2.0558317 0.4116599 -0.7326613
H 1.9398178 0.3727144 1.0150772
