17
title
C 0.22928807 2.5642383 0.051609654
C 0.14778024 1.0733769 0.018282862
C -0.94112146 0.28777933 0.067021444
C -2.3918612 0.6198272 0.16730493
N -0.5676761 -1.0748863 0.008145156
C 0.7988361 -1.2418971 -0.082521126
O 1.3890259 -2.2959821 -0.1468107
C 1.3667747 0.18533498 -0.081948906
H 0.82559717 2.9156117 0.90410787
H 0.7138132 2.960955 -0.85042137
H -0.757113 3.0297108 0.12645465
H -2.9482534 0.22845733 -0.6935263
H -2.8377256 0.17900556 1.0676496
H -2.548107 1.6986659 0.20738576
H -1.2064608 -1.8527021 0.028863672
H 1.9525692 0.34683883 -0.99537545
H 2.0643606 0.30204886 0.7566589
