14
title
C -0.037035614 2.819975 0.03767675
C -0.021730576 1.3353444 -0.07823385
C -0.060014017 0.5653845 -1.202657
C -0.023174709 -0.8272481 -0.79417413
O -0.036130212 -1.867023 -1.4201065
C 0.043327242 -0.7829883 0.749673
N 0.09252809 -1.7388566 1.5771983
N 0.038687155 0.56676227 1.0723202
H 0.86380124 3.1775522 0.5501213
H -0.086138345 3.28564 -0.94716054
H -0.89955276 3.1533928 0.62662715
H -0.10907237 0.93009275 -2.2162986
H 0.08131167 -2.6125865 1.0413275
H 0.074980356 0.9232519 2.012073
