14
title
C -0.041751966 2.8825443 0.04403697
C -0.021583658 1.3931175 -0.017453028
C -0.05493617 0.6344884 -1.1319242
C -0.020454472 -0.7985488 -0.8166706
O -0.036334444 -1.7532276 -1.5551286
C 0.043119103 -0.8742541 0.73933035
O 0.083880395 -1.8810862 1.3890382
C 0.04172068 0.566916 1.2490317
H 0.85135496 3.2582436 0.55919266
H -0.087787785 3.3321905 -0.9502856
H -0.9026089 3.2315552 0.6282575
H -0.10149599 1.0113868 -2.1463766
H 0.94145733 0.7733721 1.8422071
H -0.81347626 0.74680084 1.9125776
