title
 OpenBabel02282109583D

 13 13  0  0  0  0  0  0  0  0999 V2000
   -0.0422    2.8214    0.0177 C   0  0  0  0  0  0  0  0  0  0  0  0
   -0.0246    1.3383   -0.1002 C   0  0  0  0  0  0  0  0  0  0  0  0
   -0.0609    0.5697   -1.2172 C   0  0  0  0  0  0  0  0  0  0  0  0
   -0.0216   -0.8296   -0.8131 C   0  0  0  0  0  0  0  0  0  0  0  0
   -0.0345   -1.8522   -1.4536 O   0  0  0  0  0  0  0  0  0  0  0  0
    0.0453   -0.7900    0.7624 C   0  0  0  0  0  0  0  0  0  0  0  0
    0.0913   -1.7027    1.5406 O   0  0  0  0  0  0  0  0  0  0  0  0
    0.0371    0.5671    1.0629 N   0  0  0  0  0  0  0  0  0  0  0  0
    0.8589    3.1793    0.5299 H   0  0  0  0  0  0  0  0  0  0  0  0
   -0.0938    3.2879   -0.9668 H   0  0  0  0  0  0  0  0  0  0  0  0
   -0.9042    3.1521    0.6095 H   0  0  0  0  0  0  0  0  0  0  0  0
   -0.1106    0.9323   -2.2318 H   0  0  0  0  0  0  0  0  0  0  0  0
    0.0713    0.9346    1.9999 H   0  0  0  0  0  0  0  0  0  0  0  0
  1  9  1  0  0  0  0
  1 11  1  0  0  0  0
  2  1  1  0  0  0  0
  2  8  1  0  0  0  0
  3  4  1  0  0  0  0
  3  2  2  0  0  0  0
  4  6  1  0  0  0  0
  5  4  2  0  0  0  0
  6  8  1  0  0  0  0
  6  7  2  0  0  0  0
  8 13  1  0  0  0  0
 10  1  1  0  0  0  0
 12  3  1  0  0  0  0
M  END
