title
 OpenBabel02282109583D

 13 13  0  0  0  0  0  0  0  0999 V2000
    0.0431    2.7303    0.0151 N   0  0  0  0  0  0  0  0  0  0  0  0
   -0.0238    1.3849    0.0079 C   0  0  0  0  0  0  0  0  0  0  0  0
   -1.1485    0.6101    0.0104 C   0  0  0  0  0  0  0  0  0  0  0  0
   -0.8209   -0.8008    0.0005 C   0  0  0  0  0  0  0  0  0  0  0  0
   -1.5416   -1.7752   -0.0006 O   0  0  0  0  0  0  0  0  0  0  0  0
    0.7336   -0.8678   -0.0094 C   0  0  0  0  0  0  0  0  0  0  0  0
    1.4033   -1.8622   -0.0190 O   0  0  0  0  0  0  0  0  0  0  0  0
    1.2497    0.5770   -0.0044 C   0  0  0  0  0  0  0  0  0  0  0  0
    0.9278    3.2062    0.0125 H   0  0  0  0  0  0  0  0  0  0  0  0
   -0.7907    3.2933    0.0235 H   0  0  0  0  0  0  0  0  0  0  0  0
   -2.1643    0.9840    0.0187 H   0  0  0  0  0  0  0  0  0  0  0  0
    1.8648    0.7768   -0.8901 H   0  0  0  0  0  0  0  0  0  0  0  0
    1.8757    0.7669    0.8758 H   0  0  0  0  0  0  0  0  0  0  0  0
  1 10  1  0  0  0  0
  2  3  2  0  0  0  0
  2  1  1  0  0  0  0
  3 11  1  0  0  0  0
  4  3  1  0  0  0  0
  5  4  2  0  0  0  0
  6  8  1  0  0  0  0
  6  4  1  0  0  0  0
  7  6  2  0  0  0  0
  8  2  1  0  0  0  0
  8 13  1  0  0  0  0
  9  1  1  0  0  0  0
 12  8  1  0  0  0  0
M  END
