14
title
C -0.19150998 2.5226035 -0.048026208
C -0.24675903 1.0352628 -0.044968866
C -1.275211 0.18877684 -0.19351791
C -0.7964955 -1.2079134 -0.11084522
N -1.537907 -2.2373338 -0.21498044
N 0.58245057 -1.1123693 0.09651262
C 1.000618 0.21478944 0.14916867
O 2.1325293 0.60332364 0.31663114
H 0.4801983 2.8805842 -0.8359347
H -1.180036 2.9609702 -0.20015928
H 0.21945055 2.8938482 0.89717764
H -2.3195832 0.41721964 -0.35258928
H -0.99968296 -3.1017354 -0.1273172
H 1.2139748 -1.8899784 0.1968011
