title
 OpenBabel02282109583D

 14 14  0  0  0  0  0  0  0  0999 V2000
   -0.1915    2.5226   -0.0480 C   0  0  0  0  0  0  0  0  0  0  0  0
   -0.2468    1.0353   -0.0450 C   0  0  0  0  0  0  0  0  0  0  0  0
   -1.2752    0.1888   -0.1935 C   0  0  0  0  0  0  0  0  0  0  0  0
   -0.7965   -1.2079   -0.1108 C   0  0  0  0  0  0  0  0  0  0  0  0
   -1.5379   -2.2373   -0.2150 N   0  0  0  0  0  0  0  0  0  0  0  0
    0.5825   -1.1124    0.0965 N   0  0  0  0  0  0  0  0  0  0  0  0
    1.0006    0.2148    0.1492 C   0  0  0  0  0  0  0  0  0  0  0  0
    2.1325    0.6033    0.3166 O   0  0  0  0  0  0  0  0  0  0  0  0
    0.4802    2.8806   -0.8359 H   0  0  0  0  0  0  0  0  0  0  0  0
   -1.1800    2.9610   -0.2002 H   0  0  0  0  0  0  0  0  0  0  0  0
    0.2195    2.8938    0.8972 H   0  0  0  0  0  0  0  0  0  0  0  0
   -2.3196    0.4172   -0.3526 H   0  0  0  0  0  0  0  0  0  0  0  0
   -0.9997   -3.1017   -0.1273 H   0  0  0  0  0  0  0  0  0  0  0  0
    1.2140   -1.8900    0.1968 H   0  0  0  0  0  0  0  0  0  0  0  0
  1  2  1  0  0  0  0
  1 11  1  0  0  0  0
  2  7  1  0  0  0  0
  3  4  1  0  0  0  0
  3  2  2  0  0  0  0
  4  6  1  0  0  0  0
  5 13  1  0  0  0  0
  5  4  2  0  0  0  0
  6  7  1  0  0  0  0
  6 14  1  0  0  0  0
  7  8  2  0  0  0  0
  9  1  1  0  0  0  0
 10  1  1  0  0  0  0
 12  3  1  0  0  0  0
M  END
