14
title
C -0.05170894 2.5233836 -0.06323452
C -0.026927076 1.0379963 -0.16574797
C -0.05675187 0.24860716 -1.2557468
C -0.01380069 -1.1923107 -0.89462066
O -0.02843043 -2.1198583 -1.6681262
C 0.051859867 -1.2743102 0.6308877
C 0.040754087 0.18566781 1.0695375
O 0.07847269 0.6136997 2.198034
H 0.83875865 2.880124 0.4659242
H -0.10169912 3.00157 -1.0432775
H -0.90856826 2.8459299 0.5383963
H -0.10595733 0.57094467 -2.2896013
H -0.8007247 -1.8243068 1.0410393
H 0.9580436 -1.787948 0.96665424
