13
title
C -0.056410786 2.5503557 -0.12967658
C -0.029630711 1.0655758 -0.21962613
C -0.05169063 0.24855652 -1.2821589
C -0.0061622215 -1.151462 -0.81360084
O -0.007077108 -2.1823866 -1.4138839
O 0.04392374 -1.1138009 0.58547324
C 0.031588055 0.20505628 0.9851399
N 0.066896275 0.6060955 2.1809306
H 0.83260643 2.9144714 0.3954088
H -0.10288885 3.0107687 -1.118286
H -0.9174711 2.8789394 0.46126992
H -0.09498448 0.5000972 -2.3315902
H 0.10653301 -0.18023363 2.8318653
