title
 OpenBabel02282109583D

 13 13  0  0  0  0  0  0  0  0999 V2000
   -0.0564    2.5504   -0.1297 C   0  0  0  0  0  0  0  0  0  0  0  0
   -0.0296    1.0656   -0.2196 C   0  0  0  0  0  0  0  0  0  0  0  0
   -0.0517    0.2486   -1.2822 C   0  0  0  0  0  0  0  0  0  0  0  0
   -0.0062   -1.1515   -0.8136 C   0  0  0  0  0  0  0  0  0  0  0  0
   -0.0071   -2.1824   -1.4139 O   0  0  0  0  0  0  0  0  0  0  0  0
    0.0439   -1.1138    0.5855 O   0  0  0  0  0  0  0  0  0  0  0  0
    0.0316    0.2051    0.9851 C   0  0  0  0  0  0  0  0  0  0  0  0
    0.0669    0.6061    2.1809 N   0  0  0  0  0  0  0  0  0  0  0  0
    0.8326    2.9145    0.3954 H   0  0  0  0  0  0  0  0  0  0  0  0
   -0.1029    3.0108   -1.1183 H   0  0  0  0  0  0  0  0  0  0  0  0
   -0.9175    2.8789    0.4613 H   0  0  0  0  0  0  0  0  0  0  0  0
   -0.0950    0.5001   -2.3316 H   0  0  0  0  0  0  0  0  0  0  0  0
    0.1065   -0.1802    2.8319 H   0  0  0  0  0  0  0  0  0  0  0  0
  1  9  1  0  0  0  0
  1 11  1  0  0  0  0
  2  1  1  0  0  0  0
  2  7  1  0  0  0  0
  3  4  1  0  0  0  0
  3  2  2  0  0  0  0
  4  6  1  0  0  0  0
  5  4  2  0  0  0  0
  6  7  1  0  0  0  0
  7  8  2  0  0  0  0
  8 13  1  0  0  0  0
 10  1  1  0  0  0  0
 12  3  1  0  0  0  0
M  END
