title
 OpenBabel02282109583D

 13 13  0  0  0  0  0  0  0  0999 V2000
   -0.0367    2.3603    0.0132 N   0  0  0  0  0  0  0  0  0  0  0  0
   -0.1913    1.0279    0.0068 C   0  0  0  0  0  0  0  0  0  0  0  0
   -1.2864    0.2182    0.0091 C   0  0  0  0  0  0  0  0  0  0  0  0
   -0.8932   -1.1917   -0.0012 C   0  0  0  0  0  0  0  0  0  0  0  0
   -1.6295   -2.1547   -0.0017 O   0  0  0  0  0  0  0  0  0  0  0  0
    0.6442   -1.2581   -0.0109 C   0  0  0  0  0  0  0  0  0  0  0  0
    1.0622    0.1959   -0.0054 C   0  0  0  0  0  0  0  0  0  0  0  0
    2.1717    0.6768   -0.0097 O   0  0  0  0  0  0  0  0  0  0  0  0
    0.9070    2.7154    0.0095 H   0  0  0  0  0  0  0  0  0  0  0  0
   -0.8084    3.0018    0.0217 H   0  0  0  0  0  0  0  0  0  0  0  0
   -2.3243    0.5251    0.0173 H   0  0  0  0  0  0  0  0  0  0  0  0
    1.0289   -1.7913    0.8645 H   0  0  0  0  0  0  0  0  0  0  0  0
    1.0183   -1.7817   -0.8965 H   0  0  0  0  0  0  0  0  0  0  0  0
  1 10  1  0  0  0  0
  2  3  2  0  0  0  0
  2  1  1  0  0  0  0
  3 11  1  0  0  0  0
  4  3  1  0  0  0  0
  5  4  2  0  0  0  0
  6  7  1  0  0  0  0
  6  4  1  0  0  0  0
  6 12  1  0  0  0  0
  7  2  1  0  0  0  0
  8  7  2  0  0  0  0
  9  1  1  0  0  0  0
 13  6  1  0  0  0  0
M  END
