title
 OpenBabel02282109583D

 13 13  0  0  0  0  0  0  0  0999 V2000
   -0.0679    2.3702    0.0706 N   0  0  0  0  0  0  0  0  0  0  0  0
   -0.2226    1.0344    0.0220 C   0  0  0  0  0  0  0  0  0  0  0  0
   -1.3055    0.2182    0.0067 C   0  0  0  0  0  0  0  0  0  0  0  0
   -0.8415   -1.1725   -0.0151 C   0  0  0  0  0  0  0  0  0  0  0  0
   -1.4602   -2.2102   -0.0391 O   0  0  0  0  0  0  0  0  0  0  0  0
    0.5802   -1.1074   -0.0034 N   0  0  0  0  0  0  0  0  0  0  0  0
    1.0229    0.1941   -0.0011 C   0  0  0  0  0  0  0  0  0  0  0  0
    2.1834    0.7179   -0.0214 N   0  0  0  0  0  0  0  0  0  0  0  0
    0.8717    2.7225   -0.0313 H   0  0  0  0  0  0  0  0  0  0  0  0
   -0.8430    2.9950   -0.0584 H   0  0  0  0  0  0  0  0  0  0  0  0
   -2.3514    0.4811    0.0135 H   0  0  0  0  0  0  0  0  0  0  0  0
    1.1585   -1.9293   -0.0492 H   0  0  0  0  0  0  0  0  0  0  0  0
    2.9290    0.0221   -0.0409 H   0  0  0  0  0  0  0  0  0  0  0  0
  2  1  1  0  0  0  0
  3 11  1  0  0  0  0
  3  2  2  0  0  0  0
  4  6  1  0  0  0  0
  4  3  1  0  0  0  0
  5  4  2  0  0  0  0
  6  7  1  0  0  0  0
  7  2  1  0  0  0  0
  8  7  2  0  0  0  0
  9  1  1  0  0  0  0
 10  1  1  0  0  0  0
 12  6  1  0  0  0  0
 13  8  1  0  0  0  0
M  END
