12
title
N -0.0962641 2.3821259 0.013671061
C -0.24235082 1.0503883 0.0072431862
C -1.3148375 0.21938089 0.009204051
C -0.8299299 -1.149045 -0.0014626948
O -1.3826135 -2.20579 -0.0036976403
O 0.60716677 -1.0992408 -0.009752438
C 0.981771 0.20241174 -0.004860269
N 2.1543798 0.67301375 -0.009290961
H 0.8417525 2.750469 0.01027154
H -0.8791341 3.0100877 0.022297991
H -2.3658717 0.45947292 0.01700406
H 2.8575907 -0.06659309 -0.017596334
