title
 OpenBabel02282109583D

 15 15  0  0  1  0  0  0  0  0999 V2000
   -0.0660    2.8439    0.1929 C   0  0  0  0  0  0  0  0  0  0  0  0
   -0.1660    1.3582    0.1494 C   0  0  0  0  0  0  0  0  0  0  0  0
   -1.2220    0.5652   -0.0700 C   0  0  0  0  0  0  0  0  0  0  0  0
   -0.8011   -0.8708    0.0726 C   0  0  1  0  0  0  0  0  0  0  0  0
   -1.1185   -1.6928   -1.0311 O   0  0  0  0  0  0  0  0  0  0  0  0
    0.7305   -0.7560    0.2424 C   0  0  0  0  0  0  0  0  0  0  0  0
    1.5218   -1.6703    0.1942 O   0  0  0  0  0  0  0  0  0  0  0  0
    0.9973    0.5846    0.3993 N   0  0  0  0  0  0  0  0  0  0  0  0
    0.6641    3.2126   -0.5383 H   0  0  0  0  0  0  0  0  0  0  0  0
   -1.0330    3.2974   -0.0319 H   0  0  0  0  0  0  0  0  0  0  0  0
    0.2597    3.1917    1.1804 H   0  0  0  0  0  0  0  0  0  0  0  0
   -2.2349    0.8967   -0.2410 H   0  0  0  0  0  0  0  0  0  0  0  0
   -1.2092   -1.2990    1.0070 H   0  0  0  0  0  0  0  0  0  0  0  0
   -0.4771   -2.4165   -1.0130 H   0  0  0  0  0  0  0  0  0  0  0  0
    1.9369    0.9502    0.3740 H   0  0  0  0  0  0  0  0  0  0  0  0
  1 11  1  0  0  0  0
  2  1  1  0  0  0  0
  2  8  1  0  0  0  0
  3  4  1  0  0  0  0
  3  2  2  0  0  0  0
  4  6  1  0  0  0  0
  4 13  1  1  0  0  0
  5 14  1  0  0  0  0
  5  4  1  0  0  0  0
  6  8  1  0  0  0  0
  7  6  2  0  0  0  0
  9  1  1  0  0  0  0
 10  1  1  0  0  0  0
 12  3  1  0  0  0  0
 15  8  1  0  0  0  0
M  END
