title
 OpenBabel02282109583D

 18 18  0  0  1  0  0  0  0  0999 V2000
   -1.2297    2.0834    0.0075 C   0  0  0  0  0  0  0  0  0  0  0  0
   -1.0672    0.5572   -0.0663 C   0  0  1  0  0  0  0  0  0  0  0  0
   -0.3127    0.0278   -1.2579 C   0  0  0  0  0  0  0  0  0  0  0  0
    0.7281   -0.7492   -0.9386 C   0  0  0  0  0  0  0  0  0  0  0  0
    1.6700   -1.4246   -1.8835 C   0  0  0  0  0  0  0  0  0  0  0  0
    0.8673   -0.8951    0.5577 C   0  0  0  0  0  0  0  0  0  0  0  0
   -0.2421    0.0076    1.1148 C   0  0  0  0  0  0  0  0  0  0  0  0
   -0.4280    0.2676    2.2748 O   0  0  0  0  0  0  0  0  0  0  0  0
   -0.2609    2.5850   -0.0829 H   0  0  0  0  0  0  0  0  0  0  0  0
   -1.8759    2.4471   -0.7969 H   0  0  0  0  0  0  0  0  0  0  0  0
   -1.6729    2.3643    0.9666 H   0  0  0  0  0  0  0  0  0  0  0  0
   -2.0705    0.1078   -0.0001 H   0  0  0  0  0  0  0  0  0  0  0  0
   -0.6018    0.2665   -2.2767 H   0  0  0  0  0  0  0  0  0  0  0  0
    1.4207   -1.2037   -2.9251 H   0  0  0  0  0  0  0  0  0  0  0  0
    2.7056   -1.1081   -1.7047 H   0  0  0  0  0  0  0  0  0  0  0  0
    1.6523   -2.5141   -1.7514 H   0  0  0  0  0  0  0  0  0  0  0  0
    0.7204   -1.9270    0.9065 H   0  0  0  0  0  0  0  0  0  0  0  0
    1.8457   -0.5837    0.9468 H   0  0  0  0  0  0  0  0  0  0  0  0
  1 11  1  0  0  0  0
  2 12  1  1  0  0  0
  2  1  1  0  0  0  0
  2  7  1  0  0  0  0
  3  4  2  0  0  0  0
  3  2  1  0  0  0  0
  4  6  1  0  0  0  0
  5 16  1  0  0  0  0
  5 15  1  0  0  0  0
  5  4  1  0  0  0  0
  6 17  1  0  0  0  0
  6 18  1  0  0  0  0
  6  7  1  0  0  0  0
  7  8  2  0  0  0  0
  9  1  1  0  0  0  0
 10  1  1  0  0  0  0
 13  3  1  0  0  0  0
 14  5  1  0  0  0  0
M  END
