18
title
C -1.2296653 2.0834236 0.0075382763
C -1.0671902 0.5572337 -0.066284664
C -0.31271532 0.02782295 -1.2578896
C 0.72810984 -0.7492449 -0.9386036
C 1.6700355 -1.4246442 -1.8835286
C 0.8672894 -0.8950523 0.5577199
C -0.242128 0.0075693233 1.1147571
O -0.42795262 0.26761422 2.2747884
H -0.26094392 2.585045 -0.08287565
H -1.8758901 2.4471304 -0.7968943
H -1.6729289 2.3642955 0.9665736
H -2.0705361 0.10777662 -0.00010421995
H -0.60184395 0.26645336 -2.2767203
H 1.4207221 -1.2037463 -2.9250731
H 2.7055962 -1.1081063 -1.7046607
H 1.6522754 -2.5140986 -1.7514405
H 0.72042286 -1.9270267 0.90645415
H 1.8456603 -0.5837295 0.9467712
