17
title
C -1.2259582 2.074973 -0.09048637
C -1.0702751 0.5482141 -0.15448453
C -0.2878746 0.004924462 -1.3240544
C 0.74262357 -0.724566 -0.87769413
C 1.7974281 -1.469773 -1.6219615
N 0.74678206 -0.74200773 0.5329572
C -0.28106603 0.016523406 1.0601157
O -0.4906579 0.21946935 2.2343767
H -0.25361016 2.5701241 -0.17192383
H -1.8607013 2.4361835 -0.9047931
H -1.678788 2.3602364 0.86291754
H -2.071387 0.096322194 -0.10414413
H -0.5300991 0.173066 -2.363294
H 2.799645 -1.1045097 -1.3658667
H 1.7722368 -2.5401537 -1.383949
H 1.6565607 -1.3549645 -2.6984076
H 1.4507697 -1.1744919 1.1085787
