title
 OpenBabel02282109583D

 17 17  0  0  1  0  0  0  0  0999 V2000
   -1.2260    2.0750   -0.0905 C   0  0  0  0  0  0  0  0  0  0  0  0
   -1.0703    0.5482   -0.1545 C   0  0  1  0  0  0  0  0  0  0  0  0
   -0.2879    0.0049   -1.3241 C   0  0  0  0  0  0  0  0  0  0  0  0
    0.7426   -0.7246   -0.8777 C   0  0  0  0  0  0  0  0  0  0  0  0
    1.7974   -1.4698   -1.6220 C   0  0  0  0  0  0  0  0  0  0  0  0
    0.7468   -0.7420    0.5330 N   0  0  0  0  0  0  0  0  0  0  0  0
   -0.2811    0.0165    1.0601 C   0  0  0  0  0  0  0  0  0  0  0  0
   -0.4907    0.2195    2.2344 O   0  0  0  0  0  0  0  0  0  0  0  0
   -0.2536    2.5701   -0.1719 H   0  0  0  0  0  0  0  0  0  0  0  0
   -1.8607    2.4362   -0.9048 H   0  0  0  0  0  0  0  0  0  0  0  0
   -1.6788    2.3602    0.8629 H   0  0  0  0  0  0  0  0  0  0  0  0
   -2.0714    0.0963   -0.1041 H   0  0  0  0  0  0  0  0  0  0  0  0
   -0.5301    0.1731   -2.3633 H   0  0  0  0  0  0  0  0  0  0  0  0
    2.7996   -1.1045   -1.3659 H   0  0  0  0  0  0  0  0  0  0  0  0
    1.7722   -2.5402   -1.3839 H   0  0  0  0  0  0  0  0  0  0  0  0
    1.6566   -1.3550   -2.6984 H   0  0  0  0  0  0  0  0  0  0  0  0
    1.4508   -1.1745    1.1086 H   0  0  0  0  0  0  0  0  0  0  0  0
  1 11  1  0  0  0  0
  2 12  1  6  0  0  0
  2  1  1  0  0  0  0
  2  7  1  0  0  0  0
  3  4  2  0  0  0  0
  3  2  1  0  0  0  0
  4  6  1  0  0  0  0
  5 15  1  0  0  0  0
  5 14  1  0  0  0  0
  5  4  1  0  0  0  0
  6  7  1  0  0  0  0
  6 17  1  0  0  0  0
  7  8  2  0  0  0  0
  9  1  1  0  0  0  0
 10  1  1  0  0  0  0
 13  3  1  0  0  0  0
 16  5  1  0  0  0  0
M  END
