title
 OpenBabel02282109583D

 17 17  0  0  1  0  0  0  0  0999 V2000
   -1.1260    2.0557   -0.1311 C   0  0  0  0  0  0  0  0  0  0  0  0
   -1.0160    0.5301   -0.1447 C   0  0  1  0  0  0  0  0  0  0  0  0
   -0.2442    0.0378   -1.2992 N   0  0  0  0  0  0  0  0  0  0  0  0
    0.7126   -0.6685   -0.8316 C   0  0  0  0  0  0  0  0  0  0  0  0
    1.7533   -1.3651   -1.6447 C   0  0  0  0  0  0  0  0  0  0  0  0
    0.7356   -0.7711    0.5630 N   0  0  0  0  0  0  0  0  0  0  0  0
   -0.3106   -0.0235    1.0971 C   0  0  0  0  0  0  0  0  0  0  0  0
   -0.6464    0.1902    2.3034 N   0  0  0  0  0  0  0  0  0  0  0  0
   -0.1321    2.5131   -0.1190 H   0  0  0  0  0  0  0  0  0  0  0  0
   -1.6535    2.4035   -1.0226 H   0  0  0  0  0  0  0  0  0  0  0  0
   -1.6664    2.3769    0.7628 H   0  0  0  0  0  0  0  0  0  0  0  0
   -2.0261    0.1037   -0.1947 H   0  0  0  0  0  0  0  0  0  0  0  0
    1.5744   -1.1661   -2.7011 H   0  0  0  0  0  0  0  0  0  0  0  0
    2.7576   -1.0162   -1.3787 H   0  0  0  0  0  0  0  0  0  0  0  0
    1.7242   -2.4470   -1.4731 H   0  0  0  0  0  0  0  0  0  0  0  0
    1.4435   -1.2403    1.1031 H   0  0  0  0  0  0  0  0  0  0  0  0
   -0.0260   -0.2801    2.9647 H   0  0  0  0  0  0  0  0  0  0  0  0
  1  9  1  0  0  0  0
  1 11  1  0  0  0  0
  2 12  1  6  0  0  0
  2  1  1  0  0  0  0
  2  7  1  0  0  0  0
  3  4  2  0  0  0  0
  3  2  1  0  0  0  0
  4  6  1  0  0  0  0
  5 15  1  0  0  0  0
  5 14  1  0  0  0  0
  5  4  1  0  0  0  0
  6  7  1  0  0  0  0
  6 16  1  0  0  0  0
  7  8  2  0  0  0  0
  8 17  1  0  0  0  0
 10  1  1  0  0  0  0
 13  5  1  0  0  0  0
M  END
