title
 OpenBabel02282109583D

 15 15  0  0  1  0  0  0  0  0999 V2000
   -1.1459    2.0485   -0.1482 C   0  0  0  0  0  0  0  0  0  0  0  0
   -1.0209    0.5236   -0.1877 C   0  0  1  0  0  0  0  0  0  0  0  0
   -0.2240    0.0367   -1.3182 N   0  0  0  0  0  0  0  0  0  0  0  0
    0.7254   -0.6616   -0.8177 C   0  0  0  0  0  0  0  0  0  0  0  0
    1.7593   -1.2357   -1.5218 N   0  0  0  0  0  0  0  0  0  0  0  0
    0.7104   -0.7916    0.5749 N   0  0  0  0  0  0  0  0  0  0  0  0
   -0.3384   -0.0263    1.0789 C   0  0  0  0  0  0  0  0  0  0  0  0
   -0.6019    0.1491    2.2420 O   0  0  0  0  0  0  0  0  0  0  0  0
   -0.1576    2.5164   -0.1119 H   0  0  0  0  0  0  0  0  0  0  0  0
   -1.6598    2.4041   -1.0443 H   0  0  0  0  0  0  0  0  0  0  0  0
   -1.7094    2.3536    0.7376 H   0  0  0  0  0  0  0  0  0  0  0  0
   -2.0287    0.0886   -0.2407 H   0  0  0  0  0  0  0  0  0  0  0  0
    1.5907   -1.2211   -2.5184 H   0  0  0  0  0  0  0  0  0  0  0  0
    2.0652   -2.1402   -1.1915 H   0  0  0  0  0  0  0  0  0  0  0  0
    1.4529   -1.1588    1.1487 H   0  0  0  0  0  0  0  0  0  0  0  0
  1  9  1  0  0  0  0
  1 11  1  0  0  0  0
  2 12  1  6  0  0  0
  2  1  1  0  0  0  0
  2  7  1  0  0  0  0
  3  4  2  0  0  0  0
  3  2  1  0  0  0  0
  4  6  1  0  0  0  0
  5 14  1  0  0  0  0
  5  4  1  0  0  0  0
  6  7  1  0  0  0  0
  6 15  1  0  0  0  0
  7  8  2  0  0  0  0
 10  1  1  0  0  0  0
 13  5  1  0  0  0  0
M  END
