15
title
C -1.145856 2.048489 -0.1481887
C -1.0208639 0.5235906 -0.1877275
N -0.22400779 0.036688615 -1.3181846
C 0.72537875 -0.6615894 -0.8176883
N 1.759339 -1.2356871 -1.5217565
N 0.7103627 -0.79155564 0.57492477
C -0.3383727 -0.026302943 1.0788578
O -0.6018511 0.14909436 2.2420294
H -0.15760493 2.5163534 -0.11190134
H -1.6597674 2.404058 -1.044346
H -1.7093675 2.3536456 0.73758703
H -2.0286918 0.088568114 -0.24073666
H 1.5906593 -1.2210816 -2.5184367
H 2.0651827 -2.1401744 -1.1914568
H 1.4528896 -1.1587552 1.1486943
