16
title
C -1.2015274 2.600465 -0.045781408
C -0.96220523 1.0940185 0.0059201713
C -0.23193055 0.5261095 -1.2337773
C 0.37486053 -0.78860825 -0.77059025
O 0.72628355 -1.7278576 -1.430175
C 0.46084738 -0.7214046 0.78956777
O 0.8869431 -1.6022947 1.4846992
C -0.097616486 0.6310595 1.2020875
H -0.2519719 3.143308 -0.1215346
H -1.813857 2.8747466 -0.91091746
H -1.7164905 2.9508088 0.8546136
H -1.9334337 0.5874048 0.08130137
H -0.86217016 0.39567456 -2.116261
H 0.59639823 1.1917541 -1.5201696
H 0.754002 1.3148702 1.3376704
H -0.62656367 0.57980055 2.1563323
