15
title
C -1.4729564 2.3222594 -0.031362936
C -1.2532771 0.811816 -0.051754244
C -0.48352787 0.29733822 -1.2889757
C 0.52889884 -0.70593333 -0.75178874
O 1.1939251 -1.4860005 -1.3730991
C 0.5614803 -0.5439167 0.7867321
O 1.3013012 -1.0997419 1.5632602
N -0.41960767 0.3638365 1.0646558
H -0.51723117 2.853029 -0.085393675
H -2.0902858 2.6267378 -0.8821442
H -1.987783 2.6345174 0.8834587
H -2.231545 0.31373814 9.8446355e-05
H -1.1252031 -0.1501567 -2.0503614
H 0.07160486 1.1138588 -1.7664183
H -0.63918144 0.5986285 2.0212786
