13
title
C -1.2929156 2.193445 0.0619575
C -1.2246898 0.68501323 0.035393428
O -0.55524635 0.2264706 -1.1406003
C 0.49148434 -0.5536811 -0.78656036
N 1.2506832 -1.1191779 -1.6141031
C 0.5425511 -0.5772919 0.7221507
O 1.3256146 -1.1412853 1.424019
O -0.48721683 0.1876264 1.1575713
H -0.2847883 2.6151392 0.043781277
H -1.8458394 2.5481172 -0.8112255
H -1.8065566 2.5244017 0.9678015
H -2.2191586 0.22508661 0.06220516
H 1.9606076 -1.6413528 -1.0972037
