title
 OpenBabel02282109583D

 13 13  0  0  1  0  0  0  0  0999 V2000
   -1.2929    2.1934    0.0620 C   0  0  0  0  0  0  0  0  0  0  0  0
   -1.2247    0.6850    0.0354 C   0  0  1  0  0  0  0  0  0  0  0  0
   -0.5552    0.2265   -1.1406 O   0  0  0  0  0  0  0  0  0  0  0  0
    0.4915   -0.5537   -0.7866 C   0  0  1  0  0  0  0  0  0  0  0  0
    1.2507   -1.1192   -1.6141 N   0  0  0  0  0  0  0  0  0  0  0  0
    0.5426   -0.5773    0.7222 C   0  0  0  0  0  0  0  0  0  0  0  0
    1.3256   -1.1413    1.4240 O   0  0  0  0  0  0  0  0  0  0  0  0
   -0.4872    0.1876    1.1576 O   0  0  0  0  0  0  0  0  0  0  0  0
   -0.2848    2.6151    0.0438 H   0  0  0  0  0  0  0  0  0  0  0  0
   -1.8458    2.5481   -0.8112 H   0  0  0  0  0  0  0  0  0  0  0  0
   -1.8066    2.5244    0.9678 H   0  0  0  0  0  0  0  0  0  0  0  0
   -2.2192    0.2251    0.0622 H   0  0  0  0  0  0  0  0  0  0  0  0
    1.9606   -1.6414   -1.0972 H   0  0  0  0  0  0  0  0  0  0  0  0
  1 11  1  0  0  0  0
  2  1  1  0  0  0  0
  2 12  1  1  0  0  0
  2  8  1  0  0  0  0
  3  4  1  0  0  0  0
  3  2  1  0  0  0  0
  4  5  1  6  0  0  0
  4  6  1  0  0  0  0
  5 13  1  0  0  0  0
  6  8  1  0  0  0  0
  6  7  2  0  0  0  0
  9  1  1  0  0  0  0
 10  1  1  0  0  0  0
M  RAD  2   4   2   5   2
M  END
