title
 OpenBabel02282109583D

 12 12  0  0  0  0  0  0  0  0999 V2000
   -1.2737    2.2041    0.0037 C   0  0  0  0  0  0  0  0  0  0  0  0
   -1.2243    0.6949   -0.0030 C   0  0  0  0  0  0  0  0  0  0  0  0
   -0.5212    0.2124   -1.1507 O   0  0  0  0  0  0  0  0  0  0  0  0
    0.5204   -0.5655   -0.7670 C   0  0  0  0  0  0  0  0  0  0  0  0
    1.2764   -1.1122   -1.5043 O   0  0  0  0  0  0  0  0  0  0  0  0
    0.5127   -0.5726    0.7670 C   0  0  0  0  0  0  0  0  0  0  0  0
    1.2611   -1.1260    1.5069 O   0  0  0  0  0  0  0  0  0  0  0  0
   -0.5328    0.2019    1.1473 O   0  0  0  0  0  0  0  0  0  0  0  0
   -0.2603    2.6134    0.0110 H   0  0  0  0  0  0  0  0  0  0  0  0
   -1.7982    2.5571   -0.8875 H   0  0  0  0  0  0  0  0  0  0  0  0
   -1.8077    2.5489    0.8924 H   0  0  0  0  0  0  0  0  0  0  0  0
   -2.2239    0.2472   -0.0101 H   0  0  0  0  0  0  0  0  0  0  0  0
  1  9  1  0  0  0  0
  1 11  1  0  0  0  0
  2  1  1  0  0  0  0
  2  8  1  0  0  0  0
  3  4  1  0  0  0  0
  3  2  1  0  0  0  0
  4  6  1  0  0  0  0
  5  4  2  0  0  0  0
  6  8  1  0  0  0  0
  6  7  2  0  0  0  0
 10  1  1  0  0  0  0
 12  2  1  0  0  0  0
M  END
