title
 OpenBabel02282109583D

 16 16  0  0  1  0  0  0  0  0999 V2000
   -0.1163    2.5332    0.1853 C   0  0  0  0  0  0  0  0  0  0  0  0
   -0.1617    1.0409    0.1766 C   0  0  0  0  0  0  0  0  0  0  0  0
   -1.2092    0.2125    0.2899 C   0  0  0  0  0  0  0  0  0  0  0  0
   -0.8419   -1.2547    0.2430 C   0  0  1  0  0  0  0  0  0  0  0  0
   -1.6064   -1.9805   -0.7119 O   0  0  0  0  0  0  0  0  0  0  0  0
    0.6827   -1.2429   -0.0063 C   0  0  0  0  0  0  0  0  0  0  0  0
    1.0866    0.2342    0.0427 C   0  0  0  0  0  0  0  0  0  0  0  0
    2.2105    0.6775   -0.0071 O   0  0  0  0  0  0  0  0  0  0  0  0
    0.5569    2.8873    0.9734 H   0  0  0  0  0  0  0  0  0  0  0  0
    0.2938    2.9114   -0.7576 H   0  0  0  0  0  0  0  0  0  0  0  0
   -1.1050    2.9714    0.3394 H   0  0  0  0  0  0  0  0  0  0  0  0
   -2.2461    0.5157    0.3992 H   0  0  0  0  0  0  0  0  0  0  0  0
   -1.0797   -1.7386    1.1972 H   0  0  0  0  0  0  0  0  0  0  0  0
   -1.5078   -1.5378   -1.5626 H   0  0  0  0  0  0  0  0  0  0  0  0
    1.2585   -1.8207    0.7213 H   0  0  0  0  0  0  0  0  0  0  0  0
    0.9111   -1.6579   -0.9934 H   0  0  0  0  0  0  0  0  0  0  0  0
  1 11  1  0  0  0  0
  1  9  1  0  0  0  0
  2  1  1  0  0  0  0
  2  3  2  0  0  0  0
  3 12  1  0  0  0  0
  4  3  1  0  0  0  0
  4 13  1  1  0  0  0
  5  4  1  0  0  0  0
  6  7  1  0  0  0  0
  6  4  1  0  0  0  0
  6 15  1  0  0  0  0
  7  2  1  0  0  0  0
  8  7  2  0  0  0  0
 10  1  1  0  0  0  0
 14  5  1  0  0  0  0
 16  6  1  0  0  0  0
M  END
