16
title
C -1.4527618 2.272373 -0.07433061
C -1.2957073 0.75181574 -0.09470245
C -0.5321368 0.21202745 -1.328622
C 0.5560336 -0.6515598 -0.71707845
O 1.360507 -1.3797423 -1.2457076
C 0.4223156 -0.43609688 0.76815605
N 1.3436928 -1.0073891 1.5849706
N -0.56945544 0.3011413 1.1102781
H -0.47338963 2.7608876 -0.123160124
H -2.0520394 2.614716 -0.924313
H -1.9427228 2.5897136 0.84984684
H -2.297917 0.3050967 -0.05377081
H -1.1462505 -0.3705611 -2.0205474
H -0.06464649 1.0144688 -1.9104576
H 1.9146066 -1.7270774 1.169837
H 1.1426284 -1.075578 2.5686886
