17
title
C -1.447881 2.2002258 -0.037709348
C -1.3218104 0.6785782 -0.054776233
O -0.4835541 0.27080092 -1.1532124
C 0.5637104 -0.47795752 -0.68413544
N 1.4776093 -0.9913985 -1.3959839
C 0.4457884 -0.58528596 0.78432924
C 1.4440972 -1.3357577 1.5991188
C -0.65185595 0.081118256 1.150621
H -0.4690539 2.662944 0.11542224
H -1.8620968 2.5563734 -0.9846169
H -2.1147978 2.514925 0.77125245
H -2.314635 0.234209 -0.21879748
H 1.3333198 -0.77166027 -2.3825042
H 1.5012099 -2.377626 1.2674596
H 2.4453108 -0.9150564 1.4597412
H 1.194353 -1.3138548 2.662485
H -1.037446 0.20414263 2.1548784
