title
 OpenBabel02282109583D

 17 17  0  0  1  0  0  0  0  0999 V2000
   -1.4479    2.2002   -0.0377 C   0  0  0  0  0  0  0  0  0  0  0  0
   -1.3218    0.6786   -0.0548 C   0  0  1  0  0  0  0  0  0  0  0  0
   -0.4836    0.2708   -1.1532 O   0  0  0  0  0  0  0  0  0  0  0  0
    0.5637   -0.4780   -0.6841 C   0  0  0  0  0  0  0  0  0  0  0  0
    1.4776   -0.9914   -1.3960 N   0  0  0  0  0  0  0  0  0  0  0  0
    0.4458   -0.5853    0.7843 C   0  0  0  0  0  0  0  0  0  0  0  0
    1.4441   -1.3358    1.5991 C   0  0  0  0  0  0  0  0  0  0  0  0
   -0.6519    0.0811    1.1506 C   0  0  0  0  0  0  0  0  0  0  0  0
   -0.4691    2.6629    0.1154 H   0  0  0  0  0  0  0  0  0  0  0  0
   -1.8621    2.5564   -0.9846 H   0  0  0  0  0  0  0  0  0  0  0  0
   -2.1148    2.5149    0.7713 H   0  0  0  0  0  0  0  0  0  0  0  0
   -2.3146    0.2342   -0.2188 H   0  0  0  0  0  0  0  0  0  0  0  0
    1.3333   -0.7717   -2.3825 H   0  0  0  0  0  0  0  0  0  0  0  0
    1.5012   -2.3776    1.2675 H   0  0  0  0  0  0  0  0  0  0  0  0
    2.4453   -0.9151    1.4597 H   0  0  0  0  0  0  0  0  0  0  0  0
    1.1944   -1.3139    2.6625 H   0  0  0  0  0  0  0  0  0  0  0  0
   -1.0374    0.2041    2.1549 H   0  0  0  0  0  0  0  0  0  0  0  0
  1  9  1  0  0  0  0
  1 11  1  0  0  0  0
  2 12  1  6  0  0  0
  2  1  1  0  0  0  0
  2  8  1  0  0  0  0
  3  4  1  0  0  0  0
  3  2  1  0  0  0  0
  4  6  1  0  0  0  0
  5  4  2  0  0  0  0
  6  8  2  0  0  0  0
  6  7  1  0  0  0  0
  7 16  1  0  0  0  0
  8 17  1  0  0  0  0
 10  1  1  0  0  0  0
 13  5  1  0  0  0  0
 14  7  1  0  0  0  0
 15  7  1  0  0  0  0
M  END
