title
 OpenBabel02282109583D

 16 16  0  0  1  0  0  0  0  0999 V2000
   -0.0940    2.5129   -0.0808 C   0  0  0  0  0  0  0  0  0  0  0  0
   -0.1495    1.0240   -0.1597 C   0  0  0  0  0  0  0  0  0  0  0  0
   -0.2593    0.2577   -1.2542 C   0  0  0  0  0  0  0  0  0  0  0  0
   -0.2428   -1.1786   -0.9030 C   0  0  0  0  0  0  0  0  0  0  0  0
   -0.4026   -2.1166   -1.6490 O   0  0  0  0  0  0  0  0  0  0  0  0
    0.0234   -1.2604    0.6064 C   0  0  0  0  0  0  0  0  0  0  0  0
   -0.0871    0.1821    1.1131 C   0  0  1  0  0  0  0  0  0  0  0  0
    1.0337    0.4986    1.9335 O   0  0  0  0  0  0  0  0  0  0  0  0
    0.8374    2.8296    0.4037 H   0  0  0  0  0  0  0  0  0  0  0  0
   -0.1447    2.9792   -1.0669 H   0  0  0  0  0  0  0  0  0  0  0  0
   -0.9187    2.9044    0.5293 H   0  0  0  0  0  0  0  0  0  0  0  0
   -0.3503    0.6019   -2.2777 H   0  0  0  0  0  0  0  0  0  0  0  0
   -0.6569   -1.9644    1.0899 H   0  0  0  0  0  0  0  0  0  0  0  0
    1.0449   -1.6181    0.7707 H   0  0  0  0  0  0  0  0  0  0  0  0
   -1.0187    0.3263    1.6835 H   0  0  0  0  0  0  0  0  0  0  0  0
    0.8331    1.2972    2.4310 H   0  0  0  0  0  0  0  0  0  0  0  0
  1  9  1  0  0  0  0
  1 11  1  0  0  0  0
  2  1  1  0  0  0  0
  2  7  1  0  0  0  0
  3  4  1  0  0  0  0
  3  2  2  0  0  0  0
  4  6  1  0  0  0  0
  5  4  2  0  0  0  0
  6 14  1  0  0  0  0
  6 13  1  0  0  0  0
  6  7  1  0  0  0  0
  7 15  1  1  0  0  0
  7  8  1  0  0  0  0
  8 16  1  0  0  0  0
 10  1  1  0  0  0  0
 12  3  1  0  0  0  0
M  END
