16
title
C -0.09400571 2.5129073 -0.08080754
C -0.1495138 1.0240426 -0.15965103
C -0.2592948 0.25772393 -1.2541821
C -0.24279565 -1.1785572 -0.90296334
O -0.40257055 -2.116574 -1.6489636
C 0.023383962 -1.2603929 0.6063989
C -0.08708668 0.18207675 1.1130999
O 1.0337111 0.4986372 1.9335208
H 0.83740884 2.8295531 0.40372667
H -0.14474677 2.979238 -1.0668867
H -0.91874135 2.904354 0.5293089
H -0.35026678 0.60186833 -2.2776778
H -0.6568758 -1.9643915 1.0899348
H 1.0448959 -1.6180556 0.770699
H -1.0187079 0.32627052 1.6835117
H 0.8330634 1.2971661 2.430966
