title
 OpenBabel02282109583D

 16 16  0  0  1  0  0  0  0  0999 V2000
   -1.0325    2.0234   -0.1641 C   0  0  0  0  0  0  0  0  0  0  0  0
   -0.9583    0.4973   -0.1357 C   0  0  1  0  0  0  0  0  0  0  0  0
   -0.2115    0.0291   -1.2595 O   0  0  0  0  0  0  0  0  0  0  0  0
    0.8504   -0.7541   -0.8305 C   0  0  0  0  0  0  0  0  0  0  0  0
    1.6788   -1.3093   -1.6128 N   0  0  0  0  0  0  0  0  0  0  0  0
    0.8204   -0.8000    0.6230 C   0  0  0  0  0  0  0  0  0  0  0  0
   -0.2290   -0.0807    1.0597 C   0  0  0  0  0  0  0  0  0  0  0  0
   -0.7149    0.1078    2.3278 N   0  0  0  0  0  0  0  0  0  0  0  0
   -0.0322    2.4560   -0.0748 H   0  0  0  0  0  0  0  0  0  0  0  0
   -1.4744    2.3544   -1.1071 H   0  0  0  0  0  0  0  0  0  0  0  0
   -1.6584    2.4051    0.6501 H   0  0  0  0  0  0  0  0  0  0  0  0
   -1.9737    0.0787   -0.1969 H   0  0  0  0  0  0  0  0  0  0  0  0
    1.4447   -1.0966   -2.5831 H   0  0  0  0  0  0  0  0  0  0  0  0
    1.5476   -1.3451    1.2051 H   0  0  0  0  0  0  0  0  0  0  0  0
   -0.0926   -0.1171    3.0890 H   0  0  0  0  0  0  0  0  0  0  0  0
   -1.2565    0.9423    2.4914 H   0  0  0  0  0  0  0  0  0  0  0  0
  1  2  1  0  0  0  0
  1  9  1  0  0  0  0
  1 11  1  0  0  0  0
  2 12  1  6  0  0  0
  2  7  1  0  0  0  0
  3  4  1  0  0  0  0
  3  2  1  0  0  0  0
  4  6  1  0  0  0  0
  5  4  2  0  0  0  0
  6  7  2  0  0  0  0
  6 14  1  0  0  0  0
  7  8  1  0  0  0  0
  8 16  1  0  0  0  0
  8 15  1  0  0  0  0
 10  1  1  0  0  0  0
 13  5  1  0  0  0  0
M  END
