title
 OpenBabel02282109583D

 16 16  0  0  1  0  0  0  0  0999 V2000
   -1.0414    2.0193   -0.1828 C   0  0  0  0  0  0  0  0  0  0  0  0
   -0.9660    0.4947   -0.1243 C   0  0  1  0  0  0  0  0  0  0  0  0
   -0.2373    0.0058   -1.2547 O   0  0  0  0  0  0  0  0  0  0  0  0
    0.8301   -0.7564   -0.8360 C   0  0  0  0  0  0  0  0  0  0  0  0
    1.5907   -1.2728   -1.6048 O   0  0  0  0  0  0  0  0  0  0  0  0
    0.8020   -0.7781    0.6415 C   0  0  0  0  0  0  0  0  0  0  0  0
   -0.2359   -0.0611    1.0792 C   0  0  0  0  0  0  0  0  0  0  0  0
   -0.6831    0.2002    2.4780 C   0  0  0  0  0  0  0  0  0  0  0  0
   -0.0400    2.4538   -0.1153 H   0  0  0  0  0  0  0  0  0  0  0  0
   -1.4947    2.3323   -1.1262 H   0  0  0  0  0  0  0  0  0  0  0  0
   -1.6518    2.4071    0.6383 H   0  0  0  0  0  0  0  0  0  0  0  0
   -1.9816    0.0760   -0.1769 H   0  0  0  0  0  0  0  0  0  0  0  0
    1.5382   -1.3160    1.2214 H   0  0  0  0  0  0  0  0  0  0  0  0
   -0.0577   -0.3267    3.2017 H   0  0  0  0  0  0  0  0  0  0  0  0
   -0.6474    1.2713    2.7097 H   0  0  0  0  0  0  0  0  0  0  0  0
   -1.7226   -0.1178    2.6237 H   0  0  0  0  0  0  0  0  0  0  0  0
  1  2  1  0  0  0  0
  1  9  1  0  0  0  0
  1 11  1  0  0  0  0
  2 12  1  6  0  0  0
  2  7  1  0  0  0  0
  3  4  1  0  0  0  0
  3  2  1  0  0  0  0
  4  6  1  0  0  0  0
  5  4  2  0  0  0  0
  6  7  2  0  0  0  0
  6 13  1  0  0  0  0
  7  8  1  0  0  0  0
  8 16  1  0  0  0  0
  8 15  1  0  0  0  0
  8 14  1  0  0  0  0
 10  1  1  0  0  0  0
M  END
