title
 OpenBabel02282109583D

 15 15  0  0  1  0  0  0  0  0999 V2000
   -1.0371    2.0235   -0.1577 C   0  0  0  0  0  0  0  0  0  0  0  0
   -0.9658    0.4971   -0.1344 C   0  0  1  0  0  0  0  0  0  0  0  0
   -0.2213    0.0319   -1.2534 O   0  0  0  0  0  0  0  0  0  0  0  0
    0.8521   -0.7444   -0.8238 C   0  0  0  0  0  0  0  0  0  0  0  0
    1.6145   -1.2360   -1.6082 O   0  0  0  0  0  0  0  0  0  0  0  0
    0.8139   -0.7933    0.6356 C   0  0  0  0  0  0  0  0  0  0  0  0
   -0.2435   -0.0790    1.0679 C   0  0  0  0  0  0  0  0  0  0  0  0
   -0.7274    0.1159    2.3256 N   0  0  0  0  0  0  0  0  0  0  0  0
   -0.0347    2.4522   -0.0746 H   0  0  0  0  0  0  0  0  0  0  0  0
   -1.4828    2.3560   -1.0980 H   0  0  0  0  0  0  0  0  0  0  0  0
   -1.6554    2.4062    0.6617 H   0  0  0  0  0  0  0  0  0  0  0  0
   -1.9798    0.0768   -0.1954 H   0  0  0  0  0  0  0  0  0  0  0  0
    1.5439   -1.3355    1.2169 H   0  0  0  0  0  0  0  0  0  0  0  0
   -0.1340   -0.1178    3.1053 H   0  0  0  0  0  0  0  0  0  0  0  0
   -1.3457    0.8940    2.4869 H   0  0  0  0  0  0  0  0  0  0  0  0
  1  2  1  0  0  0  0
  1  9  1  0  0  0  0
  1 11  1  0  0  0  0
  2 12  1  6  0  0  0
  2  7  1  0  0  0  0
  3  4  1  0  0  0  0
  3  2  1  0  0  0  0
  4  6  1  0  0  0  0
  5  4  2  0  0  0  0
  6  7  2  0  0  0  0
  6 13  1  0  0  0  0
  7  8  1  0  0  0  0
  8 15  1  0  0  0  0
  8 14  1  0  0  0  0
 10  1  1  0  0  0  0
M  END
