15
title
C -1.4087983 2.0429242 -0.16167988
C -1.0149785 0.56759554 -0.21550894
C -0.1390517 0.12186824 -1.3951014
C 0.79406214 -0.898591 -0.7874733
N 1.4978667 -1.7398436 -1.3983287
O 0.7777654 -0.7589442 0.59541357
C -0.19727114 0.1361111 0.9985002
O -0.32190862 0.4533899 2.1400583
H -0.52480644 2.686355 -0.2157615
H -2.0675018 2.2974443 -0.99635124
H -1.928832 2.2615047 0.7738048
H -1.9248585 -0.047030374 -0.18216927
H -0.68365335 -0.30338284 -2.238268
H 0.4565061 0.95977914 -1.7761252
H 2.0503342 -2.3011117 -0.7481575
