title
 OpenBabel02282109583D

 15 15  0  0  1  0  0  0  0  0999 V2000
   -1.4088    2.0429   -0.1617 C   0  0  0  0  0  0  0  0  0  0  0  0
   -1.0150    0.5676   -0.2155 C   0  0  1  0  0  0  0  0  0  0  0  0
   -0.1391    0.1219   -1.3951 C   0  0  0  0  0  0  0  0  0  0  0  0
    0.7941   -0.8986   -0.7875 C   0  0  0  0  0  0  0  0  0  0  0  0
    1.4979   -1.7398   -1.3983 N   0  0  0  0  0  0  0  0  0  0  0  0
    0.7778   -0.7589    0.5954 O   0  0  0  0  0  0  0  0  0  0  0  0
   -0.1973    0.1361    0.9985 C   0  0  0  0  0  0  0  0  0  0  0  0
   -0.3219    0.4534    2.1401 O   0  0  0  0  0  0  0  0  0  0  0  0
   -0.5248    2.6864   -0.2158 H   0  0  0  0  0  0  0  0  0  0  0  0
   -2.0675    2.2974   -0.9964 H   0  0  0  0  0  0  0  0  0  0  0  0
   -1.9288    2.2615    0.7738 H   0  0  0  0  0  0  0  0  0  0  0  0
   -1.9249   -0.0470   -0.1822 H   0  0  0  0  0  0  0  0  0  0  0  0
   -0.6837   -0.3034   -2.2383 H   0  0  0  0  0  0  0  0  0  0  0  0
    0.4565    0.9598   -1.7761 H   0  0  0  0  0  0  0  0  0  0  0  0
    2.0503   -2.3011   -0.7482 H   0  0  0  0  0  0  0  0  0  0  0  0
  1 11  1  0  0  0  0
  2 12  1  6  0  0  0
  2  1  1  0  0  0  0
  2  7  1  0  0  0  0
  3  4  1  0  0  0  0
  3  2  1  0  0  0  0
  4  6  1  0  0  0  0
  5  4  2  0  0  0  0
  5 15  1  0  0  0  0
  6  7  1  0  0  0  0
  7  8  2  0  0  0  0
  9  1  1  0  0  0  0
 10  1  1  0  0  0  0
 13  3  1  0  0  0  0
 14  3  1  0  0  0  0
M  END
