16
title
C -1.6671365 1.8617996 -0.010491389
C -1.0469687 0.47206384 -0.12005054
C -0.13536288 0.21134035 -1.3329942
C 0.8791101 -0.84764445 -0.88631827
O 1.5659645 -1.5098517 -1.618209
C 0.8746016 -0.916582 0.64185476
C -0.1735077 0.09811976 1.0901756
O -0.29313445 0.5511593 2.1986058
H -0.89329535 2.635843 -0.04656449
H -2.3706093 2.0461996 -0.8272265
H -2.1966364 1.9662225 0.93936753
H -1.8510753 -0.28111783 -0.12766851
H -0.65207124 -0.10432393 -2.2418656
H 0.43301237 1.1178005 -1.586127
H 0.59249187 -1.9251671 0.9685043
H 1.8599339 -0.7141056 1.0712987
