title
 OpenBabel02282109583D

 16 16  0  0  1  0  0  0  0  0999 V2000
   -1.2612    2.1135   -0.1443 C   0  0  0  0  0  0  0  0  0  0  0  0
   -1.0130    0.6052   -0.1834 C   0  0  1  0  0  0  0  0  0  0  0  0
   -0.1738    0.0988   -1.3755 C   0  0  0  0  0  0  0  0  0  0  0  0
    0.8171   -0.9012   -0.7870 C   0  0  0  0  0  0  0  0  0  0  0  0
    1.5792   -1.6342   -1.3654 O   0  0  0  0  0  0  0  0  0  0  0  0
    0.7038   -0.7979    0.5938 N   0  0  0  0  0  0  0  0  0  0  0  0
   -0.2627    0.0976    1.0476 C   0  0  0  0  0  0  0  0  0  0  0  0
   -0.5298    0.4510    2.2360 N   0  0  0  0  0  0  0  0  0  0  0  0
   -0.3157    2.6654   -0.1728 H   0  0  0  0  0  0  0  0  0  0  0  0
   -1.8656    2.4285   -1.0002 H   0  0  0  0  0  0  0  0  0  0  0  0
   -1.7818    2.3854    0.7761 H   0  0  0  0  0  0  0  0  0  0  0  0
   -1.9818    0.0911   -0.1808 H   0  0  0  0  0  0  0  0  0  0  0  0
   -0.7564   -0.3751   -2.1677 H   0  0  0  0  0  0  0  0  0  0  0  0
    0.4029    0.9065   -1.8406 H   0  0  0  0  0  0  0  0  0  0  0  0
    1.3060   -1.3316    1.2040 H   0  0  0  0  0  0  0  0  0  0  0  0
    0.0724   -0.0082    2.9211 H   0  0  0  0  0  0  0  0  0  0  0  0
  1 11  1  0  0  0  0
  2 12  1  6  0  0  0
  2  1  1  0  0  0  0
  2  7  1  0  0  0  0
  3  4  1  0  0  0  0
  3  2  1  0  0  0  0
  4  6  1  0  0  0  0
  5  4  2  0  0  0  0
  6  7  1  0  0  0  0
  6 15  1  0  0  0  0
  7  8  2  0  0  0  0
  8 16  1  0  0  0  0
  9  1  1  0  0  0  0
 10  1  1  0  0  0  0
 13  3  1  0  0  0  0
 14  3  1  0  0  0  0
M  END
