15
title
C -1.242077 2.1081553 -0.16229072
C -1.0273678 0.593405 -0.2049906
C -0.2021146 0.058210604 -1.3917856
C 0.834034 -0.886804 -0.78669804
O 1.6208515 -1.5955257 -1.3587929
N 0.7212679 -0.7671443 0.59551454
C -0.27767658 0.09280934 1.0363871
O -0.4988181 0.36973667 2.1878033
H -0.28729093 2.6415083 -0.21980019
H -1.8649315 2.4357805 -0.99927926
H -1.7320368 2.3913412 0.77217853
H -2.0061858 0.09902864 -0.1766459
H -0.7881289 -0.47403002 -2.1439524
H 0.33537382 0.85812414 -1.9125314
H 1.3325651 -1.2594408 1.2320392
