title
 OpenBabel02282109583D

 15 15  0  0  1  0  0  0  0  0999 V2000
   -1.2702    2.1485   -0.1589 C   0  0  0  0  0  0  0  0  0  0  0  0
   -0.9875    0.6479   -0.2107 C   0  0  1  0  0  0  0  0  0  0  0  0
   -0.1124    0.1567   -1.3735 C   0  0  0  0  0  0  0  0  0  0  0  0
    0.7540   -0.9316   -0.7646 C   0  0  0  0  0  0  0  0  0  0  0  0
    1.4418   -1.7459   -1.2944 O   0  0  0  0  0  0  0  0  0  0  0  0
    0.6649   -0.8458    0.6157 O   0  0  0  0  0  0  0  0  0  0  0  0
   -0.2367    0.1343    1.0050 C   0  0  0  0  0  0  0  0  0  0  0  0
   -0.3968    0.5072    2.1936 N   0  0  0  0  0  0  0  0  0  0  0  0
   -0.3374    2.7211   -0.1612 H   0  0  0  0  0  0  0  0  0  0  0  0
   -1.8666    2.4592   -1.0215 H   0  0  0  0  0  0  0  0  0  0  0  0
   -1.8145    2.3977    0.7542 H   0  0  0  0  0  0  0  0  0  0  0  0
   -1.9426    0.1070   -0.2327 H   0  0  0  0  0  0  0  0  0  0  0  0
   -0.6581   -0.2329   -2.2338 H   0  0  0  0  0  0  0  0  0  0  0  0
    0.5550    0.9462   -1.7392 H   0  0  0  0  0  0  0  0  0  0  0  0
    0.2190   -0.0009    2.8299 H   0  0  0  0  0  0  0  0  0  0  0  0
  1 11  1  0  0  0  0
  2 12  1  6  0  0  0
  2  1  1  0  0  0  0
  2  7  1  0  0  0  0
  3  4  1  0  0  0  0
  3  2  1  0  0  0  0
  4  6  1  0  0  0  0
  5  4  2  0  0  0  0
  6  7  1  0  0  0  0
  7  8  2  0  0  0  0
  8 15  1  0  0  0  0
  9  1  1  0  0  0  0
 10  1  1  0  0  0  0
 13  3  1  0  0  0  0
 14  3  1  0  0  0  0
M  END
