title
 OpenBabel02282109583D

 15 15  0  0  1  0  0  0  0  0999 V2000
   -1.0290    2.0662   -0.1637 C   0  0  0  0  0  0  0  0  0  0  0  0
   -1.0442    0.5341   -0.1473 C   0  0  1  0  0  0  0  0  0  0  0  0
   -0.3351   -0.1015   -1.2451 N   0  0  0  0  0  0  0  0  0  0  0  0
    0.8059   -0.7600   -0.8385 C   0  0  0  0  0  0  0  0  0  0  0  0
    1.6784   -1.2505   -1.6213 N   0  0  0  0  0  0  0  0  0  0  0  0
    0.7518   -0.7552    0.5681 N   0  0  0  0  0  0  0  0  0  0  0  0
   -0.2953   -0.0176    1.0764 C   0  0  0  0  0  0  0  0  0  0  0  0
   -0.5561    0.1700    2.2387 O   0  0  0  0  0  0  0  0  0  0  0  0
   -0.0041    2.4466   -0.2096 H   0  0  0  0  0  0  0  0  0  0  0  0
   -1.5808    2.4485   -1.0277 H   0  0  0  0  0  0  0  0  0  0  0  0
   -1.5029    2.4441    0.7459 H   0  0  0  0  0  0  0  0  0  0  0  0
   -2.0834    0.1844   -0.0917 H   0  0  0  0  0  0  0  0  0  0  0  0
   -0.3569    0.2611   -2.1838 H   0  0  0  0  0  0  0  0  0  0  0  0
    2.4327   -1.7020   -1.1106 H   0  0  0  0  0  0  0  0  0  0  0  0
    1.4282   -1.2187    1.1529 H   0  0  0  0  0  0  0  0  0  0  0  0
  1  2  1  0  0  0  0
  1 11  1  0  0  0  0
  2 12  1  1  0  0  0
  2  7  1  0  0  0  0
  3  4  1  0  0  0  0
  3  2  1  0  0  0  0
  4  6  1  0  0  0  0
  5 14  1  0  0  0  0
  5  4  2  0  0  0  0
  6  7  1  0  0  0  0
  6 15  1  0  0  0  0
  7  8  2  0  0  0  0
  9  1  1  0  0  0  0
 10  1  1  0  0  0  0
 13  3  1  0  0  0  0
M  END
