15
title
C -1.0290341 2.0662217 -0.16365634
C -1.0441731 0.5340822 -0.14733645
N -0.33509785 -0.10149284 -1.2450919
C 0.8059112 -0.7599506 -0.8385258
N 1.6784369 -1.2505193 -1.6213244
N 0.7517959 -0.7551554 0.56812036
C -0.29531735 -0.017623318 1.0763887
O -0.55612445 0.1699663 2.238697
H -0.0041073626 2.4465752 -0.20960914
H -1.5808192 2.4484625 -1.0276964
H -1.5029281 2.4441354 0.74593353
H -2.083424 0.18443318 -0.09174357
H -0.35687202 0.26112846 -2.1837733
H 2.4327002 -1.7019583 -1.1105624
H 1.4282192 -1.2186944 1.1529266
