15
title
C -1.149867 2.0719295 -0.054267637
C -1.0307727 0.5463791 -0.085533045
N -0.2674279 0.020975124 -1.2028272
C 0.7957291 -0.79331225 -0.9064586
O 1.529828 -1.316818 -1.7126583
C 0.8610683 -0.90599984 0.616178
C -0.24686024 0.0016014697 1.1269644
O -0.49336633 0.28510574 2.2682385
H -0.16181889 2.5397067 -0.09530804
H -1.7400295 2.4353223 -0.90077513
H -1.6441854 2.3764882 0.8714801
H -2.0399954 0.107908174 -0.050672825
H -0.49784657 0.20774211 -2.1667843
H 0.6923867 -1.9413102 0.9310432
H 1.8403186 -0.6115071 1.0032874
