title
 OpenBabel02282109583D

 15 15  0  0  1  0  0  0  0  0999 V2000
   -1.1499    2.0719   -0.0543 C   0  0  0  0  0  0  0  0  0  0  0  0
   -1.0308    0.5464   -0.0855 C   0  0  1  0  0  0  0  0  0  0  0  0
   -0.2674    0.0210   -1.2028 N   0  0  0  0  0  0  0  0  0  0  0  0
    0.7957   -0.7933   -0.9065 C   0  0  0  0  0  0  0  0  0  0  0  0
    1.5298   -1.3168   -1.7127 O   0  0  0  0  0  0  0  0  0  0  0  0
    0.8611   -0.9060    0.6162 C   0  0  0  0  0  0  0  0  0  0  0  0
   -0.2469    0.0016    1.1270 C   0  0  0  0  0  0  0  0  0  0  0  0
   -0.4934    0.2851    2.2682 O   0  0  0  0  0  0  0  0  0  0  0  0
   -0.1618    2.5397   -0.0953 H   0  0  0  0  0  0  0  0  0  0  0  0
   -1.7400    2.4353   -0.9008 H   0  0  0  0  0  0  0  0  0  0  0  0
   -1.6442    2.3765    0.8715 H   0  0  0  0  0  0  0  0  0  0  0  0
   -2.0400    0.1079   -0.0507 H   0  0  0  0  0  0  0  0  0  0  0  0
   -0.4978    0.2077   -2.1668 H   0  0  0  0  0  0  0  0  0  0  0  0
    0.6924   -1.9413    0.9310 H   0  0  0  0  0  0  0  0  0  0  0  0
    1.8403   -0.6115    1.0033 H   0  0  0  0  0  0  0  0  0  0  0  0
  1 11  1  0  0  0  0
  2  1  1  0  0  0  0
  2 12  1  6  0  0  0
  2  7  1  0  0  0  0
  3  4  1  0  0  0  0
  3  2  1  0  0  0  0
  4  6  1  0  0  0  0
  5  4  2  0  0  0  0
  6 14  1  0  0  0  0
  6 15  1  0  0  0  0
  6  7  1  0  0  0  0
  7  8  2  0  0  0  0
  9  1  1  0  0  0  0
 10  1  1  0  0  0  0
 13  3  1  0  0  0  0
M  END
