14
title
C -1.1219105 2.1129072 -0.1379242
C -1.0297065 0.58689934 -0.17973143
N -0.18843739 0.0609354 -1.2384459
C 0.8005298 -0.7630718 -0.7977997
O 1.6189681 -1.3815812 -1.4090284
O 0.72591704 -0.7819489 0.6006416
C -0.31869784 0.0013011614 1.0322459
N -0.6359615 0.2084787 2.2296631
H -0.12470863 2.558885 -0.09388013
H -1.6376945 2.4931111 -1.0247351
H -1.6815313 2.4146886 0.7502288
H -2.041568 0.16259263 -0.23093449
H -0.3655536 0.1597368 -2.2230406
H -0.0146934185 -0.28615135 2.8708038
