title
 OpenBabel02282109583D

 14 14  0  0  1  0  0  0  0  0999 V2000
   -1.0710    2.0472   -0.1804 C   0  0  0  0  0  0  0  0  0  0  0  0
   -0.9986    0.5285   -0.1614 C   0  0  1  0  0  0  0  0  0  0  0  0
   -0.2175    0.0239   -1.2636 O   0  0  0  0  0  0  0  0  0  0  0  0
    0.8090   -0.7471   -0.8070 C   0  0  0  0  0  0  0  0  0  0  0  0
    1.6812   -1.3494   -1.4873 N   0  0  0  0  0  0  0  0  0  0  0  0
    0.7455   -0.7640    0.5826 N   0  0  0  0  0  0  0  0  0  0  0  0
   -0.2971   -0.0225    1.0836 C   0  0  0  0  0  0  0  0  0  0  0  0
   -0.5910    0.1617    2.2373 O   0  0  0  0  0  0  0  0  0  0  0  0
   -0.0685    2.4829   -0.1482 H   0  0  0  0  0  0  0  0  0  0  0  0
   -1.5771    2.3948   -1.0839 H   0  0  0  0  0  0  0  0  0  0  0  0
   -1.6289    2.3874    0.6959 H   0  0  0  0  0  0  0  0  0  0  0  0
   -2.0023    0.0925   -0.2288 H   0  0  0  0  0  0  0  0  0  0  0  0
    1.5303   -1.1938   -2.4818 H   0  0  0  0  0  0  0  0  0  0  0  0
    1.4185   -1.2633    1.1419 H   0  0  0  0  0  0  0  0  0  0  0  0
  1  2  1  0  0  0  0
  1  9  1  0  0  0  0
  1 11  1  0  0  0  0
  2 12  1  6  0  0  0
  2  7  1  0  0  0  0
  3  4  1  0  0  0  0
  3  2  1  0  0  0  0
  4  6  1  0  0  0  0
  5  4  2  0  0  0  0
  6  7  1  0  0  0  0
  6 14  1  0  0  0  0
  7  8  2  0  0  0  0
 10  1  1  0  0  0  0
 13  5  1  0  0  0  0
M  END
