14
title
C -1.0735066 2.0483048 -0.17596531
C -1.003755 0.53043085 -0.13601443
O -0.22363457 0.023382114 -1.2417359
C 0.80395573 -0.7400322 -0.79619515
O 1.6076902 -1.2856686 -1.4921677
N 0.74154013 -0.762712 0.5961759
C -0.30740646 -0.017388238 1.1031368
N -0.6829301 0.22100638 2.2886307
H -0.07006415 2.4810853 -0.13651985
H -1.565954 2.3825176 -1.0921667
H -1.6405239 2.3997657 0.689227
H -2.0060956 0.096260056 -0.21500412
H 1.4256922 -1.2673858 1.1357021
H -0.08999946 -0.23195042 2.9845862
