15
title
C -0.1879054 2.442611 -0.0651917
N -0.15002713 1.0036559 0.019609269
C -1.3273779 0.16968119 0.0077983965
C -0.7545244 -1.2499907 0.027872333
O -1.3561673 -2.2940745 0.048521616
N 0.6120725 -1.0773814 0.014509807
C 1.0141966 0.2728907 -0.0056742276
N 2.1869712 0.76738864 -0.03835921
H 0.83960533 2.8064172 -0.041253544
H -0.6644566 2.777653 -0.9963356
H -0.7414511 2.872074 0.7790131
H -1.9751815 0.32567453 0.88101757
H -1.9447162 0.30791253 -0.8915687
H 1.260054 -1.8480515 0.023127025
H 2.902424 0.046481375 -0.045841347
