title
 OpenBabel02282109583D

 14 14  0  0  0  0  0  0  0  0999 V2000
   -0.2117    2.4440   -0.0557 C   0  0  0  0  0  0  0  0  0  0  0  0
   -0.1718    1.0018   -0.0227 N   0  0  0  0  0  0  0  0  0  0  0  0
   -1.3397    0.1501    0.0005 C   0  0  0  0  0  0  0  0  0  0  0  0
   -0.7452   -1.2641    0.0314 C   0  0  0  0  0  0  0  0  0  0  0  0
   -1.3403   -2.3107    0.0574 O   0  0  0  0  0  0  0  0  0  0  0  0
    0.6180   -1.0716    0.0229 N   0  0  0  0  0  0  0  0  0  0  0  0
    0.9977    0.2863   -0.0096 C   0  0  0  0  0  0  0  0  0  0  0  0
    2.1312    0.7033   -0.0226 O   0  0  0  0  0  0  0  0  0  0  0  0
    0.8185    2.8030   -0.0671 H   0  0  0  0  0  0  0  0  0  0  0  0
   -0.7281    2.8071   -0.9526 H   0  0  0  0  0  0  0  0  0  0  0  0
   -0.7227    2.8480    0.8267 H   0  0  0  0  0  0  0  0  0  0  0  0
   -1.9682    0.3109    0.8860 H   0  0  0  0  0  0  0  0  0  0  0  0
   -1.9734    0.2698   -0.8877 H   0  0  0  0  0  0  0  0  0  0  0  0
    1.2986   -1.8142    0.0380 H   0  0  0  0  0  0  0  0  0  0  0  0
  1  2  1  0  0  0  0
  1 11  1  0  0  0  0
  2  7  1  0  0  0  0
  2  3  1  0  0  0  0
  3  4  1  0  0  0  0
  3 12  1  0  0  0  0
  4  5  2  0  0  0  0
  6  4  1  0  0  0  0
  6 14  1  0  0  0  0
  7  6  1  0  0  0  0
  8  7  2  0  0  0  0
  9  1  1  0  0  0  0
 10  1  1  0  0  0  0
 13  3  1  0  0  0  0
M  END
