14
title
C -0.21167392 2.4439728 -0.055692043
N -0.17179969 1.0017812 -0.022667173
C -1.3397098 0.15008113 0.00050020206
C -0.7451708 -1.2640839 0.031409066
O -1.3403445 -2.3107207 0.057382237
N 0.6179522 -1.0716193 0.022873608
C 0.9976526 0.28629348 -0.009618772
O 2.131231 0.70330185 -0.022609975
H 0.8184556 2.8029583 -0.067057036
H -0.7280948 2.8070936 -0.952646
H -0.72271556 2.8479955 0.82673776
H -1.9681934 0.31091657 0.88595736
H -1.9734381 0.26984403 -0.8877349
H 1.2986472 -1.8142316 0.037970047
