title
 OpenBabel02282109583D

 14 14  0  0  1  0  0  0  0  0999 V2000
    0.4213    2.0102    1.2559 N   0  0  0  0  0  0  0  0  0  0  0  0
    0.3248    0.5847    0.9804 C   0  0  1  0  0  0  0  0  0  0  0  0
   -1.1142    0.0631    0.8350 C   0  0  0  0  0  0  0  0  0  0  0  0
   -1.0766   -0.9281   -0.3256 C   0  0  0  0  0  0  0  0  0  0  0  0
   -1.9404   -1.6804   -0.6929 O   0  0  0  0  0  0  0  0  0  0  0  0
    0.1725   -0.7890   -0.9317 N   0  0  0  0  0  0  0  0  0  0  0  0
    1.0211    0.1211   -0.3167 C   0  0  0  0  0  0  0  0  0  0  0  0
    2.0968    0.4764   -0.7280 O   0  0  0  0  0  0  0  0  0  0  0  0
    1.4038    2.2738    1.2598 H   0  0  0  0  0  0  0  0  0  0  0  0
    0.0006    2.5352    0.4924 H   0  0  0  0  0  0  0  0  0  0  0  0
    0.8309    0.0548    1.7976 H   0  0  0  0  0  0  0  0  0  0  0  0
   -1.5154   -0.4145    1.7299 H   0  0  0  0  0  0  0  0  0  0  0  0
   -1.8015    0.8740    0.5688 H   0  0  0  0  0  0  0  0  0  0  0  0
    0.4169   -1.2855   -1.7780 H   0  0  0  0  0  0  0  0  0  0  0  0
  1  9  1  0  0  0  0
  2  1  1  0  0  0  0
  2 11  1  1  0  0  0
  3  2  1  0  0  0  0
  3 12  1  0  0  0  0
  4  3  1  0  0  0  0
  5  4  2  0  0  0  0
  6  4  1  0  0  0  0
  6  7  1  0  0  0  0
  7  2  1  0  0  0  0
  8  7  2  0  0  0  0
 10  1  1  0  0  0  0
 13  3  1  0  0  0  0
 14  6  1  0  0  0  0
M  END
