title
 OpenBabel02282109583D

 14 14  0  0  1  0  0  0  0  0999 V2000
    0.8613    1.4661    1.6002 O   0  0  0  0  0  0  0  0  0  0  0  0
    0.4365    0.2710    1.0151 C   0  0  1  0  0  0  0  0  0  0  0  0
   -1.0794    0.1623    0.7833 C   0  0  0  0  0  0  0  0  0  0  0  0
   -1.2377   -0.7618   -0.4310 C   0  0  0  0  0  0  0  0  0  0  0  0
   -2.2499   -1.3126   -0.7678 O   0  0  0  0  0  0  0  0  0  0  0  0
    0.1157   -0.8661   -1.1590 C   0  0  0  0  0  0  0  0  0  0  0  0
    1.0125    0.0847   -0.3927 C   0  0  0  0  0  0  0  0  0  0  0  0
    1.9658    0.7063   -0.7913 O   0  0  0  0  0  0  0  0  0  0  0  0
    1.6268    1.7562    1.0806 H   0  0  0  0  0  0  0  0  0  0  0  0
    0.7669   -0.6004    1.6118 H   0  0  0  0  0  0  0  0  0  0  0  0
   -1.6557   -0.1960    1.6377 H   0  0  0  0  0  0  0  0  0  0  0  0
   -1.4679    1.1523    0.5091 H   0  0  0  0  0  0  0  0  0  0  0  0
    0.4835   -1.8965   -1.0708 H   0  0  0  0  0  0  0  0  0  0  0  0
    0.0505   -0.6362   -2.2250 H   0  0  0  0  0  0  0  0  0  0  0  0
  2  1  1  0  0  0  0
  2 10  1  1  0  0  0
  3  2  1  0  0  0  0
  3 11  1  0  0  0  0
  4  3  1  0  0  0  0
  5  4  2  0  0  0  0
  6 13  1  0  0  0  0
  6  4  1  0  0  0  0
  6  7  1  0  0  0  0
  7  2  1  0  0  0  0
  8  7  2  0  0  0  0
  9  1  1  0  0  0  0
 12  3  1  0  0  0  0
 14  6  1  0  0  0  0
M  END
