title
 OpenBabel02282109583D

 14 14  0  0  1  0  0  0  0  0999 V2000
    0.5136    1.8761    1.2480 O   0  0  0  0  0  0  0  0  0  0  0  0
    0.3471    0.5090    0.9838 C   0  0  1  0  0  0  0  0  0  0  0  0
   -1.1211    0.1048    0.7930 C   0  0  0  0  0  0  0  0  0  0  0  0
   -1.1021   -0.9016   -0.3551 C   0  0  0  0  0  0  0  0  0  0  0  0
   -1.9796   -1.6315   -0.7348 O   0  0  0  0  0  0  0  0  0  0  0  0
    0.1634   -0.8093   -0.9425 N   0  0  0  0  0  0  0  0  0  0  0  0
    1.0130    0.0960   -0.3282 C   0  0  0  0  0  0  0  0  0  0  0  0
    2.1286    0.5802   -0.6846 N   0  0  0  0  0  0  0  0  0  0  0  0
    1.3769    2.1123    0.8791 H   0  0  0  0  0  0  0  0  0  0  0  0
    0.7988   -0.1052    1.7810 H   0  0  0  0  0  0  0  0  0  0  0  0
   -1.6006   -0.3221    1.6741 H   0  0  0  0  0  0  0  0  0  0  0  0
   -1.7013    0.9787    0.4781 H   0  0  0  0  0  0  0  0  0  0  0  0
    0.3800   -1.3167   -1.7886 H   0  0  0  0  0  0  0  0  0  0  0  0
    2.4510    0.2396   -1.5900 H   0  0  0  0  0  0  0  0  0  0  0  0
  2  1  1  0  0  0  0
  2 10  1  1  0  0  0
  3  2  1  0  0  0  0
  3 11  1  0  0  0  0
  4  3  1  0  0  0  0
  5  4  2  0  0  0  0
  6  4  1  0  0  0  0
  6  7  1  0  0  0  0
  7  2  1  0  0  0  0
  8  7  2  0  0  0  0
  9  1  1  0  0  0  0
 12  3  1  0  0  0  0
 13  6  1  0  0  0  0
 14  8  1  0  0  0  0
M  END
