title
 OpenBabel02282109583D

 13 13  0  0  1  0  0  0  0  0999 V2000
    0.4458    1.8829    1.2499 O   0  0  0  0  0  0  0  0  0  0  0  0
    0.3350    0.5050    1.0018 C   0  0  1  0  0  0  0  0  0  0  0  0
   -1.1153    0.0404    0.8334 C   0  0  0  0  0  0  0  0  0  0  0  0
   -1.0864   -0.9209   -0.3539 C   0  0  0  0  0  0  0  0  0  0  0  0
   -1.9509   -1.6598   -0.7408 O   0  0  0  0  0  0  0  0  0  0  0  0
    0.1667   -0.7713   -0.9621 N   0  0  0  0  0  0  0  0  0  0  0  0
    1.0025    0.1270   -0.3279 C   0  0  0  0  0  0  0  0  0  0  0  0
    2.0548    0.5570   -0.7319 O   0  0  0  0  0  0  0  0  0  0  0  0
    1.3201    2.1483    0.9331 H   0  0  0  0  0  0  0  0  0  0  0  0
    0.8352   -0.0851    1.7882 H   0  0  0  0  0  0  0  0  0  0  0  0
   -1.5506   -0.4436    1.7081 H   0  0  0  0  0  0  0  0  0  0  0  0
   -1.7442    0.8970    0.5696 H   0  0  0  0  0  0  0  0  0  0  0  0
    0.3968   -1.2219   -1.8374 H   0  0  0  0  0  0  0  0  0  0  0  0
  2  1  1  0  0  0  0
  2 10  1  1  0  0  0
  3  2  1  0  0  0  0
  3 11  1  0  0  0  0
  4  3  1  0  0  0  0
  5  4  2  0  0  0  0
  6  4  1  0  0  0  0
  6  7  1  0  0  0  0
  7  2  1  0  0  0  0
  8  7  2  0  0  0  0
  9  1  1  0  0  0  0
 12  3  1  0  0  0  0
 13  6  1  0  0  0  0
M  END
