13
title
O 0.50274116 1.8916426 1.2768533
C 0.32161897 0.5320169 0.9933293
C -1.1394293 0.14225757 0.76028305
C -1.0628743 -0.9092896 -0.333219
O -1.8708597 -1.6983739 -0.70014805
O 0.19304915 -0.8256682 -0.9437881
C 0.97057706 0.1191332 -0.3163404
N 2.04635 0.6039249 -0.745483
H 1.3549894 2.1378574 0.89068925
H 0.7496254 -0.10041881 1.7894903
H -1.6704751 -0.24401194 1.6297066
H -1.6906499 1.0067065 0.37352246
H 2.3160484 0.2260992 -1.6534905
