19
title
C -2.0073166 1.5396919 -0.18369837
C -1.1627041 0.27023846 -0.2528737
C 0.0013708097 0.29890501 -1.2549131
C 0.94712687 -0.74655956 -0.7091954
N 1.868751 -1.3242815 -1.3503544
O 0.6472286 -0.985497 0.60407794
C -0.4353387 -0.13745734 1.052945
C 0.13214792 1.0030757 1.8919811
H -1.3971345 2.4189482 0.04517996
H -2.5044353 1.7217475 -1.1415126
H -2.7864592 1.4606439 0.5820146
H -1.8152426 -0.56919277 -0.5229476
H -0.2810373 0.075448945 -2.2842176
H 0.50109625 1.2756467 -1.2565382
H 2.365468 -1.9798456 -0.7438769
H -1.0741743 -0.76624763 1.6813599
H 0.75380397 1.6752716 1.2921473
H -0.6716799 1.5900911 2.3460166
H 0.7527838 0.5944508 2.693683
