20
title
C -0.9838799 1.8825887 -0.20724984
C -1.1783813 0.36511362 -0.08365226
C -0.58926 -0.3803349 -1.296233
C 0.86649513 -0.6805941 -0.9199664
O 1.7354386 -1.0256087 -1.6782125
C 1.0185134 -0.46830732 0.5898944
C -0.41570625 -0.28070325 1.1156857
C -0.5186714 0.4580931 2.4482832
H 0.07340243 2.1554918 -0.30347702
H -1.4980918 2.2597044 -1.0970803
H -1.3870618 2.4147632 0.6588656
H -2.2508326 0.1659741 0.015847832
H -1.08665 -1.3486598 -1.4432188
H -0.6490301 0.15651597 -2.2465553
H 1.5699999 -1.2941629 1.0469327
H 1.6236413 0.43546754 0.7433263
H -0.84891886 -1.2815975 1.2504834
H -0.048327424 1.4455029 2.3987207
H -1.5638705 0.5984219 2.7453997
H -0.020361999 -0.10366223 3.2451072
