18
title
C -0.9915631 1.8676473 -0.092574425
C -1.1707256 0.3450604 -0.14659247
C -0.4855278 -0.27836227 -1.3770878
C 0.94619465 -0.5985708 -0.9298383
O 1.8633118 -0.8893439 -1.6521004
C 0.9997809 -0.49514914 0.5984561
C -0.47187942 -0.38251102 1.0302744
O -0.69177157 0.3223748 2.2373319
H 0.062779546 2.1589034 -0.15652801
H -1.5127132 2.3379934 -0.9323015
H -1.3921696 2.2732055 0.8382476
H -2.2415366 0.12122577 -0.12967652
H -0.952417 -1.2322206 -1.6576457
H -0.48966968 0.35139486 -2.270438
H 1.5506434 -1.3336798 1.0324761
H 1.5359852 0.4246317 0.8640625
H -0.89802206 -1.3966634 1.1011072
H -0.27192557 -0.16458604 2.9528818
