19
title
C -0.052822877 2.2846687 -0.27652505
C -0.77613765 0.9475177 -0.09542939
C -0.48473802 -0.03908017 -1.2461792
C 0.7219755 -0.83187747 -0.7421643
O 1.4523156 -1.5353918 -1.3886688
C 0.83969194 -0.5481416 0.7660204
N -0.31646332 0.26557696 1.1441604
C -1.3672405 -0.50396955 1.8003066
H 1.027243 2.1433394 -0.39650044
H -0.41913936 2.8058481 -1.1671972
H -0.21220343 2.9229825 0.5961036
H -1.8480349 1.1399498 0.001005305
H -1.3121394 -0.7448573 -1.389309
H -0.27747056 0.4213875 -2.2146883
H 0.8913749 -1.4837668 1.3296906
H 1.7864616 -0.018582309 0.9406519
H -0.97663456 -0.9416145 2.7238696
H -2.1908484 0.16263822 2.0732694
H -1.785398 -1.3269804 1.1900511
