title
 OpenBabel02282109583D

 18 18  0  0  1  0  0  0  0  0999 V2000
   -1.9753    1.5904   -0.2430 C   0  0  0  0  0  0  0  0  0  0  0  0
   -1.1574    0.3036   -0.3130 C   0  0  1  0  0  0  0  0  0  0  0  0
    0.0572    0.3318   -1.2474 C   0  0  0  0  0  0  0  0  0  0  0  0
    0.9802   -0.7329   -0.6653 C   0  0  0  0  0  0  0  0  0  0  0  0
    1.9125   -1.2782   -1.1799 O   0  0  0  0  0  0  0  0  0  0  0  0
    0.5862   -1.0105    0.6083 O   0  0  0  0  0  0  0  0  0  0  0  0
   -0.5152   -0.1670    1.0188 C   0  0  1  0  0  0  0  0  0  0  0  0
    0.0136    0.9290    1.9377 C   0  0  0  0  0  0  0  0  0  0  0  0
   -1.3584    2.4461    0.0484 H   0  0  0  0  0  0  0  0  0  0  0  0
   -2.4177    1.8171   -1.2178 H   0  0  0  0  0  0  0  0  0  0  0  0
   -2.7946    1.5033    0.4786 H   0  0  0  0  0  0  0  0  0  0  0  0
   -1.8148   -0.5086   -0.6470 H   0  0  0  0  0  0  0  0  0  0  0  0
   -0.1618    0.1133   -2.2935 H   0  0  0  0  0  0  0  0  0  0  0  0
    0.5788    1.2964   -1.2166 H   0  0  0  0  0  0  0  0  0  0  0  0
   -1.1987   -0.8125    1.5785 H   0  0  0  0  0  0  0  0  0  0  0  0
    0.6822    1.6140    1.4064 H   0  0  0  0  0  0  0  0  0  0  0  0
   -0.8091    1.5109    2.3629 H   0  0  0  0  0  0  0  0  0  0  0  0
    0.5762    0.4785    2.7593 H   0  0  0  0  0  0  0  0  0  0  0  0
  1  9  1  0  0  0  0
  1 11  1  0  0  0  0
  2  1  1  0  0  0  0
  2  7  1  1  0  0  0
  3 14  1  0  0  0  0
  3  4  1  0  0  0  0
  3  2  1  0  0  0  0
  4  6  1  0  0  0  0
  5  4  2  0  0  0  0
  6  7  1  0  0  0  0
  7 15  1  1  0  0  0
  7  8  1  0  0  0  0
  8 17  1  0  0  0  0
  8 18  1  0  0  0  0
 10  1  1  0  0  0  0
 12  2  1  0  0  0  0
 13  3  1  0  0  0  0
 16  8  1  0  0  0  0
M  END
