title
 OpenBabel02282109583D

 17 17  0  0  1  0  0  0  0  0999 V2000
   -1.2494    2.1082   -0.0276 C   0  0  0  0  0  0  0  0  0  0  0  0
   -1.0580    0.5979   -0.0425 C   0  0  1  0  0  0  0  0  0  0  0  0
   -0.1864    0.1370   -1.1206 N   0  0  0  0  0  0  0  0  0  0  0  0
    0.5220   -1.0048   -0.8326 C   0  0  0  0  0  0  0  0  0  0  0  0
    1.1973   -1.6415   -1.6092 O   0  0  0  0  0  0  0  0  0  0  0  0
    0.2711   -1.2943    0.6531 C   0  0  0  0  0  0  0  0  0  0  0  0
   -0.3235    0.0128    1.1993 C   0  0  1  0  0  0  0  0  0  0  0  0
    0.6727    0.8831    1.7075 O   0  0  0  0  0  0  0  0  0  0  0  0
   -0.2940    2.6237    0.0878 H   0  0  0  0  0  0  0  0  0  0  0  0
   -1.7252    2.4498   -0.9527 H   0  0  0  0  0  0  0  0  0  0  0  0
   -1.8942    2.3970    0.8077 H   0  0  0  0  0  0  0  0  0  0  0  0
   -2.0455    0.1137   -0.1144 H   0  0  0  0  0  0  0  0  0  0  0  0
   -0.3043    0.4221   -2.0811 H   0  0  0  0  0  0  0  0  0  0  0  0
   -0.4453   -2.1215    0.7179 H   0  0  0  0  0  0  0  0  0  0  0  0
    1.1820   -1.5982    1.1714 H   0  0  0  0  0  0  0  0  0  0  0  0
   -1.0197   -0.1409    2.0265 H   0  0  0  0  0  0  0  0  0  0  0  0
    1.3536    0.9876    1.0326 H   0  0  0  0  0  0  0  0  0  0  0  0
  1  9  1  0  0  0  0
  1 11  1  0  0  0  0
  2  1  1  0  0  0  0
  2  7  1  1  0  0  0
  3  4  1  0  0  0  0
  3  2  1  0  0  0  0
  4  6  1  0  0  0  0
  5  4  2  0  0  0  0
  6 14  1  0  0  0  0
  6 15  1  0  0  0  0
  6  7  1  0  0  0  0
  7  8  1  0  0  0  0
  7 16  1  1  0  0  0
 10  1  1  0  0  0  0
 12  2  1  0  0  0  0
 13  3  1  0  0  0  0
 17  8  1  0  0  0  0
M  END
