18
title
C -1.5478468 1.9229947 -0.17172036
C -1.0994691 0.4672365 -0.18484081
N -0.022724902 0.20519798 -1.1357583
C 0.7375626 -0.88680583 -0.72916013
O 1.5651426 -1.4810754 -1.3822768
N 0.35562405 -1.1576694 0.5806129
C -0.4592729 -0.07490773 1.1289954
C 0.36869094 0.94359 1.9202405
H -0.710939 2.5987895 0.019623306
H -1.9863403 2.194068 -1.1375632
H -2.314277 2.0843108 0.5933957
H -1.9722928 -0.16744578 -0.40743253
H -0.18370369 0.29293543 -2.127406
H 1.0369751 -1.6275328 1.1572895
H -1.2447984 -0.48119128 1.7753297
H 1.1309247 1.4080261 1.2878867
H -0.26343617 1.7305338 2.3426085
H 0.8753366 0.4452894 2.7534022
