title
 OpenBabel02282109583D

 17 17  0  0  1  0  0  0  0  0999 V2000
   -1.0592    1.8983   -0.3126 C   0  0  0  0  0  0  0  0  0  0  0  0
   -1.1825    0.3987   -0.0272 C   0  0  1  0  0  0  0  0  0  0  0  0
   -0.6412   -0.4289   -1.0978 N   0  0  0  0  0  0  0  0  0  0  0  0
    0.6668   -0.7905   -0.8356 C   0  0  0  0  0  0  0  0  0  0  0  0
    1.4784   -1.2379   -1.5964 O   0  0  0  0  0  0  0  0  0  0  0  0
    0.9098   -0.5622    0.4905 O   0  0  0  0  0  0  0  0  0  0  0  0
   -0.3099   -0.1453    1.1363 C   0  0  1  0  0  0  0  0  0  0  0  0
    0.0149    0.8003    2.2756 C   0  0  0  0  0  0  0  0  0  0  0  0
   -0.0148    2.1897   -0.4596 H   0  0  0  0  0  0  0  0  0  0  0  0
   -1.6127    2.1535   -1.2222 H   0  0  0  0  0  0  0  0  0  0  0  0
   -1.4756    2.4931    0.5058 H   0  0  0  0  0  0  0  0  0  0  0  0
   -2.2327    0.1481    0.1578 H   0  0  0  0  0  0  0  0  0  0  0  0
   -0.8749   -0.2577   -2.0635 H   0  0  0  0  0  0  0  0  0  0  0  0
   -0.7923   -1.0492    1.5312 H   0  0  0  0  0  0  0  0  0  0  0  0
    0.5303    1.6951    1.9189 H   0  0  0  0  0  0  0  0  0  0  0  0
   -0.9022    1.1037    2.7905 H   0  0  0  0  0  0  0  0  0  0  0  0
    0.6617    0.2988    2.9998 H   0  0  0  0  0  0  0  0  0  0  0  0
  1  2  1  0  0  0  0
  1 11  1  0  0  0  0
  2 12  1  0  0  0  0
  2  7  1  1  0  0  0
  3  4  1  0  0  0  0
  3  2  1  0  0  0  0
  4  6  1  0  0  0  0
  5  4  2  0  0  0  0
  6  7  1  0  0  0  0
  7 14  1  1  0  0  0
  7  8  1  0  0  0  0
  8 16  1  0  0  0  0
  8 17  1  0  0  0  0
  9  1  1  0  0  0  0
 10  1  1  0  0  0  0
 13  3  1  0  0  0  0
 15  8  1  0  0  0  0
M  END
