16
title
C -0.42928317 2.0633545 -0.3444209
C -0.9247074 0.6795578 0.0526248
O -0.7757095 -0.2404485 -1.05205
C 0.30337435 -1.055229 -0.89025563
O 0.62642294 -1.8602978 -1.7127689
C 0.9553254 -0.753502 0.45407346
C -0.13460214 0.016181141 1.2068982
O 0.3145494 1.0072342 2.1064324
H 0.63929504 2.0550888 -0.5776
H -0.9728644 2.4064753 -1.2282385
H -0.5933167 2.7686148 0.47295895
H -1.9940215 0.7164996 0.27629784
H 1.2931426 -1.6749696 0.9303118
H 1.8284428 -0.1123921 0.28899536
H -0.79811454 -0.69803655 1.715664
H 0.7137105 0.5707605 2.8648796
