16
title
C -1.0578911 1.8799413 -0.33522186
C -1.1446024 0.3953432 -0.008965118
O -0.6191188 -0.3686937 -1.1124651
C 0.63259715 -0.8042252 -0.8149059
O 1.3711594 -1.3274487 -1.5862726
O 0.9182655 -0.55388504 0.4881749
C -0.27459228 -0.1127711 1.163347
C 0.08447044 0.86841655 2.2615144
H -0.019461578 2.1986861 -0.46407798
H -1.5939945 2.0789297 -1.2663472
H -1.5121372 2.4799309 0.4586605
H -2.1874409 0.09534537 0.121969506
H -0.7475191 -1.0013888 1.6012048
H 0.5985102 1.7456284 1.8624933
H -0.8189231 1.1966516 2.7848773
H 0.7416344 0.3860157 2.9891691
