title
 OpenBabel02282109583D

 16 16  0  0  1  0  0  0  0  0999 V2000
    0.7437    1.2996   -1.8082 O   0  0  0  0  0  0  0  0  0  0  0  0
    0.6444    0.1338   -1.0045 C   0  0  1  0  0  0  0  0  0  0  0  0
    1.1529    0.2750    0.4363 C   0  0  0  0  0  0  0  0  0  0  0  0
    0.2868   -0.7052    1.2426 C   0  0  0  0  0  0  0  0  0  0  0  0
    0.5088   -1.0829    2.3614 O   0  0  0  0  0  0  0  0  0  0  0  0
   -0.8945   -1.1345    0.3622 C   0  0  0  0  0  0  0  0  0  0  0  0
   -0.8587   -0.1870   -0.8338 C   0  0  1  0  0  0  0  0  0  0  0  0
   -1.5559    0.9922   -0.4728 O   0  0  0  0  0  0  0  0  0  0  0  0
    1.6388    1.6460   -1.7485 H   0  0  0  0  0  0  0  0  0  0  0  0
    1.1394   -0.7159   -1.4993 H   0  0  0  0  0  0  0  0  0  0  0  0
    2.2175    0.0781    0.5812 H   0  0  0  0  0  0  0  0  0  0  0  0
    0.9344    1.2850    0.8031 H   0  0  0  0  0  0  0  0  0  0  0  0
   -0.7293   -2.1751    0.0567 H   0  0  0  0  0  0  0  0  0  0  0  0
   -1.8407   -1.0927    0.9055 H   0  0  0  0  0  0  0  0  0  0  0  0
   -1.2791   -0.6282   -1.7478 H   0  0  0  0  0  0  0  0  0  0  0  0
   -1.2076    1.6904   -1.0429 H   0  0  0  0  0  0  0  0  0  0  0  0
  1  9  1  0  0  0  0
  1  2  1  0  0  0  0
  2  7  1  1  0  0  0
  2  3  1  0  0  0  0
  3 11  1  0  0  0  0
  3 12  1  0  0  0  0
  3  4  1  0  0  0  0
  4  5  2  0  0  0  0
  6 14  1  0  0  0  0
  6  4  1  0  0  0  0
  7 15  1  6  0  0  0
  7  8  1  0  0  0  0
  7  6  1  0  0  0  0
 10  2  1  0  0  0  0
 13  6  1  0  0  0  0
 16  8  1  0  0  0  0
M  END
