20
title
C -0.3718361 2.4280794 0.28202093
C -0.31378406 0.9362509 0.17022471
C -0.30307722 0.17845653 -0.9382438
C -0.34623963 0.6153481 -2.369566
C -0.29790807 -1.2975966 -0.58675396
C 0.12370529 -1.314144 0.8995973
O 1.5272568 -1.5020303 1.0416
C -0.31727126 0.07295374 1.4180273
H 0.47603637 2.8132656 0.8631778
H -0.36619315 2.9259677 -0.6906051
H -1.2778317 2.7460244 0.81488043
H -0.3487678 1.702376 -2.4804254
H 0.51255476 0.22120295 -2.9282422
H -1.2423278 0.22626357 -2.8710606
H -1.2973033 -1.7345539 -0.7301654
H 0.39535975 -1.8947388 -1.1909522
H -0.32684582 -2.1378744 1.4583815
H 1.9573631 -0.7876202 0.55735433
H 0.36257887 0.4253658 2.2027974
H -1.3223611 0.0389534 1.864041
