16
title
C -0.3331095 2.8966432 0.043186627
C -0.22153981 1.4109819 -0.032468505
C -0.27701208 0.6492203 -1.1419252
C -0.08480908 -0.76197624 -0.78870875
O 0.1705728 -1.7141383 -1.495853
C -0.1886039 -0.8650682 0.7426028
O 0.7416471 -1.7800958 1.2623546
C 0.0093761515 0.5821261 1.2174295
H 0.5664709 3.3288233 0.49867442
H -0.4780159 3.349499 -0.9401585
H -1.1727517 3.1847591 0.688213
H -0.38018116 1.0044366 -2.159682
H -1.2223548 -1.1800418 0.9715503
H 0.88455206 -2.4270818 0.5555193
H 1.0369737 0.71022344 1.579227
H -0.6574869 0.876701 2.0347347
