17
title
C -0.16953558 2.4346974 -0.0034729696
N -0.12502082 0.9954622 -0.0023084886
C -1.288062 0.14413184 -0.020772167
C -0.7022281 -1.2514293 -0.01084182
C -1.5673685 -2.467676 -0.024627944
C 0.63130087 -1.1606944 0.010602419
C 1.051454 0.2679931 0.016866164
O 2.1741495 0.7341001 0.03478522
H 0.86346596 2.7883208 0.013806009
H -0.6659049 2.8250492 -0.9015244
H -0.6958668 2.8254812 0.877148
H -1.9382074 0.313398 0.852364
H -1.9096758 0.31271368 -0.91459125
H -2.2067325 -2.4890134 -0.91584575
H -0.9686252 -3.3813162 -0.01262205
H -2.2384455 -2.4865453 0.8429939
H 1.3499855 -1.9682233 0.022474756
