16
title
C -0.19371814 2.4312577 0.018113704
N -0.13462779 0.99457365 0.018107036
C -1.2880943 0.1358393 0.04441512
C -0.67738825 -1.2499771 0.0027460067
N -1.488935 -2.3538651 0.0799986
C 0.6647283 -1.1532166 -0.03645074
C 1.0534718 0.2707987 -0.030452242
O 2.164424 0.7648817 -0.06529269
H 0.8367476 2.7918224 -0.009725476
H -0.73069876 2.8205423 -0.857954
H -0.68342566 2.8215759 0.9205817
H -1.8944439 0.27162245 0.9533756
H -1.9545771 0.30532387 -0.8175229
H -2.4319334 -2.2523465 -0.2632143
H -1.0707667 -3.2384896 -0.16469587
H 1.3908855 -1.9515507 -0.068376444
