title
 OpenBabel02282109583D

 16 16  0  0  0  0  0  0  0  0999 V2000
   -0.1937    2.4313    0.0181 C   0  0  0  0  0  0  0  0  0  0  0  0
   -0.1346    0.9946    0.0181 N   0  0  0  0  0  0  0  0  0  0  0  0
   -1.2881    0.1358    0.0444 C   0  0  0  0  0  0  0  0  0  0  0  0
   -0.6774   -1.2500    0.0027 C   0  0  0  0  0  0  0  0  0  0  0  0
   -1.4889   -2.3539    0.0800 N   0  0  0  0  0  0  0  0  0  0  0  0
    0.6647   -1.1532   -0.0365 C   0  0  0  0  0  0  0  0  0  0  0  0
    1.0535    0.2708   -0.0305 C   0  0  0  0  0  0  0  0  0  0  0  0
    2.1644    0.7649   -0.0653 O   0  0  0  0  0  0  0  0  0  0  0  0
    0.8367    2.7918   -0.0097 H   0  0  0  0  0  0  0  0  0  0  0  0
   -0.7307    2.8205   -0.8580 H   0  0  0  0  0  0  0  0  0  0  0  0
   -0.6834    2.8216    0.9206 H   0  0  0  0  0  0  0  0  0  0  0  0
   -1.8944    0.2716    0.9534 H   0  0  0  0  0  0  0  0  0  0  0  0
   -1.9546    0.3053   -0.8175 H   0  0  0  0  0  0  0  0  0  0  0  0
   -2.4319   -2.2523   -0.2632 H   0  0  0  0  0  0  0  0  0  0  0  0
   -1.0708   -3.2385   -0.1647 H   0  0  0  0  0  0  0  0  0  0  0  0
    1.3909   -1.9516   -0.0684 H   0  0  0  0  0  0  0  0  0  0  0  0
  1 11  1  0  0  0  0
  2  1  1  0  0  0  0
  2  3  1  0  0  0  0
  3 12  1  0  0  0  0
  4  3  1  0  0  0  0
  4  5  1  0  0  0  0
  6  7  1  0  0  0  0
  6  4  2  0  0  0  0
  7  2  1  0  0  0  0
  8  7  2  0  0  0  0
  9  1  1  0  0  0  0
 10  1  1  0  0  0  0
 13  3  1  0  0  0  0
 14  5  1  0  0  0  0
 15  5  1  0  0  0  0
 16  6  1  0  0  0  0
M  END
