title
 OpenBabel02282109583D

 15 15  0  0  1  0  0  0  0  0999 V2000
    0.0512    2.7403    0.3761 N   0  0  0  0  0  0  0  0  0  0  0  0
   -0.0387    1.3996    0.2279 C   0  0  0  0  0  0  0  0  0  0  0  0
   -1.1640    0.6296    0.2323 C   0  0  0  0  0  0  0  0  0  0  0  0
   -0.7968   -0.7574    0.0571 C   0  0  0  0  0  0  0  0  0  0  0  0
   -1.4772   -1.7341   -0.2052 O   0  0  0  0  0  0  0  0  0  0  0  0
    0.7362   -0.8628    0.1997 C   0  0  1  0  0  0  0  0  0  0  0  0
    1.2690   -1.7577   -0.7440 O   0  0  0  0  0  0  0  0  0  0  0  0
    1.2229    0.5837    0.0326 C   0  0  0  0  0  0  0  0  0  0  0  0
    0.9168    3.2112    0.1767 H   0  0  0  0  0  0  0  0  0  0  0  0
   -0.7798    3.3077    0.3839 H   0  0  0  0  0  0  0  0  0  0  0  0
   -2.1836    0.9883    0.2845 H   0  0  0  0  0  0  0  0  0  0  0  0
    0.9502   -1.2042    1.2269 H   0  0  0  0  0  0  0  0  0  0  0  0
    0.5478   -2.3824   -0.9187 H   0  0  0  0  0  0  0  0  0  0  0  0
    1.6135    0.7199   -0.9826 H   0  0  0  0  0  0  0  0  0  0  0  0
    2.0097    0.8756    0.7362 H   0  0  0  0  0  0  0  0  0  0  0  0
  1 10  1  0  0  0  0
  2  3  2  0  0  0  0
  2  1  1  0  0  0  0
  3 11  1  0  0  0  0
  4  6  1  0  0  0  0
  4  3  1  0  0  0  0
  5  4  2  0  0  0  0
  6 12  1  1  0  0  0
  7  6  1  0  0  0  0
  8  6  1  0  0  0  0
  8  2  1  0  0  0  0
  8 15  1  0  0  0  0
  9  1  1  0  0  0  0
 13  7  1  0  0  0  0
 14  8  1  0  0  0  0
M  END
