15
title
N 0.051163413 2.7402985 0.37611228
C -0.0387003 1.3995717 0.22793141
C -1.1640099 0.6295798 0.23234306
C -0.7967822 -0.7574085 0.057067137
O -1.4771838 -1.7341131 -0.20516625
C 0.7361811 -0.8628017 0.19967405
O 1.2689974 -1.7577118 -0.7439969
C 1.2229351 0.58365947 0.032575082
H 0.9167771 3.211226 0.17668049
H -0.77982503 3.3076925 0.38385808
H -2.183621 0.9882593 0.2845221
H 0.9501828 -1.204244 1.2269142
H 0.5478382 -2.382385 -0.9187448
H 1.6134776 0.7199449 -0.9825909
H 2.009659 0.8755944 0.7362274
