title
 OpenBabel02282109583D

 18 18  0  0  1  0  0  0  0  0999 V2000
   -0.6570    2.8305    0.0431 C   0  0  0  0  0  0  0  0  0  0  0  0
   -0.4488    1.3506   -0.0062 C   0  0  0  0  0  0  0  0  0  0  0  0
   -0.7366    0.5319   -1.0268 C   0  0  0  0  0  0  0  0  0  0  0  0
   -0.3418   -0.8884   -0.7436 C   0  0  1  0  0  0  0  0  0  0  0  0
    0.8730   -1.2735   -1.4181 O   0  0  0  0  0  0  0  0  0  0  0  0
   -0.1312   -0.8949    0.8018 C   0  0  1  0  0  0  0  0  0  0  0  0
    0.8635   -1.8027    1.2022 O   0  0  0  0  0  0  0  0  0  0  0  0
    0.1455    0.5896    1.1601 C   0  0  0  0  0  0  0  0  0  0  0  0
    0.2882    3.3535    0.2358 H   0  0  0  0  0  0  0  0  0  0  0  0
   -1.0788    3.2148   -0.8895 H   0  0  0  0  0  0  0  0  0  0  0  0
   -1.3319    3.1024    0.8644 H   0  0  0  0  0  0  0  0  0  0  0  0
   -1.1525    0.8448   -1.9789 H   0  0  0  0  0  0  0  0  0  0  0  0
   -1.0760   -1.6358   -1.0575 H   0  0  0  0  0  0  0  0  0  0  0  0
    1.4067   -0.4762   -1.5136 H   0  0  0  0  0  0  0  0  0  0  0  0
   -1.0751   -1.1938    1.2743 H   0  0  0  0  0  0  0  0  0  0  0  0
    1.3852   -1.9689    0.4019 H   0  0  0  0  0  0  0  0  0  0  0  0
    1.2250    0.7707    1.2497 H   0  0  0  0  0  0  0  0  0  0  0  0
   -0.2957    0.8793    2.1206 H   0  0  0  0  0  0  0  0  0  0  0  0
  1  9  1  0  0  0  0
  1 11  1  0  0  0  0
  2  1  1  0  0  0  0
  2  8  1  0  0  0  0
  3  4  1  0  0  0  0
  3  2  2  0  0  0  0
  4  6  1  1  0  0  0
  5  4  1  0  0  0  0
  6  8  1  0  0  0  0
  6  7  1  0  0  0  0
  6 15  1  1  0  0  0
  8 17  1  0  0  0  0
  8 18  1  0  0  0  0
 10  1  1  0  0  0  0
 12  3  1  0  0  0  0
 13  4  1  0  0  0  0
 14  5  1  0  0  0  0
 16  7  1  0  0  0  0
M  END
