20
title
C -1.2997848 2.126747 0.028196793
C -1.1007609 0.6105296 -0.029527904
C -0.27641958 0.097423434 -1.1929433
C 0.494339 -0.94226176 -0.8577729
C 1.3939688 -1.7393203 -1.7481474
C 0.30339384 -1.2825128 0.60967743
C -0.34014344 -0.0003053844 1.1864495
O 0.648615 0.8797441 1.705134
H -0.3448261 2.654705 0.090096004
H -1.8271232 2.4796863 -0.8642362
H -1.8906858 2.4125447 0.90402436
H -2.0970192 0.14111355 -0.070416644
H -0.34986126 0.5165481 -2.1920629
H 1.4028482 -1.3487928 -2.769561
H 2.4253988 -1.7422235 -1.3728691
H 1.0792255 -2.7902532 -1.7895324
H -0.36070067 -2.1522818 0.7200043
H 1.2331793 -1.5244718 1.1372684
H -1.0061979 -0.2007148 2.029904
H 1.2762132 1.0519627 0.9932717
