22
title
C -1.2085705 2.1998837 -0.17224379
C -0.99762833 0.6883557 -0.10203565
C -0.16162004 0.09690578 -1.2640023
C 0.46022633 -1.144676 -0.6575972
C 1.1258024 -2.18672 -1.4996661
C 0.34723523 -1.124428 0.672455
C -0.3176715 0.13155271 1.192047
C 0.7062765 1.0697371 1.8575522
H -0.25870803 2.744192 -0.15040752
H -1.7234373 2.4752476 -1.0991876
H -1.8197756 2.5608814 0.6623021
H -1.9826257 0.20757167 -0.15242636
H -0.77497387 -0.120204434 -2.1476521
H 0.62044626 0.7940448 -1.603201
H 1.9448546 -1.7550977 -2.08994
H 1.5373892 -2.997174 -0.8915688
H 0.42358688 -2.6239586 -2.2213333
H 0.74747735 -1.8852769 1.3365296
H -1.084834 -0.10092716 1.9427587
H 1.4910434 1.3683794 1.1544361
H 0.23202042 1.9768245 2.2458491
H 1.1950601 0.56545025 2.6979656
