title
 OpenBabel02282109583D

 20 20  0  0  1  0  0  0  0  0999 V2000
   -2.0070    1.4679   -0.0705 C   0  0  0  0  0  0  0  0  0  0  0  0
   -1.1989    0.1794   -0.1970 C   0  0  1  0  0  0  0  0  0  0  0  0
   -0.1071    0.1891   -1.2958 C   0  0  0  0  0  0  0  0  0  0  0  0
    0.9903   -0.6870   -0.7265 C   0  0  0  0  0  0  0  0  0  0  0  0
    2.1459   -1.1392   -1.5621 C   0  0  0  0  0  0  0  0  0  0  0  0
    0.7721   -0.9535    0.5657 C   0  0  0  0  0  0  0  0  0  0  0  0
   -0.4465   -0.2468    1.1023 C   0  0  1  0  0  0  0  0  0  0  0  0
   -0.0878    0.8379    1.9659 O   0  0  0  0  0  0  0  0  0  0  0  0
   -1.3649    2.3102    0.2029 H   0  0  0  0  0  0  0  0  0  0  0  0
   -2.5062    1.7102   -1.0147 H   0  0  0  0  0  0  0  0  0  0  0  0
   -2.7746    1.3804    0.7048 H   0  0  0  0  0  0  0  0  0  0  0  0
   -1.8836   -0.6448   -0.4328 H   0  0  0  0  0  0  0  0  0  0  0  0
   -0.4822   -0.1847   -2.2564 H   0  0  0  0  0  0  0  0  0  0  0  0
    0.2725    1.2023   -1.4972 H   0  0  0  0  0  0  0  0  0  0  0  0
    2.6870   -0.2820   -1.9832 H   0  0  0  0  0  0  0  0  0  0  0  0
    2.8542   -1.7403   -0.9859 H   0  0  0  0  0  0  0  0  0  0  0  0
    1.8042   -1.7371   -2.4165 H   0  0  0  0  0  0  0  0  0  0  0  0
    1.4307   -1.5345    1.2032 H   0  0  0  0  0  0  0  0  0  0  0  0
   -1.0813   -0.8815    1.7298 H   0  0  0  0  0  0  0  0  0  0  0  0
    0.6664    1.2824    1.5636 H   0  0  0  0  0  0  0  0  0  0  0  0
  1  9  1  0  0  0  0
  1 11  1  0  0  0  0
  2  1  1  0  0  0  0
  2  7  1  1  0  0  0
  3  4  1  0  0  0  0
  3  2  1  0  0  0  0
  4  6  2  0  0  0  0
  5 16  1  0  0  0  0
  5  4  1  0  0  0  0
  6  7  1  0  0  0  0
  6 18  1  0  0  0  0
  7 19  1  1  0  0  0
  7  8  1  0  0  0  0
 10  1  1  0  0  0  0
 12  2  1  0  0  0  0
 13  3  1  0  0  0  0
 14  3  1  0  0  0  0
 15  5  1  0  0  0  0
 17  5  1  0  0  0  0
 20  8  1  0  0  0  0
M  END
