title
 OpenBabel02282109583D

 18 18  0  0  1  0  0  0  0  0999 V2000
   -0.3816    2.3127    0.1607 C   0  0  0  0  0  0  0  0  0  0  0  0
   -1.1255    0.9973   -0.0658 C   0  0  1  0  0  0  0  0  0  0  0  0
   -0.6720    0.2462   -1.3236 C   0  0  0  0  0  0  0  0  0  0  0  0
    0.3420   -0.7581   -0.7849 C   0  0  0  0  0  0  0  0  0  0  0  0
    1.1894   -1.3470   -1.4024 O   0  0  0  0  0  0  0  0  0  0  0  0
    0.0857   -0.8807    0.7207 C   0  0  1  0  0  0  0  0  0  0  0  0
    1.3616   -0.7197    1.5469 C   0  0  0  0  0  0  0  0  0  0  0  0
   -0.9079    0.0852    1.0313 O   0  0  0  0  0  0  0  0  0  0  0  0
    0.7038    2.1728    0.1106 H   0  0  0  0  0  0  0  0  0  0  0  0
   -0.6628    3.0491   -0.6000 H   0  0  0  0  0  0  0  0  0  0  0  0
   -0.6298    2.7183    1.1450 H   0  0  0  0  0  0  0  0  0  0  0  0
   -2.2024    1.1934   -0.0796 H   0  0  0  0  0  0  0  0  0  0  0  0
   -1.4965   -0.3216   -1.7712 H   0  0  0  0  0  0  0  0  0  0  0  0
   -0.2348    0.8739   -2.1023 H   0  0  0  0  0  0  0  0  0  0  0  0
   -0.3359   -1.8798    0.9093 H   0  0  0  0  0  0  0  0  0  0  0  0
    1.8157    0.2622    1.3861 H   0  0  0  0  0  0  0  0  0  0  0  0
    1.1375   -0.8258    2.6112 H   0  0  0  0  0  0  0  0  0  0  0  0
    2.0831   -1.4877    1.2543 H   0  0  0  0  0  0  0  0  0  0  0  0
  1 11  1  0  0  0  0
  2 12  1  6  0  0  0
  2  1  1  0  0  0  0
  2  8  1  0  0  0  0
  3  4  1  0  0  0  0
  3  2  1  0  0  0  0
  4  6  1  0  0  0  0
  5  4  2  0  0  0  0
  6 15  1  1  0  0  0
  6  8  1  0  0  0  0
  6  7  1  0  0  0  0
  7 17  1  0  0  0  0
  9  1  1  0  0  0  0
 10  1  1  0  0  0  0
 13  3  1  0  0  0  0
 14  3  1  0  0  0  0
 16  7  1  0  0  0  0
 18  7  1  0  0  0  0
M  END
