19
title
C -0.3383472 2.3686492 -0.04070212
C -1.0445805 1.0267804 -0.19555084
C -0.5639292 0.16974092 -1.3883384
C 0.37745178 -0.87845343 -0.760102
C 1.8765521 -0.623864 -0.9789588
C 0.018964104 -0.83203775 0.71567726
N 0.43437457 -1.6514065 1.58336
O -0.8072713 0.21901381 0.97828823
H 0.74832857 2.2424922 -0.008637621
H -0.5834023 3.0238917 -0.8829598
H -0.65329576 2.861856 0.8829573
H -2.1261528 1.1910522 -0.23495446
H -1.4171628 -0.31727988 -1.8674166
H -0.066139884 0.7799317 -2.146235
H 0.14772618 -1.8811283 -1.1298211
H 2.1726036 0.37084442 -0.6298416
H 2.463281 -1.3620639 -0.4271186
H 2.1277125 -0.6970584 -2.0417478
H 0.077699654 -1.4070525 2.5086644
