20
title
C -1.258888 2.5937343 -0.020944698
C -1.0622072 1.0805305 -0.0713867
C -0.09839883 0.6004546 -1.1810611
C 0.25989816 -0.8422266 -0.7908318
C 1.5445784 -1.430817 -1.36804
C 0.2430912 -0.8149431 0.7468297
O 0.7182627 -1.6587464 1.4634907
C -0.45863083 0.46657428 1.2049302
H -0.3065023 3.105075 0.16211504
H -1.6642091 2.9717624 -0.9656703
H -1.9505752 2.881871 0.7775457
H -2.038087 0.60721064 -0.24863815
H -0.5350493 0.6822967 -2.180664
H 0.80909693 1.220784 -1.1722381
H -0.58468175 -1.4945158 -1.0664856
H 2.3987224 -0.7750863 -1.1669261
H 1.7526318 -2.4003468 -0.90786237
H 1.4704822 -1.5651535 -2.4512367
H 0.31484756 1.1273032 1.6227016
H -1.1703103 0.2661921 2.0100055
