title
 OpenBabel02282109583D

 18 18  0  0  1  0  0  0  0  0999 V2000
   -1.5416    2.2571   -0.0072 C   0  0  0  0  0  0  0  0  0  0  0  0
   -1.2234    0.7899   -0.2246 C   0  0  1  0  0  0  0  0  0  0  0  0
   -0.1628    0.4849   -1.2937 C   0  0  0  0  0  0  0  0  0  0  0  0
    0.4751   -0.8088   -0.7753 C   0  0  1  0  0  0  0  0  0  0  0  0
    1.9234   -1.0832   -1.1700 C   0  0  0  0  0  0  0  0  0  0  0  0
    0.2913   -0.6755    0.7384 C   0  0  0  0  0  0  0  0  0  0  0  0
    0.8753   -1.2600    1.6053 O   0  0  0  0  0  0  0  0  0  0  0  0
   -0.6777    0.2409    0.9996 O   0  0  0  0  0  0  0  0  0  0  0  0
   -0.6339    2.8132    0.2457 H   0  0  0  0  0  0  0  0  0  0  0  0
   -1.9703    2.6859   -0.9187 H   0  0  0  0  0  0  0  0  0  0  0  0
   -2.2622    2.3831    0.8050 H   0  0  0  0  0  0  0  0  0  0  0  0
   -2.1472    0.2359   -0.4410 H   0  0  0  0  0  0  0  0  0  0  0  0
   -0.5953    0.3990   -2.2931 H   0  0  0  0  0  0  0  0  0  0  0  0
    0.5832    1.2887   -1.3157 H   0  0  0  0  0  0  0  0  0  0  0  0
   -0.1474   -1.6652   -1.0733 H   0  0  0  0  0  0  0  0  0  0  0  0
    2.5628   -0.2281   -0.9280 H   0  0  0  0  0  0  0  0  0  0  0  0
    2.3028   -1.9497   -0.6230 H   0  0  0  0  0  0  0  0  0  0  0  0
    2.0084   -1.2793   -2.2427 H   0  0  0  0  0  0  0  0  0  0  0  0
  1  9  1  0  0  0  0
  1 11  1  0  0  0  0
  2 12  1  6  0  0  0
  2  1  1  0  0  0  0
  2  8  1  0  0  0  0
  3  4  1  0  0  0  0
  3  2  1  0  0  0  0
  4 15  1  6  0  0  0
  4  6  1  0  0  0  0
  5 16  1  0  0  0  0
  5  4  1  0  0  0  0
  5 17  1  0  0  0  0
  6  8  1  0  0  0  0
  6  7  2  0  0  0  0
 10  1  1  0  0  0  0
 13  3  1  0  0  0  0
 14  3  1  0  0  0  0
 18  5  1  0  0  0  0
M  END
