17
title
C -1.4194937 2.3384109 0.106973976
C -1.1895735 0.8608523 -0.14591093
C -0.1962597 0.5177624 -1.2661004
C 0.37625447 -0.8217203 -0.8010832
N 1.6891043 -1.1528304 -1.328304
C 0.28773978 -0.6894006 0.72898036
O 0.91375405 -1.3007495 1.5477115
O -0.6213886 0.26426098 1.0509602
H -0.4736475 2.8424625 0.32715026
H -1.8645558 2.8039575 -0.7780953
H -2.0960555 2.4872785 0.9524643
H -2.1495101 0.35920897 -0.32784623
H -0.66744834 0.47971347 -2.2496407
H 0.602032 1.2699119 -1.3002484
H -0.31369165 -1.6310887 -1.0804249
H 2.3502045 -0.4279925 -1.0575151
H 2.016157 -1.9975822 -0.864574
