17
title
C -1.1637386 2.4821131 0.034522124
C -1.0745658 0.9954341 -0.24994384
C 0.010335219 0.5626013 -1.2467903
C 0.33409297 -0.8543307 -0.7639596
O 1.6195663 -1.308795 -1.082969
C 0.123884454 -0.71172994 0.73246497
N 0.72256434 -1.4392867 1.5731122
O -0.73185736 0.3031577 0.98954904
H -0.19950555 2.8659394 0.38049874
H -1.4454824 3.0197103 -0.8762695
H -1.9156411 2.6873972 0.8012388
H -2.0552073 0.6147895 -0.564712
H -0.32877952 0.6119005 -2.2830153
H 0.9046068 1.1857096 -1.138363
H -0.43247986 -1.5523872 -1.145513
H 1.9355513 -1.7636936 -0.28759754
H 0.49721277 -1.1882067 2.535312
