18
title
C -1.2730443 2.5867379 0.037062615
C -1.1088432 1.0686091 0.049483266
C -0.32950044 0.5061174 -1.1656973
C 0.048370853 -0.9086523 -0.7155934
O 1.0744308 -1.5329108 -1.4331629
C 0.41701925 -0.6956433 0.75267404
O 1.2500628 -1.358454 1.3216428
C -0.33389312 0.5232362 1.2745044
H -0.29716235 3.0856822 0.045984067
H -1.8088033 2.9186494 -0.8583954
H -1.834582 2.934604 0.91037166
H -2.1073291 0.61197877 0.045651287
H -0.9120022 0.525459 -2.0896788
H 0.5897573 1.0816005 -1.3338678
H -0.86999226 -1.5289965 -0.7190976
H 1.6349427 -1.9586694 -0.7666652
H 0.41358638 1.2432983 1.6313902
H -0.9616916 0.27309948 2.134755
