17
title
C -1.3195592 2.4497466 -0.019254195
C -1.2217906 0.9276482 -0.027046066
C -0.46420506 0.34209237 -1.2446234
C 0.16517891 -0.9431393 -0.7000218
O 1.358158 -1.3206279 -1.3342346
C 0.41058078 -0.6015941 0.77504957
O 1.2355615 -1.1501908 1.4791694
N -0.43234673 0.41327918 1.0942346
H -0.32328996 2.9019513 -0.04575311
H -1.880453 2.7951243 -0.8931643
H -1.8403991 2.8120172 0.8736072
H -2.2386506 0.5087366 0.011096305
H -1.1184021 0.18870582 -2.1048543
H 0.34510854 1.0190883 -1.5386741
H -0.5719985 -1.765748 -0.7260711
H 1.919973 -1.6729126 -0.6273198
H -0.49899778 0.7734123 2.0336466
