16
title
C -1.3184896 2.4041767 0.02233995
C -1.1902783 0.894204 -0.019717986
C -0.48347446 0.31486243 -1.2575895
C 0.13360456 -0.96334046 -0.6955582
O 1.2881715 -1.4044173 -1.354259
C 0.43156222 -0.55318135 0.7464658
O 1.2750936 -1.0366858 1.4503769
O -0.37327382 0.463209 1.1102794
H -0.33519635 2.8758361 -0.06248274
H -1.9417645 2.7462945 -0.80977076
H -1.781652 2.7300737 0.957191
H -2.175781 0.4289698 0.109337166
H -1.1689901 0.15346652 -2.091234
H 0.32128432 0.98074126 -1.5870281
H -0.630892 -1.7602394 -0.65391934
H 1.8736377 -1.7458091 -0.66287076
