title
 OpenBabel02282109583D

 16 16  0  0  1  0  0  0  0  0999 V2000
   -1.3185    2.4042    0.0223 C   0  0  0  0  0  0  0  0  0  0  0  0
   -1.1903    0.8942   -0.0197 C   0  0  1  0  0  0  0  0  0  0  0  0
   -0.4835    0.3149   -1.2576 C   0  0  0  0  0  0  0  0  0  0  0  0
    0.1336   -0.9633   -0.6956 C   0  0  1  0  0  0  0  0  0  0  0  0
    1.2882   -1.4044   -1.3543 O   0  0  0  0  0  0  0  0  0  0  0  0
    0.4316   -0.5532    0.7465 C   0  0  0  0  0  0  0  0  0  0  0  0
    1.2751   -1.0367    1.4504 O   0  0  0  0  0  0  0  0  0  0  0  0
   -0.3733    0.4632    1.1103 O   0  0  0  0  0  0  0  0  0  0  0  0
   -0.3352    2.8758   -0.0625 H   0  0  0  0  0  0  0  0  0  0  0  0
   -1.9418    2.7463   -0.8098 H   0  0  0  0  0  0  0  0  0  0  0  0
   -1.7817    2.7301    0.9572 H   0  0  0  0  0  0  0  0  0  0  0  0
   -2.1758    0.4290    0.1093 H   0  0  0  0  0  0  0  0  0  0  0  0
   -1.1690    0.1535   -2.0912 H   0  0  0  0  0  0  0  0  0  0  0  0
    0.3213    0.9807   -1.5870 H   0  0  0  0  0  0  0  0  0  0  0  0
   -0.6309   -1.7602   -0.6539 H   0  0  0  0  0  0  0  0  0  0  0  0
    1.8736   -1.7458   -0.6629 H   0  0  0  0  0  0  0  0  0  0  0  0
  1 11  1  0  0  0  0
  2  1  1  0  0  0  0
  2 12  1  1  0  0  0
  2  8  1  0  0  0  0
  3  4  1  0  0  0  0
  3  2  1  0  0  0  0
  4 15  1  6  0  0  0
  4  6  1  0  0  0  0
  5  4  1  0  0  0  0
  5 16  1  0  0  0  0
  6  8  1  0  0  0  0
  6  7  2  0  0  0  0
  9  1  1  0  0  0  0
 10  1  1  0  0  0  0
 13  3  1  0  0  0  0
 14  3  1  0  0  0  0
M  END
