18
title
C -1.3126374 2.1509345 -0.06214426
C -0.99707764 0.6571548 -0.08391366
C -0.2122898 0.12320845 -1.2921696
C 0.4251233 -1.183291 -0.7954476
O 1.4954405 -1.536271 -1.652595
C 0.83757204 -0.8606651 0.6515522
C -0.16825227 0.19194536 1.1258694
O -0.29056266 0.5991611 2.2523124
H -0.4013832 2.7435164 -0.1960606
H -2.0109491 2.4209511 -0.8596285
H -1.754232 2.426766 0.89885765
H -1.942286 0.095984325 -0.0031122265
H -0.82403904 -0.02450384 -2.1850758
H 0.59735304 0.815671 -1.5552787
H -0.33915755 -1.9772993 -0.7893709
H 1.846411 -2.3846512 -1.3644685
H 0.8844941 -1.7122775 1.3351678
H 1.8303022 -0.390764 0.6368094
