title
 OpenBabel02282109583D

 18 18  0  0  1  0  0  0  0  0999 V2000
   -1.3126    2.1509   -0.0621 C   0  0  0  0  0  0  0  0  0  0  0  0
   -0.9971    0.6572   -0.0839 C   0  0  1  0  0  0  0  0  0  0  0  0
   -0.2123    0.1232   -1.2922 C   0  0  0  0  0  0  0  0  0  0  0  0
    0.4251   -1.1833   -0.7954 C   0  0  1  0  0  0  0  0  0  0  0  0
    1.4954   -1.5363   -1.6526 O   0  0  0  0  0  0  0  0  0  0  0  0
    0.8376   -0.8607    0.6516 C   0  0  0  0  0  0  0  0  0  0  0  0
   -0.1683    0.1919    1.1259 C   0  0  0  0  0  0  0  0  0  0  0  0
   -0.2906    0.5992    2.2523 O   0  0  0  0  0  0  0  0  0  0  0  0
   -0.4014    2.7435   -0.1961 H   0  0  0  0  0  0  0  0  0  0  0  0
   -2.0109    2.4210   -0.8596 H   0  0  0  0  0  0  0  0  0  0  0  0
   -1.7542    2.4268    0.8989 H   0  0  0  0  0  0  0  0  0  0  0  0
   -1.9423    0.0960   -0.0031 H   0  0  0  0  0  0  0  0  0  0  0  0
   -0.8240   -0.0245   -2.1851 H   0  0  0  0  0  0  0  0  0  0  0  0
    0.5974    0.8157   -1.5553 H   0  0  0  0  0  0  0  0  0  0  0  0
   -0.3392   -1.9773   -0.7894 H   0  0  0  0  0  0  0  0  0  0  0  0
    1.8464   -2.3847   -1.3645 H   0  0  0  0  0  0  0  0  0  0  0  0
    0.8845   -1.7123    1.3352 H   0  0  0  0  0  0  0  0  0  0  0  0
    1.8303   -0.3908    0.6368 H   0  0  0  0  0  0  0  0  0  0  0  0
  1 11  1  0  0  0  0
  2  1  1  0  0  0  0
  2 12  1  1  0  0  0
  2  7  1  0  0  0  0
  3  4  1  0  0  0  0
  3  2  1  0  0  0  0
  4 15  1  1  0  0  0
  4  6  1  0  0  0  0
  5 16  1  0  0  0  0
  5  4  1  0  0  0  0
  6  7  1  0  0  0  0
  6 17  1  0  0  0  0
  7  8  2  0  0  0  0
  9  1  1  0  0  0  0
 10  1  1  0  0  0  0
 13  3  1  0  0  0  0
 14  3  1  0  0  0  0
 18  6  1  0  0  0  0
M  END
