title
 OpenBabel02282109583D

 19 19  0  0  1  0  0  0  0  0999 V2000
   -2.2925    1.7354    0.0234 C   0  0  0  0  0  0  0  0  0  0  0  0
   -1.4365    0.4721   -0.0057 C   0  0  1  0  0  0  0  0  0  0  0  0
   -0.4112    0.4365   -1.1634 C   0  0  0  0  0  0  0  0  0  0  0  0
    0.6597   -0.3959   -0.6498 N   0  0  0  0  0  0  0  0  0  0  0  0
    1.7517   -0.8584   -1.4717 C   0  0  0  0  0  0  0  0  0  0  0  0
    0.6607   -0.5203    0.7172 C   0  0  0  0  0  0  0  0  0  0  0  0
    1.4967   -1.1084    1.3722 O   0  0  0  0  0  0  0  0  0  0  0  0
   -0.5607    0.2389    1.2373 C   0  0  0  0  0  0  0  0  0  0  0  0
   -1.6709    2.6282    0.1556 H   0  0  0  0  0  0  0  0  0  0  0  0
   -2.8577    1.8554   -0.9074 H   0  0  0  0  0  0  0  0  0  0  0  0
   -3.0122    1.7046    0.8473 H   0  0  0  0  0  0  0  0  0  0  0  0
   -2.0925   -0.3986   -0.1248 H   0  0  0  0  0  0  0  0  0  0  0  0
   -0.8338    0.0120   -2.0820 H   0  0  0  0  0  0  0  0  0  0  0  0
   -0.0468    1.4479   -1.4092 H   0  0  0  0  0  0  0  0  0  0  0  0
    2.2992   -0.0198   -1.9228 H   0  0  0  0  0  0  0  0  0  0  0  0
    2.4302   -1.4233   -0.8300 H   0  0  0  0  0  0  0  0  0  0  0  0
    1.3907   -1.5057   -2.2800 H   0  0  0  0  0  0  0  0  0  0  0  0
   -0.2091    1.1863    1.6665 H   0  0  0  0  0  0  0  0  0  0  0  0
   -1.0508   -0.3179    2.0380 H   0  0  0  0  0  0  0  0  0  0  0  0
  1  9  1  0  0  0  0
  1 11  1  0  0  0  0
  2 12  1  6  0  0  0
  2  1  1  0  0  0  0
  2  8  1  0  0  0  0
  3  4  1  0  0  0  0
  3  2  1  0  0  0  0
  4  6  1  0  0  0  0
  5 16  1  0  0  0  0
  5  4  1  0  0  0  0
  6  8  1  0  0  0  0
  6  7  2  0  0  0  0
  8 18  1  0  0  0  0
  8 19  1  0  0  0  0
 10  1  1  0  0  0  0
 13  3  1  0  0  0  0
 14  3  1  0  0  0  0
 15  5  1  0  0  0  0
 17  5  1  0  0  0  0
M  END
