19
title
C -2.2925093 1.7353925 0.023362238
C -1.4365185 0.47209978 -0.0057496037
C -0.41119558 0.43654424 -1.1634481
N 0.6596975 -0.39585638 -0.6498385
C 1.7517209 -0.85840756 -1.471659
C 0.6606712 -0.5203472 0.7172187
O 1.4967153 -1.1083738 1.3721627
C -0.5606912 0.23893617 1.2372624
H -1.6708539 2.6281886 0.15559699
H -2.8577437 1.8553569 -0.90736276
H -3.01223 1.7046099 0.8473431
H -2.0924542 -0.39860398 -0.124843076
H -0.83380497 0.012034547 -2.0820367
H -0.046761442 1.4479135 -1.40916
H 2.2991703 -0.019768912 -1.9228421
H 2.430176 -1.4233022 -0.8299508
H 1.3907189 -1.5057079 -2.2799535
H -0.2090861 1.1863472 1.6664823
H -1.050789 -0.31794786 2.0380242
