title
 OpenBabel02282109583D

 18 18  0  0  1  0  0  0  0  0999 V2000
   -1.1384    2.2445    0.0236 C   0  0  0  0  0  0  0  0  0  0  0  0
   -1.3838    0.7372   -0.1006 C   0  0  1  0  0  0  0  0  0  0  0  0
   -0.6052    0.0920   -1.2746 C   0  0  0  0  0  0  0  0  0  0  0  0
    0.6051   -0.3742   -0.6288 N   0  0  0  0  0  0  0  0  0  0  0  0
    1.6215   -1.1158   -1.3332 C   0  0  0  0  0  0  0  0  0  0  0  0
    0.4144   -0.5328    0.7341 C   0  0  0  0  0  0  0  0  0  0  0  0
    1.1955   -1.0242    1.5213 O   0  0  0  0  0  0  0  0  0  0  0  0
   -0.8502   -0.0284    1.0235 N   0  0  0  0  0  0  0  0  0  0  0  0
   -0.0662    2.4600    0.0675 H   0  0  0  0  0  0  0  0  0  0  0  0
   -1.5659    2.7783   -0.8319 H   0  0  0  0  0  0  0  0  0  0  0  0
   -1.6055    2.6411    0.9312 H   0  0  0  0  0  0  0  0  0  0  0  0
   -2.4572    0.5508   -0.2101 H   0  0  0  0  0  0  0  0  0  0  0  0
   -1.1713   -0.7417   -1.7197 H   0  0  0  0  0  0  0  0  0  0  0  0
   -0.3893    0.8152   -2.0690 H   0  0  0  0  0  0  0  0  0  0  0  0
    2.1293   -0.4817   -2.0688 H   0  0  0  0  0  0  0  0  0  0  0  0
    2.3470   -1.4629   -0.5953 H   0  0  0  0  0  0  0  0  0  0  0  0
    1.2045   -1.9876   -1.8594 H   0  0  0  0  0  0  0  0  0  0  0  0
   -0.9900    0.2964    1.9681 H   0  0  0  0  0  0  0  0  0  0  0  0
  1  9  1  0  0  0  0
  1 11  1  0  0  0  0
  2 12  1  6  0  0  0
  2  1  1  0  0  0  0
  2  8  1  0  0  0  0
  3  4  1  0  0  0  0
  3  2  1  0  0  0  0
  4  6  1  0  0  0  0
  5  4  1  0  0  0  0
  5 16  1  0  0  0  0
  6  8  1  0  0  0  0
  6  7  2  0  0  0  0
  8 18  1  0  0  0  0
 10  1  1  0  0  0  0
 13  3  1  0  0  0  0
 14  3  1  0  0  0  0
 15  5  1  0  0  0  0
 17  5  1  0  0  0  0
M  END
