17
title
C -0.22264494 2.1913996 -0.1429319
N -1.103835 1.0346854 0.03835416
C -1.023679 0.066700295 -1.0770322
C 0.11859564 -0.9069936 -0.7669187
O 1.3341875 -0.45285773 -1.3475965
C 0.24299459 -0.8025899 0.771855
O 1.0594144 -1.3936266 1.430637
C -0.7680775 0.25343645 1.2311212
H 0.84475213 1.9358512 -0.2386243
H -0.5234126 2.7275894 -1.0478182
H -0.346217 2.87281 0.7043013
H -1.9686313 -0.48860312 -1.1305126
H -0.8739351 0.5798952 -2.0284605
H -0.103526615 -1.9409312 -1.0680796
H 2.050218 -0.90902483 -0.88635224
H -0.37743375 0.86741185 2.0449438
H -1.6600522 -0.27118087 1.6078598
