16
title
O 0.5279431 2.4365575 1.037575
C 0.5934896 1.0262433 0.9460572
C -0.83680844 0.4597897 0.8815675
C -0.636556 -0.93951136 0.29107544
O -1.7783858 -1.5454379 -0.24284549
C 0.44464046 -0.7009184 -0.76336294
O 0.51741755 -1.3373941 -1.7854815
C 1.2756501 0.5062634 -0.34450457
H 1.4162288 2.7731037 1.1919749
H 1.1068329 0.6090478 1.8259145
H -1.3361754 0.46240306 1.8516245
H -1.4281515 1.0667956 0.1866496
H -0.17474215 -1.5842 1.0657899
H -1.4918803 -1.957841 -1.071646
H 1.1931175 1.2651056 -1.1315355
H 2.3352416 0.25613815 -0.23828466
