20
title
C -1.2858095 2.5025768 -0.1292225
C -1.2452124 0.9712096 -0.06882189
C -0.5089576 0.3047912 -1.2588203
C 0.24041301 -0.9149642 -0.67204213
O 1.5076282 -1.1688917 -1.2700964
C 0.3032772 -0.6092675 0.81576234
C 1.1477094 -1.4373932 1.7311379
C -0.49927336 0.41150498 1.1227667
H -0.27255028 2.9193606 -0.14980972
H -1.811295 2.848608 -1.0256956
H -1.8023505 2.9206536 0.74161166
H -2.2853901 0.611942 -0.037890907
H -1.1702646 0.042171236 -2.0883622
H 0.24161083 1.0011485 -1.6553298
H -0.31626976 -1.8467636 -0.84246755
H 2.041057 -0.37399232 -1.1557397
H 2.1824207 -1.4812701 1.3743324
H 1.1432314 -1.0482658 2.7526999
H 0.7914576 -2.4756567 1.7591943
H -0.65234584 0.7968363 2.1272612
