title
 OpenBabel02282109583D

 20 20  0  0  1  0  0  0  0  0999 V2000
   -0.9762    2.2242   -0.2162 C   0  0  0  0  0  0  0  0  0  0  0  0
   -0.9755    0.6918   -0.1506 C   0  0  1  0  0  0  0  0  0  0  0  0
   -0.2819    0.0134   -1.3577 C   0  0  0  0  0  0  0  0  0  0  0  0
    0.4424   -1.2374   -0.7980 C   0  0  1  0  0  0  0  0  0  0  0  0
    1.7020   -1.5040   -1.4065 O   0  0  0  0  0  0  0  0  0  0  0  0
    0.5106   -0.9463    0.6803 C   0  0  0  0  0  0  0  0  0  0  0  0
   -0.2402    0.0964    1.0436 C   0  0  0  0  0  0  0  0  0  0  0  0
   -0.4370    0.6177    2.4335 C   0  0  0  0  0  0  0  0  0  0  0  0
    0.0472    2.6166   -0.2291 H   0  0  0  0  0  0  0  0  0  0  0  0
   -1.4777    2.5715   -1.1255 H   0  0  0  0  0  0  0  0  0  0  0  0
   -1.4974    2.6684    0.6379 H   0  0  0  0  0  0  0  0  0  0  0  0
   -2.0253    0.3628   -0.1002 H   0  0  0  0  0  0  0  0  0  0  0  0
   -0.9686   -0.2194   -2.1755 H   0  0  0  0  0  0  0  0  0  0  0  0
    0.4833    0.6869   -1.7638 H   0  0  0  0  0  0  0  0  0  0  0  0
   -0.1360   -2.1507   -0.9906 H   0  0  0  0  0  0  0  0  0  0  0  0
    2.2891   -0.7770   -1.1699 H   0  0  0  0  0  0  0  0  0  0  0  0
    1.0904   -1.5683    1.3552 H   0  0  0  0  0  0  0  0  0  0  0  0
    0.1223    0.0292    3.1655 H   0  0  0  0  0  0  0  0  0  0  0  0
   -0.1161    1.6626    2.5208 H   0  0  0  0  0  0  0  0  0  0  0  0
   -1.4973    0.5948    2.7175 H   0  0  0  0  0  0  0  0  0  0  0  0
  1  2  1  0  0  0  0
  1 11  1  0  0  0  0
  2 12  1  1  0  0  0
  2  7  1  0  0  0  0
  3  4  1  0  0  0  0
  3  2  1  0  0  0  0
  4 15  1  6  0  0  0
  4  6  1  0  0  0  0
  5 16  1  0  0  0  0
  5  4  1  0  0  0  0
  6  7  2  0  0  0  0
  6 17  1  0  0  0  0
  7  8  1  0  0  0  0
  8 19  1  0  0  0  0
  8 20  1  0  0  0  0
  8 18  1  0  0  0  0
  9  1  1  0  0  0  0
 10  1  1  0  0  0  0
 13  3  1  0  0  0  0
 14  3  1  0  0  0  0
M  END
