20
title
C -0.9762122 2.2242165 -0.21619646
C -0.9754892 0.6918295 -0.15059462
C -0.2819003 0.013432284 -1.3576877
C 0.44238907 -1.2374004 -0.79799503
O 1.7020264 -1.5040251 -1.406483
C 0.5105869 -0.9463428 0.68033403
C -0.24017958 0.09640231 1.0435814
C -0.43699807 0.6176727 2.433496
H 0.04719372 2.616586 -0.22912648
H -1.4776882 2.5715065 -1.1254503
H -1.497374 2.6683764 0.63793045
H -2.0252702 0.3627607 -0.100189105
H -0.96862364 -0.21943872 -2.1754851
H 0.48334414 0.6869414 -1.7638122
H -0.1360176 -2.1506524 -0.9906051
H 2.289086 -0.777048 -1.1699276
H 1.0904319 -1.5683428 1.3551513
H 0.122298434 0.02920266 3.1654916
H -0.11613177 1.6626481 2.5208485
H -1.4973041 0.5947623 2.7175243
