20
title
C -1.0463133 2.3766532 -0.21083204
C -1.2184333 0.8701599 -0.016037013
O -0.6452544 0.17038283 -1.1262944
C 0.24243577 -0.854554 -0.67779076
C 1.5771077 -0.7331949 -1.4137316
C 0.31617805 -0.6773979 0.82468295
C 1.1873708 -1.5307355 1.6889508
C -0.51581883 0.2961677 1.1837788
H 0.014941055 2.6412995 -0.22905374
H -1.499441 2.6874638 -1.1566038
H -1.5327576 2.9286997 0.60055757
H -2.2996511 0.6474228 0.025197428
H -0.19569938 -1.8412704 -0.9170398
H 2.0722868 0.20837983 -1.157596
H 2.242811 -1.5643382 -1.1585456
H 1.4072244 -0.75227255 -2.4937603
H 2.247527 -1.4095383 1.4354476
H 1.0630395 -1.2868187 2.7470572
H 0.9543986 -2.5949404 1.5553333
H -0.69775754 0.6450848 2.193611
