title
 OpenBabel02282109583D

 22 22  0  0  1  0  0  0  0  0999 V2000
   -1.4188    2.2781    0.2411 C   0  0  0  0  0  0  0  0  0  0  0  0
   -1.1857    0.8413   -0.1994 C   0  0  1  0  0  0  0  0  0  0  0  0
   -0.0017    0.6131   -1.1421 C   0  0  0  0  0  0  0  0  0  0  0  0
    0.3464   -0.8563   -0.8634 C   0  0  1  0  0  0  0  0  0  0  0  0
    1.7201   -1.3121   -1.3513 C   0  0  0  0  0  0  0  0  0  0  0  0
    0.0853   -0.9575    0.6629 C   0  0  1  0  0  0  0  0  0  0  0  0
    1.2964   -0.7241    1.5648 C   0  0  0  0  0  0  0  0  0  0  0  0
   -0.9029    0.0405    0.9532 O   0  0  0  0  0  0  0  0  0  0  0  0
   -0.5166    2.6877    0.7063 H   0  0  0  0  0  0  0  0  0  0  0  0
   -1.6878    2.9049   -0.6155 H   0  0  0  0  0  0  0  0  0  0  0  0
   -2.2322    2.3277    0.9705 H   0  0  0  0  0  0  0  0  0  0  0  0
   -2.1043    0.4614   -0.6793 H   0  0  0  0  0  0  0  0  0  0  0  0
   -0.2495    0.8058   -2.1896 H   0  0  0  0  0  0  0  0  0  0  0  0
    0.8344    1.2688   -0.8670 H   0  0  0  0  0  0  0  0  0  0  0  0
   -0.4134   -1.4745   -1.3595 H   0  0  0  0  0  0  0  0  0  0  0  0
    2.5238   -0.6997   -0.9311 H   0  0  0  0  0  0  0  0  0  0  0  0
    1.9162   -2.3550   -1.0797 H   0  0  0  0  0  0  0  0  0  0  0  0
    1.7845   -1.2393   -2.4418 H   0  0  0  0  0  0  0  0  0  0  0  0
   -0.3446   -1.9395    0.9057 H   0  0  0  0  0  0  0  0  0  0  0  0
    1.8055    0.2137    1.3198 H   0  0  0  0  0  0  0  0  0  0  0  0
    0.9635   -0.6621    2.6045 H   0  0  0  0  0  0  0  0  0  0  0  0
    2.0181   -1.5434    1.4846 H   0  0  0  0  0  0  0  0  0  0  0  0
  1  9  1  0  0  0  0
  1 11  1  0  0  0  0
  2 12  1  6  0  0  0
  2  1  1  0  0  0  0
  2  8  1  0  0  0  0
  3 14  1  0  0  0  0
  3  4  1  0  0  0  0
  3  2  1  0  0  0  0
  4  6  1  1  0  0  0
  5 17  1  0  0  0  0
  5 16  1  0  0  0  0
  5  4  1  0  0  0  0
  6 19  1  1  0  0  0
  6  8  1  0  0  0  0
  6  7  1  0  0  0  0
  7 21  1  0  0  0  0
 10  1  1  0  0  0  0
 13  3  1  0  0  0  0
 15  4  1  0  0  0  0
 18  5  1  0  0  0  0
 20  7  1  0  0  0  0
 22  7  1  0  0  0  0
M  END
