22
title
C -0.9563429 2.3558118 0.18873206
C -1.2718794 0.86209387 0.06334537
C -0.5571058 0.20326498 -1.1524109
C 0.04206313 -1.1205517 -0.63396335
C 1.1816987 -1.6887405 -1.4767534
C 0.41168022 -0.77455264 0.8170877
O 1.5960222 0.02348671 0.7769477
C -0.8017413 0.034030773 1.2981064
H 0.11843635 2.5041924 0.3379394
H -1.2493546 2.9007847 -0.7154138
H -1.4836771 2.8079746 1.0362252
H -2.3562968 0.7503948 -0.04489773
H -1.2313327 0.047402598 -1.9999022
H 0.25373733 0.85187805 -1.5017127
H -0.7625604 -1.8668034 -0.5740949
H 2.0219312 -0.9905179 -1.5074457
H 1.5468851 -2.636488 -1.0662396
H 0.8517252 -1.8765144 -2.5039465
H 0.5845679 -1.6749678 1.4256378
H 1.7718605 0.33389315 1.6701466
H -0.55598605 0.6651814 2.1602018
H -1.5870818 -0.6563198 1.6265002
