20
title
C -0.7629285 2.248372 -0.03550653
C -1.2349961 0.79966986 -0.11120594
C -0.7476379 0.038508963 -1.3680191
C 0.44924864 -0.77197844 -0.8503253
O 1.6430831 -0.00086437375 -0.7888112
C -0.0071926434 -1.0847657 0.5813596
C 1.0897636 -1.4081836 1.5813168
O -0.705449 0.08215864 1.0109557
H 0.32457337 2.2909389 -0.13825886
H -1.2219867 2.848295 -0.829048
H -1.0393223 2.685098 0.9283786
H -2.3322916 0.7713945 -0.053192124
H -1.5215786 -0.64156026 -1.7384095
H -0.4746758 0.7081096 -2.1890836
H 0.61317545 -1.6938777 -1.4259151
H 1.8634276 0.27452236 -1.6836591
H -0.71050346 -1.9341736 0.52070296
H 1.8238912 -0.6017595 1.611174
H 0.6577361 -1.5342934 2.5776446
H 1.597971 -2.3375168 1.3052825
