title
 OpenBabel02282109583D

 20 20  0  0  1  0  0  0  0  0999 V2000
   -0.7629    2.2484   -0.0355 C   0  0  0  0  0  0  0  0  0  0  0  0
   -1.2350    0.7997   -0.1112 C   0  0  1  0  0  0  0  0  0  0  0  0
   -0.7476    0.0385   -1.3680 C   0  0  0  0  0  0  0  0  0  0  0  0
    0.4492   -0.7720   -0.8503 C   0  0  1  0  0  0  0  0  0  0  0  0
    1.6431   -0.0009   -0.7888 O   0  0  0  0  0  0  0  0  0  0  0  0
   -0.0072   -1.0848    0.5814 C   0  0  1  0  0  0  0  0  0  0  0  0
    1.0898   -1.4082    1.5813 C   0  0  0  0  0  0  0  0  0  0  0  0
   -0.7054    0.0822    1.0110 O   0  0  0  0  0  0  0  0  0  0  0  0
    0.3246    2.2909   -0.1383 H   0  0  0  0  0  0  0  0  0  0  0  0
   -1.2220    2.8483   -0.8290 H   0  0  0  0  0  0  0  0  0  0  0  0
   -1.0393    2.6851    0.9284 H   0  0  0  0  0  0  0  0  0  0  0  0
   -2.3323    0.7714   -0.0532 H   0  0  0  0  0  0  0  0  0  0  0  0
   -1.5216   -0.6416   -1.7384 H   0  0  0  0  0  0  0  0  0  0  0  0
   -0.4747    0.7081   -2.1891 H   0  0  0  0  0  0  0  0  0  0  0  0
    0.6132   -1.6939   -1.4259 H   0  0  0  0  0  0  0  0  0  0  0  0
    1.8634    0.2745   -1.6837 H   0  0  0  0  0  0  0  0  0  0  0  0
   -0.7105   -1.9342    0.5207 H   0  0  0  0  0  0  0  0  0  0  0  0
    1.8239   -0.6018    1.6112 H   0  0  0  0  0  0  0  0  0  0  0  0
    0.6577   -1.5343    2.5776 H   0  0  0  0  0  0  0  0  0  0  0  0
    1.5980   -2.3375    1.3053 H   0  0  0  0  0  0  0  0  0  0  0  0
  1 11  1  0  0  0  0
  2 12  1  1  0  0  0
  2  1  1  0  0  0  0
  2  8  1  0  0  0  0
  3  4  1  0  0  0  0
  3  2  1  0  0  0  0
  4  5  1  0  0  0  0
  4  6  1  1  0  0  0
  6 17  1  6  0  0  0
  6  8  1  0  0  0  0
  6  7  1  0  0  0  0
  7 18  1  0  0  0  0
  7 19  1  0  0  0  0
  9  1  1  0  0  0  0
 10  1  1  0  0  0  0
 13  3  1  0  0  0  0
 14  3  1  0  0  0  0
 15  4  1  0  0  0  0
 16  5  1  0  0  0  0
 20  7  1  0  0  0  0
M  END
