22
title
C -0.4154176 1.8495879 -0.5124807
C -1.0826268 0.5439301 -0.05635853
C -0.8993671 -0.594749 -1.0799767
C 0.48940724 -1.1964486 -0.7904921
O 1.4249521 -0.57762015 -1.6763284
C 0.7723319 -0.8616245 0.7014474
C -0.46378857 -0.08621916 1.2204046
C -0.1676377 0.86416054 2.3797047
H 0.6452078 1.7033006 -0.73389477
H -0.8896477 2.213548 -1.4300975
H -0.5106714 2.63647 0.24215765
H -2.147888 0.7445344 0.109551296
H -1.6631525 -1.3634318 -0.91660756
H -0.96989316 -0.27160254 -2.121942
H 0.49153537 -2.2816212 -0.96513665
H 2.3024573 -0.90154433 -1.4491469
H 0.973219 -1.7545205 1.3018134
H 1.6682254 -0.231868 0.7520926
H -1.1905077 -0.8298503 1.5767373
H 0.58159155 1.6133337 2.103677
H -1.0700134 1.3956096 2.7018478
H 0.21883553 0.31572676 3.2457237
