20
title
C -1.1965817 2.2730668 -0.26803267
C -1.1175336 0.8182939 0.13841924
O -0.9035237 -0.012959186 -0.9960863
C 0.04659054 -1.0268788 -0.64686424
C 1.2814047 -0.88044363 -1.5290774
C 0.26037738 -0.7892495 0.8709893
C 1.6273453 -1.0904299 1.4547977
O -0.02819231 0.5994983 1.0008779
H -0.26044503 2.5746174 -0.7441194
H -2.0188327 2.4158108 -0.97360307
H -1.3735101 2.8996408 0.6102787
H -2.0521123 0.4978896 0.63819337
H -0.41243443 -2.0101185 -0.8142909
H 1.7869895 0.070294075 -1.3371049
H 1.9899104 -1.6983216 -1.3623084
H 0.98011804 -0.8983335 -2.5799963
H -0.5048706 -1.3658531 1.4182385
H 2.4071589 -0.5077614 0.9592292
H 1.6403856 -0.8444428 2.5199451
H 1.8626559 -2.1539528 1.3484093
