title
 OpenBabel02282109583D

 20 20  0  0  1  0  0  0  0  0999 V2000
   -1.1966    2.2731   -0.2680 C   0  0  0  0  0  0  0  0  0  0  0  0
   -1.1175    0.8183    0.1384 C   0  0  1  0  0  0  0  0  0  0  0  0
   -0.9035   -0.0130   -0.9961 O   0  0  0  0  0  0  0  0  0  0  0  0
    0.0466   -1.0269   -0.6469 C   0  0  1  0  0  0  0  0  0  0  0  0
    1.2814   -0.8804   -1.5291 C   0  0  0  0  0  0  0  0  0  0  0  0
    0.2604   -0.7892    0.8710 C   0  0  1  0  0  0  0  0  0  0  0  0
    1.6273   -1.0904    1.4548 C   0  0  0  0  0  0  0  0  0  0  0  0
   -0.0282    0.5995    1.0009 O   0  0  0  0  0  0  0  0  0  0  0  0
   -0.2604    2.5746   -0.7441 H   0  0  0  0  0  0  0  0  0  0  0  0
   -2.0188    2.4158   -0.9736 H   0  0  0  0  0  0  0  0  0  0  0  0
   -1.3735    2.8996    0.6103 H   0  0  0  0  0  0  0  0  0  0  0  0
   -2.0521    0.4979    0.6382 H   0  0  0  0  0  0  0  0  0  0  0  0
   -0.4124   -2.0101   -0.8143 H   0  0  0  0  0  0  0  0  0  0  0  0
    1.7870    0.0703   -1.3371 H   0  0  0  0  0  0  0  0  0  0  0  0
    1.9899   -1.6983   -1.3623 H   0  0  0  0  0  0  0  0  0  0  0  0
    0.9801   -0.8983   -2.5800 H   0  0  0  0  0  0  0  0  0  0  0  0
   -0.5049   -1.3659    1.4182 H   0  0  0  0  0  0  0  0  0  0  0  0
    2.4072   -0.5078    0.9592 H   0  0  0  0  0  0  0  0  0  0  0  0
    1.6404   -0.8444    2.5199 H   0  0  0  0  0  0  0  0  0  0  0  0
    1.8627   -2.1540    1.3484 H   0  0  0  0  0  0  0  0  0  0  0  0
  1  2  1  0  0  0  0
  1 11  1  0  0  0  0
  2 12  1  1  0  0  0
  2  8  1  0  0  0  0
  3  4  1  0  0  0  0
  3  2  1  0  0  0  0
  4  6  1  1  0  0  0
  5 15  1  0  0  0  0
  5 14  1  0  0  0  0
  5  4  1  0  0  0  0
  6  8  1  0  0  0  0
  6 17  1  1  0  0  0
  6  7  1  0  0  0  0
  7 19  1  0  0  0  0
  9  1  1  0  0  0  0
 10  1  1  0  0  0  0
 13  4  1  0  0  0  0
 16  5  1  0  0  0  0
 18  7  1  0  0  0  0
 20  7  1  0  0  0  0
M  END
