title
 OpenBabel02282109583D

 16 17  0  0  1  0  0  0  0  0999 V2000
   -0.3049    2.3131   -0.1970 C   0  0  0  0  0  0  0  0  0  0  0  0
   -0.0929    0.8274   -0.3057 C   0  0  2  0  0  0  0  0  0  0  0  0
   -1.3185   -0.1300   -0.3320 C   0  0  0  0  0  0  0  0  0  0  0  0
   -0.5829   -1.0296    0.6831 C   0  0  0  0  0  0  0  0  0  0  0  0
   -0.8699   -2.0417    1.2529 O   0  0  0  0  0  0  0  0  0  0  0  0
    0.6304   -0.0935    0.7440 C   0  0  1  0  0  0  0  0  0  0  0  0
    1.6282   -0.3474   -0.4091 C   0  0  0  0  0  0  0  0  0  0  0  0
    0.8680    0.4633   -1.3283 O   0  0  0  0  0  0  0  0  0  0  0  0
    0.6445    2.8310   -0.0344 H   0  0  0  0  0  0  0  0  0  0  0  0
   -0.7469    2.6980   -1.1226 H   0  0  0  0  0  0  0  0  0  0  0  0
   -0.9820    2.5523    0.6291 H   0  0  0  0  0  0  0  0  0  0  0  0
   -2.2312    0.2954    0.1003 H   0  0  0  0  0  0  0  0  0  0  0  0
   -1.5526   -0.5737   -1.3027 H   0  0  0  0  0  0  0  0  0  0  0  0
    1.0203    0.2036    1.7169 H   0  0  0  0  0  0  0  0  0  0  0  0
    2.6215    0.0794   -0.2267 H   0  0  0  0  0  0  0  0  0  0  0  0
    1.7398   -1.3837   -0.7475 H   0  0  0  0  0  0  0  0  0  0  0  0
  1  9  1  0  0  0  0
  1 11  1  0  0  0  0
  2  1  1  0  0  0  0
  2  6  1  1  0  0  0
  3  2  1  0  0  0  0
  3 12  1  0  0  0  0
  3  4  1  0  0  0  0
  4  6  1  0  0  0  0
  4  5  2  0  0  0  0
  6 14  1  1  0  0  0
  7 15  1  0  0  0  0
  7  6  1  0  0  0  0
  8  7  1  0  0  0  0
  8  2  1  0  0  0  0
 10  1  1  0  0  0  0
 13  3  1  0  0  0  0
 16  7  1  0  0  0  0
M  END
