17
title
C -0.8092403 2.1431942 -0.11156992
C -0.56323797 0.6616036 -0.114263214
C -1.7269043 -0.35895285 -0.15713267
C -1.0157883 -1.2091814 0.9407573
C 0.15890715 -0.18244669 0.98247397
C 1.180243 -0.42498276 -0.09877405
N 2.2733378 -1.0378531 -0.16224866
O 0.4902077 0.27681768 -1.0714232
H 0.120509595 2.6934254 0.05975799
H -1.2243818 2.4628751 -1.0737395
H -1.524251 2.4111106 0.67239356
H -2.6834152 0.05970892 0.16576277
H -1.8586872 -0.8312252 -1.1323197
H -1.5705173 -1.2428066 1.8800753
H -0.7307761 -2.2266548 0.66844285
H 0.50655717 0.18793827 1.9447817
H 2.6726084 -0.98394305 -1.1012623
