title
 OpenBabel02282109583D

 18 19  0  0  1  0  0  0  0  0999 V2000
   -0.9026    2.1672   -0.1723 C   0  0  0  0  0  0  0  0  0  0  0  0
   -0.5884    0.6884   -0.2233 C   0  0  2  0  0  0  0  0  0  0  0  0
   -1.7658   -0.3195   -0.0891 C   0  0  0  0  0  0  0  0  0  0  0  0
   -0.9917   -1.1072    1.0068 C   0  0  0  0  0  0  0  0  0  0  0  0
    0.1874   -0.0849    0.9275 C   0  0  1  0  0  0  0  0  0  0  0  0
    1.2336   -0.4935   -0.1073 C   0  0  0  0  0  0  0  0  0  0  0  0
    2.2611   -1.1064   -0.0491 O   0  0  0  0  0  0  0  0  0  0  0  0
    0.4932    0.2281   -1.2499 C   0  0  0  0  0  0  0  0  0  0  0  0
    0.0104    2.7698   -0.1072 H   0  0  0  0  0  0  0  0  0  0  0  0
   -1.4449    2.4840   -1.0716 H   0  0  0  0  0  0  0  0  0  0  0  0
   -1.5274    2.4125    0.6934 H   0  0  0  0  0  0  0  0  0  0  0  0
   -2.6813    0.1442    0.2881 H   0  0  0  0  0  0  0  0  0  0  0  0
   -2.0178   -0.8731   -0.9980 H   0  0  0  0  0  0  0  0  0  0  0  0
   -1.4849   -1.1013    1.9804 H   0  0  0  0  0  0  0  0  0  0  0  0
   -0.7259   -2.1401    0.7694 H   0  0  0  0  0  0  0  0  0  0  0  0
    0.5388    0.3555    1.8621 H   0  0  0  0  0  0  0  0  0  0  0  0
    0.1668   -0.3962   -2.0872 H   0  0  0  0  0  0  0  0  0  0  0  0
    1.0940    1.0522   -1.6514 H   0  0  0  0  0  0  0  0  0  0  0  0
  1  9  1  0  0  0  0
  1 11  1  0  0  0  0
  2  1  1  0  0  0  0
  2  3  1  0  0  0  0
  2  5  1  1  0  0  0
  3 12  1  0  0  0  0
  3  4  1  0  0  0  0
  4 14  1  0  0  0  0
  5  4  1  0  0  0  0
  5 16  1  1  0  0  0
  6  7  2  0  0  0  0
  6  5  1  0  0  0  0
  8  2  1  0  0  0  0
  8  6  1  0  0  0  0
 10  1  1  0  0  0  0
 13  3  1  0  0  0  0
 15  4  1  0  0  0  0
 17  8  1  0  0  0  0
 18  8  1  0  0  0  0
M  END
