16
title
C -0.773644 2.1546905 -0.21288948
C -0.55288064 0.6710401 -0.1466413
C -1.7274417 -0.32997042 -0.06597772
N -0.9579159 -1.1797134 0.8900764
C 0.13405138 -0.1676111 0.96783984
C 1.1822201 -0.44296682 -0.09169087
N 2.2875967 -1.0298076 -0.12561016
O 0.480928 0.21989824 -1.0906363
H 0.17011726 2.6931665 -0.08886851
H -1.1999464 2.4340024 -1.1827201
H -1.4671527 2.4769216 0.569522
H -2.63182 0.12176712 0.3591484
H -1.9830024 -0.83283913 -1.0035564
H -1.4291594 -1.3095311 1.7765326
H 0.44594866 0.17860515 1.9525878
H 2.6904976 -1.012406 -1.0646214
