title
 OpenBabel02282109583D

 15 16  0  0  1  0  0  0  0  0999 V2000
   -0.7648    2.1705   -0.2121 C   0  0  0  0  0  0  0  0  0  0  0  0
   -0.5538    0.6858   -0.1394 C   0  0  2  0  0  0  0  0  0  0  0  0
   -1.7334   -0.3108   -0.0567 C   0  0  0  0  0  0  0  0  0  0  0  0
   -0.9662   -1.1609    0.9014 N   0  0  0  0  0  0  0  0  0  0  0  0
    0.1224   -0.1481    0.9793 C   0  0  1  0  0  0  0  0  0  0  0  0
    1.1710   -0.4551   -0.0995 C   0  0  0  0  0  0  0  0  0  0  0  0
    2.1985   -1.0374   -0.2130 O   0  0  0  0  0  0  0  0  0  0  0  0
    0.4767    0.2248   -1.0827 O   0  0  0  0  0  0  0  0  0  0  0  0
    0.1829    2.7032   -0.0929 H   0  0  0  0  0  0  0  0  0  0  0  0
   -1.1907    2.4481   -1.1823 H   0  0  0  0  0  0  0  0  0  0  0  0
   -1.4543    2.5008    0.5702 H   0  0  0  0  0  0  0  0  0  0  0  0
   -2.6328    0.1464    0.3717 H   0  0  0  0  0  0  0  0  0  0  0  0
   -1.9936   -0.8150   -0.9918 H   0  0  0  0  0  0  0  0  0  0  0  0
   -1.4379   -1.2976    1.7863 H   0  0  0  0  0  0  0  0  0  0  0  0
    0.4458    0.1993    1.9602 H   0  0  0  0  0  0  0  0  0  0  0  0
  1  2  1  0  0  0  0
  1  9  1  0  0  0  0
  1 11  1  0  0  0  0
  2  3  1  0  0  0  0
  2  5  1  1  0  0  0
  3 12  1  0  0  0  0
  3  4  1  0  0  0  0
  4  5  1  0  0  0  0
  4 14  1  0  0  0  0
  5 15  1  1  0  0  0
  6  5  1  0  0  0  0
  7  6  2  0  0  0  0
  8  2  1  0  0  0  0
  8  6  1  0  0  0  0
 10  1  1  0  0  0  0
 13  3  1  0  0  0  0
M  END
