15
title
C -0.7647656 2.170507 -0.21214512
C -0.5538352 0.68584704 -0.13944669
C -1.7333856 -0.31080157 -0.05665457
N -0.96622676 -1.1609089 0.90136975
C 0.122394554 -0.14814727 0.9793481
C 1.1710271 -0.45506096 -0.09948265
O 2.1985471 -1.037387 -0.21304724
O 0.47670907 0.22477396 -1.0827157
H 0.18288505 2.7031903 -0.092922606
H -1.1906837 2.4481475 -1.1822798
H -1.4543222 2.500846 0.57020915
H -2.6327958 0.14643107 0.37174737
H -1.9936167 -0.81502795 -0.99180144
H -1.4379373 -1.2976466 1.7862931
H 0.44575018 0.19933154 1.9601911
