title
 OpenBabel02282109583D

 16 17  0  0  1  0  0  0  0  0999 V2000
   -0.8857    2.1880   -0.2404 C   0  0  0  0  0  0  0  0  0  0  0  0
   -0.5396    0.7201   -0.2153 C   0  0  2  0  0  0  0  0  0  0  0  0
   -1.6553   -0.3370   -0.0245 C   0  0  0  0  0  0  0  0  0  0  0  0
   -0.9011   -1.0243    0.9973 O   0  0  0  0  0  0  0  0  0  0  0  0
    0.1838   -0.0753    0.9204 C   0  0  1  0  0  0  0  0  0  0  0  0
    1.2033   -0.4892   -0.1410 C   0  0  0  0  0  0  0  0  0  0  0  0
    2.2013   -1.2617   -0.1094 N   0  0  0  0  0  0  0  0  0  0  0  0
    0.5538    0.2953   -1.1066 N   0  0  0  0  0  0  0  0  0  0  0  0
    0.0171    2.7993   -0.1597 H   0  0  0  0  0  0  0  0  0  0  0  0
   -1.3893    2.4532   -1.1778 H   0  0  0  0  0  0  0  0  0  0  0  0
   -1.5597    2.4439    0.5826 H   0  0  0  0  0  0  0  0  0  0  0  0
   -2.5939    0.0613    0.3809 H   0  0  0  0  0  0  0  0  0  0  0  0
   -1.8721   -0.9711   -0.8926 H   0  0  0  0  0  0  0  0  0  0  0  0
    0.5082    0.2994    1.8914 H   0  0  0  0  0  0  0  0  0  0  0  0
    2.6204   -1.3804   -1.0341 H   0  0  0  0  0  0  0  0  0  0  0  0
    0.4647    0.0714   -2.0901 H   0  0  0  0  0  0  0  0  0  0  0  0
  1  2  1  0  0  0  0
  1  9  1  0  0  0  0
  1 11  1  0  0  0  0
  2  3  1  0  0  0  0
  2  5  1  1  0  0  0
  3 12  1  0  0  0  0
  3  4  1  0  0  0  0
  5  4  1  0  0  0  0
  5 14  1  1  0  0  0
  6  7  2  0  0  0  0
  6  5  1  0  0  0  0
  8  2  1  0  0  0  0
  8  6  1  0  0  0  0
 10  1  1  0  0  0  0
 13  3  1  0  0  0  0
 15  7  1  0  0  0  0
 16  8  1  0  0  0  0
M  END
