title
 OpenBabel02282109583D

 15 16  0  0  1  0  0  0  0  0999 V2000
   -0.5138    2.3017   -0.2919 C   0  0  0  0  0  0  0  0  0  0  0  0
   -0.4344    0.7974   -0.2113 C   0  0  2  0  0  0  0  0  0  0  0  0
   -1.7032   -0.0419    0.0871 C   0  0  0  0  0  0  0  0  0  0  0  0
   -1.0130   -0.8187    1.0917 O   0  0  0  0  0  0  0  0  0  0  0  0
    0.2027   -0.0588    0.9268 C   0  0  1  0  0  0  0  0  0  0  0  0
    1.0935   -0.6866   -0.1816 C   0  0  0  0  0  0  0  0  0  0  0  0
    1.9108   -1.5597   -0.2614 O   0  0  0  0  0  0  0  0  0  0  0  0
    0.5062    0.1400   -1.1283 N   0  0  0  0  0  0  0  0  0  0  0  0
    0.4863    2.7436   -0.2768 H   0  0  0  0  0  0  0  0  0  0  0  0
   -1.0079    2.6177   -1.2183 H   0  0  0  0  0  0  0  0  0  0  0  0
   -1.0895    2.7064    0.5455 H   0  0  0  0  0  0  0  0  0  0  0  0
   -2.5251    0.5304    0.5341 H   0  0  0  0  0  0  0  0  0  0  0  0
   -2.0839   -0.6552   -0.7371 H   0  0  0  0  0  0  0  0  0  0  0  0
    0.6345    0.2996    1.8619 H   0  0  0  0  0  0  0  0  0  0  0  0
    0.4502    0.0161   -2.1311 H   0  0  0  0  0  0  0  0  0  0  0  0
  1  9  1  0  0  0  0
  1  2  1  0  0  0  0
  1 11  1  0  0  0  0
  2  3  1  0  0  0  0
  2  5  1  1  0  0  0
  3 12  1  0  0  0  0
  3  4  1  0  0  0  0
  5  4  1  0  0  0  0
  5 14  1  1  0  0  0
  6  5  1  0  0  0  0
  7  6  2  0  0  0  0
  8  2  1  0  0  0  0
  8  6  1  0  0  0  0
 10  1  1  0  0  0  0
 13  3  1  0  0  0  0
 15  8  1  0  0  0  0
M  END
