15
title
C -0.51382715 2.3017113 -0.29187
C -0.4343534 0.7974173 -0.21131438
C -1.7032186 -0.041851036 0.08708032
O -1.01301 -0.8187346 1.0917412
C 0.20273058 -0.058822982 0.9268278
C 1.0934587 -0.6865768 -0.18161528
O 1.9107859 -1.5597236 -0.26139176
N 0.5062052 0.13995838 -1.1283268
H 0.48630393 2.7435837 -0.27677715
H -1.0079317 2.6176717 -1.2182937
H -1.0894717 2.7063766 0.545531
H -2.5251493 0.53035194 0.53408045
H -2.0838685 -0.65522474 -0.7371279
H 0.6344929 0.29962176 1.8618811
H 0.45020252 0.01614434 -2.1311283
