14
title
C -0.7516475 2.1938353 -0.21932803
C -0.53195673 0.7122653 -0.14535305
C -1.6825573 -0.30333993 -0.035825517
O -0.9647579 -1.0624243 0.9724404
C 0.13194068 -0.12786403 0.9687521
C 1.1561089 -0.48239413 -0.12454406
O 2.1479752 -1.1199077 -0.25206912
O 0.48392317 0.23781192 -1.0953188
H 0.19293483 2.731951 -0.102817416
H -1.1807675 2.466891 -1.1890152
H -1.4414474 2.5190647 0.56454206
H -2.61413 0.10316042 0.37363097
H -1.8846339 -0.88151395 -0.94240713
H 0.46298894 0.18190193 1.9602393
