title
 OpenBabel02282109583D

 16 17  0  0  1  0  0  0  0  0999 V2000
    0.5329    2.0217   -0.6469 O   0  0  0  0  0  0  0  0  0  0  0  0
    0.4998    0.6495   -0.3894 C   0  0  2  0  0  0  0  0  0  0  0  0
    0.9638   -0.3288   -1.4998 C   0  0  0  0  0  0  0  0  0  0  0  0
   -0.3613   -1.1309   -1.3393 C   0  0  0  0  0  0  0  0  0  0  0  0
   -0.8935   -0.0781   -0.3068 C   0  0  1  0  0  0  0  0  0  0  0  0
   -0.5556   -0.4855    1.1253 C   0  0  0  0  0  0  0  0  0  0  0  0
   -1.1361   -1.0971    1.9750 O   0  0  0  0  0  0  0  0  0  0  0  0
    0.8268    0.1995    1.0705 C   0  0  0  0  0  0  0  0  0  0  0  0
    1.4511    2.3141   -0.6276 H   0  0  0  0  0  0  0  0  0  0  0  0
    1.0246    0.1795   -2.4649 H   0  0  0  0  0  0  0  0  0  0  0  0
    1.8980   -0.8685   -1.3224 H   0  0  0  0  0  0  0  0  0  0  0  0
   -0.9649   -1.1781   -2.2465 H   0  0  0  0  0  0  0  0  0  0  0  0
   -0.2609   -2.1439   -0.9431 H   0  0  0  0  0  0  0  0  0  0  0  0
   -1.8535    0.3939   -0.5134 H   0  0  0  0  0  0  0  0  0  0  0  0
    1.6994   -0.4365    1.2459 H   0  0  0  0  0  0  0  0  0  0  0  0
    0.8624    1.0572    1.7507 H   0  0  0  0  0  0  0  0  0  0  0  0
  1  9  1  0  0  0  0
  1  2  1  0  0  0  0
  2  5  1  6  0  0  0
  2  8  1  0  0  0  0
  3  4  1  0  0  0  0
  3 11  1  0  0  0  0
  3  2  1  0  0  0  0
  4 13  1  0  0  0  0
  4  5  1  0  0  0  0
  5 14  1  6  0  0  0
  5  6  1  0  0  0  0
  6  7  2  0  0  0  0
  8  6  1  0  0  0  0
  8 15  1  0  0  0  0
  8 16  1  0  0  0  0
 10  3  1  0  0  0  0
 12  4  1  0  0  0  0
M  END
