title
 OpenBabel02282109583D

 18 19  0  0  1  0  0  0  0  0999 V2000
   -0.2985    2.4082   -0.0256 C   0  0  0  0  0  0  0  0  0  0  0  0
   -0.1450    0.9164   -0.1544 C   0  0  2  0  0  0  0  0  0  0  0  0
   -1.3862   -0.0064   -0.1655 C   0  0  0  0  0  0  0  0  0  0  0  0
   -0.6518   -0.9907    0.8009 C   0  0  1  0  0  0  0  0  0  0  0  0
   -0.4773   -2.3259    0.3972 O   0  0  0  0  0  0  0  0  0  0  0  0
    0.5925   -0.0439    0.8370 C   0  0  1  0  0  0  0  0  0  0  0  0
    1.5799   -0.2507   -0.3108 C   0  0  0  0  0  0  0  0  0  0  0  0
    0.7739    0.5357   -1.2197 O   0  0  0  0  0  0  0  0  0  0  0  0
    0.6731    2.8923    0.1103 H   0  0  0  0  0  0  0  0  0  0  0  0
   -0.7579    2.8187   -0.9320 H   0  0  0  0  0  0  0  0  0  0  0  0
   -0.9392    2.6630    0.8249 H   0  0  0  0  0  0  0  0  0  0  0  0
   -2.2935    0.4325    0.2589 H   0  0  0  0  0  0  0  0  0  0  0  0
   -1.6163   -0.4093   -1.1559 H   0  0  0  0  0  0  0  0  0  0  0  0
   -1.1325   -1.0435    1.7810 H   0  0  0  0  0  0  0  0  0  0  0  0
   -0.2354   -2.3298   -0.5348 H   0  0  0  0  0  0  0  0  0  0  0  0
    0.9828    0.2401    1.8137 H   0  0  0  0  0  0  0  0  0  0  0  0
    2.5641    0.2073   -0.1497 H   0  0  0  0  0  0  0  0  0  0  0  0
    1.7298   -1.2811   -0.6582 H   0  0  0  0  0  0  0  0  0  0  0  0
  1  9  1  0  0  0  0
  1 11  1  0  0  0  0
  2  1  1  0  0  0  0
  2  6  1  1  0  0  0
  3  2  1  0  0  0  0
  3 12  1  0  0  0  0
  3  4  1  0  0  0  0
  4  6  1  1  0  0  0
  4 14  1  0  0  0  0
  5  4  1  0  0  0  0
  6 16  1  1  0  0  0
  7 17  1  0  0  0  0
  7  6  1  0  0  0  0
  8  7  1  0  0  0  0
  8  2  1  0  0  0  0
 10  1  1  0  0  0  0
 13  3  1  0  0  0  0
 15  5  1  0  0  0  0
 18  7  1  0  0  0  0
M  END
