18
title
C -0.29854888 2.4082162 -0.025611177
C -0.14498627 0.91644543 -0.15435013
C -1.3861659 -0.006432086 -0.1655363
C -0.6518116 -0.9906824 0.8009283
O -0.4773338 -2.3259075 0.39723366
C 0.5925393 -0.043915004 0.83695537
C 1.5799468 -0.2506602 -0.31076935
O 0.7739065 0.53567994 -1.2197348
H 0.67312163 2.8923018 0.11031331
H -0.75794655 2.8187473 -0.9320486
H -0.9391861 2.6629796 0.8248827
H -2.2935185 0.43248934 0.25891408
H -1.6163124 -0.4092745 -1.1558827
H -1.1325046 -1.0435232 1.7809554
H -0.23541743 -2.329827 -0.5348007
H 0.98284936 0.24013403 1.8137404
H 2.5641181 0.2073439 -0.14972618
H 1.7298483 -1.2810715 -0.6582141
