title
 OpenBabel02282109583D

 20 21  0  0  1  0  0  0  0  0999 V2000
   -0.7930    2.2911   -0.1935 C   0  0  0  0  0  0  0  0  0  0  0  0
   -0.5617    0.7964   -0.2052 C   0  0  2  0  0  0  0  0  0  0  0  0
   -1.7789   -0.1487   -0.0412 C   0  0  0  0  0  0  0  0  0  0  0  0
   -0.9534   -1.0439    0.9301 C   0  0  0  0  0  0  0  0  0  0  0  0
    0.1946    0.0040    0.9368 C   0  0  1  0  0  0  0  0  0  0  0  0
    1.3434   -0.2973   -0.0383 C   0  0  1  0  0  0  0  0  0  0  0  0
    1.7503   -1.6482   -0.0574 O   0  0  0  0  0  0  0  0  0  0  0  0
    0.4912    0.2515   -1.2242 C   0  0  0  0  0  0  0  0  0  0  0  0
    0.1515    2.8463   -0.1534 H   0  0  0  0  0  0  0  0  0  0  0  0
   -1.3246    2.6130   -1.0982 H   0  0  0  0  0  0  0  0  0  0  0  0
   -1.3961    2.5944    0.6699 H   0  0  0  0  0  0  0  0  0  0  0  0
   -2.6159    0.3461    0.4618 H   0  0  0  0  0  0  0  0  0  0  0  0
   -2.1589   -0.6166   -0.9552 H   0  0  0  0  0  0  0  0  0  0  0  0
   -1.4199   -1.2089    1.9033 H   0  0  0  0  0  0  0  0  0  0  0  0
   -0.6489   -2.0113    0.5272 H   0  0  0  0  0  0  0  0  0  0  0  0
    0.4544    0.4381    1.9039 H   0  0  0  0  0  0  0  0  0  0  0  0
    2.1996    0.3639    0.1606 H   0  0  0  0  0  0  0  0  0  0  0  0
    2.4090   -1.7551   -0.7509 H   0  0  0  0  0  0  0  0  0  0  0  0
    0.1056   -0.5384   -1.8758 H   0  0  0  0  0  0  0  0  0  0  0  0
    0.9825    1.0084   -1.8420 H   0  0  0  0  0  0  0  0  0  0  0  0
  1  9  1  0  0  0  0
  1 11  1  0  0  0  0
  2  1  1  0  0  0  0
  2  3  1  0  0  0  0
  2  5  1  1  0  0  0
  3 12  1  0  0  0  0
  3  4  1  0  0  0  0
  4  5  1  0  0  0  0
  4 14  1  0  0  0  0
  5  6  1  6  0  0  0
  5 16  1  0  0  0  0
  6 17  1  1  0  0  0
  7  6  1  0  0  0  0
  8  2  1  0  0  0  0
  8  6  1  0  0  0  0
 10  1  1  0  0  0  0
 13  3  1  0  0  0  0
 15  4  1  0  0  0  0
 18  7  1  0  0  0  0
 19  8  1  0  0  0  0
 20  8  1  0  0  0  0
M  END
