20
title
C -0.79298997 2.2911243 -0.193525
C -0.5617092 0.7963801 -0.20519255
C -1.7788737 -0.14872138 -0.041239746
C -0.953416 -1.043877 0.9301156
C 0.19460878 0.0039909626 0.9368216
C 1.3433758 -0.29734588 -0.038329013
O 1.750337 -1.6481785 -0.057418905
C 0.49122098 0.25147498 -1.22415
H 0.15148684 2.8463044 -0.1533533
H -1.3246021 2.6129656 -1.0981879
H -1.3960526 2.5944495 0.66985357
H -2.6158612 0.34609565 0.461811
H -2.158896 -0.61659217 -0.95521873
H -1.4198852 -1.2088656 1.9032553
H -0.64886796 -2.0113254 0.52719903
H 0.45442215 0.43812004 1.9038655
H 2.1996086 0.36390573 0.16059864
H 2.4090104 -1.7550987 -0.7508597
H 0.105597645 -0.5384408 -1.8757837
H 0.9825225 1.0083534 -1.8419662
