18
title
C -0.76543003 2.3253534 -0.23160008
C -0.5222532 0.8348842 -0.22884378
C -1.6902007 -0.13098834 0.034548152
O -0.88807625 -0.93270504 0.92969906
C 0.19209178 0.016442083 0.9014846
C 1.3236051 -0.35469636 -0.072169974
O 1.6773049 -1.7105998 -0.07389799
C 0.49333066 0.2382433 -1.2565279
H 0.17613782 2.8853297 -0.22706
H -1.3209251 2.629013 -1.1274724
H -1.3467013 2.6375356 0.6427633
H -2.540491 0.32435274 0.5629104
H -2.0659084 -0.7061142 -0.8211156
H 0.45254797 0.37844557 1.9010265
H 2.190449 0.29332107 0.13615121
H 2.3899524 -1.8363577 -0.7082355
H 0.06087412 -0.52692604 -1.9066384
H 1.021989 0.97215027 -1.870255
