20
title
C -2.136285 1.3074017 -0.4055393
C -1.3615674 -0.000451075 -0.3760364
C -0.1632395 -0.19273093 -1.3632137
C 0.7629032 -0.61012816 -0.17703786
C 1.4789467 -1.9380542 -0.2512099
C 1.4760225 0.5972979 0.45785785
O 0.30496192 0.94668394 1.2313564
C -0.3936789 -0.2442984 0.80660385
H -1.4652833 2.1507375 -0.22066775
H -2.6214976 1.4548849 -1.3763882
H -2.915297 1.3258473 0.3646478
H -2.048481 -0.85138667 -0.45543495
H -0.3148154 -0.9736633 -2.1127741
H 0.15540014 0.7190264 -1.8781652
H 2.270606 -1.9145352 -1.0103486
H 1.9434237 -2.1972408 0.7065442
H 0.7919693 -2.7474296 -0.5216484
H 2.3178964 0.33185726 1.1131475
H 1.7888234 1.4042888 -0.21715997
H -0.72873306 -0.8477684 1.656687
