20
title
C -0.8893777 2.4422288 -0.40773794
C -1.0035855 0.92629725 -0.35135022
C -0.14688843 0.058287717 -1.3284669
C 0.19340026 -0.9121775 -0.1513069
O -0.34815508 -2.2013998 -0.22597305
C 1.595467 -0.7196749 0.4691513
C 1.0333353 0.4822639 1.2893981
C -0.41958034 0.12668799 0.8436789
H 0.14976811 2.7782216 -0.3263956
H -1.2824612 2.8273358 -1.3554332
H -1.4563658 2.9139323 0.4029027
H -2.0561535 0.64358276 -0.4622042
H -0.7007535 -0.40698108 -2.1477954
H 0.72511697 0.5759853 -1.7417569
H 0.057744864 -2.6551602 -0.9733893
H 1.8490103 -1.5682638 1.1105019
H 2.4296403 -0.524563 -0.21248895
H 1.2041463 0.41748476 2.3655283
H 1.3840796 1.4607297 0.95355767
H -1.1005026 -0.16588064 1.6438674
