title
 OpenBabel02282109583D

 20 21  0  0  1  0  0  0  0  0999 V2000
   -0.8022    2.2855   -0.5115 C   0  0  0  0  0  0  0  0  0  0  0  0
   -1.0397    0.8068   -0.2830 C   0  0  1  0  0  0  0  0  0  0  0  0
   -0.2948   -0.0360   -1.2034 O   0  0  0  0  0  0  0  0  0  0  0  0
    0.1868   -0.8798   -0.1253 C   0  0  1  0  0  0  0  0  0  0  0  0
   -0.1269   -2.3365   -0.3454 C   0  0  0  0  0  0  0  0  0  0  0  0
    1.6065   -0.4479    0.3288 C   0  0  0  0  0  0  0  0  0  0  0  0
    0.9671    0.4917    1.3986 C   0  0  0  0  0  0  0  0  0  0  0  0
   -0.4528    0.0680    0.9393 C   0  0  1  0  0  0  0  0  0  0  0  0
    0.2565    2.5439   -0.4251 H   0  0  0  0  0  0  0  0  0  0  0  0
   -1.1344    2.5634   -1.5169 H   0  0  0  0  0  0  0  0  0  0  0  0
   -1.3701    2.8823    0.2109 H   0  0  0  0  0  0  0  0  0  0  0  0
   -2.1151    0.5948   -0.3831 H   0  0  0  0  0  0  0  0  0  0  0  0
    0.4058   -2.7064   -1.2292 H   0  0  0  0  0  0  0  0  0  0  0  0
    0.1831   -2.9390    0.5146 H   0  0  0  0  0  0  0  0  0  0  0  0
   -1.1984   -2.4860   -0.5100 H   0  0  0  0  0  0  0  0  0  0  0  0
    2.2094   -1.2555    0.7538 H   0  0  0  0  0  0  0  0  0  0  0  0
    2.1755    0.0413   -0.4646 H   0  0  0  0  0  0  0  0  0  0  0  0
    1.1812    0.1775    2.4227 H   0  0  0  0  0  0  0  0  0  0  0  0
    1.2064    1.5546    1.3197 H   0  0  0  0  0  0  0  0  0  0  0  0
   -1.1578   -0.2537    1.7061 H   0  0  0  0  0  0  0  0  0  0  0  0
  1  9  1  0  0  0  0
  1  2  1  0  0  0  0
  1 11  1  0  0  0  0
  2  8  1  1  0  0  0
  3  2  1  0  0  0  0
  3  4  1  0  0  0  0
  4  6  1  0  0  0  0
  4  8  1  1  0  0  0
  5  4  1  0  0  0  0
  5 14  1  0  0  0  0
  6 16  1  0  0  0  0
  6  7  1  0  0  0  0
  7 18  1  0  0  0  0
  8  7  1  0  0  0  0
  8 20  1  1  0  0  0
 10  1  1  0  0  0  0
 12  2  1  0  0  0  0
 13  5  1  0  0  0  0
 15  5  1  0  0  0  0
 17  6  1  0  0  0  0
 19  7  1  0  0  0  0
M  END
