20
title
C -0.802222 2.2854989 -0.51145357
C -1.0396717 0.80677223 -0.28300038
O -0.29481396 -0.036046516 -1.203352
C 0.18683574 -0.8797871 -0.1252669
C -0.12693009 -2.336468 -0.34539118
C 1.6065308 -0.4479456 0.32879937
C 0.9671036 0.4917406 1.3986174
C -0.4528301 0.068013474 0.9392695
H 0.25646994 2.5439148 -0.4251389
H -1.1343502 2.5633924 -1.5168986
H -1.3700651 2.882334 0.21087843
H -2.115114 0.59477735 -0.3831014
H 0.4057735 -2.7063894 -1.2291838
H 0.18313238 -2.9390104 0.514608
H -1.1984162 -2.4860237 -0.5099784
H 2.209442 -1.2555188 0.75382954
H 2.1754773 0.041274775 -0.4646063
H 1.1811589 0.17753164 2.422727
H 1.2064081 1.5546322 1.3196826
H -1.1578488 -0.2537074 1.7061119
