title
 OpenBabel02282109583D

 18 19  0  0  1  0  0  0  0  0999 V2000
   -0.7678    2.2730   -0.4215 C   0  0  0  0  0  0  0  0  0  0  0  0
   -1.0519    0.7935   -0.2957 C   0  0  1  0  0  0  0  0  0  0  0  0
   -0.2908   -0.0295   -1.2324 O   0  0  0  0  0  0  0  0  0  0  0  0
    0.1914   -0.8924   -0.1756 C   0  0  1  0  0  0  0  0  0  0  0  0
   -0.0248   -2.3543   -0.4528 C   0  0  0  0  0  0  0  0  0  0  0  0
    1.5224   -0.3756    0.4050 C   0  0  0  0  0  0  0  0  0  0  0  0
    0.8188    0.4945    1.3303 O   0  0  0  0  0  0  0  0  0  0  0  0
   -0.4636    0.0115    0.8952 C   0  0  1  0  0  0  0  0  0  0  0  0
    0.2713    2.4865   -0.1622 H   0  0  0  0  0  0  0  0  0  0  0  0
   -0.9574    2.6056   -1.4465 H   0  0  0  0  0  0  0  0  0  0  0  0
   -1.4195    2.8434    0.2492 H   0  0  0  0  0  0  0  0  0  0  0  0
   -2.1248    0.5863   -0.4216 H   0  0  0  0  0  0  0  0  0  0  0  0
    0.5542   -2.6579   -1.3323 H   0  0  0  0  0  0  0  0  0  0  0  0
    0.2945   -2.9675    0.3954 H   0  0  0  0  0  0  0  0  0  0  0  0
   -1.0792   -2.5587   -0.6589 H   0  0  0  0  0  0  0  0  0  0  0  0
    2.1219   -1.1201    0.9447 H   0  0  0  0  0  0  0  0  0  0  0  0
    2.1507    0.1752   -0.3025 H   0  0  0  0  0  0  0  0  0  0  0  0
   -1.1109   -0.2871    1.7224 H   0  0  0  0  0  0  0  0  0  0  0  0
  1  2  1  0  0  0  0
  1  9  1  0  0  0  0
  1 11  1  0  0  0  0
  2  8  1  1  0  0  0
  3  2  1  0  0  0  0
  3  4  1  0  0  0  0
  4  6  1  0  0  0  0
  4  8  1  1  0  0  0
  5  4  1  0  0  0  0
  5 14  1  0  0  0  0
  6 16  1  0  0  0  0
  6  7  1  0  0  0  0
  8  7  1  0  0  0  0
  8 18  1  1  0  0  0
 10  1  1  0  0  0  0
 12  2  1  0  0  0  0
 13  5  1  0  0  0  0
 15  5  1  0  0  0  0
 17  6  1  0  0  0  0
M  END
