18
title
C -0.767812 2.2729936 -0.42151436
C -1.0519143 0.7934721 -0.29573512
O -0.29078737 -0.029527638 -1.232362
C 0.19142136 -0.8923909 -0.17563319
C -0.024779715 -2.3542705 -0.45276418
C 1.5224065 -0.3755794 0.40495494
O 0.81878966 0.49449015 1.3303299
C -0.4636077 0.011464205 0.89516383
H 0.27134308 2.486539 -0.16223724
H -0.95735496 2.6056178 -1.4464772
H -1.4194999 2.8433874 0.24919073
H -2.1248455 0.5863042 -0.42164165
H 0.5541552 -2.657922 -1.3323264
H 0.29450342 -2.9674625 0.39540526
H -1.0791628 -2.5586524 -0.65890974
H 2.1219244 -1.1200507 0.9447209
H 2.1507175 0.17522916 -0.3025376
H -1.1109287 -0.2870529 1.7223629
