title
 OpenBabel02282109583D

 19 20  0  0  1  0  0  0  0  0999 V2000
   -0.0969    2.4816   -0.8015 C   0  0  0  0  0  0  0  0  0  0  0  0
    0.0289    1.0421   -0.8201 N   0  0  0  0  0  0  0  0  0  0  0  0
   -1.1895    0.2427   -0.5370 C   0  0  0  0  0  0  0  0  0  0  0  0
   -0.3942   -0.6156    0.4735 C   0  0  1  0  0  0  0  0  0  0  0  0
   -1.0363   -1.0768    1.7543 C   0  0  0  0  0  0  0  0  0  0  0  0
    0.3846   -1.6581   -0.1673 O   0  0  0  0  0  0  0  0  0  0  0  0
    1.5702   -0.8231   -0.2139 C   0  0  0  0  0  0  0  0  0  0  0  0
    0.7748    0.3914    0.2807 C   0  0  1  0  0  0  0  0  0  0  0  0
    0.8889    2.9433   -0.9210 H   0  0  0  0  0  0  0  0  0  0  0  0
   -0.7200    2.8068   -1.6415 H   0  0  0  0  0  0  0  0  0  0  0  0
   -0.5509    2.8795    0.1274 H   0  0  0  0  0  0  0  0  0  0  0  0
   -1.9853    0.8266   -0.0474 H   0  0  0  0  0  0  0  0  0  0  0  0
   -1.6043   -0.2838   -1.4028 H   0  0  0  0  0  0  0  0  0  0  0  0
   -1.7718   -1.8615    1.5423 H   0  0  0  0  0  0  0  0  0  0  0  0
   -0.2887   -1.4934    2.4356 H   0  0  0  0  0  0  0  0  0  0  0  0
   -1.5517   -0.2532    2.2578 H   0  0  0  0  0  0  0  0  0  0  0  0
    2.3378   -1.1907    0.4804 H   0  0  0  0  0  0  0  0  0  0  0  0
    1.9834   -0.7356   -1.2236 H   0  0  0  0  0  0  0  0  0  0  0  0
    1.1888    1.0474    1.0507 H   0  0  0  0  0  0  0  0  0  0  0  0
  1 11  1  0  0  0  0
  2  1  1  0  0  0  0
  2  3  1  0  0  0  0
  2  8  1  0  0  0  0
  3 12  1  0  0  0  0
  3  4  1  0  0  0  0
  4  8  1  1  0  0  0
  4  5  1  0  0  0  0
  5 16  1  0  0  0  0
  5 15  1  0  0  0  0
  6  4  1  0  0  0  0
  7  6  1  0  0  0  0
  7  8  1  0  0  0  0
  7 17  1  0  0  0  0
  8 19  1  1  0  0  0
  9  1  1  0  0  0  0
 10  1  1  0  0  0  0
 13  3  1  0  0  0  0
 14  5  1  0  0  0  0
 18  7  1  0  0  0  0
M  END
