19
title
C -0.06875273 2.4731045 -0.78208774
N 0.0054624556 1.0298264 -0.78323656
C -1.2352011 0.2717157 -0.50397503
C -0.42424917 -0.673454 0.41101515
O -0.96440464 -1.0387474 1.6458563
C 0.4881084 -1.7140329 -0.31404263
C 1.6989822 -0.7321921 -0.19141312
C 0.73677707 0.35976636 0.32351696
H 0.9337866 2.896589 -0.9065792
H -0.680532 2.8123899 -1.625377
H -0.5062031 2.8940487 0.14359556
H -1.9655025 0.83651245 0.09731279
H -1.733525 -0.13949174 -1.3909775
H -1.5255392 -1.8111 1.5132376
H 0.60355943 -2.6430116 0.24984013
H 0.18315181 -1.9512007 -1.3360876
H 2.4178982 -1.0549734 0.5667026
H 2.2272165 -0.48710114 -1.114491
H 1.0296849 1.0039052 1.158187
