18
title
O 1.5970824 0.9174206 -1.698367
C 1.0590574 -0.084213756 -0.87511104
C 1.1416916 0.050512724 0.6785889
C -0.3290194 -0.4703734 0.77645046
O -0.5119053 -1.7351002 1.3444095
C -1.3828104 0.6323272 1.0204743
C -1.3090725 0.9930828 -0.49473503
C -0.47021648 -0.29053724 -0.7748269
H 1.1769767 1.7536241 -1.47137
H 1.536079 -1.0132082 -1.1992874
H 1.88919 -0.5800043 1.1657033
H 1.2703191 1.0822766 1.0225677
H -0.23524627 -1.6955657 2.2668102
H -2.3466823 0.18672238 1.2808635
H -1.1418107 1.4161439 1.7457457
H -2.2704694 1.0308151 -1.0088112
H -0.788913 1.9333231 -0.70775026
H -0.93777585 -1.0354195 -1.4186366
