title
 OpenBabel02282109583D

 16 17  0  0  1  0  0  0  0  0999 V2000
    0.6688    2.2462   -0.5370 O   0  0  0  0  0  0  0  0  0  0  0  0
    0.8387    0.8641   -0.6802 C   0  0  1  0  0  0  0  0  0  0  0  0
    1.2563    0.0017    0.5604 C   0  0  0  0  0  0  0  0  0  0  0  0
    0.0440   -0.9401    0.2822 C   0  0  1  0  0  0  0  0  0  0  0  0
    0.2907   -2.2781   -0.0151 O   0  0  0  0  0  0  0  0  0  0  0  0
   -1.2240   -0.5435    1.0585 C   0  0  0  0  0  0  0  0  0  0  0  0
   -1.5003    0.5125    0.1079 O   0  0  0  0  0  0  0  0  0  0  0  0
   -0.4714    0.0630   -0.7934 C   0  0  1  0  0  0  0  0  0  0  0  0
    1.5382    2.6580   -0.5144 H   0  0  0  0  0  0  0  0  0  0  0  0
    1.4802    0.6137   -1.5391 H   0  0  0  0  0  0  0  0  0  0  0  0
    2.2310   -0.4843    0.4699 H   0  0  0  0  0  0  0  0  0  0  0  0
    1.1967    0.5391    1.5101 H   0  0  0  0  0  0  0  0  0  0  0  0
    0.8143   -2.6583    0.6985 H   0  0  0  0  0  0  0  0  0  0  0  0
   -1.9981   -1.3221    1.0344 H   0  0  0  0  0  0  0  0  0  0  0  0
   -1.1053   -0.1647    2.0811 H   0  0  0  0  0  0  0  0  0  0  0  0
   -0.8581   -0.1974   -1.7817 H   0  0  0  0  0  0  0  0  0  0  0  0
  1  9  1  0  0  0  0
  2  8  1  6  0  0  0
  2  1  1  0  0  0  0
  2  3  1  0  0  0  0
  3 12  1  0  0  0  0
  4  8  1  6  0  0  0
  4  3  1  0  0  0  0
  4  6  1  0  0  0  0
  5  4  1  0  0  0  0
  5 13  1  0  0  0  0
  6 15  1  0  0  0  0
  7  6  1  0  0  0  0
  8 16  1  6  0  0  0
  8  7  1  0  0  0  0
 10  2  1  0  0  0  0
 11  3  1  0  0  0  0
 14  6  1  0  0  0  0
M  END
