title
 OpenBabel02282109583D

 16 17  0  0  1  0  0  0  0  0999 V2000
    0.5288    2.1013   -0.3550 C   0  0  0  0  0  0  0  0  0  0  0  0
    0.5519    0.6051   -0.4380 C   0  0  1  0  0  0  0  0  0  0  0  0
    1.1471   -0.3311   -1.5341 C   0  0  0  0  0  0  0  0  0  0  0  0
    0.6259   -1.2311   -0.3861 C   0  0  1  0  0  0  0  0  0  0  0  0
    1.1832   -0.2686    0.6439 N   0  0  0  0  0  0  0  0  0  0  0  0
   -0.6730   -0.3752   -0.3721 C   0  0  1  0  0  0  0  0  0  0  0  0
   -1.4962   -0.3667    0.8245 C   0  0  0  0  0  0  0  0  0  0  0  0
   -2.2066   -0.3510    1.7363 N   0  0  0  0  0  0  0  0  0  0  0  0
    1.5464    2.5053   -0.3746 H   0  0  0  0  0  0  0  0  0  0  0  0
   -0.0220    2.5280   -1.1991 H   0  0  0  0  0  0  0  0  0  0  0  0
    0.0481    2.4218    0.5738 H   0  0  0  0  0  0  0  0  0  0  0  0
    0.6490   -0.3787   -2.5084 H   0  0  0  0  0  0  0  0  0  0  0  0
    2.2343   -0.2904   -1.6395 H   0  0  0  0  0  0  0  0  0  0  0  0
    0.6966   -2.3114   -0.2666 H   0  0  0  0  0  0  0  0  0  0  0  0
    2.2032   -0.2313    0.5491 H   0  0  0  0  0  0  0  0  0  0  0  0
   -1.2897   -0.4258   -1.2712 H   0  0  0  0  0  0  0  0  0  0  0  0
  1 11  1  0  0  0  0
  2  6  1  1  0  0  0
  2  1  1  0  0  0  0
  2  5  1  0  0  0  0
  3  2  1  0  0  0  0
  3  4  1  0  0  0  0
  4  6  1  1  0  0  0
  4 14  1  0  0  0  0
  4  5  1  0  0  0  0
  6 16  1  6  0  0  0
  6  7  1  0  0  0  0
  7  8  3  0  0  0  0
  9  1  1  0  0  0  0
 10  1  1  0  0  0  0
 12  3  1  0  0  0  0
 13  3  1  0  0  0  0
 15  5  1  0  0  0  0
M  END
