16
title
C 0.5169998 2.0757291 -0.32697064
C 0.5071031 0.5881636 -0.4662784
C 1.1302919 -0.33985165 -1.543754
C 0.62178296 -1.2026906 -0.3698362
O 1.2009168 -0.2249171 0.56928104
C -0.71368015 -0.3997424 -0.36782366
C -1.519955 -0.37685755 0.83062387
C -2.2276955 -0.34620193 1.8021696
H 1.5451273 2.4484997 -0.29722628
H 0.0021655054 2.5398242 -1.1739248
H 0.008532951 2.370846 0.595448
H 0.6313811 -0.42290702 -2.5129657
H 2.215604 -0.27607557 -1.6219151
H 0.77474964 -2.259772 -0.15640546
H -1.3208592 -0.48759487 -1.2743093
H -2.837945 -0.3256366 2.6708293
