title
 OpenBabel02282109583D

 15 16  0  0  1  0  0  0  0  0999 V2000
    0.5301    2.0782   -0.3315 C   0  0  0  0  0  0  0  0  0  0  0  0
    0.5206    0.5911   -0.4681 C   0  0  1  0  0  0  0  0  0  0  0  0
    1.1568   -0.3430   -1.5340 C   0  0  0  0  0  0  0  0  0  0  0  0
    0.6273   -1.2033   -0.3677 C   0  0  1  0  0  0  0  0  0  0  0  0
    1.1874   -0.2261    0.5812 O   0  0  0  0  0  0  0  0  0  0  0  0
   -0.7018   -0.3948   -0.3929 C   0  0  1  0  0  0  0  0  0  0  0  0
   -1.5052   -0.3666    0.8153 C   0  0  0  0  0  0  0  0  0  0  0  0
   -2.1796   -0.3333    1.7534 N   0  0  0  0  0  0  0  0  0  0  0  0
    1.5596    2.4464   -0.3030 H   0  0  0  0  0  0  0  0  0  0  0  0
    0.0174    2.5405   -1.1805 H   0  0  0  0  0  0  0  0  0  0  0  0
    0.0237    2.3786    0.5901 H   0  0  0  0  0  0  0  0  0  0  0  0
    0.6747   -0.4257   -2.5112 H   0  0  0  0  0  0  0  0  0  0  0  0
    2.2432   -0.2830   -1.5928 H   0  0  0  0  0  0  0  0  0  0  0  0
    0.7650   -2.2608   -0.1496 H   0  0  0  0  0  0  0  0  0  0  0  0
   -1.3232   -0.4824   -1.2876 H   0  0  0  0  0  0  0  0  0  0  0  0
  1  9  1  0  0  0  0
  1 11  1  0  0  0  0
  2  6  1  1  0  0  0
  2  1  1  0  0  0  0
  2  5  1  0  0  0  0
  3  2  1  0  0  0  0
  3  4  1  0  0  0  0
  4  6  1  1  0  0  0
  4 14  1  0  0  0  0
  4  5  1  0  0  0  0
  6 15  1  6  0  0  0
  6  7  1  0  0  0  0
  7  8  3  0  0  0  0
 10  1  1  0  0  0  0
 12  3  1  0  0  0  0
 13  3  1  0  0  0  0
M  END
