title
 OpenBabel02282109583D

 16 17  0  0  1  0  0  0  0  0999 V2000
    0.4820    2.1796   -0.4256 C   0  0  0  0  0  0  0  0  0  0  0  0
    0.5413    0.6752   -0.4324 C   0  0  1  0  0  0  0  0  0  0  0  0
    1.0380   -0.3006   -1.5268 C   0  0  0  0  0  0  0  0  0  0  0  0
    0.5733   -1.2807   -0.4332 N   0  0  1  0  0  0  0  0  0  0  0  0
    1.2635   -0.2975    0.5344 C   0  0  0  0  0  0  0  0  0  0  0  0
   -0.6458   -0.3357   -0.3263 C   0  0  1  0  0  0  0  0  0  0  0  0
   -1.4298   -0.4099    0.8981 C   0  0  0  0  0  0  0  0  0  0  0  0
   -2.0718   -0.4366    1.8594 N   0  0  0  0  0  0  0  0  0  0  0  0
    1.4865    2.6066   -0.5121 H   0  0  0  0  0  0  0  0  0  0  0  0
   -0.1177    2.5540   -1.2617 H   0  0  0  0  0  0  0  0  0  0  0  0
    0.0360    2.5474    0.5041 H   0  0  0  0  0  0  0  0  0  0  0  0
    0.4673   -0.3765   -2.4569 H   0  0  0  0  0  0  0  0  0  0  0  0
    2.1130   -0.3504   -1.7126 H   0  0  0  0  0  0  0  0  0  0  0  0
    2.3538   -0.3445    0.4840 H   0  0  0  0  0  0  0  0  0  0  0  0
    0.9086   -0.3711    1.5645 H   0  0  0  0  0  0  0  0  0  0  0  0
   -1.3097   -0.4102   -1.1922 H   0  0  0  0  0  0  0  0  0  0  0  0
  1 11  1  0  0  0  0
  2  1  1  0  0  0  0
  2  6  1  1  0  0  0
  2  5  1  0  0  0  0
  3  2  1  0  0  0  0
  4  3  1  6  0  0  0
  4  5  1  0  0  0  0
  5 15  1  0  0  0  0
  6  4  1  6  0  0  0
  6  7  1  0  0  0  0
  7  8  3  0  0  0  0
  9  1  1  0  0  0  0
 10  1  1  0  0  0  0
 12  3  1  0  0  0  0
 13  3  1  0  0  0  0
 14  5  1  0  0  0  0
 16  6  1  0  0  0  0
M  END
