title
 OpenBabel02282109583D

 15 16  0  0  1  0  0  0  0  0999 V2000
    0.3817    2.0617   -0.5993 N   0  0  0  0  0  0  0  0  0  0  0  0
    0.5164    0.6524   -0.4689 C   0  0  1  0  0  0  0  0  0  0  0  0
    0.9799   -0.3490   -1.5457 C   0  0  0  0  0  0  0  0  0  0  0  0
    0.5652   -1.2893   -0.3972 N   0  0  1  0  0  0  0  0  0  0  0  0
    1.2905   -0.2873    0.5155 C   0  0  0  0  0  0  0  0  0  0  0  0
   -0.6582   -0.3519   -0.2799 C   0  0  1  0  0  0  0  0  0  0  0  0
   -1.3913   -0.3821    0.9773 C   0  0  0  0  0  0  0  0  0  0  0  0
   -1.9915   -0.3721    1.9656 N   0  0  0  0  0  0  0  0  0  0  0  0
    0.0409    2.4797    0.2616 H   0  0  0  0  0  0  0  0  0  0  0  0
    1.2718    2.4969   -0.8212 H   0  0  0  0  0  0  0  0  0  0  0  0
    0.3721   -0.4581   -2.4475 H   0  0  0  0  0  0  0  0  0  0  0  0
    2.0476   -0.4006   -1.7690 H   0  0  0  0  0  0  0  0  0  0  0  0
    2.3778   -0.3365    0.4222 H   0  0  0  0  0  0  0  0  0  0  0  0
    0.9729   -0.3327    1.5590 H   0  0  0  0  0  0  0  0  0  0  0  0
   -1.3518   -0.4564   -1.1181 H   0  0  0  0  0  0  0  0  0  0  0  0
  1  9  1  0  0  0  0
  2  1  1  6  0  0  0
  2  5  1  0  0  0  0
  3  2  1  0  0  0  0
  3  4  1  0  0  0  0
  4  6  1  1  0  0  0
  4  5  1  0  0  0  0
  5 14  1  0  0  0  0
  6  2  1  6  0  0  0
  6  7  1  0  0  0  0
  7  8  3  0  0  0  0
 10  1  1  0  0  0  0
 11  3  1  0  0  0  0
 12  3  1  0  0  0  0
 13  5  1  0  0  0  0
 15  6  1  0  0  0  0
M  END
