15
title
O 0.40199825 2.01769 -0.40475672
C 0.52678853 0.643656 -0.42353207
C 1.0018189 -0.3136025 -1.5443963
N 0.5513344 -1.2773799 -0.43694174
C 1.271077 -0.32228822 0.5321946
C -0.6738718 -0.3240686 -0.29046875
C -1.4419671 -0.4091255 0.9315207
C -2.1150382 -0.46942323 1.9259357
H 1.2808095 2.4117544 -0.43691236
H 0.40586573 -0.38259202 -2.4579027
H 2.07277 -0.37513143 -1.7506096
H 2.3597248 -0.38175994 0.4565312
H 0.9255736 -0.4012162 1.5631924
H -1.3277152 -0.38475448 -1.165369
H -2.7051828 -0.5234001 2.8073967
