title
 OpenBabel02282109583D

 14 15  0  0  1  0  0  0  0  0999 V2000
    0.4050    2.0182   -0.4035 O   0  0  0  0  0  0  0  0  0  0  0  0
    0.5408    0.6502   -0.4219 C   0  0  1  0  0  0  0  0  0  0  0  0
    1.0338   -0.3101   -1.5361 C   0  0  0  0  0  0  0  0  0  0  0  0
    0.5575   -1.2735   -0.4362 N   0  0  1  0  0  0  0  0  0  0  0  0
    1.2631   -0.3207    0.5480 C   0  0  0  0  0  0  0  0  0  0  0  0
   -0.6584   -0.3209   -0.3208 C   0  0  1  0  0  0  0  0  0  0  0  0
   -1.4362   -0.4064    0.9058 C   0  0  0  0  0  0  0  0  0  0  0  0
   -2.0731   -0.4611    1.8687 N   0  0  0  0  0  0  0  0  0  0  0  0
    1.2782    2.4246   -0.3684 H   0  0  0  0  0  0  0  0  0  0  0  0
    0.4560   -0.3772   -2.4607 H   0  0  0  0  0  0  0  0  0  0  0  0
    2.1079   -0.3765   -1.7192 H   0  0  0  0  0  0  0  0  0  0  0  0
    2.3519   -0.3844    0.4916 H   0  0  0  0  0  0  0  0  0  0  0  0
    0.9023   -0.4006    1.5744 H   0  0  0  0  0  0  0  0  0  0  0  0
   -1.3186   -0.3791   -1.1892 H   0  0  0  0  0  0  0  0  0  0  0  0
  1  9  1  0  0  0  0
  2  1  1  0  0  0  0
  2  6  1  1  0  0  0
  2  5  1  0  0  0  0
  3  2  1  0  0  0  0
  4  3  1  6  0  0  0
  4  5  1  0  0  0  0
  5 13  1  0  0  0  0
  6  4  1  6  0  0  0
  6  7  1  0  0  0  0
  7  8  3  0  0  0  0
 10  3  1  0  0  0  0
 11  3  1  0  0  0  0
 12  5  1  0  0  0  0
 14  6  1  0  0  0  0
M  END
