title
 OpenBabel02282109583D

 18 19  0  0  1  0  0  0  0  0999 V2000
    1.0129    2.0924   -0.0627 C   0  0  0  0  0  0  0  0  0  0  0  0
    0.7233    0.6351   -0.3034 C   0  0  1  0  0  0  0  0  0  0  0  0
    1.1579   -0.2350   -1.5229 C   0  0  0  0  0  0  0  0  0  0  0  0
    0.3295   -1.1887   -0.6158 C   0  0  1  0  0  0  0  0  0  0  0  0
    1.1044   -0.5846    0.5922 C   0  0  0  0  0  0  0  0  0  0  0  0
   -0.7068   -0.0396   -0.4837 C   0  0  1  0  0  0  0  0  0  0  0  0
   -1.6996    0.0058    0.6393 C   0  0  0  0  0  0  0  0  0  0  0  0
   -1.7919   -0.7934    1.5400 O   0  0  0  0  0  0  0  0  0  0  0  0
    2.0939    2.2656   -0.0199 H   0  0  0  0  0  0  0  0  0  0  0  0
    0.6054    2.7164   -0.8656 H   0  0  0  0  0  0  0  0  0  0  0  0
    0.5830    2.4345    0.8846 H   0  0  0  0  0  0  0  0  0  0  0  0
    0.7296    0.0278   -2.4949 H   0  0  0  0  0  0  0  0  0  0  0  0
    2.2279   -0.4478   -1.5992 H   0  0  0  0  0  0  0  0  0  0  0  0
    0.1011   -2.2388   -0.7931 H   0  0  0  0  0  0  0  0  0  0  0  0
    2.1727   -0.8148    0.6378 H   0  0  0  0  0  0  0  0  0  0  0  0
    0.6334   -0.6626    1.5707 H   0  0  0  0  0  0  0  0  0  0  0  0
   -1.2059    0.2700   -1.4115 H   0  0  0  0  0  0  0  0  0  0  0  0
   -2.3974    0.8755    0.5859 H   0  0  0  0  0  0  0  0  0  0  0  0
  1  9  1  0  0  0  0
  1 11  1  0  0  0  0
  2  6  1  6  0  0  0
  2  1  1  0  0  0  0
  2  5  1  0  0  0  0
  3  4  1  0  0  0  0
  3  2  1  0  0  0  0
  4 14  1  6  0  0  0
  4  5  1  0  0  0  0
  5 15  1  0  0  0  0
  5 16  1  0  0  0  0
  6  4  1  6  0  0  0
  6  7  1  0  0  0  0
  7  8  2  0  0  0  0
 10  1  1  0  0  0  0
 12  3  1  0  0  0  0
 13  3  1  0  0  0  0
 17  6  1  0  0  0  0
 18  7  1  0  0  0  0
M  END
