16
title
C 0.65382653 2.1075938 -0.24356441
C 0.64718544 0.61770815 -0.37516755
C 1.319511 -0.29698622 -1.433559
C 0.772824 -1.1697237 -0.2866747
O 1.3104935 -0.19479948 0.68566227
C -0.5685988 -0.3795125 -0.32595083
C -1.4186114 -0.38194042 0.910071
O -2.6256707 -0.41952425 0.88203883
H 1.6821659 2.4811053 -0.23380898
H 0.12662147 2.562414 -1.0877004
H 0.16076218 2.4197154 0.6815657
H 0.8509762 -0.37771124 -2.4172177
H 2.4070823 -0.22342348 -1.4758437
H 0.92945975 -2.2270765 -0.0764399
H -1.1795796 -0.46328765 -1.227689
H -0.8580336 -0.34491944 1.8647097
