title
 OpenBabel02282109583D

 16 17  0  0  1  0  0  0  0  0999 V2000
    0.9609    1.9197   -0.0518 O   0  0  0  0  0  0  0  0  0  0  0  0
    0.7344    0.5814   -0.2962 C   0  0  1  0  0  0  0  0  0  0  0  0
    1.1366   -0.2734   -1.5396 C   0  0  0  0  0  0  0  0  0  0  0  0
    0.2708   -1.1950   -0.6315 C   0  0  1  0  0  0  0  0  0  0  0  0
    1.0788   -0.6560    0.5883 C   0  0  0  0  0  0  0  0  0  0  0  0
   -0.7127    0.0011   -0.4722 C   0  0  1  0  0  0  0  0  0  0  0  0
   -1.6893    0.0756    0.6667 C   0  0  0  0  0  0  0  0  0  0  0  0
   -1.8289   -0.7550    1.5315 O   0  0  0  0  0  0  0  0  0  0  0  0
    1.9061    2.0526    0.0805 H   0  0  0  0  0  0  0  0  0  0  0  0
    0.7098    0.0242   -2.5007 H   0  0  0  0  0  0  0  0  0  0  0  0
    2.1939   -0.5392   -1.6246 H   0  0  0  0  0  0  0  0  0  0  0  0
   -0.0048   -2.2282   -0.8210 H   0  0  0  0  0  0  0  0  0  0  0  0
    2.1351   -0.9380    0.6195 H   0  0  0  0  0  0  0  0  0  0  0  0
    0.6054   -0.7309    1.5652 H   0  0  0  0  0  0  0  0  0  0  0  0
   -1.2013    0.3489   -1.3907 H   0  0  0  0  0  0  0  0  0  0  0  0
   -2.3197    0.9945    0.6567 H   0  0  0  0  0  0  0  0  0  0  0  0
  1  9  1  0  0  0  0
  2  6  1  6  0  0  0
  2  1  1  0  0  0  0
  2  5  1  0  0  0  0
  3  4  1  0  0  0  0
  3  2  1  0  0  0  0
  4 12  1  6  0  0  0
  4  5  1  0  0  0  0
  5 13  1  0  0  0  0
  5 14  1  0  0  0  0
  6  4  1  6  0  0  0
  6  7  1  0  0  0  0
  7  8  2  0  0  0  0
 10  3  1  0  0  0  0
 11  3  1  0  0  0  0
 15  6  1  0  0  0  0
 16  7  1  0  0  0  0
M  END
