title
 OpenBabel02282109583D

 15 16  0  0  1  0  0  0  0  0999 V2000
    0.3501    2.1192   -0.3756 O   0  0  0  0  0  0  0  0  0  0  0  0
    0.4940    0.7478   -0.4452 C   0  0  1  0  0  0  0  0  0  0  0  0
    0.9849   -0.1656   -1.5947 C   0  0  0  0  0  0  0  0  0  0  0  0
    0.5155   -1.1688   -0.5263 N   0  0  1  0  0  0  0  0  0  0  0  0
    1.2317   -0.2492    0.4838 C   0  0  0  0  0  0  0  0  0  0  0  0
   -0.7008   -0.2432   -0.3704 C   0  0  1  0  0  0  0  0  0  0  0  0
   -1.5587   -0.3364    0.8623 C   0  0  0  0  0  0  0  0  0  0  0  0
   -1.3335   -1.0040    1.8400 O   0  0  0  0  0  0  0  0  0  0  0  0
    1.2232    2.5270   -0.3981 H   0  0  0  0  0  0  0  0  0  0  0  0
    0.4025   -0.1986   -2.5186 H   0  0  0  0  0  0  0  0  0  0  0  0
    2.0596   -0.2216   -1.7847 H   0  0  0  0  0  0  0  0  0  0  0  0
    2.3203   -0.2990    0.4006 H   0  0  0  0  0  0  0  0  0  0  0  0
    0.8914   -0.3802    1.5081 H   0  0  0  0  0  0  0  0  0  0  0  0
   -1.3513   -0.2438   -1.2533 H   0  0  0  0  0  0  0  0  0  0  0  0
   -2.4742    0.2956    0.7967 H   0  0  0  0  0  0  0  0  0  0  0  0
  2  1  1  0  0  0  0
  2  6  1  1  0  0  0
  2  5  1  0  0  0  0
  3  2  1  0  0  0  0
  4  3  1  6  0  0  0
  4  5  1  0  0  0  0
  5 13  1  0  0  0  0
  6  4  1  6  0  0  0
  6  7  1  0  0  0  0
  7  8  2  0  0  0  0
  9  1  1  0  0  0  0
 10  3  1  0  0  0  0
 11  3  1  0  0  0  0
 12  5  1  0  0  0  0
 14  6  1  0  0  0  0
 15  7  1  0  0  0  0
M  END
