15
title
O 0.3500743 2.1191642 -0.37558275
C 0.4940188 0.7478391 -0.44515046
C 0.98489743 -0.16562517 -1.5946524
N 0.5154666 -1.1687537 -0.52630943
C 1.2316782 -0.24921174 0.4837555
C -0.7007614 -0.24324413 -0.3704237
C -1.5587409 -0.33639854 0.86231124
O -1.3335379 -1.0039704 1.8399826
H 1.2232288 2.527037 -0.39811626
H 0.4025461 -0.19862534 -2.5186207
H 2.0596232 -0.22158547 -1.7846911
H 2.3203118 -0.29902357 0.40058038
H 0.8914237 -0.38024646 1.50813
H -1.3513199 -0.24379964 -1.2532905
H -2.4741611 0.2955569 0.79671144
