20
title
C 0.8185434 1.9277656 -0.2113252
C 0.74067247 0.42706683 -0.29843682
C 1.2385114 -0.48977178 -1.4616625
C 0.62765247 -1.4565632 -0.4079457
C 1.3815583 -0.62283653 0.6665767
C -0.56028366 -0.45233637 -0.30617058
C -1.5197998 -0.454915 0.8669854
O -2.1964047 0.80016726 0.8538125
H 1.8595648 2.2701204 -0.20417783
H 0.31526807 2.3938682 -1.0653923
H 0.32774118 2.2902133 0.69686645
H 0.70966303 -0.40146255 -2.4155762
H 2.3212 -0.54853934 -1.6062772
H 0.5652049 -2.5437853 -0.47538126
H 2.473619 -0.6865675 0.6443905
H 1.0190482 -0.6596524 1.6954547
H -1.1422346 -0.3520763 -1.2302241
H -2.2323625 -1.287479 0.74637336
H -1.0033501 -0.609469 1.8243221
H -2.8442829 0.79906243 1.5644923
