title
 OpenBabel02282109583D

 18 19  0  0  1  0  0  0  0  0999 V2000
    0.7504    2.2530   -0.2812 C   0  0  0  0  0  0  0  0  0  0  0  0
    0.6539    0.7651   -0.4148 C   0  0  1  0  0  0  0  0  0  0  0  0
    1.2675   -0.1777   -1.4856 C   0  0  0  0  0  0  0  0  0  0  0  0
    0.7035   -1.0285   -0.3299 C   0  0  1  0  0  0  0  0  0  0  0  0
    1.3092   -0.0810    0.6304 O   0  0  0  0  0  0  0  0  0  0  0  0
   -0.5946   -0.1729   -0.3402 C   0  0  1  0  0  0  0  0  0  0  0  0
   -1.4696   -0.1416    0.8990 C   0  0  0  0  0  0  0  0  0  0  0  0
   -2.3162   -1.2839    0.9829 O   0  0  0  0  0  0  0  0  0  0  0  0
    1.7980    2.5685   -0.2777 H   0  0  0  0  0  0  0  0  0  0  0  0
    0.2444    2.7407   -1.1204 H   0  0  0  0  0  0  0  0  0  0  0  0
    0.2834    2.5920    0.6484 H   0  0  0  0  0  0  0  0  0  0  0  0
    0.7795   -0.2356   -2.4619 H   0  0  0  0  0  0  0  0  0  0  0  0
    2.3563   -0.1522   -1.5480 H   0  0  0  0  0  0  0  0  0  0  0  0
    0.8372   -2.0927   -0.1308 H   0  0  0  0  0  0  0  0  0  0  0  0
   -1.1949   -0.2402   -1.2534 H   0  0  0  0  0  0  0  0  0  0  0  0
   -0.8420   -0.0318    1.7916 H   0  0  0  0  0  0  0  0  0  0  0  0
   -2.1462    0.7191    0.8532 H   0  0  0  0  0  0  0  0  0  0  0  0
   -1.7566   -2.0464    1.1594 H   0  0  0  0  0  0  0  0  0  0  0  0
  1  9  1  0  0  0  0
  1 11  1  0  0  0  0
  2  6  1  1  0  0  0
  2  1  1  0  0  0  0
  2  5  1  0  0  0  0
  3  2  1  0  0  0  0
  3  4  1  0  0  0  0
  4  6  1  1  0  0  0
  4 14  1  0  0  0  0
  4  5  1  0  0  0  0
  6 15  1  6  0  0  0
  6  7  1  0  0  0  0
  7  8  1  0  0  0  0
  7 16  1  0  0  0  0
  8 18  1  0  0  0  0
 10  1  1  0  0  0  0
 12  3  1  0  0  0  0
 13  3  1  0  0  0  0
 17  7  1  0  0  0  0
M  END
