22
title
C -0.89534986 2.640982 0.985262
C -1.0599083 1.1186616 0.8886875
C -0.24399868 0.51888186 -0.25011864
C 1.3021728 0.30608118 -0.15576817
C 1.0392678 -0.922336 0.7594349
C -0.013540831 -1.0287257 -0.39115098
C -1.0616242 -2.0943718 -0.57985044
C 1.1561989 -0.6661581 -1.3596125
H 0.14401975 2.914116 1.1965797
H -1.179897 3.1301875 0.04692499
H -1.51896 3.0596564 1.7813898
H -0.80042 0.66608775 1.8513415
H -2.119114 0.8812298 0.7199094
H -0.55125034 0.98824245 -1.1950462
H 2.0684555 1.0714483 -0.024533052
H 1.8171569 -1.6920549 0.767723
H 0.6715707 -0.7394686 1.7706271
H -1.7651002 -2.111831 0.26023176
H -1.6386883 -1.9226795 -1.4955623
H -0.60570097 -3.0880716 -0.65314066
H 0.87726647 -0.22424841 -2.3213217
H 1.9408709 -1.4194995 -1.4764228
