title
 OpenBabel02282109583D

 20 21  0  0  1  0  0  0  0  0999 V2000
   -0.8845    2.6879    1.0026 C   0  0  0  0  0  0  0  0  0  0  0  0
   -1.0743    1.1668    0.9361 C   0  0  0  0  0  0  0  0  0  0  0  0
   -0.2904    0.5358   -0.2060 C   0  0  1  0  0  0  0  0  0  0  0  0
    1.2400    0.2617   -0.1628 C   0  0  1  0  0  0  0  0  0  0  0  0
    1.0283   -0.9248    0.8015 C   0  0  0  0  0  0  0  0  0  0  0  0
   -0.0297   -1.0005   -0.3356 C   0  0  1  0  0  0  0  0  0  0  0  0
   -0.9761   -2.1039   -0.6931 C   0  0  0  0  0  0  0  0  0  0  0  0
    1.0628   -0.6724   -1.2963 O   0  0  0  0  0  0  0  0  0  0  0  0
    0.1629    2.9492    1.1879 H   0  0  0  0  0  0  0  0  0  0  0  0
   -1.1815    3.1646    0.0621 H   0  0  0  0  0  0  0  0  0  0  0  0
   -1.4850    3.1280    1.8045 H   0  0  0  0  0  0  0  0  0  0  0  0
   -0.7997    0.7236    1.8991 H   0  0  0  0  0  0  0  0  0  0  0  0
   -2.1393    0.9412    0.7915 H   0  0  0  0  0  0  0  0  0  0  0  0
   -0.5809    0.9622   -1.1721 H   0  0  0  0  0  0  0  0  0  0  0  0
    2.0740    0.9614   -0.2225 H   0  0  0  0  0  0  0  0  0  0  0  0
    1.8008   -1.6936    0.7511 H   0  0  0  0  0  0  0  0  0  0  0  0
    0.6961   -0.7315    1.8235 H   0  0  0  0  0  0  0  0  0  0  0  0
   -1.7293   -2.2270    0.0919 H   0  0  0  0  0  0  0  0  0  0  0  0
   -1.4894   -1.8790   -1.6331 H   0  0  0  0  0  0  0  0  0  0  0  0
   -0.4393   -3.0505   -0.8081 H   0  0  0  0  0  0  0  0  0  0  0  0
  1  9  1  0  0  0  0
  1 11  1  0  0  0  0
  2  1  1  0  0  0  0
  2 12  1  0  0  0  0
  3  6  1  6  0  0  0
  3  2  1  0  0  0  0
  4  3  1  1  0  0  0
  4  5  1  0  0  0  0
  5 17  1  0  0  0  0
  6  7  1  6  0  0  0
  6  5  1  0  0  0  0
  7 18  1  0  0  0  0
  8  6  1  0  0  0  0
  8  4  1  0  0  0  0
 10  1  1  0  0  0  0
 13  2  1  0  0  0  0
 14  3  1  0  0  0  0
 15  4  1  0  0  0  0
 16  5  1  0  0  0  0
 19  7  1  0  0  0  0
 20  7  1  0  0  0  0
M  END
