20
title
C -0.88452077 2.6879163 1.0025693
C -1.074339 1.166757 0.9361041
C -0.29040578 0.5358176 -0.20596509
C 1.24001 0.26170638 -0.16275708
C 1.0282799 -0.9247865 0.80150336
C -0.029670253 -1.0004526 -0.3356425
C -0.97609496 -2.103905 -0.69307655
O 1.0627656 -0.6724245 -1.296338
H 0.16285472 2.9491973 1.1878989
H -1.1815218 3.164551 0.06212719
H -1.4850477 3.1280153 1.8044757
H -0.7997238 0.72355187 1.8991292
H -2.1392536 0.9412039 0.79152983
H -0.58088475 0.9622159 -1.172057
H 2.074046 0.96143 -0.22253816
H 1.800827 -1.6935617 0.75112253
H 0.6961054 -0.73148185 1.823486
H -1.7292887 -2.2269719 0.091875456
H -1.4893676 -1.8790096 -1.6330718
H -0.43930542 -3.0505033 -0.80807287
