20
title
C -0.93822354 2.6455166 0.96814734
C -1.0623282 1.1184117 0.8956647
C -0.24654062 0.525599 -0.24552405
C 1.3064688 0.32076535 -0.16430604
C 1.0667077 -0.8976927 0.7728878
C 0.008887097 -1.0005972 -0.37356746
O -1.0156094 -1.9178832 -0.5226202
C 1.1636156 -0.6557095 -1.3669351
H 0.09553008 2.9514506 1.1621583
H -1.2488317 3.1132631 0.027133696
H -1.5633844 3.0575993 1.7663516
H -0.7791808 0.68529177 1.8602498
H -2.1137109 0.844843 0.7402753
H -0.56252635 0.9813087 -1.1928385
H 2.066572 1.0895503 -0.04693926
H 1.8521446 -1.6597028 0.7769987
H 0.7059369 -0.70306087 1.7830688
H -0.6326562 -2.8004315 -0.5701082
H 0.8710885 -0.21945164 -2.3257265
H 1.9552563 -1.4020965 -1.4809757
