title
 OpenBabel02282109583D

 20 21  0  0  1  0  0  0  0  0999 V2000
   -0.9382    2.6455    0.9681 C   0  0  0  0  0  0  0  0  0  0  0  0
   -1.0623    1.1184    0.8957 C   0  0  0  0  0  0  0  0  0  0  0  0
   -0.2465    0.5256   -0.2455 C   0  0  1  0  0  0  0  0  0  0  0  0
    1.3065    0.3208   -0.1643 C   0  0  1  0  0  0  0  0  0  0  0  0
    1.0667   -0.8977    0.7729 C   0  0  0  0  0  0  0  0  0  0  0  0
    0.0089   -1.0006   -0.3736 C   0  0  1  0  0  0  0  0  0  0  0  0
   -1.0156   -1.9179   -0.5226 O   0  0  0  0  0  0  0  0  0  0  0  0
    1.1636   -0.6557   -1.3669 C   0  0  0  0  0  0  0  0  0  0  0  0
    0.0955    2.9515    1.1622 H   0  0  0  0  0  0  0  0  0  0  0  0
   -1.2488    3.1133    0.0271 H   0  0  0  0  0  0  0  0  0  0  0  0
   -1.5634    3.0576    1.7664 H   0  0  0  0  0  0  0  0  0  0  0  0
   -0.7792    0.6853    1.8602 H   0  0  0  0  0  0  0  0  0  0  0  0
   -2.1137    0.8448    0.7403 H   0  0  0  0  0  0  0  0  0  0  0  0
   -0.5625    0.9813   -1.1928 H   0  0  0  0  0  0  0  0  0  0  0  0
    2.0666    1.0896   -0.0469 H   0  0  0  0  0  0  0  0  0  0  0  0
    1.8521   -1.6597    0.7770 H   0  0  0  0  0  0  0  0  0  0  0  0
    0.7059   -0.7031    1.7831 H   0  0  0  0  0  0  0  0  0  0  0  0
   -0.6327   -2.8004   -0.5701 H   0  0  0  0  0  0  0  0  0  0  0  0
    0.8711   -0.2195   -2.3257 H   0  0  0  0  0  0  0  0  0  0  0  0
    1.9553   -1.4021   -1.4810 H   0  0  0  0  0  0  0  0  0  0  0  0
  1  9  1  0  0  0  0
  1 11  1  0  0  0  0
  2  1  1  0  0  0  0
  2 12  1  0  0  0  0
  3  6  1  6  0  0  0
  3  2  1  0  0  0  0
  4  3  1  1  0  0  0
  4 15  1  0  0  0  0
  4  5  1  0  0  0  0
  5 16  1  0  0  0  0
  5 17  1  0  0  0  0
  6  7  1  6  0  0  0
  6  5  1  0  0  0  0
  8  6  1  0  0  0  0
  8  4  1  0  0  0  0
 10  1  1  0  0  0  0
 13  2  1  0  0  0  0
 14  3  1  0  0  0  0
 18  7  1  0  0  0  0
 19  8  1  0  0  0  0
 20  8  1  0  0  0  0
M  END
