19
title
C -0.8445345 2.612425 0.9740719
C -1.0960156 1.1017021 0.88692355
C -0.3244515 0.46589428 -0.25579444
N 1.2286698 0.42707765 -0.18748395
C 1.0648971 -0.7883974 0.7376353
C 0.0004854655 -1.0363523 -0.3619006
O -0.9541267 -2.0322897 -0.48300973
C 1.1206019 -0.5857547 -1.3359685
H 0.21459554 2.8194916 1.1519552
H -1.1275548 3.1145632 0.042393822
H -1.424715 3.0620787 1.7853101
H -0.8659823 0.6331067 1.848205
H -2.1613312 0.90996885 0.7059586
H -0.6426694 0.92369473 -1.2004168
H 1.9471034 -1.4347595 0.74968785
H 0.7457881 -0.5481482 1.7511486
H -0.5095844 -2.8863065 -0.5225429
H 0.8288175 -0.13943928 -2.2900128
H 2.0076082 -1.2172896 -1.4353187
