20
title
C 1.0579244 2.4836228 -0.45953038
O 0.9737505 1.2453632 0.21055305
C -0.2552817 0.6008595 0.031520266
C -0.5225234 -0.2463707 -1.2535467
C 0.54172474 -1.2485471 -0.7223015
C -0.31844795 -0.8671191 0.5302629
C -0.14861393 -1.3475885 1.9463624
C -1.5670749 -1.0110118 -0.3955211
H 2.0272498 2.923196 -0.21226698
H 0.9886426 2.3664308 -1.5510579
H 0.2627148 3.173777 -0.1366137
H -1.0834562 1.2557597 0.34606892
H -0.6499069 0.10834298 -2.2766132
H 0.44914418 -2.281405 -1.070494
H 1.5778764 -0.9105334 -0.7194169
H 0.82597417 -1.0442598 2.3427207
H -0.92256904 -0.93051624 2.600428
H -0.21280491 -2.4395702 2.003671
H -2.4692435 -0.46578446 -0.09921866
H -1.8037254 -2.0259864 -0.7232767
