18
title
C -0.17047516 2.5236423 1.1966976
O -0.6884521 1.2628461 0.8219147
C 0.050924458 0.637144 -0.1791903
C 1.2874366 -0.2590712 0.14839284
C 0.35628662 -1.2746488 0.8411458
C -0.30226946 -0.83816314 -0.49859682
C -1.4867913 -1.397756 -1.2191349
O 1.0388149 -0.93105376 -1.1428987
H 0.8329918 2.4391031 1.6386307
H -0.113217585 3.207012 0.33623454
H -0.8504058 2.9455454 1.9401147
H 0.19118747 1.2688274 -1.0662462
H 2.3177304 0.012326854 0.37695757
H 0.72546476 -2.3012614 0.8565946
H -0.13555892 -0.96994984 1.7657952
H -2.3971064 -1.2022682 -0.64405465
H -1.5914745 -0.9319664 -2.2037737
H -1.3842585 -2.47869 -1.3529607
