18
title
C -0.27229226 2.4790487 1.198387
O -0.72541034 1.2113433 0.7738737
C 0.07911026 0.6317791 -0.21304807
C 1.3573945 -0.17931685 0.17877594
C 0.42063555 -1.2374095 0.8298426
C -0.24006046 -0.85061747 -0.53921974
O -1.3806652 -1.3606519 -1.1237653
C 1.1662349 -0.9317911 -1.1721061
H 0.71358675 2.4216359 1.6821585
H -0.20336922 3.185388 0.3568215
H -0.99882215 2.8600311 1.9200535
H 0.19217731 1.3070244 -1.0744425
H 2.2918036 0.20598093 0.57867247
H 0.815074 -2.2539656 0.8993654
H -0.10704435 -0.93339115 1.7334913
H -2.13459 -1.082323 -0.59146273
H 1.3283794 -0.3608974 -2.0907657
H 1.6099612 -1.9274188 -1.2281502
