17
title
O 1.1927474 2.46879 0.10427009
C 1.3148701 1.1023833 0.46608865
C -0.05081036 0.44254094 0.43473983
N -0.7533965 0.4019726 -0.9507064
C 0.10280345 -0.8379554 -1.250894
C -0.33190158 -1.056997 0.2220517
O 0.010536531 -2.0465956 1.1243773
C -1.7239258 -0.5781706 -0.277252
H 0.65205365 2.4914646 -0.69463134
H 2.0516977 0.58629596 -0.16456892
H 1.7009296 1.0795239 1.4908532
H -0.6937598 0.9368745 1.1706241
H -0.34006324 -1.4826947 -2.0148165
H 1.1471821 -0.6278289 -1.477521
H -0.27770808 -2.8987157 0.77865165
H -2.3971786 -0.10542614 0.44158587
H -2.26316 -1.2062048 -0.9914238
