title
 OpenBabel02282109583D

 17 18  0  0  1  0  0  0  0  0999 V2000
   -0.1164    2.3420    0.0081 C   0  0  0  0  0  0  0  0  0  0  0  0
    0.0619    0.8468    0.0216 C   0  0  1  0  0  0  0  0  0  0  0  0
    1.0890    0.1201   -0.8894 C   0  0  0  0  0  0  0  0  0  0  0  0
    1.0270   -1.0196    0.1716 C   0  0  1  0  0  0  0  0  0  0  0  0
    0.7116    0.0940    1.2149 C   0  0  0  0  0  0  0  0  0  0  0  0
   -0.1830   -1.8171   -0.0553 N   0  0  0  0  0  0  0  0  0  0  0  0
   -1.2137   -1.1006   -0.2313 C   0  0  0  0  0  0  0  0  0  0  0  0
   -1.2457    0.2540   -0.2203 O   0  0  0  0  0  0  0  0  0  0  0  0
    0.8428    2.8359    0.1860 H   0  0  0  0  0  0  0  0  0  0  0  0
   -0.5075    2.6749   -0.9583 H   0  0  0  0  0  0  0  0  0  0  0  0
   -0.8199    2.6534    0.7865 H   0  0  0  0  0  0  0  0  0  0  0  0
    0.7879   -0.1196   -1.9113 H   0  0  0  0  0  0  0  0  0  0  0  0
    2.0492    0.6405   -0.8823 H   0  0  0  0  0  0  0  0  0  0  0  0
    1.8896   -1.6682    0.3182 H   0  0  0  0  0  0  0  0  0  0  0  0
    1.6122    0.6103    1.5544 H   0  0  0  0  0  0  0  0  0  0  0  0
    0.0752   -0.1688    2.0625 H   0  0  0  0  0  0  0  0  0  0  0  0
   -2.1985   -1.5233   -0.4131 H   0  0  0  0  0  0  0  0  0  0  0  0
  1  9  1  0  0  0  0
  1 11  1  0  0  0  0
  2  1  1  1  0  0  0
  2  5  1  0  0  0  0
  3 13  1  0  0  0  0
  3  2  1  0  0  0  0
  3  4  1  0  0  0  0
  4 14  1  1  0  0  0
  4  5  1  0  0  0  0
  5 15  1  0  0  0  0
  5 16  1  0  0  0  0
  6  4  1  0  0  0  0
  7  8  1  0  0  0  0
  7  6  2  0  0  0  0
  8  2  1  0  0  0  0
 10  1  1  0  0  0  0
 12  3  1  0  0  0  0
 17  7  1  0  0  0  0
M  END
