title
 OpenBabel02282109583D

 18 19  0  0  1  0  0  0  0  0999 V2000
   -0.0584    2.2318   -0.0660 O   0  0  0  0  0  0  0  0  0  0  0  0
   -0.0058    0.8296    0.0051 C   0  0  1  0  0  0  0  0  0  0  0  0
    0.2355    0.1363    1.3813 C   0  0  0  0  0  0  0  0  0  0  0  0
   -0.7090   -0.9832    0.8403 C   0  0  1  0  0  0  0  0  0  0  0  0
   -1.3848    0.1322   -0.0199 C   0  0  0  0  0  0  0  0  0  0  0  0
    0.0924   -1.8774   -0.0815 C   0  0  0  0  0  0  0  0  0  0  0  0
    0.8742   -1.2968   -0.9920 C   0  0  0  0  0  0  0  0  0  0  0  0
    0.9181    0.2134   -1.0622 C   0  0  0  0  0  0  0  0  0  0  0  0
    0.8434    2.5676   -0.1184 H   0  0  0  0  0  0  0  0  0  0  0  0
    1.2538   -0.1481    1.6592 H   0  0  0  0  0  0  0  0  0  0  0  0
   -0.2327    0.7179    2.1795 H   0  0  0  0  0  0  0  0  0  0  0  0
   -1.3250   -1.5312    1.5526 H   0  0  0  0  0  0  0  0  0  0  0  0
   -2.1075    0.7130    0.5587 H   0  0  0  0  0  0  0  0  0  0  0  0
   -1.8083   -0.1508   -0.9863 H   0  0  0  0  0  0  0  0  0  0  0  0
    0.0181   -2.9563    0.0121 H   0  0  0  0  0  0  0  0  0  0  0  0
    1.4787   -1.8683   -1.6899 H   0  0  0  0  0  0  0  0  0  0  0  0
    0.6113    0.5714   -2.0548 H   0  0  0  0  0  0  0  0  0  0  0  0
    1.9485    0.5739   -0.9120 H   0  0  0  0  0  0  0  0  0  0  0  0
  2  1  1  1  0  0  0
  2  3  1  0  0  0  0
  3 10  1  0  0  0  0
  3 11  1  0  0  0  0
  4  3  1  0  0  0  0
  4 12  1  1  0  0  0
  5  2  1  0  0  0  0
  5 13  1  0  0  0  0
  5  4  1  0  0  0  0
  6 15  1  0  0  0  0
  6  4  1  0  0  0  0
  7  6  2  0  0  0  0
  8  7  1  0  0  0  0
  8 18  1  0  0  0  0
  8  2  1  0  0  0  0
  9  1  1  0  0  0  0
 14  5  1  0  0  0  0
 16  7  1  0  0  0  0
 17  8  1  0  0  0  0
M  END
