17
title
C -0.08857679 2.3868196 -0.0010203669
C 0.020629508 0.87999386 0.009147557
C 1.0642474 0.14440905 -0.89507025
C 1.0078101 -0.97167295 0.1741569
C 0.6878858 0.13135456 1.2100375
O -0.17002417 -1.778096 -0.041428313
C -1.2697314 -1.0103923 -0.23329575
N -1.2963747 0.25669524 -0.23018026
H 0.88631374 2.8521981 0.17605805
H -0.47334045 2.7349803 -0.96492803
H -0.78406614 2.7241955 0.7741253
H 0.7673105 -0.10593738 -1.9156313
H 2.036599 0.6420172 -0.8875858
H 1.832883 -1.6676571 0.3173522
H 1.6015291 0.62692434 1.5459014
H 0.05627267 -0.13059725 2.0614104
H -2.1579072 -1.6156867 -0.39581275
