18
title
C -0.057055015 2.352495 0.023673046
C 0.06529849 0.84980273 -0.015960835
C 0.7722801 0.13232534 -1.1980965
C -0.3707288 -0.88019913 -0.9789638
C -0.0491298 -1.8881454 0.1354222
C 0.46144512 -1.1298484 1.3428854
C 0.5278797 0.19924442 1.2806025
O -1.1856645 0.18555449 -0.41561967
H 0.91484314 2.8082721 0.24218307
H -0.41755873 2.735052 -0.9345853
H -0.7597613 2.6592178 0.80587983
H 0.6473625 0.6766915 -2.1366959
H 1.8070164 -0.18936224 -1.0659609
H -0.8416223 -1.3434522 -1.8501692
H -0.9506091 -2.4592063 0.3939654
H 0.69322383 -2.6202388 -0.2112129
H 0.7508727 -1.6859269 2.229889
H 0.8890889 0.81500775 2.0984032
