18
title
O -0.038760703 2.2582297 -0.033137463
C -0.006094738 0.85659224 0.022783825
C 0.23007649 0.120527744 1.3803748
C -0.7012255 -0.983589 0.79684705
C -1.3826268 0.1499021 -0.029506534
C 0.095679894 -1.9257778 -0.12482941
C 0.94124115 -1.1184593 -1.0840905
C 0.892737 0.21152782 -1.0195888
H 0.8661965 2.5840707 0.024049977
H 1.2556307 -0.14762616 1.6479744
H -0.252552 0.65780056 2.2008438
H -1.3256468 -1.5395519 1.4981824
H -2.1181626 0.69101006 0.5709937
H -1.7938956 -0.08674431 -1.0134485
H 0.73008716 -2.5962565 0.4722637
H -0.58721894 -2.5814 -0.6836911
H 1.5588107 -1.6394848 -1.81002
H 1.4503973 0.86004764 -1.6899647
