17
title
O -0.007509635 2.2666655 -0.063776486
C 0.016682507 0.8680975 0.0013017538
C 0.22004445 0.10509798 1.3426969
N -0.71625644 -0.95249546 0.81220824
C -1.3422911 0.13797876 -0.024399444
C 0.03992364 -1.8688381 -0.06750002
C 0.92082804 -1.1364541 -1.0625077
C 0.9070325 0.19516024 -1.032178
H 0.9001451 2.5888655 -0.0912899
H 1.2248167 -0.2400538 1.6004196
H -0.24375689 0.61210865 2.1942384
H -2.1104188 0.6513101 0.5614
H -1.7427372 -0.17352632 -0.99192834
H 0.6401768 -2.5353947 0.5659632
H -0.67806774 -2.513802 -0.5913726
H 1.520638 -1.7051082 -1.7679558
H 1.4790117 0.81897783 -1.7135334
