20
title
C -0.11644256 2.3584719 0.06559178
C 0.03931464 0.85522103 0.06340368
C 1.1135104 0.1635318 -0.83218443
C 1.1069053 -0.9678338 0.23889415
C 0.6955491 0.1208309 1.2692795
C -0.10175914 -1.8880476 0.0055959946
C -1.2571995 -1.0590768 -0.5936518
O -1.260007 0.29806453 -0.15890506
H 0.8366771 2.845203 0.29188013
H -0.4677734 2.7103322 -0.90951633
H -0.8507123 2.6623201 0.8184364
H 0.8591229 -0.074759476 -1.8682473
H 2.0475574 0.73077655 -0.81483483
H 2.0276563 -1.5282198 0.41448632
H 1.5578636 0.6676507 1.6613655
H 0.029223075 -0.16664724 2.0873194
H 0.14529625 -2.7013671 -0.68647385
H -0.3952506 -2.3495827 0.955626
H -1.1910968 -1.0877072 -1.6909721
H -2.2334492 -1.4712123 -0.32177794
