20
title
C -0.06389342 2.416082 0.084596835
C 0.03968753 0.9022711 0.06863714
C 1.0920074 0.18969369 -0.837056
C 1.0904961 -0.92717344 0.24476057
C 0.70049113 0.16666365 1.2708173
C -0.1198322 -1.8367862 0.0070976787
O -1.1947213 -1.1261204 -0.59333867
C -1.3220865 0.2304998 -0.19163984
H 0.9023711 2.8713007 0.32589117
H -0.38550204 2.8047836 -0.8886361
H -0.78809524 2.7582457 0.8339838
H 0.796242 -0.07826518 -1.8544425
H 2.0382998 0.737321 -0.8549097
H 1.9971641 -1.5116438 0.41754583
H 1.5714526 0.7103072 1.6492981
H 0.05938314 -0.12198608 2.1112862
H 0.124039404 -2.6456726 -0.6909984
H -0.4355115 -2.2968736 0.9589179
H -1.9515865 0.31693143 0.710999
H -1.8485755 0.7305907 -1.0134387
