20
title
C -0.1486245 2.4240644 0.29875216
C -0.021930663 0.92445946 0.10483845
C 1.1660976 0.36240712 -0.73790365
C 1.0634542 -0.8957788 0.15974317
C 0.5130014 0.03506728 1.2750266
O 0.07832042 -1.7827469 -0.3531493
C -1.2449206 -1.2614645 -0.27370167
C -1.3081367 0.27175543 -0.44625506
H 0.7951324 2.8569329 0.6482096
H -0.41799465 2.9236822 -0.6394686
H -0.9234707 2.6661189 1.035827
H 1.0177902 0.2148043 -1.8111742
H 2.0900471 0.9212358 -0.55954844
H 1.954177 -1.4974719 0.34967047
H 1.333028 0.5273445 1.8052449
H -0.19049545 -0.37316713 2.0051632
H -1.8276901 -1.7768565 -1.0427805
H -1.6828902 -1.5326177 0.6978181
H -2.1920304 0.64816517 0.08346656
H -1.4244001 0.54839504 -1.5011498
