18
title
C -0.16329224 2.3707714 0.18250985
C 0.040492598 0.8793355 0.08254625
C 1.2631105 0.2664679 -0.66693175
C 1.0275989 -0.9635498 0.24954572
C 0.4758313 0.024521573 1.3142034
O -0.021149177 -1.7523748 -0.3155003
C -1.2580491 -1.0740169 -0.26812848
O -1.1410942 0.3107691 -0.5108953
H 0.73779273 2.8549955 0.57005847
H -0.38738102 2.7897038 -0.8033453
H -1.0007557 2.6025977 0.8478676
H 1.1522032 0.10822283 -1.7408907
H 2.197273 0.78777474 -0.43980345
H 1.845673 -1.6422225 0.49342656
H 1.2935249 0.51209325 1.8492321
H -0.2740682 -0.31324908 2.031916
H -1.8938392 -1.4931208 -1.0526795
H -1.7347202 -1.2411674 0.7112158
