title
 OpenBabel02282109583D

 18 19  0  0  1  0  0  0  0  0999 V2000
   -0.1633    2.3708    0.1825 C   0  0  0  0  0  0  0  0  0  0  0  0
    0.0405    0.8793    0.0825 C   0  0  1  0  0  0  0  0  0  0  0  0
    1.2631    0.2665   -0.6669 C   0  0  0  0  0  0  0  0  0  0  0  0
    1.0276   -0.9635    0.2495 C   0  0  1  0  0  0  0  0  0  0  0  0
    0.4758    0.0245    1.3142 C   0  0  0  0  0  0  0  0  0  0  0  0
   -0.0211   -1.7524   -0.3155 O   0  0  0  0  0  0  0  0  0  0  0  0
   -1.2580   -1.0740   -0.2681 C   0  0  0  0  0  0  0  0  0  0  0  0
   -1.1411    0.3108   -0.5109 O   0  0  0  0  0  0  0  0  0  0  0  0
    0.7378    2.8550    0.5701 H   0  0  0  0  0  0  0  0  0  0  0  0
   -0.3874    2.7897   -0.8033 H   0  0  0  0  0  0  0  0  0  0  0  0
   -1.0008    2.6026    0.8479 H   0  0  0  0  0  0  0  0  0  0  0  0
    1.1522    0.1082   -1.7409 H   0  0  0  0  0  0  0  0  0  0  0  0
    2.1973    0.7878   -0.4398 H   0  0  0  0  0  0  0  0  0  0  0  0
    1.8457   -1.6422    0.4934 H   0  0  0  0  0  0  0  0  0  0  0  0
    1.2935    0.5121    1.8492 H   0  0  0  0  0  0  0  0  0  0  0  0
   -0.2741   -0.3132    2.0319 H   0  0  0  0  0  0  0  0  0  0  0  0
   -1.8938   -1.4931   -1.0527 H   0  0  0  0  0  0  0  0  0  0  0  0
   -1.7347   -1.2412    0.7112 H   0  0  0  0  0  0  0  0  0  0  0  0
  1  9  1  0  0  0  0
  1 11  1  0  0  0  0
  2  1  1  1  0  0  0
  2  5  1  0  0  0  0
  3 13  1  0  0  0  0
  3  2  1  0  0  0  0
  3  4  1  0  0  0  0
  4 14  1  1  0  0  0
  4  5  1  0  0  0  0
  5 15  1  0  0  0  0
  5 16  1  0  0  0  0
  6  7  1  0  0  0  0
  6  4  1  0  0  0  0
  7 18  1  0  0  0  0
  8  7  1  0  0  0  0
  8  2  1  0  0  0  0
 10  1  1  0  0  0  0
 12  3  1  0  0  0  0
 17  7  1  0  0  0  0
M  END
