title
 OpenBabel02282109583D

 20 21  0  0  1  0  0  0  0  0999 V2000
   -0.1527    2.3732    0.0426 C   0  0  0  0  0  0  0  0  0  0  0  0
    0.0109    0.8715    0.0036 C   0  0  1  0  0  0  0  0  0  0  0  0
    0.6491    0.1974   -1.2374 C   0  0  0  0  0  0  0  0  0  0  0  0
   -0.4679   -0.8370   -0.9938 C   0  0  1  0  0  0  0  0  0  0  0  0
   -0.0759   -1.8959    0.0372 C   0  0  0  0  0  0  0  0  0  0  0  0
    0.8408   -1.2551    1.1074 C   0  0  0  0  0  0  0  0  0  0  0  0
    0.5339    0.2501    1.3086 C   0  0  0  0  0  0  0  0  0  0  0  0
   -1.2462    0.1799   -0.3014 O   0  0  0  0  0  0  0  0  0  0  0  0
    0.8193    2.8640    0.1593 H   0  0  0  0  0  0  0  0  0  0  0  0
   -0.6174    2.7311   -0.8803 H   0  0  0  0  0  0  0  0  0  0  0  0
   -0.7877    2.6713    0.8840 H   0  0  0  0  0  0  0  0  0  0  0  0
    0.4732    0.7814   -2.1427 H   0  0  0  0  0  0  0  0  0  0  0  0
    1.6923   -0.1228   -1.1923 H   0  0  0  0  0  0  0  0  0  0  0  0
   -1.0039   -1.2473   -1.8544 H   0  0  0  0  0  0  0  0  0  0  0  0
   -1.0015   -2.2754    0.4836 H   0  0  0  0  0  0  0  0  0  0  0  0
    0.4281   -2.7451   -0.4394 H   0  0  0  0  0  0  0  0  0  0  0  0
    0.7667   -1.7934    2.0569 H   0  0  0  0  0  0  0  0  0  0  0  0
    1.8825   -1.3600    0.7857 H   0  0  0  0  0  0  0  0  0  0  0  0
    1.4297    0.7741    1.6627 H   0  0  0  0  0  0  0  0  0  0  0  0
   -0.2470    0.3936    2.0639 H   0  0  0  0  0  0  0  0  0  0  0  0
  1  9  1  0  0  0  0
  1 11  1  0  0  0  0
  2  1  1  6  0  0  0
  2  7  1  0  0  0  0
  3 13  1  0  0  0  0
  3  4  1  0  0  0  0
  3  2  1  0  0  0  0
  4 14  1  6  0  0  0
  4  8  1  0  0  0  0
  4  5  1  0  0  0  0
  5 15  1  0  0  0  0
  5  6  1  0  0  0  0
  6  7  1  0  0  0  0
  6 17  1  0  0  0  0
  7 19  1  0  0  0  0
  7 20  1  0  0  0  0
  8  2  1  0  0  0  0
 10  1  1  0  0  0  0
 12  3  1  0  0  0  0
 16  5  1  0  0  0  0
 18  6  1  0  0  0  0
M  END
