title
 OpenBabel02282109583D

 19 20  0  0  1  0  0  0  0  0999 V2000
   -0.1633    2.3685    0.0583 C   0  0  0  0  0  0  0  0  0  0  0  0
    0.0056    0.8679    0.0560 C   0  0  1  0  0  0  0  0  0  0  0  0
    1.0944    0.1553   -0.7892 C   0  0  0  0  0  0  0  0  0  0  0  0
    1.1311   -0.9357    0.2556 N   0  0  1  0  0  0  0  0  0  0  0  0
    0.6564    0.1102    1.2372 C   0  0  0  0  0  0  0  0  0  0  0  0
   -0.0112   -1.8369    0.0060 C   0  0  0  0  0  0  0  0  0  0  0  0
   -1.2340   -1.0843   -0.5824 C   0  0  0  0  0  0  0  0  0  0  0  0
   -1.2784    0.2869   -0.1888 O   0  0  0  0  0  0  0  0  0  0  0  0
    0.7833    2.8629    0.2960 H   0  0  0  0  0  0  0  0  0  0  0  0
   -0.5071    2.7189   -0.9197 H   0  0  0  0  0  0  0  0  0  0  0  0
   -0.9084    2.6648    0.8032 H   0  0  0  0  0  0  0  0  0  0  0  0
    0.8595   -0.1599   -1.8088 H   0  0  0  0  0  0  0  0  0  0  0  0
    2.0442    0.6975   -0.7886 H   0  0  0  0  0  0  0  0  0  0  0  0
    1.5169    0.6245    1.6770 H   0  0  0  0  0  0  0  0  0  0  0  0
   -0.0110   -0.2513    2.0243 H   0  0  0  0  0  0  0  0  0  0  0  0
    0.2966   -2.6253   -0.6908 H   0  0  0  0  0  0  0  0  0  0  0  0
   -0.2598   -2.3213    0.9560 H   0  0  0  0  0  0  0  0  0  0  0  0
   -1.2111   -1.1434   -1.6799 H   0  0  0  0  0  0  0  0  0  0  0  0
   -2.1757   -1.5374   -0.2573 H   0  0  0  0  0  0  0  0  0  0  0  0
  1  9  1  0  0  0  0
  1 11  1  0  0  0  0
  2  1  1  1  0  0  0
  2  5  1  0  0  0  0
  3 13  1  0  0  0  0
  3  2  1  0  0  0  0
  4  3  1  6  0  0  0
  4  5  1  0  0  0  0
  5 14  1  0  0  0  0
  5 15  1  0  0  0  0
  6  4  1  0  0  0  0
  6 17  1  0  0  0  0
  7 19  1  0  0  0  0
  7  8  1  0  0  0  0
  7  6  1  0  0  0  0
  8  2  1  0  0  0  0
 10  1  1  0  0  0  0
 12  3  1  0  0  0  0
 16  6  1  0  0  0  0
 18  7  1  0  0  0  0
M  END
