20
title
O -0.14529157 2.2690816 -0.09222663
C -0.054117765 0.86797935 -0.016376039
C 0.14972776 0.17600732 1.3697124
C -0.77172726 -0.94889426 0.80718064
C -1.4115822 0.14121507 -0.09709244
C 0.022460088 -1.9350623 -0.06677827
C 1.2022206 -1.2179877 -0.7650631
C 0.9058611 0.27269402 -1.0597664
H 0.74740607 2.6300945 -0.12274055
H 1.1615975 -0.07856019 1.6983564
H -0.35457543 0.7511153 2.149946
H -1.4286555 -1.4637648 1.5106798
H -2.1805394 0.71143574 0.43020812
H -1.7794727 -0.15167017 -1.0855778
H 0.40925142 -2.7641206 0.5367302
H -0.6576571 -2.378996 -0.80434096
H 2.07444 -1.2701603 -0.105628304
H 1.4904542 -1.7416059 -1.6816506
H 0.4638788 0.4105781 -2.0535357
H 1.8494496 0.83635396 -1.055936
