18
title
O -0.13080782 2.2664857 -0.080568574
C -0.08411849 0.86898607 0.021291817
C 0.16684918 0.15086208 1.3818126
C -0.7562313 -0.9575193 0.7954945
C -1.4475245 0.1568725 -0.038041316
C 0.069757655 -1.8466178 -0.14135657
O 1.1392262 -1.1197852 -0.7376098
C 0.8435379 0.2361676 -1.0337873
H 0.76740986 2.6091027 -0.009721196
H 1.1922494 -0.11671652 1.6478846
H -0.31657562 0.6910739 2.1988013
H -1.3705801 -1.551315 1.474474
H -2.198776 0.69964045 0.54084647
H -1.8490655 -0.10131176 -1.0230654
H 0.54415566 -2.6679504 0.40659365
H -0.5827647 -2.2874074 -0.91321623
H 0.38888967 0.3448217 -2.0318177
H 1.8103281 0.75727385 -1.0465031
