title
 OpenBabel02282109583D

 18 19  0  0  1  0  0  0  0  0999 V2000
   -0.1308    2.2665   -0.0806 O   0  0  0  0  0  0  0  0  0  0  0  0
   -0.0841    0.8690    0.0213 C   0  0  1  0  0  0  0  0  0  0  0  0
    0.1668    0.1509    1.3818 C   0  0  0  0  0  0  0  0  0  0  0  0
   -0.7562   -0.9575    0.7955 C   0  0  1  0  0  0  0  0  0  0  0  0
   -1.4475    0.1569   -0.0380 C   0  0  0  0  0  0  0  0  0  0  0  0
    0.0698   -1.8466   -0.1414 C   0  0  0  0  0  0  0  0  0  0  0  0
    1.1392   -1.1198   -0.7376 O   0  0  0  0  0  0  0  0  0  0  0  0
    0.8435    0.2362   -1.0338 C   0  0  0  0  0  0  0  0  0  0  0  0
    0.7674    2.6091   -0.0097 H   0  0  0  0  0  0  0  0  0  0  0  0
    1.1922   -0.1167    1.6479 H   0  0  0  0  0  0  0  0  0  0  0  0
   -0.3166    0.6911    2.1988 H   0  0  0  0  0  0  0  0  0  0  0  0
   -1.3706   -1.5513    1.4745 H   0  0  0  0  0  0  0  0  0  0  0  0
   -2.1988    0.6996    0.5408 H   0  0  0  0  0  0  0  0  0  0  0  0
   -1.8491   -0.1013   -1.0231 H   0  0  0  0  0  0  0  0  0  0  0  0
    0.5442   -2.6680    0.4066 H   0  0  0  0  0  0  0  0  0  0  0  0
   -0.5828   -2.2874   -0.9132 H   0  0  0  0  0  0  0  0  0  0  0  0
    0.3889    0.3448   -2.0318 H   0  0  0  0  0  0  0  0  0  0  0  0
    1.8103    0.7573   -1.0465 H   0  0  0  0  0  0  0  0  0  0  0  0
  1  9  1  0  0  0  0
  2  1  1  1  0  0  0
  2  3  1  0  0  0  0
  3 10  1  0  0  0  0
  3 11  1  0  0  0  0
  4  3  1  0  0  0  0
  4 12  1  1  0  0  0
  5  2  1  0  0  0  0
  5 13  1  0  0  0  0
  5  4  1  0  0  0  0
  6 15  1  0  0  0  0
  6  4  1  0  0  0  0
  7  6  1  0  0  0  0
  8  7  1  0  0  0  0
  8  2  1  0  0  0  0
 14  5  1  0  0  0  0
 16  6  1  0  0  0  0
 17  8  1  0  0  0  0
 18  8  1  0  0  0  0
M  END
