16
title
C -0.022115257 2.4527323 -0.16844133
C -0.00029588322 0.95283425 -0.2123836
C -1.2630054 0.07172816 -0.30369687
C -0.63515455 -0.8370288 0.7763864
O -1.0770662 -1.7227588 1.4535844
C 0.640688 -0.05702735 0.8277995
C 1.1767843 0.14405327 -0.5857235
O 1.0732288 -0.8255436 -1.5842835
H 0.9664031 2.8606918 0.06447713
H -0.33168465 2.8626113 -1.136968
H -0.7263216 2.8174138 0.58688253
H -2.1600678 0.5602659 0.08841182
H -1.4767535 -0.37766975 -1.2747946
H 1.266887 0.10551267 1.6978734
H 2.1207056 0.6931099 -0.5895691
H 1.6302307 -1.5727465 -1.3409815
