title
 OpenBabel02282109583D

 16 17  0  0  1  0  0  0  0  0999 V2000
   -0.0221    2.4527   -0.1684 C   0  0  0  0  0  0  0  0  0  0  0  0
   -0.0003    0.9528   -0.2124 C   0  0  2  0  0  0  0  0  0  0  0  0
   -1.2630    0.0717   -0.3037 C   0  0  0  0  0  0  0  0  0  0  0  0
   -0.6352   -0.8370    0.7764 C   0  0  0  0  0  0  0  0  0  0  0  0
   -1.0771   -1.7228    1.4536 O   0  0  0  0  0  0  0  0  0  0  0  0
    0.6407   -0.0570    0.8278 C   0  0  1  0  0  0  0  0  0  0  0  0
    1.1768    0.1441   -0.5857 C   0  0  1  0  0  0  0  0  0  0  0  0
    1.0732   -0.8255   -1.5843 O   0  0  0  0  0  0  0  0  0  0  0  0
    0.9664    2.8607    0.0645 H   0  0  0  0  0  0  0  0  0  0  0  0
   -0.3317    2.8626   -1.1370 H   0  0  0  0  0  0  0  0  0  0  0  0
   -0.7263    2.8174    0.5869 H   0  0  0  0  0  0  0  0  0  0  0  0
   -2.1601    0.5603    0.0884 H   0  0  0  0  0  0  0  0  0  0  0  0
   -1.4768   -0.3777   -1.2748 H   0  0  0  0  0  0  0  0  0  0  0  0
    1.2669    0.1055    1.6979 H   0  0  0  0  0  0  0  0  0  0  0  0
    2.1207    0.6931   -0.5896 H   0  0  0  0  0  0  0  0  0  0  0  0
    1.6302   -1.5727   -1.3410 H   0  0  0  0  0  0  0  0  0  0  0  0
  1  9  1  0  0  0  0
  1 11  1  0  0  0  0
  2  7  1  6  0  0  0
  2  1  1  0  0  0  0
  2  6  1  0  0  0  0
  3  2  1  0  0  0  0
  3 12  1  0  0  0  0
  3  4  1  0  0  0  0
  4  6  1  0  0  0  0
  4  5  2  0  0  0  0
  6  7  1  6  0  0  0
  6 14  1  0  0  0  0
  7 15  1  6  0  0  0
  8 16  1  0  0  0  0
  8  7  1  0  0  0  0
 10  1  1  0  0  0  0
 13  3  1  0  0  0  0
M  END
