15
title
C -0.16922073 2.3842332 -0.15489897
C 0.068700716 0.9132733 -0.13959795
O -1.1054492 0.047193434 -0.27750692
C -0.63244456 -0.7676829 0.7662821
N -1.2005534 -1.7095685 1.3629973
C 0.6690293 -0.064841606 0.88375187
C 1.2436006 0.10517677 -0.5420674
O 1.213524 -0.86228263 -1.5292364
H 0.7668987 2.9180913 0.031387344
H -0.5528578 2.7021885 -1.1302817
H -0.89494294 2.6713276 0.6118901
H -2.136804 -1.8762472 0.9909797
H 1.2477657 0.08422401 1.7838928
H 2.196167 0.628285 -0.537323
H 0.28458756 -1.0600501 -1.706895
