title
 OpenBabel02282109583D

 15 16  0  0  1  0  0  0  0  0999 V2000
   -0.1692    2.3842   -0.1549 C   0  0  0  0  0  0  0  0  0  0  0  0
    0.0687    0.9133   -0.1396 C   0  0  2  0  0  0  0  0  0  0  0  0
   -1.1054    0.0472   -0.2775 O   0  0  0  0  0  0  0  0  0  0  0  0
   -0.6324   -0.7677    0.7663 C   0  0  0  0  0  0  0  0  0  0  0  0
   -1.2006   -1.7096    1.3630 N   0  0  0  0  0  0  0  0  0  0  0  0
    0.6690   -0.0648    0.8838 C   0  0  1  0  0  0  0  0  0  0  0  0
    1.2436    0.1052   -0.5421 C   0  0  1  0  0  0  0  0  0  0  0  0
    1.2135   -0.8623   -1.5292 O   0  0  0  0  0  0  0  0  0  0  0  0
    0.7669    2.9181    0.0314 H   0  0  0  0  0  0  0  0  0  0  0  0
   -0.5529    2.7022   -1.1303 H   0  0  0  0  0  0  0  0  0  0  0  0
   -0.8949    2.6713    0.6119 H   0  0  0  0  0  0  0  0  0  0  0  0
   -2.1368   -1.8762    0.9910 H   0  0  0  0  0  0  0  0  0  0  0  0
    1.2478    0.0842    1.7839 H   0  0  0  0  0  0  0  0  0  0  0  0
    2.1962    0.6283   -0.5373 H   0  0  0  0  0  0  0  0  0  0  0  0
    0.2846   -1.0601   -1.7069 H   0  0  0  0  0  0  0  0  0  0  0  0
  1  2  1  0  0  0  0
  1  9  1  0  0  0  0
  1 11  1  0  0  0  0
  2  7  1  6  0  0  0
  2  6  1  0  0  0  0
  3  2  1  0  0  0  0
  3  4  1  0  0  0  0
  4  6  1  0  0  0  0
  4  5  2  0  0  0  0
  6  7  1  6  0  0  0
  6 13  1  0  0  0  0
  7 14  1  6  0  0  0
  8  7  1  0  0  0  0
 10  1  1  0  0  0  0
 12  5  1  0  0  0  0
 15  8  1  0  0  0  0
M  END
