title
 OpenBabel02282109583D

 16 17  0  0  1  0  0  0  0  0999 V2000
   -1.3389    1.7598   -0.6340 C   0  0  0  0  0  0  0  0  0  0  0  0
   -1.2123    0.2536   -0.5132 C   0  0  1  0  0  0  0  0  0  0  0  0
    0.0467   -0.5522   -0.8924 C   0  0  1  0  0  0  0  0  0  0  0  0
    1.2701    0.0989   -0.3419 C   0  0  0  0  0  0  0  0  0  0  0  0
    2.3625    0.3192   -0.7875 O   0  0  0  0  0  0  0  0  0  0  0  0
    0.7012    0.1790    1.1004 C   0  0  0  0  0  0  0  0  0  0  0  0
   -0.5584   -0.5054    0.5745 C   0  0  1  0  0  0  0  0  0  0  0  0
   -1.1423   -1.4901    1.3343 O   0  0  0  0  0  0  0  0  0  0  0  0
   -0.4494    2.2781   -0.2678 H   0  0  0  0  0  0  0  0  0  0  0  0
   -1.4814    2.0480   -1.6805 H   0  0  0  0  0  0  0  0  0  0  0  0
   -2.1997    2.1258   -0.0638 H   0  0  0  0  0  0  0  0  0  0  0  0
   -2.0906   -0.2750   -0.8917 H   0  0  0  0  0  0  0  0  0  0  0  0
    0.0115   -1.2911   -1.6845 H   0  0  0  0  0  0  0  0  0  0  0  0
    1.2741   -0.4888    1.7507 H   0  0  0  0  0  0  0  0  0  0  0  0
    0.6012    1.1557    1.5820 H   0  0  0  0  0  0  0  0  0  0  0  0
   -2.0265   -1.6683    0.9975 H   0  0  0  0  0  0  0  0  0  0  0  0
  1  2  1  0  0  0  0
  1  9  1  0  0  0  0
  1 11  1  0  0  0  0
  2  3  1  6  0  0  0
  3  4  1  0  0  0  0
  3  7  1  1  0  0  0
  4  6  1  0  0  0  0
  5  4  2  0  0  0  0
  6 15  1  0  0  0  0
  6 14  1  0  0  0  0
  7  2  1  6  0  0  0
  7  6  1  0  0  0  0
  7  8  1  0  0  0  0
 10  1  1  0  0  0  0
 12  2  1  0  0  0  0
 13  3  1  0  0  0  0
 16  8  1  0  0  0  0
M  END
