16
title
C -1.3389158 1.7598137 -0.63402313
C -1.2122695 0.25361824 -0.513173
C 0.04666752 -0.55220085 -0.89244574
C 1.2701395 0.09893363 -0.34190133
O 2.3625185 0.3191647 -0.7875466
C 0.70121104 0.17896909 1.1004412
C -0.5583841 -0.50536865 0.5745034
O -1.1423014 -1.4901321 1.3342661
H -0.449368 2.2781308 -0.26778376
H -1.4813643 2.047972 -1.6804732
H -2.1996665 2.1258445 -0.06380594
H -2.090619 -0.2749609 -0.8917008
H 0.011469547 -1.291116 -1.6844549
H 1.2740583 -0.48881444 1.7507213
H 0.6012444 1.1557091 1.5820264
H -2.0264935 -1.6682851 0.99752486
