17
title
C -1.2017035 1.7966013 -0.61223304
C -1.2046797 0.28522992 -0.55741674
C 0.014409493 -0.597505 -0.879361
C 1.2377448 0.054886173 -0.26012853
O 2.2943122 0.46916902 -0.64546555
N 0.6626225 0.020700688 1.0260834
C -0.5939804 -0.56239796 0.52246726
C -1.2880348 -1.6347268 1.305732
H -0.28340703 2.2202265 -0.19743359
H -1.2865121 2.145224 -1.646295
H -2.0481157 2.2060652 -0.05016148
H -2.114226 -0.16117905 -0.95990115
H -0.007879068 -1.3758628 -1.6295863
H 0.7092933 0.80367094 1.6696981
H -1.7666839 -1.2226936 2.2019289
H -2.0691583 -2.1075888 0.70328975
H -0.57748103 -2.4027088 1.6257459
