17
title
C -1.3871851 1.5307591 -0.62045246
N -1.1946923 0.08798604 -0.5066536
C 0.06915207 -0.5647951 -0.8413604
C 1.2472755 0.22439107 -0.31309408
O 2.3146896 0.521994 -0.76811355
C 0.65213853 0.29071313 1.1184413
C -0.51931804 -0.5622753 0.5820709
C -1.1898373 -1.6779095 1.3269334
H -0.54641676 2.1496935 -0.28172177
H -1.5801662 1.7664646 -1.6706523
H -2.2744007 1.8072032 -0.042598404
H 0.079377964 -1.3208919 -1.6197132
H 1.3055707 -0.25004712 1.810094
H 0.41580158 1.2682691 1.5462924
H -1.7921238 -1.2837005 2.1538103
H -1.8546116 -2.232461 0.6602678
H -0.45240468 -2.3668833 1.7512687
