title
 OpenBabel02282109583D

 14 15  0  0  1  0  0  0  0  0999 V2000
    1.0402    1.6291   -0.7821 O   0  0  0  0  0  0  0  0  0  0  0  0
    1.0537    0.2357   -0.7524 C   0  0  1  0  0  0  0  0  0  0  0  0
    0.7114   -0.5852    0.4966 C   0  0  1  0  0  0  0  0  0  0  0  0
   -0.3781    0.1097    1.2602 C   0  0  0  0  0  0  0  0  0  0  0  0
   -0.5284    0.3705    2.4197 O   0  0  0  0  0  0  0  0  0  0  0  0
   -1.3068    0.2090    0.0270 C   0  0  0  0  0  0  0  0  0  0  0  0
   -0.2110   -0.5261   -0.7678 C   0  0  1  0  0  0  0  0  0  0  0  0
   -0.4542   -1.5771   -1.6246 O   0  0  0  0  0  0  0  0  0  0  0  0
    1.7595    1.9534   -0.2291 H   0  0  0  0  0  0  0  0  0  0  0  0
    1.8532   -0.2346   -1.3278 H   0  0  0  0  0  0  0  0  0  0  0  0
    1.3882   -1.3483    0.8618 H   0  0  0  0  0  0  0  0  0  0  0  0
   -2.1897   -0.4200    0.1720 H   0  0  0  0  0  0  0  0  0  0  0  0
   -1.5983    1.2059   -0.3087 H   0  0  0  0  0  0  0  0  0  0  0  0
   -0.5689   -1.2265   -2.5152 H   0  0  0  0  0  0  0  0  0  0  0  0
  1  2  1  0  0  0  0
  1  9  1  0  0  0  0
  2  7  1  6  0  0  0
  2  3  1  0  0  0  0
  3  7  1  6  0  0  0
  3 11  1  0  0  0  0
  3  4  1  0  0  0  0
  4  5  2  0  0  0  0
  6 12  1  0  0  0  0
  6  4  1  0  0  0  0
  7  8  1  6  0  0  0
  7  6  1  0  0  0  0
 10  2  1  0  0  0  0
 13  6  1  0  0  0  0
 14  8  1  0  0  0  0
M  END
