20
title
C -1.3171498 1.6170548 -0.53190506
C -1.1505368 0.11027786 -0.51165485
C 0.11324766 -0.6552489 -0.82985383
C 1.3638424 -0.018984191 -0.24440171
O 1.7691799 1.1874397 -0.86299956
C 0.6920767 0.01980064 1.1711525
C -0.5239148 -0.71243924 0.57998353
C -1.223283 -1.8514618 1.2662169
H -0.4154512 2.1373656 -0.20980091
H -1.5374628 1.9590482 -1.549053
H -2.151334 1.9247115 0.10978141
H -2.013489 -0.4080805 -0.9304528
H 0.12719718 -1.4155215 -1.6033263
H 2.190856 -0.7421013 -0.2439812
H 2.5840795 1.4797677 -0.4420657
H 1.2364405 -0.5740382 1.9106352
H 0.50538397 1.0145108 1.5870202
H -1.8134191 -1.4989128 2.1215098
H -1.9086406 -2.3654902 0.58409137
H -0.5085225 -2.5920498 1.644597
