title
 OpenBabel02282109583D

 18 19  0  0  1  0  0  0  0  0999 V2000
   -1.3301    1.6252   -0.5393 C   0  0  0  0  0  0  0  0  0  0  0  0
   -1.1393    0.1218   -0.5308 C   0  0  1  0  0  0  0  0  0  0  0  0
    0.1435   -0.6337   -0.8419 C   0  0  1  0  0  0  0  0  0  0  0  0
    1.3813    0.0131   -0.2353 C   0  0  1  0  0  0  0  0  0  0  0  0
    1.7516    1.2487   -0.8142 O   0  0  0  0  0  0  0  0  0  0  0  0
    0.7049   -0.0002    1.1826 C   0  0  0  0  0  0  0  0  0  0  0  0
   -0.5009   -0.7040    0.5466 C   0  0  1  0  0  0  0  0  0  0  0  0
   -1.1136   -1.8129    1.1094 O   0  0  0  0  0  0  0  0  0  0  0  0
   -0.4562    2.1530   -0.1574 H   0  0  0  0  0  0  0  0  0  0  0  0
   -1.4990    1.9816   -1.5611 H   0  0  0  0  0  0  0  0  0  0  0  0
   -2.2035    1.9101    0.0596 H   0  0  0  0  0  0  0  0  0  0  0  0
   -1.9828   -0.4238   -0.9533 H   0  0  0  0  0  0  0  0  0  0  0  0
    0.1665   -1.3827   -1.6244 H   0  0  0  0  0  0  0  0  0  0  0  0
    2.2262   -0.6881   -0.2552 H   0  0  0  0  0  0  0  0  0  0  0  0
    2.5536    1.5541   -0.3781 H   0  0  0  0  0  0  0  0  0  0  0  0
    1.2318   -0.6449    1.8896 H   0  0  0  0  0  0  0  0  0  0  0  0
    0.5243    0.9757    1.6437 H   0  0  0  0  0  0  0  0  0  0  0  0
   -1.8636   -1.5099    1.6326 H   0  0  0  0  0  0  0  0  0  0  0  0
  1  2  1  0  0  0  0
  1  9  1  0  0  0  0
  1 11  1  0  0  0  0
  2  3  1  6  0  0  0
  2  7  1  0  0  0  0
  3  4  1  6  0  0  0
  4 14  1  6  0  0  0
  4  6  1  0  0  0  0
  5 15  1  0  0  0  0
  5  4  1  0  0  0  0
  6 17  1  0  0  0  0
  6 16  1  0  0  0  0
  7  3  1  6  0  0  0
  7  8  1  0  0  0  0
  7  6  1  0  0  0  0
  8 18  1  0  0  0  0
 10  1  1  0  0  0  0
 12  2  1  0  0  0  0
 13  3  1  0  0  0  0
M  END
