title
 OpenBabel02282109583D

 18 19  0  0  1  0  0  0  0  0999 V2000
   -1.6211    1.8543   -0.3762 C   0  0  0  0  0  0  0  0  0  0  0  0
   -1.3257    0.3586   -0.3884 C   0  0  1  0  0  0  0  0  0  0  0  0
   -0.2150   -0.2104   -1.3365 C   0  0  0  0  0  0  0  0  0  0  0  0
    0.4150   -0.9239   -0.1324 C   0  0  1  0  0  0  0  0  0  0  0  0
    0.8418   -2.2435   -0.1413 O   0  0  0  0  0  0  0  0  0  0  0  0
    0.8308    0.0583    0.9202 C   0  0  1  0  0  0  0  0  0  0  0  0
    1.2834    1.3611    0.6619 O   0  0  0  0  0  0  0  0  0  0  0  0
   -0.6250   -0.2974    0.8150 C   0  0  1  0  0  0  0  0  0  0  0  0
   -0.7124    2.4348   -0.2099 H   0  0  0  0  0  0  0  0  0  0  0  0
   -2.0687    2.1666   -1.3268 H   0  0  0  0  0  0  0  0  0  0  0  0
   -2.3333    2.1017    0.4193 H   0  0  0  0  0  0  0  0  0  0  0  0
   -2.2535   -0.1904   -0.5805 H   0  0  0  0  0  0  0  0  0  0  0  0
   -0.6046   -0.9108   -2.0777 H   0  0  0  0  0  0  0  0  0  0  0  0
    0.4202    0.5298   -1.8330 H   0  0  0  0  0  0  0  0  0  0  0  0
    1.7537   -2.2694   -0.4522 H   0  0  0  0  0  0  0  0  0  0  0  0
    1.3115   -0.4253    1.7727 H   0  0  0  0  0  0  0  0  0  0  0  0
    2.1740    1.3029    0.3003 H   0  0  0  0  0  0  0  0  0  0  0  0
   -1.1395   -0.7381    1.6616 H   0  0  0  0  0  0  0  0  0  0  0  0
  1  9  1  0  0  0  0
  1 11  1  0  0  0  0
  2  1  1  0  0  0  0
  2  8  1  1  0  0  0
  3  2  1  0  0  0  0
  3  4  1  0  0  0  0
  4  8  1  1  0  0  0
  5  4  1  0  0  0  0
  6  4  1  6  0  0  0
  6 16  1  0  0  0  0
  7  6  1  0  0  0  0
  8  6  1  1  0  0  0
  8 18  1  0  0  0  0
 10  1  1  0  0  0  0
 12  2  1  0  0  0  0
 13  3  1  0  0  0  0
 14  3  1  0  0  0  0
 15  5  1  0  0  0  0
 17  7  1  0  0  0  0
M  END
