title
 OpenBabel02282109583D

 18 19  0  0  1  0  0  0  0  0999 V2000
   -1.5142    1.8285   -0.4729 C   0  0  0  0  0  0  0  0  0  0  0  0
   -1.2239    0.3405   -0.4684 C   0  0  1  0  0  0  0  0  0  0  0  0
    0.0032   -0.0444   -1.1782 O   0  0  0  0  0  0  0  0  0  0  0  0
    0.3827   -0.9136   -0.0885 C   0  0  1  0  0  0  0  0  0  0  0  0
    0.9058   -2.2673   -0.4397 C   0  0  0  0  0  0  0  0  0  0  0  0
    0.7090   -0.0435    1.0732 C   0  0  1  0  0  0  0  0  0  0  0  0
    1.2886    1.2146    0.9147 O   0  0  0  0  0  0  0  0  0  0  0  0
   -0.7526   -0.3758    0.7919 C   0  0  1  0  0  0  0  0  0  0  0  0
   -1.5958    2.1954   -1.5015 H   0  0  0  0  0  0  0  0  0  0  0  0
   -2.4721    2.0139    0.0252 H   0  0  0  0  0  0  0  0  0  0  0  0
   -0.7404    2.3900    0.0523 H   0  0  0  0  0  0  0  0  0  0  0  0
   -2.0561   -0.2054   -0.9319 H   0  0  0  0  0  0  0  0  0  0  0  0
    1.8361   -2.1821   -1.0128 H   0  0  0  0  0  0  0  0  0  0  0  0
    1.1194   -2.8400    0.4674 H   0  0  0  0  0  0  0  0  0  0  0  0
    0.1846   -2.8262   -1.0446 H   0  0  0  0  0  0  0  0  0  0  0  0
    1.1001   -0.5579    1.9473 H   0  0  0  0  0  0  0  0  0  0  0  0
    1.3030    1.3732   -0.0394 H   0  0  0  0  0  0  0  0  0  0  0  0
   -1.3903   -0.8796    1.5074 H   0  0  0  0  0  0  0  0  0  0  0  0
  1  2  1  0  0  0  0
  1 10  1  0  0  0  0
  1 11  1  0  0  0  0
  2  8  1  1  0  0  0
  3  2  1  0  0  0  0
  3  4  1  0  0  0  0
  4  8  1  1  0  0  0
  5  4  1  0  0  0  0
  5 14  1  0  0  0  0
  6  4  1  6  0  0  0
  6 16  1  0  0  0  0
  7  6  1  0  0  0  0
  8  6  1  1  0  0  0
  8 18  1  0  0  0  0
  9  1  1  0  0  0  0
 12  2  1  0  0  0  0
 13  5  1  0  0  0  0
 15  5  1  0  0  0  0
 17  7  1  0  0  0  0
M  END
