title
 OpenBabel02282109583D

 17 18  0  0  1  0  0  0  0  0999 V2000
    0.1862    2.5347   -0.1675 C   0  0  0  0  0  0  0  0  0  0  0  0
    0.2637    1.0294   -0.1699 C   0  0  2  0  0  0  0  0  0  0  0  0
   -0.9058    0.2258   -0.7121 C   0  0  0  0  0  0  0  0  0  0  0  0
   -0.7933   -1.1634   -0.0645 C   0  0  0  0  0  0  0  0  0  0  0  0
   -1.3986   -2.1449   -0.4043 O   0  0  0  0  0  0  0  0  0  0  0  0
    0.2124   -1.0903    1.0974 C   0  0  0  0  0  0  0  0  0  0  0  0
    0.9315    0.2258    0.9054 C   0  0  1  0  0  0  0  0  0  0  0  0
    1.6006    0.4492   -0.3862 N   0  0  0  0  0  0  0  0  0  0  0  0
    1.0864    2.9611    0.2819 H   0  0  0  0  0  0  0  0  0  0  0  0
    0.1044    2.9244   -1.1884 H   0  0  0  0  0  0  0  0  0  0  0  0
   -0.6866    2.8832    0.3959 H   0  0  0  0  0  0  0  0  0  0  0  0
   -1.8671    0.6675   -0.4162 H   0  0  0  0  0  0  0  0  0  0  0  0
   -0.9230    0.1395   -1.8039 H   0  0  0  0  0  0  0  0  0  0  0  0
   -0.3465   -1.1133    2.0425 H   0  0  0  0  0  0  0  0  0  0  0  0
    0.8652   -1.9695    1.0943 H   0  0  0  0  0  0  0  0  0  0  0  0
    1.4126    0.6984    1.7567 H   0  0  0  0  0  0  0  0  0  0  0  0
    1.5654   -0.3847   -0.9710 H   0  0  0  0  0  0  0  0  0  0  0  0
  1  9  1  0  0  0  0
  1 11  1  0  0  0  0
  2  1  1  0  0  0  0
  2  7  1  1  0  0  0
  3 12  1  0  0  0  0
  3  2  1  0  0  0  0
  3  4  1  0  0  0  0
  4  6  1  0  0  0  0
  5  4  2  0  0  0  0
  6 14  1  0  0  0  0
  7  6  1  0  0  0  0
  7 16  1  1  0  0  0
  8  2  1  0  0  0  0
  8  7  1  0  0  0  0
 10  1  1  0  0  0  0
 13  3  1  0  0  0  0
 15  6  1  0  0  0  0
 17  8  1  0  0  0  0
M  END
