16
title
C 0.20550025 2.5365736 -0.1557139
C 0.22293366 1.0338198 -0.12288374
C -0.9155794 0.22560786 -0.71312
C -0.77974886 -1.1740296 -0.08801486
O -1.38249 -2.1525848 -0.43642455
C 0.23307845 -1.1171045 1.0713068
C 0.89576524 0.22900473 0.91840076
O 1.4933469 0.40371472 -0.37439245
H 1.0887762 2.9405015 0.34552714
H 0.20321886 2.901555 -1.188472
H -0.6896783 2.9272463 0.33957675
H -1.8944988 0.6429007 -0.44450724
H -0.8762496 0.15822272 -1.8041878
H -0.30550587 -1.2035398 2.0235825
H 0.9295125 -1.9578676 1.0083272
H 1.4298662 0.6888345 1.7464925
