17
title
C -0.8072017 2.2407262 0.40945095
C -0.6107811 0.7584311 0.29363084
C -1.5483204 -0.2674701 0.8681687
C -0.11302006 -0.17321734 1.3649317
C 0.90620834 -1.0736811 0.698699
C 0.8072024 -0.71248597 -0.776618
N 1.3839345 -1.3205498 -1.7194157
O -0.0058143707 0.37952793 -0.9396938
H 0.14725703 2.7691507 0.3201299
H -1.4758732 2.6080346 -0.37573606
H -1.2515932 2.4882617 1.3773539
H -2.3275995 0.08172114 1.5370407
H -1.8291979 -1.1094743 0.24294159
H 0.066688836 0.1815541 2.372655
H 1.9202693 -0.86339945 1.054286
H 0.73019964 -2.1434734 0.8373031
H 1.1569804 -0.88861865 -2.6165528
