title
 OpenBabel02282109583D

 18 19  0  0  1  0  0  0  0  0999 V2000
   -0.8870    2.3593    0.3452 C   0  0  0  0  0  0  0  0  0  0  0  0
   -0.6066    0.8829    0.1996 C   0  0  2  0  0  0  0  0  0  0  0  0
   -1.4504   -0.1202    0.9514 C   0  0  0  0  0  0  0  0  0  0  0  0
    0.0015    0.0595    1.3301 C   0  0  1  0  0  0  0  0  0  0  0  0
    0.9823   -0.9428    0.7595 C   0  0  0  0  0  0  0  0  0  0  0  0
    0.7654   -0.8934   -0.7619 C   0  0  0  0  0  0  0  0  0  0  0  0
    1.1496   -1.7160   -1.5507 O   0  0  0  0  0  0  0  0  0  0  0  0
   -0.0195    0.3810   -1.1093 C   0  0  0  0  0  0  0  0  0  0  0  0
    0.0095    2.9563    0.1395 H   0  0  0  0  0  0  0  0  0  0  0  0
   -1.6694    2.6882   -0.3488 H   0  0  0  0  0  0  0  0  0  0  0  0
   -1.2231    2.5994    1.3591 H   0  0  0  0  0  0  0  0  0  0  0  0
   -2.1974    0.2711    1.6337 H   0  0  0  0  0  0  0  0  0  0  0  0
   -1.7476   -1.0405    0.4544 H   0  0  0  0  0  0  0  0  0  0  0  0
    0.2278    0.5315    2.2799 H   0  0  0  0  0  0  0  0  0  0  0  0
    2.0214   -0.6505    0.9617 H   0  0  0  0  0  0  0  0  0  0  0  0
    0.8630   -1.9685    1.1220 H   0  0  0  0  0  0  0  0  0  0  0  0
   -0.7531    0.1701   -1.8938 H   0  0  0  0  0  0  0  0  0  0  0  0
    0.6908    1.1096   -1.5248 H   0  0  0  0  0  0  0  0  0  0  0  0
  1 11  1  0  0  0  0
  2  1  1  0  0  0  0
  2  3  1  0  0  0  0
  2  4  1  1  0  0  0
  3  4  1  0  0  0  0
  3 12  1  0  0  0  0
  4 14  1  1  0  0  0
  5 15  1  0  0  0  0
  5 16  1  0  0  0  0
  5  4  1  0  0  0  0
  6  5  1  0  0  0  0
  7  6  2  0  0  0  0
  8  6  1  0  0  0  0
  8  2  1  0  0  0  0
  9  1  1  0  0  0  0
 10  1  1  0  0  0  0
 13  3  1  0  0  0  0
 17  8  1  0  0  0  0
 18  8  1  0  0  0  0
M  END
