17
title
C -0.5470562 2.3960962 0.25579897
C -0.51268655 0.8901238 0.25965938
C -1.4000884 0.058165584 1.1607605
C 0.10581567 0.049319122 1.3546096
C 0.9140712 -1.0497006 0.6907466
C 0.60417175 -0.9124182 -0.81139386
O 0.9130292 -1.6790783 -1.6950024
N -0.1131577 0.25129732 -0.9679575
H 0.41305152 2.8088288 -0.07065005
H -1.3257103 2.7768087 -0.41592988
H -0.7644025 2.7761352 1.2579864
H -1.986539 0.5756652 1.9129053
H -1.8779812 -0.82032627 0.73816645
H 0.50282705 0.5337359 2.238989
H 1.9905088 -0.9209222 0.84546995
H 0.6594851 -2.061576 1.0184894
H -0.5716466 0.43172297 -1.848508
