16
title
C -0.72067183 2.2826579 0.32163197
C -0.5887705 0.78902715 0.28915438
C -1.5153913 -0.15974985 0.99431413
C -0.047210295 -0.09127109 1.3871385
C 0.8904727 -1.0649694 0.7135783
C 0.74339944 -0.7634982 -0.7828268
O 1.2409071 -1.3386065 -1.7043166
O -0.08738031 0.30809492 -0.9545264
H 0.2429745 2.7635689 0.12661856
H -1.4337777 2.627557 -0.43372357
H -1.0786437 2.6076212 1.3024125
H -2.232103 0.2631916 1.6898218
H -1.8705288 -1.0280052 0.4476288
H 0.21475469 0.32514638 2.3522322
H 1.9354968 -0.9043697 0.99766886
H 0.6666749 -2.1210957 0.88915616
