title
 OpenBabel02282109583D

 16 17  0  0  1  0  0  0  0  0999 V2000
   -0.7207    2.2827    0.3216 C   0  0  0  0  0  0  0  0  0  0  0  0
   -0.5888    0.7890    0.2892 C   0  0  2  0  0  0  0  0  0  0  0  0
   -1.5154   -0.1597    0.9943 C   0  0  0  0  0  0  0  0  0  0  0  0
   -0.0472   -0.0913    1.3871 C   0  0  1  0  0  0  0  0  0  0  0  0
    0.8905   -1.0650    0.7136 C   0  0  0  0  0  0  0  0  0  0  0  0
    0.7434   -0.7635   -0.7828 C   0  0  0  0  0  0  0  0  0  0  0  0
    1.2409   -1.3386   -1.7043 O   0  0  0  0  0  0  0  0  0  0  0  0
   -0.0874    0.3081   -0.9545 O   0  0  0  0  0  0  0  0  0  0  0  0
    0.2430    2.7636    0.1266 H   0  0  0  0  0  0  0  0  0  0  0  0
   -1.4338    2.6276   -0.4337 H   0  0  0  0  0  0  0  0  0  0  0  0
   -1.0786    2.6076    1.3024 H   0  0  0  0  0  0  0  0  0  0  0  0
   -2.2321    0.2632    1.6898 H   0  0  0  0  0  0  0  0  0  0  0  0
   -1.8705   -1.0280    0.4476 H   0  0  0  0  0  0  0  0  0  0  0  0
    0.2148    0.3251    2.3522 H   0  0  0  0  0  0  0  0  0  0  0  0
    1.9355   -0.9044    0.9977 H   0  0  0  0  0  0  0  0  0  0  0  0
    0.6667   -2.1211    0.8892 H   0  0  0  0  0  0  0  0  0  0  0  0
  1 11  1  0  0  0  0
  2  1  1  0  0  0  0
  2  3  1  0  0  0  0
  2  4  1  1  0  0  0
  3  4  1  0  0  0  0
  3 12  1  0  0  0  0
  4 14  1  1  0  0  0
  5 16  1  0  0  0  0
  5 15  1  0  0  0  0
  5  4  1  0  0  0  0
  6  5  1  0  0  0  0
  7  6  2  0  0  0  0
  8  6  1  0  0  0  0
  8  2  1  0  0  0  0
  9  1  1  0  0  0  0
 10  1  1  0  0  0  0
 13  3  1  0  0  0  0
M  END
