title
 OpenBabel02282109583D

 15 16  0  0  1  0  0  0  0  0999 V2000
   -0.6299    2.3399    0.1363 C   0  0  0  0  0  0  0  0  0  0  0  0
   -0.5426    0.8462    0.2348 C   0  0  2  0  0  0  0  0  0  0  0  0
   -1.4159    0.0072    1.1366 C   0  0  0  0  0  0  0  0  0  0  0  0
    0.0932    0.0521    1.3429 C   0  0  1  0  0  0  0  0  0  0  0  0
    0.8762   -0.9144    0.6405 N   0  0  0  0  0  0  0  0  0  0  0  0
    0.6426   -0.8687   -0.7216 C   0  0  0  0  0  0  0  0  0  0  0  0
    1.0288   -1.6245   -1.5665 O   0  0  0  0  0  0  0  0  0  0  0  0
   -0.1434    0.2300   -0.9825 O   0  0  0  0  0  0  0  0  0  0  0  0
    0.3227    2.7620   -0.1974 H   0  0  0  0  0  0  0  0  0  0  0  0
   -1.4052    2.6331   -0.5784 H   0  0  0  0  0  0  0  0  0  0  0  0
   -0.8819    2.7706    1.1091 H   0  0  0  0  0  0  0  0  0  0  0  0
   -2.0261    0.5449    1.8544 H   0  0  0  0  0  0  0  0  0  0  0  0
   -1.8537   -0.9030    0.7410 H   0  0  0  0  0  0  0  0  0  0  0  0
    0.5332    0.5070    2.2230 H   0  0  0  0  0  0  0  0  0  0  0  0
    1.1589   -1.7955    1.0378 H   0  0  0  0  0  0  0  0  0  0  0  0
  1  2  1  0  0  0  0
  1 11  1  0  0  0  0
  2  3  1  0  0  0  0
  2  4  1  1  0  0  0
  3  4  1  0  0  0  0
  3 12  1  0  0  0  0
  4 14  1  1  0  0  0
  5 15  1  0  0  0  0
  5  4  1  0  0  0  0
  6  5  1  0  0  0  0
  7  6  2  0  0  0  0
  8  6  1  0  0  0  0
  8  2  1  0  0  0  0
  9  1  1  0  0  0  0
 10  1  1  0  0  0  0
 13  3  1  0  0  0  0
M  END
