17
title
C -1.1127837 2.2707806 0.20507233
C -0.7286477 0.8141358 0.117556
C -1.4836268 -0.22917971 0.9290069
C -0.042678684 0.073150314 1.2317005
O 0.91028214 -0.8281078 0.7023364
C 0.87848246 -0.8013635 -0.6707021
N 1.540158 -1.575811 -1.4138032
C -0.062493175 0.29460362 -1.1475258
H -0.26376757 2.919706 -0.038150366
H -1.9250433 2.508502 -0.49115098
H -1.4563358 2.5309396 1.2112008
H -2.230019 0.13499072 1.6273073
H -1.7119104 -1.1910955 0.48007303
H 0.2800689 0.51679516 2.1656706
H 2.096035 -2.2232878 -0.85255915
H -0.75539887 -0.10014232 -1.8952048
H 0.52236426 1.08327 -1.6339182
