title
 OpenBabel02282109583D

 15 16  0  0  1  0  0  0  0  0999 V2000
   -0.9672    2.2180    0.2497 C   0  0  0  0  0  0  0  0  0  0  0  0
   -0.6861    0.7465    0.2155 C   0  0  2  0  0  0  0  0  0  0  0  0
   -1.5432   -0.3149    0.8722 C   0  0  0  0  0  0  0  0  0  0  0  0
   -0.1034   -0.1127    1.2897 C   0  0  1  0  0  0  0  0  0  0  0  0
    0.8487   -0.9405    0.6579 O   0  0  0  0  0  0  0  0  0  0  0  0
    0.8454   -0.6723   -0.6883 C   0  0  0  0  0  0  0  0  0  0  0  0
    1.5283   -1.2425   -1.5743 N   0  0  0  0  0  0  0  0  0  0  0  0
   -0.0350    0.3222   -0.9728 O   0  0  0  0  0  0  0  0  0  0  0  0
   -0.0475    2.7914    0.1007 H   0  0  0  0  0  0  0  0  0  0  0  0
   -1.6770    2.4933   -0.5364 H   0  0  0  0  0  0  0  0  0  0  0  0
   -1.4019    2.4971    1.2132 H   0  0  0  0  0  0  0  0  0  0  0  0
   -2.3042    0.0290    1.5645 H   0  0  0  0  0  0  0  0  0  0  0  0
   -1.7927   -1.2062    0.3066 H   0  0  0  0  0  0  0  0  0  0  0  0
    0.1949    0.2093    2.2792 H   0  0  0  0  0  0  0  0  0  0  0  0
    2.1231   -1.9535   -1.1562 H   0  0  0  0  0  0  0  0  0  0  0  0
  1 11  1  0  0  0  0
  2  1  1  0  0  0  0
  2  3  1  0  0  0  0
  2  4  1  1  0  0  0
  3  4  1  0  0  0  0
  3 12  1  0  0  0  0
  4 14  1  1  0  0  0
  5  4  1  0  0  0  0
  6  5  1  0  0  0  0
  7 15  1  0  0  0  0
  7  6  2  0  0  0  0
  8  6  1  0  0  0  0
  8  2  1  0  0  0  0
  9  1  1  0  0  0  0
 10  1  1  0  0  0  0
 13  3  1  0  0  0  0
M  END
