title
 OpenBabel02282109583D

 16 17  0  0  1  0  0  0  0  0999 V2000
   -0.9496    2.3488    0.2178 C   0  0  0  0  0  0  0  0  0  0  0  0
   -0.6866    0.8651    0.1326 C   0  0  2  0  0  0  0  0  0  0  0  0
   -1.4867   -0.1065    0.9881 C   0  0  0  0  0  0  0  0  0  0  0  0
   -0.0183    0.0849    1.2350 C   0  0  1  0  0  0  0  0  0  0  0  0
    0.8407   -0.8960    0.6873 O   0  0  0  0  0  0  0  0  0  0  0  0
    0.8120   -0.8573   -0.6809 C   0  0  0  0  0  0  0  0  0  0  0  0
    1.4296   -1.6278   -1.3524 O   0  0  0  0  0  0  0  0  0  0  0  0
   -0.1065    0.2802   -1.1414 C   0  0  0  0  0  0  0  0  0  0  0  0
   -0.0632    2.9256   -0.0692 H   0  0  0  0  0  0  0  0  0  0  0  0
   -1.7703    2.6443   -0.4454 H   0  0  0  0  0  0  0  0  0  0  0  0
   -1.2263    2.6436    1.2349 H   0  0  0  0  0  0  0  0  0  0  0  0
   -2.1757    0.3246    1.7067 H   0  0  0  0  0  0  0  0  0  0  0  0
   -1.8050   -1.0545    0.5651 H   0  0  0  0  0  0  0  0  0  0  0  0
    0.3742    0.5171    2.1472 H   0  0  0  0  0  0  0  0  0  0  0  0
   -0.8445   -0.1172   -1.8441 H   0  0  0  0  0  0  0  0  0  0  0  0
    0.4990    1.0112   -1.6887 H   0  0  0  0  0  0  0  0  0  0  0  0
  1 11  1  0  0  0  0
  2  1  1  0  0  0  0
  2  3  1  0  0  0  0
  2  4  1  1  0  0  0
  3  4  1  0  0  0  0
  3 12  1  0  0  0  0
  4 14  1  1  0  0  0
  5  4  1  0  0  0  0
  6  5  1  0  0  0  0
  7  6  2  0  0  0  0
  8  6  1  0  0  0  0
  8  2  1  0  0  0  0
  9  1  1  0  0  0  0
 10  1  1  0  0  0  0
 13  3  1  0  0  0  0
 15  8  1  0  0  0  0
 16  8  1  0  0  0  0
M  END
