14
title
C -0.5923728 2.3639045 0.13809524
C -0.54088956 0.86912304 0.23170125
C -1.4231715 0.021028185 1.119892
C 0.076867215 0.0235739 1.3010563
O 0.78455263 -0.9985646 0.6337717
C 0.625513 -0.85271716 -0.71459144
O 1.0851183 -1.578526 -1.5344094
O -0.15378615 0.23397085 -0.9804539
H 0.36362153 2.7630363 -0.21306312
H -1.3763713 2.6805918 -0.55645585
H -0.8120523 2.7948232 1.1186006
H -2.0027342 0.54394054 1.872843
H -1.8891453 -0.8648194 0.70175225
H 0.5744156 0.37801307 2.194287
