title
 OpenBabel02282109583D

 17 18  0  0  1  0  0  0  0  0999 V2000
   -0.7128    2.3825    0.3385 C   0  0  0  0  0  0  0  0  0  0  0  0
   -0.5814    0.8903    0.1671 C   0  0  2  0  0  0  0  0  0  0  0  0
   -1.4124   -0.0548    0.9597 C   0  0  0  0  0  0  0  0  0  0  0  0
    0.0058    0.1247    1.3099 N   0  0  1  0  0  0  0  0  0  0  0  0
    0.8601   -0.9311    0.7669 C   0  0  0  0  0  0  0  0  0  0  0  0
    0.7070   -0.9338   -0.7633 C   0  0  0  0  0  0  0  0  0  0  0  0
    1.1197   -1.7735   -1.5172 O   0  0  0  0  0  0  0  0  0  0  0  0
   -0.0492    0.3461   -1.1459 C   0  0  0  0  0  0  0  0  0  0  0  0
    0.2346    2.8865    0.1163 H   0  0  0  0  0  0  0  0  0  0  0  0
   -1.4752    2.7880   -0.3360 H   0  0  0  0  0  0  0  0  0  0  0  0
   -0.9944    2.6283    1.3655 H   0  0  0  0  0  0  0  0  0  0  0  0
   -2.1155    0.3254    1.6954 H   0  0  0  0  0  0  0  0  0  0  0  0
   -1.7143   -0.9939    0.4954 H   0  0  0  0  0  0  0  0  0  0  0  0
    1.9089   -0.7187    1.0113 H   0  0  0  0  0  0  0  0  0  0  0  0
    0.6210   -1.9140    1.1846 H   0  0  0  0  0  0  0  0  0  0  0  0
   -0.8156    0.1275   -1.8944 H   0  0  0  0  0  0  0  0  0  0  0  0
    0.6632    1.0424   -1.6070 H   0  0  0  0  0  0  0  0  0  0  0  0
  1 11  1  0  0  0  0
  2  1  1  0  0  0  0
  2  3  1  0  0  0  0
  2  4  1  1  0  0  0
  3  4  1  0  0  0  0
  3 12  1  0  0  0  0
  4  5  1  6  0  0  0
  5 14  1  0  0  0  0
  5 15  1  0  0  0  0
  6  5  1  0  0  0  0
  7  6  2  0  0  0  0
  8  6  1  0  0  0  0
  8  2  1  0  0  0  0
  9  1  1  0  0  0  0
 10  1  1  0  0  0  0
 13  3  1  0  0  0  0
 16  8  1  0  0  0  0
 17  8  1  0  0  0  0
M  END
