17
title
C -0.71280485 2.3824759 0.33849788
C -0.58140147 0.89025474 0.16706753
C -1.4124455 -0.054846164 0.959654
N 0.00576323 0.1246599 1.3098972
C 0.8600835 -0.93111885 0.7669442
C 0.70702523 -0.9337983 -0.76329076
O 1.1197187 -1.7734834 -1.5172179
C -0.04922593 0.34606394 -1.1459157
H 0.23461008 2.8865047 0.11627646
H -1.4752158 2.7880256 -0.33602774
H -0.9943737 2.628279 1.3654603
H -2.115513 0.3253526 1.6954117
H -1.7142915 -0.99385285 0.49538627
H 1.9089131 -0.71871436 1.0112723
H 0.620995 -1.9140126 1.18462
H -0.8156403 0.12745804 -1.8943985
H 0.66321284 1.0423762 -1.6070448
