16
title
O 0.05722585 2.216495 -0.87182295
C 0.12976474 0.8467523 -0.61697495
C -0.1109334 -0.13120869 -1.7397748
C -1.1507835 0.045776635 -0.64614666
C -1.1407492 -0.9576487 0.48811054
C 0.28785792 -0.90418655 1.0574312
O 0.78366375 -1.7266328 1.7803558
C 0.97813517 0.37130675 0.5476849
H 0.86035514 2.478639 -1.3351343
H -0.35312063 0.30076697 -2.7041874
H 0.46251333 -1.0536002 -1.7844913
H -2.074169 0.54518497 -0.91285795
H -1.8341247 -0.6657334 1.2876258
H -1.393031 -1.9838562 0.20377654
H 2.0286777 0.16962525 0.31679904
H 0.9518877 1.1228774 1.347541
