16
title
C -0.6044992 2.4025605 0.1971887
C -0.527288 0.899745 0.20424183
C -1.4048337 0.054384083 1.114702
C 0.09077413 0.035487503 1.2879124
O 0.79287934 -0.9947083 0.60595816
C 0.5431782 -0.76361 -0.7175995
N 1.0306754 -1.730392 -1.5551933
N -0.145415 0.2646543 -1.0416299
H 0.3382393 2.8391557 -0.14780693
H -1.3978986 2.7398021 -0.47776356
H -0.8213081 2.790524 1.1970267
H -1.9607419 0.57335764 1.8891448
H -1.894087 -0.8204708 0.6989961
H 0.59252787 0.35677388 2.1917825
H 1.8594098 -2.2016091 -1.2243937
H 1.0694071 -1.4430029 -2.5211532
