title
 OpenBabel02282109583D

 16 17  0  0  1  0  0  0  0  0999 V2000
   -0.6045    2.4026    0.1972 C   0  0  0  0  0  0  0  0  0  0  0  0
   -0.5273    0.8997    0.2042 C   0  0  2  0  0  0  0  0  0  0  0  0
   -1.4048    0.0544    1.1147 C   0  0  0  0  0  0  0  0  0  0  0  0
    0.0908    0.0355    1.2879 C   0  0  1  0  0  0  0  0  0  0  0  0
    0.7929   -0.9947    0.6060 O   0  0  0  0  0  0  0  0  0  0  0  0
    0.5432   -0.7636   -0.7176 C   0  0  0  0  0  0  0  0  0  0  0  0
    1.0307   -1.7304   -1.5552 N   0  0  0  0  0  0  0  0  0  0  0  0
   -0.1454    0.2647   -1.0416 N   0  0  0  0  0  0  0  0  0  0  0  0
    0.3382    2.8392   -0.1478 H   0  0  0  0  0  0  0  0  0  0  0  0
   -1.3979    2.7398   -0.4778 H   0  0  0  0  0  0  0  0  0  0  0  0
   -0.8213    2.7905    1.1970 H   0  0  0  0  0  0  0  0  0  0  0  0
   -1.9607    0.5734    1.8891 H   0  0  0  0  0  0  0  0  0  0  0  0
   -1.8941   -0.8205    0.6990 H   0  0  0  0  0  0  0  0  0  0  0  0
    0.5925    0.3568    2.1918 H   0  0  0  0  0  0  0  0  0  0  0  0
    1.8594   -2.2016   -1.2244 H   0  0  0  0  0  0  0  0  0  0  0  0
    1.0694   -1.4430   -2.5212 H   0  0  0  0  0  0  0  0  0  0  0  0
  1  2  1  0  0  0  0
  1 11  1  0  0  0  0
  2  3  1  0  0  0  0
  2  4  1  1  0  0  0
  3  4  1  0  0  0  0
  3 12  1  0  0  0  0
  4 14  1  1  0  0  0
  5  4  1  0  0  0  0
  6  5  1  0  0  0  0
  7 15  1  0  0  0  0
  7  6  1  0  0  0  0
  8  6  2  0  0  0  0
  8  2  1  0  0  0  0
  9  1  1  0  0  0  0
 10  1  1  0  0  0  0
 13  3  1  0  0  0  0
 16  7  1  0  0  0  0
M  END
