20
title
C 0.0038024804 2.802772 0.2652692
C -0.051949877 1.3092752 0.19939153
C -0.12003913 0.54367536 -0.89526445
C -0.09019687 -0.92068523 -0.5887432
C -0.9243092 -1.879319 -1.4051691
C 1.2052206 -1.3778627 0.058767162
C 0.036872953 -0.9768333 0.9277872
C -0.013985153 0.45385772 1.4566153
H 0.93823946 3.1495664 0.7254702
H -0.06873443 3.2533078 -0.7285635
H -0.8111969 3.2044713 0.88181996
H -0.1638526 0.9208322 -1.9126394
H -0.58701015 -1.912343 -2.448256
H -0.8581185 -2.896911 -1.007085
H -1.9808615 -1.5878131 -1.407682
H 1.4384999 -2.4380019 0.017292863
H 2.0696242 -0.7234394 0.00036918258
H -0.45983213 -1.7599764 1.4898342
H 0.84811676 0.70089096 2.0915618
H -0.90603405 0.62704533 2.0756075
