18
title
C 0.020495653 2.8206255 0.29569235
C -0.0411454 1.3283364 0.21250287
C -0.107922636 0.5749045 -0.89020497
C -0.079577655 -0.8879786 -0.5796066
O -0.90739834 -1.7626609 -1.286831
C 1.1940562 -1.3945876 0.06234148
C 0.021555956 -0.9663699 0.92667496
C -0.005022155 0.4607361 1.4629161
H 0.9579858 3.1583655 0.7560731
H -0.055247784 3.2833455 -0.6920916
H -0.7907857 3.215383 0.92114747
H -0.14975198 0.9513932 -1.9070716
H -0.4378175 -2.039429 -2.0806458
H 1.3690403 -2.4650922 0.013460921
H 2.0855005 -0.7760871 0.018884467
H -0.50741136 -1.7490047 1.4563719
H 0.8709109 0.6882975 2.0856314
H -0.8849232 0.64505315 2.0947309
