16
title
C -0.58276665 2.3641288 0.1393356
C -0.51723856 0.8713986 0.25288317
C -1.4005892 0.03624844 1.142184
C 0.108104855 0.012224016 1.3361068
N 0.8327052 -1.0382171 0.66424656
C 0.61444885 -0.85165256 -0.5832763
N 0.9969159 -1.6624436 -1.6185622
O -0.12459332 0.23016 -0.96534276
H 0.37245384 2.7738764 -0.20423649
H -1.3630482 2.675148 -0.5638953
H -0.8148149 2.8025866 1.1137213
H -1.9853116 0.5801305 1.8769323
H -1.8762553 -0.8489433 0.7326266
H 0.54355615 0.40353805 2.2487004
H 1.7363013 -2.30327 -1.373413
H 1.1271133 -1.191303 -2.5014086
