20
title
C -0.012154714 2.8240638 -0.21068464
C -0.06483702 1.3298584 -0.2570979
C -0.084321655 0.54868853 -1.3435032
C -0.05648279 -0.90032536 -0.9988477
C 1.1874684 -1.3619051 -0.256449
C -0.0404907 -0.9601746 0.5230341
C -0.7985555 -2.0069485 1.3038881
C -0.09186995 0.49230954 1.0110443
H 0.89852816 3.1793537 0.289027
H -0.035885546 3.2585828 -1.2140111
H -0.8565622 3.234849 0.35854384
H -0.07706897 0.9116417 -2.366126
H -0.60528886 -1.6208797 -1.596921
H 1.4230853 -2.4219043 -0.2800609
H 2.052271 -0.7053276 -0.2692123
H -0.760211 -2.9806979 0.8049821
H -0.38028836 -2.136261 2.3097477
H -1.853707 -1.7316453 1.4180255
H 0.74264187 0.7375264 1.6823723
H -1.0093186 0.6850549 1.5877477
