title
 OpenBabel02282109583D

 18 19  0  0  1  0  0  0  0  0999 V2000
   -0.0164    2.8475   -0.1710 C   0  0  0  0  0  0  0  0  0  0  0  0
   -0.0608    1.3541   -0.2419 C   0  0  0  0  0  0  0  0  0  0  0  0
   -0.0976    0.5929   -1.3438 C   0  0  0  0  0  0  0  0  0  0  0  0
   -0.0808   -0.8626   -1.0325 C   0  0  1  0  0  0  0  0  0  0  0  0
    1.1638   -1.3689   -0.3023 C   0  0  0  0  0  0  0  0  0  0  0  0
   -0.0279   -0.9410    0.4897 C   0  0  2  0  0  0  0  0  0  0  0  0
   -0.6587   -1.9430    1.2264 O   0  0  0  0  0  0  0  0  0  0  0  0
   -0.0706    0.4964    1.0117 C   0  0  0  0  0  0  0  0  0  0  0  0
    0.8992    3.2014    0.3203 H   0  0  0  0  0  0  0  0  0  0  0  0
   -0.0587    3.2972   -1.1671 H   0  0  0  0  0  0  0  0  0  0  0  0
   -0.8549    3.2431    0.4173 H   0  0  0  0  0  0  0  0  0  0  0  0
   -0.1073    0.9799   -2.3577 H   0  0  0  0  0  0  0  0  0  0  0  0
   -0.6475   -1.5736   -1.6236 H   0  0  0  0  0  0  0  0  0  0  0  0
    1.3347   -2.4399   -0.3283 H   0  0  0  0  0  0  0  0  0  0  0  0
    2.0564   -0.7513   -0.3137 H   0  0  0  0  0  0  0  0  0  0  0  0
   -1.6016   -1.7447    1.2494 H   0  0  0  0  0  0  0  0  0  0  0  0
    0.7692    0.7201    1.6817 H   0  0  0  0  0  0  0  0  0  0  0  0
   -0.9841    0.6664    1.6030 H   0  0  0  0  0  0  0  0  0  0  0  0
  1  9  1  0  0  0  0
  1 11  1  0  0  0  0
  2  1  1  0  0  0  0
  2  8  1  0  0  0  0
  3  4  1  0  0  0  0
  3  2  2  0  0  0  0
  4  5  1  0  0  0  0
  4  6  1  1  0  0  0
  5  6  1  0  0  0  0
  6  8  1  0  0  0  0
  6  7  1  1  0  0  0
  7 16  1  0  0  0  0
  8 18  1  0  0  0  0
  8 17  1  0  0  0  0
 10  1  1  0  0  0  0
 12  3  1  0  0  0  0
 13  4  1  0  0  0  0
 14  5  1  0  0  0  0
 15  5  1  0  0  0  0
M  END
