19
title
C -0.0017696293 2.829219 -0.2129992
C -0.067744054 1.3364854 -0.26268482
C -0.0862502 0.5587964 -1.3514076
C -0.066672474 -0.8835094 -0.9810913
N 1.1699957 -1.2651434 -0.2258356
C -0.07735721 -0.94652677 0.5072128
C -0.77064425 -2.0200393 1.3044852
C -0.0942096 0.5004766 1.0080658
H 0.91847396 3.169735 0.27879366
H -0.030055095 3.2669258 -1.2146208
H -0.8358342 3.245739 0.36692098
H -0.06703137 0.91505325 -2.3751218
H -0.54384226 -1.6371679 -1.5998918
H 1.2607847 -2.2810376 -0.25678247
H -0.78933305 -2.968754 0.75726545
H -0.26208407 -2.195256 2.2602987
H -1.8065774 -1.7419512 1.527831
H 0.7687988 0.7128614 1.6511401
H -0.993806 0.7111872 1.6043471
