18
title
C 0.0063865376 2.835668 -0.21601997
C -0.07402809 1.344014 -0.2674298
C -0.072352655 0.5653575 -1.3569298
C -0.06710166 -0.8745826 -0.9747024
O 1.0994952 -1.2599847 -0.1991969
C -0.110758424 -0.9387391 0.498609
C -0.7264281 -2.0456517 1.3094147
C -0.13603914 0.50702727 1.0014335
H 0.91821426 3.1649253 0.29853183
H 0.00734368 3.2732635 -1.2179132
H -0.8366778 3.2603588 0.34406102
H -0.032431386 0.9163859 -2.3813124
H -0.4592544 -1.653512 -1.6225771
H -0.66648763 -2.9938734 0.7694115
H -0.20142314 -2.1661541 2.2639632
H -1.777582 -1.8318465 1.5304028
H 0.7105068 0.7119834 1.6687185
H -1.0490959 0.7173299 1.5753956
