17
title
C -0.05227483 2.6537106 -0.18010037
C -0.05947784 1.1709168 -0.31209576
N -0.045401715 0.49645105 -1.3957865
C -0.011294745 -0.89159906 -1.0046611
C 1.2035106 -1.3291782 -0.20297174
C -0.04755494 -0.9052328 0.5152252
C -0.83878785 -1.7792624 1.4408841
O -0.087008074 0.477962 0.86677796
H 0.8707327 2.9924304 0.30171812
H -0.12939684 3.106956 -1.1679393
H -0.8865961 2.983881 0.44648224
H -0.52538496 -1.5977193 -1.6463436
H 1.4227275 -2.3915284 -0.19247334
H 2.0700893 -0.67623055 -0.19071327
H -0.83479947 -2.8105998 1.0775976
H -0.41135052 -1.7754492 2.4492643
H -1.8772084 -1.4399496 1.5067499
