19
title
C 0.7530679 2.340217 -0.66646814
C 0.3746639 0.92524475 -0.3099326
C -1.1040295 0.5564675 -0.22447495
C -1.1595515 -0.79371107 0.5147893
O -1.1420491 -1.8214692 -0.4833846
C 0.112578355 -0.815464 1.3974851
C 1.1082696 0.07148361 0.67024404
N 1.283501 -0.13604856 -0.77647513
H 1.8393586 2.4584682 -0.6557
H 0.39984632 2.5982242 -1.6717489
H 0.3144645 3.0581262 0.036250338
H -1.6419228 1.3223981 0.34705958
H -1.5887123 0.47486627 -1.2029327
H -2.0717251 -0.88857985 1.1177514
H -1.0853697 -2.6712341 -0.033861324
H -0.105232306 -0.39618897 2.3879583
H 0.47204024 -1.8403157 1.5554434
H 1.991578 0.41738394 1.201102
H 0.75416887 -0.95047295 -1.082467
