18
title
C 0.7646642 2.3386261 -0.67272246
C 0.3643612 0.9454529 -0.27070034
C -1.1016446 0.53752375 -0.24913555
C -1.1554598 -0.8108811 0.504115
O -1.2190226 -1.8401355 -0.47179654
C 0.14189535 -0.8620691 1.361616
C 1.0958258 0.09906332 0.6853316
O 1.220124 -0.11776419 -0.72539806
H 1.8466069 2.4675071 -0.5878867
H 0.48005718 2.538073 -1.7117531
H 0.2705766 3.0855124 -0.04191168
H -1.6849871 1.3023545 0.27647397
H -1.5222025 0.4209758 -1.2518641
H -2.0426905 -0.8592985 1.1519428
H -1.158805 -2.6863706 -0.017574003
H -0.05357825 -0.5239485 2.3869257
H 0.53900015 -1.8816184 1.4203097
H 2.0020835 0.42959145 1.189745
