20
title
C -0.9293452 2.351431 0.35432798
C -0.5096496 0.91161275 0.17917348
C -1.3257349 -0.19256489 0.8117684
C 0.078009695 0.082268916 1.3050263
C 1.2040087 -0.77085227 0.74260324
C 0.99930245 -0.7720204 -0.7933419
O 0.18172428 -1.8557204 -1.2402915
C 0.24559829 0.5376864 -1.0945929
H -0.07415077 3.032368 0.26247054
H -1.667674 2.6465914 -0.40112904
H -1.3830458 2.5154927 1.337134
H -2.139053 0.116062306 1.4613525
H -1.5102684 -1.0975361 0.24539748
H 0.19943056 0.5039581 2.2977583
H 2.171913 -0.31476286 0.98544395
H 1.2251508 -1.7945138 1.1381311
H 1.9631617 -0.80665785 -1.3202407
H 0.5979945 -2.6744003 -0.95210993
H -0.39997053 0.40733543 -1.9691584
H 0.9658527 1.3304574 -1.3317839
