title
 OpenBabel02282109583D

 20 21  0  0  1  0  0  0  0  0999 V2000
   -0.9293    2.3514    0.3543 C   0  0  0  0  0  0  0  0  0  0  0  0
   -0.5096    0.9116    0.1792 C   0  0  2  0  0  0  0  0  0  0  0  0
   -1.3257   -0.1926    0.8118 C   0  0  0  0  0  0  0  0  0  0  0  0
    0.0780    0.0823    1.3050 C   0  0  1  0  0  0  0  0  0  0  0  0
    1.2040   -0.7709    0.7426 C   0  0  0  0  0  0  0  0  0  0  0  0
    0.9993   -0.7720   -0.7933 C   0  0  1  0  0  0  0  0  0  0  0  0
    0.1817   -1.8557   -1.2403 O   0  0  0  0  0  0  0  0  0  0  0  0
    0.2456    0.5377   -1.0946 C   0  0  0  0  0  0  0  0  0  0  0  0
   -0.0742    3.0324    0.2625 H   0  0  0  0  0  0  0  0  0  0  0  0
   -1.6677    2.6466   -0.4011 H   0  0  0  0  0  0  0  0  0  0  0  0
   -1.3830    2.5155    1.3371 H   0  0  0  0  0  0  0  0  0  0  0  0
   -2.1391    0.1161    1.4614 H   0  0  0  0  0  0  0  0  0  0  0  0
   -1.5103   -1.0975    0.2454 H   0  0  0  0  0  0  0  0  0  0  0  0
    0.1994    0.5040    2.2978 H   0  0  0  0  0  0  0  0  0  0  0  0
    2.1719   -0.3148    0.9854 H   0  0  0  0  0  0  0  0  0  0  0  0
    1.2252   -1.7945    1.1381 H   0  0  0  0  0  0  0  0  0  0  0  0
    1.9632   -0.8067   -1.3202 H   0  0  0  0  0  0  0  0  0  0  0  0
    0.5980   -2.6744   -0.9521 H   0  0  0  0  0  0  0  0  0  0  0  0
   -0.4000    0.4073   -1.9692 H   0  0  0  0  0  0  0  0  0  0  0  0
    0.9659    1.3305   -1.3318 H   0  0  0  0  0  0  0  0  0  0  0  0
  1 11  1  0  0  0  0
  2  1  1  0  0  0  0
  2  3  1  0  0  0  0
  2  4  1  1  0  0  0
  3  4  1  0  0  0  0
  3 12  1  0  0  0  0
  4 14  1  1  0  0  0
  5 15  1  0  0  0  0
  5 16  1  0  0  0  0
  5  4  1  0  0  0  0
  6 17  1  6  0  0  0
  6  5  1  0  0  0  0
  7 18  1  0  0  0  0
  7  6  1  0  0  0  0
  8  6  1  0  0  0  0
  8  2  1  0  0  0  0
  9  1  1  0  0  0  0
 10  1  1  0  0  0  0
 13  3  1  0  0  0  0
 19  8  1  0  0  0  0
 20  8  1  0  0  0  0
M  END
