19
title
C -0.73434305 2.3925078 0.35334873
C -0.46189126 0.92237663 0.15262635
C -1.2783005 -0.11653339 0.83695817
N 0.10074587 0.1591708 1.291692
C 1.099835 -0.7681693 0.7397326
C 0.92559415 -0.84318256 -0.79763657
O 0.067404345 -1.9044318 -1.2202431
C 0.23590197 0.48908958 -1.1348904
H 0.18491365 2.9808416 0.25055206
H -1.4526745 2.7612028 -0.38788688
H -1.1451738 2.577539 1.349098
H -2.0445867 0.19152594 1.5440022
H -1.4748198 -1.0451275 0.31128925
H 2.0922701 -0.36943996 0.98245347
H 1.0161796 -1.7557182 1.2088385
H 1.8971056 -0.9345646 -1.3029573
H 0.4595916 -2.7344074 -0.9302272
H -0.4446662 0.36432993 -1.9813868
H 0.9825339 1.2411966 -1.4141937
