title
 OpenBabel02282109583D

 20 21  0  0  1  0  0  0  0  0999 V2000
   -0.7669    2.5824    0.2621 C   0  0  0  0  0  0  0  0  0  0  0  0
   -0.8534    1.0699    0.1669 C   0  0  1  0  0  0  0  0  0  0  0  0
   -0.1968    0.4334   -1.0788 C   0  0  0  0  0  0  0  0  0  0  0  0
    0.3104   -0.9192   -0.5627 C   0  0  1  0  0  0  0  0  0  0  0  0
   -0.0724   -2.1802   -1.2994 C   0  0  0  0  0  0  0  0  0  0  0  0
    1.5996   -0.8659    0.2410 C   0  0  0  0  0  0  0  0  0  0  0  0
    0.2642   -0.7909    0.9358 C   0  0  1  0  0  0  0  0  0  0  0  0
   -0.1710    0.4936    1.2935 O   0  0  0  0  0  0  0  0  0  0  0  0
    0.2771    2.9089    0.2259 H   0  0  0  0  0  0  0  0  0  0  0  0
   -1.3081    3.0491   -0.5672 H   0  0  0  0  0  0  0  0  0  0  0  0
   -1.2049    2.9355    1.1999 H   0  0  0  0  0  0  0  0  0  0  0  0
   -1.9111    0.7598    0.2065 H   0  0  0  0  0  0  0  0  0  0  0  0
   -0.9201    0.3086   -1.8901 H   0  0  0  0  0  0  0  0  0  0  0  0
    0.6186    1.0618   -1.4557 H   0  0  0  0  0  0  0  0  0  0  0  0
    0.4013   -2.2240   -2.2873 H   0  0  0  0  0  0  0  0  0  0  0  0
    0.2400   -3.0722   -0.7469 H   0  0  0  0  0  0  0  0  0  0  0  0
   -1.1570   -2.2422   -1.4476 H   0  0  0  0  0  0  0  0  0  0  0  0
    2.1700   -1.7858    0.3300 H   0  0  0  0  0  0  0  0  0  0  0  0
    2.1924    0.0428    0.2179 H   0  0  0  0  0  0  0  0  0  0  0  0
   -0.0754   -1.5880    1.5917 H   0  0  0  0  0  0  0  0  0  0  0  0
  1 11  1  0  0  0  0
  2 12  1  1  0  0  0
  2  1  1  0  0  0  0
  2  8  1  0  0  0  0
  3  4  1  0  0  0  0
  3  2  1  0  0  0  0
  4  6  1  0  0  0  0
  4  7  1  1  0  0  0
  5 16  1  0  0  0  0
  5  4  1  0  0  0  0
  6 18  1  0  0  0  0
  6  7  1  0  0  0  0
  7  8  1  0  0  0  0
  7 20  1  1  0  0  0
  9  1  1  0  0  0  0
 10  1  1  0  0  0  0
 13  3  1  0  0  0  0
 14  3  1  0  0  0  0
 15  5  1  0  0  0  0
 17  5  1  0  0  0  0
 19  6  1  0  0  0  0
M  END
