20
title
C -0.7669334 2.582443 0.26209423
C -0.853442 1.0699301 0.16691045
C -0.1968009 0.43338177 -1.0787504
C 0.3104057 -0.9191638 -0.56267226
C -0.07240739 -2.18023 -1.2994283
C 1.5995536 -0.86588454 0.24097487
C 0.26422045 -0.7909095 0.9357888
O -0.17098881 0.49359593 1.2935492
H 0.27712414 2.9088976 0.22588216
H -1.3081138 3.0491002 -0.5671633
H -1.2049283 2.9355323 1.1998837
H -1.9110969 0.7597992 0.20651957
H -0.9201004 0.30857578 -1.8901433
H 0.6185795 1.0618033 -1.4557167
H 0.40132627 -2.2240412 -2.2872999
H 0.23996316 -3.0722213 -0.7468586
H -1.1570004 -2.2421532 -1.4475862
H 2.1699984 -1.785792 0.3300226
H 2.1923888 0.042798296 0.21792829
H -0.07535484 -1.5880011 1.591699
