title
 OpenBabel02282109583D

 18 19  0  0  1  0  0  0  0  0999 V2000
   -0.7307    2.6102    0.2796 C   0  0  0  0  0  0  0  0  0  0  0  0
   -0.8441    1.1011    0.1700 C   0  0  1  0  0  0  0  0  0  0  0  0
   -0.1910    0.4619   -1.0773 C   0  0  0  0  0  0  0  0  0  0  0  0
    0.3034   -0.8905   -0.5520 C   0  0  1  0  0  0  0  0  0  0  0  0
   -0.1158   -2.0603   -1.1849 O   0  0  0  0  0  0  0  0  0  0  0  0
    1.5855   -0.8883    0.2554 C   0  0  0  0  0  0  0  0  0  0  0  0
    0.2351   -0.7837    0.9377 C   0  0  1  0  0  0  0  0  0  0  0  0
   -0.1765    0.5043    1.2996 O   0  0  0  0  0  0  0  0  0  0  0  0
    0.3189    2.9190    0.2468 H   0  0  0  0  0  0  0  0  0  0  0  0
   -1.2634    3.0942   -0.5450 H   0  0  0  0  0  0  0  0  0  0  0  0
   -1.1627    2.9612    1.2210 H   0  0  0  0  0  0  0  0  0  0  0  0
   -1.9051    0.8061    0.2017 H   0  0  0  0  0  0  0  0  0  0  0  0
   -0.9142    0.3082   -1.8818 H   0  0  0  0  0  0  0  0  0  0  0  0
    0.6249    1.0861   -1.4603 H   0  0  0  0  0  0  0  0  0  0  0  0
    0.4846   -2.2334   -1.9182 H   0  0  0  0  0  0  0  0  0  0  0  0
    2.0994   -1.8402    0.3452 H   0  0  0  0  0  0  0  0  0  0  0  0
    2.2169   -0.0059    0.2444 H   0  0  0  0  0  0  0  0  0  0  0  0
   -0.1269   -1.5924    1.5645 H   0  0  0  0  0  0  0  0  0  0  0  0
  1 11  1  0  0  0  0
  2 12  1  1  0  0  0
  2  1  1  0  0  0  0
  2  8  1  0  0  0  0
  3  4  1  0  0  0  0
  3  2  1  0  0  0  0
  4  6  1  0  0  0  0
  4  7  1  1  0  0  0
  5  4  1  0  0  0  0
  6 16  1  0  0  0  0
  6  7  1  0  0  0  0
  7  8  1  0  0  0  0
  7 18  1  1  0  0  0
  9  1  1  0  0  0  0
 10  1  1  0  0  0  0
 13  3  1  0  0  0  0
 14  3  1  0  0  0  0
 15  5  1  0  0  0  0
 17  6  1  0  0  0  0
M  END
