title
 OpenBabel02282109583D

 20 21  0  0  1  0  0  0  0  0999 V2000
   -0.8646    2.6673   -0.2269 C   0  0  0  0  0  0  0  0  0  0  0  0
   -0.8455    1.1406   -0.2537 C   0  0  1  0  0  0  0  0  0  0  0  0
   -0.0624    0.5274   -1.4466 C   0  0  0  0  0  0  0  0  0  0  0  0
    0.3673   -0.8596   -0.9767 C   0  0  1  0  0  0  0  0  0  0  0  0
    1.6147   -0.9474   -0.1122 C   0  0  0  0  0  0  0  0  0  0  0  0
    0.2726   -0.8946    0.5402 C   0  0  2  0  0  0  0  0  0  0  0  0
   -0.1032   -2.0371    1.2508 O   0  0  0  0  0  0  0  0  0  0  0  0
   -0.2353    0.4764    1.0061 C   0  0  0  0  0  0  0  0  0  0  0  0
    0.1518    3.0687   -0.1381 H   0  0  0  0  0  0  0  0  0  0  0  0
   -1.3046    3.0765   -1.1429 H   0  0  0  0  0  0  0  0  0  0  0  0
   -1.4468    3.0473    0.6195 H   0  0  0  0  0  0  0  0  0  0  0  0
   -1.8810    0.7820   -0.3359 H   0  0  0  0  0  0  0  0  0  0  0  0
   -0.6806    0.4832   -2.3484 H   0  0  0  0  0  0  0  0  0  0  0  0
    0.8080    1.1504   -1.6933 H   0  0  0  0  0  0  0  0  0  0  0  0
    0.1089   -1.7343   -1.5631 H   0  0  0  0  0  0  0  0  0  0  0  0
    2.1172   -1.9082   -0.0845 H   0  0  0  0  0  0  0  0  0  0  0  0
    2.2715   -0.0840   -0.0474 H   0  0  0  0  0  0  0  0  0  0  0  0
   -1.0585   -2.1358    1.1715 H   0  0  0  0  0  0  0  0  0  0  0  0
    0.5815    1.0859    1.4142 H   0  0  0  0  0  0  0  0  0  0  0  0
   -0.9698    0.3580    1.8088 H   0  0  0  0  0  0  0  0  0  0  0  0
  1  9  1  0  0  0  0
  1 11  1  0  0  0  0
  2 12  1  6  0  0  0
  2  1  1  0  0  0  0
  2  8  1  0  0  0  0
  3  4  1  0  0  0  0
  3  2  1  0  0  0  0
  4  5  1  0  0  0  0
  4  6  1  1  0  0  0
  5 16  1  0  0  0  0
  5 17  1  0  0  0  0
  5  6  1  0  0  0  0
  6  8  1  0  0  0  0
  6  7  1  1  0  0  0
  8 19  1  0  0  0  0
  8 20  1  0  0  0  0
 10  1  1  0  0  0  0
 13  3  1  0  0  0  0
 14  3  1  0  0  0  0
 15  4  1  0  0  0  0
 18  7  1  0  0  0  0
M  END
