20
title
C -0.8645913 2.6672692 -0.22688006
C -0.8455395 1.1406296 -0.25365642
C -0.06235161 0.5274458 -1.4466218
C 0.3673071 -0.8595891 -0.97672725
C 1.6146945 -0.94742477 -0.112239875
C 0.2725511 -0.8945576 0.54022604
O -0.103199154 -2.0371253 1.2507981
C -0.23528859 0.47636268 1.006142
H 0.15181759 3.0687282 -0.13809472
H -1.304552 3.0765371 -1.1428657
H -1.4467893 3.0472715 0.6195027
H -1.8810005 0.78202623 -0.33593857
H -0.680645 0.48319456 -2.3483715
H 0.8079732 1.1504275 -1.6932575
H 0.1089088 -1.7343448 -1.5630587
H 2.1171691 -1.9082395 -0.084499426
H 2.2714562 -0.084045865 -0.047384568
H -1.0585476 -2.135808 1.171479
H 0.5814503 1.085852 1.414189
H -0.969832 0.3580136 1.8087554
