18
title
O 0.013882568 2.2425134 0.16064289
C 0.6572771 1.2185031 -0.5980755
C 1.5748979 0.3187213 0.27493802
C 0.7007748 -0.8331224 0.73922247
C -0.66370386 -0.49808073 1.3243953
C -0.54885715 -0.8552332 -0.122832686
O -1.1831367 -2.0333033 -0.5185807
C -0.44141716 0.28113008 -1.1321664
H 0.69928175 2.7593093 0.59635025
H 1.2236872 1.6768662 -1.4205614
H 2.4057214 -0.062843926 -0.33176607
H 2.0191414 0.89920133 1.0939133
H 1.1661935 -1.7607965 1.0534054
H -1.1050365 -1.2636552 1.9528357
H -0.8869216 0.526098 1.5980157
H -0.6904598 -2.4022212 -1.2606666
H -1.3762954 0.828023 -1.2833945
H -0.13669302 -0.13462985 -2.1017706
