title
 OpenBabel02282109583D

 18 19  0  0  1  0  0  0  0  0999 V2000
    0.0139    2.2425    0.1606 O   0  0  0  0  0  0  0  0  0  0  0  0
    0.6573    1.2185   -0.5981 C   0  0  1  0  0  0  0  0  0  0  0  0
    1.5749    0.3187    0.2749 C   0  0  0  0  0  0  0  0  0  0  0  0
    0.7008   -0.8331    0.7392 C   0  0  1  0  0  0  0  0  0  0  0  0
   -0.6637   -0.4981    1.3244 C   0  0  0  0  0  0  0  0  0  0  0  0
   -0.5489   -0.8552   -0.1228 C   0  0  2  0  0  0  0  0  0  0  0  0
   -1.1831   -2.0333   -0.5186 O   0  0  0  0  0  0  0  0  0  0  0  0
   -0.4414    0.2811   -1.1322 C   0  0  0  0  0  0  0  0  0  0  0  0
    0.6993    2.7593    0.5964 H   0  0  0  0  0  0  0  0  0  0  0  0
    1.2237    1.6769   -1.4206 H   0  0  0  0  0  0  0  0  0  0  0  0
    2.4057   -0.0628   -0.3318 H   0  0  0  0  0  0  0  0  0  0  0  0
    2.0191    0.8992    1.0939 H   0  0  0  0  0  0  0  0  0  0  0  0
    1.1662   -1.7608    1.0534 H   0  0  0  0  0  0  0  0  0  0  0  0
   -1.1050   -1.2637    1.9528 H   0  0  0  0  0  0  0  0  0  0  0  0
   -0.8869    0.5261    1.5980 H   0  0  0  0  0  0  0  0  0  0  0  0
   -0.6905   -2.4022   -1.2607 H   0  0  0  0  0  0  0  0  0  0  0  0
   -1.3763    0.8280   -1.2834 H   0  0  0  0  0  0  0  0  0  0  0  0
   -0.1367   -0.1346   -2.1018 H   0  0  0  0  0  0  0  0  0  0  0  0
  1  9  1  0  0  0  0
  2 10  1  6  0  0  0
  2  1  1  0  0  0  0
  2  3  1  0  0  0  0
  3  4  1  0  0  0  0
  3 12  1  0  0  0  0
  4  6  1  6  0  0  0
  4 13  1  0  0  0  0
  4  5  1  0  0  0  0
  5 15  1  0  0  0  0
  5 14  1  0  0  0  0
  6  7  1  6  0  0  0
  6  5  1  0  0  0  0
  8  2  1  0  0  0  0
  8  6  1  0  0  0  0
 11  3  1  0  0  0  0
 16  7  1  0  0  0  0
 17  8  1  0  0  0  0
 18  8  1  0  0  0  0
M  END
