18
title
C 0.24792208 2.1695807 0.041156694
C 0.32366142 0.6653039 0.049145963
C 1.2611829 -0.18023343 -0.8894245
C 0.98058635 -1.3087821 0.14185399
C 0.95083153 -0.18468626 1.2148944
C -0.5189755 -1.5792558 -0.079881705
C -0.9782015 -0.107053 -0.14448363
O -2.0856607 0.3323814 -0.30691734
H 1.2337469 2.62141 0.1875582
H -0.1593327 2.531211 -0.9085623
H -0.41646963 2.5275204 0.83429074
H 0.95299435 -0.33240885 -1.9284213
H 2.2905483 0.18490835 -0.85115236
H 1.6386311 -2.1712275 0.23707916
H 1.9471958 0.17998366 1.4769266
H 0.35591504 -0.34097642 2.1200461
H -0.7468455 -2.1075146 -1.0110968
H -1.0056517 -2.11124 0.7436975
