title
 OpenBabel02282109583D

 17 18  0  0  1  0  0  0  0  0999 V2000
    0.2811    2.1649    0.0442 C   0  0  0  0  0  0  0  0  0  0  0  0
    0.3592    0.6615    0.0345 C   0  0  1  0  0  0  0  0  0  0  0  0
    1.2987   -0.1819   -0.8978 C   0  0  0  0  0  0  0  0  0  0  0  0
    0.9170   -1.3023    0.1004 C   0  0  1  0  0  0  0  0  0  0  0  0
    0.9523   -0.2127    1.2106 C   0  0  0  0  0  0  0  0  0  0  0  0
   -0.5270   -1.4312   -0.2070 N   0  0  0  0  0  0  0  0  0  0  0  0
   -0.9664   -0.1076   -0.1419 C   0  0  0  0  0  0  0  0  0  0  0  0
   -2.0973    0.3095   -0.1669 O   0  0  0  0  0  0  0  0  0  0  0  0
    1.2612    2.6148    0.2300 H   0  0  0  0  0  0  0  0  0  0  0  0
   -0.0923    2.5391   -0.9145 H   0  0  0  0  0  0  0  0  0  0  0  0
   -0.4117    2.5090    0.8182 H   0  0  0  0  0  0  0  0  0  0  0  0
    1.0047   -0.3211   -1.9404 H   0  0  0  0  0  0  0  0  0  0  0  0
    2.3426    0.1304   -0.8185 H   0  0  0  0  0  0  0  0  0  0  0  0
    1.4396   -2.2548    0.1621 H   0  0  0  0  0  0  0  0  0  0  0  0
    1.9602    0.1021    1.4936 H   0  0  0  0  0  0  0  0  0  0  0  0
    0.3329   -0.3708    2.0981 H   0  0  0  0  0  0  0  0  0  0  0  0
   -1.0900   -2.1501    0.2254 H   0  0  0  0  0  0  0  0  0  0  0  0
  1  9  1  0  0  0  0
  1 11  1  0  0  0  0
  2  1  1  1  0  0  0
  2  5  1  0  0  0  0
  3 13  1  0  0  0  0
  3  2  1  0  0  0  0
  3  4  1  0  0  0  0
  4 14  1  1  0  0  0
  4  5  1  0  0  0  0
  5 15  1  0  0  0  0
  5 16  1  0  0  0  0
  6  7  1  0  0  0  0
  6  4  1  0  0  0  0
  6 17  1  0  0  0  0
  7  2  1  0  0  0  0
  8  7  2  0  0  0  0
 10  1  1  0  0  0  0
 12  3  1  0  0  0  0
M  END
