17
title
C 0.28977528 2.1778905 0.04695549
C 0.3471691 0.6733869 0.04895628
C 1.251827 -0.18977979 -0.9133008
C 0.88433254 -1.2804579 0.11339139
C 0.96812767 -0.19780442 1.2086366
O -0.55694824 -1.4146684 -0.07980763
C -0.94738054 -0.09246292 -0.12701495
N -2.1147416 0.3537736 -0.2813715
H 1.285063 2.612025 0.1821671
H -0.12529422 2.5446436 -0.89649457
H -0.3597399 2.538018 0.85027474
H 0.91964185 -0.33635744 -1.9433584
H 2.300675 0.11063979 -0.8740863
H 1.3346058 -2.2684143 0.16985784
H 1.990141 0.10186068 1.4485565
H 0.3771687 -0.3517051 2.1141381
H -2.786892 -0.41032806 -0.37410083
