17
title
C 0.21524757 2.1953716 0.048594303
C 0.3043653 0.69285023 0.049362138
C 1.2305186 -0.17922035 -0.8613866
N 1.0042384 -1.3006827 0.13408296
C 0.93815607 -0.19550863 1.1704524
C -0.4492547 -1.549787 -0.07705522
C -0.98568267 -0.101188086 -0.14263597
O -2.1058276 0.30337787 -0.30064893
H 1.196286 2.6582491 0.1931731
H -0.20022321 2.5560637 -0.8978707
H -0.45054215 2.542107 0.84546995
H 0.92276335 -0.3958774 -1.8886992
H 2.2750053 0.14186335 -0.838898
H 1.9458879 0.1235197 1.4483923
H 0.35374695 -0.42757633 2.065794
H -0.6277231 -2.1014464 -1.0044527
H -0.88069636 -2.1155338 0.7536279
