title
 OpenBabel02282109583D

 17 18  0  0  1  0  0  0  0  0999 V2000
    0.2152    2.1954    0.0486 C   0  0  0  0  0  0  0  0  0  0  0  0
    0.3044    0.6929    0.0494 C   0  0  1  0  0  0  0  0  0  0  0  0
    1.2305   -0.1792   -0.8614 C   0  0  0  0  0  0  0  0  0  0  0  0
    1.0042   -1.3007    0.1341 N   0  0  1  0  0  0  0  0  0  0  0  0
    0.9382   -0.1955    1.1705 C   0  0  0  0  0  0  0  0  0  0  0  0
   -0.4493   -1.5498   -0.0771 C   0  0  0  0  0  0  0  0  0  0  0  0
   -0.9857   -0.1012   -0.1426 C   0  0  0  0  0  0  0  0  0  0  0  0
   -2.1058    0.3034   -0.3006 O   0  0  0  0  0  0  0  0  0  0  0  0
    1.1963    2.6582    0.1932 H   0  0  0  0  0  0  0  0  0  0  0  0
   -0.2002    2.5561   -0.8979 H   0  0  0  0  0  0  0  0  0  0  0  0
   -0.4505    2.5421    0.8455 H   0  0  0  0  0  0  0  0  0  0  0  0
    0.9228   -0.3959   -1.8887 H   0  0  0  0  0  0  0  0  0  0  0  0
    2.2750    0.1419   -0.8389 H   0  0  0  0  0  0  0  0  0  0  0  0
    1.9459    0.1235    1.4484 H   0  0  0  0  0  0  0  0  0  0  0  0
    0.3537   -0.4276    2.0658 H   0  0  0  0  0  0  0  0  0  0  0  0
   -0.6277   -2.1014   -1.0045 H   0  0  0  0  0  0  0  0  0  0  0  0
   -0.8807   -2.1155    0.7536 H   0  0  0  0  0  0  0  0  0  0  0  0
  1  9  1  0  0  0  0
  1 11  1  0  0  0  0
  2  1  1  1  0  0  0
  2  5  1  0  0  0  0
  3 13  1  0  0  0  0
  3  2  1  0  0  0  0
  4  3  1  6  0  0  0
  4  5  1  0  0  0  0
  5 14  1  0  0  0  0
  5 15  1  0  0  0  0
  6  4  1  0  0  0  0
  6 17  1  0  0  0  0
  7  6  1  0  0  0  0
  7  2  1  0  0  0  0
  8  7  2  0  0  0  0
 10  1  1  0  0  0  0
 12  3  1  0  0  0  0
 16  6  1  0  0  0  0
M  END
