15
title
N -0.27814567 2.0877984 0.32387105
C -0.2390918 0.6589642 0.29601112
C 0.1571813 -0.20924921 1.5435766
C -0.5204032 -1.2992847 0.68669033
C -1.5323018 -0.2297026 0.22451061
O 0.38042688 -1.4040751 -0.46548158
C 0.59457064 -0.083204046 -0.76024395
O 1.2827955 0.32354814 -1.6480287
H 0.6679822 2.4499085 0.42116004
H -0.60757154 2.434459 -0.57448894
H 1.2172116 -0.33822876 1.7734113
H -0.41368142 0.06985764 2.4305115
H -0.77812684 -2.2960742 1.0322406
H -2.2584605 0.04751997 0.9901998
H -2.0103214 -0.37730235 -0.7464867
