title
 OpenBabel02282109583D

 16 17  0  0  1  0  0  0  0  0999 V2000
   -0.1451    1.9956    0.2432 O   0  0  0  0  0  0  0  0  0  0  0  0
   -0.2114    0.6247    0.2798 C   0  0  1  0  0  0  0  0  0  0  0  0
    0.1186   -0.2511    1.5414 C   0  0  0  0  0  0  0  0  0  0  0  0
   -0.6226   -1.3457    0.7202 C   0  0  1  0  0  0  0  0  0  0  0  0
   -1.5409   -0.2069    0.1893 C   0  0  0  0  0  0  0  0  0  0  0  0
    0.3399   -1.5748   -0.4687 C   0  0  0  0  0  0  0  0  0  0  0  0
    0.6190   -0.0969   -0.7629 C   0  0  0  0  0  0  0  0  0  0  0  0
    1.3089    0.4418   -1.5917 O   0  0  0  0  0  0  0  0  0  0  0  0
    0.4560    2.2149   -0.4872 H   0  0  0  0  0  0  0  0  0  0  0  0
    1.1678   -0.4117    1.8051 H   0  0  0  0  0  0  0  0  0  0  0  0
   -0.4493    0.0860    2.4107 H   0  0  0  0  0  0  0  0  0  0  0  0
   -1.0398   -2.2256    1.2035 H   0  0  0  0  0  0  0  0  0  0  0  0
   -2.2667    0.1343    0.9300 H   0  0  0  0  0  0  0  0  0  0  0  0
   -2.0157   -0.3269   -0.7886 H   0  0  0  0  0  0  0  0  0  0  0  0
    1.2558   -2.1130   -0.2054 H   0  0  0  0  0  0  0  0  0  0  0  0
   -0.1197   -2.0763   -1.3261 H   0  0  0  0  0  0  0  0  0  0  0  0
  2  1  1  1  0  0  0
  2  3  1  0  0  0  0
  3 10  1  0  0  0  0
  3 11  1  0  0  0  0
  4 12  1  1  0  0  0
  4  3  1  0  0  0  0
  5  2  1  0  0  0  0
  5  4  1  0  0  0  0
  5 13  1  0  0  0  0
  6 15  1  0  0  0  0
  6  4  1  0  0  0  0
  7  6  1  0  0  0  0
  7  2  1  0  0  0  0
  8  7  2  0  0  0  0
  9  1  1  0  0  0  0
 14  5  1  0  0  0  0
 16  6  1  0  0  0  0
M  END
