title
 OpenBabel02282109583D

 15 16  0  0  1  0  0  0  0  0999 V2000
   -0.1538    1.9886    0.2779 O   0  0  0  0  0  0  0  0  0  0  0  0
   -0.2188    0.6192    0.3184 C   0  0  1  0  0  0  0  0  0  0  0  0
    0.1005   -0.2566    1.5742 C   0  0  0  0  0  0  0  0  0  0  0  0
   -0.5641   -1.3386    0.6807 C   0  0  1  0  0  0  0  0  0  0  0  0
   -1.5433   -0.2330    0.1875 C   0  0  0  0  0  0  0  0  0  0  0  0
    0.4367   -1.4249   -0.4179 N   0  0  0  0  0  0  0  0  0  0  0  0
    0.6133   -0.0984   -0.7534 C   0  0  0  0  0  0  0  0  0  0  0  0
    1.2178    0.4248   -1.6611 O   0  0  0  0  0  0  0  0  0  0  0  0
    0.3869    2.2064   -0.4985 H   0  0  0  0  0  0  0  0  0  0  0  0
    1.1456   -0.4068    1.8516 H   0  0  0  0  0  0  0  0  0  0  0  0
   -0.5091    0.0198    2.4365 H   0  0  0  0  0  0  0  0  0  0  0  0
   -0.8839   -2.3046    1.0605 H   0  0  0  0  0  0  0  0  0  0  0  0
   -2.2956    0.0538    0.9253 H   0  0  0  0  0  0  0  0  0  0  0  0
   -1.9879   -0.3525   -0.8039 H   0  0  0  0  0  0  0  0  0  0  0  0
    0.4004   -2.1414   -1.1280 H   0  0  0  0  0  0  0  0  0  0  0  0
  2  1  1  1  0  0  0
  2  3  1  0  0  0  0
  3 10  1  0  0  0  0
  3 11  1  0  0  0  0
  4 12  1  1  0  0  0
  4  3  1  0  0  0  0
  5  2  1  0  0  0  0
  5  4  1  0  0  0  0
  5 13  1  0  0  0  0
  6  4  1  0  0  0  0
  7  6  1  0  0  0  0
  7  2  1  0  0  0  0
  8  7  2  0  0  0  0
  9  1  1  0  0  0  0
 14  5  1  0  0  0  0
 15  6  1  0  0  0  0
M  END
