15
title
O -0.15777951 2.0054862 0.26820493
C -0.21791956 0.6366187 0.2980012
C 0.14657687 -0.25474203 1.5445044
C -0.5594593 -1.3086876 0.66494757
C -1.5437795 -0.20933814 0.21165992
O 0.34925106 -1.4149692 -0.49110854
C 0.58700347 -0.09627201 -0.74771523
N 1.2982814 0.45037225 -1.6309934
H 0.43032625 2.2337763 -0.4691409
H 1.2004406 -0.41559237 1.7799919
H -0.4259634 0.020936357 2.431264
H -0.84262496 -2.3043823 0.9901414
H -2.2633286 0.070277676 0.9825083
H -2.0232496 -0.3290062 -0.7618619
H 1.7617188 -0.2218826 -2.2414937
