14
title
O -0.16197084 2.002458 0.32198378
C -0.23035903 0.6338053 0.32399896
C 0.12431183 -0.29054862 1.5472419
C -0.5721416 -1.3193204 0.6312658
C -1.5528786 -0.20954503 0.19672176
O 0.34944692 -1.3963262 -0.51834893
C 0.59179384 -0.07835788 -0.73988503
O 1.2958794 0.39484718 -1.5851308
H 0.43163005 2.2516918 -0.40233946
H 1.1759952 -0.45840877 1.7882847
H -0.455561 -0.04041524 2.4370778
H -0.8584227 -2.3231602 0.9264058
H -2.2837567 0.047656167 0.96503973
H -2.0206864 -0.30391198 -0.78541976
