title
 OpenBabel02282109583D

 14 15  0  0  1  0  0  0  0  0999 V2000
   -0.1620    2.0025    0.3220 O   0  0  0  0  0  0  0  0  0  0  0  0
   -0.2304    0.6338    0.3240 C   0  0  1  0  0  0  0  0  0  0  0  0
    0.1243   -0.2905    1.5472 C   0  0  0  0  0  0  0  0  0  0  0  0
   -0.5721   -1.3193    0.6313 C   0  0  1  0  0  0  0  0  0  0  0  0
   -1.5529   -0.2095    0.1967 C   0  0  0  0  0  0  0  0  0  0  0  0
    0.3494   -1.3963   -0.5183 O   0  0  0  0  0  0  0  0  0  0  0  0
    0.5918   -0.0784   -0.7399 C   0  0  0  0  0  0  0  0  0  0  0  0
    1.2959    0.3948   -1.5851 O   0  0  0  0  0  0  0  0  0  0  0  0
    0.4316    2.2517   -0.4023 H   0  0  0  0  0  0  0  0  0  0  0  0
    1.1760   -0.4584    1.7883 H   0  0  0  0  0  0  0  0  0  0  0  0
   -0.4556   -0.0404    2.4371 H   0  0  0  0  0  0  0  0  0  0  0  0
   -0.8584   -2.3232    0.9264 H   0  0  0  0  0  0  0  0  0  0  0  0
   -2.2838    0.0477    0.9650 H   0  0  0  0  0  0  0  0  0  0  0  0
   -2.0207   -0.3039   -0.7854 H   0  0  0  0  0  0  0  0  0  0  0  0
  2  1  1  1  0  0  0
  2  3  1  0  0  0  0
  3 10  1  0  0  0  0
  3 11  1  0  0  0  0
  4 12  1  1  0  0  0
  4  3  1  0  0  0  0
  5  2  1  0  0  0  0
  5  4  1  0  0  0  0
  5 13  1  0  0  0  0
  6  4  1  0  0  0  0
  7  6  1  0  0  0  0
  7  2  1  0  0  0  0
  8  7  2  0  0  0  0
  9  1  1  0  0  0  0
 14  5  1  0  0  0  0
M  END
