15
title
O -0.12955153 2.0192153 0.20878854
C -0.20157945 0.6520202 0.2642489
C 0.108191565 -0.2507342 1.5055743
N -0.6295707 -1.3338286 0.74315935
C -1.5012263 -0.21882142 0.19938053
C 0.3007122 -1.548493 -0.4082326
C 0.62197435 -0.09297753 -0.7686136
O 1.3153657 0.41723332 -1.6104957
H 0.4709121 2.2310169 -0.52528274
H 1.14584 -0.48030823 1.7627306
H -0.45488736 0.040363602 2.394354
H -2.2481139 0.07591616 0.93898547
H -1.9715447 -0.41850203 -0.767303
H 1.1853911 -2.1137195 -0.10216805
H -0.19398536 -2.08644 -1.2216817
