18
title
C 0.04111352 2.343957 -0.5313452
C 0.015181213 0.8569566 -0.57004446
C -0.039314948 -0.02136427 -1.5748928
C -0.034953326 -1.3596236 -0.8184179
C 1.1168642 -1.140433 0.20171896
C 0.044560224 -0.09727049 0.66157174
C -0.081401736 0.4412771 2.058761
O -0.97495604 -1.0876695 0.2745693
H 0.9459194 2.7193484 -0.035665415
H 0.008925534 2.768924 -1.5384256
H -0.81045717 2.7456386 0.03270153
H -0.07416398 0.1331929 -2.643741
H -0.2126429 -2.2942443 -1.3482459
H 1.2232841 -1.9655262 0.91143155
H 2.082209 -0.7817038 -0.16274521
H 0.73833716 1.1323233 2.280677
H -1.0259326 0.9814733 2.180451
H -0.055984065 -0.3715918 2.789085
