18
title
C -0.29569432 2.139217 -0.19589986
C -0.19555466 0.6429618 -0.23726095
C 0.5125271 -0.16621922 -1.3513161
C -0.52911365 -1.1884904 -0.8572222
C -0.04690089 -1.564238 0.55668676
C 0.23244904 -0.107383355 1.0499756
O 1.5893558 0.18725203 1.3346424
O -1.433857 -0.07386933 -0.5649614
H 0.6730429 2.5637836 0.08373024
H -0.5936762 2.5430942 -1.1670872
H -1.0348049 2.4515042 0.54981786
H 0.26851076 0.22213508 -2.3409686
H 1.5760291 -0.38690415 -1.2461271
H -0.96325064 -1.9595319 -1.493389
H -0.82969594 -2.0685465 1.127539
H 0.86074567 -2.1747935 0.5644848
H -0.4169605 0.1776699 1.8876158
H 1.8322498 -0.2587848 2.1511505
