22
title
C -0.9823269 1.9633882 -0.5459857
C -0.8229945 0.4435279 -0.5320612
C 0.11839521 -0.12707365 -1.649194
C 1.0932537 -0.9333003 -0.7718621
C 1.3985256 0.070352316 0.37260675
C -0.11017293 -0.15593153 0.71415377
C -0.6877707 0.15005878 2.0777133
C 0.12840068 -1.6225563 0.23183781
H -0.021362305 2.475775 -0.4272899
H -1.4148475 2.2973125 -1.4953939
H -1.6453012 2.3068392 0.25533128
H -1.8216238 -0.003903957 -0.61498314
H -0.41426185 -0.7521092 -2.372495
H 0.6252363 0.6689293 -2.2056391
H 1.8858579 -1.4847528 -1.2789707
H 2.057417 -0.34895027 1.1377883
H 1.735284 1.0768245 0.10603749
H -0.663299 1.2238858 2.2943978
H -1.7327954 -0.176251 2.1464593
H -0.12789875 -0.35958016 2.8691041
H -0.7268323 -2.178084 -0.16812906
H 0.6521164 -2.225358 0.9786105
