title
 OpenBabel02282109583D

 20 21  0  0  1  0  0  0  0  0999 V2000
   -0.9712    1.9950   -0.6022 C   0  0  0  0  0  0  0  0  0  0  0  0
   -0.8130    0.4766   -0.5621 C   0  0  1  0  0  0  0  0  0  0  0  0
    0.1368   -0.1370   -1.6442 C   0  0  0  0  0  0  0  0  0  0  0  0
    1.0623   -0.9076   -0.6823 C   0  0  1  0  0  0  0  0  0  0  0  0
    1.4102    0.1274    0.4040 C   0  0  0  0  0  0  0  0  0  0  0  0
   -0.0956   -0.1147    0.6871 C   0  0  1  0  0  0  0  0  0  0  0  0
   -0.7315    0.0275    2.0410 C   0  0  0  0  0  0  0  0  0  0  0  0
    0.1073   -1.5051    0.2482 O   0  0  0  0  0  0  0  0  0  0  0  0
   -0.0064    2.5085   -0.5291 H   0  0  0  0  0  0  0  0  0  0  0  0
   -1.4396    2.3119   -1.5399 H   0  0  0  0  0  0  0  0  0  0  0  0
   -1.6040    2.3541    0.2168 H   0  0  0  0  0  0  0  0  0  0  0  0
   -1.8021    0.0108   -0.6232 H   0  0  0  0  0  0  0  0  0  0  0  0
   -0.3804   -0.8076   -2.3338 H   0  0  0  0  0  0  0  0  0  0  0  0
    0.6682    0.6218   -2.2278 H   0  0  0  0  0  0  0  0  0  0  0  0
    1.7854   -1.6128   -1.0921 H   0  0  0  0  0  0  0  0  0  0  0  0
    2.0362   -0.2974    1.1899 H   0  0  0  0  0  0  0  0  0  0  0  0
    1.7588    1.1211    0.1109 H   0  0  0  0  0  0  0  0  0  0  0  0
   -0.7972    1.0824    2.3265 H   0  0  0  0  0  0  0  0  0  0  0  0
   -1.7454   -0.3871    2.0340 H   0  0  0  0  0  0  0  0  0  0  0  0
   -0.1499   -0.5004    2.8016 H   0  0  0  0  0  0  0  0  0  0  0  0
  1  2  1  0  0  0  0
  1  9  1  0  0  0  0
  1 11  1  0  0  0  0
  2  6  1  1  0  0  0
  3  4  1  0  0  0  0
  3  2  1  0  0  0  0
  4 15  1  6  0  0  0
  4  8  1  0  0  0  0
  4  5  1  0  0  0  0
  5  6  1  0  0  0  0
  5 16  1  0  0  0  0
  6  7  1  1  0  0  0
  7 18  1  0  0  0  0
  7 20  1  0  0  0  0
  8  6  1  0  0  0  0
 10  1  1  0  0  0  0
 12  2  1  0  0  0  0
 13  3  1  0  0  0  0
 14  3  1  0  0  0  0
 17  5  1  0  0  0  0
 19  7  1  0  0  0  0
M  END
