title
 OpenBabel02282109583D

 20 21  0  0  1  0  0  0  0  0999 V2000
   -0.9738    1.9618   -0.5166 C   0  0  0  0  0  0  0  0  0  0  0  0
   -0.8218    0.4429   -0.5396 C   0  0  1  0  0  0  0  0  0  0  0  0
    0.1094   -0.1328   -1.6582 C   0  0  0  0  0  0  0  0  0  0  0  0
    1.0921   -0.9390   -0.7827 C   0  0  1  0  0  0  0  0  0  0  0  0
    1.4141    0.0704    0.3550 C   0  0  0  0  0  0  0  0  0  0  0  0
   -0.0962   -0.1597    0.6831 C   0  0  1  0  0  0  0  0  0  0  0  0
   -0.6922    0.1948    1.8907 O   0  0  0  0  0  0  0  0  0  0  0  0
    0.1328   -1.6339    0.2258 C   0  0  0  0  0  0  0  0  0  0  0  0
   -0.0046    2.4690   -0.4629 H   0  0  0  0  0  0  0  0  0  0  0  0
   -1.4787    2.3141   -1.4225 H   0  0  0  0  0  0  0  0  0  0  0  0
   -1.5651    2.2776    0.3479 H   0  0  0  0  0  0  0  0  0  0  0  0
   -1.8214   -0.0024   -0.6020 H   0  0  0  0  0  0  0  0  0  0  0  0
   -0.4274   -0.7625   -2.3738 H   0  0  0  0  0  0  0  0  0  0  0  0
    0.6134    0.6599   -2.2208 H   0  0  0  0  0  0  0  0  0  0  0  0
    1.8820   -1.4939   -1.2867 H   0  0  0  0  0  0  0  0  0  0  0  0
    2.0698   -0.3569    1.1194 H   0  0  0  0  0  0  0  0  0  0  0  0
    1.7528    1.0744    0.0870 H   0  0  0  0  0  0  0  0  0  0  0  0
   -0.1865   -0.1995    2.6083 H   0  0  0  0  0  0  0  0  0  0  0  0
   -0.7227   -2.1931   -0.1650 H   0  0  0  0  0  0  0  0  0  0  0  0
    0.6672   -2.2270    0.9738 H   0  0  0  0  0  0  0  0  0  0  0  0
  1  9  1  0  0  0  0
  1 11  1  0  0  0  0
  2  1  1  0  0  0  0
  2  6  1  1  0  0  0
  3  4  1  0  0  0  0
  3  2  1  0  0  0  0
  4 15  1  6  0  0  0
  4  8  1  0  0  0  0
  4  5  1  0  0  0  0
  5  6  1  0  0  0  0
  5 16  1  0  0  0  0
  6  7  1  1  0  0  0
  7 18  1  0  0  0  0
  8  6  1  0  0  0  0
  8 20  1  0  0  0  0
 10  1  1  0  0  0  0
 12  2  1  0  0  0  0
 13  3  1  0  0  0  0
 14  3  1  0  0  0  0
 17  5  1  0  0  0  0
 19  8  1  0  0  0  0
M  END
