title
 OpenBabel02282109583D

 19 20  0  0  1  0  0  0  0  0999 V2000
   -0.9715    1.9820   -0.5024 C   0  0  0  0  0  0  0  0  0  0  0  0
   -0.8383    0.4618   -0.5178 C   0  0  1  0  0  0  0  0  0  0  0  0
    0.1131   -0.1434   -1.6021 C   0  0  0  0  0  0  0  0  0  0  0  0
    1.0899   -0.9485   -0.7967 N   0  0  1  0  0  0  0  0  0  0  0  0
    1.3869    0.0411    0.3089 C   0  0  0  0  0  0  0  0  0  0  0  0
   -0.1103   -0.1491    0.6965 C   0  0  1  0  0  0  0  0  0  0  0  0
   -0.6831    0.1950    1.9159 O   0  0  0  0  0  0  0  0  0  0  0  0
    0.1382   -1.5981    0.1875 C   0  0  0  0  0  0  0  0  0  0  0  0
    0.0028    2.4791   -0.4453 H   0  0  0  0  0  0  0  0  0  0  0  0
   -1.4682    2.3376   -1.4113 H   0  0  0  0  0  0  0  0  0  0  0  0
   -1.5641    2.3085    0.3575 H   0  0  0  0  0  0  0  0  0  0  0  0
   -1.8410    0.0245   -0.5854 H   0  0  0  0  0  0  0  0  0  0  0  0
   -0.3971   -0.7969   -2.3140 H   0  0  0  0  0  0  0  0  0  0  0  0
    0.6528    0.6236   -2.1653 H   0  0  0  0  0  0  0  0  0  0  0  0
    2.0844   -0.3978    1.0282 H   0  0  0  0  0  0  0  0  0  0  0  0
    1.7501    1.0177   -0.0210 H   0  0  0  0  0  0  0  0  0  0  0  0
   -0.1684   -0.2073    2.6229 H   0  0  0  0  0  0  0  0  0  0  0  0
   -0.6884   -2.1581   -0.2600 H   0  0  0  0  0  0  0  0  0  0  0  0
    0.6933   -2.2294    0.8874 H   0  0  0  0  0  0  0  0  0  0  0  0
  1  9  1  0  0  0  0
  1 11  1  0  0  0  0
  2  1  1  0  0  0  0
  2  6  1  1  0  0  0
  3  2  1  0  0  0  0
  4  3  1  6  0  0  0
  4  8  1  0  0  0  0
  4  5  1  0  0  0  0
  5  6  1  0  0  0  0
  5 15  1  0  0  0  0
  6  7  1  1  0  0  0
  7 17  1  0  0  0  0
  8  6  1  0  0  0  0
  8 19  1  0  0  0  0
 10  1  1  0  0  0  0
 12  2  1  0  0  0  0
 13  3  1  0  0  0  0
 14  3  1  0  0  0  0
 16  5  1  0  0  0  0
 18  8  1  0  0  0  0
M  END
