19
title
C -0.97151655 1.9820257 -0.50238186
C -0.83829695 0.4618201 -0.5177869
C 0.11311466 -0.14338955 -1.602075
N 1.0898625 -0.94847655 -0.79666644
C 1.3869199 0.04113666 0.30889794
C -0.11031037 -0.14906809 0.69647217
O -0.68310297 0.19499268 1.915864
C 0.13823135 -1.5980546 0.18749967
H 0.002755414 2.4791093 -0.44529343
H -1.468212 2.3376398 -1.4113388
H -1.564106 2.3084903 0.35746512
H -1.840982 0.024476564 -0.58535564
H -0.3970672 -0.7969059 -2.3140354
H 0.65283185 0.6235518 -2.1653209
H 2.0844176 -0.39777967 1.0281955
H 1.7500724 1.017677 -0.020983672
H -0.16839825 -0.20733306 2.6229246
H -0.6884297 -2.1581192 -0.2599544
H 0.6933269 -2.2293735 0.8873569
