title
 OpenBabel02282109583D

 20 21  0  0  1  0  0  0  0  0999 V2000
   -0.9197    1.9466   -0.5590 C   0  0  0  0  0  0  0  0  0  0  0  0
   -0.7980    0.4330   -0.4863 C   0  0  1  0  0  0  0  0  0  0  0  0
    0.0619   -0.0695   -1.5414 O   0  0  0  0  0  0  0  0  0  0  0  0
    1.0072   -0.8592   -0.8027 C   0  0  1  0  0  0  0  0  0  0  0  0
    1.4069    0.0637    0.3706 C   0  0  0  0  0  0  0  0  0  0  0  0
   -0.0950   -0.1775    0.7505 C   0  0  1  0  0  0  0  0  0  0  0  0
   -0.6703    0.1111    2.1165 C   0  0  0  0  0  0  0  0  0  0  0  0
    0.1246   -1.6313    0.2039 C   0  0  0  0  0  0  0  0  0  0  0  0
    0.0336    2.4445   -0.3615 H   0  0  0  0  0  0  0  0  0  0  0  0
   -1.2522    2.2422   -1.5584 H   0  0  0  0  0  0  0  0  0  0  0  0
   -1.6586    2.3091    0.1637 H   0  0  0  0  0  0  0  0  0  0  0  0
   -1.7978   -0.0101   -0.6061 H   0  0  0  0  0  0  0  0  0  0  0  0
    1.7134   -1.3256   -1.4878 H   0  0  0  0  0  0  0  0  0  0  0  0
    2.0902   -0.4067    1.0809 H   0  0  0  0  0  0  0  0  0  0  0  0
    1.7405    1.0744    0.1260 H   0  0  0  0  0  0  0  0  0  0  0  0
   -0.6408    1.1821    2.3456 H   0  0  0  0  0  0  0  0  0  0  0  0
   -1.7158   -0.2134    2.1808 H   0  0  0  0  0  0  0  0  0  0  0  0
   -0.1112   -0.4114    2.8992 H   0  0  0  0  0  0  0  0  0  0  0  0
   -0.7385   -2.1698   -0.1973 H   0  0  0  0  0  0  0  0  0  0  0  0
    0.6910   -2.2594    0.8947 H   0  0  0  0  0  0  0  0  0  0  0  0
  1  2  1  0  0  0  0
  1  9  1  0  0  0  0
  1 11  1  0  0  0  0
  2  6  1  1  0  0  0
  3  4  1  0  0  0  0
  3  2  1  0  0  0  0
  4 13  1  6  0  0  0
  4  8  1  0  0  0  0
  4  5  1  0  0  0  0
  5  6  1  0  0  0  0
  5 14  1  0  0  0  0
  6  7  1  1  0  0  0
  7 17  1  0  0  0  0
  7 16  1  0  0  0  0
  7 18  1  0  0  0  0
  8  6  1  0  0  0  0
  8 20  1  0  0  0  0
 10  1  1  0  0  0  0
 12  2  1  0  0  0  0
 15  5  1  0  0  0  0
 19  8  1  0  0  0  0
M  END
