18
title
C -0.93064785 1.9409344 -0.55744874
C -0.80614436 0.42862672 -0.5078976
O 0.049573652 -0.08270488 -1.5557958
C 1.0064437 -0.860115 -0.8089306
C 1.4021833 0.07458543 0.36030993
C -0.08521832 -0.17924732 0.7230436
O -0.54732126 0.14886484 1.9919139
C 0.13380902 -1.6428823 0.1994029
H 0.039199404 2.4322367 -0.4476493
H -1.3629787 2.2524498 -1.5127504
H -1.5862168 2.2892058 0.2475644
H -1.8072591 -0.018140025 -0.6162211
H 1.7202291 -1.3224708 -1.4862942
H 2.080029 -0.39276814 1.0761236
H 1.7252905 1.0872704 0.11578765
H -1.4771665 -0.09775055 2.0529335
H -0.7235541 -2.190124 -0.20123881
H 0.7083325 -2.252902 0.8980314
