title
 OpenBabel02282109583D

 18 19  0  0  1  0  0  0  0  0999 V2000
    0.7521    1.8280   -0.5147 O   0  0  0  0  0  0  0  0  0  0  0  0
    0.8845    0.4145   -0.4140 C   0  0  1  0  0  0  0  0  0  0  0  0
    1.3631   -0.1299    0.9670 C   0  0  0  0  0  0  0  0  0  0  0  0
    0.0958   -0.9220    1.3589 C   0  0  1  0  0  0  0  0  0  0  0  0
   -1.0319    0.0898    1.0154 C   0  0  0  0  0  0  0  0  0  0  0  0
   -0.5293   -0.1866   -0.4413 C   0  0  1  0  0  0  0  0  0  0  0  0
   -1.2823    0.0749   -1.5778 O   0  0  0  0  0  0  0  0  0  0  0  0
   -0.2656   -1.6389    0.0213 C   0  0  0  0  0  0  0  0  0  0  0  0
    1.6249    2.2116   -0.6384 H   0  0  0  0  0  0  0  0  0  0  0  0
    1.4848    0.0331   -1.2510 H   0  0  0  0  0  0  0  0  0  0  0  0
    2.2534   -0.7614    0.8893 H   0  0  0  0  0  0  0  0  0  0  0  0
    1.5758    0.6931    1.6558 H   0  0  0  0  0  0  0  0  0  0  0  0
    0.1113   -1.4612    2.3046 H   0  0  0  0  0  0  0  0  0  0  0  0
   -2.0320   -0.3185    1.1727 H   0  0  0  0  0  0  0  0  0  0  0  0
   -0.9565    1.1072    1.4052 H   0  0  0  0  0  0  0  0  0  0  0  0
   -1.1266    1.0020   -1.7985 H   0  0  0  0  0  0  0  0  0  0  0  0
    0.5114   -2.2137   -0.4926 H   0  0  0  0  0  0  0  0  0  0  0  0
   -1.1883   -2.2187    0.0873 H   0  0  0  0  0  0  0  0  0  0  0  0
  1  2  1  0  0  0  0
  2  6  1  6  0  0  0
  2  3  1  0  0  0  0
  3  4  1  0  0  0  0
  3 12  1  0  0  0  0
  4 13  1  1  0  0  0
  5 14  1  0  0  0  0
  5  4  1  0  0  0  0
  5 15  1  0  0  0  0
  6  7  1  6  0  0  0
  6  8  1  0  0  0  0
  6  5  1  0  0  0  0
  8 18  1  0  0  0  0
  8  4  1  0  0  0  0
  9  1  1  0  0  0  0
 10  2  1  0  0  0  0
 11  3  1  0  0  0  0
 16  7  1  0  0  0  0
 17  8  1  0  0  0  0
M  END
