18
title
O 0.7521163 1.8279797 -0.51466304
C 0.88447803 0.4145367 -0.4139517
C 1.3631176 -0.12993631 0.966989
C 0.09578289 -0.9219598 1.3589276
C -1.0318512 0.0897608 1.0154339
C -0.52925843 -0.18658116 -0.441345
O -1.2822745 0.07492208 -1.5777894
C -0.265595 -1.6388868 0.021323366
H 1.6249049 2.2116213 -0.6384003
H 1.4847777 0.033144973 -1.2510253
H 2.2533739 -0.7613867 0.889263
H 1.575814 0.6931324 1.6558359
H 0.11132498 -1.4611788 2.30456
H -2.0320373 -0.31845102 1.1727002
H -0.95647794 1.1072495 1.4052153
H -1.1265974 1.0020478 -1.7984872
H 0.5114231 -2.213734 -0.49262878
H -1.1883409 -2.2186568 0.087330505
