17
title
O 0.8902556 1.8425298 -0.38126597
C 0.8732413 0.43023002 -0.44065526
C 1.3080435 -0.19454713 0.9120194
N 0.09062197 -0.96484685 1.3306987
C -0.9828402 0.05446074 1.0060731
C -0.5455878 -0.1603262 -0.46808517
O -1.2542242 0.23236242 -1.6009445
C -0.2677183 -1.6135582 0.006516448
H 0.38739905 2.158673 -1.1413124
H 1.462918 0.070474215 -1.2961398
H 2.1609833 -0.87144053 0.82853687
H 1.53653 0.5826736 1.6443373
H -1.9700915 -0.35383275 1.2397677
H -0.8472886 1.0402473 1.4547397
H -2.1687958 -0.054933272 -1.515645
H 0.5337002 -2.1913984 -0.4637795
H -1.1668898 -2.2260802 0.11525991
