22
title
C -0.679162 1.838841 -0.52296054
C -0.59343785 0.32133108 -0.5170105
C -1.8178105 -0.31680977 -1.1585703
C 0.6937197 -0.4323169 -0.7862096
C 1.9193323 0.29773742 -0.2319474
C 1.2622274 0.28649136 1.1838684
C 0.04349643 -0.4655745 0.61374
C -0.6287086 -1.5637722 1.3930377
H 0.19591087 2.321599 -0.084553875
H -0.7830281 2.2141511 -1.5480858
H -1.5579976 2.1776276 0.03886633
H -1.9690015 0.08737384 -2.1661513
H -1.7211298 -1.401531 -1.2536256
H -2.7271428 -0.11026111 -0.5815697
H 0.7247136 -1.2102462 -1.5426934
H 2.8255837 -0.31128716 -0.26697186
H 2.148145 1.2743324 -0.67123556
H 1.8240013 -0.33280194 1.8884095
H 1.0702385 1.2526758 1.661851
H -1.1427515 -1.1550016 2.2728424
H -1.3720728 -2.108401 0.8060246
H 0.1054883 -2.292231 1.7573205
