title
 OpenBabel02282109583D

 20 21  0  0  1  0  0  0  0  0999 V2000
   -0.6762    1.8482   -0.5521 C   0  0  0  0  0  0  0  0  0  0  0  0
   -0.5897    0.3321   -0.5185 C   0  0  0  0  0  0  0  0  0  0  0  0
   -1.8316   -0.3419   -1.0846 C   0  0  0  0  0  0  0  0  0  0  0  0
    0.6961   -0.4345   -0.8170 C   0  0  1  0  0  0  0  0  0  0  0  0
    1.9280    0.2885   -0.2650 C   0  0  0  0  0  0  0  0  0  0  0  0
    1.2996    0.2671    1.1673 C   0  0  0  0  0  0  0  0  0  0  0  0
    0.0634   -0.4336    0.5943 C   0  0  1  0  0  0  0  0  0  0  0  0
   -0.6697   -1.3811    1.2883 O   0  0  0  0  0  0  0  0  0  0  0  0
    0.2107    2.3378   -0.1440 H   0  0  0  0  0  0  0  0  0  0  0  0
   -0.8046    2.2026   -1.5815 H   0  0  0  0  0  0  0  0  0  0  0  0
   -1.5403    2.1966    0.0255 H   0  0  0  0  0  0  0  0  0  0  0  0
   -2.0017   -0.0200   -2.1183 H   0  0  0  0  0  0  0  0  0  0  0  0
   -1.7445   -1.4302   -1.0708 H   0  0  0  0  0  0  0  0  0  0  0  0
   -2.7194   -0.0774   -0.5000 H   0  0  0  0  0  0  0  0  0  0  0  0
    0.7097   -1.2035   -1.5814 H   0  0  0  0  0  0  0  0  0  0  0  0
    2.8382   -0.3125   -0.3271 H   0  0  0  0  0  0  0  0  0  0  0  0
    2.1422    1.2763   -0.6848 H   0  0  0  0  0  0  0  0  0  0  0  0
    1.8584   -0.3916    1.8399 H   0  0  0  0  0  0  0  0  0  0  0  0
    1.1429    1.2224    1.6785 H   0  0  0  0  0  0  0  0  0  0  0  0
   -0.0640   -2.0629    1.5996 H   0  0  0  0  0  0  0  0  0  0  0  0
  1  2  1  0  0  0  0
  1  9  1  0  0  0  0
  1 11  1  0  0  0  0
  2  7  1  0  0  0  0
  3 13  1  0  0  0  0
  3  2  1  0  0  0  0
  3 14  1  0  0  0  0
  4  2  1  0  0  0  0
  4  5  1  0  0  0  0
  4  7  1  1  0  0  0
  5  6  1  0  0  0  0
  6 19  1  0  0  0  0
  6 18  1  0  0  0  0
  7  6  1  0  0  0  0
  7  8  1  1  0  0  0
  8 20  1  0  0  0  0
 10  1  1  0  0  0  0
 12  3  1  0  0  0  0
 15  4  1  0  0  0  0
 16  5  1  0  0  0  0
 17  5  1  0  0  0  0
M  END
