title
 OpenBabel02282109583D

 20 21  0  0  1  0  0  0  0  0999 V2000
   -0.6679    1.8599   -0.5069 C   0  0  0  0  0  0  0  0  0  0  0  0
   -0.5590    0.3505   -0.4834 C   0  0  1  0  0  0  0  0  0  0  0  0
   -1.7305   -0.2765   -0.9625 O   0  0  0  0  0  0  0  0  0  0  0  0
    0.6942   -0.4365   -0.7991 C   0  0  1  0  0  0  0  0  0  0  0  0
    1.9501    0.2441   -0.2524 C   0  0  0  0  0  0  0  0  0  0  0  0
    1.3118    0.2370    1.1747 C   0  0  0  0  0  0  0  0  0  0  0  0
    0.0641   -0.4691    0.6171 C   0  0  1  0  0  0  0  0  0  0  0  0
   -0.6742   -1.5512    1.3520 C   0  0  0  0  0  0  0  0  0  0  0  0
    0.2187    2.3559   -0.1068 H   0  0  0  0  0  0  0  0  0  0  0  0
   -0.8069    2.2170   -1.5353 H   0  0  0  0  0  0  0  0  0  0  0  0
   -1.5349    2.1824    0.0784 H   0  0  0  0  0  0  0  0  0  0  0  0
   -1.7867   -0.1011   -1.9080 H   0  0  0  0  0  0  0  0  0  0  0  0
    0.6638   -1.1982   -1.5714 H   0  0  0  0  0  0  0  0  0  0  0  0
    2.8345   -0.3948   -0.3072 H   0  0  0  0  0  0  0  0  0  0  0  0
    2.2069    1.2186   -0.6814 H   0  0  0  0  0  0  0  0  0  0  0  0
    1.8641   -0.4050    1.8656 H   0  0  0  0  0  0  0  0  0  0  0  0
    1.1550    1.2047    1.6622 H   0  0  0  0  0  0  0  0  0  0  0  0
   -1.1413   -1.1534    2.2621 H   0  0  0  0  0  0  0  0  0  0  0  0
   -1.4629   -1.9781    0.7302 H   0  0  0  0  0  0  0  0  0  0  0  0
    0.0055   -2.3551    1.6575 H   0  0  0  0  0  0  0  0  0  0  0  0
  1  2  1  0  0  0  0
  1  9  1  0  0  0  0
  1 11  1  0  0  0  0
  2  4  1  6  0  0  0
  3  2  1  0  0  0  0
  4  5  1  0  0  0  0
  4  7  1  1  0  0  0
  5  6  1  0  0  0  0
  6 17  1  0  0  0  0
  6 16  1  0  0  0  0
  7  2  1  6  0  0  0
  7  6  1  0  0  0  0
  7  8  1  0  0  0  0
  8 20  1  0  0  0  0
  8 18  1  0  0  0  0
 10  1  1  0  0  0  0
 12  3  1  0  0  0  0
 13  4  1  0  0  0  0
 14  5  1  0  0  0  0
 15  5  1  0  0  0  0
 19  8  1  0  0  0  0
M  END
