18
title
C -0.6718866 1.8657074 -0.5962077
C -0.55171543 0.36251897 -0.4975596
O -1.7519901 -0.30692536 -0.8495456
C 0.68750024 -0.45263386 -0.833427
C 1.9523939 0.22505307 -0.2983305
C 1.3543521 0.21095684 1.1492646
C 0.09068304 -0.43151903 0.60261357
O -0.612632 -1.3563612 1.3351326
H 0.22921968 2.372172 -0.24242449
H -0.8385052 2.173701 -1.6359272
H -1.5195698 2.2176926 -3.4451725e-05
H -1.803798 -0.365013 -1.8092107
H 0.65122306 -1.2079132 -1.6118797
H 2.8347268 -0.41249484 -0.38284853
H 2.1976664 1.2073257 -0.7152499
H 1.8949548 -0.47636795 1.8033563
H 1.2382123 1.1687698 1.6668688
H -1.4474356 -1.4890428 0.863922
