title
 OpenBabel02282109583D

 18 19  0  0  1  0  0  0  0  0999 V2000
   -0.6468    1.8681   -0.4912 C   0  0  0  0  0  0  0  0  0  0  0  0
   -0.5852    0.3601   -0.5187 C   0  0  1  0  0  0  0  0  0  0  0  0
   -1.7559   -0.2643   -0.9891 O   0  0  0  0  0  0  0  0  0  0  0  0
    0.6686   -0.4504   -0.8500 C   0  0  1  0  0  0  0  0  0  0  0  0
    1.8817    0.1708   -0.1811 C   0  0  0  0  0  0  0  0  0  0  0  0
    1.1940    0.2307    1.0987 O   0  0  0  0  0  0  0  0  0  0  0  0
    0.0649   -0.4709    0.5523 C   0  0  1  0  0  0  0  0  0  0  0  0
   -0.5931   -1.5017    1.4066 C   0  0  0  0  0  0  0  0  0  0  0  0
    0.1936    2.2871    0.0653 H   0  0  0  0  0  0  0  0  0  0  0  0
   -0.6367    2.2858   -1.5054 H   0  0  0  0  0  0  0  0  0  0  0  0
   -1.5732    2.1862   -0.0030 H   0  0  0  0  0  0  0  0  0  0  0  0
   -1.8100   -0.1143   -1.9395 H   0  0  0  0  0  0  0  0  0  0  0  0
    0.6660   -1.2080   -1.6234 H   0  0  0  0  0  0  0  0  0  0  0  0
    2.7447   -0.5025   -0.1194 H   0  0  0  0  0  0  0  0  0  0  0  0
    2.2137    1.1584   -0.5237 H   0  0  0  0  0  0  0  0  0  0  0  0
   -0.9549   -1.0434    2.3342 H   0  0  0  0  0  0  0  0  0  0  0  0
   -1.4465   -1.9316    0.8790 H   0  0  0  0  0  0  0  0  0  0  0  0
    0.1071   -2.2991    1.6744 H   0  0  0  0  0  0  0  0  0  0  0  0
  1 11  1  0  0  0  0
  1  9  1  0  0  0  0
  2  4  1  6  0  0  0
  2  1  1  0  0  0  0
  3  2  1  0  0  0  0
  4  5  1  0  0  0  0
  4  7  1  1  0  0  0
  5 14  1  0  0  0  0
  5  6  1  0  0  0  0
  7  2  1  6  0  0  0
  7  6  1  0  0  0  0
  7  8  1  0  0  0  0
  8 18  1  0  0  0  0
  8 16  1  0  0  0  0
 10  1  1  0  0  0  0
 12  3  1  0  0  0  0
 13  4  1  0  0  0  0
 15  5  1  0  0  0  0
 17  8  1  0  0  0  0
M  END
