title
 OpenBabel02282109583D

 18 19  0  0  1  0  0  0  0  0999 V2000
   -0.6539    1.8503   -0.5507 C   0  0  0  0  0  0  0  0  0  0  0  0
   -0.5848    0.3434   -0.4935 C   0  0  1  0  0  0  0  0  0  0  0  0
   -1.7338   -0.3163   -0.9704 O   0  0  0  0  0  0  0  0  0  0  0  0
    0.6860   -0.4357   -0.7305 C   0  0  1  0  0  0  0  0  0  0  0  0
    1.8288    0.2801   -0.2570 O   0  0  0  0  0  0  0  0  0  0  0  0
    1.3126    0.2184    1.1015 C   0  0  0  0  0  0  0  0  0  0  0  0
    0.0272   -0.4668    0.6431 C   0  0  1  0  0  0  0  0  0  0  0  0
   -0.7034   -1.5261    1.4145 C   0  0  0  0  0  0  0  0  0  0  0  0
    0.3072    2.2991   -0.2929 H   0  0  0  0  0  0  0  0  0  0  0  0
   -0.9027    2.1758   -1.5686 H   0  0  0  0  0  0  0  0  0  0  0  0
   -1.4258    2.2357    0.1229 H   0  0  0  0  0  0  0  0  0  0  0  0
   -1.8039   -0.1345   -1.9142 H   0  0  0  0  0  0  0  0  0  0  0  0
    0.8216   -1.1825   -1.5066 H   0  0  0  0  0  0  0  0  0  0  0  0
    1.9423   -0.4341    1.7186 H   0  0  0  0  0  0  0  0  0  0  0  0
    1.2409    1.2072    1.5699 H   0  0  0  0  0  0  0  0  0  0  0  0
   -1.1758   -1.1036    2.3099 H   0  0  0  0  0  0  0  0  0  0  0  0
   -1.4893   -1.9727    0.8032 H   0  0  0  0  0  0  0  0  0  0  0  0
   -0.0210   -2.3186    1.7413 H   0  0  0  0  0  0  0  0  0  0  0  0
  1  2  1  0  0  0  0
  1  9  1  0  0  0  0
  1 11  1  0  0  0  0
  2  4  1  6  0  0  0
  3  2  1  0  0  0  0
  4  5  1  0  0  0  0
  4  7  1  1  0  0  0
  5  6  1  0  0  0  0
  6 15  1  0  0  0  0
  6 14  1  0  0  0  0
  7  2  1  6  0  0  0
  7  6  1  0  0  0  0
  7  8  1  0  0  0  0
  8 18  1  0  0  0  0
  8 16  1  0  0  0  0
 10  1  1  0  0  0  0
 12  3  1  0  0  0  0
 13  4  1  0  0  0  0
 17  8  1  0  0  0  0
M  END
