17
title
C -0.13906004 2.0589051 -0.7271467
C -0.047948413 0.5710172 -0.5694255
C 1.178532 -0.24975613 -0.8651803
C 0.5979336 -0.25578687 0.54056585
C 1.3668242 0.25772053 1.7279775
N -0.3315456 -1.344673 0.79352105
C -1.2988043 -1.1725829 -0.013133693
O -1.2842485 -0.0986515 -0.8415216
H 0.80536765 2.5279498 -0.43845022
H -0.34517214 2.3311424 -1.7676709
H -0.93555176 2.4714766 -0.10028933
H 1.0864692 -1.1463481 -1.4695505
H 2.097135 0.31079158 -1.006058
H 1.9842598 1.1187992 1.4559145
H 0.68971145 0.5590935 2.5333002
H 2.0272346 -0.5231784 2.1181676
H -2.1686842 -1.8107874 -0.11133818
