title
 OpenBabel02282109583D

 18 19  0  0  1  0  0  0  0  0999 V2000
   -0.0624    2.0908   -0.6188 C   0  0  0  0  0  0  0  0  0  0  0  0
   -0.0922    0.5821   -0.5980 C   0  0  1  0  0  0  0  0  0  0  0  0
    1.1835   -0.2129   -0.8833 C   0  0  0  0  0  0  0  0  0  0  0  0
    0.5629   -0.2513    0.4899 C   0  0  1  0  0  0  0  0  0  0  0  0
    1.2137    0.3956    1.5434 O   0  0  0  0  0  0  0  0  0  0  0  0
   -0.3758   -1.4121    0.8267 C   0  0  0  0  0  0  0  0  0  0  0  0
   -1.4978   -1.2566   -0.1769 C   0  0  0  0  0  0  0  0  0  0  0  0
   -1.3467   -0.1638   -0.9290 C   0  0  0  0  0  0  0  0  0  0  0  0
    0.8564    2.4617   -0.1571 H   0  0  0  0  0  0  0  0  0  0  0  0
   -0.1122    2.4777   -1.6430 H   0  0  0  0  0  0  0  0  0  0  0  0
   -0.9069    2.5091   -0.0604 H   0  0  0  0  0  0  0  0  0  0  0  0
    1.1266   -1.0834   -1.5296 H   0  0  0  0  0  0  0  0  0  0  0  0
    2.0982    0.3673   -0.9654 H   0  0  0  0  0  0  0  0  0  0  0  0
    2.0359   -0.0733    1.7210 H   0  0  0  0  0  0  0  0  0  0  0  0
    0.1171   -2.3906    0.7570 H   0  0  0  0  0  0  0  0  0  0  0  0
   -0.7349   -1.3107    1.8599 H   0  0  0  0  0  0  0  0  0  0  0  0
   -2.3117   -1.9679   -0.2573 H   0  0  0  0  0  0  0  0  0  0  0  0
   -2.0271    0.1644   -1.7077 H   0  0  0  0  0  0  0  0  0  0  0  0
  1  2  1  0  0  0  0
  1  9  1  0  0  0  0
  1 11  1  0  0  0  0
  2  4  1  1  0  0  0
  3  2  1  0  0  0  0
  3  4  1  0  0  0  0
  4  6  1  0  0  0  0
  4  5  1  1  0  0  0
  5 14  1  0  0  0  0
  6 16  1  0  0  0  0
  7  6  1  0  0  0  0
  8  2  1  0  0  0  0
  8  7  2  0  0  0  0
 10  1  1  0  0  0  0
 12  3  1  0  0  0  0
 13  3  1  0  0  0  0
 15  6  1  0  0  0  0
 17  7  1  0  0  0  0
 18  8  1  0  0  0  0
M  END
