title
 OpenBabel02282109583D

 18 19  0  0  1  0  0  0  0  0999 V2000
   -0.6698    2.0593   -0.3540 C   0  0  0  0  0  0  0  0  0  0  0  0
   -0.4016    0.5789   -0.3494 C   0  0  1  0  0  0  0  0  0  0  0  0
   -0.1119   -0.1431   -1.6692 C   0  0  0  0  0  0  0  0  0  0  0  0
    0.6864   -1.3556   -1.2419 C   0  0  0  0  0  0  0  0  0  0  0  0
    0.9046   -1.3715    0.0739 C   0  0  0  0  0  0  0  0  0  0  0  0
    0.2492   -0.1952    0.7353 C   0  0  1  0  0  0  0  0  0  0  0  0
    0.7450    0.3298    2.0529 C   0  0  0  0  0  0  0  0  0  0  0  0
   -1.1942   -0.2118    0.5494 O   0  0  0  0  0  0  0  0  0  0  0  0
    0.1544    2.6043   -0.8263 H   0  0  0  0  0  0  0  0  0  0  0  0
   -1.5831    2.2797   -0.9185 H   0  0  0  0  0  0  0  0  0  0  0  0
   -0.8063    2.4394    0.6607 H   0  0  0  0  0  0  0  0  0  0  0  0
   -1.0413   -0.4189   -2.1828 H   0  0  0  0  0  0  0  0  0  0  0  0
    0.4542    0.4970   -2.3591 H   0  0  0  0  0  0  0  0  0  0  0  0
    1.0010   -2.1213   -1.9421 H   0  0  0  0  0  0  0  0  0  0  0  0
    1.4485   -2.1305    0.6239 H   0  0  0  0  0  0  0  0  0  0  0  0
    1.8142    0.5618    1.9999 H   0  0  0  0  0  0  0  0  0  0  0  0
    0.2046    1.2309    2.3503 H   0  0  0  0  0  0  0  0  0  0  0  0
    0.6041   -0.4199    2.8396 H   0  0  0  0  0  0  0  0  0  0  0  0
  1  2  1  0  0  0  0
  1 11  1  0  0  0  0
  2  8  1  0  0  0  0
  2  6  1  1  0  0  0
  3  4  1  0  0  0  0
  3  2  1  0  0  0  0
  4  5  2  0  0  0  0
  5 15  1  0  0  0  0
  5  6  1  0  0  0  0
  6  7  1  1  0  0  0
  7 17  1  0  0  0  0
  7 18  1  0  0  0  0
  8  6  1  0  0  0  0
  9  1  1  0  0  0  0
 10  1  1  0  0  0  0
 12  3  1  0  0  0  0
 13  3  1  0  0  0  0
 14  4  1  0  0  0  0
 16  7  1  0  0  0  0
M  END
