title
 OpenBabel02282109583D

 22 23  0  0  1  0  0  0  0  0999 V2000
   -0.1187    2.1304   -0.6155 C   0  0  0  0  0  0  0  0  0  0  0  0
   -0.0929    0.6219   -0.5440 C   0  0  1  0  0  0  0  0  0  0  0  0
    1.1977   -0.1249   -0.8114 C   0  0  0  0  0  0  0  0  0  0  0  0
    0.5802   -0.1685    0.5713 C   0  0  1  0  0  0  0  0  0  0  0  0
    1.3020    0.4621    1.7386 C   0  0  0  0  0  0  0  0  0  0  0  0
   -0.2933   -1.3856    0.8657 C   0  0  0  0  0  0  0  0  0  0  0  0
   -1.2091   -1.5468   -0.3665 C   0  0  0  0  0  0  0  0  0  0  0  0
   -1.3737   -0.1169   -0.9245 C   0  0  0  0  0  0  0  0  0  0  0  0
    0.8207    2.5735   -0.2718 H   0  0  0  0  0  0  0  0  0  0  0  0
   -0.2802    2.4705   -1.6456 H   0  0  0  0  0  0  0  0  0  0  0  0
   -0.9285    2.5455   -0.0030 H   0  0  0  0  0  0  0  0  0  0  0  0
    1.1958   -1.0117   -1.4386 H   0  0  0  0  0  0  0  0  0  0  0  0
    2.0925    0.4806   -0.9222 H   0  0  0  0  0  0  0  0  0  0  0  0
    1.8559    1.3580    1.4430 H   0  0  0  0  0  0  0  0  0  0  0  0
    0.6024    0.7479    2.5336 H   0  0  0  0  0  0  0  0  0  0  0  0
    2.0254   -0.2373    2.1752 H   0  0  0  0  0  0  0  0  0  0  0  0
    0.2908   -2.2899    1.0741 H   0  0  0  0  0  0  0  0  0  0  0  0
   -0.8914   -1.1801    1.7636 H   0  0  0  0  0  0  0  0  0  0  0  0
   -0.7333   -2.1925   -1.1113 H   0  0  0  0  0  0  0  0  0  0  0  0
   -2.1667   -2.0122   -0.1184 H   0  0  0  0  0  0  0  0  0  0  0  0
   -2.2248    0.3858   -0.4458 H   0  0  0  0  0  0  0  0  0  0  0  0
   -1.5667   -0.1086   -2.0039 H   0  0  0  0  0  0  0  0  0  0  0  0
  1  2  1  0  0  0  0
  1  9  1  0  0  0  0
  1 11  1  0  0  0  0
  2  4  1  1  0  0  0
  3  2  1  0  0  0  0
  3  4  1  0  0  0  0
  4  6  1  0  0  0  0
  4  5  1  1  0  0  0
  5 16  1  0  0  0  0
  5 15  1  0  0  0  0
  6 17  1  0  0  0  0
  6 18  1  0  0  0  0
  7 20  1  0  0  0  0
  7  6  1  0  0  0  0
  8  2  1  0  0  0  0
  8 21  1  0  0  0  0
  8  7  1  0  0  0  0
 10  1  1  0  0  0  0
 12  3  1  0  0  0  0
 13  3  1  0  0  0  0
 14  5  1  0  0  0  0
 19  7  1  0  0  0  0
 22  8  1  0  0  0  0
M  END
