20
title
C -0.097407945 2.1506 -0.5970355
C -0.061672185 0.6442718 -0.5372545
C 1.2033828 -0.13295405 -0.8243219
C 0.6022286 -0.1674556 0.56286013
C 1.3207824 0.41662276 1.7529892
C -0.33443308 -1.3440073 0.7974155
O -1.158816 -1.4337262 -0.3585581
C -1.3381869 -0.11675524 -0.8658495
H 0.84137654 2.590097 -0.24765788
H -0.2569535 2.5011055 -1.6236426
H -0.9074764 2.5569694 0.020192157
H 1.1406267 -1.0233239 -1.4434168
H 2.1150327 0.44315547 -0.949399
H 1.885525 1.3134952 1.4823891
H 0.61913913 0.69051045 2.5498579
H 2.0347908 -0.30107135 2.1741056
H 0.17491102 -2.307809 0.91022456
H -0.9363015 -1.1643888 1.7054805
H -2.200792 0.38165772 -0.38983768
H -1.5442741 -0.20582812 -1.93854
