title
 OpenBabel02282109583D

 20 21  0  0  1  0  0  0  0  0999 V2000
   -0.0974    2.1506   -0.5970 C   0  0  0  0  0  0  0  0  0  0  0  0
   -0.0617    0.6443   -0.5373 C   0  0  1  0  0  0  0  0  0  0  0  0
    1.2034   -0.1330   -0.8243 C   0  0  0  0  0  0  0  0  0  0  0  0
    0.6022   -0.1675    0.5629 C   0  0  1  0  0  0  0  0  0  0  0  0
    1.3208    0.4166    1.7530 C   0  0  0  0  0  0  0  0  0  0  0  0
   -0.3344   -1.3440    0.7974 C   0  0  0  0  0  0  0  0  0  0  0  0
   -1.1588   -1.4337   -0.3586 O   0  0  0  0  0  0  0  0  0  0  0  0
   -1.3382   -0.1168   -0.8658 C   0  0  0  0  0  0  0  0  0  0  0  0
    0.8414    2.5901   -0.2477 H   0  0  0  0  0  0  0  0  0  0  0  0
   -0.2570    2.5011   -1.6236 H   0  0  0  0  0  0  0  0  0  0  0  0
   -0.9075    2.5570    0.0202 H   0  0  0  0  0  0  0  0  0  0  0  0
    1.1406   -1.0233   -1.4434 H   0  0  0  0  0  0  0  0  0  0  0  0
    2.1150    0.4432   -0.9494 H   0  0  0  0  0  0  0  0  0  0  0  0
    1.8855    1.3135    1.4824 H   0  0  0  0  0  0  0  0  0  0  0  0
    0.6191    0.6905    2.5499 H   0  0  0  0  0  0  0  0  0  0  0  0
    2.0348   -0.3011    2.1741 H   0  0  0  0  0  0  0  0  0  0  0  0
    0.1749   -2.3078    0.9102 H   0  0  0  0  0  0  0  0  0  0  0  0
   -0.9363   -1.1644    1.7055 H   0  0  0  0  0  0  0  0  0  0  0  0
   -2.2008    0.3817   -0.3898 H   0  0  0  0  0  0  0  0  0  0  0  0
   -1.5443   -0.2058   -1.9385 H   0  0  0  0  0  0  0  0  0  0  0  0
  1  2  1  0  0  0  0
  1  9  1  0  0  0  0
  1 11  1  0  0  0  0
  2  4  1  1  0  0  0
  3  2  1  0  0  0  0
  3  4  1  0  0  0  0
  4  6  1  0  0  0  0
  4  5  1  1  0  0  0
  5 16  1  0  0  0  0
  5 15  1  0  0  0  0
  6 17  1  0  0  0  0
  6 18  1  0  0  0  0
  7  6  1  0  0  0  0
  8  2  1  0  0  0  0
  8 19  1  0  0  0  0
  8  7  1  0  0  0  0
 10  1  1  0  0  0  0
 12  3  1  0  0  0  0
 13  3  1  0  0  0  0
 14  5  1  0  0  0  0
 20  8  1  0  0  0  0
M  END
