title
 OpenBabel02282109583D

 20 21  0  0  1  0  0  0  0  0999 V2000
   -0.1294    2.1526   -0.6449 C   0  0  0  0  0  0  0  0  0  0  0  0
   -0.0997    0.6450   -0.5811 C   0  0  1  0  0  0  0  0  0  0  0  0
    1.1922   -0.1153   -0.8674 C   0  0  0  0  0  0  0  0  0  0  0  0
    0.5688   -0.1547    0.5110 C   0  0  1  0  0  0  0  0  0  0  0  0
    1.2546    0.3912    1.7305 C   0  0  0  0  0  0  0  0  0  0  0  0
   -0.2164   -1.2863    0.8227 O   0  0  0  0  0  0  0  0  0  0  0  0
   -1.1563   -1.4903   -0.2292 C   0  0  0  0  0  0  0  0  0  0  0  0
   -1.3837   -0.1162   -0.8909 C   0  0  0  0  0  0  0  0  0  0  0  0
    0.8124    2.5894   -0.2986 H   0  0  0  0  0  0  0  0  0  0  0  0
   -0.2912    2.5013   -1.6719 H   0  0  0  0  0  0  0  0  0  0  0  0
   -0.9362    2.5621   -0.0256 H   0  0  0  0  0  0  0  0  0  0  0  0
    1.1708   -1.0043   -1.4896 H   0  0  0  0  0  0  0  0  0  0  0  0
    2.0901    0.4835   -0.9861 H   0  0  0  0  0  0  0  0  0  0  0  0
    1.8257    1.2912    1.4886 H   0  0  0  0  0  0  0  0  0  0  0  0
    0.5230    0.6389    2.5063 H   0  0  0  0  0  0  0  0  0  0  0  0
    1.9480   -0.3486    2.1438 H   0  0  0  0  0  0  0  0  0  0  0  0
   -0.7609   -2.2130   -0.9569 H   0  0  0  0  0  0  0  0  0  0  0  0
   -2.0623   -1.9204    0.2071 H   0  0  0  0  0  0  0  0  0  0  0  0
   -2.2295    0.4076   -0.4300 H   0  0  0  0  0  0  0  0  0  0  0  0
   -1.5943   -0.2094   -1.9615 H   0  0  0  0  0  0  0  0  0  0  0  0
  1  2  1  0  0  0  0
  1  9  1  0  0  0  0
  1 11  1  0  0  0  0
  2  4  1  1  0  0  0
  3  2  1  0  0  0  0
  3  4  1  0  0  0  0
  4  6  1  0  0  0  0
  4  5  1  1  0  0  0
  5 16  1  0  0  0  0
  5 15  1  0  0  0  0
  7 18  1  0  0  0  0
  7  6  1  0  0  0  0
  8  2  1  0  0  0  0
  8 19  1  0  0  0  0
  8  7  1  0  0  0  0
 10  1  1  0  0  0  0
 12  3  1  0  0  0  0
 13  3  1  0  0  0  0
 14  5  1  0  0  0  0
 17  7  1  0  0  0  0
 20  8  1  0  0  0  0
M  END
