18
title
C -0.18986756 2.1011782 -0.6611507
C -0.056090247 0.61144614 -0.5528211
C 1.2324126 -0.14665437 -0.84839106
C 0.601286 -0.17674226 0.5383658
C 1.2762383 0.34336603 1.7724091
O -0.2585878 -1.267066 0.81033295
C -1.1760889 -1.3438131 -0.26212966
O -1.2621453 -0.06381857 -0.8554979
H 0.72941154 2.5951838 -0.3352928
H -0.38347036 2.3984802 -1.6969965
H -1.0181446 2.459258 -0.042047117
H 1.2047002 -1.0333337 -1.472175
H 2.1323612 0.4498726 -0.95966434
H 1.8612033 1.2381765 1.5434347
H 0.5365384 0.5951986 2.5385532
H 1.9567676 -0.40730286 2.1874075
H -0.8345149 -2.08552 -1.0036502
H -2.1600883 -1.6344397 0.12074568
