title
 OpenBabel02282109583D

 20 21  0  0  1  0  0  0  0  0999 V2000
   -0.1091    2.1286   -0.5490 C   0  0  0  0  0  0  0  0  0  0  0  0
   -0.1053    0.6199   -0.5546 C   0  0  1  0  0  0  0  0  0  0  0  0
    1.1994   -0.1167   -0.8330 C   0  0  0  0  0  0  0  0  0  0  0  0
    0.5624   -0.1845    0.5358 C   0  0  1  0  0  0  0  0  0  0  0  0
    1.1670    0.4871    1.6022 O   0  0  0  0  0  0  0  0  0  0  0  0
   -0.3023   -1.3957    0.8538 C   0  0  0  0  0  0  0  0  0  0  0  0
   -1.2172   -1.5525   -0.3805 C   0  0  0  0  0  0  0  0  0  0  0  0
   -1.3808   -0.1206   -0.9453 C   0  0  0  0  0  0  0  0  0  0  0  0
    0.7940    2.5170   -0.0710 H   0  0  0  0  0  0  0  0  0  0  0  0
   -0.1610    2.5326   -1.5667 H   0  0  0  0  0  0  0  0  0  0  0  0
   -0.9711    2.5162    0.0065 H   0  0  0  0  0  0  0  0  0  0  0  0
    1.2138   -0.9911   -1.4767 H   0  0  0  0  0  0  0  0  0  0  0  0
    2.0825    0.5097   -0.9076 H   0  0  0  0  0  0  0  0  0  0  0  0
    1.9682    0.0088    1.8403 H   0  0  0  0  0  0  0  0  0  0  0  0
    0.2766   -2.3028    1.0648 H   0  0  0  0  0  0  0  0  0  0  0  0
   -0.8858   -1.1628    1.7525 H   0  0  0  0  0  0  0  0  0  0  0  0
   -0.7402   -2.2000   -1.1232 H   0  0  0  0  0  0  0  0  0  0  0  0
   -2.1763   -2.0147   -0.1332 H   0  0  0  0  0  0  0  0  0  0  0  0
   -2.2355    0.3816   -0.4737 H   0  0  0  0  0  0  0  0  0  0  0  0
   -1.5659   -0.1192   -2.0255 H   0  0  0  0  0  0  0  0  0  0  0  0
  1  9  1  0  0  0  0
  1 11  1  0  0  0  0
  2  1  1  0  0  0  0
  2  4  1  1  0  0  0
  3  2  1  0  0  0  0
  3  4  1  0  0  0  0
  4  6  1  0  0  0  0
  4  5  1  1  0  0  0
  5 14  1  0  0  0  0
  6 15  1  0  0  0  0
  6 16  1  0  0  0  0
  7 18  1  0  0  0  0
  7  6  1  0  0  0  0
  8  2  1  0  0  0  0
  8 19  1  0  0  0  0
  8  7  1  0  0  0  0
 10  1  1  0  0  0  0
 12  3  1  0  0  0  0
 13  3  1  0  0  0  0
 17  7  1  0  0  0  0
 20  8  1  0  0  0  0
M  END
