18
title
C -0.16504444 2.0787013 -0.55584615
C -0.065912694 0.582531 -0.52447224
C 1.2426573 -0.1442413 -0.8100545
C 0.5924632 -0.21072564 0.5633228
O 1.181926 0.44263446 1.6449479
C -0.3354954 -1.3861148 0.83609986
C -1.2480098 -1.3919386 -0.40631226
O -1.2551332 -0.059426814 -0.92355543
H 0.7172249 2.5211399 -0.08759607
H -0.24287432 2.4482322 -1.5831788
H -1.0512861 2.4081979 -0.0050640153
H 1.2531291 -1.0205244 -1.4501334
H 2.1236055 0.4849807 -0.88377154
H 1.9847018 -0.03429088 1.88178
H 0.17652802 -2.3443706 0.9714103
H -0.89664704 -1.1645195 1.7498366
H -0.86713123 -2.0881424 -1.1668941
H -2.2814624 -1.6713103 -0.18486208
