18
title
C -0.13589987 2.137294 -0.56526154
C -0.08947049 0.63122964 -0.5606778
C 1.2089638 -0.10664905 -0.8453197
C 0.5916844 -0.15988189 0.5290231
O 1.1770701 0.49240103 1.6111516
C -0.31410238 -1.350148 0.8063337
O -1.1388317 -1.4707059 -0.3452842
C -1.3452702 -0.16364169 -0.88191867
H 0.7565778 2.5491867 -0.08664844
H -0.19340707 2.5356827 -1.5843178
H -1.0075334 2.5053754 -0.012138404
H 1.1887329 -0.9988995 -1.4640421
H 2.093052 0.5137814 -0.95023084
H 2.012462 0.056745224 1.8099216
H 0.20869197 -2.3048754 0.9338718
H -0.8984234 -1.1443313 1.7181534
H -2.2200615 0.32262903 -0.41824275
H -1.5449642 -0.28272223 -1.9523423
