title
 OpenBabel02282109583D

 19 20  0  0  1  0  0  0  0  0999 V2000
   -0.6399    2.1216   -0.2942 C   0  0  0  0  0  0  0  0  0  0  0  0
   -0.4317    0.6315   -0.2996 C   0  0  1  0  0  0  0  0  0  0  0  0
   -0.0813   -0.0629   -1.6051 C   0  0  0  0  0  0  0  0  0  0  0  0
    0.4138   -1.3480   -1.2556 O   0  0  0  0  0  0  0  0  0  0  0  0
    0.9301   -1.3104    0.0675 C   0  0  0  0  0  0  0  0  0  0  0  0
    0.2175   -0.1692    0.7739 C   0  0  1  0  0  0  0  0  0  0  0  0
    0.7845    0.3648    2.0612 C   0  0  0  0  0  0  0  0  0  0  0  0
   -1.2483   -0.2618    0.5596 N   0  0  0  0  0  0  0  0  0  0  0  0
    0.2012    2.6405   -0.7670 H   0  0  0  0  0  0  0  0  0  0  0  0
   -1.5475    2.3901   -0.8472 H   0  0  0  0  0  0  0  0  0  0  0  0
   -0.7469    2.5108    0.7229 H   0  0  0  0  0  0  0  0  0  0  0  0
   -0.9445   -0.2081   -2.2638 H   0  0  0  0  0  0  0  0  0  0  0  0
    0.6773    0.5292   -2.1452 H   0  0  0  0  0  0  0  0  0  0  0  0
    0.7419   -2.2879    0.5247 H   0  0  0  0  0  0  0  0  0  0  0  0
    2.0179   -1.1241    0.0715 H   0  0  0  0  0  0  0  0  0  0  0  0
    1.8466    0.6111    1.9538 H   0  0  0  0  0  0  0  0  0  0  0  0
    0.2609    1.2680    2.3893 H   0  0  0  0  0  0  0  0  0  0  0  0
    0.6963   -0.3773    2.8632 H   0  0  0  0  0  0  0  0  0  0  0  0
   -1.7104    0.3104    1.2659 H   0  0  0  0  0  0  0  0  0  0  0  0
  1 11  1  0  0  0  0
  2  1  1  0  0  0  0
  2  8  1  0  0  0  0
  2  6  1  1  0  0  0
  3  4  1  0  0  0  0
  3  2  1  0  0  0  0
  4  5  1  0  0  0  0
  5 15  1  0  0  0  0
  5 14  1  0  0  0  0
  5  6  1  0  0  0  0
  6  7  1  1  0  0  0
  7 17  1  0  0  0  0
  7 18  1  0  0  0  0
  8  6  1  0  0  0  0
  8 19  1  0  0  0  0
  9  1  1  0  0  0  0
 10  1  1  0  0  0  0
 12  3  1  0  0  0  0
 13  3  1  0  0  0  0
 16  7  1  0  0  0  0
M  END
