title
 OpenBabel02282109583D

 16 17  0  0  1  0  0  0  0  0999 V2000
    0.3009    1.9900    0.1802 O   0  0  0  0  0  0  0  0  0  0  0  0
    0.4954    0.6099    0.2385 C   0  0  1  0  0  0  0  0  0  0  0  0
    0.1426   -0.1738    1.4848 C   0  0  0  0  0  0  0  0  0  0  0  0
   -0.7422   -0.2447    0.2550 C   0  0  1  0  0  0  0  0  0  0  0  0
   -2.0032    0.3307    0.2588 O   0  0  0  0  0  0  0  0  0  0  0  0
   -0.4695   -1.3730   -0.7204 C   0  0  0  0  0  0  0  0  0  0  0  0
    0.9507   -1.3869   -0.8813 O   0  0  0  0  0  0  0  0  0  0  0  0
    1.4412   -0.0554   -0.7461 C   0  0  0  0  0  0  0  0  0  0  0  0
    0.8413    2.4130    0.8552 H   0  0  0  0  0  0  0  0  0  0  0  0
    0.7581   -1.0249    1.7593 H   0  0  0  0  0  0  0  0  0  0  0  0
   -0.2708    0.3988    2.3084 H   0  0  0  0  0  0  0  0  0  0  0  0
   -1.8725    1.2834    0.1516 H   0  0  0  0  0  0  0  0  0  0  0  0
   -0.7635   -2.3678   -0.3735 H   0  0  0  0  0  0  0  0  0  0  0  0
   -0.9908   -1.1562   -1.6657 H   0  0  0  0  0  0  0  0  0  0  0  0
    1.4080    0.4994   -1.6975 H   0  0  0  0  0  0  0  0  0  0  0  0
    2.4831   -0.1286   -0.4165 H   0  0  0  0  0  0  0  0  0  0  0  0
  1  2  1  0  0  0  0
  1  9  1  0  0  0  0
  2  4  1  6  0  0  0
  2  3  1  0  0  0  0
  3 10  1  0  0  0  0
  3 11  1  0  0  0  0
  4  5  1  1  0  0  0
  4  3  1  0  0  0  0
  6 13  1  0  0  0  0
  6  4  1  0  0  0  0
  7  8  1  0  0  0  0
  7  6  1  0  0  0  0
  8 16  1  0  0  0  0
  8  2  1  0  0  0  0
 12  5  1  0  0  0  0
 14  6  1  0  0  0  0
 15  8  1  0  0  0  0
M  END
