title
 OpenBabel02282109583D

 17 17  0  0  0  0  0  0  0  0999 V2000
    0.2646    2.7536    0.9893 C   0  0  0  0  0  0  0  0  0  0  0  0
    0.0427    1.2647    1.0383 C   0  0  0  0  0  0  0  0  0  0  0  0
   -0.4866    0.5644    1.9559 N   0  0  0  0  0  0  0  0  0  0  0  0
    0.5003    0.6855   -0.0948 O   0  0  0  0  0  0  0  0  0  0  0  0
    0.3993   -0.7309   -0.1566 C   0  0  0  0  0  0  0  0  0  0  0  0
   -0.9858   -1.3301   -0.4528 C   0  0  0  0  0  0  0  0  0  0  0  0
   -0.4887   -1.9497   -1.6624 O   0  0  0  0  0  0  0  0  0  0  0  0
    0.7854   -1.2865   -1.5335 C   0  0  0  0  0  0  0  0  0  0  0  0
    1.3319    2.9719    0.8862 H   0  0  0  0  0  0  0  0  0  0  0  0
   -0.2378    3.1798    0.1157 H   0  0  0  0  0  0  0  0  0  0  0  0
   -0.1147    3.2355    1.8915 H   0  0  0  0  0  0  0  0  0  0  0  0
   -0.7719    1.1499    2.7373 H   0  0  0  0  0  0  0  0  0  0  0  0
    0.9059   -1.1730    0.7024 H   0  0  0  0  0  0  0  0  0  0  0  0
   -1.3656   -2.0616    0.2663 H   0  0  0  0  0  0  0  0  0  0  0  0
   -1.7571   -0.5779   -0.6571 H   0  0  0  0  0  0  0  0  0  0  0  0
    0.9303   -0.5034   -2.2887 H   0  0  0  0  0  0  0  0  0  0  0  0
    1.6250   -1.9896   -1.5669 H   0  0  0  0  0  0  0  0  0  0  0  0
  1  2  1  0  0  0  0
  1 11  1  0  0  0  0
  2  3  2  0  0  0  0
  3 12  1  0  0  0  0
  4  2  1  0  0  0  0
  5  4  1  0  0  0  0
  5 13  1  0  0  0  0
  6  5  1  0  0  0  0
  6 14  1  0  0  0  0
  7  8  1  0  0  0  0
  7  6  1  0  0  0  0
  8  5  1  0  0  0  0
  9  1  1  0  0  0  0
 10  1  1  0  0  0  0
 15  6  1  0  0  0  0
 16  8  1  0  0  0  0
 17  8  1  0  0  0  0
M  END
