20
title
C 0.7226773 3.0146906 -0.16850735
C 0.8343839 1.499338 -0.18547685
O 1.8856428 0.93591684 0.019479055
C -0.44986922 0.7300461 -0.47769463
C -0.3104592 -0.77596664 -0.33553302
C -0.18048406 -1.3984818 1.0828292
C -1.0815257 -2.5700405 0.60751414
C -1.5596175 -1.6725874 -0.56661797
H 1.7118635 3.4592888 -0.052999627
H 0.2525852 3.3816648 -1.087418
H 0.08257598 3.33215 0.66296625
H -1.2446873 1.11588 0.17714821
H -0.7674709 0.99857527 -1.4970857
H 0.52198017 -1.1183801 -0.95725125
H 0.8246464 -1.6268554 1.4408743
H -0.6868326 -0.78345966 1.8354703
H -0.48880976 -3.4178855 0.25224477
H -1.8387265 -2.9446633 1.3001788
H -2.4845173 -1.1422195 -0.31420973
H -1.6835873 -2.131881 -1.5509204
