title
 OpenBabel02282109583D

 18 18  0  0  1  0  0  0  0  0999 V2000
    0.7438    2.1970    0.7098 C   0  0  0  0  0  0  0  0  0  0  0  0
   -0.5637    1.4351    0.7240 C   0  0  0  0  0  0  0  0  0  0  0  0
   -1.3547    1.5018    1.6366 O   0  0  0  0  0  0  0  0  0  0  0  0
   -0.8219    0.5117   -0.4680 C   0  0  0  0  0  0  0  0  0  0  0  0
   -0.2861   -0.8908   -0.1818 C   0  0  1  0  0  0  0  0  0  0  0  0
   -0.2643   -1.9103   -1.3425 C   0  0  0  0  0  0  0  0  0  0  0  0
    1.2535   -1.9651   -1.0777 C   0  0  0  0  0  0  0  0  0  0  0  0
    1.1599   -0.9267   -0.0782 O   0  0  0  0  0  0  0  0  0  0  0  0
    1.5661    1.4903    0.5528 H   0  0  0  0  0  0  0  0  0  0  0  0
    0.7600    2.8980   -0.1333 H   0  0  0  0  0  0  0  0  0  0  0  0
    0.8747    2.7438    1.6443 H   0  0  0  0  0  0  0  0  0  0  0  0
   -1.9043    0.4444   -0.6176 H   0  0  0  0  0  0  0  0  0  0  0  0
   -0.3511    0.8950   -1.3797 H   0  0  0  0  0  0  0  0  0  0  0  0
   -0.7476   -1.2712    0.7389 H   0  0  0  0  0  0  0  0  0  0  0  0
   -0.8187   -2.8348   -1.1772 H   0  0  0  0  0  0  0  0  0  0  0  0
   -0.5437   -1.4903   -2.3108 H   0  0  0  0  0  0  0  0  0  0  0  0
    1.6178   -2.9070   -0.6496 H   0  0  0  0  0  0  0  0  0  0  0  0
    1.9084   -1.6768   -1.9078 H   0  0  0  0  0  0  0  0  0  0  0  0
  1  2  1  0  0  0  0
  1 11  1  0  0  0  0
  2  3  2  0  0  0  0
  4  5  1  0  0  0  0
  4  2  1  0  0  0  0
  5  8  1  0  0  0  0
  5 14  1  1  0  0  0
  6 15  1  0  0  0  0
  6  7  1  0  0  0  0
  6  5  1  0  0  0  0
  7 17  1  0  0  0  0
  7  8  1  0  0  0  0
  9  1  1  0  0  0  0
 10  1  1  0  0  0  0
 12  4  1  0  0  0  0
 13  4  1  0  0  0  0
 16  6  1  0  0  0  0
 18  7  1  0  0  0  0
M  END
