title
 OpenBabel02282109583D

 18 18  0  0  0  0  0  0  0  0999 V2000
    0.2487    3.0347    0.7046 C   0  0  0  0  0  0  0  0  0  0  0  0
    0.1482    1.5233    0.7958 C   0  0  0  0  0  0  0  0  0  0  0  0
   -0.1593    0.9612    1.8229 O   0  0  0  0  0  0  0  0  0  0  0  0
    0.4513    0.7415   -0.4781 C   0  0  0  0  0  0  0  0  0  0  0  0
    0.4812   -0.7620   -0.2590 C   0  0  0  0  0  0  0  0  0  0  0  0
   -0.8591   -1.4683    0.0380 C   0  0  0  0  0  0  0  0  0  0  0  0
   -0.7155   -2.3251   -1.1169 O   0  0  0  0  0  0  0  0  0  0  0  0
    0.5038   -1.6683   -1.5107 C   0  0  0  0  0  0  0  0  0  0  0  0
    1.2886    3.3283    0.5190 H   0  0  0  0  0  0  0  0  0  0  0  0
   -0.3420    3.4147   -0.1359 H   0  0  0  0  0  0  0  0  0  0  0  0
   -0.0938    3.4875    1.6357 H   0  0  0  0  0  0  0  0  0  0  0  0
   -0.3125    1.0103   -1.2233 H   0  0  0  0  0  0  0  0  0  0  0  0
    1.4006    1.1028   -0.8977 H   0  0  0  0  0  0  0  0  0  0  0  0
    1.2537   -1.0145    0.4699 H   0  0  0  0  0  0  0  0  0  0  0  0
   -0.9096   -2.0362    0.9724 H   0  0  0  0  0  0  0  0  0  0  0  0
   -1.7485   -0.8284   -0.0347 H   0  0  0  0  0  0  0  0  0  0  0  0
    0.3958   -1.1401   -2.4692 H   0  0  0  0  0  0  0  0  0  0  0  0
    1.3444   -2.3687   -1.5891 H   0  0  0  0  0  0  0  0  0  0  0  0
  1  2  1  0  0  0  0
  1 11  1  0  0  0  0
  2  3  2  0  0  0  0
  4  5  1  0  0  0  0
  4  2  1  0  0  0  0
  5  6  1  0  0  0  0
  5 14  1  0  0  0  0
  6 15  1  0  0  0  0
  7  6  1  0  0  0  0
  8  7  1  0  0  0  0
  8  5  1  0  0  0  0
  9  1  1  0  0  0  0
 10  1  1  0  0  0  0
 12  4  1  0  0  0  0
 13  4  1  0  0  0  0
 16  6  1  0  0  0  0
 17  8  1  0  0  0  0
 18  8  1  0  0  0  0
M  END
