19
title
C 1.2731954 2.7387216 -0.32057855
C 1.187123 1.2209706 -0.24911134
O 2.1686616 0.514093 -0.3890767
N -0.06577488 0.7200476 -0.017038556
C -0.35061345 -0.6872322 0.08565943
C -1.1010627 -1.2250834 1.3354071
C -1.8360997 -2.2217507 0.39789072
C -1.4653724 -1.3072135 -0.801588
H 1.691627 3.0205078 -1.290358
H 0.31342688 3.2448196 -0.1862606
H 1.9691776 3.0867896 0.44731364
H -0.8310998 1.3663367 0.08861579
H 0.6017632 -1.1997755 -0.056989133
H -0.5014363 -1.6208973 2.1582022
H -1.7899512 -0.4722206 1.7343453
H -1.3205034 -3.18437 0.34699062
H -2.8957083 -2.4040341 0.58553594
H -2.2569704 -0.5775079 -1.0051152
H -1.1667625 -1.7708864 -1.7444831
