17
title
C 0.1710697 2.847447 1.0778385
C 0.18026789 1.3282492 1.1393235
O 0.30893046 0.7214962 2.185553
N 0.015567801 0.6982986 -0.069123805
C -0.033182643 -0.72967637 -0.20469409
C -1.2015371 -1.3645693 -0.9970109
O -0.28264722 -2.115335 -1.8140872
C 0.85163647 -1.4060313 -1.279208
H 0.26158163 3.2475271 0.06443912
H -0.7624094 3.21315 1.5164454
H 0.99131906 3.2263064 1.6908251
H -0.08756933 1.2611347 -0.89836067
H 0.095661126 -1.141764 0.7950701
H -1.890159 -2.0108829 -0.4420821
H -1.7843049 -0.6399318 -1.5851562
H 1.2824042 -0.7018732 -2.0066574
H 1.638252 -2.082145 -0.9271365
