17
title
N 0.91276765 1.654274 -0.77317816
C 0.61736035 1.5087075 0.5499851
O 1.0948768 2.205665 1.4242176
C -0.41290343 0.41142815 0.843658
C -0.059958335 -0.95409423 0.2662007
C -1.1606076 -2.0398126 0.29543653
C -1.0744854 -1.9852363 -1.2422239
O -0.04966223 -0.9663201 -1.1912946
H 1.6485502 2.2974102 -1.0169946
H 0.6221154 0.95001996 -1.4362886
H -0.49623156 0.3378145 1.9309938
H -1.387061 0.7243953 0.44755083
H 0.9127986 -1.2867819 0.64966
H -0.87018573 -2.9877496 0.7494167
H -2.1103868 -1.7123252 0.722013
H -0.70987785 -2.8954468 -1.7314296
H -1.9722146 -1.6356314 -1.7644776
