title
 OpenBabel02282109583D

 17 17  0  0  0  0  0  0  0  0999 V2000
    0.6832    2.8677   -0.3627 N   0  0  0  0  0  0  0  0  0  0  0  0
    0.7540    1.5285   -0.1095 C   0  0  0  0  0  0  0  0  0  0  0  0
    1.7452    1.0069    0.3656 O   0  0  0  0  0  0  0  0  0  0  0  0
   -0.5041    0.7358   -0.4633 C   0  0  0  0  0  0  0  0  0  0  0  0
   -0.2361   -0.7607   -0.4912 C   0  0  0  0  0  0  0  0  0  0  0  0
    0.0419   -1.4602    0.8558 C   0  0  0  0  0  0  0  0  0  0  0  0
   -1.0777   -2.3580    0.6708 O   0  0  0  0  0  0  0  0  0  0  0  0
   -1.4580   -1.7047   -0.5538 C   0  0  0  0  0  0  0  0  0  0  0  0
    1.4500    3.4494   -0.0671 H   0  0  0  0  0  0  0  0  0  0  0  0
   -0.1594    3.3085   -0.6873 H   0  0  0  0  0  0  0  0  0  0  0  0
   -1.2733    0.9670    0.2871 H   0  0  0  0  0  0  0  0  0  0  0  0
   -0.9024    1.0806   -1.4262 H   0  0  0  0  0  0  0  0  0  0  0  0
    0.5224   -0.9879   -1.2427 H   0  0  0  0  0  0  0  0  0  0  0  0
    0.9934   -1.9946    0.9358 H   0  0  0  0  0  0  0  0  0  0  0  0
   -0.0823   -0.8254    1.7418 H   0  0  0  0  0  0  0  0  0  0  0  0
   -2.4347   -1.2057   -0.4689 H   0  0  0  0  0  0  0  0  0  0  0  0
   -1.4929   -2.4006   -1.4012 H   0  0  0  0  0  0  0  0  0  0  0  0
  1  2  1  0  0  0  0
  1  9  1  0  0  0  0
  2  3  2  0  0  0  0
  4  2  1  0  0  0  0
  4 11  1  0  0  0  0
  5  4  1  0  0  0  0
  5  6  1  0  0  0  0
  6 14  1  0  0  0  0
  6 15  1  0  0  0  0
  7  6  1  0  0  0  0
  8  5  1  0  0  0  0
  8 16  1  0  0  0  0
  8  7  1  0  0  0  0
 10  1  1  0  0  0  0
 12  4  1  0  0  0  0
 13  5  1  0  0  0  0
 17  8  1  0  0  0  0
M  END
