18
title
N 1.2834483 2.5824978 -0.25307274
C 1.1847653 1.1929728 -0.290279
O 2.1565251 0.47270748 -0.42317882
N -0.10250144 0.7256123 -0.13660938
C -0.38994128 -0.6775911 0.0089970445
C -0.9461475 -1.2263255 1.354049
C -1.8305347 -2.1984642 0.5262218
C -1.6370754 -1.2669237 -0.70180273
H 2.1795807 2.9035957 -0.5880134
H 0.50505924 3.11199 -0.6178139
H -0.8012106 1.3741858 0.19194287
H 0.52002 -1.2056844 -0.27870885
H -0.23303752 -1.641931 2.0694532
H -1.5559425 -0.47190502 1.8640804
H -1.3421888 -3.1658309 0.3815354
H -2.850993 -2.3722875 0.87234235
H -2.4394367 -0.5235716 -0.7658863
H -1.4984758 -1.7165253 -1.6878469
