title
 OpenBabel02282109583D

 22 22  0  0  0  0  0  0  0  0999 V2000
   -1.5631    1.7757    1.0855 C   0  0  0  0  0  0  0  0  0  0  0  0
   -1.4721    0.2608    0.8526 C   0  0  0  0  0  0  0  0  0  0  0  0
   -2.8732   -0.3657    0.8402 C   0  0  0  0  0  0  0  0  0  0  0  0
   -0.7142   -0.0920   -0.4422 C   0  0  0  0  0  0  0  0  0  0  0  0
    0.7661    0.2730   -0.4461 C   0  0  0  0  0  0  0  0  0  0  0  0
    1.7193   -0.5763    0.4291 C   0  0  0  0  0  0  0  0  0  0  0  0
    2.4987   -0.9727   -0.7170 O   0  0  0  0  0  0  0  0  0  0  0  0
    1.6223   -0.2644   -1.6164 C   0  0  0  0  0  0  0  0  0  0  0  0
   -0.5777    2.2439    1.1671 H   0  0  0  0  0  0  0  0  0  0  0  0
   -2.0978    2.2647    0.2620 H   0  0  0  0  0  0  0  0  0  0  0  0
   -2.1080    1.9955    2.0094 H   0  0  0  0  0  0  0  0  0  0  0  0
   -0.9174   -0.1783    1.6950 H   0  0  0  0  0  0  0  0  0  0  0  0
   -3.4701    0.0286    0.0087 H   0  0  0  0  0  0  0  0  0  0  0  0
   -2.8244   -1.4537    0.7270 H   0  0  0  0  0  0  0  0  0  0  0  0
   -3.4134   -0.1477    1.7673 H   0  0  0  0  0  0  0  0  0  0  0  0
   -0.8044   -1.1721   -0.6225 H   0  0  0  0  0  0  0  0  0  0  0  0
   -1.2099    0.4004   -1.2917 H   0  0  0  0  0  0  0  0  0  0  0  0
    0.9034    1.3461   -0.2936 H   0  0  0  0  0  0  0  0  0  0  0  0
    2.3229   -0.0349    1.1679 H   0  0  0  0  0  0  0  0  0  0  0  0
    1.2482   -1.4385    0.9224 H   0  0  0  0  0  0  0  0  0  0  0  0
    1.0948   -0.9466   -2.2979 H   0  0  0  0  0  0  0  0  0  0  0  0
    2.1616    0.4825   -2.2119 H   0  0  0  0  0  0  0  0  0  0  0  0
  1  9  1  0  0  0  0
  1 11  1  0  0  0  0
  2  1  1  0  0  0  0
  2 12  1  0  0  0  0
  3  2  1  0  0  0  0
  3 15  1  0  0  0  0
  4  2  1  0  0  0  0
  5  4  1  0  0  0  0
  5 18  1  0  0  0  0
  5  6  1  0  0  0  0
  6 20  1  0  0  0  0
  6 19  1  0  0  0  0
  7  6  1  0  0  0  0
  8  7  1  0  0  0  0
  8  5  1  0  0  0  0
 10  1  1  0  0  0  0
 13  3  1  0  0  0  0
 14  3  1  0  0  0  0
 16  4  1  0  0  0  0
 17  4  1  0  0  0  0
 21  8  1  0  0  0  0
 22  8  1  0  0  0  0
M  END
