title
 OpenBabel02282109583D

 20 20  0  0  0  0  0  0  0  0999 V2000
   -0.7420    1.9470   -1.6148 C   0  0  0  0  0  0  0  0  0  0  0  0
   -0.2284    0.5071   -1.5358 C   0  0  0  0  0  0  0  0  0  0  0  0
    0.6785    0.1543   -2.7091 C   0  0  0  0  0  0  0  0  0  0  0  0
    0.5451    0.2951   -0.3504 O   0  0  0  0  0  0  0  0  0  0  0  0
   -0.1947    0.0816    0.8167 C   0  0  0  0  0  0  0  0  0  0  0  0
   -0.7519   -1.3427    1.0760 C   0  0  0  0  0  0  0  0  0  0  0  0
   -0.0161   -1.4346    2.3134 O   0  0  0  0  0  0  0  0  0  0  0  0
    0.6846   -0.2019    2.0444 C   0  0  0  0  0  0  0  0  0  0  0  0
    0.1002    2.6461   -1.6258 H   0  0  0  0  0  0  0  0  0  0  0  0
   -1.3275    2.0947   -2.5278 H   0  0  0  0  0  0  0  0  0  0  0  0
   -1.3846    2.1988   -0.7661 H   0  0  0  0  0  0  0  0  0  0  0  0
   -1.0877   -0.1830   -1.5290 H   0  0  0  0  0  0  0  0  0  0  0  0
    1.5569    0.8074   -2.7158 H   0  0  0  0  0  0  0  0  0  0  0  0
    1.0230   -0.8799   -2.6293 H   0  0  0  0  0  0  0  0  0  0  0  0
    0.1491    0.2763   -3.6586 H   0  0  0  0  0  0  0  0  0  0  0  0
   -0.9390    0.8709    0.9802 H   0  0  0  0  0  0  0  0  0  0  0  0
   -1.8315   -1.4471    1.2339 H   0  0  0  0  0  0  0  0  0  0  0  0
   -0.4130   -2.0780    0.3337 H   0  0  0  0  0  0  0  0  0  0  0  0
    1.7351   -0.3671    1.7738 H   0  0  0  0  0  0  0  0  0  0  0  0
    0.6235    0.5003    2.8829 H   0  0  0  0  0  0  0  0  0  0  0  0
  1  2  1  0  0  0  0
  1 11  1  0  0  0  0
  2 12  1  0  0  0  0
  2  4  1  0  0  0  0
  3 14  1  0  0  0  0
  3  2  1  0  0  0  0
  4  5  1  0  0  0  0
  5 16  1  0  0  0  0
  5  6  1  0  0  0  0
  5  8  1  0  0  0  0
  6 17  1  0  0  0  0
  6  7  1  0  0  0  0
  8  7  1  0  0  0  0
  8 20  1  0  0  0  0
  9  1  1  0  0  0  0
 10  1  1  0  0  0  0
 13  3  1  0  0  0  0
 15  3  1  0  0  0  0
 18  6  1  0  0  0  0
 19  8  1  0  0  0  0
M  END
