22
title
C 1.0734682 2.876829 -0.37272504
C 1.0463095 1.3475993 -0.35443947
O 1.7648658 0.8372897 0.7690703
C -0.3799534 0.7861625 -0.42581925
C -0.45638993 -0.7352523 -0.46201667
C -0.19679204 -1.5674134 0.8264062
C -1.3353094 -2.528094 0.39143133
C -1.8538004 -1.4123393 -0.555746
H 2.1028507 3.2383714 -0.30080342
H 0.6278606 3.2729337 -1.2910957
H 0.5077852 3.2851522 0.47442162
H 1.6101098 0.9737427 -1.2191186
H 1.3111746 1.1375785 1.5645602
H -0.95716 1.1638204 0.4331069
H -0.86864114 1.1958338 -1.3210098
H 0.1841115 -1.1108576 -1.2700392
H 0.8039225 -1.9754058 0.9765815
H -0.4753566 -1.0011362 1.7219498
H -0.95061743 -3.385979 -0.16815153
H -2.015879 -2.8973749 1.1624504
H -2.6211765 -0.79971284 -0.06958717
H -2.218659 -1.7002751 -1.5454148
