20
title
C 0.9813773 2.7975461 0.032846916
C 0.97538936 1.2752936 0.16334605
O 1.7917789 0.8455936 1.2530066
C -0.44468513 0.7007371 0.2750588
C -0.45966855 -0.81668186 0.236378
C -1.8226988 -1.5376985 0.13680339
C -1.2488685 -2.136294 -1.1623337
O -0.057602786 -1.330787 -1.0620962
H 2.008343 3.168892 -0.021534618
H 0.44567826 3.1212223 -0.8653011
H 0.493143 3.2654386 0.8978847
H 1.4487494 0.8340061 -0.7209619
H 1.4621832 1.276276 2.0499945
H -0.902442 1.0416949 1.216364
H -1.0650187 1.0857008 -0.54388756
H 0.19869755 -1.2093835 1.021269
H -2.0571134 -2.2434886 0.9350073
H -2.671342 -0.86553645 -0.009927194
H -1.0207925 -3.2092185 -1.1155162
H -1.8053839 -1.9355757 -2.085527
