15
title
N -0.29913354 2.3589978 1.7870524
C -0.3745522 1.2478244 1.2140657
C -1.4908916 0.26578045 0.92673784
C -0.36772096 -0.57014346 0.27660704
C -0.45668536 -0.81368923 -1.2272316
C 0.7475758 -1.4203353 -1.7797562
C 1.7446868 -1.928756 -2.2156503
O 0.6013505 0.47751564 0.61116594
H 0.6586117 2.714196 1.7832729
H -1.9649614 -0.16498327 1.8094829
H -2.2587934 0.6360121 0.24405813
H -0.10826042 -1.4908576 0.80542123
H -1.322395 -1.463583 -1.4139329
H -0.66498846 0.14046162 -1.7274104
H 2.6272368 -2.37027 -2.607738
