title
 OpenBabel02282109583D

 15 15  0  0  1  0  0  0  0  0999 V2000
   -0.2991    2.3590    1.7871 N   0  0  0  0  0  0  0  0  0  0  0  0
   -0.3746    1.2478    1.2141 C   0  0  0  0  0  0  0  0  0  0  0  0
   -1.4909    0.2658    0.9267 C   0  0  0  0  0  0  0  0  0  0  0  0
   -0.3677   -0.5701    0.2766 C   0  0  1  0  0  0  0  0  0  0  0  0
   -0.4567   -0.8137   -1.2272 C   0  0  0  0  0  0  0  0  0  0  0  0
    0.7476   -1.4203   -1.7798 C   0  0  0  0  0  0  0  0  0  0  0  0
    1.7447   -1.9288   -2.2157 C   0  0  0  0  0  0  0  0  0  0  0  0
    0.6014    0.4775    0.6112 O   0  0  0  0  0  0  0  0  0  0  0  0
    0.6586    2.7142    1.7833 H   0  0  0  0  0  0  0  0  0  0  0  0
   -1.9650   -0.1650    1.8095 H   0  0  0  0  0  0  0  0  0  0  0  0
   -2.2588    0.6360    0.2441 H   0  0  0  0  0  0  0  0  0  0  0  0
   -0.1083   -1.4909    0.8054 H   0  0  0  0  0  0  0  0  0  0  0  0
   -1.3224   -1.4636   -1.4139 H   0  0  0  0  0  0  0  0  0  0  0  0
   -0.6650    0.1405   -1.7274 H   0  0  0  0  0  0  0  0  0  0  0  0
    2.6272   -2.3703   -2.6077 H   0  0  0  0  0  0  0  0  0  0  0  0
  2  1  2  0  0  0  0
  3  2  1  0  0  0  0
  3 10  1  0  0  0  0
  4  8  1  0  0  0  0
  4 12  1  1  0  0  0
  4  3  1  0  0  0  0
  5  4  1  0  0  0  0
  6  5  1  0  0  0  0
  7  6  3  0  0  0  0
  8  2  1  0  0  0  0
  9  1  1  0  0  0  0
 11  3  1  0  0  0  0
 13  5  1  0  0  0  0
 14  5  1  0  0  0  0
 15  7  1  0  0  0  0
M  END
