title
 OpenBabel02282109583D

 14 14  0  0  1  0  0  0  0  0999 V2000
   -0.3878    2.3414    1.8116 N   0  0  0  0  0  0  0  0  0  0  0  0
   -0.4252    1.2320    1.2361 C   0  0  0  0  0  0  0  0  0  0  0  0
   -1.5080    0.2150    0.9377 C   0  0  0  0  0  0  0  0  0  0  0  0
   -0.3533   -0.5793    0.2908 C   0  0  1  0  0  0  0  0  0  0  0  0
   -0.4315   -0.8036   -1.2180 C   0  0  0  0  0  0  0  0  0  0  0  0
    0.8030   -1.3578   -1.7703 C   0  0  0  0  0  0  0  0  0  0  0  0
    1.7774   -1.8074   -2.1971 N   0  0  0  0  0  0  0  0  0  0  0  0
    0.5792    0.4908    0.6333 O   0  0  0  0  0  0  0  0  0  0  0  0
    0.5557    2.7318    1.8185 H   0  0  0  0  0  0  0  0  0  0  0  0
   -1.9691   -0.2388    1.8156 H   0  0  0  0  0  0  0  0  0  0  0  0
   -2.2865    0.5630    0.2555 H   0  0  0  0  0  0  0  0  0  0  0  0
   -0.0715   -1.4996    0.8083 H   0  0  0  0  0  0  0  0  0  0  0  0
   -1.2563   -1.4932   -1.4345 H   0  0  0  0  0  0  0  0  0  0  0  0
   -0.6563    0.1447   -1.7185 H   0  0  0  0  0  0  0  0  0  0  0  0
  1  9  1  0  0  0  0
  2  1  2  0  0  0  0
  3  2  1  0  0  0  0
  3 10  1  0  0  0  0
  4  8  1  0  0  0  0
  4 12  1  1  0  0  0
  4  3  1  0  0  0  0
  5  4  1  0  0  0  0
  6  5  1  0  0  0  0
  7  6  3  0  0  0  0
  8  2  1  0  0  0  0
 11  3  1  0  0  0  0
 13  5  1  0  0  0  0
 14  5  1  0  0  0  0
M  END
