15
title
O -0.104004286 -2.9070768 -0.4357849
C -0.29682693 -1.7226433 -0.41669083
C -1.5327005 -0.7889525 -0.33362764
C -0.5101393 0.3827072 -0.41615856
C -0.4339324 1.3203927 0.7973886
C 0.7494237 2.1710844 0.75703937
C 1.7408848 2.8470864 0.68663126
N 0.54216284 -0.6346175 -0.47499448
H -2.2192638 -0.87771386 -1.1768088
H -2.0886052 -0.8591942 0.6036082
H -0.5837186 0.97475034 -1.3347085
H -1.3401726 1.9387599 0.8256865
H -0.42906228 0.71791345 1.7144549
H 2.6088579 3.4574547 0.6427633
H 1.5445197 -0.5533597 -0.5621348
