title
 OpenBabel02282109583D

 15 15  0  0  1  0  0  0  0  0999 V2000
   -0.1040   -2.9071   -0.4358 O   0  0  0  0  0  0  0  0  0  0  0  0
   -0.2968   -1.7226   -0.4167 C   0  0  0  0  0  0  0  0  0  0  0  0
   -1.5327   -0.7890   -0.3336 C   0  0  0  0  0  0  0  0  0  0  0  0
   -0.5101    0.3827   -0.4162 C   0  0  1  0  0  0  0  0  0  0  0  0
   -0.4339    1.3204    0.7974 C   0  0  0  0  0  0  0  0  0  0  0  0
    0.7494    2.1711    0.7570 C   0  0  0  0  0  0  0  0  0  0  0  0
    1.7409    2.8471    0.6866 C   0  0  0  0  0  0  0  0  0  0  0  0
    0.5422   -0.6346   -0.4750 N   0  0  0  0  0  0  0  0  0  0  0  0
   -2.2193   -0.8777   -1.1768 H   0  0  0  0  0  0  0  0  0  0  0  0
   -2.0886   -0.8592    0.6036 H   0  0  0  0  0  0  0  0  0  0  0  0
   -0.5837    0.9748   -1.3347 H   0  0  0  0  0  0  0  0  0  0  0  0
   -1.3402    1.9388    0.8257 H   0  0  0  0  0  0  0  0  0  0  0  0
   -0.4291    0.7179    1.7145 H   0  0  0  0  0  0  0  0  0  0  0  0
    2.6089    3.4575    0.6428 H   0  0  0  0  0  0  0  0  0  0  0  0
    1.5445   -0.5534   -0.5621 H   0  0  0  0  0  0  0  0  0  0  0  0
  1  2  2  0  0  0  0
  2  3  1  0  0  0  0
  3 10  1  0  0  0  0
  4 11  1  6  0  0  0
  4  3  1  0  0  0  0
  4  5  1  0  0  0  0
  5 12  1  0  0  0  0
  5 13  1  0  0  0  0
  6  5  1  0  0  0  0
  7  6  3  0  0  0  0
  8  2  1  0  0  0  0
  8  4  1  0  0  0  0
  9  3  1  0  0  0  0
 14  7  1  0  0  0  0
 15  8  1  0  0  0  0
M  END
