14
title
O -0.09931872 -2.2354434 -1.8171585
C -0.30285105 -1.2165021 -1.2431414
C -1.4970679 -0.33072945 -0.88276947
C -0.4248667 0.5613294 -0.23101111
C -0.48042175 0.7327195 1.2840228
C 0.690714 1.4106376 1.824394
C 1.6588855 1.9792132 2.2506108
O 0.6154641 -0.3919569 -0.64057034
H -2.026033 0.08641151 -1.7406329
H -2.2115886 -0.7972452 -0.20129187
H -0.25275946 1.5182216 -0.72861856
H -1.3877412 1.302144 1.5266562
H -0.5947893 -0.25534055 1.7475982
H 2.5179484 2.4724422 2.633303
