15
title
O -0.1826822 -3.0164027 0.70855266
C -0.26134458 -1.8635187 0.4060962
C -1.4379401 -0.88151795 0.25325632
C -0.4436423 0.123226084 -0.40949193
C -0.43363792 1.5407892 0.17531985
C 0.6328673 2.368924 -0.38643697
N 1.4837323 3.00376 -0.84266084
C 0.75824076 -0.8056043 -0.047813892
H -2.2803216 -1.2332516 -0.34723154
H -1.8214468 -0.54979736 1.225166
H -0.5904943 0.17816393 -1.4902002
H -1.3941737 2.035597 -0.009715794
H -0.3046088 1.499818 1.2640421
H 1.3681761 -0.43758115 0.7852545
H 1.4302244 -1.103197 -0.8559242
