14
title
O -0.19619483 -2.9194648 -0.502581
C -0.3459163 -1.7321264 -0.44478506
C -1.5487158 -0.75641656 -0.35947013
C -0.48296478 0.37700465 -0.42200506
C -0.41411638 1.3124728 0.79573345
C 0.79453933 2.1338897 0.77692914
N 1.763808 2.7612023 0.72959566
N 0.5362648 -0.67235327 -0.44853836
H -2.2279885 -0.80916286 -1.2112517
H -2.1178935 -0.81655455 0.5703707
H -0.5189414 0.9707351 -1.3413274
H -1.2918406 1.9684162 0.80901086
H -0.42699975 0.7209275 1.7177813
H 1.5339184 -0.6281755 -0.60074955
