13
title
O -0.21866108 -2.227535 -1.8404424
C -0.3711401 -1.2035737 -1.2636883
C -1.5188885 -0.26123732 -0.8924363
C -0.39887354 0.5734845 -0.24540989
C -0.4421135 0.7293835 1.2727988
C 0.76667064 1.3504912 1.8110135
N 1.7173915 1.8551384 2.2293372
O 0.59039015 -0.4221993 -0.6609395
H -2.0297332 0.1881574 -1.7447307
H -2.2530236 -0.6953296 -0.21052991
H -0.18755172 1.5271493 -0.73362017
H -1.3062171 1.3477484 1.543272
H -0.58165956 -0.25212687 1.7393098
