title
 OpenBabel02282109583D

 14 14  0  0  0  0  0  0  0  0999 V2000
   -0.3860   -3.0351   -0.3395 O   0  0  0  0  0  0  0  0  0  0  0  0
   -0.3762   -1.8527   -0.1959 C   0  0  0  0  0  0  0  0  0  0  0  0
   -1.4512   -0.7592   -0.0717 C   0  0  0  0  0  0  0  0  0  0  0  0
   -0.3703    0.1711    0.3374 N   0  0  0  0  0  0  0  0  0  0  0  0
   -0.3725    1.4842   -0.2754 C   0  0  0  0  0  0  0  0  0  0  0  0
    0.7595    2.2930    0.1906 C   0  0  0  0  0  0  0  0  0  0  0  0
    1.6619    2.9237    0.5388 N   0  0  0  0  0  0  0  0  0  0  0  0
    0.7092   -0.7758   -0.0439 C   0  0  0  0  0  0  0  0  0  0  0  0
   -1.9054   -0.5341   -1.0509 H   0  0  0  0  0  0  0  0  0  0  0  0
   -2.2450   -0.9061    0.6670 H   0  0  0  0  0  0  0  0  0  0  0  0
   -0.3327    1.4508   -1.3822 H   0  0  0  0  0  0  0  0  0  0  0  0
   -1.3001    2.0018   -0.0057 H   0  0  0  0  0  0  0  0  0  0  0  0
    1.4807   -0.9318    0.7151 H   0  0  0  0  0  0  0  0  0  0  0  0
    1.1940   -0.5540   -1.0085 H   0  0  0  0  0  0  0  0  0  0  0  0
  1  2  2  0  0  0  0
  2  3  1  0  0  0  0
  2  8  1  0  0  0  0
  3  4  1  0  0  0  0
  3 10  1  0  0  0  0
  5 12  1  0  0  0  0
  5  6  1  0  0  0  0
  5  4  1  0  0  0  0
  6  7  3  0  0  0  0
  8  4  1  0  0  0  0
  8 13  1  0  0  0  0
  9  3  1  0  0  0  0
 11  5  1  0  0  0  0
 14  8  1  0  0  0  0
M  END
