title
 OpenBabel02282109583D

 15 15  0  0  1  0  0  0  0  0999 V2000
   -0.1916    2.4726    1.8779 N   0  0  0  0  0  0  0  0  0  0  0  0
   -0.2932    1.3590    1.3165 C   0  0  0  0  0  0  0  0  0  0  0  0
   -1.4286    0.3912    1.0541 C   0  0  0  0  0  0  0  0  0  0  0  0
   -0.3325   -0.4653    0.3846 C   0  0  1  0  0  0  0  0  0  0  0  0
   -0.4322   -0.7101   -1.1146 C   0  0  0  0  0  0  0  0  0  0  0  0
    0.8635   -1.2442   -1.6979 C   0  0  0  0  0  0  0  0  0  0  0  0
    0.9465   -2.2534   -2.3485 O   0  0  0  0  0  0  0  0  0  0  0  0
    0.6634    0.5677    0.7034 O   0  0  0  0  0  0  0  0  0  0  0  0
    0.7698    2.8168    1.8590 H   0  0  0  0  0  0  0  0  0  0  0  0
   -1.8890   -0.0295    1.9490 H   0  0  0  0  0  0  0  0  0  0  0  0
   -2.2055    0.7688    0.3865 H   0  0  0  0  0  0  0  0  0  0  0  0
   -0.0844   -1.3854    0.9221 H   0  0  0  0  0  0  0  0  0  0  0  0
   -1.2356   -1.4205   -1.3320 H   0  0  0  0  0  0  0  0  0  0  0  0
   -0.6616    0.2438   -1.6093 H   0  0  0  0  0  0  0  0  0  0  0  0
    1.7568   -0.6212   -1.4769 H   0  0  0  0  0  0  0  0  0  0  0  0
  2  1  2  0  0  0  0
  3  2  1  0  0  0  0
  3 10  1  0  0  0  0
  4  8  1  0  0  0  0
  4 12  1  1  0  0  0
  4  3  1  0  0  0  0
  5  4  1  0  0  0  0
  6 15  1  0  0  0  0
  6  5  1  0  0  0  0
  7  6  2  0  0  0  0
  8  2  1  0  0  0  0
  9  1  1  0  0  0  0
 11  3  1  0  0  0  0
 13  5  1  0  0  0  0
 14  5  1  0  0  0  0
M  END
