15
title
N -0.19157572 2.4726465 1.8779413
C -0.29324865 1.3589936 1.3164623
C -1.4286307 0.39124417 1.0541179
C -0.3325067 -0.46534824 0.38456258
C -0.43222883 -0.71014035 -1.1145616
C 0.86349183 -1.2442241 -1.6978948
O 0.9464744 -2.2533731 -2.3484797
O 0.6634115 0.56769955 0.7033852
H 0.76979023 2.8168178 1.8590252
H -1.8889855 -0.029496444 1.9489555
H -2.2054737 0.7688142 0.3864605
H -0.08439543 -1.3853865 0.92205036
H -1.2355725 -1.420546 -1.332001
H -0.6615695 0.24379097 -1.6092708
H 1.7567683 -0.62117934 -1.4768679
