title
 OpenBabel02282109583D

 15 15  0  0  0  0  0  0  0  0999 V2000
    1.8402    2.9060   -0.2986 N   0  0  0  0  0  0  0  0  0  0  0  0
    1.6964    1.6550   -0.2425 C   0  0  0  0  0  0  0  0  0  0  0  0
    0.4845    1.1057   -0.4720 O   0  0  0  0  0  0  0  0  0  0  0  0
    0.3444   -0.2835   -0.2401 C   0  0  0  0  0  0  0  0  0  0  0  0
   -0.2455   -0.6934    1.1441 C   0  0  0  0  0  0  0  0  0  0  0  0
   -1.2903   -1.5232    0.3775 C   0  0  0  0  0  0  0  0  0  0  0  0
   -2.0588   -2.3830    0.6898 O   0  0  0  0  0  0  0  0  0  0  0  0
   -0.8857   -0.8875   -0.9632 C   0  0  0  0  0  0  0  0  0  0  0  0
    2.8132    3.1531   -0.1310 H   0  0  0  0  0  0  0  0  0  0  0  0
    2.4794    0.9128   -0.0326 H   0  0  0  0  0  0  0  0  0  0  0  0
    1.2775   -0.8067   -0.4748 H   0  0  0  0  0  0  0  0  0  0  0  0
    0.3930   -1.2277    1.8512 H   0  0  0  0  0  0  0  0  0  0  0  0
   -0.7046    0.1645    1.6469 H   0  0  0  0  0  0  0  0  0  0  0  0
   -1.5867   -0.1010   -1.2622 H   0  0  0  0  0  0  0  0  0  0  0  0
   -0.7184   -1.5592   -1.8074 H   0  0  0  0  0  0  0  0  0  0  0  0
  1  2  2  0  0  0  0
  1  9  1  0  0  0  0
  2 10  1  0  0  0  0
  3  2  1  0  0  0  0
  3  4  1  0  0  0  0
  4  5  1  0  0  0  0
  5 13  1  0  0  0  0
  5 12  1  0  0  0  0
  6  7  2  0  0  0  0
  6  5  1  0  0  0  0
  8  4  1  0  0  0  0
  8  6  1  0  0  0  0
 11  4  1  0  0  0  0
 14  8  1  0  0  0  0
 15  8  1  0  0  0  0
M  END
