16
title
O -1.3275799 -3.092134 0.9368736
C -1.1412992 -1.9037732 0.9778513
C 0.20303382 -1.2334062 0.7896273
C 0.1915337 -0.22873038 -0.36572203
C -0.6541296 1.0778393 -0.19588323
C 0.58221173 1.8720607 -0.6513329
O 0.7595488 3.0012214 -0.9996638
C 1.4821637 0.62769395 -0.5667978
H -1.9876672 -1.1996138 1.1558559
H 0.44804958 -0.70273536 1.7219906
H 0.95625544 -2.0110006 0.63155204
H -0.07572601 -0.74013394 -1.294774
H -1.5551144 1.1964592 -0.8024034
H -0.90738434 1.3010634 0.84727484
H 2.1236968 0.65654737 0.32163468
H 2.107475 0.42001945 -1.4384689
