title
 OpenBabel02282109583D

 16 16  0  0  0  0  0  0  0  0999 V2000
   -1.3276   -3.0921    0.9369 O   0  0  0  0  0  0  0  0  0  0  0  0
   -1.1413   -1.9038    0.9779 C   0  0  0  0  0  0  0  0  0  0  0  0
    0.2030   -1.2334    0.7896 C   0  0  0  0  0  0  0  0  0  0  0  0
    0.1915   -0.2287   -0.3657 C   0  0  0  0  0  0  0  0  0  0  0  0
   -0.6541    1.0778   -0.1959 C   0  0  0  0  0  0  0  0  0  0  0  0
    0.5822    1.8721   -0.6513 C   0  0  0  0  0  0  0  0  0  0  0  0
    0.7595    3.0012   -0.9997 O   0  0  0  0  0  0  0  0  0  0  0  0
    1.4822    0.6277   -0.5668 C   0  0  0  0  0  0  0  0  0  0  0  0
   -1.9877   -1.1996    1.1559 H   0  0  0  0  0  0  0  0  0  0  0  0
    0.4480   -0.7027    1.7220 H   0  0  0  0  0  0  0  0  0  0  0  0
    0.9563   -2.0110    0.6316 H   0  0  0  0  0  0  0  0  0  0  0  0
   -0.0757   -0.7401   -1.2948 H   0  0  0  0  0  0  0  0  0  0  0  0
   -1.5551    1.1965   -0.8024 H   0  0  0  0  0  0  0  0  0  0  0  0
   -0.9074    1.3011    0.8473 H   0  0  0  0  0  0  0  0  0  0  0  0
    2.1237    0.6565    0.3216 H   0  0  0  0  0  0  0  0  0  0  0  0
    2.1075    0.4200   -1.4385 H   0  0  0  0  0  0  0  0  0  0  0  0
  1  2  2  0  0  0  0
  2  9  1  0  0  0  0
  3  2  1  0  0  0  0
  3 10  1  0  0  0  0
  4  5  1  0  0  0  0
  4  3  1  0  0  0  0
  5 14  1  0  0  0  0
  6  8  1  0  0  0  0
  6  5  1  0  0  0  0
  7  6  2  0  0  0  0
  8  4  1  0  0  0  0
  8 15  1  0  0  0  0
 11  3  1  0  0  0  0
 12  4  1  0  0  0  0
 13  5  1  0  0  0  0
 16  8  1  0  0  0  0
M  END
