15
title
O -1.5761222 -2.428132 0.9851823
C -1.6672746 -1.2532809 1.2299845
C -0.4932996 -0.31924757 1.4290861
C -0.3982054 0.6844901 0.27246538
C 0.8731121 1.5846297 0.22632542
C 1.1881233 0.8772081 -1.1166811
O 2.053416 0.93611825 -1.9449646
N 0.044037096 0.11977877 -1.0075572
H -2.6647117 -0.75780904 1.2969209
H -0.647151 0.24007453 2.3614633
H 0.42626202 -0.9061879 1.5028149
H -1.3341743 1.2500807 0.18583634
H 0.6916703 2.6571436 0.14231554
H 1.6044644 1.3929754 1.0137037
H -0.33534074 -0.6123065 -1.59056
