title
 OpenBabel02282109583D

 14 14  0  0  1  0  0  0  0  0999 V2000
   -2.5649   -1.5005    1.6533 O   0  0  0  0  0  0  0  0  0  0  0  0
   -1.6021   -1.3258    0.9532 C   0  0  0  0  0  0  0  0  0  0  0  0
   -0.4887   -0.3419    1.2703 C   0  0  0  0  0  0  0  0  0  0  0  0
   -0.2419    0.6368    0.1318 C   0  0  1  0  0  0  0  0  0  0  0  0
    1.0595    1.4595    0.1522 C   0  0  0  0  0  0  0  0  0  0  0  0
    1.3928    0.6612   -1.1096 C   0  0  0  0  0  0  0  0  0  0  0  0
    2.2733    0.5824   -1.9002 O   0  0  0  0  0  0  0  0  0  0  0  0
    0.2160   -0.0523   -1.0874 O   0  0  0  0  0  0  0  0  0  0  0  0
   -1.4620   -1.8883    0.0054 H   0  0  0  0  0  0  0  0  0  0  0  0
   -0.7474    0.1976    2.1862 H   0  0  0  0  0  0  0  0  0  0  0  0
    0.4327   -0.9141    1.4461 H   0  0  0  0  0  0  0  0  0  0  0  0
   -1.1393    1.2159   -0.1017 H   0  0  0  0  0  0  0  0  0  0  0  0
    0.9607    2.5341   -0.0074 H   0  0  0  0  0  0  0  0  0  0  0  0
    1.7314    1.2721    0.9920 H   0  0  0  0  0  0  0  0  0  0  0  0
  2  3  1  0  0  0  0
  2  1  2  0  0  0  0
  3 11  1  0  0  0  0
  3 10  1  0  0  0  0
  4 12  1  6  0  0  0
  4  5  1  0  0  0  0
  4  3  1  0  0  0  0
  5 14  1  0  0  0  0
  6  8  1  0  0  0  0
  6  5  1  0  0  0  0
  7  6  2  0  0  0  0
  8  4  1  0  0  0  0
  9  2  1  0  0  0  0
 13  5  1  0  0  0  0
M  END
