15
title
O -1.6470218 -2.4042773 1.731543
C -1.4784827 -1.2509844 1.437385
C -0.11344221 -0.59513366 1.2849091
N -0.13500836 0.42337582 0.25957137
C -0.07269481 -0.011845366 -1.1589576
C 0.9599213 1.1014812 -1.3936244
O 1.4713402 1.5982563 -2.3485582
C 1.041297 1.3165085 0.1262645
H -2.3267095 -0.551399 1.2635654
H 0.10454199 -0.11229254 2.2485876
H 0.6449601 -1.3837547 1.1320485
H 0.36729917 -1.0114307 -1.3094305
H -1.0140781 0.0501139 -1.7140902
H 0.8996119 2.3362298 0.49922955
H 1.9780512 0.9094665 0.5396484
