14
title
O -2.0018532 -2.7563834 -0.48108307
C -1.7618482 -1.5912726 -0.40133938
O -0.5253038 -1.1192065 -0.13699561
C -0.3315134 0.28628877 -0.060196597
C 0.39298046 0.7603703 1.2295638
C 1.3822384 1.5132532 0.32200968
O 2.2015314 2.361116 0.5116506
C 0.8352318 0.8177269 -0.9373799
H -2.5088859 -0.78401774 -0.5321153
H -1.2765566 0.808333 -0.23923965
H -0.16843675 1.3522019 1.9555818
H 0.8750942 -0.077767335 1.7436737
H 1.4887869 0.0017986698 -1.2634917
H 0.5968702 1.4514499 -1.7941983
