title
 OpenBabel02282109583D

 14 14  0  0  0  0  0  0  0  0999 V2000
   -2.0019   -2.7564   -0.4811 O   0  0  0  0  0  0  0  0  0  0  0  0
   -1.7618   -1.5913   -0.4013 C   0  0  0  0  0  0  0  0  0  0  0  0
   -0.5253   -1.1192   -0.1370 O   0  0  0  0  0  0  0  0  0  0  0  0
   -0.3315    0.2863   -0.0602 C   0  0  0  0  0  0  0  0  0  0  0  0
    0.3930    0.7604    1.2296 C   0  0  0  0  0  0  0  0  0  0  0  0
    1.3822    1.5133    0.3220 C   0  0  0  0  0  0  0  0  0  0  0  0
    2.2015    2.3611    0.5117 O   0  0  0  0  0  0  0  0  0  0  0  0
    0.8352    0.8177   -0.9374 C   0  0  0  0  0  0  0  0  0  0  0  0
   -2.5089   -0.7840   -0.5321 H   0  0  0  0  0  0  0  0  0  0  0  0
   -1.2766    0.8083   -0.2392 H   0  0  0  0  0  0  0  0  0  0  0  0
   -0.1684    1.3522    1.9556 H   0  0  0  0  0  0  0  0  0  0  0  0
    0.8751   -0.0778    1.7437 H   0  0  0  0  0  0  0  0  0  0  0  0
    1.4888    0.0018   -1.2635 H   0  0  0  0  0  0  0  0  0  0  0  0
    0.5969    1.4514   -1.7942 H   0  0  0  0  0  0  0  0  0  0  0  0
  1  2  2  0  0  0  0
  2  3  1  0  0  0  0
  3  4  1  0  0  0  0
  4  5  1  0  0  0  0
  5 12  1  0  0  0  0
  5 11  1  0  0  0  0
  6  7  2  0  0  0  0
  6  5  1  0  0  0  0
  8  4  1  0  0  0  0
  8  6  1  0  0  0  0
  9  2  1  0  0  0  0
 10  4  1  0  0  0  0
 13  8  1  0  0  0  0
 14  8  1  0  0  0  0
M  END
