15
title
C 0.48207057 3.7000475 -0.6326694
C 0.47528192 2.2447462 -0.6396512
C 0.4693803 1.0403672 -0.6396727
C 0.4627523 -0.41343153 -0.6545573
C 0.9072348 -1.1451093 0.66058594
C -0.5388461 -1.6943761 0.7119133
O -1.1723613 -2.3956735 1.4515007
N -0.85178846 -1.0550073 -0.46471047
H 1.2283871 4.0890903 0.06852028
H 0.7146909 4.1026726 -1.6244392
H -0.49343273 4.0973716 -0.3319329
H 0.97943085 -0.78620803 -1.5463922
H 1.6826683 -1.9019083 0.5342118
H 1.160347 -0.4782232 1.4847271
H -1.7321258 -0.9106022 -0.9374829
