title
 OpenBabel02282109583D

 15 15  0  0  1  0  0  0  0  0999 V2000
    0.4821    3.7000   -0.6327 C   0  0  0  0  0  0  0  0  0  0  0  0
    0.4753    2.2447   -0.6397 C   0  0  0  0  0  0  0  0  0  0  0  0
    0.4694    1.0404   -0.6397 C   0  0  0  0  0  0  0  0  0  0  0  0
    0.4628   -0.4134   -0.6546 C   0  0  1  0  0  0  0  0  0  0  0  0
    0.9072   -1.1451    0.6606 C   0  0  0  0  0  0  0  0  0  0  0  0
   -0.5388   -1.6944    0.7119 C   0  0  0  0  0  0  0  0  0  0  0  0
   -1.1724   -2.3957    1.4515 O   0  0  0  0  0  0  0  0  0  0  0  0
   -0.8518   -1.0550   -0.4647 N   0  0  0  0  0  0  0  0  0  0  0  0
    1.2284    4.0891    0.0685 H   0  0  0  0  0  0  0  0  0  0  0  0
    0.7147    4.1027   -1.6244 H   0  0  0  0  0  0  0  0  0  0  0  0
   -0.4934    4.0974   -0.3319 H   0  0  0  0  0  0  0  0  0  0  0  0
    0.9794   -0.7862   -1.5464 H   0  0  0  0  0  0  0  0  0  0  0  0
    1.6827   -1.9019    0.5342 H   0  0  0  0  0  0  0  0  0  0  0  0
    1.1603   -0.4782    1.4847 H   0  0  0  0  0  0  0  0  0  0  0  0
   -1.7321   -0.9106   -0.9375 H   0  0  0  0  0  0  0  0  0  0  0  0
  1 11  1  0  0  0  0
  1  9  1  0  0  0  0
  2  1  1  0  0  0  0
  3  2  3  0  0  0  0
  4 12  1  6  0  0  0
  4  3  1  0  0  0  0
  4  8  1  0  0  0  0
  4  5  1  0  0  0  0
  5  6  1  0  0  0  0
  5 14  1  0  0  0  0
  6  7  2  0  0  0  0
  8  6  1  0  0  0  0
 10  1  1  0  0  0  0
 13  5  1  0  0  0  0
 15  8  1  0  0  0  0
M  END
