18
title
C 0.2216485 3.6962905 -0.42265773
C 0.3822602 2.2505975 -0.46199444
C 0.50800556 1.0531294 -0.49778384
C 0.67128104 -0.38851386 -0.53330576
C 0.8989996 -1.1362139 0.8075105
C -0.32683486 -1.9754406 0.38959396
C -1.5172893 -2.0356302 1.3237624
O -0.5660116 -1.1176525 -0.7560519
H 0.7516043 4.1812954 -1.2497101
H -0.83536416 3.974721 -0.49676257
H 0.60874075 4.1148825 0.5129758
H 1.4115047 -0.6603146 -1.2990338
H 1.8501539 -1.6602255 0.9074305
H 0.7270154 -0.51056296 1.6846863
H -0.056904007 -2.9872327 0.053931184
H -1.7847098 -1.0334636 1.6720504
H -2.3842142 -2.4640632 0.8108202
H -1.2902545 -2.6627822 2.1932113
