title
 OpenBabel02282109583D

 20 20  0  0  1  0  0  0  0  0999 V2000
   -1.4185    2.8372   -0.4378 C   0  0  0  0  0  0  0  0  0  0  0  0
   -1.3628    1.3212   -0.5402 C   0  0  1  0  0  0  0  0  0  0  0  0
   -0.3276    0.6652   -1.4986 C   0  0  0  0  0  0  0  0  0  0  0  0
   -0.0991   -0.4411   -0.4334 C   0  0  1  0  0  0  0  0  0  0  0  0
    1.3278   -0.9560   -0.2144 C   0  0  0  0  0  0  0  0  0  0  0  0
    1.4310   -1.8886    0.9026 C   0  0  0  0  0  0  0  0  0  0  0  0
    1.4838   -2.6544    1.8279 C   0  0  0  0  0  0  0  0  0  0  0  0
   -0.7289    0.5058    0.6230 C   0  0  0  0  0  0  0  0  0  0  0  0
   -0.4279    3.2528   -0.2196 H   0  0  0  0  0  0  0  0  0  0  0  0
   -1.7701    3.2884   -1.3726 H   0  0  0  0  0  0  0  0  0  0  0  0
   -2.0967    3.1578    0.3612 H   0  0  0  0  0  0  0  0  0  0  0  0
   -2.3621    0.9279   -0.7599 H   0  0  0  0  0  0  0  0  0  0  0  0
   -0.6626    0.3606   -2.4936 H   0  0  0  0  0  0  0  0  0  0  0  0
    0.5613    1.2980   -1.6095 H   0  0  0  0  0  0  0  0  0  0  0  0
   -0.7623   -1.2921   -0.6188 H   0  0  0  0  0  0  0  0  0  0  0  0
    1.6867   -1.4422   -1.1318 H   0  0  0  0  0  0  0  0  0  0  0  0
    1.9969   -0.1022   -0.0408 H   0  0  0  0  0  0  0  0  0  0  0  0
    1.5436   -3.3314    2.6434 H   0  0  0  0  0  0  0  0  0  0  0  0
    0.0424    1.0897    1.1392 H   0  0  0  0  0  0  0  0  0  0  0  0
   -1.3924    0.0699    1.3731 H   0  0  0  0  0  0  0  0  0  0  0  0
  1  9  1  0  0  0  0
  1 11  1  0  0  0  0
  2 12  1  6  0  0  0
  2  1  1  0  0  0  0
  2  8  1  0  0  0  0
  3  2  1  0  0  0  0
  3  4  1  0  0  0  0
  4 15  1  6  0  0  0
  4  5  1  0  0  0  0
  4  8  1  0  0  0  0
  5 17  1  0  0  0  0
  5  6  1  0  0  0  0
  6  7  3  0  0  0  0
  7 18  1  0  0  0  0
  8 19  1  0  0  0  0
  8 20  1  0  0  0  0
 10  1  1  0  0  0  0
 13  3  1  0  0  0  0
 14  3  1  0  0  0  0
 16  5  1  0  0  0  0
M  END
