title
 OpenBabel02282109583D

 18 18  0  0  1  0  0  0  0  0999 V2000
   -1.0641    2.6811    0.0543 C   0  0  0  0  0  0  0  0  0  0  0  0
   -1.4183    1.2347   -0.2200 C   0  0  1  0  0  0  0  0  0  0  0  0
   -0.8387    0.5431   -1.4743 C   0  0  0  0  0  0  0  0  0  0  0  0
   -0.3020   -0.4994   -0.4730 C   0  0  1  0  0  0  0  0  0  0  0  0
    1.2013   -0.7857   -0.4828 C   0  0  0  0  0  0  0  0  0  0  0  0
    1.6229   -1.6741    0.5925 C   0  0  0  0  0  0  0  0  0  0  0  0
    1.9505   -2.4167    1.4785 C   0  0  0  0  0  0  0  0  0  0  0  0
   -0.7101    0.3124    0.6475 O   0  0  0  0  0  0  0  0  0  0  0  0
    0.0111    2.8477   -0.0632 H   0  0  0  0  0  0  0  0  0  0  0  0
   -1.5993    3.3434   -0.6353 H   0  0  0  0  0  0  0  0  0  0  0  0
   -1.3435    2.9549    1.0766 H   0  0  0  0  0  0  0  0  0  0  0  0
   -2.5035    1.0866   -0.1214 H   0  0  0  0  0  0  0  0  0  0  0  0
   -1.5505    0.1887   -2.2209 H   0  0  0  0  0  0  0  0  0  0  0  0
   -0.0533    1.1226   -1.9678 H   0  0  0  0  0  0  0  0  0  0  0  0
   -0.8537   -1.4492   -0.4876 H   0  0  0  0  0  0  0  0  0  0  0  0
    1.4586   -1.2291   -1.4548 H   0  0  0  0  0  0  0  0  0  0  0  0
    1.7378    0.1688   -0.4161 H   0  0  0  0  0  0  0  0  0  0  0  0
    2.2447   -3.0653    2.2658 H   0  0  0  0  0  0  0  0  0  0  0  0
  1 11  1  0  0  0  0
  2 12  1  1  0  0  0
  2  1  1  0  0  0  0
  2  8  1  0  0  0  0
  3  4  1  0  0  0  0
  3  2  1  0  0  0  0
  4 15  1  6  0  0  0
  4  8  1  0  0  0  0
  5  4  1  0  0  0  0
  5 17  1  0  0  0  0
  5  6  1  0  0  0  0
  6  7  3  0  0  0  0
  7 18  1  0  0  0  0
  9  1  1  0  0  0  0
 10  1  1  0  0  0  0
 13  3  1  0  0  0  0
 14  3  1  0  0  0  0
 16  5  1  0  0  0  0
M  END
