17
title
O 0.96725845 2.7143993 -0.9073433
C 1.1473198 1.3204334 -0.87027776
C 1.4645576 0.63847363 0.49283278
C 0.4272153 -0.45613196 0.12081963
C -0.47972754 -0.9849191 1.2373405
C -1.4970765 -1.9110937 0.7407607
N -2.2909424 -2.641458 0.32610357
C -0.16998234 0.52132136 -0.92875314
H 1.8325315 3.1357286 -0.91851556
H 1.8488597 0.985622 -1.6473906
H 2.491174 0.3280683 0.7020037
H 1.1017139 1.2704957 1.3100321
H 0.9155194 -1.3006098 -0.37391347
H 0.115822166 -1.5002844 2.0006397
H -0.9835632 -0.15024903 1.7391074
H -0.9770932 1.1224724 -0.49804825
H -0.495191 0.1204792 -1.8898445
