title
 OpenBabel02282109583D

 16 16  0  0  0  0  0  0  0  0999 V2000
    1.5156    2.1312   -1.0902 O   0  0  0  0  0  0  0  0  0  0  0  0
    1.4775    0.7281   -1.0938 C   0  0  0  0  0  0  0  0  0  0  0  0
    1.6289    0.0541    0.2980 C   0  0  0  0  0  0  0  0  0  0  0  0
    0.1529   -0.0328    0.3599 N   0  0  0  0  0  0  0  0  0  0  0  0
   -0.4332   -1.1864    1.0073 C   0  0  0  0  0  0  0  0  0  0  0  0
   -1.8994   -1.1331    0.9730 C   0  0  0  0  0  0  0  0  0  0  0  0
   -3.0530   -1.0993    0.9296 N   0  0  0  0  0  0  0  0  0  0  0  0
    0.0585    0.0979   -1.1127 C   0  0  0  0  0  0  0  0  0  0  0  0
    0.8922    2.4411   -0.4229 H   0  0  0  0  0  0  0  0  0  0  0  0
    2.1683    0.4015   -1.8709 H   0  0  0  0  0  0  0  0  0  0  0  0
    2.1241   -0.9287    0.2329 H   0  0  0  0  0  0  0  0  0  0  0  0
    2.0951    0.6453    1.0929 H   0  0  0  0  0  0  0  0  0  0  0  0
   -0.1161   -2.1456    0.5526 H   0  0  0  0  0  0  0  0  0  0  0  0
   -0.1129   -1.2093    2.0557 H   0  0  0  0  0  0  0  0  0  0  0  0
   -0.7642    0.7223   -1.4732 H   0  0  0  0  0  0  0  0  0  0  0  0
    0.0386   -0.8717   -1.6360 H   0  0  0  0  0  0  0  0  0  0  0  0
  1  9  1  0  0  0  0
  2  1  1  0  0  0  0
  2  3  1  0  0  0  0
  3  4  1  0  0  0  0
  3 12  1  0  0  0  0
  4  5  1  0  0  0  0
  5 14  1  0  0  0  0
  6  5  1  0  0  0  0
  7  6  3  0  0  0  0
  8  2  1  0  0  0  0
  8  4  1  0  0  0  0
 10  2  1  0  0  0  0
 11  3  1  0  0  0  0
 13  5  1  0  0  0  0
 15  8  1  0  0  0  0
 16  8  1  0  0  0  0
M  END
