title
 OpenBabel02282109583D

 19 19  0  0  1  0  0  0  0  0999 V2000
   -2.1751    1.9817   -0.6253 C   0  0  0  0  0  0  0  0  0  0  0  0
   -1.9759    0.4688   -0.5987 C   0  0  1  0  0  0  0  0  0  0  0  0
   -0.7053   -0.0258   -1.3552 C   0  0  0  0  0  0  0  0  0  0  0  0
    0.0334   -0.1022    0.0087 C   0  0  1  0  0  0  0  0  0  0  0  0
   -1.3463   -0.0737    0.7206 C   0  0  0  0  0  0  0  0  0  0  0  0
    0.9258   -1.2075    0.2589 N   0  0  0  0  0  0  0  0  0  0  0  0
    2.2190   -1.0634    0.6596 C   0  0  0  0  0  0  0  0  0  0  0  0
    2.7815   -0.0073    0.8559 O   0  0  0  0  0  0  0  0  0  0  0  0
   -1.2637    2.5143   -0.3307 H   0  0  0  0  0  0  0  0  0  0  0  0
   -2.4483    2.3248   -1.6291 H   0  0  0  0  0  0  0  0  0  0  0  0
   -2.9720    2.2856    0.0619 H   0  0  0  0  0  0  0  0  0  0  0  0
   -2.9036   -0.0272   -0.8966 H   0  0  0  0  0  0  0  0  0  0  0  0
   -0.8492   -1.0216   -1.7874 H   0  0  0  0  0  0  0  0  0  0  0  0
   -0.2798    0.6286   -2.1207 H   0  0  0  0  0  0  0  0  0  0  0  0
    0.6124    0.7996    0.2082 H   0  0  0  0  0  0  0  0  0  0  0  0
   -1.4349    0.5422    1.6196 H   0  0  0  0  0  0  0  0  0  0  0  0
   -1.6959   -1.0849    0.9540 H   0  0  0  0  0  0  0  0  0  0  0  0
    0.5763   -2.1449    0.1307 H   0  0  0  0  0  0  0  0  0  0  0  0
    2.7163   -2.0455    0.7911 H   0  0  0  0  0  0  0  0  0  0  0  0
  1  2  1  0  0  0  0
  1  9  1  0  0  0  0
  1 11  1  0  0  0  0
  2 12  1  6  0  0  0
  2  5  1  0  0  0  0
  3  2  1  0  0  0  0
  3  4  1  0  0  0  0
  4 15  1  1  0  0  0
  4  6  1  0  0  0  0
  4  5  1  0  0  0  0
  5 17  1  0  0  0  0
  5 16  1  0  0  0  0
  6  7  1  0  0  0  0
  7 19  1  0  0  0  0
  7  8  2  0  0  0  0
 10  1  1  0  0  0  0
 13  3  1  0  0  0  0
 14  3  1  0  0  0  0
 18  6  1  0  0  0  0
M  END
