18
title
C -2.3178272 2.1425831 -0.55939996
C -2.011415 0.6480508 -0.5218989
C -0.7374673 0.22394413 -1.3182385
C 0.03836561 0.19222358 0.015505573
C -1.3017222 0.16088453 0.7803728
O 0.8876903 -0.935746 0.20980062
C 2.1695745 -0.7304818 0.5629161
O 2.9435627 -1.6214527 0.7446256
H -1.437908 2.7445853 -0.30403534
H -2.6496892 2.4509523 -1.5566211
H -3.110241 2.3994706 0.15176727
H -2.9106257 0.08389655 -0.78060263
H -0.8241384 -0.78515905 -1.7281935
H -0.37372375 0.89801097 -2.098118
H 0.60740113 1.1109098 0.1960798
H -1.3878988 0.78464 1.6739124
H -1.5669814 -0.86816746 1.0344578
H 2.4191282 0.3447082 0.6638306
