20
title
C -1.3723145 2.932224 -0.4083173
C -1.425842 1.4158225 -0.50226384
C -0.50560015 0.6884853 -1.524382
C -0.28002295 -0.4297538 -0.4702558
C 1.1131039 -1.0503443 -0.34423777
C 1.17139 -2.0778873 0.762414
O 1.9138718 -2.038641 1.709509
C -0.7693217 0.5638026 0.6209924
H -0.3436205 3.2805474 -0.26077142
H -1.7555244 3.4019258 -1.3212771
H -1.9719992 3.3007102 0.4315662
H -2.4619458 1.0895373 -0.64939857
H -0.92707145 0.40308675 -2.4918365
H 0.41457608 1.2577605 -1.6991651
H -1.0228837 -1.2244586 -0.60963005
H 1.3634186 -1.5619138 -1.2858285
H 1.8745766 -0.28697363 -0.15619856
H 0.43737307 -2.9116154 0.647074
H 0.07404844 1.0938123 1.0781405
H -1.4091147 0.17897162 1.4192084
