title
 OpenBabel02282109583D

 20 20  0  0  1  0  0  0  0  0999 V2000
   -1.3723    2.9322   -0.4083 C   0  0  0  0  0  0  0  0  0  0  0  0
   -1.4258    1.4158   -0.5023 C   0  0  1  0  0  0  0  0  0  0  0  0
   -0.5056    0.6885   -1.5244 C   0  0  0  0  0  0  0  0  0  0  0  0
   -0.2800   -0.4298   -0.4703 C   0  0  1  0  0  0  0  0  0  0  0  0
    1.1131   -1.0503   -0.3442 C   0  0  0  0  0  0  0  0  0  0  0  0
    1.1714   -2.0779    0.7624 C   0  0  0  0  0  0  0  0  0  0  0  0
    1.9139   -2.0386    1.7095 O   0  0  0  0  0  0  0  0  0  0  0  0
   -0.7693    0.5638    0.6210 C   0  0  0  0  0  0  0  0  0  0  0  0
   -0.3436    3.2805   -0.2608 H   0  0  0  0  0  0  0  0  0  0  0  0
   -1.7555    3.4019   -1.3213 H   0  0  0  0  0  0  0  0  0  0  0  0
   -1.9720    3.3007    0.4316 H   0  0  0  0  0  0  0  0  0  0  0  0
   -2.4619    1.0895   -0.6494 H   0  0  0  0  0  0  0  0  0  0  0  0
   -0.9271    0.4031   -2.4918 H   0  0  0  0  0  0  0  0  0  0  0  0
    0.4146    1.2578   -1.6992 H   0  0  0  0  0  0  0  0  0  0  0  0
   -1.0229   -1.2245   -0.6096 H   0  0  0  0  0  0  0  0  0  0  0  0
    1.3634   -1.5619   -1.2858 H   0  0  0  0  0  0  0  0  0  0  0  0
    1.8746   -0.2870   -0.1562 H   0  0  0  0  0  0  0  0  0  0  0  0
    0.4374   -2.9116    0.6471 H   0  0  0  0  0  0  0  0  0  0  0  0
    0.0740    1.0938    1.0781 H   0  0  0  0  0  0  0  0  0  0  0  0
   -1.4091    0.1790    1.4192 H   0  0  0  0  0  0  0  0  0  0  0  0
  1  9  1  0  0  0  0
  1 11  1  0  0  0  0
  2 12  1  6  0  0  0
  2  1  1  0  0  0  0
  2  8  1  0  0  0  0
  3  2  1  0  0  0  0
  3  4  1  0  0  0  0
  4 15  1  6  0  0  0
  4  5  1  0  0  0  0
  4  8  1  0  0  0  0
  5 17  1  0  0  0  0
  5  6  1  0  0  0  0
  6  7  2  0  0  0  0
  8 19  1  0  0  0  0
  8 20  1  0  0  0  0
 10  1  1  0  0  0  0
 13  3  1  0  0  0  0
 14  3  1  0  0  0  0
 16  5  1  0  0  0  0
 18  6  1  0  0  0  0
M  END
