18
title
C 0.15088144 2.83111 -1.5389516
N 0.23193073 1.4002042 -1.3593346
C -0.9379687 0.68504673 -0.82055235
C 0.0410679 -0.25363967 -0.069018714
C 1.0904312 0.8668613 -0.28746378
N -0.27510348 -0.6606602 1.2730304
C -0.26861563 -1.9590745 1.689087
O -0.0014511201 -2.9171462 0.99728334
H 1.1205181 3.2202778 -1.866899
H -0.5846654 3.0674362 -2.3150425
H -0.1400321 3.369702 -0.6157292
H -1.5312924 1.2910964 -0.11116504
H -1.6121345 0.2514111 -1.5661165
H 0.26968628 -1.1575987 -0.6306914
H 2.1040888 0.58452564 -0.5894386
H 1.1517476 1.5316063 0.5939671
H -0.5157905 0.048850447 1.9479486
H -0.5423373 -2.0435064 2.759729
