18
title
C 0.36072043 2.738648 -1.6388739
N 0.40430242 1.2975003 -1.5283766
C -0.82817763 0.5832661 -1.1384321
C 0.050395787 -0.39673606 -0.3376052
C 1.1407378 0.6987081 -0.39772198
O -0.45012504 -0.73612714 0.9382459
C -0.16051543 -1.9583043 1.4281961
N -0.5099628 -2.268187 2.5997775
H 1.3643371 3.124648 -1.8463426
H -0.28771085 3.0268397 -2.4730213
H -0.015804889 3.2331822 -0.7234717
H -1.4740685 1.1550357 -0.4526411
H -1.4291359 0.19520149 -1.9669175
H 0.3156493 -1.2961551 -0.90197366
H 2.1737359 0.4060575 -0.61325395
H 1.1145128 1.3066505 0.5212437
H 0.37299123 -2.5994353 0.71210253
H -0.23231393 -3.2262304 2.801884
