17
title
C 0.30522212 2.8055854 -1.5946867
N 0.38583145 1.3640022 -1.5092578
C -0.80956036 0.6151844 -1.0728397
C 0.1330954 -0.35270733 -0.3286573
C 1.1911465 0.7654238 -0.42604986
O -0.2640383 -0.7137062 0.98378384
C -0.27600893 -2.0193062 1.3202571
O -0.5976403 -2.4033256 2.403033
H 1.2883079 3.2165184 -1.8469044
H -0.39114484 3.090449 -2.3902147
H -0.03465486 3.2774518 -0.6535615
H -1.4377366 1.1615896 -0.35074916
H -1.4376705 0.22210972 -1.8786422
H 0.38800767 -1.2434831 -0.91030806
H 2.2171078 0.4966002 -0.6971235
H 1.2001582 1.3596663 0.5020515
H 0.04188728 -2.6784317 0.48867378
