title
 OpenBabel02282109583D

 17 17  0  0  1  0  0  0  0  0999 V2000
    1.6303    1.9086   -1.4898 O   0  0  0  0  0  0  0  0  0  0  0  0
    1.4776    0.5107   -1.3688 C   0  0  1  0  0  0  0  0  0  0  0  0
    1.5020   -0.0409    0.0876 C   0  0  0  0  0  0  0  0  0  0  0  0
   -0.0515   -0.1159    0.0471 C   0  0  1  0  0  0  0  0  0  0  0  0
    0.0183   -0.0166   -1.5040 C   0  0  0  0  0  0  0  0  0  0  0  0
   -0.7126   -1.2477    0.6463 N   0  0  0  0  0  0  0  0  0  0  0  0
   -1.7063   -1.1372    1.5717 C   0  0  0  0  0  0  0  0  0  0  0  0
   -2.1518   -0.0945    2.0009 O   0  0  0  0  0  0  0  0  0  0  0  0
    1.0046    2.3434   -0.9006 H   0  0  0  0  0  0  0  0  0  0  0  0
    2.2088    0.0829   -2.0570 H   0  0  0  0  0  0  0  0  0  0  0  0
    1.9530   -1.0374    0.1378 H   0  0  0  0  0  0  0  0  0  0  0  0
    1.9656    0.5945    0.8463 H   0  0  0  0  0  0  0  0  0  0  0  0
   -0.5171    0.7639    0.4945 H   0  0  0  0  0  0  0  0  0  0  0  0
   -0.6963    0.6382   -2.0090 H   0  0  0  0  0  0  0  0  0  0  0  0
   -0.0154   -1.0051   -1.9737 H   0  0  0  0  0  0  0  0  0  0  0  0
   -0.4286   -2.1747    0.3683 H   0  0  0  0  0  0  0  0  0  0  0  0
   -2.0728   -2.1307    1.8983 H   0  0  0  0  0  0  0  0  0  0  0  0
  1  2  1  0  0  0  0
  1  9  1  0  0  0  0
  2 10  1  6  0  0  0
  2  3  1  0  0  0  0
  3 11  1  0  0  0  0
  3 12  1  0  0  0  0
  4  3  1  0  0  0  0
  4 13  1  1  0  0  0
  4  6  1  0  0  0  0
  5  2  1  0  0  0  0
  5  4  1  0  0  0  0
  6  7  1  0  0  0  0
  7 17  1  0  0  0  0
  7  8  2  0  0  0  0
 14  5  1  0  0  0  0
 15  5  1  0  0  0  0
 16  6  1  0  0  0  0
M  END
