17
title
O 1.6303403 1.9086245 -1.4897958
C 1.4776226 0.5107122 -1.3688332
C 1.5019892 -0.040931564 0.08760457
C -0.051504463 -0.11586963 0.047147434
C 0.018259197 -0.016591651 -1.5039878
N -0.71256196 -1.2476611 0.64631563
C -1.7062663 -1.1372467 1.5716727
O -2.1518147 -0.09449123 2.0009081
H 1.0045904 2.3434136 -0.90057254
H 2.2088327 0.082905814 -2.0569937
H 1.9530135 -1.0374238 0.13778333
H 1.9655522 0.59454423 0.8462942
H -0.5170629 0.76385987 0.49451688
H -0.6962737 0.6382294 -2.008957
H -0.015378804 -1.0051268 -1.9736695
H -0.4286444 -2.1747139 0.36826316
H -2.0727634 -2.1306894 1.8982522
