title
 OpenBabel02282109583D

 17 17  0  0  1  0  0  0  0  0999 V2000
    1.8211    1.2121   -2.2093 O   0  0  0  0  0  0  0  0  0  0  0  0
    1.1059    0.5110   -1.2305 C   0  0  1  0  0  0  0  0  0  0  0  0
    1.4114    0.7386    0.2785 C   0  0  0  0  0  0  0  0  0  0  0  0
   -0.0991    0.5885    0.5596 C   0  0  1  0  0  0  0  0  0  0  0  0
   -0.3815    0.8683   -0.9412 C   0  0  0  0  0  0  0  0  0  0  0  0
   -0.3632   -0.7664    0.9261 O   0  0  0  0  0  0  0  0  0  0  0  0
   -1.6249   -1.0519    1.3013 C   0  0  0  0  0  0  0  0  0  0  0  0
   -1.9677   -2.2482    1.5125 N   0  0  0  0  0  0  0  0  0  0  0  0
    1.7592    2.1534   -2.0143 H   0  0  0  0  0  0  0  0  0  0  0  0
    1.2059   -0.5458   -1.4877 H   0  0  0  0  0  0  0  0  0  0  0  0
    2.0757    0.0412    0.7908 H   0  0  0  0  0  0  0  0  0  0  0  0
    1.7437    1.7651    0.4648 H   0  0  0  0  0  0  0  0  0  0  0  0
   -0.5499    1.2644    1.2934 H   0  0  0  0  0  0  0  0  0  0  0  0
   -0.5700    1.9344   -1.1099 H   0  0  0  0  0  0  0  0  0  0  0  0
   -1.1656    0.2828   -1.4259 H   0  0  0  0  0  0  0  0  0  0  0  0
   -2.2628   -0.1626    1.4069 H   0  0  0  0  0  0  0  0  0  0  0  0
   -2.9391   -2.2814    1.8150 H   0  0  0  0  0  0  0  0  0  0  0  0
  1  9  1  0  0  0  0
  1  2  1  0  0  0  0
  2 10  1  6  0  0  0
  2  5  1  0  0  0  0
  2  3  1  0  0  0  0
  3 12  1  0  0  0  0
  3  4  1  0  0  0  0
  3 11  1  0  0  0  0
  4  6  1  0  0  0  0
  4 13  1  1  0  0  0
  5  4  1  0  0  0  0
  6  7  1  0  0  0  0
  7 16  1  0  0  0  0
  7  8  2  0  0  0  0
  8 17  1  0  0  0  0
 14  5  1  0  0  0  0
 15  5  1  0  0  0  0
M  END
