17
title
O 1.8211313 1.2121427 -2.2092757
C 1.1058822 0.5110403 -1.2305017
C 1.4113721 0.73859143 0.27848542
C -0.09911157 0.5884731 0.55959237
C -0.3815372 0.86826414 -0.9411966
O -0.36320043 -0.76642513 0.9261339
C -1.6249225 -1.0518879 1.3013306
N -1.9677095 -2.2481658 1.5125215
H 1.7592279 2.1534283 -2.0143015
H 1.2058773 -0.5458205 -1.4876511
H 2.0757496 0.04116427 0.7907841
H 1.743675 1.7651422 0.46475136
H -0.54992664 1.2643895 1.2933841
H -0.5700182 1.9344319 -1.1099246
H -1.1655607 0.28275907 -1.4258966
H -2.26277 -0.16264391 1.4068892
H -2.9390838 -2.2814107 1.8150303
