title
 OpenBabel02282109583D

 16 16  0  0  1  0  0  0  0  0999 V2000
    2.0331    1.3964   -2.0299 O   0  0  0  0  0  0  0  0  0  0  0  0
    1.1952    0.6140   -1.2274 C   0  0  1  0  0  0  0  0  0  0  0  0
    1.2846    0.7078    0.3246 C   0  0  0  0  0  0  0  0  0  0  0  0
   -0.2541    0.5490    0.3736 C   0  0  1  0  0  0  0  0  0  0  0  0
   -0.3225    0.9465   -1.1205 C   0  0  0  0  0  0  0  0  0  0  0  0
   -0.6141   -0.8264    0.5468 O   0  0  0  0  0  0  0  0  0  0  0  0
   -1.5149   -1.1421    1.4950 C   0  0  0  0  0  0  0  0  0  0  0  0
   -1.8694   -2.2628    1.7039 O   0  0  0  0  0  0  0  0  0  0  0  0
    1.9339    2.3178   -1.7668 H   0  0  0  0  0  0  0  0  0  0  0  0
    1.3413   -0.4165   -1.5601 H   0  0  0  0  0  0  0  0  0  0  0  0
    1.8770   -0.0347    0.8618 H   0  0  0  0  0  0  0  0  0  0  0  0
    1.5835    1.7121    0.6437 H   0  0  0  0  0  0  0  0  0  0  0  0
   -0.8063    1.1650    1.0895 H   0  0  0  0  0  0  0  0  0  0  0  0
   -0.5006    2.0217   -1.2304 H   0  0  0  0  0  0  0  0  0  0  0  0
   -1.0255    0.3965   -1.7482 H   0  0  0  0  0  0  0  0  0  0  0  0
   -1.8819   -0.2554    2.0487 H   0  0  0  0  0  0  0  0  0  0  0  0
  1  9  1  0  0  0  0
  1  2  1  0  0  0  0
  2 10  1  6  0  0  0
  2  5  1  0  0  0  0
  2  3  1  0  0  0  0
  3  4  1  0  0  0  0
  3 12  1  0  0  0  0
  3 11  1  0  0  0  0
  4  6  1  0  0  0  0
  4 13  1  1  0  0  0
  5  4  1  0  0  0  0
  6  7  1  0  0  0  0
  7  8  2  0  0  0  0
  7 16  1  0  0  0  0
 14  5  1  0  0  0  0
 15  5  1  0  0  0  0
M  END
