18
title
O 0.89071935 2.8643048 -1.0167556
C 1.082808 1.4710239 -0.97782123
C 1.4281052 0.791523 0.3779895
C 0.40298632 -0.32087716 0.01994886
C -0.46653822 -0.89521885 1.1421795
C -1.5170915 -1.8457263 0.614
O -1.6276538 -3.0010402 0.9364744
C -0.2265772 0.65972227 -1.0140136
H 1.7530036 3.2918117 -1.0267066
H 1.7731603 1.1405908 -1.7672395
H 2.462562 0.4983364 0.57349795
H 1.0637056 1.4129263 1.2023389
H 0.90872455 -1.1413729 -0.5005861
H 0.13997753 -1.4260111 1.8827589
H -0.9838107 -0.067633845 1.6491785
H -2.209434 -1.3959777 -0.13577382
H -1.029052 1.251984 -0.5621484
H -0.56716794 0.2684826 -1.9748056
