17
title
O 1.5090991 2.376927 -0.9369124
C 1.5478401 0.9740987 -1.0172802
C 1.6419578 0.23364401 0.34432116
N 0.17313172 0.062354926 0.3023167
C -0.41934404 -1.1362472 0.84489
C -1.9348922 -1.0245533 0.9094384
O -2.6932304 -1.9471319 0.76947594
C 0.1688285 0.27792203 -1.1636137
H 0.8427173 2.6127796 -0.28113082
H 2.3038814 0.72883004 -1.7631615
H 2.197799 -0.7144294 0.2660847
H 2.0217414 0.8071348 1.1969233
H -0.15163825 -2.0622659 0.3052185
H -0.0750619 -1.2526317 1.8837609
H -2.2920647 0.009497884 1.1185367
H -0.65596294 0.8866684 -1.5490224
H 0.2293544 -0.659076 -1.7406024
