title
 OpenBabel02282109583D

 20 20  0  0  0  0  0  0  0  0999 V2000
    1.3915    3.4624   -0.2683 C   0  0  0  0  0  0  0  0  0  0  0  0
    1.4295    1.9328   -0.3236 C   0  0  0  0  0  0  0  0  0  0  0  0
    0.0444    1.3031   -0.5111 C   0  0  0  0  0  0  0  0  0  0  0  0
    0.0665   -0.2200   -0.5601 C   0  0  0  0  0  0  0  0  0  0  0  0
    0.3962   -0.9836    0.7657 C   0  0  0  0  0  0  0  0  0  0  0  0
   -0.8413   -1.8581    0.5097 C   0  0  0  0  0  0  0  0  0  0  0  0
   -1.2419   -2.8850    0.9748 O   0  0  0  0  0  0  0  0  0  0  0  0
   -1.3106   -0.9546   -0.6414 C   0  0  0  0  0  0  0  0  0  0  0  0
    2.3933    3.8824   -0.1360 H   0  0  0  0  0  0  0  0  0  0  0  0
    0.9736    3.8814   -1.1904 H   0  0  0  0  0  0  0  0  0  0  0  0
    0.7708    3.8134    0.5637 H   0  0  0  0  0  0  0  0  0  0  0  0
    2.0850    1.6109   -1.1436 H   0  0  0  0  0  0  0  0  0  0  0  0
    1.8835    1.5435    0.5970 H   0  0  0  0  0  0  0  0  0  0  0  0
   -0.6179    1.6261    0.3056 H   0  0  0  0  0  0  0  0  0  0  0  0
   -0.4068    1.6871   -1.4365 H   0  0  0  0  0  0  0  0  0  0  0  0
    0.7267   -0.5569   -1.3659 H   0  0  0  0  0  0  0  0  0  0  0  0
    1.3501   -1.5109    0.8449 H   0  0  0  0  0  0  0  0  0  0  0  0
    0.2690   -0.3636    1.6616 H   0  0  0  0  0  0  0  0  0  0  0  0
   -2.1529   -0.3214   -0.3380 H   0  0  0  0  0  0  0  0  0  0  0  0
   -1.5773   -1.4606   -1.5729 H   0  0  0  0  0  0  0  0  0  0  0  0
  1  9  1  0  0  0  0
  1 11  1  0  0  0  0
  2  1  1  0  0  0  0
  2 13  1  0  0  0  0
  3  2  1  0  0  0  0
  3 14  1  0  0  0  0
  4  3  1  0  0  0  0
  4  5  1  0  0  0  0
  5 17  1  0  0  0  0
  5 18  1  0  0  0  0
  6  5  1  0  0  0  0
  6  7  2  0  0  0  0
  8  4  1  0  0  0  0
  8 19  1  0  0  0  0
  8  6  1  0  0  0  0
 10  1  1  0  0  0  0
 12  2  1  0  0  0  0
 15  3  1  0  0  0  0
 16  4  1  0  0  0  0
 20  8  1  0  0  0  0
M  END
