19
title
C -1.3170238 3.2127953 1.1642387
C -1.1979314 1.6868626 1.1313694
C -0.71486974 1.151168 -0.22143504
C -0.60408247 -0.36743706 -0.2693908
C 0.116216324 -0.99667495 -1.4999117
C 1.125296 -1.5766561 -0.47815654
O 2.0894995 -2.2917895 -0.5186569
N 0.46703127 -0.95420283 0.55627346
H -0.3520722 3.6890101 0.958921
H -2.0283031 3.5704212 0.41156724
H -1.6610343 3.5647976 2.1415186
H -0.5041723 1.3596972 1.917123
H -2.1696777 1.2362068 1.3736813
H -1.4082372 1.4706762 -1.0112578
H 0.26374367 1.5858303 -0.46387395
H -1.581228 -0.8255412 -0.068169914
H -0.44840607 -1.7544832 -2.045521
H 0.54556227 -0.27959543 -2.2025836
H 0.57958937 -1.0406759 1.5556678
