title
 OpenBabel02282109583D

 19 19  0  0  1  0  0  0  0  0999 V2000
   -1.3170    3.2128    1.1642 C   0  0  0  0  0  0  0  0  0  0  0  0
   -1.1979    1.6869    1.1314 C   0  0  0  0  0  0  0  0  0  0  0  0
   -0.7149    1.1512   -0.2214 C   0  0  0  0  0  0  0  0  0  0  0  0
   -0.6041   -0.3674   -0.2694 C   0  0  1  0  0  0  0  0  0  0  0  0
    0.1162   -0.9967   -1.4999 C   0  0  0  0  0  0  0  0  0  0  0  0
    1.1253   -1.5767   -0.4782 C   0  0  0  0  0  0  0  0  0  0  0  0
    2.0895   -2.2918   -0.5187 O   0  0  0  0  0  0  0  0  0  0  0  0
    0.4670   -0.9542    0.5563 N   0  0  0  0  0  0  0  0  0  0  0  0
   -0.3521    3.6890    0.9589 H   0  0  0  0  0  0  0  0  0  0  0  0
   -2.0283    3.5704    0.4116 H   0  0  0  0  0  0  0  0  0  0  0  0
   -1.6610    3.5648    2.1415 H   0  0  0  0  0  0  0  0  0  0  0  0
   -0.5042    1.3597    1.9171 H   0  0  0  0  0  0  0  0  0  0  0  0
   -2.1697    1.2362    1.3737 H   0  0  0  0  0  0  0  0  0  0  0  0
   -1.4082    1.4707   -1.0113 H   0  0  0  0  0  0  0  0  0  0  0  0
    0.2637    1.5858   -0.4639 H   0  0  0  0  0  0  0  0  0  0  0  0
   -1.5812   -0.8255   -0.0682 H   0  0  0  0  0  0  0  0  0  0  0  0
   -0.4484   -1.7545   -2.0455 H   0  0  0  0  0  0  0  0  0  0  0  0
    0.5456   -0.2796   -2.2026 H   0  0  0  0  0  0  0  0  0  0  0  0
    0.5796   -1.0407    1.5557 H   0  0  0  0  0  0  0  0  0  0  0  0
  1 11  1  0  0  0  0
  2  1  1  0  0  0  0
  2 13  1  0  0  0  0
  2 12  1  0  0  0  0
  3  2  1  0  0  0  0
  4  3  1  0  0  0  0
  4 16  1  1  0  0  0
  4  8  1  0  0  0  0
  5  6  1  0  0  0  0
  5  4  1  0  0  0  0
  6  8  1  0  0  0  0
  7  6  2  0  0  0  0
  8 19  1  0  0  0  0
  9  1  1  0  0  0  0
 10  1  1  0  0  0  0
 14  3  1  0  0  0  0
 15  3  1  0  0  0  0
 17  5  1  0  0  0  0
 18  5  1  0  0  0  0
M  END
