18
title
C -0.2895625 3.0042796 -1.9479204
C -0.37109518 1.4956691 -1.7029437
C 0.6320807 1.0090108 -0.6504046
C 0.53868383 -0.47815692 -0.37981084
C 1.2529484 -1.045638 0.86130774
C -0.16604553 -1.3641108 1.333871
O -0.69344383 -1.8628141 2.2745705
O -0.76395625 -0.85102737 0.21147642
H 0.70642847 3.2979648 -2.2979844
H -1.0149745 3.3225195 -2.7025104
H -0.49636608 3.5658112 -1.0302463
H -1.3813015 1.2236131 -1.3771124
H -0.19585848 0.95862305 -2.6444316
H 1.6580186 1.2303576 -0.97568333
H 0.47731772 1.5504732 0.29225263
H 0.68667257 -1.0641578 -1.2920575
H 1.8818747 -1.9239684 0.70836794
H 1.7806283 -0.31870806 1.4819995
