title
 OpenBabel02282109583D

 18 18  0  0  0  0  0  0  0  0999 V2000
   -1.4281    2.7892   -1.6336 C   0  0  0  0  0  0  0  0  0  0  0  0
   -1.0107    1.3296   -1.5834 C   0  0  0  0  0  0  0  0  0  0  0  0
   -0.8109    0.9660   -0.2277 O   0  0  0  0  0  0  0  0  0  0  0  0
   -0.4416   -0.3716   -0.0508 C   0  0  0  0  0  0  0  0  0  0  0  0
    1.0418   -0.7608   -0.3767 C   0  0  0  0  0  0  0  0  0  0  0  0
    1.1173   -1.3694    1.0330 C   0  0  0  0  0  0  0  0  0  0  0  0
    1.8791   -2.1173    1.5725 O   0  0  0  0  0  0  0  0  0  0  0  0
   -0.2214   -0.7356    1.4394 C   0  0  0  0  0  0  0  0  0  0  0  0
   -0.6524    3.4256   -1.1985 H   0  0  0  0  0  0  0  0  0  0  0  0
   -1.5942    3.1022   -2.6686 H   0  0  0  0  0  0  0  0  0  0  0  0
   -2.3529    2.9431   -1.0705 H   0  0  0  0  0  0  0  0  0  0  0  0
   -1.7859    0.6871   -2.0333 H   0  0  0  0  0  0  0  0  0  0  0  0
   -0.0855    1.1716   -2.1610 H   0  0  0  0  0  0  0  0  0  0  0  0
   -1.1549   -1.0446   -0.5485 H   0  0  0  0  0  0  0  0  0  0  0  0
    1.2498   -1.4322   -1.2129 H   0  0  0  0  0  0  0  0  0  0  0  0
    1.6759    0.1292   -0.4589 H   0  0  0  0  0  0  0  0  0  0  0  0
   -0.0719    0.1696    2.0378 H   0  0  0  0  0  0  0  0  0  0  0  0
   -0.9484   -1.3801    1.9375 H   0  0  0  0  0  0  0  0  0  0  0  0
  1  2  1  0  0  0  0
  1  9  1  0  0  0  0
  1 11  1  0  0  0  0
  2  3  1  0  0  0  0
  3  4  1  0  0  0  0
  4  8  1  0  0  0  0
  5  4  1  0  0  0  0
  5  6  1  0  0  0  0
  6  8  1  0  0  0  0
  6  7  2  0  0  0  0
  8 18  1  0  0  0  0
  8 17  1  0  0  0  0
 10  1  1  0  0  0  0
 12  2  1  0  0  0  0
 13  2  1  0  0  0  0
 14  4  1  0  0  0  0
 15  5  1  0  0  0  0
 16  5  1  0  0  0  0
M  END
