title
 OpenBabel02282109583D

 17 17  0  0  1  0  0  0  0  0999 V2000
   -0.8257    2.2597    1.3041 C   0  0  0  0  0  0  0  0  0  0  0  0
   -1.7148    1.6438    0.3882 O   0  0  0  0  0  0  0  0  0  0  0  0
   -1.0890    0.8907   -0.6214 C   0  0  0  0  0  0  0  0  0  0  0  0
   -0.6267   -0.4852   -0.1743 C   0  0  1  0  0  0  0  0  0  0  0  0
    0.0934   -1.3566   -1.2248 C   0  0  0  0  0  0  0  0  0  0  0  0
    1.2736   -1.2467   -0.2824 C   0  0  0  0  0  0  0  0  0  0  0  0
    2.4446   -1.6912   -0.2765 N   0  0  0  0  0  0  0  0  0  0  0  0
    0.6069   -0.4531    0.6310 O   0  0  0  0  0  0  0  0  0  0  0  0
   -0.2705    1.5294    1.9041 H   0  0  0  0  0  0  0  0  0  0  0  0
   -0.1001    2.9030    0.7833 H   0  0  0  0  0  0  0  0  0  0  0  0
   -1.4371    2.8799    1.9638 H   0  0  0  0  0  0  0  0  0  0  0  0
   -1.8400    0.7489   -1.4088 H   0  0  0  0  0  0  0  0  0  0  0  0
   -0.2353    1.4344   -1.0597 H   0  0  0  0  0  0  0  0  0  0  0  0
   -1.4161   -0.9868    0.3923 H   0  0  0  0  0  0  0  0  0  0  0  0
   -0.2943   -2.3658   -1.3672 H   0  0  0  0  0  0  0  0  0  0  0  0
    0.2489   -0.8857   -2.1984 H   0  0  0  0  0  0  0  0  0  0  0  0
    2.9517   -1.3928    0.5584 H   0  0  0  0  0  0  0  0  0  0  0  0
  1  9  1  0  0  0  0
  1 11  1  0  0  0  0
  2  1  1  0  0  0  0
  3  4  1  0  0  0  0
  3  2  1  0  0  0  0
  4 14  1  1  0  0  0
  4  8  1  0  0  0  0
  5  6  1  0  0  0  0
  5  4  1  0  0  0  0
  6  7  2  0  0  0  0
  6  8  1  0  0  0  0
  7 17  1  0  0  0  0
 10  1  1  0  0  0  0
 12  3  1  0  0  0  0
 13  3  1  0  0  0  0
 15  5  1  0  0  0  0
 16  5  1  0  0  0  0
M  END
