17
title
C -0.82566077 2.2597117 1.3040756
O -1.7147965 1.6437868 0.3881734
C -1.0889689 0.89066243 -0.62137055
C -0.6267145 -0.48515415 -0.1743164
C 0.09340933 -1.3565575 -1.2248389
C 1.2736492 -1.2466902 -0.28243172
N 2.4445899 -1.6912454 -0.276464
O 0.6069135 -0.45310867 0.6309963
H -0.27053902 1.5293806 1.9041032
H -0.10005841 2.9029696 0.78326356
H -1.4370903 2.8798697 1.9637644
H -1.8400346 0.7488927 -1.4088353
H -0.23532578 1.4344078 -1.0596633
H -1.416119 -0.9867667 0.392344
H -0.29433027 -2.365816 -1.3672143
H 0.24893978 -0.8857461 -2.198446
H 2.9516964 -1.39284 0.5584483
