title
 OpenBabel02282109583D

 17 17  0  0  1  0  0  0  0  0999 V2000
    1.9144    2.7212    0.9232 O   0  0  0  0  0  0  0  0  0  0  0  0
    1.6873    1.3671    0.5705 C   0  0  0  0  0  0  0  0  0  0  0  0
    0.2666    0.9032    0.9087 C   0  0  0  0  0  0  0  0  0  0  0  0
    0.0301   -0.5569    0.5844 C   0  0  1  0  0  0  0  0  0  0  0  0
   -1.4204   -1.0867    0.5862 C   0  0  0  0  0  0  0  0  0  0  0  0
   -1.1784   -1.3082   -0.8918 C   0  0  0  0  0  0  0  0  0  0  0  0
   -1.8574   -1.7651   -1.8407 N   0  0  0  0  0  0  0  0  0  0  0  0
    0.1140   -0.8227   -0.8640 O   0  0  0  0  0  0  0  0  0  0  0  0
    1.3879    3.2724    0.3357 H   0  0  0  0  0  0  0  0  0  0  0  0
    1.8922    1.1828   -0.4938 H   0  0  0  0  0  0  0  0  0  0  0  0
    2.4152    0.7844    1.1464 H   0  0  0  0  0  0  0  0  0  0  0  0
    0.0816    1.0646    1.9778 H   0  0  0  0  0  0  0  0  0  0  0  0
   -0.4623    1.5132    0.3580 H   0  0  0  0  0  0  0  0  0  0  0  0
    0.7451   -1.2036    1.1041 H   0  0  0  0  0  0  0  0  0  0  0  0
   -1.6039   -1.9950    1.1618 H   0  0  0  0  0  0  0  0  0  0  0  0
   -2.1898   -0.3470    0.8164 H   0  0  0  0  0  0  0  0  0  0  0  0
   -1.3268   -1.7575   -2.7136 H   0  0  0  0  0  0  0  0  0  0  0  0
  2  3  1  0  0  0  0
  2  1  1  0  0  0  0
  2 11  1  0  0  0  0
  3 12  1  0  0  0  0
  4  5  1  0  0  0  0
  4  3  1  0  0  0  0
  4 14  1  1  0  0  0
  5 16  1  0  0  0  0
  5 15  1  0  0  0  0
  6  8  1  0  0  0  0
  6  5  1  0  0  0  0
  7  6  2  0  0  0  0
  8  4  1  0  0  0  0
  9  1  1  0  0  0  0
 10  2  1  0  0  0  0
 13  3  1  0  0  0  0
 17  7  1  0  0  0  0
M  END
