title
 OpenBabel02282109583D

 17 17  0  0  1  0  0  0  0  0999 V2000
    1.4800    3.0805    0.6011 O   0  0  0  0  0  0  0  0  0  0  0  0
    1.5411    1.6711    0.4639 C   0  0  0  0  0  0  0  0  0  0  0  0
    0.1430    1.1192    0.7153 C   0  0  0  0  0  0  0  0  0  0  0  0
    0.0730   -0.3992    0.6299 C   0  0  1  0  0  0  0  0  0  0  0  0
   -1.3446   -1.0460    0.6434 C   0  0  0  0  0  0  0  0  0  0  0  0
   -0.9812   -1.6167   -0.7496 C   0  0  0  0  0  0  0  0  0  0  0  0
   -1.5015   -2.3381   -1.5561 O   0  0  0  0  0  0  0  0  0  0  0  0
    0.2352   -0.9747   -0.7180 N   0  0  0  0  0  0  0  0  0  0  0  0
    2.3545    3.4406    0.4272 H   0  0  0  0  0  0  0  0  0  0  0  0
    1.8780    1.3832   -0.5459 H   0  0  0  0  0  0  0  0  0  0  0  0
    2.2505    1.2281    1.1831 H   0  0  0  0  0  0  0  0  0  0  0  0
   -0.1818    1.4367    1.7134 H   0  0  0  0  0  0  0  0  0  0  0  0
   -0.5499    1.5616   -0.0094 H   0  0  0  0  0  0  0  0  0  0  0  0
    0.7531   -0.8558    1.3607 H   0  0  0  0  0  0  0  0  0  0  0  0
   -1.5115   -1.8080    1.4064 H   0  0  0  0  0  0  0  0  0  0  0  0
   -2.1763   -0.3388    0.6394 H   0  0  0  0  0  0  0  0  0  0  0  0
    1.0348   -1.0509   -1.3296 H   0  0  0  0  0  0  0  0  0  0  0  0
  2  1  1  0  0  0  0
  2  3  1  0  0  0  0
  2 11  1  0  0  0  0
  3 12  1  0  0  0  0
  4  5  1  0  0  0  0
  4  3  1  0  0  0  0
  4 14  1  1  0  0  0
  5 15  1  0  0  0  0
  6  8  1  0  0  0  0
  6  5  1  0  0  0  0
  7  6  2  0  0  0  0
  8  4  1  0  0  0  0
  9  1  1  0  0  0  0
 10  2  1  0  0  0  0
 13  3  1  0  0  0  0
 16  5  1  0  0  0  0
 17  8  1  0  0  0  0
M  END
