title
 OpenBabel02282109583D

 16 16  0  0  1  0  0  0  0  0999 V2000
    1.8819    2.7709    0.8769 O   0  0  0  0  0  0  0  0  0  0  0  0
    1.6719    1.4029    0.5726 C   0  0  0  0  0  0  0  0  0  0  0  0
    0.2426    0.9475    0.8884 C   0  0  0  0  0  0  0  0  0  0  0  0
    0.0203   -0.5261    0.6207 C   0  0  1  0  0  0  0  0  0  0  0  0
   -1.4241   -1.0599    0.6017 C   0  0  0  0  0  0  0  0  0  0  0  0
   -1.1341   -1.3326   -0.8748 C   0  0  0  0  0  0  0  0  0  0  0  0
   -1.6976   -1.7833   -1.8181 O   0  0  0  0  0  0  0  0  0  0  0  0
    0.1495   -0.8496   -0.8159 O   0  0  0  0  0  0  0  0  0  0  0  0
    1.3944    3.2963    0.2348 H   0  0  0  0  0  0  0  0  0  0  0  0
    1.9090    1.1760   -0.4764 H   0  0  0  0  0  0  0  0  0  0  0  0
    2.3834    0.8469    1.1935 H   0  0  0  0  0  0  0  0  0  0  0  0
    0.0260    1.1541    1.9435 H   0  0  0  0  0  0  0  0  0  0  0  0
   -0.4714    1.5304    0.2909 H   0  0  0  0  0  0  0  0  0  0  0  0
    0.7220   -1.1499    1.1827 H   0  0  0  0  0  0  0  0  0  0  0  0
   -1.6243   -1.9549    1.1925 H   0  0  0  0  0  0  0  0  0  0  0  0
   -2.2087   -0.3209    0.7760 H   0  0  0  0  0  0  0  0  0  0  0  0
  2  1  1  0  0  0  0
  2  3  1  0  0  0  0
  2 11  1  0  0  0  0
  3 12  1  0  0  0  0
  4  3  1  0  0  0  0
  4 14  1  1  0  0  0
  5  4  1  0  0  0  0
  5 16  1  0  0  0  0
  5 15  1  0  0  0  0
  6  8  1  0  0  0  0
  6  5  1  0  0  0  0
  7  6  2  0  0  0  0
  8  4  1  0  0  0  0
  9  1  1  0  0  0  0
 10  2  1  0  0  0  0
 13  3  1  0  0  0  0
M  END
