22
title
C -1.706749 2.910801 -0.4949177
C -1.6287425 1.3935143 -0.5568288
C -0.5797995 0.723671 -1.4889172
C -0.34496602 -0.35638663 -0.39681432
C 1.0701641 -0.8650726 -0.1602133
C 1.169573 -1.8351508 1.0104319
O 2.5269768 -2.233364 1.1391858
C -0.99323887 0.6171077 0.63073945
H -0.7231567 3.3460748 -0.28359252
H -2.0597465 3.3315365 -1.4434209
H -2.3936193 3.2435732 0.29172546
H -2.621694 0.98071903 -0.770821
H -0.9040115 0.39331284 -2.4794734
H 0.30457988 1.3607864 -1.6075011
H -1.0187472 -1.204791 -0.57146704
H 1.4455584 -1.3679625 -1.0606546
H 1.7444156 -0.020186407 0.029894102
H 0.8098113 -1.3464812 1.930592
H 0.51533765 -2.7041814 0.8283185
H 2.5941842 -2.8341024 1.886896
H -0.2289705 1.222891 1.1326219
H -1.6612087 0.20328964 1.3911155
