title
 OpenBabel02282109583D

 20 20  0  0  1  0  0  0  0  0999 V2000
   -1.2035    2.7498    0.1405 C   0  0  0  0  0  0  0  0  0  0  0  0
   -1.6213    1.3169   -0.1147 C   0  0  1  0  0  0  0  0  0  0  0  0
   -1.1237    0.6064   -1.3934 C   0  0  0  0  0  0  0  0  0  0  0  0
   -0.5743   -0.4574   -0.4207 C   0  0  1  0  0  0  0  0  0  0  0  0
    0.9003   -0.8074   -0.4783 C   0  0  0  0  0  0  0  0  0  0  0  0
    1.3493   -1.6366    0.7185 C   0  0  0  0  0  0  0  0  0  0  0  0
    2.7344   -1.9114    0.5623 O   0  0  0  0  0  0  0  0  0  0  0  0
   -0.9104    0.3704    0.7223 O   0  0  0  0  0  0  0  0  0  0  0  0
   -0.1280    2.8749   -0.0187 H   0  0  0  0  0  0  0  0  0  0  0  0
   -1.7391    3.4295   -0.5316 H   0  0  0  0  0  0  0  0  0  0  0  0
   -1.4336    3.0380    1.1713 H   0  0  0  0  0  0  0  0  0  0  0  0
   -2.7062    1.2094    0.0325 H   0  0  0  0  0  0  0  0  0  0  0  0
   -1.8831    0.2803   -2.1055 H   0  0  0  0  0  0  0  0  0  0  0  0
   -0.3419    1.1577   -1.9228 H   0  0  0  0  0  0  0  0  0  0  0  0
   -1.1800   -1.3769   -0.4097 H   0  0  0  0  0  0  0  0  0  0  0  0
    1.1020   -1.3668   -1.4009 H   0  0  0  0  0  0  0  0  0  0  0  0
    1.4960    0.1117   -0.5162 H   0  0  0  0  0  0  0  0  0  0  0  0
    1.1495   -1.0738    1.6417 H   0  0  0  0  0  0  0  0  0  0  0  0
    0.7617   -2.5689    0.7665 H   0  0  0  0  0  0  0  0  0  0  0  0
    3.0387   -2.3677    1.3520 H   0  0  0  0  0  0  0  0  0  0  0  0
  1 11  1  0  0  0  0
  2 12  1  1  0  0  0
  2  1  1  0  0  0  0
  2  8  1  0  0  0  0
  3  4  1  0  0  0  0
  3  2  1  0  0  0  0
  4 15  1  6  0  0  0
  4  8  1  0  0  0  0
  5  4  1  0  0  0  0
  5  6  1  0  0  0  0
  6 19  1  0  0  0  0
  6 18  1  0  0  0  0
  7  6  1  0  0  0  0
  7 20  1  0  0  0  0
  9  1  1  0  0  0  0
 10  1  1  0  0  0  0
 13  3  1  0  0  0  0
 14  3  1  0  0  0  0
 16  5  1  0  0  0  0
 17  5  1  0  0  0  0
M  END
