24
title
C -0.39913583 3.2953076 1.7598343
C -0.43591756 1.770394 1.6282198
C 0.4749376 1.2368785 0.5157778
C 0.4369447 -0.27865633 0.3713609
C -0.8545498 -0.96308297 -0.16349603
C 0.040503033 -1.9557817 -0.9575913
C -0.38538873 -2.3857574 -2.3526464
C 1.2131355 -0.9475326 -0.79732656
H 0.6136225 3.6491356 1.9836236
H -0.7185808 3.78057 0.8306475
H -1.058157 3.645115 2.5608397
H -0.14488277 1.3124766 2.5830986
H -1.4667565 1.4438764 1.438659
H 0.18783824 1.6971027 -0.4408288
H 1.5089967 1.5578123 0.7076806
H 0.73034793 -0.7440075 1.3208857
H -1.5636296 -1.3752568 0.5593865
H -1.3998582 -0.29599234 -0.84246373
H 0.23563348 -2.8414626 -0.3414533
H -0.58416873 -1.5148458 -2.9880314
H 0.39231244 -2.9835505 -2.8417602
H -1.2989793 -2.9906173 -2.3225975
H 1.2758263 -0.27655157 -1.6625271
H 2.2117221 -1.3442781 -0.59440064
