title
 OpenBabel02282109583D

 24 24  0  0  1  0  0  0  0  0999 V2000
   -0.3991    3.2953    1.7598 C   0  0  0  0  0  0  0  0  0  0  0  0
   -0.4359    1.7704    1.6282 C   0  0  0  0  0  0  0  0  0  0  0  0
    0.4749    1.2369    0.5158 C   0  0  0  0  0  0  0  0  0  0  0  0
    0.4369   -0.2787    0.3714 C   0  0  1  0  0  0  0  0  0  0  0  0
   -0.8545   -0.9631   -0.1635 C   0  0  0  0  0  0  0  0  0  0  0  0
    0.0405   -1.9558   -0.9576 C   0  0  1  0  0  0  0  0  0  0  0  0
   -0.3854   -2.3858   -2.3526 C   0  0  0  0  0  0  0  0  0  0  0  0
    1.2131   -0.9475   -0.7973 C   0  0  0  0  0  0  0  0  0  0  0  0
    0.6136    3.6491    1.9836 H   0  0  0  0  0  0  0  0  0  0  0  0
   -0.7186    3.7806    0.8306 H   0  0  0  0  0  0  0  0  0  0  0  0
   -1.0582    3.6451    2.5608 H   0  0  0  0  0  0  0  0  0  0  0  0
   -0.1449    1.3125    2.5831 H   0  0  0  0  0  0  0  0  0  0  0  0
   -1.4668    1.4439    1.4387 H   0  0  0  0  0  0  0  0  0  0  0  0
    0.1878    1.6971   -0.4408 H   0  0  0  0  0  0  0  0  0  0  0  0
    1.5090    1.5578    0.7077 H   0  0  0  0  0  0  0  0  0  0  0  0
    0.7303   -0.7440    1.3209 H   0  0  0  0  0  0  0  0  0  0  0  0
   -1.5636   -1.3753    0.5594 H   0  0  0  0  0  0  0  0  0  0  0  0
   -1.3999   -0.2960   -0.8425 H   0  0  0  0  0  0  0  0  0  0  0  0
    0.2356   -2.8415   -0.3415 H   0  0  0  0  0  0  0  0  0  0  0  0
   -0.5842   -1.5148   -2.9880 H   0  0  0  0  0  0  0  0  0  0  0  0
    0.3923   -2.9836   -2.8418 H   0  0  0  0  0  0  0  0  0  0  0  0
   -1.2990   -2.9906   -2.3226 H   0  0  0  0  0  0  0  0  0  0  0  0
    1.2758   -0.2766   -1.6625 H   0  0  0  0  0  0  0  0  0  0  0  0
    2.2117   -1.3443   -0.5944 H   0  0  0  0  0  0  0  0  0  0  0  0
  1  9  1  0  0  0  0
  1 11  1  0  0  0  0
  2  1  1  0  0  0  0
  2 12  1  0  0  0  0
  3 15  1  0  0  0  0
  3  2  1  0  0  0  0
  4  3  1  0  0  0  0
  4 16  1  1  0  0  0
  5  4  1  0  0  0  0
  5 17  1  0  0  0  0
  6  8  1  0  0  0  0
  6 19  1  1  0  0  0
  6  5  1  0  0  0  0
  7 22  1  0  0  0  0
  7  6  1  0  0  0  0
  8 24  1  0  0  0  0
  8  4  1  0  0  0  0
 10  1  1  0  0  0  0
 13  2  1  0  0  0  0
 14  3  1  0  0  0  0
 18  5  1  0  0  0  0
 20  7  1  0  0  0  0
 21  7  1  0  0  0  0
 23  8  1  0  0  0  0
M  END
