title
 OpenBabel02282109583D

 22 22  0  0  1  0  0  0  0  0999 V2000
   -1.2530    3.4025   -1.1300 C   0  0  0  0  0  0  0  0  0  0  0  0
   -1.1541    1.8747   -1.1467 C   0  0  0  0  0  0  0  0  0  0  0  0
   -0.6588    1.2875    0.1805 C   0  0  0  0  0  0  0  0  0  0  0  0
   -0.5518   -0.2319    0.1736 C   0  0  1  0  0  0  0  0  0  0  0  0
    0.5479   -0.9124   -0.6949 C   0  0  0  0  0  0  0  0  0  0  0  0
    0.7278   -1.9509    0.4431 C   0  0  1  0  0  0  0  0  0  0  0  0
    1.9976   -2.4774    0.7325 O   0  0  0  0  0  0  0  0  0  0  0  0
    0.0507   -0.9496    1.4151 C   0  0  0  0  0  0  0  0  0  0  0  0
   -0.2783    3.8601   -0.9265 H   0  0  0  0  0  0  0  0  0  0  0  0
   -1.6091    3.7918   -2.0890 H   0  0  0  0  0  0  0  0  0  0  0  0
   -1.9457    3.7457   -0.3533 H   0  0  0  0  0  0  0  0  0  0  0  0
   -2.1364    1.4460   -1.3859 H   0  0  0  0  0  0  0  0  0  0  0  0
   -0.4818    1.5593   -1.9551 H   0  0  0  0  0  0  0  0  0  0  0  0
    0.3242    1.7164    0.4236 H   0  0  0  0  0  0  0  0  0  0  0  0
   -1.3339    1.5998    0.9900 H   0  0  0  0  0  0  0  0  0  0  0  0
   -1.5297   -0.6669   -0.0655 H   0  0  0  0  0  0  0  0  0  0  0  0
    0.2931   -1.2743   -1.6937 H   0  0  0  0  0  0  0  0  0  0  0  0
    1.4340   -0.2688   -0.7700 H   0  0  0  0  0  0  0  0  0  0  0  0
    0.0848   -2.8206    0.2760 H   0  0  0  0  0  0  0  0  0  0  0  0
    2.5948   -1.7382    0.8888 H   0  0  0  0  0  0  0  0  0  0  0  0
    0.8047   -0.3167    1.9003 H   0  0  0  0  0  0  0  0  0  0  0  0
   -0.6235   -1.3400    2.1813 H   0  0  0  0  0  0  0  0  0  0  0  0
  1  9  1  0  0  0  0
  1 11  1  0  0  0  0
  2  1  1  0  0  0  0
  2  3  1  0  0  0  0
  3 14  1  0  0  0  0
  3 15  1  0  0  0  0
  4 16  1  6  0  0  0
  4  3  1  0  0  0  0
  4  8  1  0  0  0  0
  5  4  1  0  0  0  0
  5  6  1  0  0  0  0
  6 19  1  6  0  0  0
  6  7  1  0  0  0  0
  6  8  1  0  0  0  0
  7 20  1  0  0  0  0
  8 21  1  0  0  0  0
  8 22  1  0  0  0  0
 10  1  1  0  0  0  0
 12  2  1  0  0  0  0
 13  2  1  0  0  0  0
 17  5  1  0  0  0  0
 18  5  1  0  0  0  0
M  END
