20
title
C -0.5407622 2.9534142 -0.9019537
C -0.6920163 1.4882622 -1.2734945
O -0.63930017 0.71313643 -0.08607115
C -0.763015 -0.6850933 -0.30435804
C 0.5863526 -1.3428315 -0.71890277
C 0.887311 -1.5461215 0.7976494
O 1.6685474 -0.5198828 1.3674328
C -0.6407886 -1.3946522 1.0623152
H 0.4250209 3.133405 -0.4205288
H -0.6012473 3.579975 -1.7967585
H -1.3307543 3.2576926 -0.20971705
H -1.653783 1.31349 -1.7825161
H 0.10298393 1.182501 -1.9710854
H -1.6464554 -0.89265716 -0.9230827
H 0.43302068 -2.2897863 -1.2448976
H 1.2989922 -0.72966135 -1.2761375
H 1.3558879 -2.4882748 1.0906916
H 1.2309175 0.311975 1.1431091
H -0.9325756 -0.81021583 1.9378226
H -1.161284 -2.3559408 1.067339
