21
title
C -0.7954979 2.9118862 1.718891
C -0.88807917 1.400835 1.5899233
O 0.16493748 0.95814884 0.7544317
C 0.19879763 -0.43311706 0.57733554
C -0.769628 -1.004568 -0.49905148
N 0.34330696 -0.9964072 -1.4657952
C 0.47771078 -2.1039248 -2.3803303
C 1.3334785 -0.8426325 -0.3832802
H 0.16802566 3.2012193 2.1479094
H -0.88899386 3.385999 0.7378556
H -1.5929058 3.2895813 2.3658757
H -0.80946624 0.9201881 2.5803063
H -1.8644794 1.1108109 1.1691672
H 0.17546384 -0.9447543 1.548882
H -1.1249456 -2.0160375 -0.23929779
H -1.6287339 -0.38548663 -0.78116244
H -0.37298644 -2.1229014 -3.0702083
H 1.3885481 -1.9863962 -2.977476
H 0.52721494 -3.088578 -1.8733405
H 2.1032012 -0.08484749 -0.56193537
H 1.8128736 -1.7884327 -0.08176915
