title
 OpenBabel02282109583D

 21 21  0  0  0  0  0  0  0  0999 V2000
   -0.7955    2.9119    1.7189 C   0  0  0  0  0  0  0  0  0  0  0  0
   -0.8881    1.4008    1.5899 C   0  0  0  0  0  0  0  0  0  0  0  0
    0.1649    0.9581    0.7544 O   0  0  0  0  0  0  0  0  0  0  0  0
    0.1988   -0.4331    0.5773 C   0  0  0  0  0  0  0  0  0  0  0  0
   -0.7696   -1.0046   -0.4991 C   0  0  0  0  0  0  0  0  0  0  0  0
    0.3433   -0.9964   -1.4658 N   0  0  0  0  0  0  0  0  0  0  0  0
    0.4777   -2.1039   -2.3803 C   0  0  0  0  0  0  0  0  0  0  0  0
    1.3335   -0.8426   -0.3833 C   0  0  0  0  0  0  0  0  0  0  0  0
    0.1680    3.2012    2.1479 H   0  0  0  0  0  0  0  0  0  0  0  0
   -0.8890    3.3860    0.7379 H   0  0  0  0  0  0  0  0  0  0  0  0
   -1.5929    3.2896    2.3659 H   0  0  0  0  0  0  0  0  0  0  0  0
   -0.8095    0.9202    2.5803 H   0  0  0  0  0  0  0  0  0  0  0  0
   -1.8645    1.1108    1.1692 H   0  0  0  0  0  0  0  0  0  0  0  0
    0.1755   -0.9448    1.5489 H   0  0  0  0  0  0  0  0  0  0  0  0
   -1.1249   -2.0160   -0.2393 H   0  0  0  0  0  0  0  0  0  0  0  0
   -1.6287   -0.3855   -0.7812 H   0  0  0  0  0  0  0  0  0  0  0  0
   -0.3730   -2.1229   -3.0702 H   0  0  0  0  0  0  0  0  0  0  0  0
    1.3885   -1.9864   -2.9775 H   0  0  0  0  0  0  0  0  0  0  0  0
    0.5272   -3.0886   -1.8733 H   0  0  0  0  0  0  0  0  0  0  0  0
    2.1032   -0.0848   -0.5619 H   0  0  0  0  0  0  0  0  0  0  0  0
    1.8129   -1.7884   -0.0818 H   0  0  0  0  0  0  0  0  0  0  0  0
  1  9  1  0  0  0  0
  1 11  1  0  0  0  0
  2  1  1  0  0  0  0
  2 12  1  0  0  0  0
  3  2  1  0  0  0  0
  4  3  1  0  0  0  0
  4 14  1  0  0  0  0
  5 15  1  0  0  0  0
  5  4  1  0  0  0  0
  6  5  1  0  0  0  0
  6  8  1  0  0  0  0
  7 19  1  0  0  0  0
  7  6  1  0  0  0  0
  8 21  1  0  0  0  0
  8  4  1  0  0  0  0
 10  1  1  0  0  0  0
 13  2  1  0  0  0  0
 16  5  1  0  0  0  0
 17  7  1  0  0  0  0
 18  7  1  0  0  0  0
 20  8  1  0  0  0  0
M  END
