title
 OpenBabel02282109583D

 20 20  0  0  1  0  0  0  0  0999 V2000
    1.3361    3.2438   -0.4133 C   0  0  0  0  0  0  0  0  0  0  0  0
    1.3270    1.8377   -0.4085 O   0  0  0  0  0  0  0  0  0  0  0  0
    0.0473    1.2934   -0.6537 C   0  0  0  0  0  0  0  0  0  0  0  0
    0.1436   -0.2156   -0.5916 C   0  0  1  0  0  0  0  0  0  0  0  0
    0.4036   -0.8872    0.7856 C   0  0  0  0  0  0  0  0  0  0  0  0
   -0.5979   -1.9893    0.3908 C   0  0  1  0  0  0  0  0  0  0  0  0
   -1.4329   -2.4129    1.4428 O   0  0  0  0  0  0  0  0  0  0  0  0
   -1.1729   -1.0353   -0.6955 C   0  0  0  0  0  0  0  0  0  0  0  0
    2.3612    3.5670   -0.2155 H   0  0  0  0  0  0  0  0  0  0  0  0
    1.0163    3.6532   -1.3853 H   0  0  0  0  0  0  0  0  0  0  0  0
    0.6763    3.6608    0.3646 H   0  0  0  0  0  0  0  0  0  0  0  0
   -0.6757    1.6584    0.0977 H   0  0  0  0  0  0  0  0  0  0  0  0
   -0.3257    1.6161   -1.6427 H   0  0  0  0  0  0  0  0  0  0  0  0
    0.8760   -0.5543   -1.3311 H   0  0  0  0  0  0  0  0  0  0  0  0
    1.4230   -1.1799    1.0417 H   0  0  0  0  0  0  0  0  0  0  0  0
   -0.0137   -0.2874    1.6006 H   0  0  0  0  0  0  0  0  0  0  0  0
   -0.0828   -2.8417   -0.0758 H   0  0  0  0  0  0  0  0  0  0  0  0
   -2.0047   -3.1137    1.1136 H   0  0  0  0  0  0  0  0  0  0  0  0
   -2.0214   -0.4791   -0.2829 H   0  0  0  0  0  0  0  0  0  0  0  0
   -1.4514   -1.4524   -1.6667 H   0  0  0  0  0  0  0  0  0  0  0  0
  1  2  1  0  0  0  0
  1  9  1  0  0  0  0
  1 11  1  0  0  0  0
  3  4  1  0  0  0  0
  3  2  1  0  0  0  0
  3 12  1  0  0  0  0
  4 14  1  6  0  0  0
  4  5  1  0  0  0  0
  5 15  1  0  0  0  0
  5 16  1  0  0  0  0
  6 17  1  6  0  0  0
  6  5  1  0  0  0  0
  6  7  1  0  0  0  0
  8  4  1  0  0  0  0
  8 19  1  0  0  0  0
  8  6  1  0  0  0  0
 10  1  1  0  0  0  0
 13  3  1  0  0  0  0
 18  7  1  0  0  0  0
 20  8  1  0  0  0  0
M  END
