20
title
O 1.5401055 3.1961699 -0.5298946
C 1.5883144 1.7804838 -0.42766044
C 0.17928532 1.2441374 -0.6483888
C 0.09927192 -0.27410904 -0.57107043
C 0.29645184 -0.9788951 0.80486786
C -0.81497866 -1.9695634 0.4108314
O -1.6756886 -2.3179383 1.4702162
C -1.2980403 -0.9514372 -0.6591148
H 2.4227598 3.5398002 -0.36470306
H 2.2710855 1.3499687 -1.179405
H 1.9562066 1.4652556 0.5622226
H -0.48594698 1.6916845 0.10058964
H -0.17362365 1.5902753 -1.6281631
H 0.77280647 -0.7181913 -1.3142292
H 1.2795297 -1.3806471 1.0604074
H -0.057014674 -0.3446242 1.624497
H -0.39156756 -2.8652196 -0.06738692
H -2.3337605 -2.9354935 1.1355424
H -2.0736895 -0.30813494 -0.23095405
H -1.6342183 -1.3283075 -1.6287613
