19
title
O 2.4084442 0.86216027 1.1050674
C 2.1652348 -0.5378115 1.1199963
C 0.6812038 -0.8908351 1.1897265
N -0.049793303 -0.48241222 0.004029141
C -0.4552129 0.935656 -0.15841462
C -1.7724546 0.4432528 -0.80909336
O -1.7728633 0.4140023 -2.2164795
C -1.4609038 -0.9098845 -0.1191652
H 2.2047255 1.1856999 0.22312008
H 2.615032 -1.0294424 0.24533825
H 2.6660645 -0.92272884 2.0151186
H 0.59244937 -1.981494 1.2794008
H 0.24843282 -0.44819495 2.1080008
H -0.61606914 1.455613 0.7986612
H 0.19258243 1.5497215 -0.7956897
H -2.6906776 0.9506927 -0.51253235
H -0.97440773 -0.049374238 -2.4948163
H -1.626726 -1.8192186 -0.7078395
H -1.9728633 -1.0084903 0.85214406
