15
title
N -0.18555622 2.5852091 1.3724004
C -0.18726788 1.4746193 0.79585016
C -1.2410558 0.4512614 0.432969
C -0.0533421 -0.32553715 -0.16053051
C 0.32922864 -1.7641004 0.21226671
O 0.27374673 -2.170102 -1.1710379
C 0.037572827 -0.8167085 -1.6114907
O 0.8518942 0.73963696 0.24804053
H 0.7556799 2.977968 1.425881
H -1.7389205 -0.018534355 1.2833045
H -1.9895786 0.79515666 -0.28333336
H 1.3368255 -1.8506223 0.63718635
H -0.38425693 -2.314586 0.83667254
H -0.87250704 -0.72858304 -2.2164412
H 0.88937867 -0.39715976 -2.1607642
