title
 OpenBabel02282109583D

 16 17  0  0  0  0  0  0  0  0999 V2000
    0.0834   -2.4188   -1.4384 O   0  0  0  0  0  0  0  0  0  0  0  0
   -0.0305   -1.3990   -0.8393 C   0  0  0  0  0  0  0  0  0  0  0  0
   -1.1497   -0.4624   -0.3870 C   0  0  0  0  0  0  0  0  0  0  0  0
    0.0062    0.3577    0.2146 C   0  0  0  0  0  0  0  0  0  0  0  0
    0.2240    1.8360   -0.1508 C   0  0  0  0  0  0  0  0  0  0  0  0
   -0.2253    2.2007    1.2936 C   0  0  0  0  0  0  0  0  0  0  0  0
    0.0450    0.7254    1.7079 C   0  0  0  0  0  0  0  0  0  0  0  0
    0.9641   -0.6334   -0.2853 O   0  0  0  0  0  0  0  0  0  0  0  0
   -1.7019    0.0046   -1.2048 H   0  0  0  0  0  0  0  0  0  0  0  0
   -1.8488   -0.9090    0.3225 H   0  0  0  0  0  0  0  0  0  0  0  0
    1.2875    2.0346   -0.3075 H   0  0  0  0  0  0  0  0  0  0  0  0
   -0.3419    2.2385   -0.9941 H   0  0  0  0  0  0  0  0  0  0  0  0
    0.3448    2.9737    1.8102 H   0  0  0  0  0  0  0  0  0  0  0  0
   -1.2867    2.4554    1.3435 H   0  0  0  0  0  0  0  0  0  0  0  0
   -0.6659    0.2277    2.3715 H   0  0  0  0  0  0  0  0  0  0  0  0
    1.0553    0.5935    2.1042 H   0  0  0  0  0  0  0  0  0  0  0  0
  1  2  2  0  0  0  0
  2  3  1  0  0  0  0
  2  8  1  0  0  0  0
  3  4  1  0  0  0  0
  3 10  1  0  0  0  0
  4  7  1  0  0  0  0
  5  4  1  0  0  0  0
  5  6  1  0  0  0  0
  6 14  1  0  0  0  0
  6  7  1  0  0  0  0
  6 13  1  0  0  0  0
  7 16  1  0  0  0  0
  7 15  1  0  0  0  0
  8  4  1  0  0  0  0
  9  3  1  0  0  0  0
 11  5  1  0  0  0  0
 12  5  1  0  0  0  0
M  END
