16
title
O 0.083382875 -2.4188104 -1.4383644
C -0.030511767 -1.3990434 -0.8393476
C -1.1496549 -0.46238232 -0.3869547
C 0.006242782 0.35766935 0.21463758
C 0.2240253 1.8359728 -0.15084416
C -0.22532564 2.200718 1.2935627
C 0.044988673 0.7253804 1.7078675
O 0.96406686 -0.63335395 -0.2852579
H -1.7018708 0.004551406 -1.2047994
H -1.848844 -0.9090307 0.32251328
H 1.2875481 2.0346055 -0.3075255
H -0.34187695 2.2385387 -0.9941195
H 0.3448174 2.9736733 1.8102392
H -1.2867165 2.455381 1.3434659
H -0.66594356 0.2277453 2.371455
H 1.0552577 0.5935397 2.1041582
