title
 OpenBabel02282109583D

 16 17  0  0  0  0  0  0  0  0999 V2000
    0.3246   -2.3881   -1.6149 O   0  0  0  0  0  0  0  0  0  0  0  0
    0.1862   -1.4874   -0.8400 C   0  0  0  0  0  0  0  0  0  0  0  0
   -1.0312   -0.7262   -0.2929 C   0  0  0  0  0  0  0  0  0  0  0  0
   -0.0477    0.3583    0.2316 C   0  0  0  0  0  0  0  0  0  0  0  0
   -0.1010    1.8117   -0.2844 C   0  0  0  0  0  0  0  0  0  0  0  0
   -0.2701    2.1800    1.2021 C   0  0  0  0  0  0  0  0  0  0  0  0
   -0.2091    0.7900    1.5916 O   0  0  0  0  0  0  0  0  0  0  0  0
    1.1591   -0.5710   -0.0821 C   0  0  0  0  0  0  0  0  0  0  0  0
   -1.8009   -0.4321   -1.0112 H   0  0  0  0  0  0  0  0  0  0  0  0
   -1.5030   -1.2620    0.5384 H   0  0  0  0  0  0  0  0  0  0  0  0
    0.8154    2.1703   -0.7566 H   0  0  0  0  0  0  0  0  0  0  0  0
   -0.9520    2.0451   -0.9267 H   0  0  0  0  0  0  0  0  0  0  0  0
    0.5445    2.7630    1.6464 H   0  0  0  0  0  0  0  0  0  0  0  0
   -1.2276    2.6375    1.4759 H   0  0  0  0  0  0  0  0  0  0  0  0
    1.5348   -1.0468    0.8308 H   0  0  0  0  0  0  0  0  0  0  0  0
    2.0024   -0.1627   -0.6452 H   0  0  0  0  0  0  0  0  0  0  0  0
  1  2  2  0  0  0  0
  2  3  1  0  0  0  0
  2  8  1  0  0  0  0
  3  4  1  0  0  0  0
  3 10  1  0  0  0  0
  4  7  1  0  0  0  0
  5  4  1  0  0  0  0
  5  6  1  0  0  0  0
  6 14  1  0  0  0  0
  6  7  1  0  0  0  0
  6 13  1  0  0  0  0
  8  4  1  0  0  0  0
  8 15  1  0  0  0  0
  9  3  1  0  0  0  0
 11  5  1  0  0  0  0
 12  5  1  0  0  0  0
 16  8  1  0  0  0  0
M  END
