16
title
O 0.3245654 -2.388102 -1.6148622
C 0.18619014 -1.4873692 -0.83995193
C -1.0311503 -0.7261854 -0.2929139
C -0.0476636 0.3582844 0.23158008
C -0.1009659 1.8116986 -0.2843828
C -0.27010795 2.1799834 1.2021061
O -0.20912375 0.79001135 1.5916065
C 1.1591341 -0.5710352 -0.08213825
H -1.8008976 -0.43213683 -1.0111672
H -1.5030345 -1.2619574 0.5384455
H 0.8153576 2.1703212 -0.75657135
H -0.9519759 2.0451286 -0.9266547
H 0.5445402 2.7630465 1.6464266
H -1.22758 2.6375058 1.4758855
H 1.534814 -1.0467693 0.8307836
H 2.002429 -0.16272505 -0.64516574
