14
title
O -0.05871951 -2.487053 -1.3933773
C -0.14993171 -1.4495786 -0.8258661
C -1.2400303 -0.46428123 -0.405558
C -0.06483969 0.33173904 0.17734672
C 0.2637704 1.7903303 -0.1659259
O 0.22916423 2.1562932 1.2291064
C 0.050540794 0.78449404 1.6385032
O 0.86614525 -0.69305587 -0.28386992
H -1.7739965 0.0013645709 -1.2360022
H -1.95716 -0.8630502 0.314374
H 1.2574005 1.919834 -0.61166537
H -0.48150522 2.334411 -0.7576232
H -0.83864665 0.6494483 2.2651594
H 0.93083984 0.37928638 2.1519487
