title
 OpenBabel02282109583D

 22 23  0  0  0  0  0  0  0  0999 V2000
   -1.1727    2.8264    0.2069 C   0  0  0  0  0  0  0  0  0  0  0  0
   -1.0660    1.3238    0.0005 C   0  0  0  0  0  0  0  0  0  0  0  0
   -0.1033    0.7751   -1.0911 C   0  0  0  0  0  0  0  0  0  0  0  0
    0.2897   -0.3706   -0.1310 C   0  0  0  0  0  0  0  0  0  0  0  0
   -0.3117   -1.7945   -0.3053 C   0  0  0  0  0  0  0  0  0  0  0  0
    1.0053   -2.3809    0.2704 C   0  0  0  0  0  0  0  0  0  0  0  0
    1.6906   -1.0186   -0.0238 C   0  0  0  0  0  0  0  0  0  0  0  0
   -0.2843    0.4729    1.0411 C   0  0  0  0  0  0  0  0  0  0  0  0
   -0.1822    3.2730    0.3536 H   0  0  0  0  0  0  0  0  0  0  0  0
   -1.6334    3.3168   -0.6583 H   0  0  0  0  0  0  0  0  0  0  0  0
   -1.7796    3.0673    1.0873 H   0  0  0  0  0  0  0  0  0  0  0  0
   -2.0653    0.8982   -0.1452 H   0  0  0  0  0  0  0  0  0  0  0  0
   -0.5271    0.4968   -2.0611 H   0  0  0  0  0  0  0  0  0  0  0  0
    0.7354    1.4609   -1.2617 H   0  0  0  0  0  0  0  0  0  0  0  0
   -1.2447   -2.0180    0.2205 H   0  0  0  0  0  0  0  0  0  0  0  0
   -0.4398   -2.0487   -1.3629 H   0  0  0  0  0  0  0  0  0  0  0  0
    0.9306   -2.5759    1.3438 H   0  0  0  0  0  0  0  0  0  0  0  0
    1.4156   -3.2701   -0.2138 H   0  0  0  0  0  0  0  0  0  0  0  0
    2.2071   -1.0229   -0.9898 H   0  0  0  0  0  0  0  0  0  0  0  0
    2.3713   -0.6131    0.7309 H   0  0  0  0  0  0  0  0  0  0  0  0
    0.4993    1.0661    1.5273 H   0  0  0  0  0  0  0  0  0  0  0  0
   -0.8564   -0.0487    1.8146 H   0  0  0  0  0  0  0  0  0  0  0  0
  1  9  1  0  0  0  0
  1 11  1  0  0  0  0
  2  1  1  0  0  0  0
  2  8  1  0  0  0  0
  3  4  1  0  0  0  0
  3  2  1  0  0  0  0
  4  7  1  0  0  0  0
  4  8  1  0  0  0  0
  5  4  1  0  0  0  0
  5 15  1  0  0  0  0
  5  6  1  0  0  0  0
  6 17  1  0  0  0  0
  7  6  1  0  0  0  0
  7 20  1  0  0  0  0
  8 21  1  0  0  0  0
  8 22  1  0  0  0  0
 10  1  1  0  0  0  0
 12  2  1  0  0  0  0
 13  3  1  0  0  0  0
 14  3  1  0  0  0  0
 16  5  1  0  0  0  0
 18  6  1  0  0  0  0
 19  7  1  0  0  0  0
M  END
