22
title
C -1.1726878 2.8264391 0.20688188
C -1.0659945 1.3237911 0.0005086728
C -0.10327313 0.7750854 -1.0911279
C 0.28973356 -0.3705566 -0.13097446
C -0.31170258 -1.7945023 -0.305334
C 1.0053432 -2.3808782 0.27040708
C 1.6906254 -1.0185935 -0.023757875
C -0.28428432 0.47289568 1.041082
H -0.1822432 3.273017 0.35358196
H -1.6334378 3.316822 -0.65830624
H -1.7795538 3.0673318 1.0872772
H -2.0653198 0.89821297 -0.14523634
H -0.5270754 0.4967993 -2.0611262
H 0.73543453 1.4608855 -1.2616822
H -1.2447476 -2.0179937 0.22050458
H -0.4397557 -2.048722 -1.3629171
H 0.93061876 -2.5759242 1.3437961
H 1.4155905 -3.2700856 -0.21380657
H 2.2071452 -1.0228598 -0.98976845
H 2.371306 -0.6130724 0.7308824
H 0.49930432 1.0660814 1.5272573
H -0.8563583 -0.048688658 1.8145908
