20
title
C -0.54112935 2.8015077 0.24124615
C -1.0046802 1.3657831 0.099302895
C -0.4650011 0.53288525 -1.0834441
C 0.09140771 -0.40367335 0.010239404
C -0.33380187 -1.8912182 0.047735166
C 1.088186 -2.2611098 -0.45780465
C 1.5678489 -0.85499066 -0.0017203132
O -0.36180478 0.4784972 1.049194
H 0.5436633 2.873375 0.11422313
H -1.0244006 3.436234 -0.5099966
H -0.7968585 3.1899462 1.2321895
H -2.0966537 1.3098315 0.20847602
H -1.2117313 0.10020786 -1.7520785
H 0.299612 1.0425342 -1.6752247
H -0.48938245 -2.2059267 1.0838143
H -1.198492 -2.1923172 -0.5501002
H 1.5716517 -3.1272516 -0.0026855806
H 1.122407 -2.375382 -1.5445185
H 2.2637799 -0.30371553 -0.64000607
H 1.9589853 -0.8724062 1.0199157
