title
 OpenBabel02282109583D

 19 20  0  0  0  0  0  0  0  0999 V2000
    0.5583    2.7267   -0.9797 C   0  0  0  0  0  0  0  0  0  0  0  0
    0.4237    1.2902   -0.9375 N   0  0  0  0  0  0  0  0  0  0  0  0
   -0.8739    0.7092   -0.5456 C   0  0  0  0  0  0  0  0  0  0  0  0
   -0.1205   -0.3680    0.2662 C   0  0  0  0  0  0  0  0  0  0  0  0
   -0.6162   -0.9744    1.5879 C   0  0  0  0  0  0  0  0  0  0  0  0
   -0.4833   -2.3243    0.8575 C   0  0  0  0  0  0  0  0  0  0  0  0
   -0.0242   -1.6689   -0.3438 O   0  0  0  0  0  0  0  0  0  0  0  0
    1.1200    0.5421    0.1256 C   0  0  0  0  0  0  0  0  0  0  0  0
    1.5945    2.9976   -1.2091 H   0  0  0  0  0  0  0  0  0  0  0  0
   -0.0769    3.1377   -1.7717 H   0  0  0  0  0  0  0  0  0  0  0  0
    0.2791    3.2203   -0.0273 H   0  0  0  0  0  0  0  0  0  0  0  0
   -1.4767    1.3653    0.1065 H   0  0  0  0  0  0  0  0  0  0  0  0
   -1.4938    0.3505   -1.3743 H   0  0  0  0  0  0  0  0  0  0  0  0
    0.0504   -0.8303    2.4407 H   0  0  0  0  0  0  0  0  0  0  0  0
   -1.6307   -0.6897    1.8747 H   0  0  0  0  0  0  0  0  0  0  0  0
    0.2682   -3.0142    1.2592 H   0  0  0  0  0  0  0  0  0  0  0  0
   -1.4177   -2.8733    0.6919 H   0  0  0  0  0  0  0  0  0  0  0  0
    2.0511    0.0534   -0.1811 H   0  0  0  0  0  0  0  0  0  0  0  0
    1.2997    1.1326    1.0411 H   0  0  0  0  0  0  0  0  0  0  0  0
  1  2  1  0  0  0  0
  1 11  1  0  0  0  0
  2  3  1  0  0  0  0
  2  8  1  0  0  0  0
  3 12  1  0  0  0  0
  3  4  1  0  0  0  0
  4  5  1  0  0  0  0
  5 15  1  0  0  0  0
  5 14  1  0  0  0  0
  6 16  1  0  0  0  0
  6  5  1  0  0  0  0
  7  4  1  0  0  0  0
  7  6  1  0  0  0  0
  8  4  1  0  0  0  0
  8 19  1  0  0  0  0
  9  1  1  0  0  0  0
 10  1  1  0  0  0  0
 13  3  1  0  0  0  0
 17  6  1  0  0  0  0
 18  8  1  0  0  0  0
M  END
