title
 OpenBabel02282109583D

 20 21  0  0  0  0  0  0  0  0999 V2000
    1.8132    0.7298   -2.1965 O   0  0  0  0  0  0  0  0  0  0  0  0
    1.0062   -0.0024   -1.3099 C   0  0  0  0  0  0  0  0  0  0  0  0
    1.1281    0.2146    0.2216 C   0  0  0  0  0  0  0  0  0  0  0  0
   -0.4068   -0.0133    0.3196 C   0  0  0  0  0  0  0  0  0  0  0  0
   -0.8589   -1.3936    0.8768 C   0  0  0  0  0  0  0  0  0  0  0  0
   -1.2570   -0.6871    2.2006 C   0  0  0  0  0  0  0  0  0  0  0  0
   -1.2323    0.6657    1.4380 C   0  0  0  0  0  0  0  0  0  0  0  0
   -0.5105    0.3025   -1.1915 C   0  0  0  0  0  0  0  0  0  0  0  0
    1.6913    1.6653   -2.0029 H   0  0  0  0  0  0  0  0  0  0  0  0
    1.1711   -1.0527   -1.5673 H   0  0  0  0  0  0  0  0  0  0  0  0
    1.7946   -0.4401    0.7900 H   0  0  0  0  0  0  0  0  0  0  0  0
    1.3863    1.2581    0.4419 H   0  0  0  0  0  0  0  0  0  0  0  0
   -1.7341   -1.7754    0.3410 H   0  0  0  0  0  0  0  0  0  0  0  0
   -0.1093   -2.1887    0.9276 H   0  0  0  0  0  0  0  0  0  0  0  0
   -2.1972   -0.9872    2.6687 H   0  0  0  0  0  0  0  0  0  0  0  0
   -0.4632   -0.7467    2.9501 H   0  0  0  0  0  0  0  0  0  0  0  0
   -0.7801    1.5276    1.9378 H   0  0  0  0  0  0  0  0  0  0  0  0
   -2.2285    0.9529    1.0850 H   0  0  0  0  0  0  0  0  0  0  0  0
   -0.7036    1.3699   -1.3592 H   0  0  0  0  0  0  0  0  0  0  0  0
   -1.2104   -0.2801   -1.7972 H   0  0  0  0  0  0  0  0  0  0  0  0
  1  9  1  0  0  0  0
  1  2  1  0  0  0  0
  2  8  1  0  0  0  0
  2  3  1  0  0  0  0
  3  4  1  0  0  0  0
  3 12  1  0  0  0  0
  3 11  1  0  0  0  0
  4  5  1  0  0  0  0
  4  7  1  0  0  0  0
  5 14  1  0  0  0  0
  5  6  1  0  0  0  0
  6 15  1  0  0  0  0
  6 16  1  0  0  0  0
  7 17  1  0  0  0  0
  7  6  1  0  0  0  0
  8  4  1  0  0  0  0
 10  2  1  0  0  0  0
 13  5  1  0  0  0  0
 18  7  1  0  0  0  0
 19  8  1  0  0  0  0
 20  8  1  0  0  0  0
M  END
