18
title
O 1.7659999 0.8966394 -2.23916
C 1.0428479 0.0969006 -1.3426707
C 1.2333214 0.26099023 0.18949854
C -0.27752373 -0.03268732 0.35698473
C -0.7396827 -1.4070547 0.8891852
O -1.5233154 -0.7920929 1.9305842
C -1.1402946 0.52938557 1.4981141
C -0.4792281 0.323547 -1.1361208
H 1.6176363 1.8188659 -2.0040238
H 1.2412632 -0.9350847 -1.6476998
H 1.9491457 -0.3873148 0.7017362
H 1.4599016 1.3044659 0.44191754
H -1.3608158 -1.9981717 0.20261776
H 0.05246928 -2.0498044 1.2965765
H -0.59332335 1.0760713 2.2783623
H -2.0065846 1.1276873 1.1844163
H -0.7323104 1.3845441 -1.2549902
H -1.1829672 -0.27290368 -1.7227119
