title
 OpenBabel02282109583D

 18 19  0  0  0  0  0  0  0  0999 V2000
    1.7660    0.8966   -2.2392 O   0  0  0  0  0  0  0  0  0  0  0  0
    1.0428    0.0969   -1.3427 C   0  0  0  0  0  0  0  0  0  0  0  0
    1.2333    0.2610    0.1895 C   0  0  0  0  0  0  0  0  0  0  0  0
   -0.2775   -0.0327    0.3570 C   0  0  0  0  0  0  0  0  0  0  0  0
   -0.7397   -1.4071    0.8892 C   0  0  0  0  0  0  0  0  0  0  0  0
   -1.5233   -0.7921    1.9306 O   0  0  0  0  0  0  0  0  0  0  0  0
   -1.1403    0.5294    1.4981 C   0  0  0  0  0  0  0  0  0  0  0  0
   -0.4792    0.3235   -1.1361 C   0  0  0  0  0  0  0  0  0  0  0  0
    1.6176    1.8189   -2.0040 H   0  0  0  0  0  0  0  0  0  0  0  0
    1.2413   -0.9351   -1.6477 H   0  0  0  0  0  0  0  0  0  0  0  0
    1.9491   -0.3873    0.7017 H   0  0  0  0  0  0  0  0  0  0  0  0
    1.4599    1.3045    0.4419 H   0  0  0  0  0  0  0  0  0  0  0  0
   -1.3608   -1.9982    0.2026 H   0  0  0  0  0  0  0  0  0  0  0  0
    0.0525   -2.0498    1.2966 H   0  0  0  0  0  0  0  0  0  0  0  0
   -0.5933    1.0761    2.2784 H   0  0  0  0  0  0  0  0  0  0  0  0
   -2.0066    1.1277    1.1844 H   0  0  0  0  0  0  0  0  0  0  0  0
   -0.7323    1.3845   -1.2550 H   0  0  0  0  0  0  0  0  0  0  0  0
   -1.1830   -0.2729   -1.7227 H   0  0  0  0  0  0  0  0  0  0  0  0
  1  9  1  0  0  0  0
  1  2  1  0  0  0  0
  2  8  1  0  0  0  0
  2  3  1  0  0  0  0
  3  4  1  0  0  0  0
  3 12  1  0  0  0  0
  3 11  1  0  0  0  0
  4  5  1  0  0  0  0
  4  7  1  0  0  0  0
  5 14  1  0  0  0  0
  5  6  1  0  0  0  0
  7  6  1  0  0  0  0
  7 15  1  0  0  0  0
  8  4  1  0  0  0  0
 10  2  1  0  0  0  0
 13  5  1  0  0  0  0
 16  7  1  0  0  0  0
 17  8  1  0  0  0  0
 18  8  1  0  0  0  0
M  END
