title
 OpenBabel02282109583D

 18 19  0  0  1  0  0  0  0  0999 V2000
   -1.5224   -2.7291   -0.0011 C   0  0  0  0  0  0  0  0  0  0  0  0
   -1.5028   -1.5271    0.0057 C   0  0  0  0  0  0  0  0  0  0  0  0
   -1.4433   -0.0695    0.0134 C   0  0  0  0  0  0  0  0  0  0  0  0
   -0.0224    0.4667    0.0029 C   0  0  1  0  0  0  0  0  0  0  0  0
    1.0714    0.2397   -1.0843 C   0  0  0  0  0  0  0  0  0  0  0  0
    1.7271    1.1528   -0.0100 C   0  0  1  0  0  0  0  0  0  0  0  0
    0.4026    1.9674    0.0087 C   0  0  0  0  0  0  0  0  0  0  0  0
    1.0928    0.2252    1.0650 C   0  0  0  0  0  0  0  0  0  0  0  0
   -1.5539   -3.7900   -0.0069 H   0  0  0  0  0  0  0  0  0  0  0  0
   -1.9842    0.3256   -0.8572 H   0  0  0  0  0  0  0  0  0  0  0  0
   -1.9674    0.3156    0.8987 H   0  0  0  0  0  0  0  0  0  0  0  0
    1.4622   -0.7770   -1.1751 H   0  0  0  0  0  0  0  0  0  0  0  0
    0.8856    0.6884   -2.0648 H   0  0  0  0  0  0  0  0  0  0  0  0
    2.7413    1.5517   -0.0174 H   0  0  0  0  0  0  0  0  0  0  0  0
    0.1669    2.5464   -0.8893 H   0  0  0  0  0  0  0  0  0  0  0  0
    0.1850    2.5342    0.9190 H   0  0  0  0  0  0  0  0  0  0  0  0
    0.9268    0.6608    2.0549 H   0  0  0  0  0  0  0  0  0  0  0  0
    1.4852   -0.7925    1.1342 H   0  0  0  0  0  0  0  0  0  0  0  0
  1  2  3  0  0  0  0
  2  3  1  0  0  0  0
  3 11  1  0  0  0  0
  4  7  1  0  0  0  0
  4  3  1  1  0  0  0
  4  8  1  0  0  0  0
  5  6  1  0  0  0  0
  5  4  1  0  0  0  0
  6 14  1  6  0  0  0
  6  7  1  0  0  0  0
  6  8  1  0  0  0  0
  7 16  1  0  0  0  0
  8 18  1  0  0  0  0
  8 17  1  0  0  0  0
  9  1  1  0  0  0  0
 10  3  1  0  0  0  0
 12  5  1  0  0  0  0
 13  5  1  0  0  0  0
 15  7  1  0  0  0  0
M  END
