16
title
C -2.1056783 -2.1198144 -1.041378
C -1.5892018 -1.4483908 -0.18937881
C -0.94329846 -0.6227184 0.8228026
C 0.17405343 0.2165316 0.24899985
C 1.5391508 -0.2148774 -0.34774682
C 1.5311185 1.3156772 -0.13268378
C 0.11900794 1.3968151 -0.7557985
O 0.90425026 1.0994756 1.1950762
H -2.5706346 -2.7178247 -1.7854488
H -1.6742467 0.04666945 1.2936252
H -0.5308341 -1.2508004 1.622441
H 2.1827018 -0.77489305 0.3320478
H 1.5544966 -0.59614474 -1.3711537
H 2.3538883 2.0273428 -0.18527228
H 0.004438633 1.1629891 -1.8165362
H -0.48141766 2.2485569 -0.43343005
