17
title
C -1.5213054 -2.750332 0.022004403
C -1.5246367 -1.5484692 0.004930434
C -1.4807643 -0.09104382 -0.01579322
C -0.058128677 0.45305645 -0.007221706
C 1.0818614 0.23655784 -1.0284876
N 1.7493776 1.1640002 0.0033861136
C 0.41352692 1.9261843 -0.023269407
C 1.0577575 0.26688647 1.0461398
H -1.5358624 -3.8118393 0.037559096
H -2.0036705 0.28418124 -0.90563804
H -2.0240226 0.30972004 0.85041285
H 1.5379092 -0.7547894 -1.0858858
H 0.97985786 0.6892656 -2.0191033
H 0.26086465 2.5075095 -0.9373396
H 0.23987582 2.5339172 0.8696337
H 0.93292207 0.7483181 2.0204647
H 1.5120128 -0.7222049 1.1430666
