title
 OpenBabel02282109583D

 17 18  0  0  1  0  0  0  0  0999 V2000
   -1.5134   -2.6632   -0.0016 N   0  0  0  0  0  0  0  0  0  0  0  0
   -1.4920   -1.5078    0.0053 C   0  0  0  0  0  0  0  0  0  0  0  0
   -1.4328   -0.0465    0.0137 C   0  0  0  0  0  0  0  0  0  0  0  0
   -0.0055    0.4757    0.0030 C   0  0  1  0  0  0  0  0  0  0  0  0
    1.0840    0.2410   -1.0857 C   0  0  0  0  0  0  0  0  0  0  0  0
    1.7443    1.1507   -0.0100 C   0  0  1  0  0  0  0  0  0  0  0  0
    0.4235    1.9733    0.0091 C   0  0  0  0  0  0  0  0  0  0  0  0
    1.1057    0.2260    1.0661 C   0  0  0  0  0  0  0  0  0  0  0  0
   -1.9787    0.3311   -0.8593 H   0  0  0  0  0  0  0  0  0  0  0  0
   -1.9616    0.3203    0.9017 H   0  0  0  0  0  0  0  0  0  0  0  0
    1.4700   -0.7773   -1.1761 H   0  0  0  0  0  0  0  0  0  0  0  0
    0.8999    0.6915   -2.0652 H   0  0  0  0  0  0  0  0  0  0  0  0
    2.7599    1.5439   -0.0175 H   0  0  0  0  0  0  0  0  0  0  0  0
    0.1905    2.5525   -0.8891 H   0  0  0  0  0  0  0  0  0  0  0  0
    0.2088    2.5398    0.9198 H   0  0  0  0  0  0  0  0  0  0  0  0
    0.9415    0.6629    2.0553 H   0  0  0  0  0  0  0  0  0  0  0  0
    1.4933   -0.7934    1.1346 H   0  0  0  0  0  0  0  0  0  0  0  0
  1  2  3  0  0  0  0
  2  3  1  0  0  0  0
  3 10  1  0  0  0  0
  4  7  1  0  0  0  0
  4  3  1  1  0  0  0
  4  8  1  0  0  0  0
  5  6  1  0  0  0  0
  5  4  1  0  0  0  0
  6 13  1  6  0  0  0
  6  7  1  0  0  0  0
  6  8  1  0  0  0  0
  7 15  1  0  0  0  0
  8 17  1  0  0  0  0
  8 16  1  0  0  0  0
  9  3  1  0  0  0  0
 11  5  1  0  0  0  0
 12  5  1  0  0  0  0
 14  7  1  0  0  0  0
M  END
