title
 OpenBabel02282109583D

 16 17  0  0  1  0  0  0  0  0999 V2000
   -1.4884   -2.6742   -0.0546 N   0  0  0  0  0  0  0  0  0  0  0  0
   -1.4543   -1.5230    0.0337 C   0  0  0  0  0  0  0  0  0  0  0  0
   -1.4152   -0.0643    0.1279 C   0  0  0  0  0  0  0  0  0  0  0  0
   -0.0134    0.4981   -0.0063 C   0  0  1  0  0  0  0  0  0  0  0  0
    1.0338    0.2395   -1.1224 C   0  0  0  0  0  0  0  0  0  0  0  0
    1.6975    1.1215   -0.0369 C   0  0  1  0  0  0  0  0  0  0  0  0
    0.4131    1.9940   -0.0055 C   0  0  0  0  0  0  0  0  0  0  0  0
    1.0913    0.1711    0.9875 N   0  0  0  0  0  0  0  0  0  0  0  0
   -2.0520    0.3549   -0.6600 H   0  0  0  0  0  0  0  0  0  0  0  0
   -1.8523    0.2427    1.0856 H   0  0  0  0  0  0  0  0  0  0  0  0
    1.4004   -0.7844   -1.1886 H   0  0  0  0  0  0  0  0  0  0  0  0
    0.8474    0.6985   -2.0945 H   0  0  0  0  0  0  0  0  0  0  0  0
    2.7365    1.4420    0.0286 H   0  0  0  0  0  0  0  0  0  0  0  0
    0.1749    2.5996   -0.8864 H   0  0  0  0  0  0  0  0  0  0  0  0
    0.2281    2.5424    0.9236 H   0  0  0  0  0  0  0  0  0  0  0  0
    0.9196    0.6883    1.8571 H   0  0  0  0  0  0  0  0  0  0  0  0
  1  2  3  0  0  0  0
  2  3  1  0  0  0  0
  3 10  1  0  0  0  0
  4  7  1  0  0  0  0
  4  3  1  1  0  0  0
  4  8  1  0  0  0  0
  5  6  1  0  0  0  0
  5  4  1  0  0  0  0
  6  7  1  0  0  0  0
  6 13  1  6  0  0  0
  6  8  1  0  0  0  0
  7 15  1  0  0  0  0
  8 16  1  0  0  0  0
  9  3  1  0  0  0  0
 11  5  1  0  0  0  0
 12  5  1  0  0  0  0
 14  7  1  0  0  0  0
M  END
