title
 OpenBabel02282109583D

 16 17  0  0  1  0  0  0  0  0999 V2000
   -1.5168   -2.6866    0.0274 N   0  0  0  0  0  0  0  0  0  0  0  0
   -1.5153   -1.5312    0.0082 C   0  0  0  0  0  0  0  0  0  0  0  0
   -1.4692   -0.0707   -0.0155 C   0  0  0  0  0  0  0  0  0  0  0  0
   -0.0390    0.4612   -0.0081 C   0  0  1  0  0  0  0  0  0  0  0  0
    1.0978    0.2372   -1.0306 C   0  0  0  0  0  0  0  0  0  0  0  0
    1.7652    1.1655    0.0007 N   0  0  1  0  0  0  0  0  0  0  0  0
    0.4322    1.9327   -0.0277 C   0  0  0  0  0  0  0  0  0  0  0  0
    1.0738    0.2726    1.0474 C   0  0  0  0  0  0  0  0  0  0  0  0
   -1.9964    0.2855   -0.9085 H   0  0  0  0  0  0  0  0  0  0  0  0
   -2.0164    0.3147    0.8529 H   0  0  0  0  0  0  0  0  0  0  0  0
    1.5514   -0.7551   -1.0851 H   0  0  0  0  0  0  0  0  0  0  0  0
    0.9959    0.6884   -2.0214 H   0  0  0  0  0  0  0  0  0  0  0  0
    0.2803    2.5109   -0.9434 H   0  0  0  0  0  0  0  0  0  0  0  0
    0.2594    2.5417    0.8640 H   0  0  0  0  0  0  0  0  0  0  0  0
    0.9493    0.7571    2.0197 H   0  0  0  0  0  0  0  0  0  0  0  0
    1.5257   -0.7171    1.1460 H   0  0  0  0  0  0  0  0  0  0  0  0
  2  1  3  0  0  0  0
  3  2  1  0  0  0  0
  3 10  1  0  0  0  0
  4  3  1  6  0  0  0
  4  8  1  0  0  0  0
  5  4  1  0  0  0  0
  6  5  1  6  0  0  0
  6  8  1  0  0  0  0
  7  4  1  0  0  0  0
  7  6  1  0  0  0  0
  7 14  1  0  0  0  0
  8 16  1  0  0  0  0
  8 15  1  0  0  0  0
  9  3  1  0  0  0  0
 11  5  1  0  0  0  0
 12  5  1  0  0  0  0
 13  7  1  0  0  0  0
M  END
