17
title
N 0.6344694 3.0611558 0.0100901015
C 0.7168261 1.8021278 0.0030693149
O -0.409385 1.0569674 0.008070936
C -0.25300685 -0.3306033 0.0002961957
C 0.4190667 -1.2368261 1.0757955
C -0.17506441 -2.1822505 -0.0090792375
C -1.4558903 -1.2921139 0.0048912675
C 0.40255314 -1.2265435 -1.0938601
H 1.5678228 3.4677064 0.004763472
H 1.6384374 1.2077436 -0.007217321
H 1.5091339 -1.2018026 1.1487081
H -0.055575635 -1.2569593 2.0596063
H -0.13391694 -3.2677002 -0.014537733
H -2.059072 -1.3125285 0.91536224
H -2.072866 -1.303938 -0.8964433
H -0.08701231 -1.2373782 -2.070478
H 1.4913872 -1.190766 -1.1830236
