title
 OpenBabel02282109583D

 16 17  0  0  1  0  0  0  0  0999 V2000
    0.6477    3.0924    0.0177 N   0  0  0  0  0  0  0  0  0  0  0  0
    0.7232    1.8339   -0.0014 C   0  0  0  0  0  0  0  0  0  0  0  0
   -0.4068    1.0923    0.0328 O   0  0  0  0  0  0  0  0  0  0  0  0
   -0.2527   -0.2989    0.0058 C   0  0  1  0  0  0  0  0  0  0  0  0
    0.4379   -1.2512    1.0106 C   0  0  0  0  0  0  0  0  0  0  0  0
   -0.1785   -2.2039   -0.0251 N   0  0  1  0  0  0  0  0  0  0  0  0
   -1.4176   -1.2866    0.0459 C   0  0  0  0  0  0  0  0  0  0  0  0
    0.3401   -1.2208   -1.0858 C   0  0  0  0  0  0  0  0  0  0  0  0
    1.5815    3.4970   -0.0127 H   0  0  0  0  0  0  0  0  0  0  0  0
    1.6413    1.2346   -0.0444 H   0  0  0  0  0  0  0  0  0  0  0  0
    1.5296   -1.2869    1.0354 H   0  0  0  0  0  0  0  0  0  0  0  0
    0.0035   -1.3483    2.0079 H   0  0  0  0  0  0  0  0  0  0  0  0
   -1.9790   -1.3835    0.9774 H   0  0  0  0  0  0  0  0  0  0  0  0
   -2.0633   -1.3574   -0.8318 H   0  0  0  0  0  0  0  0  0  0  0  0
   -0.1853   -1.2898   -2.0408 H   0  0  0  0  0  0  0  0  0  0  0  0
    1.4248   -1.2540   -1.2131 H   0  0  0  0  0  0  0  0  0  0  0  0
  2  1  2  0  0  0  0
  2  3  1  0  0  0  0
  4  3  1  1  0  0  0
  4  7  1  0  0  0  0
  4  5  1  0  0  0  0
  5 11  1  0  0  0  0
  5 12  1  0  0  0  0
  6  8  1  6  0  0  0
  6  7  1  0  0  0  0
  6  5  1  0  0  0  0
  7 13  1  0  0  0  0
  8  4  1  0  0  0  0
  9  1  1  0  0  0  0
 10  2  1  0  0  0  0
 14  7  1  0  0  0  0
 15  8  1  0  0  0  0
 16  8  1  0  0  0  0
M  END
