title
 OpenBabel02282109583D

 18 19  0  0  1  0  0  0  0  0999 V2000
   -1.5248   -1.8242    1.8661 O   0  0  0  0  0  0  0  0  0  0  0  0
   -0.7831   -1.6874    0.9277 C   0  0  0  0  0  0  0  0  0  0  0  0
    0.4657   -0.8327    0.9276 C   0  0  0  0  0  0  0  0  0  0  0  0
    0.4240    0.2460   -0.1380 C   0  0  1  0  0  0  0  0  0  0  0  0
   -0.5798    1.4384   -0.2421 C   0  0  0  0  0  0  0  0  0  0  0  0
    0.3901    1.6005   -1.4456 C   0  0  1  0  0  0  0  0  0  0  0  0
    1.5522    1.2709   -0.4661 C   0  0  0  0  0  0  0  0  0  0  0  0
    0.2478    0.0712   -1.6825 C   0  0  0  0  0  0  0  0  0  0  0  0
   -0.9855   -2.2026   -0.0401 H   0  0  0  0  0  0  0  0  0  0  0  0
    0.5909   -0.3970    1.9238 H   0  0  0  0  0  0  0  0  0  0  0  0
    1.3223   -1.4938    0.7294 H   0  0  0  0  0  0  0  0  0  0  0  0
   -1.6184    1.1877   -0.4762 H   0  0  0  0  0  0  0  0  0  0  0  0
   -0.5197    2.1948    0.5455 H   0  0  0  0  0  0  0  0  0  0  0  0
    0.3722    2.3849   -2.2019 H   0  0  0  0  0  0  0  0  0  0  0  0
    1.7736    2.0148    0.3047 H   0  0  0  0  0  0  0  0  0  0  0  0
    2.4679    0.8644   -0.9055 H   0  0  0  0  0  0  0  0  0  0  0  0
    1.0661   -0.4234   -2.2143 H   0  0  0  0  0  0  0  0  0  0  0  0
   -0.7266   -0.2810   -2.0330 H   0  0  0  0  0  0  0  0  0  0  0  0
  2  1  2  0  0  0  0
  3  2  1  0  0  0  0
  3 10  1  0  0  0  0
  4  3  1  1  0  0  0
  5  4  1  0  0  0  0
  5 13  1  0  0  0  0
  6 14  1  6  0  0  0
  6  7  1  0  0  0  0
  6  5  1  0  0  0  0
  7  4  1  0  0  0  0
  7 15  1  0  0  0  0
  8  6  1  0  0  0  0
  8  4  1  0  0  0  0
  9  2  1  0  0  0  0
 11  3  1  0  0  0  0
 12  5  1  0  0  0  0
 16  7  1  0  0  0  0
 17  8  1  0  0  0  0
 18  8  1  0  0  0  0
M  END
