16
title
O -1.412488 -2.0029676 1.8255272
C -0.78873193 -1.6549373 0.85666895
C 0.467007 -0.80266345 0.9118856
C 0.41644332 0.3501644 -0.054627225
C -0.6578574 1.4605806 -0.23470263
C 0.32877514 1.506211 -1.421327
C 1.5172077 1.3734376 -0.4404985
O 0.2653297 0.026947744 -1.5020803
H -1.0961535 -1.9481695 -0.16964953
H 0.61537117 -0.44867492 1.9360373
H 1.3189243 -1.4412084 0.6385796
H -1.6601937 1.1051848 -0.47722927
H -0.6575898 2.2937071 0.47241232
H 0.26237974 2.0603044 -2.3565354
H 1.7165924 2.1996925 0.24649794
H 2.4224448 0.9373634 -0.8649239
