16
title
O -2.242261 -0.47338817 -0.9492691
C -2.1586068 0.41522697 -0.13133262
N -1.0137117 0.8166653 0.49682134
C 0.28019196 0.24111082 0.28205243
C 0.6518946 -0.9091736 -0.6638929
N 2.0091972 -0.5482962 -0.023072766
C 1.5748664 0.90959585 -0.24002269
C 1.2174364 -0.46511588 1.2912139
H -3.0315094 1.0123912 0.20140226
H -1.0897925 1.573905 1.1595284
H 0.29888493 -1.9103463 -0.41415954
H 0.6077588 -0.7223391 -1.7374222
H 1.6029953 1.2244456 -1.2860166
H 2.09205 1.6196539 0.41152963
H 1.7078544 0.14202394 2.0574093
H 0.91052085 -1.4388877 1.6805699
