15
title
O -0.6479551 -3.0358398 0.15083592
C -0.5780156 -1.8591089 0.33377767
O 0.15687676 -1.0427941 -0.4536572
C 0.18426247 0.33496574 -0.16687422
C -0.5041304 1.1591449 0.9440853
N 0.28095955 2.2100143 0.14428748
C 1.4286841 1.1826444 0.13597755
C -0.23063459 1.4748235 -1.1089379
H -1.0939713 -1.3187624 1.1479015
H -1.5865929 1.2974701 0.8955994
H -0.15212677 1.0448828 1.9718239
H 1.9138356 1.0633392 1.1070582
H 2.1502793 1.3411798 -0.6674973
H 0.3769384 1.6534386 -1.997958
H -1.2947999 1.6283164 -1.300239
