title
 OpenBabel02282109583D

 18 19  0  0  1  0  0  0  0  0999 V2000
   -0.0536    3.6644    0.0192 C   0  0  0  0  0  0  0  0  0  0  0  0
   -0.0317    2.2092    0.0121 C   0  0  0  0  0  0  0  0  0  0  0  0
   -0.0138    1.0038    0.0059 C   0  0  0  0  0  0  0  0  0  0  0  0
    0.0065   -0.4311   -0.0021 C   0  0  1  0  0  0  0  0  0  0  0  0
    0.6483   -1.3856    1.0632 C   0  0  0  0  0  0  0  0  0  0  0  0
    0.0333   -2.3233   -0.0128 C   0  0  1  0  0  0  0  0  0  0  0  0
   -1.2213   -1.4060    0.0014 C   0  0  0  0  0  0  0  0  0  0  0  0
    0.6332   -1.3736   -1.0868 C   0  0  0  0  0  0  0  0  0  0  0  0
    0.9611    4.0782    0.0094 H   0  0  0  0  0  0  0  0  0  0  0  0
   -0.5801    4.0590   -0.8571 H   0  0  0  0  0  0  0  0  0  0  0  0
   -0.5598    4.0510    0.9109 H   0  0  0  0  0  0  0  0  0  0  0  0
    1.7388   -1.3609    1.1346 H   0  0  0  0  0  0  0  0  0  0  0  0
    0.1794   -1.3880    2.0508 H   0  0  0  0  0  0  0  0  0  0  0  0
    0.0486   -3.4124   -0.0191 H   0  0  0  0  0  0  0  0  0  0  0  0
   -1.8285   -1.4101    0.9105 H   0  0  0  0  0  0  0  0  0  0  0  0
   -1.8420   -1.3999   -0.8985 H   0  0  0  0  0  0  0  0  0  0  0  0
    0.1499   -1.3651   -2.0673 H   0  0  0  0  0  0  0  0  0  0  0  0
    1.7226   -1.3480   -1.1740 H   0  0  0  0  0  0  0  0  0  0  0  0
  1 11  1  0  0  0  0
  2  1  1  0  0  0  0
  3  2  3  0  0  0  0
  4  7  1  0  0  0  0
  4  3  1  1  0  0  0
  4  5  1  0  0  0  0
  5 12  1  0  0  0  0
  5 13  1  0  0  0  0
  6 14  1  6  0  0  0
  6  7  1  0  0  0  0
  6  5  1  0  0  0  0
  7 15  1  0  0  0  0
  8  6  1  0  0  0  0
  8  4  1  0  0  0  0
  9  1  1  0  0  0  0
 10  1  1  0  0  0  0
 16  7  1  0  0  0  0
 17  8  1  0  0  0  0
 18  8  1  0  0  0  0
M  END
