title
 OpenBabel02282109583D

 17 18  0  0  1  0  0  0  0  0999 V2000
   -0.0455    3.7030    0.0311 C   0  0  0  0  0  0  0  0  0  0  0  0
   -0.0280    2.2482    0.0193 C   0  0  0  0  0  0  0  0  0  0  0  0
   -0.0134    1.0429    0.0092 C   0  0  0  0  0  0  0  0  0  0  0  0
    0.0047   -0.3959   -0.0032 C   0  0  1  0  0  0  0  0  0  0  0  0
    0.6680   -1.3880    0.9932 C   0  0  0  0  0  0  0  0  0  0  0  0
    0.0293   -2.3501   -0.0202 N   0  0  1  0  0  0  0  0  0  0  0  0
   -1.1781   -1.4028    0.0495 C   0  0  0  0  0  0  0  0  0  0  0  0
    0.5617   -1.3713   -1.0779 C   0  0  0  0  0  0  0  0  0  0  0  0
    0.9708    4.1124    0.0301 H   0  0  0  0  0  0  0  0  0  0  0  0
   -0.5645    4.1011   -0.8478 H   0  0  0  0  0  0  0  0  0  0  0  0
   -0.5570    4.0869    0.9207 H   0  0  0  0  0  0  0  0  0  0  0  0
    1.7601   -1.4324    1.0147 H   0  0  0  0  0  0  0  0  0  0  0  0
    0.2422   -1.4601    1.9974 H   0  0  0  0  0  0  0  0  0  0  0  0
   -1.7421   -1.4761    0.9830 H   0  0  0  0  0  0  0  0  0  0  0  0
   -1.8343   -1.4615   -0.8228 H   0  0  0  0  0  0  0  0  0  0  0  0
    0.0357   -1.4277   -2.0345 H   0  0  0  0  0  0  0  0  0  0  0  0
    1.6458   -1.4144   -1.2115 H   0  0  0  0  0  0  0  0  0  0  0  0
  1 11  1  0  0  0  0
  2  1  1  0  0  0  0
  3  2  3  0  0  0  0
  4  3  1  1  0  0  0
  4  7  1  0  0  0  0
  4  5  1  0  0  0  0
  5 12  1  0  0  0  0
  5 13  1  0  0  0  0
  6  8  1  6  0  0  0
  6  7  1  0  0  0  0
  6  5  1  0  0  0  0
  7 14  1  0  0  0  0
  8  4  1  0  0  0  0
  9  1  1  0  0  0  0
 10  1  1  0  0  0  0
 15  7  1  0  0  0  0
 16  8  1  0  0  0  0
 17  8  1  0  0  0  0
M  END
