17
title
C -0.04547213 3.7030454 0.031109184
C -0.028036878 2.2481658 0.019275479
C -0.013350037 1.0428579 0.009208195
C 0.004743844 -0.39585054 -0.0031788074
C 0.66801596 -1.3879734 0.9931558
N 0.029265229 -2.3501353 -0.020202516
C -1.178116 -1.4027954 0.049450204
C 0.56172055 -1.3712586 -1.0779107
H 0.970823 4.1123757 0.030067742
H -0.56451684 4.101125 -0.8478391
H -0.55697846 4.0869107 0.92072415
H 1.7600543 -1.4324375 1.0146993
H 0.2422076 -1.4600912 1.997379
H -1.7420504 -1.4761227 0.98300093
H -1.8343089 -1.4614533 -0.8228148
H 0.035704836 -1.4276625 -2.034508
H 1.6457641 -1.4144164 -1.2115101
