title
 OpenBabel02282109583D

 19 20  0  0  1  0  0  0  0  0999 V2000
   -0.5576    3.1055    0.9109 C   0  0  0  0  0  0  0  0  0  0  0  0
   -0.5551    1.5887    0.9800 C   0  0  0  0  0  0  0  0  0  0  0  0
    0.0742    1.0883   -0.1941 O   0  0  0  0  0  0  0  0  0  0  0  0
    0.1465   -0.2838   -0.2652 C   0  0  1  0  0  0  0  0  0  0  0  0
   -0.9786   -1.3559   -0.3233 C   0  0  0  0  0  0  0  0  0  0  0  0
    0.3042   -2.1854   -0.4732 N   0  0  1  0  0  0  0  0  0  0  0  0
    0.7740   -1.0681   -1.4232 C   0  0  0  0  0  0  0  0  0  0  0  0
    0.8759   -1.3086    0.6495 C   0  0  0  0  0  0  0  0  0  0  0  0
    0.4650    3.4886    0.8514 H   0  0  0  0  0  0  0  0  0  0  0  0
   -1.1036    3.4485    0.0276 H   0  0  0  0  0  0  0  0  0  0  0  0
   -1.0357    3.5261    1.8007 H   0  0  0  0  0  0  0  0  0  0  0  0
   -0.0137    1.2417    1.8734 H   0  0  0  0  0  0  0  0  0  0  0  0
   -1.5833    1.2015    1.0491 H   0  0  0  0  0  0  0  0  0  0  0  0
   -1.5365   -1.5858    0.5879 H   0  0  0  0  0  0  0  0  0  0  0  0
   -1.6198   -1.3817   -1.2081 H   0  0  0  0  0  0  0  0  0  0  0  0
    0.2566   -1.0683   -2.3857 H   0  0  0  0  0  0  0  0  0  0  0  0
    1.8592   -1.0274   -1.5450 H   0  0  0  0  0  0  0  0  0  0  0  0
    1.9685   -1.2902    0.6742 H   0  0  0  0  0  0  0  0  0  0  0  0
    0.4525   -1.5350    1.6312 H   0  0  0  0  0  0  0  0  0  0  0  0
  1  2  1  0  0  0  0
  1 11  1  0  0  0  0
  2 13  1  0  0  0  0
  2 12  1  0  0  0  0
  3  2  1  0  0  0  0
  4  3  1  1  0  0  0
  4  8  1  0  0  0  0
  5  4  1  0  0  0  0
  5 14  1  0  0  0  0
  6  7  1  6  0  0  0
  6  5  1  0  0  0  0
  6  8  1  0  0  0  0
  7  4  1  0  0  0  0
  8 18  1  0  0  0  0
  8 19  1  0  0  0  0
  9  1  1  0  0  0  0
 10  1  1  0  0  0  0
 15  5  1  0  0  0  0
 16  7  1  0  0  0  0
 17  7  1  0  0  0  0
M  END
