title
 OpenBabel02282109583D

 20 21  0  0  1  0  0  0  0  0999 V2000
   -0.4435    3.0706    0.7315 C   0  0  0  0  0  0  0  0  0  0  0  0
   -0.4291    1.6645    0.7302 O   0  0  0  0  0  0  0  0  0  0  0  0
    0.2159    1.1210   -0.4031 C   0  0  0  0  0  0  0  0  0  0  0  0
    0.1748   -0.3768   -0.3035 C   0  0  1  0  0  0  0  0  0  0  0  0
   -1.0916   -1.2849   -0.2338 C   0  0  0  0  0  0  0  0  0  0  0  0
    0.1246   -2.2526   -0.1798 C   0  0  1  0  0  0  0  0  0  0  0  0
    0.7617   -1.4028   -1.3178 C   0  0  0  0  0  0  0  0  0  0  0  0
    0.7782   -1.2649    0.8280 C   0  0  0  0  0  0  0  0  0  0  0  0
    0.5750    3.4915    0.7334 H   0  0  0  0  0  0  0  0  0  0  0  0
   -0.9772    3.4765   -0.1432 H   0  0  0  0  0  0  0  0  0  0  0  0
   -0.9594    3.3929    1.6395 H   0  0  0  0  0  0  0  0  0  0  0  0
   -0.2843    1.4551   -1.3297 H   0  0  0  0  0  0  0  0  0  0  0  0
    1.2624    1.4706   -0.4569 H   0  0  0  0  0  0  0  0  0  0  0  0
   -1.6988   -1.2013    0.6705 H   0  0  0  0  0  0  0  0  0  0  0  0
   -1.7125   -1.3256   -1.1340 H   0  0  0  0  0  0  0  0  0  0  0  0
    0.0972   -3.3404   -0.1113 H   0  0  0  0  0  0  0  0  0  0  0  0
    0.2793   -1.4528   -2.2987 H   0  0  0  0  0  0  0  0  0  0  0  0
    1.8519   -1.4359   -1.4058 H   0  0  0  0  0  0  0  0  0  0  0  0
    1.8699   -1.2874    0.9005 H   0  0  0  0  0  0  0  0  0  0  0  0
    0.3112   -1.1797    1.8120 H   0  0  0  0  0  0  0  0  0  0  0  0
  1  9  1  0  0  0  0
  1 11  1  0  0  0  0
  2  1  1  0  0  0  0
  3  2  1  0  0  0  0
  4  3  1  6  0  0  0
  4  5  1  0  0  0  0
  4  8  1  0  0  0  0
  5  6  1  0  0  0  0
  5 14  1  0  0  0  0
  6 16  1  1  0  0  0
  6  8  1  0  0  0  0
  7  4  1  0  0  0  0
  7  6  1  0  0  0  0
  8 19  1  0  0  0  0
  8 20  1  0  0  0  0
 10  1  1  0  0  0  0
 12  3  1  0  0  0  0
 13  3  1  0  0  0  0
 15  5  1  0  0  0  0
 17  7  1  0  0  0  0
 18  7  1  0  0  0  0
M  END
