title
 OpenBabel02282109583D

 18 19  0  0  1  0  0  0  0  0999 V2000
   -0.6188    3.1279    0.2918 C   0  0  0  0  0  0  0  0  0  0  0  0
   -0.7156    1.7559   -0.0114 O   0  0  0  0  0  0  0  0  0  0  0  0
    0.4203    1.0252    0.3911 C   0  0  0  0  0  0  0  0  0  0  0  0
    0.1947   -0.4103    0.0157 C   0  0  1  0  0  0  0  0  0  0  0  0
   -0.8413   -1.4268    0.5616 C   0  0  0  0  0  0  0  0  0  0  0  0
    0.1971   -2.1672   -0.3119 C   0  0  1  0  0  0  0  0  0  0  0  0
    0.0818   -1.0623   -1.3867 C   0  0  0  0  0  0  0  0  0  0  0  0
    1.2714   -1.3775    0.3448 O   0  0  0  0  0  0  0  0  0  0  0  0
   -0.5151    3.3000    1.3746 H   0  0  0  0  0  0  0  0  0  0  0  0
    0.2397    3.5977   -0.2136 H   0  0  0  0  0  0  0  0  0  0  0  0
   -1.5385    3.6041   -0.0561 H   0  0  0  0  0  0  0  0  0  0  0  0
    1.3328    1.3965   -0.1048 H   0  0  0  0  0  0  0  0  0  0  0  0
    0.5807    1.1003    1.4797 H   0  0  0  0  0  0  0  0  0  0  0  0
   -0.7717   -1.6251    1.6320 H   0  0  0  0  0  0  0  0  0  0  0  0
   -1.8692   -1.3567    0.1995 H   0  0  0  0  0  0  0  0  0  0  0  0
    0.3671   -3.2367   -0.4315 H   0  0  0  0  0  0  0  0  0  0  0  0
   -0.8620   -0.9588   -1.9263 H   0  0  0  0  0  0  0  0  0  0  0  0
    0.9598   -0.9412   -2.0226 H   0  0  0  0  0  0  0  0  0  0  0  0
  1  9  1  0  0  0  0
  2  1  1  0  0  0  0
  2  3  1  0  0  0  0
  3 13  1  0  0  0  0
  4  8  1  0  0  0  0
  4  3  1  1  0  0  0
  4  5  1  0  0  0  0
  5 14  1  0  0  0  0
  6 16  1  6  0  0  0
  6  8  1  0  0  0  0
  6  5  1  0  0  0  0
  7  6  1  0  0  0  0
  7  4  1  0  0  0  0
 10  1  1  0  0  0  0
 11  1  1  0  0  0  0
 12  3  1  0  0  0  0
 15  5  1  0  0  0  0
 17  7  1  0  0  0  0
 18  7  1  0  0  0  0
M  END
