title
 OpenBabel02282109583D

 19 20  0  0  1  0  0  0  0  0999 V2000
    0.7993    3.1182    0.0051 C   0  0  0  0  0  0  0  0  0  0  0  0
    0.8087    1.7109   -0.0120 O   0  0  0  0  0  0  0  0  0  0  0  0
   -0.4858    1.1493    0.0333 C   0  0  0  0  0  0  0  0  0  0  0  0
   -0.3471   -0.3493    0.0097 C   0  0  1  0  0  0  0  0  0  0  0  0
    0.3850   -1.2767    1.0078 C   0  0  0  0  0  0  0  0  0  0  0  0
   -0.1613   -2.2855   -0.0208 N   0  0  1  0  0  0  0  0  0  0  0  0
   -1.4447   -1.4353    0.0409 C   0  0  0  0  0  0  0  0  0  0  0  0
    0.3016   -1.2520   -1.0656 C   0  0  0  0  0  0  0  0  0  0  0  0
    1.8388    3.4531   -0.0327 H   0  0  0  0  0  0  0  0  0  0  0  0
    0.2598    3.5342   -0.8607 H   0  0  0  0  0  0  0  0  0  0  0  0
    0.3313    3.5132    0.9208 H   0  0  0  0  0  0  0  0  0  0  0  0
   -1.0179    1.4686    0.9471 H   0  0  0  0  0  0  0  0  0  0  0  0
   -1.0891    1.4900   -0.8270 H   0  0  0  0  0  0  0  0  0  0  0  0
    1.4760   -1.2333    1.0418 H   0  0  0  0  0  0  0  0  0  0  0  0
   -0.0434   -1.3999    2.0070 H   0  0  0  0  0  0  0  0  0  0  0  0
   -2.0125   -1.5699    0.9663 H   0  0  0  0  0  0  0  0  0  0  0  0
   -2.0850   -1.5484   -0.8389 H   0  0  0  0  0  0  0  0  0  0  0  0
   -0.2057   -1.3518   -2.0298 H   0  0  0  0  0  0  0  0  0  0  0  0
    1.3864   -1.2067   -1.1861 H   0  0  0  0  0  0  0  0  0  0  0  0
  1 11  1  0  0  0  0
  2  1  1  0  0  0  0
  2  3  1  0  0  0  0
  3 12  1  0  0  0  0
  4  3  1  1  0  0  0
  4  7  1  0  0  0  0
  4  5  1  0  0  0  0
  5 14  1  0  0  0  0
  5 15  1  0  0  0  0
  6  8  1  6  0  0  0
  6  7  1  0  0  0  0
  6  5  1  0  0  0  0
  7 16  1  0  0  0  0
  8  4  1  0  0  0  0
  9  1  1  0  0  0  0
 10  1  1  0  0  0  0
 13  3  1  0  0  0  0
 17  7  1  0  0  0  0
 18  8  1  0  0  0  0
 19  8  1  0  0  0  0
M  END
