title
 OpenBabel02282109583D

 17 18  0  0  1  0  0  0  0  0999 V2000
   -0.1889    2.0523   -1.8564 C   0  0  0  0  0  0  0  0  0  0  0  0
   -0.3132    0.5632   -1.6240 C   0  0  1  0  0  0  0  0  0  0  0  0
    0.9178   -0.3434   -1.6437 C   0  0  0  0  0  0  0  0  0  0  0  0
    0.1924   -0.0668   -0.3737 C   0  0  1  0  0  0  0  0  0  0  0  0
    0.6501    0.5222    0.9564 C   0  0  0  0  0  0  0  0  0  0  0  0
   -0.1707   -0.6119    1.5400 C   0  0  0  0  0  0  0  0  0  0  0  0
   -0.4387   -1.0084    2.6979 N   0  0  0  0  0  0  0  0  0  0  0  0
   -0.5571   -1.1066    0.3071 O   0  0  0  0  0  0  0  0  0  0  0  0
    0.7246    2.4495   -1.4014 H   0  0  0  0  0  0  0  0  0  0  0  0
   -0.1503    2.2812   -2.9266 H   0  0  0  0  0  0  0  0  0  0  0  0
   -1.0381    2.5953   -1.4277 H   0  0  0  0  0  0  0  0  0  0  0  0
   -1.2153    0.1043   -2.0210 H   0  0  0  0  0  0  0  0  0  0  0  0
    0.8106   -1.3323   -2.0757 H   0  0  0  0  0  0  0  0  0  0  0  0
    1.8930    0.1135   -1.7848 H   0  0  0  0  0  0  0  0  0  0  0  0
    1.7195    0.4657    1.1675 H   0  0  0  0  0  0  0  0  0  0  0  0
    0.2795    1.5213    1.1942 H   0  0  0  0  0  0  0  0  0  0  0  0
   -1.0422   -1.8321    2.6768 H   0  0  0  0  0  0  0  0  0  0  0  0
  1  2  1  0  0  0  0
  1 11  1  0  0  0  0
  1  9  1  0  0  0  0
  2  4  1  1  0  0  0
  3  2  1  0  0  0  0
  3  4  1  0  0  0  0
  4  8  1  1  0  0  0
  4  5  1  0  0  0  0
  5 15  1  0  0  0  0
  5 16  1  0  0  0  0
  5  6  1  0  0  0  0
  6  7  2  0  0  0  0
  8  6  1  0  0  0  0
 10  1  1  0  0  0  0
 12  2  1  0  0  0  0
 13  3  1  0  0  0  0
 14  3  1  0  0  0  0
 17  7  1  0  0  0  0
M  END
