title
 OpenBabel02282109583D

 17 18  0  0  1  0  0  0  0  0999 V2000
   -0.6787    2.1422   -1.6461 C   0  0  0  0  0  0  0  0  0  0  0  0
   -0.5978    0.6339   -1.5691 C   0  0  1  0  0  0  0  0  0  0  0  0
    0.7216   -0.0924   -1.8186 C   0  0  0  0  0  0  0  0  0  0  0  0
    0.1191   -0.0529   -0.4491 C   0  0  1  0  0  0  0  0  0  0  0  0
    0.6877    0.5241    0.8586 C   0  0  0  0  0  0  0  0  0  0  0  0
    0.1062   -0.7542    1.5243 C   0  0  0  0  0  0  0  0  0  0  0  0
    0.0575   -1.2113    2.6337 O   0  0  0  0  0  0  0  0  0  0  0  0
   -0.3619   -1.1961    0.3080 N   0  0  0  0  0  0  0  0  0  0  0  0
    0.2290    2.6068   -1.2470 H   0  0  0  0  0  0  0  0  0  0  0  0
   -0.7942    2.4790   -2.6820 H   0  0  0  0  0  0  0  0  0  0  0  0
   -1.5288    2.5268   -1.0720 H   0  0  0  0  0  0  0  0  0  0  0  0
   -1.4796    0.1134   -1.9376 H   0  0  0  0  0  0  0  0  0  0  0  0
    0.6948   -1.0283   -2.3675 H   0  0  0  0  0  0  0  0  0  0  0  0
    1.6071    0.5085   -2.0048 H   0  0  0  0  0  0  0  0  0  0  0  0
    1.7752    0.5999    0.9123 H   0  0  0  0  0  0  0  0  0  0  0  0
    0.2308    1.4523    1.2072 H   0  0  0  0  0  0  0  0  0  0  0  0
   -0.8861   -2.0179    0.0465 H   0  0  0  0  0  0  0  0  0  0  0  0
  1  2  1  0  0  0  0
  1  9  1  0  0  0  0
  1 11  1  0  0  0  0
  2  4  1  1  0  0  0
  3  2  1  0  0  0  0
  4  3  1  6  0  0  0
  4  8  1  0  0  0  0
  4  5  1  0  0  0  0
  5 15  1  0  0  0  0
  5 16  1  0  0  0  0
  5  6  1  0  0  0  0
  6  7  2  0  0  0  0
  8  6  1  0  0  0  0
 10  1  1  0  0  0  0
 12  2  1  0  0  0  0
 13  3  1  0  0  0  0
 14  3  1  0  0  0  0
 17  8  1  0  0  0  0
M  END
