title
 OpenBabel02282109583D

 16 17  0  0  1  0  0  0  0  0999 V2000
   -0.2602    2.0758   -1.8444 C   0  0  0  0  0  0  0  0  0  0  0  0
   -0.3515    0.5829   -1.6213 C   0  0  1  0  0  0  0  0  0  0  0  0
    0.8956   -0.3001   -1.6735 C   0  0  0  0  0  0  0  0  0  0  0  0
    0.1917   -0.0471   -0.3875 C   0  0  1  0  0  0  0  0  0  0  0  0
    0.6627    0.5349    0.9362 C   0  0  0  0  0  0  0  0  0  0  0  0
   -0.1342   -0.6347    1.5245 C   0  0  0  0  0  0  0  0  0  0  0  0
   -0.3974   -1.0794    2.5936 O   0  0  0  0  0  0  0  0  0  0  0  0
   -0.5272   -1.1107    0.2952 O   0  0  0  0  0  0  0  0  0  0  0  0
    0.6570    2.4866   -1.4091 H   0  0  0  0  0  0  0  0  0  0  0  0
   -0.2523    2.3122   -2.9135 H   0  0  0  0  0  0  0  0  0  0  0  0
   -1.1088    2.5996   -1.3916 H   0  0  0  0  0  0  0  0  0  0  0  0
   -1.2526    0.1099   -2.0031 H   0  0  0  0  0  0  0  0  0  0  0  0
    0.7986   -1.2875   -2.1112 H   0  0  0  0  0  0  0  0  0  0  0  0
    1.8588    0.1765   -1.8305 H   0  0  0  0  0  0  0  0  0  0  0  0
    1.7347    0.4915    1.1375 H   0  0  0  0  0  0  0  0  0  0  0  0
    0.2739    1.5194    1.2038 H   0  0  0  0  0  0  0  0  0  0  0  0
  1  2  1  0  0  0  0
  1  9  1  0  0  0  0
  1 11  1  0  0  0  0
  2  4  1  1  0  0  0
  3  2  1  0  0  0  0
  3  4  1  0  0  0  0
  4  8  1  1  0  0  0
  4  5  1  0  0  0  0
  5 15  1  0  0  0  0
  5 16  1  0  0  0  0
  5  6  1  0  0  0  0
  6  7  2  0  0  0  0
  8  6  1  0  0  0  0
 10  1  1  0  0  0  0
 12  2  1  0  0  0  0
 13  3  1  0  0  0  0
 14  3  1  0  0  0  0
M  END
