title
 OpenBabel02282109583D

 17 18  0  0  1  0  0  0  0  0999 V2000
   -0.3489    2.0084   -1.8747 C   0  0  0  0  0  0  0  0  0  0  0  0
   -0.3657    0.5147   -1.6657 C   0  0  1  0  0  0  0  0  0  0  0  0
    0.9484   -0.1675   -1.6404 N   0  0  0  0  0  0  0  0  0  0  0  0
    0.1334   -0.1300   -0.4300 C   0  0  0  0  0  0  0  0  0  0  0  0
    0.5972    0.5263    0.8835 C   0  0  0  0  0  0  0  0  0  0  0  0
   -0.1177   -0.6177    1.6265 C   0  0  0  0  0  0  0  0  0  0  0  0
   -0.3347   -0.8526    2.7783 O   0  0  0  0  0  0  0  0  0  0  0  0
   -0.4825   -1.3344    0.3081 C   0  0  0  0  0  0  0  0  0  0  0  0
    0.4968    2.4607   -1.3499 H   0  0  0  0  0  0  0  0  0  0  0  0
   -0.2523    2.2506   -2.9382 H   0  0  0  0  0  0  0  0  0  0  0  0
   -1.2738    2.4660   -1.5067 H   0  0  0  0  0  0  0  0  0  0  0  0
   -1.1766   -0.0099   -2.1713 H   0  0  0  0  0  0  0  0  0  0  0  0
    0.8847   -1.0818   -2.0822 H   0  0  0  0  0  0  0  0  0  0  0  0
    1.6828    0.5243    1.0274 H   0  0  0  0  0  0  0  0  0  0  0  0
    0.2164    1.5279    1.1050 H   0  0  0  0  0  0  0  0  0  0  0  0
   -1.5495   -1.5276    0.1610 H   0  0  0  0  0  0  0  0  0  0  0  0
    0.0644   -2.2766    0.1823 H   0  0  0  0  0  0  0  0  0  0  0  0
  1  2  1  0  0  0  0
  1 11  1  0  0  0  0
  1  9  1  0  0  0  0
  2 12  1  6  0  0  0
  2  3  1  0  0  0  0
  2  4  1  0  0  0  0
  3  4  1  0  0  0  0
  4  8  1  0  0  0  0
  4  5  1  0  0  0  0
  5 14  1  0  0  0  0
  5 15  1  0  0  0  0
  5  6  1  0  0  0  0
  6  7  2  0  0  0  0
  8  6  1  0  0  0  0
 10  1  1  0  0  0  0
 13  3  1  0  0  0  0
 16  8  1  0  0  0  0
 17  8  1  0  0  0  0
M  END
