title
 OpenBabel02282109583D

 16 17  0  0  1  0  0  0  0  0999 V2000
   -0.2927    2.0129   -1.8921 C   0  0  0  0  0  0  0  0  0  0  0  0
   -0.3757    0.5290   -1.6522 C   0  0  1  0  0  0  0  0  0  0  0  0
    0.8720   -0.1903   -1.5862 O   0  0  0  0  0  0  0  0  0  0  0  0
    0.0814   -0.1088   -0.4157 C   0  0  0  0  0  0  0  0  0  0  0  0
    0.5720    0.5302    0.8963 C   0  0  0  0  0  0  0  0  0  0  0  0
   -0.1150   -0.6397    1.6322 C   0  0  0  0  0  0  0  0  0  0  0  0
   -0.3232   -0.8823    2.7837 O   0  0  0  0  0  0  0  0  0  0  0  0
   -0.4742   -1.3472    0.3094 C   0  0  0  0  0  0  0  0  0  0  0  0
    0.4820    2.4674   -1.2693 H   0  0  0  0  0  0  0  0  0  0  0  0
   -0.0538    2.2187   -2.9404 H   0  0  0  0  0  0  0  0  0  0  0  0
   -1.2517    2.4918   -1.6664 H   0  0  0  0  0  0  0  0  0  0  0  0
   -1.1444    0.0053   -2.2242 H   0  0  0  0  0  0  0  0  0  0  0  0
    1.6619    0.5191    1.0050 H   0  0  0  0  0  0  0  0  0  0  0  0
    0.2028    1.5283    1.1491 H   0  0  0  0  0  0  0  0  0  0  0  0
   -1.5312   -1.5909    0.1710 H   0  0  0  0  0  0  0  0  0  0  0  0
    0.1226   -2.2498    0.1384 H   0  0  0  0  0  0  0  0  0  0  0  0
  1 11  1  0  0  0  0
  1  2  1  0  0  0  0
  1  9  1  0  0  0  0
  2 12  1  6  0  0  0
  2  3  1  0  0  0  0
  2  4  1  0  0  0  0
  3  4  1  0  0  0  0
  4  8  1  0  0  0  0
  4  5  1  0  0  0  0
  5 13  1  0  0  0  0
  5 14  1  0  0  0  0
  5  6  1  0  0  0  0
  6  7  2  0  0  0  0
  8  6  1  0  0  0  0
 10  1  1  0  0  0  0
 15  8  1  0  0  0  0
 16  8  1  0  0  0  0
M  END
