title
 OpenBabel02282109583D

 17 18  0  0  0  0  0  0  0  0999 V2000
   -0.4527    1.7854   -1.8869 C   0  0  0  0  0  0  0  0  0  0  0  0
   -0.3571    0.3448   -1.7014 N   0  0  0  0  0  0  0  0  0  0  0  0
    0.9911   -0.2258   -1.6602 C   0  0  0  0  0  0  0  0  0  0  0  0
    0.1547   -0.1464   -0.4375 C   0  0  0  0  0  0  0  0  0  0  0  0
    0.4566    0.6642    0.8433 C   0  0  0  0  0  0  0  0  0  0  0  0
   -0.1035   -0.5335    1.6395 C   0  0  0  0  0  0  0  0  0  0  0  0
   -0.1693   -0.7857    2.8062 O   0  0  0  0  0  0  0  0  0  0  0  0
   -0.5034   -1.2876    0.3576 C   0  0  0  0  0  0  0  0  0  0  0  0
    0.3600    2.3514   -1.4026 H   0  0  0  0  0  0  0  0  0  0  0  0
   -0.4322    2.0076   -2.9581 H   0  0  0  0  0  0  0  0  0  0  0  0
   -1.4068    2.1431   -1.4861 H   0  0  0  0  0  0  0  0  0  0  0  0
    1.1235   -1.1700   -2.1828 H   0  0  0  0  0  0  0  0  0  0  0  0
    1.8371    0.4583   -1.7301 H   0  0  0  0  0  0  0  0  0  0  0  0
    1.4997    0.9140    1.0566 H   0  0  0  0  0  0  0  0  0  0  0  0
   -0.1482    1.5698    0.9675 H   0  0  0  0  0  0  0  0  0  0  0  0
   -1.5868   -1.3639    0.2163 H   0  0  0  0  0  0  0  0  0  0  0  0
   -0.0656   -2.2850    0.2554 H   0  0  0  0  0  0  0  0  0  0  0  0
  1  2  1  0  0  0  0
  1 11  1  0  0  0  0
  1  9  1  0  0  0  0
  2  3  1  0  0  0  0
  2  4  1  0  0  0  0
  3  4  1  0  0  0  0
  4  8  1  0  0  0  0
  4  5  1  0  0  0  0
  5 15  1  0  0  0  0
  5 14  1  0  0  0  0
  5  6  1  0  0  0  0
  6  7  2  0  0  0  0
  8  6  1  0  0  0  0
 10  1  1  0  0  0  0
 12  3  1  0  0  0  0
 13  3  1  0  0  0  0
 16  8  1  0  0  0  0
 17  8  1  0  0  0  0
M  END
