17
title
C -0.45273113 1.7854007 -1.8868855
N -0.35706198 0.3447837 -1.7014292
C 0.99107915 -0.22577004 -1.6601698
C 0.15473063 -0.1464238 -0.4374995
C 0.4566329 0.66422635 0.84325206
C -0.10354565 -0.53353345 1.6395296
O -0.16929962 -0.78568244 2.8062391
C -0.5033501 -1.2875813 0.35756353
H 0.36002403 2.3513758 -1.4025718
H -0.4322033 2.007572 -2.958111
H -1.4068363 2.143051 -1.4861128
H 1.1235253 -1.1700448 -2.1827784
H 1.8370768 0.45825997 -1.7300795
H 1.499742 0.91403884 1.0566047
H -0.14819862 1.5697551 0.9675466
H -1.5867726 -1.363856 0.21625616
H -0.065572456 -2.285045 0.25536087
