title
 OpenBabel02282109583D

 15 16  0  0  1  0  0  0  0  0999 V2000
    1.5224    1.9080    0.7304 O   0  0  0  0  0  0  0  0  0  0  0  0
    1.5333    0.5237    0.5621 C   0  0  1  0  0  0  0  0  0  0  0  0
    0.9327   -0.3880    1.6322 C   0  0  0  0  0  0  0  0  0  0  0  0
    0.2123   -0.1143    0.3536 C   0  0  1  0  0  0  0  0  0  0  0  0
   -1.1392    0.5241    0.0722 C   0  0  0  0  0  0  0  0  0  0  0  0
   -1.2478   -0.5859   -0.9565 C   0  0  0  0  0  0  0  0  0  0  0  0
   -2.1053   -0.9424   -1.7960 N   0  0  0  0  0  0  0  0  0  0  0  0
   -0.0060   -1.1287   -0.6523 O   0  0  0  0  0  0  0  0  0  0  0  0
    2.1988    2.1388    1.3762 H   0  0  0  0  0  0  0  0  0  0  0  0
    2.3695    0.1154   -0.0057 H   0  0  0  0  0  0  0  0  0  0  0  0
    1.3856   -1.3645    1.7675 H   0  0  0  0  0  0  0  0  0  0  0  0
    0.5383    0.0751    2.5313 H   0  0  0  0  0  0  0  0  0  0  0  0
   -1.8750    0.4733    0.8765 H   0  0  0  0  0  0  0  0  0  0  0  0
   -1.1041    1.5347   -0.3369 H   0  0  0  0  0  0  0  0  0  0  0  0
   -1.7966   -1.7648   -2.3170 H   0  0  0  0  0  0  0  0  0  0  0  0
  1  9  1  0  0  0  0
  2  4  1  6  0  0  0
  2  1  1  0  0  0  0
  2  3  1  0  0  0  0
  3 11  1  0  0  0  0
  3 12  1  0  0  0  0
  4  8  1  6  0  0  0
  4  3  1  0  0  0  0
  5  4  1  0  0  0  0
  5 13  1  0  0  0  0
  6  8  1  0  0  0  0
  6  5  1  0  0  0  0
  7  6  2  0  0  0  0
 10  2  1  0  0  0  0
 14  5  1  0  0  0  0
 15  7  1  0  0  0  0
M  END
