16
title
O 1.5313303 1.9080288 0.5575313
C 1.589085 0.5124563 0.5703885
C 0.9728217 -0.25395077 1.720269
C 0.28966817 -0.19530495 0.3791935
C -1.037755 0.5104125 0.053170253
C -1.3078024 -0.6179953 -0.960654
O -2.191993 -0.84469205 -1.7324271
C 0.0032366277 -1.3496987 -0.5974579
H 2.1542113 2.2420497 1.2114669
H 2.4713767 0.08260795 0.093425974
H 1.4379821 -1.1840789 2.0323162
H 0.5360415 0.33317357 2.522373
H -1.7739727 0.5537291 0.8627162
H -0.9431436 1.5081753 -0.3853711
H 0.70193917 -1.4720043 -1.4316324
H -0.16648594 -2.3295455 -0.13799937
