15
title
O 1.5739557 2.0002642 0.19820943
C 1.6234968 0.60821235 0.27669382
C 1.1988108 -0.10289999 1.5584933
C 0.31467286 -0.09649118 0.34478492
C -1.0823396 0.512478 0.16376159
C -1.3759171 -0.7491897 -0.6933683
O -2.2987428 -1.1730114 -1.3324816
N -0.10887132 -1.2368982 -0.4435332
H 2.3015165 2.3582456 0.7184595
H 2.4183836 0.13441558 -0.30232653
H 1.7199935 -1.0162383 1.8282516
H 0.8929799 0.51678413 2.3956456
H -1.6870455 0.5928906 1.0684912
H -1.1071404 1.4512775 -0.39080372
H 0.39055982 -2.030623 -0.8164738
