title
 OpenBabel02282109583D

 20 21  0  0  1  0  0  0  0  0999 V2000
   -0.1472    1.9522   -2.0666 C   0  0  0  0  0  0  0  0  0  0  0  0
   -0.1600    0.4581   -1.8293 C   0  0  1  0  0  0  0  0  0  0  0  0
    1.1292   -0.2956   -1.5766 C   0  0  0  0  0  0  0  0  0  0  0  0
    0.1250   -0.1111   -0.4715 C   0  0  1  0  0  0  0  0  0  0  0  0
    0.3883    0.6215    0.8526 C   0  0  0  0  0  0  0  0  0  0  0  0
    0.0772   -0.7211    1.5767 C   0  0  1  0  0  0  0  0  0  0  0  0
   -0.6412   -0.7166    2.7830 O   0  0  0  0  0  0  0  0  0  0  0  0
   -0.5930   -1.2446    0.2730 C   0  0  0  0  0  0  0  0  0  0  0  0
    0.6242    2.4421   -1.4634 H   0  0  0  0  0  0  0  0  0  0  0  0
    0.0566    2.1859   -3.1174 H   0  0  0  0  0  0  0  0  0  0  0  0
   -1.1094    2.4079   -1.8055 H   0  0  0  0  0  0  0  0  0  0  0  0
   -0.9065   -0.0816   -2.4093 H   0  0  0  0  0  0  0  0  0  0  0  0
    1.2457   -1.2843   -2.0099 H   0  0  0  0  0  0  0  0  0  0  0  0
    2.0492    0.2807   -1.5287 H   0  0  0  0  0  0  0  0  0  0  0  0
    1.3705    1.0715    1.0179 H   0  0  0  0  0  0  0  0  0  0  0  0
   -0.3830    1.3718    1.0701 H   0  0  0  0  0  0  0  0  0  0  0  0
    0.9989   -1.2704    1.7865 H   0  0  0  0  0  0  0  0  0  0  0  0
   -1.4635   -0.2369    2.6365 H   0  0  0  0  0  0  0  0  0  0  0  0
   -1.6801   -1.0946    0.3039 H   0  0  0  0  0  0  0  0  0  0  0  0
   -0.3899   -2.2762   -0.0265 H   0  0  0  0  0  0  0  0  0  0  0  0
  1  2  1  0  0  0  0
  1 11  1  0  0  0  0
  1  9  1  0  0  0  0
  2  3  1  0  0  0  0
  2  4  1  1  0  0  0
  3 14  1  0  0  0  0
  4  3  1  6  0  0  0
  4  8  1  0  0  0  0
  4  5  1  0  0  0  0
  5 15  1  0  0  0  0
  5 16  1  0  0  0  0
  5  6  1  0  0  0  0
  6 17  1  1  0  0  0
  6  7  1  0  0  0  0
  8 19  1  0  0  0  0
  8  6  1  0  0  0  0
 10  1  1  0  0  0  0
 12  2  1  0  0  0  0
 13  3  1  0  0  0  0
 18  7  1  0  0  0  0
 20  8  1  0  0  0  0
M  END
