title
 OpenBabel02282109583D

 20 21  0  0  1  0  0  0  0  0999 V2000
   -0.9365    2.1390   -1.1636 C   0  0  0  0  0  0  0  0  0  0  0  0
   -0.8649    0.6360   -1.2243 C   0  0  1  0  0  0  0  0  0  0  0  0
    0.2886    0.0683   -1.8710 O   0  0  0  0  0  0  0  0  0  0  0  0
    0.1228   -0.1546   -0.4810 C   0  0  1  0  0  0  0  0  0  0  0  0
    1.1083    0.2884    0.6039 C   0  0  0  0  0  0  0  0  0  0  0  0
    0.6710   -0.9624    1.4356 C   0  0  1  0  0  0  0  0  0  0  0  0
   -0.2729   -0.6487    2.5913 C   0  0  0  0  0  0  0  0  0  0  0  0
   -0.0342   -1.5340    0.1621 C   0  0  0  0  0  0  0  0  0  0  0  0
    0.0238    2.5643   -0.8615 H   0  0  0  0  0  0  0  0  0  0  0  0
   -1.1995    2.5514   -2.1433 H   0  0  0  0  0  0  0  0  0  0  0  0
   -1.7028    2.4592   -0.4487 H   0  0  0  0  0  0  0  0  0  0  0  0
   -1.7994    0.1368   -1.4911 H   0  0  0  0  0  0  0  0  0  0  0  0
    2.1432    0.2289    0.2549 H   0  0  0  0  0  0  0  0  0  0  0  0
    0.9477    1.2678    1.0643 H   0  0  0  0  0  0  0  0  0  0  0  0
    1.5053   -1.5717    1.7919 H   0  0  0  0  0  0  0  0  0  0  0  0
   -1.1180   -0.0355    2.2568 H   0  0  0  0  0  0  0  0  0  0  0  0
   -0.6816   -1.5659    3.0291 H   0  0  0  0  0  0  0  0  0  0  0  0
    0.2426   -0.0978    3.3856 H   0  0  0  0  0  0  0  0  0  0  0  0
   -1.0504   -1.9192    0.2873 H   0  0  0  0  0  0  0  0  0  0  0  0
    0.5678   -2.2867   -0.3552 H   0  0  0  0  0  0  0  0  0  0  0  0
  1  9  1  0  0  0  0
  1 11  1  0  0  0  0
  2  1  1  0  0  0  0
  2  4  1  1  0  0  0
  3  2  1  0  0  0  0
  4  3  1  6  0  0  0
  4  8  1  0  0  0  0
  4  5  1  0  0  0  0
  5 14  1  0  0  0  0
  5  6  1  0  0  0  0
  6 15  1  1  0  0  0
  6  7  1  0  0  0  0
  7 17  1  0  0  0  0
  7 18  1  0  0  0  0
  8 19  1  0  0  0  0
  8  6  1  0  0  0  0
 10  1  1  0  0  0  0
 12  2  1  0  0  0  0
 13  5  1  0  0  0  0
 16  7  1  0  0  0  0
 20  8  1  0  0  0  0
M  END
