18
title
C -0.87186515 2.1223419 -1.2542963
C -0.8128376 0.6185767 -1.28708
O 0.36049742 0.025181692 -1.8777666
C 0.13657399 -0.16473128 -0.49279597
C 1.0850291 0.28945795 0.6219033
C 0.59682816 -0.92277 1.4578
O -0.34221563 -0.46915033 2.4139683
C -0.052419353 -1.5307988 0.17373429
H 0.0837009 2.5445235 -0.93337023
H -1.1054181 2.5206616 -2.2472456
H -1.652964 2.4586983 -0.5637485
H -1.7408689 0.12231443 -1.5796462
H 2.1335614 0.20362519 0.32464728
H 0.91106063 1.2647272 1.0812072
H 1.3808893 -1.5300993 1.9262546
H -0.7713747 -1.240849 2.7974713
H -1.0723165 -1.9107009 0.28026924
H 0.5747083 -2.296389 -0.29346862
