title
 OpenBabel02282109583D

 19 20  0  0  1  0  0  0  0  0999 V2000
   -0.6915    2.1488   -1.6830 C   0  0  0  0  0  0  0  0  0  0  0  0
   -0.6973    0.6487   -1.5431 C   0  0  1  0  0  0  0  0  0  0  0  0
    0.5658   -0.0260   -1.7109 O   0  0  0  0  0  0  0  0  0  0  0  0
   -0.0464   -0.0442   -0.4346 C   0  0  0  0  0  0  0  0  0  0  0  0
    0.6361    0.4696    0.8353 C   0  0  0  0  0  0  0  0  0  0  0  0
    0.5333   -0.8985    1.3923 N   0  0  0  0  0  0  0  0  0  0  0  0
    0.1041   -1.0487    2.7631 C   0  0  0  0  0  0  0  0  0  0  0  0
   -0.3881   -1.3316    0.3171 C   0  0  0  0  0  0  0  0  0  0  0  0
    0.1508    2.5884   -1.1426 H   0  0  0  0  0  0  0  0  0  0  0  0
   -0.6113    2.4378   -2.7360 H   0  0  0  0  0  0  0  0  0  0  0  0
   -1.6210    2.5737   -1.2882 H   0  0  0  0  0  0  0  0  0  0  0  0
   -1.5281    0.1376   -2.0348 H   0  0  0  0  0  0  0  0  0  0  0  0
    1.6597    0.8438    0.7275 H   0  0  0  0  0  0  0  0  0  0  0  0
    0.0309    1.2190    1.3729 H   0  0  0  0  0  0  0  0  0  0  0  0
   -0.8673   -0.5593    2.9754 H   0  0  0  0  0  0  0  0  0  0  0  0
    0.0070   -2.1116    3.0078 H   0  0  0  0  0  0  0  0  0  0  0  0
    0.8530   -0.6189    3.4367 H   0  0  0  0  0  0  0  0  0  0  0  0
   -1.4455   -1.3794    0.6263 H   0  0  0  0  0  0  0  0  0  0  0  0
   -0.1128   -2.2721   -0.1722 H   0  0  0  0  0  0  0  0  0  0  0  0
  1  2  1  0  0  0  0
  1 11  1  0  0  0  0
  1  9  1  0  0  0  0
  2 12  1  6  0  0  0
  2  4  1  0  0  0  0
  3  2  1  0  0  0  0
  3  4  1  0  0  0  0
  4  8  1  0  0  0  0
  4  5  1  0  0  0  0
  5 14  1  0  0  0  0
  5  6  1  0  0  0  0
  6  7  1  0  0  0  0
  7 15  1  0  0  0  0
  7 16  1  0  0  0  0
  7 17  1  0  0  0  0
  8 18  1  0  0  0  0
  8  6  1  0  0  0  0
 10  1  1  0  0  0  0
 13  5  1  0  0  0  0
 19  8  1  0  0  0  0
M  END
