title
 OpenBabel02282109583D

 16 17  0  0  1  0  0  0  0  0999 V2000
    1.0670    2.0412    0.4006 C   0  0  0  0  0  0  0  0  0  0  0  0
    1.1710    0.6064   -0.0580 C   0  0  0  0  0  0  0  0  0  0  0  0
    2.1962    0.0821   -0.4286 O   0  0  0  0  0  0  0  0  0  0  0  0
   -0.1056   -0.1910   -0.0365 C   0  0  1  0  0  0  0  0  0  0  0  0
   -0.8885   -0.8127   -1.2283 C   0  0  0  0  0  0  0  0  0  0  0  0
   -1.7215   -0.9509    0.0666 C   0  0  1  0  0  0  0  0  0  0  0  0
   -0.4641   -1.4372    0.8228 C   0  0  0  0  0  0  0  0  0  0  0  0
   -1.3668    0.4472    0.4188 O   0  0  0  0  0  0  0  0  0  0  0  0
    2.0435    2.5229    0.3440 H   0  0  0  0  0  0  0  0  0  0  0  0
    0.3371    2.5760   -0.2168 H   0  0  0  0  0  0  0  0  0  0  0  0
    0.6795    2.0759    1.4248 H   0  0  0  0  0  0  0  0  0  0  0  0
   -1.2686   -0.0918   -1.9525 H   0  0  0  0  0  0  0  0  0  0  0  0
   -0.4796   -1.7153   -1.6858 H   0  0  0  0  0  0  0  0  0  0  0  0
   -2.7631   -1.2437    0.1929 H   0  0  0  0  0  0  0  0  0  0  0  0
   -0.0194   -2.3924    0.5381 H   0  0  0  0  0  0  0  0  0  0  0  0
   -0.4716   -1.2645    1.8993 H   0  0  0  0  0  0  0  0  0  0  0  0
  1 11  1  0  0  0  0
  2  1  1  0  0  0  0
  3  2  2  0  0  0  0
  4  2  1  6  0  0  0
  4  8  1  0  0  0  0
  4  7  1  0  0  0  0
  5  4  1  0  0  0  0
  5  6  1  0  0  0  0
  6 14  1  1  0  0  0
  6  8  1  0  0  0  0
  6  7  1  0  0  0  0
  7 16  1  0  0  0  0
  9  1  1  0  0  0  0
 10  1  1  0  0  0  0
 12  5  1  0  0  0  0
 13  5  1  0  0  0  0
 15  7  1  0  0  0  0
M  END
