title
 OpenBabel02282109583D

 17 18  0  0  1  0  0  0  0  0999 V2000
   -0.0394    2.1353    1.1641 C   0  0  0  0  0  0  0  0  0  0  0  0
    0.0097    0.6201    1.2083 C   0  0  0  0  0  0  0  0  0  0  0  0
    0.0549   -0.0016    2.2467 O   0  0  0  0  0  0  0  0  0  0  0  0
    0.0000   -0.1002   -0.1163 C   0  0  1  0  0  0  0  0  0  0  0  0
    1.0060   -0.0265   -1.2984 C   0  0  0  0  0  0  0  0  0  0  0  0
   -0.0101   -1.0632   -1.8068 N   0  0  1  0  0  0  0  0  0  0  0  0
    0.0427   -1.6194   -0.3662 C   0  0  0  0  0  0  0  0  0  0  0  0
   -1.0646   -0.0929   -1.2482 C   0  0  0  0  0  0  0  0  0  0  0  0
    0.8148    2.5276    0.6003 H   0  0  0  0  0  0  0  0  0  0  0  0
   -0.9430    2.4719    0.6431 H   0  0  0  0  0  0  0  0  0  0  0  0
   -0.0274    2.5373    2.1779 H   0  0  0  0  0  0  0  0  0  0  0  0
    1.0361    0.8863   -1.8994 H   0  0  0  0  0  0  0  0  0  0  0  0
    2.0068   -0.4352   -1.1361 H   0  0  0  0  0  0  0  0  0  0  0  0
    0.9691   -2.1505   -0.1372 H   0  0  0  0  0  0  0  0  0  0  0  0
   -0.8355   -2.2084   -0.0935 H   0  0  0  0  0  0  0  0  0  0  0  0
   -2.0281   -0.5646   -1.0383 H   0  0  0  0  0  0  0  0  0  0  0  0
   -1.1821    0.8152   -1.8457 H   0  0  0  0  0  0  0  0  0  0  0  0
  1  2  1  0  0  0  0
  1 11  1  0  0  0  0
  2  3  2  0  0  0  0
  4  2  1  1  0  0  0
  5 13  1  0  0  0  0
  5  4  1  0  0  0  0
  6  5  1  1  0  0  0
  6  8  1  0  0  0  0
  6  7  1  0  0  0  0
  7 14  1  0  0  0  0
  7  4  1  0  0  0  0
  7 15  1  0  0  0  0
  8 16  1  0  0  0  0
  8  4  1  0  0  0  0
  9  1  1  0  0  0  0
 10  1  1  0  0  0  0
 12  5  1  0  0  0  0
 17  8  1  0  0  0  0
M  END
