title
 OpenBabel02282109583D

 17 18  0  0  1  0  0  0  0  0999 V2000
    1.2957    1.7311    0.6659 N   0  0  0  0  0  0  0  0  0  0  0  0
    1.1091    0.6819   -0.1863 C   0  0  0  0  0  0  0  0  0  0  0  0
    1.9039    0.3879   -1.0594 O   0  0  0  0  0  0  0  0  0  0  0  0
   -0.1612   -0.0979    0.0280 C   0  0  1  0  0  0  0  0  0  0  0  0
   -1.2672   -0.3348   -1.0475 C   0  0  0  0  0  0  0  0  0  0  0  0
   -1.7145   -1.1429    0.2039 C   0  0  1  0  0  0  0  0  0  0  0  0
   -0.2417   -1.6284    0.3238 C   0  0  0  0  0  0  0  0  0  0  0  0
   -1.3127    0.0893    1.0658 C   0  0  0  0  0  0  0  0  0  0  0  0
    2.1285    2.2886    0.5691 H   0  0  0  0  0  0  0  0  0  0  0  0
    0.6309    1.9625    1.3819 H   0  0  0  0  0  0  0  0  0  0  0  0
   -1.8727    0.5348   -1.3178 H   0  0  0  0  0  0  0  0  0  0  0  0
   -0.9635   -0.9065   -1.9266 H   0  0  0  0  0  0  0  0  0  0  0  0
   -2.6171   -1.7442    0.3118 H   0  0  0  0  0  0  0  0  0  0  0  0
    0.1309   -2.2869   -0.4632 H   0  0  0  0  0  0  0  0  0  0  0  0
    0.0954   -1.9476    1.3139 H   0  0  0  0  0  0  0  0  0  0  0  0
   -1.0678   -0.1071    2.1142 H   0  0  0  0  0  0  0  0  0  0  0  0
   -1.9330    0.9843    0.9572 H   0  0  0  0  0  0  0  0  0  0  0  0
  1 10  1  0  0  0  0
  2  1  1  0  0  0  0
  3  2  2  0  0  0  0
  4  2  1  6  0  0  0
  4  7  1  0  0  0  0
  4  8  1  0  0  0  0
  5  4  1  0  0  0  0
  5  6  1  0  0  0  0
  6 13  1  1  0  0  0
  6  7  1  0  0  0  0
  6  8  1  0  0  0  0
  7 15  1  0  0  0  0
  8 16  1  0  0  0  0
  9  1  1  0  0  0  0
 11  5  1  0  0  0  0
 12  5  1  0  0  0  0
 14  7  1  0  0  0  0
 17  8  1  0  0  0  0
M  END
