15
title
N 1.0363264 1.8428512 0.46406284
C 1.1688032 0.59840655 -0.060169205
O 2.1978734 0.12979466 -0.50651467
C -0.112450175 -0.19199997 -0.04744421
C -0.95635694 -0.70190585 -1.2455646
C -1.7335738 -0.937165 0.070238724
C -0.4488253 -1.4940276 0.72627336
O -1.342534 0.4264771 0.51741767
H 1.8396747 2.4480727 0.4996577
H 0.14755984 2.1576023 0.81546813
H -1.3561686 0.08010876 -1.8914607
H -0.58436555 -1.569951 -1.7921225
H -2.7728872 -1.2258964 0.22173914
H -0.034092117 -2.428915 0.34606946
H -0.4030736 -1.4077606 1.8121067
