16
title
N 1.2879332 1.7912216 -0.6362873
C 1.1400416 0.7050375 0.17442852
O 1.9651293 0.37478197 1.0048813
C -0.13589595 -0.07939858 -0.024720151
C -1.3441675 0.091628544 -0.9799062
N -1.7391155 -1.1676694 -0.18890132
C -0.2660341 -1.5811763 -0.3727095
C -1.213964 -0.3976032 1.038262
H 2.1200616 2.3517597 -0.54729223
H 0.5961275 2.0496466 -1.3170347
H -2.0200686 0.9359001 -0.8145995
H -1.1923013 -0.09762413 -2.0467134
H -0.0230603 -1.89187 -1.3924059
H 0.084642075 -2.3050172 0.3652888
H -0.92861485 -1.0398742 1.8735033
H -1.8710468 0.41552022 1.3582958
