title
 OpenBabel02282109583D

 21 22  0  0  1  0  0  0  0  0999 V2000
    1.3395    1.9524   -0.1698 C   0  0  0  0  0  0  0  0  0  0  0  0
    1.3305    0.4167   -0.1546 C   0  0  0  0  0  0  0  0  0  0  0  0
    2.1331   -0.1356    1.0325 C   0  0  0  0  0  0  0  0  0  0  0  0
   -0.0872   -0.1227   -0.1556 C   0  0  1  0  0  0  0  0  0  0  0  0
   -1.2281    0.1149   -1.1779 C   0  0  0  0  0  0  0  0  0  0  0  0
   -1.9097   -0.8224   -0.1676 N   0  0  1  0  0  0  0  0  0  0  0  0
   -0.5792   -1.5922   -0.1967 C   0  0  0  0  0  0  0  0  0  0  0  0
   -1.2197    0.0504    0.8947 C   0  0  0  0  0  0  0  0  0  0  0  0
    2.3634    2.3372   -0.2123 H   0  0  0  0  0  0  0  0  0  0  0  0
    0.7959    2.3488   -1.0331 H   0  0  0  0  0  0  0  0  0  0  0  0
    0.8707    2.3563    0.7350 H   0  0  0  0  0  0  0  0  0  0  0  0
    1.8080    0.0647   -1.0811 H   0  0  0  0  0  0  0  0  0  0  0  0
    1.6959    0.1857    1.9850 H   0  0  0  0  0  0  0  0  0  0  0  0
    2.1559   -1.2300    1.0278 H   0  0  0  0  0  0  0  0  0  0  0  0
    3.1674    0.2217    1.0056 H   0  0  0  0  0  0  0  0  0  0  0  0
   -1.6854    1.1076   -1.2254 H   0  0  0  0  0  0  0  0  0  0  0  0
   -1.1249   -0.3216   -2.1761 H   0  0  0  0  0  0  0  0  0  0  0  0
   -0.4255   -2.1615   -1.1186 H   0  0  0  0  0  0  0  0  0  0  0  0
   -0.4211   -2.2185    0.6862 H   0  0  0  0  0  0  0  0  0  0  0  0
   -1.1110   -0.4489    1.8619 H   0  0  0  0  0  0  0  0  0  0  0  0
   -1.6762    1.0380    1.0074 H   0  0  0  0  0  0  0  0  0  0  0  0
  1  2  1  0  0  0  0
  1 11  1  0  0  0  0
  2  3  1  0  0  0  0
  3 13  1  0  0  0  0
  4  2  1  1  0  0  0
  4  8  1  0  0  0  0
  5  4  1  0  0  0  0
  6  5  1  6  0  0  0
  6  8  1  0  0  0  0
  7  6  1  0  0  0  0
  7  4  1  0  0  0  0
  7 19  1  0  0  0  0
  8 21  1  0  0  0  0
  8 20  1  0  0  0  0
  9  1  1  0  0  0  0
 10  1  1  0  0  0  0
 12  2  1  0  0  0  0
 14  3  1  0  0  0  0
 15  3  1  0  0  0  0
 16  5  1  0  0  0  0
 17  5  1  0  0  0  0
 18  7  1  0  0  0  0
M  END
