title
 OpenBabel02282109583D

 20 21  0  0  1  0  0  0  0  0999 V2000
    1.3325    1.9195   -0.2276 C   0  0  0  0  0  0  0  0  0  0  0  0
    1.2677    0.3912   -0.1999 C   0  0  1  0  0  0  0  0  0  0  0  0
    2.0283   -0.1440    0.8829 O   0  0  0  0  0  0  0  0  0  0  0  0
   -0.1499   -0.1348   -0.1662 C   0  0  1  0  0  0  0  0  0  0  0  0
   -1.3010    0.1207   -1.1897 C   0  0  0  0  0  0  0  0  0  0  0  0
   -1.9051   -0.8137   -0.1041 C   0  0  1  0  0  0  0  0  0  0  0  0
   -0.5855   -1.6318   -0.1685 C   0  0  0  0  0  0  0  0  0  0  0  0
   -1.2172    0.0873    0.9602 C   0  0  0  0  0  0  0  0  0  0  0  0
    2.3744    2.2501   -0.2307 H   0  0  0  0  0  0  0  0  0  0  0  0
    0.8351    2.3221   -1.1157 H   0  0  0  0  0  0  0  0  0  0  0  0
    0.8397    2.3459    0.6546 H   0  0  0  0  0  0  0  0  0  0  0  0
    1.7597   -0.0038   -1.0982 H   0  0  0  0  0  0  0  0  0  0  0  0
    1.6168    0.1608    1.6994 H   0  0  0  0  0  0  0  0  0  0  0  0
   -1.6995    1.1383   -1.2399 H   0  0  0  0  0  0  0  0  0  0  0  0
   -1.1688   -0.3064   -2.1882 H   0  0  0  0  0  0  0  0  0  0  0  0
   -2.9222   -1.2046   -0.0673 H   0  0  0  0  0  0  0  0  0  0  0  0
   -0.3976   -2.1912   -1.0897 H   0  0  0  0  0  0  0  0  0  0  0  0
   -0.3199   -2.2164    0.7157 H   0  0  0  0  0  0  0  0  0  0  0  0
   -1.0126   -0.3758    1.9306 H   0  0  0  0  0  0  0  0  0  0  0  0
   -1.6131    1.1006    1.0749 H   0  0  0  0  0  0  0  0  0  0  0  0
  1  2  1  0  0  0  0
  1 11  1  0  0  0  0
  2 12  1  6  0  0  0
  2  3  1  0  0  0  0
  3 13  1  0  0  0  0
  4  2  1  6  0  0  0
  4  8  1  0  0  0  0
  5  4  1  0  0  0  0
  5  6  1  0  0  0  0
  6 16  1  1  0  0  0
  6  8  1  0  0  0  0
  7  4  1  0  0  0  0
  7  6  1  0  0  0  0
  7 18  1  0  0  0  0
  8 20  1  0  0  0  0
  8 19  1  0  0  0  0
  9  1  1  0  0  0  0
 10  1  1  0  0  0  0
 14  5  1  0  0  0  0
 15  5  1  0  0  0  0
 17  7  1  0  0  0  0
M  END
