20
title
C 1.3324802 1.9194603 -0.22759615
C 1.2677423 0.39117327 -0.19988897
O 2.0283196 -0.14396116 0.8828519
C -0.14992106 -0.13482216 -0.16620348
C -1.3009866 0.12073323 -1.1897393
C -1.9050671 -0.8136719 -0.10409949
C -0.58549774 -1.6318055 -0.16853292
C -1.2172095 0.0872888 0.9601832
H 2.3743887 2.2501483 -0.23065354
H 0.83514214 2.3220508 -1.1156955
H 0.8396719 2.3458798 0.65455174
H 1.7597237 -0.0037571813 -1.0982363
H 1.6168118 0.1607734 1.6994456
H -1.6994573 1.138265 -1.2398828
H -1.1687559 -0.30641207 -2.1882293
H -2.9222124 -1.2046307 -0.0673107
H -0.3975513 -2.191235 -1.0897185
H -0.31987667 -2.2164047 0.71569026
H -1.0125657 -0.37583157 1.9305623
H -1.6130849 1.1006403 1.0749453
