title
 OpenBabel02282109583D

 18 19  0  0  1  0  0  0  0  0999 V2000
    1.2709    1.9224   -0.1999 C   0  0  0  0  0  0  0  0  0  0  0  0
    1.2821    0.3923   -0.1673 C   0  0  1  0  0  0  0  0  0  0  0  0
    1.8758   -0.1074    1.0239 O   0  0  0  0  0  0  0  0  0  0  0  0
   -0.1038   -0.1870   -0.2953 C   0  0  1  0  0  0  0  0  0  0  0  0
   -1.2922    0.1227   -1.2443 C   0  0  0  0  0  0  0  0  0  0  0  0
   -1.7891   -0.7560   -0.0728 C   0  0  1  0  0  0  0  0  0  0  0  0
   -0.5550   -1.6697   -0.2304 C   0  0  0  0  0  0  0  0  0  0  0  0
   -1.0145    0.0956    0.8631 O   0  0  0  0  0  0  0  0  0  0  0  0
    2.2785    2.3006   -0.0115 H   0  0  0  0  0  0  0  0  0  0  0  0
    0.9324    2.2960   -1.1719 H   0  0  0  0  0  0  0  0  0  0  0  0
    0.5978    2.3131    0.5695 H   0  0  0  0  0  0  0  0  0  0  0  0
    1.8967    0.0078   -0.9909 H   0  0  0  0  0  0  0  0  0  0  0  0
    1.2166    0.0012    1.7214 H   0  0  0  0  0  0  0  0  0  0  0  0
   -1.6443    1.1546   -1.2321 H   0  0  0  0  0  0  0  0  0  0  0  0
   -1.2747   -0.3145   -2.2457 H   0  0  0  0  0  0  0  0  0  0  0  0
   -2.8087   -1.0084    0.2165 H   0  0  0  0  0  0  0  0  0  0  0  0
   -0.4697   -2.2689   -1.1404 H   0  0  0  0  0  0  0  0  0  0  0  0
   -0.2505   -2.2069    0.6674 H   0  0  0  0  0  0  0  0  0  0  0  0
  1  2  1  0  0  0  0
  1  9  1  0  0  0  0
  1 11  1  0  0  0  0
  2 12  1  6  0  0  0
  2  3  1  0  0  0  0
  3 13  1  0  0  0  0
  4  7  1  0  0  0  0
  4  2  1  6  0  0  0
  4  8  1  0  0  0  0
  5 14  1  0  0  0  0
  5  4  1  0  0  0  0
  5  6  1  0  0  0  0
  6 16  1  1  0  0  0
  6  8  1  0  0  0  0
  7  6  1  0  0  0  0
  7 18  1  0  0  0  0
 10  1  1  0  0  0  0
 15  5  1  0  0  0  0
 17  7  1  0  0  0  0
M  END
