19
title
C 1.3469725 1.9501625 -0.14952376
C 1.2993537 0.4216198 -0.16680253
O 2.0435238 -0.14269912 0.91239023
C -0.11643307 -0.11787135 -0.17130543
C -1.267489 0.09874102 -1.1838468
N -1.9261425 -0.8389471 -0.15593185
C -0.58228916 -1.5914555 -0.19225284
C -1.2379267 0.05402001 0.89129674
H 2.3841124 2.2944603 -0.12959258
H 0.8558835 2.3723593 -1.0322547
H 0.8368404 2.3457527 0.73743236
H 1.8086097 0.056841336 -1.0681891
H 1.6455286 0.16911767 1.732974
H -1.7364697 1.0856277 -1.2349023
H -1.1685376 -0.3464449 -2.1781428
H -0.43065253 -2.166216 -1.1104424
H -0.3977143 -2.2017562 0.6950598
H -1.1131873 -0.43694472 1.8611845
H -1.7072163 1.0361389 0.99941254
