title
 OpenBabel02282109583D

 22 23  0  0  0  0  0  0  0  0999 V2000
   -0.4843    2.0189   -0.9280 C   0  0  0  0  0  0  0  0  0  0  0  0
   -0.4434    0.5025   -0.9455 C   0  0  0  0  0  0  0  0  0  0  0  0
   -1.6875   -0.1509   -1.5170 C   0  0  0  0  0  0  0  0  0  0  0  0
    0.8922   -0.1684   -1.2021 C   0  0  0  0  0  0  0  0  0  0  0  0
    0.2783   -0.2014    0.1735 C   0  0  0  0  0  0  0  0  0  0  0  0
    0.9084    0.3934    1.4437 C   0  0  0  0  0  0  0  0  0  0  0  0
    0.8003   -1.0140    2.1008 C   0  0  0  0  0  0  0  0  0  0  0  0
   -0.1266   -1.4731    0.9371 C   0  0  0  0  0  0  0  0  0  0  0  0
    0.4279    2.4431   -0.4984 H   0  0  0  0  0  0  0  0  0  0  0  0
   -0.5923    2.4206   -1.9427 H   0  0  0  0  0  0  0  0  0  0  0  0
   -1.3323    2.3861   -0.3370 H   0  0  0  0  0  0  0  0  0  0  0  0
   -1.8488    0.1547   -2.5578 H   0  0  0  0  0  0  0  0  0  0  0  0
   -1.6156   -1.2424   -1.4989 H   0  0  0  0  0  0  0  0  0  0  0  0
   -2.5816    0.1330   -0.9485 H   0  0  0  0  0  0  0  0  0  0  0  0
    0.9010   -1.0882   -1.7807 H   0  0  0  0  0  0  0  0  0  0  0  0
    1.7617    0.4641   -1.3593 H   0  0  0  0  0  0  0  0  0  0  0  0
    1.9129    0.8158    1.3502 H   0  0  0  0  0  0  0  0  0  0  0  0
    0.2668    1.1358    1.9303 H   0  0  0  0  0  0  0  0  0  0  0  0
    1.7558   -1.5442    2.1020 H   0  0  0  0  0  0  0  0  0  0  0  0
    0.3809   -1.0550    3.1085 H   0  0  0  0  0  0  0  0  0  0  0  0
   -1.1847   -1.4819    1.2198 H   0  0  0  0  0  0  0  0  0  0  0  0
    0.1119   -2.4322    0.4686 H   0  0  0  0  0  0  0  0  0  0  0  0
  1  9  1  0  0  0  0
  1 11  1  0  0  0  0
  2  1  1  0  0  0  0
  2  5  1  0  0  0  0
  3 13  1  0  0  0  0
  3 14  1  0  0  0  0
  3  2  1  0  0  0  0
  4  2  1  0  0  0  0
  4  5  1  0  0  0  0
  5  8  1  0  0  0  0
  5  6  1  0  0  0  0
  6 18  1  0  0  0  0
  6  7  1  0  0  0  0
  7 19  1  0  0  0  0
  7 20  1  0  0  0  0
  8 21  1  0  0  0  0
  8  7  1  0  0  0  0
 10  1  1  0  0  0  0
 12  3  1  0  0  0  0
 15  4  1  0  0  0  0
 16  4  1  0  0  0  0
 17  6  1  0  0  0  0
 22  8  1  0  0  0  0
M  END
