19
title
C -0.47102213 2.026827 -0.9617861
C -0.44316545 0.5125408 -0.93847746
C -1.6621388 -0.16188085 -1.5340859
N 0.89349693 -0.07677006 -1.2069468
C 0.31087637 -0.19350457 0.12370858
C 0.959791 0.30405757 1.4112859
O 0.5217367 -0.8870971 2.1070428
C -0.044165593 -1.4553403 0.908483
H 0.45574546 2.4396935 -0.5568814
H -0.5815167 2.39443 -1.9881023
H -1.311585 2.4124885 -0.37404338
H -1.7696398 0.10025183 -2.5929787
H -1.5991524 -1.2522559 -1.4612548
H -2.5776682 0.15543911 -1.0223811
H 0.8029637 -0.9580184 -1.7102593
H 2.0532472 0.38413164 1.3703976
H 0.54130346 1.2157736 1.8553536
H -1.1119298 -1.6842878 1.0220778
H 0.48540246 -2.3661492 0.59348
