20
title
C -0.54831845 2.0272706 -0.79557985
C -0.52133614 0.51470643 -0.811164
C -1.740466 -0.15071929 -1.4109957
O 0.74097216 -0.060723603 -1.2197125
C 0.33879203 -0.22220951 0.1301728
C 1.1261297 0.29373518 1.3412012
C 0.5752014 -0.92149985 2.1458158
C 0.102951825 -1.5754222 0.81274253
H 0.3757729 2.433529 -0.37954527
H -0.6625892 2.4159262 -1.8135928
H -1.3923304 2.3959608 -0.20188443
H -1.8867272 0.18388149 -2.4440079
H -1.6323733 -1.2371475 -1.418819
H -2.6432254 0.10809466 -0.8463625
H 2.204601 0.2300525 1.1680957
H 0.889995 1.2940245 1.7125038
H 1.3006531 -1.485082 2.7346203
H -0.26078507 -0.6469238 2.7932446
H -0.9077249 -1.990038 0.78399473
H 0.8023031 -2.3316848 0.44382983
