title
 OpenBabel02282109583D

 20 21  0  0  1  0  0  0  0  0999 V2000
   -0.5465    2.0045   -0.7823 C   0  0  0  0  0  0  0  0  0  0  0  0
   -0.4229    0.5001   -0.8635 C   0  0  1  0  0  0  0  0  0  0  0  0
   -1.6284   -0.1574   -1.1670 O   0  0  0  0  0  0  0  0  0  0  0  0
    0.8585   -0.1320   -1.3663 C   0  0  0  0  0  0  0  0  0  0  0  0
    0.4573   -0.2605    0.0834 C   0  0  0  0  0  0  0  0  0  0  0  0
    1.1504    0.2869    1.3402 C   0  0  0  0  0  0  0  0  0  0  0  0
    0.4492   -0.8368    2.1603 C   0  0  0  0  0  0  0  0  0  0  0  0
    0.0277   -1.5301    0.8304 C   0  0  0  0  0  0  0  0  0  0  0  0
    0.4031    2.4702   -0.5055 H   0  0  0  0  0  0  0  0  0  0  0  0
   -0.8482    2.4212   -1.7515 H   0  0  0  0  0  0  0  0  0  0  0  0
   -1.3025    2.2912   -0.0435 H   0  0  0  0  0  0  0  0  0  0  0  0
   -1.8476    0.0362   -2.0851 H   0  0  0  0  0  0  0  0  0  0  0  0
    0.7639   -1.0189   -1.9858 H   0  0  0  0  0  0  0  0  0  0  0  0
    1.6932    0.5163   -1.6190 H   0  0  0  0  0  0  0  0  0  0  0  0
    2.2384    0.1705    1.3048 H   0  0  0  0  0  0  0  0  0  0  0  0
    0.9242    1.3180    1.6258 H   0  0  0  0  0  0  0  0  0  0  0  0
    1.0848   -1.4150    2.8343 H   0  0  0  0  0  0  0  0  0  0  0  0
   -0.4083   -0.4657    2.7270 H   0  0  0  0  0  0  0  0  0  0  0  0
   -1.0218   -1.8110    0.7266 H   0  0  0  0  0  0  0  0  0  0  0  0
    0.6498   -2.3972    0.5869 H   0  0  0  0  0  0  0  0  0  0  0  0
  1  9  1  0  0  0  0
  1 11  1  0  0  0  0
  2  3  1  6  0  0  0
  2  1  1  0  0  0  0
  2  5  1  0  0  0  0
  4  2  1  0  0  0  0
  4  5  1  0  0  0  0
  5  8  1  0  0  0  0
  5  6  1  0  0  0  0
  6 16  1  0  0  0  0
  6  7  1  0  0  0  0
  7 18  1  0  0  0  0
  7 17  1  0  0  0  0
  8  7  1  0  0  0  0
 10  1  1  0  0  0  0
 12  3  1  0  0  0  0
 13  4  1  0  0  0  0
 14  4  1  0  0  0  0
 15  6  1  0  0  0  0
 19  8  1  0  0  0  0
 20  8  1  0  0  0  0
M  END
