18
title
C -0.5952923 2.0196927 -0.8474683
C -0.44007364 0.51591444 -0.87356013
O -1.5990818 -0.18702252 -1.2223707
C 0.89891624 -0.10239978 -1.2747457
C 0.41571614 -0.17368914 0.14598905
C 1.0261651 0.36257592 1.4372422
C 0.5508689 -0.9843569 2.0232897
O 0.03707783 -1.4116243 0.74043846
H 0.31379536 2.5120835 -0.4893573
H -0.8037119 2.4053507 -1.853397
H -1.4267989 2.3080165 -0.19606192
H -1.7464768 -0.062587455 -2.1666477
H 0.8444452 -1.0333428 -1.8300745
H 1.7360395 0.5440375 -1.5225037
H 2.1087265 0.50341755 1.4154888
H 0.5519044 1.2540089 1.8521026
H 1.3387566 -1.6532013 2.3868375
H -0.24358995 -0.91876674 2.7753959
