title
 OpenBabel02282109583D

 18 19  0  0  1  0  0  0  0  0999 V2000
   -0.5953    2.0197   -0.8475 C   0  0  0  0  0  0  0  0  0  0  0  0
   -0.4401    0.5159   -0.8736 C   0  0  1  0  0  0  0  0  0  0  0  0
   -1.5991   -0.1870   -1.2224 O   0  0  0  0  0  0  0  0  0  0  0  0
    0.8989   -0.1024   -1.2747 C   0  0  0  0  0  0  0  0  0  0  0  0
    0.4157   -0.1737    0.1460 C   0  0  1  0  0  0  0  0  0  0  0  0
    1.0262    0.3626    1.4372 C   0  0  0  0  0  0  0  0  0  0  0  0
    0.5509   -0.9844    2.0233 C   0  0  0  0  0  0  0  0  0  0  0  0
    0.0371   -1.4116    0.7404 O   0  0  0  0  0  0  0  0  0  0  0  0
    0.3138    2.5121   -0.4894 H   0  0  0  0  0  0  0  0  0  0  0  0
   -0.8037    2.4054   -1.8534 H   0  0  0  0  0  0  0  0  0  0  0  0
   -1.4268    2.3080   -0.1961 H   0  0  0  0  0  0  0  0  0  0  0  0
   -1.7465   -0.0626   -2.1666 H   0  0  0  0  0  0  0  0  0  0  0  0
    0.8444   -1.0333   -1.8301 H   0  0  0  0  0  0  0  0  0  0  0  0
    1.7360    0.5440   -1.5225 H   0  0  0  0  0  0  0  0  0  0  0  0
    2.1087    0.5034    1.4155 H   0  0  0  0  0  0  0  0  0  0  0  0
    0.5519    1.2540    1.8521 H   0  0  0  0  0  0  0  0  0  0  0  0
    1.3388   -1.6532    2.3868 H   0  0  0  0  0  0  0  0  0  0  0  0
   -0.2436   -0.9188    2.7754 H   0  0  0  0  0  0  0  0  0  0  0  0
  1  9  1  0  0  0  0
  1 11  1  0  0  0  0
  2  1  1  0  0  0  0
  2  5  1  1  0  0  0
  3  2  1  0  0  0  0
  4  2  1  0  0  0  0
  4  5  1  0  0  0  0
  5  8  1  1  0  0  0
  5  6  1  0  0  0  0
  6 16  1  0  0  0  0
  6  7  1  0  0  0  0
  7 17  1  0  0  0  0
  7 18  1  0  0  0  0
  8  7  1  0  0  0  0
 10  1  1  0  0  0  0
 12  3  1  0  0  0  0
 13  4  1  0  0  0  0
 14  4  1  0  0  0  0
 15  6  1  0  0  0  0
M  END
