title
 OpenBabel02282109583D

 18 19  0  0  1  0  0  0  0  0999 V2000
   -1.0282    1.6269   -0.2993 C   0  0  0  0  0  0  0  0  0  0  0  0
   -0.8680    0.1136   -0.2845 C   0  0  0  0  0  0  0  0  0  0  0  0
   -2.1363   -0.5951   -0.7457 C   0  0  0  0  0  0  0  0  0  0  0  0
    0.2580   -0.3508   -1.1299 O   0  0  0  0  0  0  0  0  0  0  0  0
    0.7494   -1.1655   -0.0569 C   0  0  1  0  0  0  0  0  0  0  0  0
    1.2602   -0.2763    1.0170 C   0  0  1  0  0  0  0  0  0  0  0  0
    1.8670    0.9442    0.7280 O   0  0  0  0  0  0  0  0  0  0  0  0
   -0.2348   -0.5602    0.9395 C   0  0  1  0  0  0  0  0  0  0  0  0
   -0.1421    2.1283    0.0896 H   0  0  0  0  0  0  0  0  0  0  0  0
   -1.2245    1.9748   -1.3193 H   0  0  0  0  0  0  0  0  0  0  0  0
   -1.8829    1.9142    0.3221 H   0  0  0  0  0  0  0  0  0  0  0  0
   -2.4074   -0.2652   -1.7532 H   0  0  0  0  0  0  0  0  0  0  0  0
   -1.9934   -1.6787   -0.7615 H   0  0  0  0  0  0  0  0  0  0  0  0
   -2.9697   -0.3650   -0.0730 H   0  0  0  0  0  0  0  0  0  0  0  0
    1.0568   -2.1788   -0.2915 H   0  0  0  0  0  0  0  0  0  0  0  0
    1.7411   -0.7779    1.8529 H   0  0  0  0  0  0  0  0  0  0  0  0
    1.7861    1.0538   -0.2296 H   0  0  0  0  0  0  0  0  0  0  0  0
   -0.7887   -1.0180    1.7497 H   0  0  0  0  0  0  0  0  0  0  0  0
  1  2  1  0  0  0  0
  1  9  1  0  0  0  0
  1 11  1  0  0  0  0
  2  8  1  0  0  0  0
  3  2  1  0  0  0  0
  3 14  1  0  0  0  0
  4  2  1  0  0  0  0
  4  5  1  0  0  0  0
  5  8  1  1  0  0  0
  6  5  1  6  0  0  0
  6 16  1  0  0  0  0
  7  6  1  0  0  0  0
  8  6  1  1  0  0  0
  8 18  1  0  0  0  0
 10  1  1  0  0  0  0
 12  3  1  0  0  0  0
 13  3  1  0  0  0  0
 15  5  1  0  0  0  0
 17  7  1  0  0  0  0
M  END
