title
 OpenBabel02282109583D

 22 23  0  0  1  0  0  0  0  0999 V2000
   -1.4127    1.5246   -1.2815 C   0  0  0  0  0  0  0  0  0  0  0  0
   -1.3049    0.0305   -1.0466 C   0  0  1  0  0  0  0  0  0  0  0  0
   -0.0709   -0.8072   -1.2336 C   0  0  1  0  0  0  0  0  0  0  0  0
    1.1816   -0.1084   -0.6834 C   0  0  0  0  0  0  0  0  0  0  0  0
    0.5515   -0.1268    0.7570 C   0  0  0  0  0  0  0  0  0  0  0  0
    1.2302   -1.1982    1.6186 C   0  0  0  0  0  0  0  0  0  0  0  0
    0.4731    1.1852    1.5397 C   0  0  0  0  0  0  0  0  0  0  0  0
   -0.7435   -0.7057    0.1457 C   0  0  1  0  0  0  0  0  0  0  0  0
   -0.4716    2.0525   -1.1159 H   0  0  0  0  0  0  0  0  0  0  0  0
   -1.7113    1.7176   -2.3182 H   0  0  0  0  0  0  0  0  0  0  0  0
   -2.1687    1.9784   -0.6309 H   0  0  0  0  0  0  0  0  0  0  0  0
   -2.1867   -0.4967   -1.4112 H   0  0  0  0  0  0  0  0  0  0  0  0
   -0.0507   -1.6497   -1.9151 H   0  0  0  0  0  0  0  0  0  0  0  0
    2.0868   -0.7165   -0.7500 H   0  0  0  0  0  0  0  0  0  0  0  0
    1.4027    0.8769   -1.1067 H   0  0  0  0  0  0  0  0  0  0  0  0
    2.2474   -0.8943    1.8907 H   0  0  0  0  0  0  0  0  0  0  0  0
    0.6717   -1.3672    2.5471 H   0  0  0  0  0  0  0  0  0  0  0  0
    1.2913   -2.1540    1.0879 H   0  0  0  0  0  0  0  0  0  0  0  0
    0.0082    1.9905    0.9687 H   0  0  0  0  0  0  0  0  0  0  0  0
   -0.1109    1.0513    2.4579 H   0  0  0  0  0  0  0  0  0  0  0  0
    1.4749    1.5200    1.8352 H   0  0  0  0  0  0  0  0  0  0  0  0
   -1.3448   -1.4544    0.6532 H   0  0  0  0  0  0  0  0  0  0  0  0
  1  9  1  0  0  0  0
  1  2  1  0  0  0  0
  1 11  1  0  0  0  0
  2  3  1  6  0  0  0
  3  4  1  0  0  0  0
  3  8  1  1  0  0  0
  4  5  1  0  0  0  0
  5  7  1  0  0  0  0
  5  6  1  0  0  0  0
  6 16  1  0  0  0  0
  6 17  1  0  0  0  0
  7 21  1  0  0  0  0
  7 20  1  0  0  0  0
  8  2  1  6  0  0  0
  8 22  1  0  0  0  0
  8  5  1  0  0  0  0
 10  1  1  0  0  0  0
 12  2  1  0  0  0  0
 13  3  1  0  0  0  0
 14  4  1  0  0  0  0
 15  4  1  0  0  0  0
 18  6  1  0  0  0  0
 19  7  1  0  0  0  0
M  END
