22
title
C -1.4127321 1.5246158 -1.2815102
C -1.3048954 0.030543385 -1.0465825
C -0.07087516 -0.8072181 -1.2335597
C 1.1815668 -0.1084107 -0.68336976
C 0.5515293 -0.12677845 0.7570233
C 1.2301718 -1.1982287 1.6185987
C 0.47314847 1.1851861 1.5397182
C -0.7434509 -0.70569396 0.14565496
H -0.47158957 2.052478 -1.1158589
H -1.7112838 1.7176125 -2.3182244
H -2.168671 1.9783562 -0.63088274
H -2.1866748 -0.49674237 -1.4111581
H -0.05067586 -1.6497158 -1.9151392
H 2.0867996 -0.7165318 -0.74999464
H 1.4026717 0.876923 -1.1067095
H 2.2474291 -0.8942846 1.8907387
H 0.671656 -1.3671755 2.547055
H 1.2913367 -2.1539667 1.0878551
H 0.008215314 1.9905428 0.96874183
H -0.110934965 1.0513183 2.4579206
H 1.4748737 1.5199863 1.8352301
H -1.3447607 -1.4543544 0.6532319
