21
title
C 0.095296346 1.8656954 1.535141
C -0.2756193 0.39964056 1.5678432
C -0.7588344 -0.4786189 0.478863
N 0.5994744 -0.7159515 1.1487695
C 1.2456808 -0.32177138 -0.15657938
C -0.11956457 -0.28724685 -0.9057294
C -0.3062493 -1.5594138 -1.7418717
C -0.50257593 0.9385316 -1.7351722
H 0.60157007 2.178512 0.62215775
H -0.8048741 2.4803884 1.642646
H 0.7569327 2.0965118 2.3774428
H -0.73039955 0.13132025 2.5221498
H -1.5881776 -1.1630747 0.64817643
H 1.8174791 0.61019945 -0.11495161
H 1.9122 -1.119488 -0.4921434
H -0.05395714 -2.4534788 -1.1633908
H -1.3444924 -1.6572212 -2.079799
H 0.3338413 -1.5366396 -2.6310518
H 0.1268265 1.0100188 -2.6300511
H -1.542653 0.8628083 -2.0730941
H -0.4045376 1.8740388 -1.1818734
