19
title
C -1.3940085 1.4310186 1.2317842
C -1.2368145 -0.06522224 1.072409
C -0.678314 -0.7887735 -0.09037266
N 0.01766134 -0.82185954 1.2763727
C 1.1329436 -0.0031692241 0.6816184
C 0.519732 -0.109955624 -0.74746275
C 1.2952969 -1.0515959 -1.6629231
O 0.18188883 1.0884453 -1.4288192
H -0.71511996 2.0009916 0.59954643
H -2.4141455 1.7141954 0.9522902
H -1.2456576 1.7194788 2.2787697
H -2.0466685 -0.6205449 1.5451752
H -1.1600655 -1.6713985 -0.50326943
H 1.2263587 1.0057998 1.0915458
H 2.0832732 -0.5288848 0.799733
H 1.5076728 -2.0021605 -1.1656842
H 0.72038174 -1.2539458 -2.5723515
H 2.2549336 -0.60483634 -1.9526169
H 0.9601929 1.3887163 -1.9108844
