title
 OpenBabel02282109583D

 19 20  0  0  1  0  0  0  0  0999 V2000
   -1.5149    1.2078   -1.1982 C   0  0  0  0  0  0  0  0  0  0  0  0
   -1.2791   -0.2183   -1.0045 N   0  0  0  0  0  0  0  0  0  0  0  0
   -0.0080   -0.8606   -1.2154 C   0  0  1  0  0  0  0  0  0  0  0  0
    1.1857   -0.0141   -0.7360 C   0  0  0  0  0  0  0  0  0  0  0  0
    0.5633   -0.0309    0.7090 C   0  0  1  0  0  0  0  0  0  0  0  0
    1.3693   -0.8799    1.6879 C   0  0  0  0  0  0  0  0  0  0  0  0
    0.2105    1.2114    1.2946 O   0  0  0  0  0  0  0  0  0  0  0  0
   -0.6525   -0.8005    0.1554 C   0  0  1  0  0  0  0  0  0  0  0  0
   -0.7075    1.8641   -0.8590 H   0  0  0  0  0  0  0  0  0  0  0  0
   -1.6982    1.3803   -2.2639 H   0  0  0  0  0  0  0  0  0  0  0  0
   -2.4202    1.4829   -0.6490 H   0  0  0  0  0  0  0  0  0  0  0  0
    0.0486   -1.6953   -1.9061 H   0  0  0  0  0  0  0  0  0  0  0  0
    2.1422   -0.5397   -0.7912 H   0  0  0  0  0  0  0  0  0  0  0  0
    1.2927    0.9698   -1.1998 H   0  0  0  0  0  0  0  0  0  0  0  0
    2.3207   -0.3909    1.9324 H   0  0  0  0  0  0  0  0  0  0  0  0
    0.8063   -1.0201    2.6162 H   0  0  0  0  0  0  0  0  0  0  0  0
    1.5993   -1.8639    1.2691 H   0  0  0  0  0  0  0  0  0  0  0  0
    1.0074    1.6031    1.6686 H   0  0  0  0  0  0  0  0  0  0  0  0
   -1.1942   -1.5601    0.7122 H   0  0  0  0  0  0  0  0  0  0  0  0
  1  2  1  0  0  0  0
  1  9  1  0  0  0  0
  1 11  1  0  0  0  0
  2  8  1  0  0  0  0
  3  2  1  0  0  0  0
  3  4  1  0  0  0  0
  3  8  1  1  0  0  0
  4  5  1  0  0  0  0
  5  8  1  6  0  0  0
  5  7  1  0  0  0  0
  5  6  1  0  0  0  0
  6 15  1  0  0  0  0
  6 16  1  0  0  0  0
  7 18  1  0  0  0  0
  8 19  1  1  0  0  0
 10  1  1  0  0  0  0
 12  3  1  0  0  0  0
 13  4  1  0  0  0  0
 14  4  1  0  0  0  0
 17  6  1  0  0  0  0
M  END
