title
 OpenBabel02282109583D

 21 22  0  0  1  0  0  0  0  0999 V2000
   -0.2402    2.0328   -0.0330 C   0  0  0  0  0  0  0  0  0  0  0  0
   -0.7220    0.5700   -0.0576 C   0  0  0  0  0  0  0  0  0  0  0  0
   -2.2589    0.5681   -0.1086 C   0  0  0  0  0  0  0  0  0  0  0  0
   -0.1249   -0.2201   -1.2651 C   0  0  0  0  0  0  0  0  0  0  0  0
    0.9166   -1.1618   -0.6852 C   0  0  1  0  0  0  0  0  0  0  0  0
    2.0008   -0.5964    0.1573 C   0  0  0  0  0  0  0  0  0  0  0  0
    0.8207   -1.2054    0.7872 N   0  0  1  0  0  0  0  0  0  0  0  0
   -0.2175   -0.2406    1.1855 C   0  0  0  0  0  0  0  0  0  0  0  0
    0.8498    2.1170   -0.0240 H   0  0  0  0  0  0  0  0  0  0  0  0
   -0.6040    2.5764   -0.9124 H   0  0  0  0  0  0  0  0  0  0  0  0
   -0.6181    2.5515    0.8553 H   0  0  0  0  0  0  0  0  0  0  0  0
   -2.6262    1.0868   -1.0013 H   0  0  0  0  0  0  0  0  0  0  0  0
   -2.6525   -0.4537   -0.1273 H   0  0  0  0  0  0  0  0  0  0  0  0
   -2.6839    1.0745    0.7656 H   0  0  0  0  0  0  0  0  0  0  0  0
   -0.9052   -0.8077   -1.7606 H   0  0  0  0  0  0  0  0  0  0  0  0
    0.2941    0.4513   -2.0223 H   0  0  0  0  0  0  0  0  0  0  0  0
    1.0753   -2.1141   -1.1847 H   0  0  0  0  0  0  0  0  0  0  0  0
    2.9228   -1.1542    0.2985 H   0  0  0  0  0  0  0  0  0  0  0  0
    2.1238    0.4823    0.1968 H   0  0  0  0  0  0  0  0  0  0  0  0
    0.1636    0.4148    1.9765 H   0  0  0  0  0  0  0  0  0  0  0  0
   -1.0434   -0.8186    1.6147 H   0  0  0  0  0  0  0  0  0  0  0  0
  1  9  1  0  0  0  0
  1 11  1  0  0  0  0
  2  1  1  0  0  0  0
  2  8  1  0  0  0  0
  3  2  1  0  0  0  0
  3 14  1  0  0  0  0
  4  5  1  0  0  0  0
  4  2  1  0  0  0  0
  5  6  1  0  0  0  0
  5  7  1  1  0  0  0
  6 19  1  0  0  0  0
  6 18  1  0  0  0  0
  7  6  1  1  0  0  0
  7  8  1  0  0  0  0
  8 21  1  0  0  0  0
  8 20  1  0  0  0  0
 10  1  1  0  0  0  0
 12  3  1  0  0  0  0
 13  3  1  0  0  0  0
 15  4  1  0  0  0  0
 16  4  1  0  0  0  0
 17  5  1  0  0  0  0
M  END
