20
title
C -0.20667967 1.9204814 0.00180508
C -0.7761133 0.49052936 -0.0328146
C -2.3080873 0.5553114 -0.102883615
C -0.18717161 -0.30103147 -1.2470285
C 0.9753091 -1.0981556 -0.695956
O 1.8996105 -0.3252759 0.08544714
C 0.9079078 -1.1067566 0.7695958
C -0.30069464 -0.31556016 1.2209603
H 0.8835456 1.9036882 0.051845808
H -0.50398654 2.478017 -0.89392626
H -0.5852408 2.467608 0.8729648
H -2.638773 1.0913343 -0.9996986
H -2.7511585 -0.44639128 -0.12917192
H -2.7199652 1.080911 0.76605386
H -0.92688197 -1.0016805 -1.654743
H 0.110237695 0.36596176 -2.0631652
H 1.4220872 -1.9038678 -1.2739848
H 1.3001889 -1.9194313 1.3767025
H -0.07988789 0.34163016 2.0687513
H -1.074312 -1.0206012 1.5507323
