title
 OpenBabel02282109583D

 20 21  0  0  1  0  0  0  0  0999 V2000
   -0.2067    1.9205    0.0018 C   0  0  0  0  0  0  0  0  0  0  0  0
   -0.7761    0.4905   -0.0328 C   0  0  0  0  0  0  0  0  0  0  0  0
   -2.3081    0.5553   -0.1029 C   0  0  0  0  0  0  0  0  0  0  0  0
   -0.1872   -0.3010   -1.2470 C   0  0  0  0  0  0  0  0  0  0  0  0
    0.9753   -1.0982   -0.6960 C   0  0  1  0  0  0  0  0  0  0  0  0
    1.8996   -0.3253    0.0854 O   0  0  0  0  0  0  0  0  0  0  0  0
    0.9079   -1.1068    0.7696 C   0  0  1  0  0  0  0  0  0  0  0  0
   -0.3007   -0.3156    1.2210 C   0  0  0  0  0  0  0  0  0  0  0  0
    0.8835    1.9037    0.0518 H   0  0  0  0  0  0  0  0  0  0  0  0
   -0.5040    2.4780   -0.8939 H   0  0  0  0  0  0  0  0  0  0  0  0
   -0.5852    2.4676    0.8730 H   0  0  0  0  0  0  0  0  0  0  0  0
   -2.6388    1.0913   -0.9997 H   0  0  0  0  0  0  0  0  0  0  0  0
   -2.7512   -0.4464   -0.1292 H   0  0  0  0  0  0  0  0  0  0  0  0
   -2.7200    1.0809    0.7661 H   0  0  0  0  0  0  0  0  0  0  0  0
   -0.9269   -1.0017   -1.6547 H   0  0  0  0  0  0  0  0  0  0  0  0
    0.1102    0.3660   -2.0632 H   0  0  0  0  0  0  0  0  0  0  0  0
    1.4221   -1.9039   -1.2740 H   0  0  0  0  0  0  0  0  0  0  0  0
    1.3002   -1.9194    1.3767 H   0  0  0  0  0  0  0  0  0  0  0  0
   -0.0799    0.3416    2.0688 H   0  0  0  0  0  0  0  0  0  0  0  0
   -1.0743   -1.0206    1.5507 H   0  0  0  0  0  0  0  0  0  0  0  0
  1  9  1  0  0  0  0
  1 11  1  0  0  0  0
  2  1  1  0  0  0  0
  2  8  1  0  0  0  0
  3  2  1  0  0  0  0
  3 14  1  0  0  0  0
  4  5  1  0  0  0  0
  4  2  1  0  0  0  0
  5  6  1  0  0  0  0
  5  7  1  1  0  0  0
  6  7  1  0  0  0  0
  7  8  1  0  0  0  0
  7 18  1  1  0  0  0
  8 20  1  0  0  0  0
  8 19  1  0  0  0  0
 10  1  1  0  0  0  0
 12  3  1  0  0  0  0
 13  3  1  0  0  0  0
 15  4  1  0  0  0  0
 16  4  1  0  0  0  0
 17  5  1  0  0  0  0
M  END
