20
title
C -0.054722216 2.0174103 -0.0059316643
C -0.64633214 0.6035236 -0.03644425
O -2.075265 0.7095174 -0.03629079
C -0.14174172 -0.23655672 -1.2550787
C 0.8486473 -1.2569088 -0.72020876
C 2.0151408 -0.76671934 0.10241907
C 0.7650538 -1.2574764 0.79106665
C -0.27607098 -0.23735096 1.2182163
H 1.0374972 2.0095067 0.04216291
H -0.33540565 2.5712397 -0.91104186
H -0.4342401 2.5641384 0.8624938
H -2.32656 1.2988006 -0.7557421
H -1.0082147 -0.7559154 -1.6774724
H 0.27876005 0.39882433 -2.044103
H 0.9743479 -2.1808999 -1.2740233
H 2.8864129 -1.4116122 0.14943317
H 2.2586339 0.2904535 0.116774336
H 0.8285895 -2.1818767 1.354502
H 0.055652652 0.3995372 2.0455942
H -1.1848599 -0.7503662 1.5468954
