title
 OpenBabel02282109583D

 19 20  0  0  1  0  0  0  0  0999 V2000
   -0.0043    1.9522   -0.0041 C   0  0  0  0  0  0  0  0  0  0  0  0
   -0.6694    0.5747   -0.0386 C   0  0  1  0  0  0  0  0  0  0  0  0
   -2.0921    0.7223   -0.0422 O   0  0  0  0  0  0  0  0  0  0  0  0
   -0.1801   -0.2791   -1.2544 C   0  0  0  0  0  0  0  0  0  0  0  0
    0.8651   -1.2259   -0.7026 C   0  0  1  0  0  0  0  0  0  0  0  0
    1.9121   -0.5490    0.0975 N   0  0  0  0  0  0  0  0  0  0  0  0
    0.7822   -1.2243    0.7784 C   0  0  1  0  0  0  0  0  0  0  0  0
   -0.3162   -0.2778    1.2133 C   0  0  0  0  0  0  0  0  0  0  0  0
    1.0814    1.8474    0.0471 H   0  0  0  0  0  0  0  0  0  0  0  0
   -0.2507    2.5228   -0.9095 H   0  0  0  0  0  0  0  0  0  0  0  0
   -0.3542    2.5189    0.8647 H   0  0  0  0  0  0  0  0  0  0  0  0
   -2.3158    1.3892   -0.7000 H   0  0  0  0  0  0  0  0  0  0  0  0
   -1.0313   -0.8567   -1.6302 H   0  0  0  0  0  0  0  0  0  0  0  0
    0.1978    0.3450   -2.0716 H   0  0  0  0  0  0  0  0  0  0  0  0
    1.1351   -2.1167   -1.2611 H   0  0  0  0  0  0  0  0  0  0  0  0
    2.7322   -1.1488    0.1436 H   0  0  0  0  0  0  0  0  0  0  0  0
    0.9889   -2.1138    1.3649 H   0  0  0  0  0  0  0  0  0  0  0  0
   -0.0324    0.3490    2.0642 H   0  0  0  0  0  0  0  0  0  0  0  0
   -1.2043   -0.8510    1.4982 H   0  0  0  0  0  0  0  0  0  0  0  0
  1  9  1  0  0  0  0
  1 11  1  0  0  0  0
  2  3  1  6  0  0  0
  2  1  1  0  0  0  0
  2  8  1  0  0  0  0
  4  5  1  0  0  0  0
  4  2  1  0  0  0  0
  5  6  1  0  0  0  0
  5  7  1  1  0  0  0
  6 16  1  0  0  0  0
  6  7  1  0  0  0  0
  7  8  1  0  0  0  0
  7 17  1  1  0  0  0
  8 19  1  0  0  0  0
  8 18  1  0  0  0  0
 10  1  1  0  0  0  0
 12  3  1  0  0  0  0
 13  4  1  0  0  0  0
 14  4  1  0  0  0  0
 15  5  1  0  0  0  0
M  END
