18
title
C -0.09031302 1.9384589 -0.007531951
C -0.70496005 0.53756154 -0.041222196
O -2.1300588 0.62631077 -0.046970345
C -0.17342657 -0.29437158 -1.2544079
C 0.9200523 -1.1741532 -0.6912198
O 1.8880173 -0.46566984 0.09975933
C 0.8344654 -1.174289 0.77433646
C -0.31496572 -0.29598477 1.2113433
H 0.9986459 1.8748399 0.04430109
H -0.35582 2.498826 -0.9135299
H -0.45955366 2.4936376 0.860416
H -2.3816159 1.2844291 -0.70358866
H -0.98658484 -0.9238066 -1.6324276
H 0.17468166 0.34069812 -2.0761623
H 1.3143021 -2.0108187 -1.2626708
H 1.1605899 -2.0107358 1.3871232
H -0.06645316 0.34001145 2.06618
H -1.1670239 -0.92246515 1.4961821
