title
 OpenBabel02282109583D

 18 19  0  0  1  0  0  0  0  0999 V2000
   -0.0903    1.9385   -0.0075 C   0  0  0  0  0  0  0  0  0  0  0  0
   -0.7050    0.5376   -0.0412 C   0  0  1  0  0  0  0  0  0  0  0  0
   -2.1301    0.6263   -0.0470 O   0  0  0  0  0  0  0  0  0  0  0  0
   -0.1734   -0.2944   -1.2544 C   0  0  0  0  0  0  0  0  0  0  0  0
    0.9201   -1.1742   -0.6912 C   0  0  1  0  0  0  0  0  0  0  0  0
    1.8880   -0.4657    0.0998 O   0  0  0  0  0  0  0  0  0  0  0  0
    0.8345   -1.1743    0.7743 C   0  0  1  0  0  0  0  0  0  0  0  0
   -0.3150   -0.2960    1.2113 C   0  0  0  0  0  0  0  0  0  0  0  0
    0.9986    1.8748    0.0443 H   0  0  0  0  0  0  0  0  0  0  0  0
   -0.3558    2.4988   -0.9135 H   0  0  0  0  0  0  0  0  0  0  0  0
   -0.4596    2.4936    0.8604 H   0  0  0  0  0  0  0  0  0  0  0  0
   -2.3816    1.2844   -0.7036 H   0  0  0  0  0  0  0  0  0  0  0  0
   -0.9866   -0.9238   -1.6324 H   0  0  0  0  0  0  0  0  0  0  0  0
    0.1747    0.3407   -2.0762 H   0  0  0  0  0  0  0  0  0  0  0  0
    1.3143   -2.0108   -1.2627 H   0  0  0  0  0  0  0  0  0  0  0  0
    1.1606   -2.0107    1.3871 H   0  0  0  0  0  0  0  0  0  0  0  0
   -0.0665    0.3400    2.0662 H   0  0  0  0  0  0  0  0  0  0  0  0
   -1.1670   -0.9225    1.4962 H   0  0  0  0  0  0  0  0  0  0  0  0
  1  9  1  0  0  0  0
  1 11  1  0  0  0  0
  2  3  1  6  0  0  0
  2  1  1  0  0  0  0
  2  8  1  0  0  0  0
  4  5  1  0  0  0  0
  4  2  1  0  0  0  0
  5  6  1  0  0  0  0
  5  7  1  1  0  0  0
  6  7  1  0  0  0  0
  7  8  1  0  0  0  0
  7 16  1  1  0  0  0
  8 18  1  0  0  0  0
  8 17  1  0  0  0  0
 10  1  1  0  0  0  0
 12  3  1  0  0  0  0
 13  4  1  0  0  0  0
 14  4  1  0  0  0  0
 15  5  1  0  0  0  0
M  END
