title
 OpenBabel02282109583D

 20 21  0  0  1  0  0  0  0  0999 V2000
   -0.5875    1.9377   -0.5083 C   0  0  0  0  0  0  0  0  0  0  0  0
   -0.4792    0.4134   -0.5281 C   0  0  0  0  0  0  0  0  0  0  0  0
   -1.8396   -0.2265   -0.8112 C   0  0  0  0  0  0  0  0  0  0  0  0
    0.6469   -0.2171   -1.4331 C   0  0  0  0  0  0  0  0  0  0  0  0
    1.2224   -0.9400   -0.2098 C   0  0  1  0  0  0  0  0  0  0  0  0
    1.6542    0.0854    0.8160 C   0  0  0  0  0  0  0  0  0  0  0  0
    0.1988   -0.2665    0.6867 C   0  0  1  0  0  0  0  0  0  0  0  0
   -0.5086   -0.8424    1.7319 O   0  0  0  0  0  0  0  0  0  0  0  0
    0.3753    2.4150   -0.3017 H   0  0  0  0  0  0  0  0  0  0  0  0
   -0.9444    2.3172   -1.4726 H   0  0  0  0  0  0  0  0  0  0  0  0
   -1.2982    2.2707    0.2576 H   0  0  0  0  0  0  0  0  0  0  0  0
   -2.2228    0.0999   -1.7844 H   0  0  0  0  0  0  0  0  0  0  0  0
   -1.7706   -1.3186   -0.8172 H   0  0  0  0  0  0  0  0  0  0  0  0
   -2.5714    0.0505   -0.0455 H   0  0  0  0  0  0  0  0  0  0  0  0
    0.2420   -0.8843   -2.1977 H   0  0  0  0  0  0  0  0  0  0  0  0
    1.3258    0.4963   -1.9128 H   0  0  0  0  0  0  0  0  0  0  0  0
    1.5940   -1.9567   -0.1854 H   0  0  0  0  0  0  0  0  0  0  0  0
    2.1235   -0.3334    1.7010 H   0  0  0  0  0  0  0  0  0  0  0  0
    2.0550    1.0480    0.5051 H   0  0  0  0  0  0  0  0  0  0  0  0
   -0.5594   -0.2041    2.4515 H   0  0  0  0  0  0  0  0  0  0  0  0
  1  9  1  0  0  0  0
  1 11  1  0  0  0  0
  2  1  1  0  0  0  0
  2  7  1  0  0  0  0
  3  2  1  0  0  0  0
  3 14  1  0  0  0  0
  4  2  1  0  0  0  0
  4  5  1  0  0  0  0
  5 17  1  0  0  0  0
  5  7  1  1  0  0  0
  5  6  1  0  0  0  0
  6 18  1  0  0  0  0
  7  6  1  0  0  0  0
  7  8  1  1  0  0  0
  8 20  1  0  0  0  0
 10  1  1  0  0  0  0
 12  3  1  0  0  0  0
 13  3  1  0  0  0  0
 15  4  1  0  0  0  0
 16  4  1  0  0  0  0
 19  6  1  0  0  0  0
M  END
