18
title
C -0.5611087 1.9230974 -0.5260827
C -0.4853987 0.4062029 -0.47121626
C -1.8075167 -0.2561829 -0.8333218
O 0.5801054 -0.12227788 -1.3440398
C 1.1393514 -0.8638397 -0.26153034
C 1.6650809 0.06415299 0.8040195
C 0.19032642 -0.273736 0.73934287
O -0.49942702 -0.8869925 1.7673445
H 0.38994178 2.3854501 -0.25200462
H -0.8182671 2.2524707 -1.5380182
H -1.3364451 2.290879 0.15480854
H -2.111429 0.046616532 -1.8398184
H -1.713452 -1.3442129 -0.8074238
H -2.5928514 0.03547419 -0.12905817
H 1.494609 -1.8698493 -0.44905207
H 2.1779492 -0.43681592 1.6204062
H 2.0559878 1.0408342 0.5341384
H -0.5035199 -0.29372036 2.5265112
