title
 OpenBabel02282109583D

 18 19  0  0  1  0  0  0  0  0999 V2000
   -0.6006    1.9255   -0.5261 C   0  0  0  0  0  0  0  0  0  0  0  0
   -0.4339    0.4143   -0.5118 C   0  0  1  0  0  0  0  0  0  0  0  0
   -1.6997   -0.2380   -0.6267 O   0  0  0  0  0  0  0  0  0  0  0  0
    0.6387   -0.2560   -1.4452 C   0  0  0  0  0  0  0  0  0  0  0  0
    1.2240   -0.9911   -0.2333 C   0  0  1  0  0  0  0  0  0  0  0  0
    1.6890    0.0289    0.7877 C   0  0  0  0  0  0  0  0  0  0  0  0
    0.2345   -0.2628    0.6921 C   0  0  1  0  0  0  0  0  0  0  0  0
   -0.4857   -0.6680    1.7911 O   0  0  0  0  0  0  0  0  0  0  0  0
    0.3582    2.4332   -0.3887 H   0  0  0  0  0  0  0  0  0  0  0  0
   -1.0162    2.2643   -1.4839 H   0  0  0  0  0  0  0  0  0  0  0  0
   -1.2786    2.2396    0.2732 H   0  0  0  0  0  0  0  0  0  0  0  0
   -2.1638    0.1265   -1.3869 H   0  0  0  0  0  0  0  0  0  0  0  0
    0.1557   -0.9148   -2.1700 H   0  0  0  0  0  0  0  0  0  0  0  0
    1.3216    0.4240   -1.9676 H   0  0  0  0  0  0  0  0  0  0  0  0
    1.5808   -2.0130   -0.2189 H   0  0  0  0  0  0  0  0  0  0  0  0
    2.1504   -0.3985    1.6727 H   0  0  0  0  0  0  0  0  0  0  0  0
    2.1157    0.9822    0.4790 H   0  0  0  0  0  0  0  0  0  0  0  0
   -1.3268   -0.9965    1.4461 H   0  0  0  0  0  0  0  0  0  0  0  0
  1  2  1  0  0  0  0
  1  9  1  0  0  0  0
  1 11  1  0  0  0  0
  2  7  1  1  0  0  0
  3  2  1  0  0  0  0
  4  2  1  0  0  0  0
  4  5  1  0  0  0  0
  5 15  1  0  0  0  0
  5  7  1  1  0  0  0
  5  6  1  0  0  0  0
  6 16  1  0  0  0  0
  7  6  1  0  0  0  0
  7  8  1  1  0  0  0
 10  1  1  0  0  0  0
 12  3  1  0  0  0  0
 13  4  1  0  0  0  0
 14  4  1  0  0  0  0
 17  6  1  0  0  0  0
 18  8  1  0  0  0  0
M  END
