18
title
C -0.6005717 1.9255338 -0.5260503
C -0.43391177 0.41430414 -0.5118403
O -1.6996663 -0.23799068 -0.62670445
C 0.63870865 -0.25604177 -1.445189
C 1.2239707 -0.9911421 -0.23334983
C 1.6890002 0.028912699 0.7876808
C 0.23450655 -0.26275545 0.69208187
O -0.48565137 -0.66802937 1.7910506
H 0.35818988 2.4332056 -0.38866392
H -1.0162418 2.2642999 -1.4838704
H -1.2786163 2.239629 0.2732476
H -2.1637857 0.12654516 -1.3869059
H 0.15573424 -0.9148411 -2.1699567
H 1.3215778 0.424024 -1.9675646
H 1.58083 -2.0130253 -0.21885583
H 2.150367 -0.3984536 1.672661
H 2.1157444 0.982179 0.4789756
H -1.3267791 -0.9965058 1.446126
