title
 OpenBabel02282109583D

 21 22  0  0  1  0  0  0  0  0999 V2000
   -0.3115    2.0344    0.5706 C   0  0  0  0  0  0  0  0  0  0  0  0
   -0.3508    0.5380    0.4396 C   0  0  2  0  0  0  0  0  0  0  0  0
   -1.2067   -0.3013    1.3053 C   0  0  0  0  0  0  0  0  0  0  0  0
    0.2565   -0.3985    1.4795 N   0  0  1  0  0  0  0  0  0  0  0  0
    0.7085   -1.2879    0.3531 C   0  0  0  0  0  0  0  0  0  0  0  0
    0.2278   -0.2834   -0.7385 C   0  0  0  0  0  0  0  0  0  0  0  0
   -0.7612   -0.7831   -1.7919 C   0  0  0  0  0  0  0  0  0  0  0  0
    1.4137    0.4112   -1.4128 C   0  0  0  0  0  0  0  0  0  0  0  0
    0.6612    2.4461    0.2854 H   0  0  0  0  0  0  0  0  0  0  0  0
   -1.0742    2.5017   -0.0640 H   0  0  0  0  0  0  0  0  0  0  0  0
   -0.5099    2.3290    1.6052 H   0  0  0  0  0  0  0  0  0  0  0  0
   -1.7021    0.1924    2.1366 H   0  0  0  0  0  0  0  0  0  0  0  0
   -1.7463   -1.1608    0.9130 H   0  0  0  0  0  0  0  0  0  0  0  0
    1.7926   -1.4212    0.3832 H   0  0  0  0  0  0  0  0  0  0  0  0
    0.2296   -2.2739    0.3602 H   0  0  0  0  0  0  0  0  0  0  0  0
   -1.6209   -1.2899   -1.3453 H   0  0  0  0  0  0  0  0  0  0  0  0
   -1.1403    0.0482   -2.3978 H   0  0  0  0  0  0  0  0  0  0  0  0
   -0.2761   -1.4917   -2.4733 H   0  0  0  0  0  0  0  0  0  0  0  0
    1.9332   -0.2882   -2.0772 H   0  0  0  0  0  0  0  0  0  0  0  0
    1.0888    1.2645   -2.0188 H   0  0  0  0  0  0  0  0  0  0  0  0
    2.1389    0.7744   -0.6779 H   0  0  0  0  0  0  0  0  0  0  0  0
  1 11  1  0  0  0  0
  2  1  1  0  0  0  0
  2  3  1  0  0  0  0
  2  4  1  1  0  0  0
  3  4  1  0  0  0  0
  3 12  1  0  0  0  0
  4  5  1  6  0  0  0
  5 15  1  0  0  0  0
  5 14  1  0  0  0  0
  6  5  1  0  0  0  0
  6  2  1  0  0  0  0
  7 16  1  0  0  0  0
  7  6  1  0  0  0  0
  8  6  1  0  0  0  0
  8 21  1  0  0  0  0
  9  1  1  0  0  0  0
 10  1  1  0  0  0  0
 13  3  1  0  0  0  0
 17  7  1  0  0  0  0
 18  7  1  0  0  0  0
 19  8  1  0  0  0  0
 20  8  1  0  0  0  0
M  END
