21
title
C -0.3114602 2.034358 0.57058215
C -0.35080644 0.5379939 0.43955424
C -1.2066673 -0.30131644 1.3052914
N 0.25645906 -0.3985281 1.4794886
C 0.70852023 -1.2879342 0.35307997
C 0.22775362 -0.28336734 -0.7384504
C -0.7612293 -0.7830706 -1.791928
C 1.4137423 0.4112478 -1.4127568
H 0.6611801 2.446081 0.28539857
H -1.0741866 2.501745 -0.06404121
H -0.50989836 2.3289788 1.6052217
H -1.7020863 0.19241768 2.136557
H -1.7463005 -1.1608033 0.9130431
H 1.7925546 -1.4212252 0.38323984
H 0.22963427 -2.273864 0.36020738
H -1.6209136 -1.2898926 -1.3452536
H -1.1403229 0.048210975 -2.397756
H -0.27608055 -1.4917339 -2.4733124
H 1.933203 -0.28819126 -2.0772233
H 1.08875 1.2644632 -2.0188158
H 2.1388943 0.77441293 -0.67794764
