title
 OpenBabel02282109583D

 19 20  0  0  1  0  0  0  0  0999 V2000
   -0.2717    2.0325    0.5357 C   0  0  0  0  0  0  0  0  0  0  0  0
   -0.3543    0.5375    0.4558 C   0  0  2  0  0  0  0  0  0  0  0  0
   -1.2067   -0.2943    1.3309 C   0  0  0  0  0  0  0  0  0  0  0  0
    0.2568   -0.3916    1.4988 N   0  0  1  0  0  0  0  0  0  0  0  0
    0.7083   -1.2896    0.3784 C   0  0  0  0  0  0  0  0  0  0  0  0
    0.1973   -0.3001   -0.7120 C   0  0  1  0  0  0  0  0  0  0  0  0
   -0.7610   -0.7935   -1.7882 C   0  0  0  0  0  0  0  0  0  0  0  0
    1.2611    0.4385   -1.2978 O   0  0  0  0  0  0  0  0  0  0  0  0
    0.6993    2.3841    0.1798 H   0  0  0  0  0  0  0  0  0  0  0  0
   -1.0508    2.5014   -0.0770 H   0  0  0  0  0  0  0  0  0  0  0  0
   -0.4084    2.3628    1.5694 H   0  0  0  0  0  0  0  0  0  0  0  0
   -1.6979    0.2062    2.1603 H   0  0  0  0  0  0  0  0  0  0  0  0
   -1.7517   -1.1527    0.9427 H   0  0  0  0  0  0  0  0  0  0  0  0
    1.7972   -1.3682    0.3731 H   0  0  0  0  0  0  0  0  0  0  0  0
    0.2621   -2.2905    0.4096 H   0  0  0  0  0  0  0  0  0  0  0  0
   -1.6221   -1.3162   -1.3639 H   0  0  0  0  0  0  0  0  0  0  0  0
   -1.1231    0.0486   -2.3862 H   0  0  0  0  0  0  0  0  0  0  0  0
   -0.2520   -1.4948   -2.4621 H   0  0  0  0  0  0  0  0  0  0  0  0
    1.6764   -0.1186   -1.9646 H   0  0  0  0  0  0  0  0  0  0  0  0
  1 11  1  0  0  0  0
  2  6  1  6  0  0  0
  2  1  1  0  0  0  0
  2  3  1  0  0  0  0
  3  4  1  0  0  0  0
  3 12  1  0  0  0  0
  4  2  1  6  0  0  0
  5 15  1  0  0  0  0
  5  4  1  0  0  0  0
  6  8  1  6  0  0  0
  6  5  1  0  0  0  0
  7 16  1  0  0  0  0
  7  6  1  0  0  0  0
  9  1  1  0  0  0  0
 10  1  1  0  0  0  0
 13  3  1  0  0  0  0
 14  5  1  0  0  0  0
 17  7  1  0  0  0  0
 18  7  1  0  0  0  0
 19  8  1  0  0  0  0
M  END
