21
title
C -0.5244493 2.0262656 0.52711195
C -0.307839 0.54460067 0.46838343
N -1.2022878 -0.38867632 1.1997063
C 0.26347572 -0.41648462 1.4517552
C 0.8527623 -1.2929945 0.34811762
C 0.2833879 -0.27386388 -0.7177284
C -0.7300963 -0.830277 -1.7136017
C 1.4118009 0.4773586 -1.4236945
H 0.34750837 2.576042 0.15903573
H -1.3874134 2.3268561 -0.07961243
H -0.713022 2.3522787 1.5563092
H -1.6261485 0.1462645 1.9583702
H 0.6508309 -0.24521628 2.449733
H 1.944974 -1.3292702 0.34525007
H 0.451553 -2.3090847 0.30724514
H -1.550727 -1.3235744 -1.1882925
H -1.1495442 -0.03204456 -2.3380418
H -0.25881442 -1.5580802 -2.3844469
H 1.9645808 -0.19709405 -2.0870056
H 1.0240073 1.2998168 -2.0358436
H 2.1258242 0.898613 -0.7070992
