title
 OpenBabel02282109583D

 20 21  0  0  1  0  0  0  0  0999 V2000
   -0.5574    2.0169    0.5474 C   0  0  0  0  0  0  0  0  0  0  0  0
   -0.2778    0.5504    0.4689 C   0  0  2  0  0  0  0  0  0  0  0  0
   -1.1562   -0.3342    1.1828 O   0  0  0  0  0  0  0  0  0  0  0  0
    0.2550   -0.4218    1.4388 C   0  0  1  0  0  0  0  0  0  0  0  0
    0.8505   -1.3010    0.3379 C   0  0  0  0  0  0  0  0  0  0  0  0
    0.3021   -0.2677   -0.7258 C   0  0  0  0  0  0  0  0  0  0  0  0
   -0.7381   -0.8024   -1.7055 C   0  0  0  0  0  0  0  0  0  0  0  0
    1.4345    0.4701   -1.4388 C   0  0  0  0  0  0  0  0  0  0  0  0
    0.3056    2.6035    0.2179 H   0  0  0  0  0  0  0  0  0  0  0  0
   -1.4089    2.2858   -0.0885 H   0  0  0  0  0  0  0  0  0  0  0  0
   -0.8016    2.3004    1.5747 H   0  0  0  0  0  0  0  0  0  0  0  0
    0.5749   -0.2943    2.4675 H   0  0  0  0  0  0  0  0  0  0  0  0
    1.9427   -1.3469    0.3513 H   0  0  0  0  0  0  0  0  0  0  0  0
    0.4425   -2.3140    0.2907 H   0  0  0  0  0  0  0  0  0  0  0  0
   -1.5616   -1.2770   -1.1666 H   0  0  0  0  0  0  0  0  0  0  0  0
   -1.1499    0.0031   -2.3250 H   0  0  0  0  0  0  0  0  0  0  0  0
   -0.2952   -1.5433   -2.3810 H   0  0  0  0  0  0  0  0  0  0  0  0
    1.9731   -0.2067   -2.1112 H   0  0  0  0  0  0  0  0  0  0  0  0
    1.0499    1.3003   -2.0422 H   0  0  0  0  0  0  0  0  0  0  0  0
    2.1602    0.8800   -0.7274 H   0  0  0  0  0  0  0  0  0  0  0  0
  1 11  1  0  0  0  0
  2  1  1  0  0  0  0
  2  3  1  0  0  0  0
  2  4  1  1  0  0  0
  3  4  1  0  0  0  0
  4 12  1  1  0  0  0
  5 13  1  0  0  0  0
  5  4  1  0  0  0  0
  6  5  1  0  0  0  0
  6  2  1  0  0  0  0
  7 15  1  0  0  0  0
  7  6  1  0  0  0  0
  8 20  1  0  0  0  0
  8  6  1  0  0  0  0
  9  1  1  0  0  0  0
 10  1  1  0  0  0  0
 14  5  1  0  0  0  0
 16  7  1  0  0  0  0
 17  7  1  0  0  0  0
 18  8  1  0  0  0  0
 19  8  1  0  0  0  0
M  END
