title
 OpenBabel02282109583D

 18 19  0  0  1  0  0  0  0  0999 V2000
   -0.5065    2.0268    0.5186 C   0  0  0  0  0  0  0  0  0  0  0  0
   -0.2738    0.5535    0.4868 C   0  0  2  0  0  0  0  0  0  0  0  0
   -1.1449   -0.3200    1.2183 O   0  0  0  0  0  0  0  0  0  0  0  0
    0.2717   -0.4118    1.4550 C   0  0  1  0  0  0  0  0  0  0  0  0
    0.8458   -1.3074    0.3550 C   0  0  0  0  0  0  0  0  0  0  0  0
    0.2617   -0.2876   -0.7030 C   0  0  1  0  0  0  0  0  0  0  0  0
   -0.7657   -0.8129   -1.6914 C   0  0  0  0  0  0  0  0  0  0  0  0
    1.2761    0.4748   -1.3356 O   0  0  0  0  0  0  0  0  0  0  0  0
    0.3595    2.5503    0.1054 H   0  0  0  0  0  0  0  0  0  0  0  0
   -1.3839    2.2961   -0.0802 H   0  0  0  0  0  0  0  0  0  0  0  0
   -0.6774    2.3652    1.5441 H   0  0  0  0  0  0  0  0  0  0  0  0
    0.6082   -0.2719    2.4763 H   0  0  0  0  0  0  0  0  0  0  0  0
    1.9377   -1.3021    0.3196 H   0  0  0  0  0  0  0  0  0  0  0  0
    0.4664   -2.3325    0.3377 H   0  0  0  0  0  0  0  0  0  0  0  0
   -1.5890   -1.2949   -1.1593 H   0  0  0  0  0  0  0  0  0  0  0  0
   -1.1635    0.0041   -2.3017 H   0  0  0  0  0  0  0  0  0  0  0  0
   -0.3156   -1.5537   -2.3643 H   0  0  0  0  0  0  0  0  0  0  0  0
    1.6627   -0.0638   -2.0342 H   0  0  0  0  0  0  0  0  0  0  0  0
  1 11  1  0  0  0  0
  2  6  1  6  0  0  0
  2  1  1  0  0  0  0
  2  3  1  0  0  0  0
  3  4  1  0  0  0  0
  4  2  1  6  0  0  0
  4 12  1  0  0  0  0
  5  4  1  0  0  0  0
  6  8  1  6  0  0  0
  6  5  1  0  0  0  0
  7 15  1  0  0  0  0
  7  6  1  0  0  0  0
  9  1  1  0  0  0  0
 10  1  1  0  0  0  0
 13  5  1  0  0  0  0
 14  5  1  0  0  0  0
 16  7  1  0  0  0  0
 17  7  1  0  0  0  0
 18  8  1  0  0  0  0
M  END
