title
 OpenBabel02282109583D

 17 18  0  0  1  0  0  0  0  0999 V2000
    0.0783    2.4366    0.0108 C   0  0  0  0  0  0  0  0  0  0  0  0
    0.2697    0.9487    0.0402 C   0  0  1  0  0  0  0  0  0  0  0  0
    1.1944    0.1345   -0.9020 C   0  0  0  0  0  0  0  0  0  0  0  0
    0.8432   -0.9956    0.1273 C   0  0  1  0  0  0  0  0  0  0  0  0
    0.8759    0.1353    1.2136 C   0  0  0  0  0  0  0  0  0  0  0  0
   -0.6458   -1.0664   -0.0968 C   0  0  0  0  0  0  0  0  0  0  0  0
   -1.3968   -2.0709   -0.2095 N   0  0  0  0  0  0  0  0  0  0  0  0
   -1.0163    0.2616   -0.1531 O   0  0  0  0  0  0  0  0  0  0  0  0
    1.0369    2.9430    0.1549 H   0  0  0  0  0  0  0  0  0  0  0  0
   -0.3411    2.7527   -0.9490 H   0  0  0  0  0  0  0  0  0  0  0  0
   -0.6050    2.7534    0.8044 H   0  0  0  0  0  0  0  0  0  0  0  0
    0.8712    0.0102   -1.9378 H   0  0  0  0  0  0  0  0  0  0  0  0
    2.2404    0.4417   -0.8475 H   0  0  0  0  0  0  0  0  0  0  0  0
    1.3813   -1.9349    0.2087 H   0  0  0  0  0  0  0  0  0  0  0  0
    1.8917    0.4426    1.4692 H   0  0  0  0  0  0  0  0  0  0  0  0
    0.2621    0.0118    2.1084 H   0  0  0  0  0  0  0  0  0  0  0  0
   -2.3654   -1.7787   -0.3554 H   0  0  0  0  0  0  0  0  0  0  0  0
  1  9  1  0  0  0  0
  1 11  1  0  0  0  0
  2  1  1  1  0  0  0
  2  5  1  0  0  0  0
  3 13  1  0  0  0  0
  3  2  1  0  0  0  0
  3  4  1  0  0  0  0
  4 14  1  1  0  0  0
  4  5  1  0  0  0  0
  5 15  1  0  0  0  0
  5 16  1  0  0  0  0
  6  4  1  0  0  0  0
  7  6  2  0  0  0  0
  8  6  1  0  0  0  0
  8  2  1  0  0  0  0
 10  1  1  0  0  0  0
 12  3  1  0  0  0  0
 17  7  1  0  0  0  0
M  END
