18
title
C 0.14409074 2.5390308 0.021728165
C 0.17234583 1.0285999 0.025445864
C 1.1203171 0.21214174 -0.9105975
C 0.8697996 -0.932051 0.12681888
C 0.8130519 0.2116056 1.1931142
C -0.6166836 -1.1683143 -0.09032386
O -1.2192545 -2.2037358 -0.1787448
C -1.1621231 0.2752781 -0.16967632
H 1.1472623 2.9536734 0.1680762
H -0.24340361 2.9250689 -0.9279486
H -0.49841356 2.9245844 0.82147896
H 0.8152944 0.04794728 -1.9485071
H 2.1516716 0.5716467 -0.8724998
H 1.5055804 -1.8094944 0.219453
H 1.8121934 0.5710489 1.4517734
H 0.22391957 0.046924584 2.1003401
H -1.897471 0.46655715 0.6190391
H -1.6411161 0.4669727 -1.1357068
