17
title
C 0.14843374 2.4818225 0.018040506
C 0.2543793 0.97989196 0.025608694
C 1.2102956 0.16752662 -0.89578927
C 0.8441883 -0.9759768 0.10242759
C 0.8439155 0.14072414 1.2077254
C -0.6740468 -1.0807754 -0.11125948
O -1.4040606 -2.038716 -0.09524618
N -1.0163668 0.2646457 -0.27418485
H 1.1265382 2.9343517 0.20453914
H -0.21971434 2.841606 -0.9480423
H -0.53737366 2.8352926 0.79669404
H 0.9175744 0.05713774 -1.9420681
H 2.253252 0.4803177 -0.8066485
H 1.3917251 -1.9107624 0.18680891
H 1.852094 0.44510448 1.5003012
H 0.21308477 -0.006533252 2.0888395
H -1.8930846 0.5904755 0.10955166
