title
 OpenBabel02282109583D

 16 17  0  0  1  0  0  0  0  0999 V2000
    0.0906    2.4427    0.0139 C   0  0  0  0  0  0  0  0  0  0  0  0
    0.2784    0.9549    0.0420 C   0  0  1  0  0  0  0  0  0  0  0  0
    1.2011    0.1403   -0.9020 C   0  0  0  0  0  0  0  0  0  0  0  0
    0.8538   -0.9880    0.1282 C   0  0  1  0  0  0  0  0  0  0  0  0
    0.8827    0.1400    1.2154 C   0  0  0  0  0  0  0  0  0  0  0  0
   -0.6509   -1.0551   -0.0982 C   0  0  0  0  0  0  0  0  0  0  0  0
   -1.4116   -1.9675   -0.2123 O   0  0  0  0  0  0  0  0  0  0  0  0
   -1.0108    0.2702   -0.1520 O   0  0  0  0  0  0  0  0  0  0  0  0
    1.0509    2.9458    0.1587 H   0  0  0  0  0  0  0  0  0  0  0  0
   -0.3279    2.7605   -0.9456 H   0  0  0  0  0  0  0  0  0  0  0  0
   -0.5921    2.7602    0.8075 H   0  0  0  0  0  0  0  0  0  0  0  0
    0.8762    0.0168   -1.9374 H   0  0  0  0  0  0  0  0  0  0  0  0
    2.2476    0.4473   -0.8508 H   0  0  0  0  0  0  0  0  0  0  0  0
    1.3842   -1.9321    0.2079 H   0  0  0  0  0  0  0  0  0  0  0  0
    1.8979    0.4470    1.4743 H   0  0  0  0  0  0  0  0  0  0  0  0
    0.2676    0.0163    2.1094 H   0  0  0  0  0  0  0  0  0  0  0  0
  1  9  1  0  0  0  0
  1 11  1  0  0  0  0
  2  1  1  1  0  0  0
  2  5  1  0  0  0  0
  3 13  1  0  0  0  0
  3  2  1  0  0  0  0
  3  4  1  0  0  0  0
  4 14  1  1  0  0  0
  4  5  1  0  0  0  0
  5 15  1  0  0  0  0
  5 16  1  0  0  0  0
  6  4  1  0  0  0  0
  7  6  2  0  0  0  0
  8  6  1  0  0  0  0
  8  2  1  0  0  0  0
 10  1  1  0  0  0  0
 12  3  1  0  0  0  0
M  END
