16
title
O -0.1865161 2.379713 0.16623211
C -0.11095759 0.9910656 0.16540419
C 0.22189528 0.1526997 1.4419909
C -0.5420746 -0.9664753 0.6548186
C -1.4354241 0.19534294 0.09637969
C 0.40512276 -1.1681545 -0.5182119
O 0.7951526 -2.186901 -1.0186031
C 0.7464203 0.2899325 -0.9097742
H 0.7036561 2.7382014 0.08321675
H 1.2695776 -0.020752741 1.7041602
H -0.34420928 0.49206826 2.3115427
H -0.9522954 -1.8524776 1.1316899
H -2.1581728 0.5388357 0.8389242
H -1.9140563 0.06502102 -0.8777294
H 0.43430406 0.5187248 -1.9332392
H 1.8208234 0.484497 -0.81852615
