title
 OpenBabel02282109583D

 18 19  0  0  1  0  0  0  0  0999 V2000
   -0.0976    2.7647    0.0582 C   0  0  0  0  0  0  0  0  0  0  0  0
   -0.0422    1.2784   -0.0124 C   0  0  0  0  0  0  0  0  0  0  0  0
   -0.0597    0.4288   -1.0438 C   0  0  0  0  0  0  0  0  0  0  0  0
    0.0212   -0.9568   -0.3683 C   0  0  2  0  0  0  0  0  0  0  0  0
   -0.0429   -2.1123   -1.1409 O   0  0  0  0  0  0  0  0  0  0  0  0
   -0.9989   -0.7676    0.7912 C   0  0  0  0  0  0  0  0  0  0  0  0
    0.0470    0.3288    1.2002 C   0  0  1  0  0  0  0  0  0  0  0  0
    1.1384   -0.6798    0.7042 C   0  0  0  0  0  0  0  0  0  0  0  0
    0.7878    3.1753    0.5609 H   0  0  0  0  0  0  0  0  0  0  0  0
   -0.1585    3.2108   -0.9387 H   0  0  0  0  0  0  0  0  0  0  0  0
   -0.9665    3.1054    0.6362 H   0  0  0  0  0  0  0  0  0  0  0  0
   -0.1315    0.6149   -2.1074 H   0  0  0  0  0  0  0  0  0  0  0  0
    0.6300   -2.0556   -1.8276 H   0  0  0  0  0  0  0  0  0  0  0  0
   -2.0048   -0.4356    0.5252 H   0  0  0  0  0  0  0  0  0  0  0  0
   -1.0287   -1.6181    1.4792 H   0  0  0  0  0  0  0  0  0  0  0  0
    0.0708    0.7600    2.1997 H   0  0  0  0  0  0  0  0  0  0  0  0
    1.2956   -1.5228    1.3843 H   0  0  0  0  0  0  0  0  0  0  0  0
    2.0878   -0.2643    0.3569 H   0  0  0  0  0  0  0  0  0  0  0  0
  1  9  1  0  0  0  0
  1 11  1  0  0  0  0
  2  1  1  0  0  0  0
  2  7  1  0  0  0  0
  3  4  1  0  0  0  0
  3  2  2  0  0  0  0
  4  5  1  6  0  0  0
  4  8  1  0  0  0  0
  4  6  1  0  0  0  0
  6  7  1  0  0  0  0
  6 15  1  0  0  0  0
  7 16  1  1  0  0  0
  8  7  1  0  0  0  0
  8 17  1  0  0  0  0
 10  1  1  0  0  0  0
 12  3  1  0  0  0  0
 13  5  1  0  0  0  0
 14  6  1  0  0  0  0
 18  8  1  0  0  0  0
M  END
