title
 OpenBabel02282109583D

 18 19  0  0  1  0  0  0  0  0999 V2000
    0.1353    2.4654   -0.1188 C   0  0  0  0  0  0  0  0  0  0  0  0
    0.0964    0.9715   -0.2659 C   0  0  1  0  0  0  0  0  0  0  0  0
    0.8088    0.1851   -1.3984 C   0  0  0  0  0  0  0  0  0  0  0  0
    0.8222   -0.8563   -0.2700 C   0  0  1  0  0  0  0  0  0  0  0  0
    0.9455    0.2360    0.7000 O   0  0  0  0  0  0  0  0  0  0  0  0
   -0.6578   -1.2383   -0.0498 C   0  0  1  0  0  0  0  0  0  0  0  0
   -0.8498   -1.8616    1.1995 O   0  0  0  0  0  0  0  0  0  0  0  0
   -1.2428    0.2123   -0.1333 C   0  0  0  0  0  0  0  0  0  0  0  0
    1.1592    2.8400   -0.2026 H   0  0  0  0  0  0  0  0  0  0  0  0
   -0.4738    2.9383   -0.8960 H   0  0  0  0  0  0  0  0  0  0  0  0
   -0.2647    2.7654    0.8554 H   0  0  0  0  0  0  0  0  0  0  0  0
    0.2598   -0.0300   -2.3191 H   0  0  0  0  0  0  0  0  0  0  0  0
    1.8051    0.5775   -1.6083 H   0  0  0  0  0  0  0  0  0  0  0  0
    1.5740   -1.6374   -0.1603 H   0  0  0  0  0  0  0  0  0  0  0  0
   -1.0556   -1.9190   -0.8065 H   0  0  0  0  0  0  0  0  0  0  0  0
   -0.3836   -1.3030    1.8362 H   0  0  0  0  0  0  0  0  0  0  0  0
   -1.7794    0.4661    0.7842 H   0  0  0  0  0  0  0  0  0  0  0  0
   -1.9075    0.3732   -0.9865 H   0  0  0  0  0  0  0  0  0  0  0  0
  1 11  1  0  0  0  0
  2  8  1  0  0  0  0
  2  1  1  6  0  0  0
  2  5  1  0  0  0  0
  3  4  1  0  0  0  0
  3  2  1  0  0  0  0
  4 14  1  0  0  0  0
  4  6  1  1  0  0  0
  4  5  1  0  0  0  0
  6 15  1  6  0  0  0
  6  7  1  0  0  0  0
  7 16  1  0  0  0  0
  8  6  1  0  0  0  0
  8 17  1  0  0  0  0
  9  1  1  0  0  0  0
 10  1  1  0  0  0  0
 12  3  1  0  0  0  0
 13  3  1  0  0  0  0
 18  8  1  0  0  0  0
M  END
