title
 OpenBabel02282109583D

 20 21  0  0  1  0  0  0  0  0999 V2000
   -1.4663    2.1660   -0.0721 C   0  0  0  0  0  0  0  0  0  0  0  0
   -1.2463    0.6550   -0.0539 C   0  0  1  0  0  0  0  0  0  0  0  0
   -0.3013    0.1000   -1.1726 C   0  0  0  0  0  0  0  0  0  0  0  0
    0.7186   -0.6490   -0.2879 C   0  0  2  0  0  0  0  0  0  0  0  0
    1.7162   -1.3956   -0.9129 O   0  0  0  0  0  0  0  0  0  0  0  0
   -0.1920   -1.3583    0.7424 C   0  0  0  0  0  0  0  0  0  0  0  0
   -0.4816    0.1076    1.1791 C   0  0  1  0  0  0  0  0  0  0  0  0
    1.0064    0.4008    0.8335 C   0  0  0  0  0  0  0  0  0  0  0  0
   -0.5228    2.7163    0.0063 H   0  0  0  0  0  0  0  0  0  0  0  0
   -1.9550    2.4805   -1.0007 H   0  0  0  0  0  0  0  0  0  0  0  0
   -2.1039    2.4800    0.7618 H   0  0  0  0  0  0  0  0  0  0  0  0
   -2.2244    0.1642   -0.1169 H   0  0  0  0  0  0  0  0  0  0  0  0
   -0.8050   -0.5729   -1.8727 H   0  0  0  0  0  0  0  0  0  0  0  0
    0.1736    0.9014   -1.7520 H   0  0  0  0  0  0  0  0  0  0  0  0
    2.1236   -0.8490   -1.5933 H   0  0  0  0  0  0  0  0  0  0  0  0
   -1.0231   -1.9625    0.3658 H   0  0  0  0  0  0  0  0  0  0  0  0
    0.3860   -1.9174    1.4811 H   0  0  0  0  0  0  0  0  0  0  0  0
   -0.8941    0.3372    2.1612 H   0  0  0  0  0  0  0  0  0  0  0  0
    1.6968    0.0110    1.5844 H   0  0  0  0  0  0  0  0  0  0  0  0
    1.2941    1.4155    0.5430 H   0  0  0  0  0  0  0  0  0  0  0  0
  1  2  1  0  0  0  0
  1  9  1  0  0  0  0
  1 11  1  0  0  0  0
  2  7  1  1  0  0  0
  3  4  1  0  0  0  0
  3  2  1  0  0  0  0
  4  5  1  6  0  0  0
  4  6  1  0  0  0  0
  4  8  1  0  0  0  0
  6  7  1  0  0  0  0
  6 17  1  0  0  0  0
  7 18  1  1  0  0  0
  8  7  1  0  0  0  0
  8 19  1  0  0  0  0
 10  1  1  0  0  0  0
 12  2  1  0  0  0  0
 13  3  1  0  0  0  0
 14  3  1  0  0  0  0
 15  5  1  0  0  0  0
 16  6  1  0  0  0  0
 20  8  1  0  0  0  0
M  END
