title
 OpenBabel02282109583D

 19 20  0  0  1  0  0  0  0  0999 V2000
   -1.3676    2.1716   -0.0776 C   0  0  0  0  0  0  0  0  0  0  0  0
   -1.1816    0.6616   -0.0736 C   0  0  1  0  0  0  0  0  0  0  0  0
   -0.2722    0.0725   -1.2021 C   0  0  0  0  0  0  0  0  0  0  0  0
    0.7037   -0.6839   -0.2905 C   0  0  2  0  0  0  0  0  0  0  0  0
    1.6867   -1.3897   -0.9750 O   0  0  0  0  0  0  0  0  0  0  0  0
   -0.2691   -1.2787    0.7696 C   0  0  0  0  0  0  0  0  0  0  0  0
   -0.4981    0.1617    1.1766 N   0  0  1  0  0  0  0  0  0  0  0  0
    0.9586    0.3782    0.8154 C   0  0  0  0  0  0  0  0  0  0  0  0
   -0.4129    2.7067   -0.0732 H   0  0  0  0  0  0  0  0  0  0  0  0
   -1.9136    2.4820   -0.9745 H   0  0  0  0  0  0  0  0  0  0  0  0
   -1.9375    2.4869    0.8013 H   0  0  0  0  0  0  0  0  0  0  0  0
   -2.1707    0.1926   -0.0933 H   0  0  0  0  0  0  0  0  0  0  0  0
   -0.7988   -0.5972   -1.8870 H   0  0  0  0  0  0  0  0  0  0  0  0
    0.2376    0.8387   -1.7939 H   0  0  0  0  0  0  0  0  0  0  0  0
    2.2572   -1.8211   -0.3303 H   0  0  0  0  0  0  0  0  0  0  0  0
   -1.1616   -1.8190    0.4399 H   0  0  0  0  0  0  0  0  0  0  0  0
    0.2324   -1.8246    1.5742 H   0  0  0  0  0  0  0  0  0  0  0  0
    1.5970    0.0251    1.6302 H   0  0  0  0  0  0  0  0  0  0  0  0
    1.2392    1.3956    0.5334 H   0  0  0  0  0  0  0  0  0  0  0  0
  1  2  1  0  0  0  0
  1  9  1  0  0  0  0
  1 11  1  0  0  0  0
  2  7  1  1  0  0  0
  3  4  1  0  0  0  0
  3  2  1  0  0  0  0
  4  5  1  6  0  0  0
  4  6  1  0  0  0  0
  4  8  1  0  0  0  0
  5 15  1  0  0  0  0
  6 17  1  0  0  0  0
  7  6  1  6  0  0  0
  8  7  1  0  0  0  0
  8 18  1  0  0  0  0
 10  1  1  0  0  0  0
 12  2  1  0  0  0  0
 13  3  1  0  0  0  0
 14  3  1  0  0  0  0
 16  6  1  0  0  0  0
 19  8  1  0  0  0  0
M  END
