20
title
C -1.3524783 2.1059024 -0.1278263
C -1.1739271 0.6012464 -0.0046601067
O -0.2928692 0.089896396 -1.0372847
C 0.6961619 -0.6409477 -0.27747616
C 1.69666 -1.282824 -1.1963029
C -0.17076617 -1.3963193 0.7692705
C -0.44252104 0.06592305 1.2399956
C 1.0443902 0.35225505 0.8648596
H -0.4148999 2.643392 0.037006434
H -1.7145005 2.357893 -1.129085
H -2.0900707 2.4621236 0.59969306
H -2.1550577 0.1165375 -0.110789135
H 2.2058764 -0.5236044 -1.7981877
H 2.4476697 -1.8336681 -0.62300026
H 1.199373 -1.9789518 -1.8789202
H -1.0118618 -1.9827727 0.389277
H 0.41876227 -1.974363 1.4834899
H -0.86523604 0.3048285 2.2153463
H 1.7438288 -0.061108872 1.5940657
H 1.3393981 1.3636013 0.57750267
