title
 OpenBabel02282109583D

 18 19  0  0  1  0  0  0  0  0999 V2000
    0.6410    2.0503   -1.1061 O   0  0  0  0  0  0  0  0  0  0  0  0
    0.6715    0.6347   -1.0373 C   0  0  1  0  0  0  0  0  0  0  0  0
    1.1784    0.0595    0.3276 C   0  0  0  0  0  0  0  0  0  0  0  0
   -0.1131   -0.6617    0.7708 C   0  0  2  0  0  0  0  0  0  0  0  0
   -0.0895   -1.4056    1.9491 O   0  0  0  0  0  0  0  0  0  0  0  0
   -0.5406   -1.3735   -0.5351 C   0  0  0  0  0  0  0  0  0  0  0  0
   -0.7662    0.0908   -1.0130 C   0  0  1  0  0  0  0  0  0  0  0  0
   -1.2103    0.4030    0.4431 C   0  0  0  0  0  0  0  0  0  0  0  0
    1.5479    2.3706   -1.0800 H   0  0  0  0  0  0  0  0  0  0  0  0
    1.2384    0.2230   -1.8844 H   0  0  0  0  0  0  0  0  0  0  0  0
    2.0203   -0.6320    0.2276 H   0  0  0  0  0  0  0  0  0  0  0  0
    1.4616    0.8688    1.0098 H   0  0  0  0  0  0  0  0  0  0  0  0
    0.2337   -0.8405    2.6591 H   0  0  0  0  0  0  0  0  0  0  0  0
    0.2016   -1.9883   -1.0538 H   0  0  0  0  0  0  0  0  0  0  0  0
   -1.4768   -1.9223   -0.4171 H   0  0  0  0  0  0  0  0  0  0  0  0
   -1.3912    0.3292   -1.8714 H   0  0  0  0  0  0  0  0  0  0  0  0
   -2.2119    0.0300    0.6655 H   0  0  0  0  0  0  0  0  0  0  0  0
   -1.0795    1.4248    0.8057 H   0  0  0  0  0  0  0  0  0  0  0  0
  1  9  1  0  0  0  0
  1  2  1  0  0  0  0
  2  7  1  6  0  0  0
  2  3  1  0  0  0  0
  3  4  1  0  0  0  0
  3 12  1  0  0  0  0
  4  5  1  1  0  0  0
  5 13  1  0  0  0  0
  6 15  1  0  0  0  0
  6  4  1  0  0  0  0
  7 16  1  6  0  0  0
  7  6  1  0  0  0  0
  7  8  1  0  0  0  0
  8 17  1  0  0  0  0
  8  4  1  0  0  0  0
  8 18  1  0  0  0  0
 10  2  1  0  0  0  0
 11  3  1  0  0  0  0
 14  6  1  0  0  0  0
M  END
