17
title
C -0.70086837 2.2779636 -0.2781629
C -0.569213 0.7889995 -0.34029564
C -0.088395104 -0.044848934 -1.5418035
C 0.60349584 -0.96941996 -0.500114
O 1.4414402 -1.8206517 -0.5830718
C 0.047239553 -0.17458828 0.6593878
C 0.6286273 -0.013650016 2.0276644
N -1.4418119 -0.12677874 0.4100229
H 0.18474413 2.7692134 -0.69406873
H -1.5710057 2.618317 -0.85129225
H -0.82705045 2.6216955 0.7544715
H -0.87263364 -0.48548868 -2.1609585
H 0.6598425 0.44825745 -2.1695833
H 1.7178229 0.07738863 1.9755967
H 0.2329718 0.87892187 2.5250242
H 0.39707208 -0.87988997 2.6566925
H -1.8224648 0.39445773 1.2031734
