title
 OpenBabel02282109583D

 17 18  0  0  1  0  0  0  0  0999 V2000
   -0.0789    2.2538   -0.6602 C   0  0  0  0  0  0  0  0  0  0  0  0
    0.0604    0.7706   -0.6250 C   0  0  1  0  0  0  0  0  0  0  0  0
    1.1934   -0.0923   -1.0592 C   0  0  0  0  0  0  0  0  0  0  0  0
    0.6356   -0.2250    0.3696 C   0  0  1  0  0  0  0  0  0  0  0  0
    1.4551   -0.1011    1.6187 C   0  0  0  0  0  0  0  0  0  0  0  0
   -0.6982   -0.8875    0.2449 C   0  0  0  0  0  0  0  0  0  0  0  0
   -1.2746   -1.8301    0.8376 N   0  0  0  0  0  0  0  0  0  0  0  0
   -1.1673   -0.0189   -0.7388 O   0  0  0  0  0  0  0  0  0  0  0  0
    0.8832    2.7298   -0.4503 H   0  0  0  0  0  0  0  0  0  0  0  0
   -0.4114    2.5875   -1.6493 H   0  0  0  0  0  0  0  0  0  0  0  0
   -0.8083    2.5957    0.0800 H   0  0  0  0  0  0  0  0  0  0  0  0
    1.0309   -0.8730   -1.7961 H   0  0  0  0  0  0  0  0  0  0  0  0
    2.1683    0.3863   -1.0997 H   0  0  0  0  0  0  0  0  0  0  0  0
    2.2448    0.6468    1.4977 H   0  0  0  0  0  0  0  0  0  0  0  0
    0.8340    0.1891    2.4714 H   0  0  0  0  0  0  0  0  0  0  0  0
    1.9334   -1.0548    1.8648 H   0  0  0  0  0  0  0  0  0  0  0  0
   -2.2286   -1.9533    0.4934 H   0  0  0  0  0  0  0  0  0  0  0  0
  1  2  1  0  0  0  0
  1  9  1  0  0  0  0
  1 11  1  0  0  0  0
  2  4  1  1  0  0  0
  3  2  1  0  0  0  0
  3  4  1  0  0  0  0
  4  5  1  1  0  0  0
  5 16  1  0  0  0  0
  5 15  1  0  0  0  0
  6  4  1  0  0  0  0
  6  7  2  0  0  0  0
  8  2  1  0  0  0  0
  8  6  1  0  0  0  0
 10  1  1  0  0  0  0
 12  3  1  0  0  0  0
 13  3  1  0  0  0  0
 14  5  1  0  0  0  0
 17  7  1  0  0  0  0
M  END
