17
title
C -0.078891315 2.2537897 -0.6602261
C 0.06042962 0.7705941 -0.6250257
C 1.1934322 -0.092313804 -1.0591859
C 0.6355559 -0.22498278 0.36964467
C 1.4551071 -0.10111038 1.618691
C -0.6982213 -0.8874633 0.244916
N -1.2746345 -1.830144 0.83755416
O -1.1672596 -0.01889465 -0.738761
H 0.8832432 2.7298262 -0.45034745
H -0.41135985 2.5874946 -1.649251
H -0.80829644 2.5956707 0.08002851
H 1.0309019 -0.87303203 -1.7960678
H 2.1682577 0.38626763 -1.0996755
H 2.2447853 0.6468436 1.4976714
H 0.83400816 0.18905683 2.4714167
H 1.9334481 -1.0547599 1.8647888
H -2.2285545 -1.9533437 0.49341336
