title
 OpenBabel02282109583D

 18 19  0  0  1  0  0  0  0  0999 V2000
   -0.0044    2.2914   -0.7014 C   0  0  0  0  0  0  0  0  0  0  0  0
   -0.0221    0.7914   -0.7173 C   0  0  1  0  0  0  0  0  0  0  0  0
    1.1396   -0.0616   -1.0887 C   0  0  0  0  0  0  0  0  0  0  0  0
    0.5953   -0.2011    0.3327 C   0  0  1  0  0  0  0  0  0  0  0  0
    1.4416   -0.0016    1.5569 C   0  0  0  0  0  0  0  0  0  0  0  0
   -0.6852   -0.9724    0.2747 C   0  0  0  0  0  0  0  0  0  0  0  0
   -1.1576   -1.8180    0.9842 O   0  0  0  0  0  0  0  0  0  0  0  0
   -1.2944   -0.0681   -0.8286 C   0  0  0  0  0  0  0  0  0  0  0  0
    0.9743    2.6747   -0.3948 H   0  0  0  0  0  0  0  0  0  0  0  0
   -0.2178    2.6961   -1.6979 H   0  0  0  0  0  0  0  0  0  0  0  0
   -0.7566    2.6927   -0.0135 H   0  0  0  0  0  0  0  0  0  0  0  0
    1.0342   -0.8710   -1.8073 H   0  0  0  0  0  0  0  0  0  0  0  0
    2.1059    0.4344   -1.1247 H   0  0  0  0  0  0  0  0  0  0  0  0
    2.1231    0.8464    1.4340 H   0  0  0  0  0  0  0  0  0  0  0  0
    0.8209    0.1825    2.4394 H   0  0  0  0  0  0  0  0  0  0  0  0
    2.0511   -0.8886    1.7609 H   0  0  0  0  0  0  0  0  0  0  0  0
   -2.1998    0.4181   -0.4516 H   0  0  0  0  0  0  0  0  0  0  0  0
   -1.5078   -0.5153   -1.8046 H   0  0  0  0  0  0  0  0  0  0  0  0
  1  9  1  0  0  0  0
  1 11  1  0  0  0  0
  2  1  1  0  0  0  0
  2  4  1  1  0  0  0
  3  2  1  0  0  0  0
  3  4  1  0  0  0  0
  4  5  1  1  0  0  0
  5 16  1  0  0  0  0
  5 15  1  0  0  0  0
  6  4  1  0  0  0  0
  6  7  2  0  0  0  0
  8  2  1  0  0  0  0
  8 17  1  0  0  0  0
  8  6  1  0  0  0  0
 10  1  1  0  0  0  0
 12  3  1  0  0  0  0
 13  3  1  0  0  0  0
 14  5  1  0  0  0  0
 18  8  1  0  0  0  0
M  END
