16
title
C -0.06148586 2.258757 -0.6482903
C 0.07533433 0.77517265 -0.6257163
C 1.201772 -0.09145427 -1.0604295
C 0.6428452 -0.21510446 0.37313944
C 1.4614626 -0.09492451 1.6235666
C -0.7046104 -0.8783608 0.24022394
O -1.309649 -1.7602713 0.7584711
O -1.1557307 -0.011919562 -0.7471797
H 0.901042 2.7306736 -0.43136135
H -0.3911027 2.6010778 -1.6349033
H -0.79281807 2.5938592 0.09291607
H 1.0326207 -0.8744684 -1.7930082
H 2.1828632 0.37473252 -1.1002507
H 2.2548847 0.6488142 1.5013964
H 0.84365153 0.20234817 2.4763575
H 1.9361475 -1.0498978 1.8714857
