15
title
C -0.16307695 2.264121 -0.5795003
C 0.019861229 0.78760684 -0.6213904
C 1.1678524 -0.022975896 -1.0998626
C 0.6555909 -0.20791414 0.34083205
N 1.5135071 -0.0155258505 1.4469993
C -0.68045324 -0.9140851 0.2490077
O -1.2542251 -1.8038571 0.7890685
O -1.1786304 -0.049336586 -0.72088295
H 0.7798348 2.7439523 -0.30241278
H -0.47242698 2.6520033 -1.5555941
H -0.92527944 2.537536 0.15603322
H 1.0176325 -0.79733366 -1.8451405
H 2.128337 0.4833193 -1.1294476
H 0.99027014 0.08611056 2.3102627
H 2.1515453 -0.7961536 1.563483
