title
 OpenBabel02282109583D

 16 17  0  0  1  0  0  0  0  0999 V2000
   -0.1376    2.3098   -0.5562 C   0  0  0  0  0  0  0  0  0  0  0  0
   -0.0114    0.8257   -0.6399 C   0  0  1  0  0  0  0  0  0  0  0  0
    1.1610    0.0234   -1.1225 C   0  0  0  0  0  0  0  0  0  0  0  0
    0.6323   -0.2601    0.2616 C   0  0  1  0  0  0  0  0  0  0  0  0
    1.4636   -0.2584    1.3524 O   0  0  0  0  0  0  0  0  0  0  0  0
   -0.7084   -0.9185    0.2219 C   0  0  0  0  0  0  0  0  0  0  0  0
   -1.2113   -1.7651    1.0116 N   0  0  0  0  0  0  0  0  0  0  0  0
   -1.2105   -0.0668   -0.8193 N   0  0  0  0  0  0  0  0  0  0  0  0
    0.8212    2.7562   -0.2778 H   0  0  0  0  0  0  0  0  0  0  0  0
   -0.4410    2.7396   -1.5185 H   0  0  0  0  0  0  0  0  0  0  0  0
   -0.8794    2.6057    0.1951 H   0  0  0  0  0  0  0  0  0  0  0  0
    1.0484   -0.6897   -1.9352 H   0  0  0  0  0  0  0  0  0  0  0  0
    2.1132    0.5463   -1.0873 H   0  0  0  0  0  0  0  0  0  0  0  0
    0.9145   -0.4448    2.1246 H   0  0  0  0  0  0  0  0  0  0  0  0
   -2.2037   -1.9193    0.8236 H   0  0  0  0  0  0  0  0  0  0  0  0
   -2.1026    0.3649   -0.5949 H   0  0  0  0  0  0  0  0  0  0  0  0
  1  9  1  0  0  0  0
  1 11  1  0  0  0  0
  2  1  1  0  0  0  0
  2  4  1  1  0  0  0
  3 13  1  0  0  0  0
  3  2  1  0  0  0  0
  3  4  1  0  0  0  0
  4  5  1  1  0  0  0
  5 14  1  0  0  0  0
  6  4  1  0  0  0  0
  6  7  2  0  0  0  0
  8  2  1  0  0  0  0
  8 16  1  0  0  0  0
  8  6  1  0  0  0  0
 10  1  1  0  0  0  0
 12  3  1  0  0  0  0
 15  7  1  0  0  0  0
M  END
