15
title
C -0.074652754 2.2572074 -0.63714826
C 0.059615225 0.77469105 -0.62291735
C 1.2017632 -0.08871886 -1.057603
C 0.6147485 -0.22873607 0.35858196
O 1.3350289 -0.022069242 1.5063245
C -0.7222834 -0.896382 0.23557793
N -1.301263 -1.8447527 0.8120536
O -1.1646258 -0.022059109 -0.75691134
H 0.8815263 2.7200365 -0.37830907
H -0.36932522 2.6119528 -1.6303493
H -0.8279599 2.5836344 0.085421786
H 1.0561583 -0.856187 -1.811612
H 2.1738603 0.39666927 -1.0539421
H 1.8552663 -0.8132881 1.6876545
H -2.251317 -1.9714645 0.45904106
