14
title
C -0.06982657 2.2591522 -0.6238601
C 0.06820147 0.7769333 -0.62724215
C 1.2050023 -0.084482476 -1.0664967
C 0.62784845 -0.21981697 0.35809037
O 1.3545014 -0.014690619 1.500428
C -0.7266475 -0.8893412 0.23918785
O -1.337987 -1.7681489 0.7504621
O -1.1541748 -0.022816818 -0.7619129
H 0.8840492 2.721113 -0.35499638
H -0.36247632 2.6253974 -1.6130599
H -0.8271529 2.5723932 0.1001115
H 1.0524241 -0.8569314 -1.8135862
H 2.1812365 0.39340743 -1.0693091
H 1.9670976 -0.7499351 1.6165433
