title
 OpenBabel02282109583D

 18 19  0  0  1  0  0  0  0  0999 V2000
   -0.9329    2.1917   -0.2605 C   0  0  0  0  0  0  0  0  0  0  0  0
   -0.6241    0.7323   -0.3318 C   0  0  1  0  0  0  0  0  0  0  0  0
   -0.1080   -0.0838   -1.5282 C   0  0  0  0  0  0  0  0  0  0  0  0
    0.5053   -1.1049   -0.5022 C   0  0  1  0  0  0  0  0  0  0  0  0
    1.9161   -1.1269   -0.4644 O   0  0  0  0  0  0  0  0  0  0  0  0
   -0.0394   -0.2212    0.6360 C   0  0  1  0  0  0  0  0  0  0  0  0
    0.5044   -0.0952    2.0192 C   0  0  0  0  0  0  0  0  0  0  0  0
   -1.4586   -0.1754    0.4198 O   0  0  0  0  0  0  0  0  0  0  0  0
   -0.0975    2.7843   -0.6473 H   0  0  0  0  0  0  0  0  0  0  0  0
   -1.8204    2.4306   -0.8578 H   0  0  0  0  0  0  0  0  0  0  0  0
   -1.1302    2.4936    0.7716 H   0  0  0  0  0  0  0  0  0  0  0  0
   -0.8761   -0.4501   -2.2146 H   0  0  0  0  0  0  0  0  0  0  0  0
    0.6905    0.4191   -2.0807 H   0  0  0  0  0  0  0  0  0  0  0  0
    0.0785   -2.1165   -0.5278 H   0  0  0  0  0  0  0  0  0  0  0  0
    2.2324   -1.5903   -1.2461 H   0  0  0  0  0  0  0  0  0  0  0  0
    1.5920    0.0116    1.9826 H   0  0  0  0  0  0  0  0  0  0  0  0
    0.0750    0.7709    2.5303 H   0  0  0  0  0  0  0  0  0  0  0  0
    0.2708   -0.9884    2.6099 H   0  0  0  0  0  0  0  0  0  0  0  0
  1 11  1  0  0  0  0
  2  1  1  0  0  0  0
  2  8  1  0  0  0  0
  2  6  1  1  0  0  0
  3  4  1  0  0  0  0
  3  2  1  0  0  0  0
  4  5  1  0  0  0  0
  4  6  1  1  0  0  0
  6  7  1  1  0  0  0
  7 17  1  0  0  0  0
  7 18  1  0  0  0  0
  8  6  1  0  0  0  0
  9  1  1  0  0  0  0
 10  1  1  0  0  0  0
 12  3  1  0  0  0  0
 13  3  1  0  0  0  0
 14  4  1  0  0  0  0
 15  5  1  0  0  0  0
 16  7  1  0  0  0  0
M  END
