20
title
C 0.038929418 2.2401674 -0.8248379
C 0.026156344 0.7390804 -0.7707991
C 1.2104896 -0.10964774 -1.1518924
C 0.6462795 -0.24630736 0.24057882
C 1.4563013 -0.033620946 1.4873985
C -0.6094305 -1.1365048 0.15776776
O -1.3303792 -1.2858853 1.3622502
C -1.232679 -0.13671766 -0.8705646
H 1.0155741 2.6409202 -0.53294545
H -0.17302768 2.6028712 -1.8383441
H -0.7140737 2.674544 -0.15649642
H 1.1069106 -0.9159319 -1.8770909
H 2.1609547 0.41367662 -1.2109774
H 2.1016462 0.8464077 1.3972017
H 0.81427586 0.10585291 2.363431
H 2.101102 -0.89660484 1.6928166
H -0.43815228 -2.1574185 -0.20037599
H -1.5501722 -0.40642494 1.6893586
H -2.1230931 0.33457744 -0.44113216
H -1.4891692 -0.5192476 -1.8650084
