title
 OpenBabel02282109583D

 20 21  0  0  1  0  0  0  0  0999 V2000
    0.0389    2.2402   -0.8248 C   0  0  0  0  0  0  0  0  0  0  0  0
    0.0262    0.7391   -0.7708 C   0  0  1  0  0  0  0  0  0  0  0  0
    1.2105   -0.1096   -1.1519 C   0  0  0  0  0  0  0  0  0  0  0  0
    0.6463   -0.2463    0.2406 C   0  0  1  0  0  0  0  0  0  0  0  0
    1.4563   -0.0336    1.4874 C   0  0  0  0  0  0  0  0  0  0  0  0
   -0.6094   -1.1365    0.1578 C   0  0  1  0  0  0  0  0  0  0  0  0
   -1.3304   -1.2859    1.3623 O   0  0  0  0  0  0  0  0  0  0  0  0
   -1.2327   -0.1367   -0.8706 C   0  0  0  0  0  0  0  0  0  0  0  0
    1.0156    2.6409   -0.5329 H   0  0  0  0  0  0  0  0  0  0  0  0
   -0.1730    2.6029   -1.8383 H   0  0  0  0  0  0  0  0  0  0  0  0
   -0.7141    2.6745   -0.1565 H   0  0  0  0  0  0  0  0  0  0  0  0
    1.1069   -0.9159   -1.8771 H   0  0  0  0  0  0  0  0  0  0  0  0
    2.1610    0.4137   -1.2110 H   0  0  0  0  0  0  0  0  0  0  0  0
    2.1016    0.8464    1.3972 H   0  0  0  0  0  0  0  0  0  0  0  0
    0.8143    0.1059    2.3634 H   0  0  0  0  0  0  0  0  0  0  0  0
    2.1011   -0.8966    1.6928 H   0  0  0  0  0  0  0  0  0  0  0  0
   -0.4382   -2.1574   -0.2004 H   0  0  0  0  0  0  0  0  0  0  0  0
   -1.5502   -0.4064    1.6894 H   0  0  0  0  0  0  0  0  0  0  0  0
   -2.1231    0.3346   -0.4411 H   0  0  0  0  0  0  0  0  0  0  0  0
   -1.4892   -0.5192   -1.8650 H   0  0  0  0  0  0  0  0  0  0  0  0
  1  2  1  0  0  0  0
  1  9  1  0  0  0  0
  1 11  1  0  0  0  0
  2  4  1  1  0  0  0
  3  2  1  0  0  0  0
  3  4  1  0  0  0  0
  4  6  1  1  0  0  0
  4  5  1  0  0  0  0
  5 16  1  0  0  0  0
  5 15  1  0  0  0  0
  6 17  1  6  0  0  0
  6  7  1  0  0  0  0
  7 18  1  0  0  0  0
  8  2  1  0  0  0  0
  8 19  1  0  0  0  0
  8  6  1  0  0  0  0
 10  1  1  0  0  0  0
 12  3  1  0  0  0  0
 13  3  1  0  0  0  0
 14  5  1  0  0  0  0
 20  8  1  0  0  0  0
M  END
