title
 OpenBabel02282109583D

 18 19  0  0  1  0  0  0  0  0999 V2000
   -0.0320    2.2672   -0.7600 C   0  0  0  0  0  0  0  0  0  0  0  0
   -0.0251    0.7672   -0.7580 C   0  0  1  0  0  0  0  0  0  0  0  0
    1.1768   -0.0531   -1.2039 C   0  0  0  0  0  0  0  0  0  0  0  0
    0.6443   -0.2810    0.1654 C   0  0  1  0  0  0  0  0  0  0  0  0
    1.4391   -0.1776    1.2845 O   0  0  0  0  0  0  0  0  0  0  0  0
   -0.6185   -1.1394    0.1505 C   0  0  1  0  0  0  0  0  0  0  0  0
   -1.2306   -1.1794    1.4348 O   0  0  0  0  0  0  0  0  0  0  0  0
   -1.2667   -0.1383   -0.8554 C   0  0  0  0  0  0  0  0  0  0  0  0
    0.9333    2.6600   -0.4243 H   0  0  0  0  0  0  0  0  0  0  0  0
   -0.2235    2.6716   -1.7618 H   0  0  0  0  0  0  0  0  0  0  0  0
   -0.8042    2.6669   -0.0916 H   0  0  0  0  0  0  0  0  0  0  0  0
    1.0935   -0.8071   -1.9868 H   0  0  0  0  0  0  0  0  0  0  0  0
    2.1118    0.5003   -1.2185 H   0  0  0  0  0  0  0  0  0  0  0  0
    0.8572   -0.3784    2.0311 H   0  0  0  0  0  0  0  0  0  0  0  0
   -0.5119   -2.1842   -0.1602 H   0  0  0  0  0  0  0  0  0  0  0  0
   -1.6388   -0.3216    1.5979 H   0  0  0  0  0  0  0  0  0  0  0  0
   -2.1744    0.3100   -0.4351 H   0  0  0  0  0  0  0  0  0  0  0  0
   -1.5090   -0.5315   -1.8493 H   0  0  0  0  0  0  0  0  0  0  0  0
  1  2  1  0  0  0  0
  1  9  1  0  0  0  0
  1 11  1  0  0  0  0
  2  4  1  1  0  0  0
  3  2  1  0  0  0  0
  3  4  1  0  0  0  0
  4  6  1  1  0  0  0
  4  5  1  0  0  0  0
  5 14  1  0  0  0  0
  6 15  1  6  0  0  0
  6  7  1  0  0  0  0
  7 16  1  0  0  0  0
  8  2  1  0  0  0  0
  8 17  1  0  0  0  0
  8  6  1  0  0  0  0
 10  1  1  0  0  0  0
 12  3  1  0  0  0  0
 13  3  1  0  0  0  0
 18  8  1  0  0  0  0
M  END
