title
 OpenBabel02282109583D

 20 21  0  0  1  0  0  0  0  0999 V2000
   -1.1525    2.1973   -0.5549 C   0  0  0  0  0  0  0  0  0  0  0  0
   -0.9318    0.6898   -0.5839 C   0  0  1  0  0  0  0  0  0  0  0  0
    0.1855    0.0842   -1.5075 C   0  0  0  0  0  0  0  0  0  0  0  0
    0.7763   -0.6615   -0.2995 C   0  0  1  0  0  0  0  0  0  0  0  0
    1.3077   -2.0647   -0.3181 C   0  0  0  0  0  0  0  0  0  0  0  0
    1.1969    0.3695    0.7296 C   0  0  0  0  0  0  0  0  0  0  0  0
   -0.2572   -0.0042    0.6072 C   0  0  1  0  0  0  0  0  0  0  0  0
   -0.9537   -0.5963    1.6503 O   0  0  0  0  0  0  0  0  0  0  0  0
   -0.2223    2.7378   -0.3492 H   0  0  0  0  0  0  0  0  0  0  0  0
   -1.5387    2.5585   -1.5143 H   0  0  0  0  0  0  0  0  0  0  0  0
   -1.8786    2.4751    0.2179 H   0  0  0  0  0  0  0  0  0  0  0  0
   -1.8792    0.1800   -0.7869 H   0  0  0  0  0  0  0  0  0  0  0  0
   -0.2141   -0.5790   -2.2792 H   0  0  0  0  0  0  0  0  0  0  0  0
    0.8535    0.8117   -1.9823 H   0  0  0  0  0  0  0  0  0  0  0  0
    2.2920   -2.1164   -0.7990 H   0  0  0  0  0  0  0  0  0  0  0  0
    1.4117   -2.4567    0.6987 H   0  0  0  0  0  0  0  0  0  0  0  0
    0.6357   -2.7355   -0.8658 H   0  0  0  0  0  0  0  0  0  0  0  0
    1.6802   -0.0485    1.6080 H   0  0  0  0  0  0  0  0  0  0  0  0
    1.5738    1.3459    0.4307 H   0  0  0  0  0  0  0  0  0  0  0  0
   -0.9808    0.0208    2.3892 H   0  0  0  0  0  0  0  0  0  0  0  0
  1  9  1  0  0  0  0
  1 11  1  0  0  0  0
  2  1  1  0  0  0  0
  2  7  1  1  0  0  0
  3  2  1  0  0  0  0
  3  4  1  0  0  0  0
  4  7  1  1  0  0  0
  4  6  1  0  0  0  0
  5  4  1  0  0  0  0
  5 16  1  0  0  0  0
  6 18  1  0  0  0  0
  7  6  1  0  0  0  0
  7  8  1  1  0  0  0
  8 20  1  0  0  0  0
 10  1  1  0  0  0  0
 12  2  1  0  0  0  0
 13  3  1  0  0  0  0
 14  3  1  0  0  0  0
 15  5  1  0  0  0  0
 17  5  1  0  0  0  0
 19  6  1  0  0  0  0
M  END
