title
 OpenBabel02282109583D

 20 21  0  0  1  0  0  0  0  0999 V2000
   -1.0573    2.1911   -0.4839 C   0  0  0  0  0  0  0  0  0  0  0  0
   -0.9861    0.6746   -0.5942 C   0  0  1  0  0  0  0  0  0  0  0  0
    0.1031    0.0432   -1.5375 C   0  0  0  0  0  0  0  0  0  0  0  0
    0.6796   -0.6897   -0.3154 C   0  0  1  0  0  0  0  0  0  0  0  0
    1.4458   -1.9718   -0.2755 C   0  0  0  0  0  0  0  0  0  0  0  0
    1.0394    0.3413    0.6265 O   0  0  0  0  0  0  0  0  0  0  0  0
   -0.3338   -0.0920    0.5798 C   0  0  1  0  0  0  0  0  0  0  0  0
   -0.9689   -0.5454    1.8544 C   0  0  0  0  0  0  0  0  0  0  0  0
   -0.0813    2.5936   -0.1985 H   0  0  0  0  0  0  0  0  0  0  0  0
   -1.3494    2.6432   -1.4378 H   0  0  0  0  0  0  0  0  0  0  0  0
   -1.7903    2.5035    0.2685 H   0  0  0  0  0  0  0  0  0  0  0  0
   -1.9716    0.2540   -0.8227 H   0  0  0  0  0  0  0  0  0  0  0  0
   -0.3219   -0.6237   -2.2924 H   0  0  0  0  0  0  0  0  0  0  0  0
    0.7931    0.7433   -2.0169 H   0  0  0  0  0  0  0  0  0  0  0  0
    2.4454   -1.8397   -0.7055 H   0  0  0  0  0  0  0  0  0  0  0  0
    1.5660   -2.3198    0.7541 H   0  0  0  0  0  0  0  0  0  0  0  0
    0.9337   -2.7491   -0.8522 H   0  0  0  0  0  0  0  0  0  0  0  0
   -1.1961    0.3098    2.5015 H   0  0  0  0  0  0  0  0  0  0  0  0
   -1.9077   -1.0728    1.6547 H   0  0  0  0  0  0  0  0  0  0  0  0
   -0.3011   -1.2137    2.4049 H   0  0  0  0  0  0  0  0  0  0  0  0
  1  9  1  0  0  0  0
  1 11  1  0  0  0  0
  2  1  1  0  0  0  0
  2  7  1  1  0  0  0
  3  2  1  0  0  0  0
  3  4  1  0  0  0  0
  4  5  1  0  0  0  0
  4  7  1  1  0  0  0
  4  6  1  0  0  0  0
  5 16  1  0  0  0  0
  7  6  1  0  0  0  0
  7  8  1  1  0  0  0
  8 20  1  0  0  0  0
  8 18  1  0  0  0  0
 10  1  1  0  0  0  0
 12  2  1  0  0  0  0
 13  3  1  0  0  0  0
 14  3  1  0  0  0  0
 15  5  1  0  0  0  0
 17  5  1  0  0  0  0
 19  8  1  0  0  0  0
M  END
