title
 OpenBabel02282109583D

 20 21  0  0  1  0  0  0  0  0999 V2000
   -1.1243    2.2133   -0.5182 C   0  0  0  0  0  0  0  0  0  0  0  0
   -0.9496    0.6999   -0.5592 C   0  0  1  0  0  0  0  0  0  0  0  0
    0.1394    0.0840   -1.5098 C   0  0  0  0  0  0  0  0  0  0  0  0
    0.7528   -0.6179   -0.2945 C   0  0  1  0  0  0  0  0  0  0  0  0
    1.2156   -1.9243   -0.2944 O   0  0  0  0  0  0  0  0  0  0  0  0
    1.1694    0.3888    0.7415 C   0  0  0  0  0  0  0  0  0  0  0  0
   -0.2911   -0.0185    0.6377 C   0  0  1  0  0  0  0  0  0  0  0  0
   -1.0395   -0.6293    1.7870 C   0  0  0  0  0  0  0  0  0  0  0  0
   -0.1798    2.7273   -0.3119 H   0  0  0  0  0  0  0  0  0  0  0  0
   -1.5025    2.5897   -1.4750 H   0  0  0  0  0  0  0  0  0  0  0  0
   -1.8382    2.5076    0.2592 H   0  0  0  0  0  0  0  0  0  0  0  0
   -1.9179    0.2317   -0.7688 H   0  0  0  0  0  0  0  0  0  0  0  0
   -0.2848   -0.6196   -2.2295 H   0  0  0  0  0  0  0  0  0  0  0  0
    0.7864    0.7916   -2.0417 H   0  0  0  0  0  0  0  0  0  0  0  0
    2.1600   -1.9124   -0.4847 H   0  0  0  0  0  0  0  0  0  0  0  0
    1.6807   -0.0423    1.5974 H   0  0  0  0  0  0  0  0  0  0  0  0
    1.5157    1.3829    0.4663 H   0  0  0  0  0  0  0  0  0  0  0  0
   -1.3993    0.1348    2.4868 H   0  0  0  0  0  0  0  0  0  0  0  0
   -1.9108   -1.1938    1.4352 H   0  0  0  0  0  0  0  0  0  0  0  0
   -0.4014   -1.3197    2.3479 H   0  0  0  0  0  0  0  0  0  0  0  0
  1  9  1  0  0  0  0
  1 11  1  0  0  0  0
  2  1  1  0  0  0  0
  2  7  1  1  0  0  0
  3  2  1  0  0  0  0
  3  4  1  0  0  0  0
  4  5  1  0  0  0  0
  4  7  1  1  0  0  0
  4  6  1  0  0  0  0
  6 16  1  0  0  0  0
  7  6  1  0  0  0  0
  7  8  1  1  0  0  0
  8 20  1  0  0  0  0
  8 18  1  0  0  0  0
 10  1  1  0  0  0  0
 12  2  1  0  0  0  0
 13  3  1  0  0  0  0
 14  3  1  0  0  0  0
 15  5  1  0  0  0  0
 17  6  1  0  0  0  0
 19  8  1  0  0  0  0
M  END
