18
title
C -1.0880165 2.140021 -0.6186542
C -0.8916109 0.6410821 -0.53640366
O 0.20536196 0.14372355 -1.3653715
C 0.73663104 -0.61054355 -0.26368403
C 1.2658715 -1.9784468 -0.53712803
C 1.195744 0.34517494 0.8130945
C -0.27022123 -0.026694827 0.69296443
O -0.992882 -0.6422531 1.6964017
H -0.19378501 2.6810026 -0.297071
H -1.3155315 2.43823 -1.6469326
H -1.9289985 2.444439 0.014258898
H -1.8141122 0.112704344 -0.8124032
H 2.1726205 -1.9292294 -1.150333
H 1.5159051 -2.4832478 0.40021434
H 0.52485 -2.5808568 -1.0714344
H 1.6866894 -0.13200134 1.6566604
H 1.5678611 1.3323257 0.5530702
H -1.0167657 -0.05475133 2.459653
