19
title
C -1.2203083 2.0287774 -0.4981494
N -0.9354959 0.60683477 -0.5425956
C 0.13499519 0.12430139 -1.4636339
C 0.80923605 -0.57324606 -0.2795129
O 1.310805 -1.8609196 -0.30156514
C 1.1606053 0.44541636 0.7784957
C -0.28126356 -0.023116903 0.61215645
C -1.0911646 -0.6383417 1.7127672
H -0.33973148 2.6656594 -0.2975772
H -1.65192 2.343677 -1.4539064
H -1.9625033 2.2267385 0.28224844
H -0.25627682 -0.5644149 -2.2197967
H 0.7198254 0.9135557 -1.9569595
H 2.2609377 -1.8141159 -0.45311
H 1.6632217 0.027306957 1.645732
H 1.4750892 1.4518671 0.51222163
H -1.5249811 0.12631346 2.3680377
H -1.9098802 -1.2330586 1.2964778
H -0.46575847 -1.2899259 2.3301225
