title
 OpenBabel02282109583D

 16 17  0  0  1  0  0  0  0  0999 V2000
    0.8525    2.0762   -0.6935 O   0  0  0  0  0  0  0  0  0  0  0  0
    0.9412    0.6747   -0.5438 C   0  0  1  0  0  0  0  0  0  0  0  0
    1.2231    0.0806    0.8895 C   0  0  0  0  0  0  0  0  0  0  0  0
   -0.1170   -0.6356    0.8178 C   0  0  1  0  0  0  0  0  0  0  0  0
   -0.2439   -1.9102    1.3331 O   0  0  0  0  0  0  0  0  0  0  0  0
   -1.2276    0.3700    0.6573 C   0  0  0  0  0  0  0  0  0  0  0  0
   -0.4025   -0.0331   -0.5578 C   0  0  1  0  0  0  0  0  0  0  0  0
   -0.9698   -0.6303   -1.6688 O   0  0  0  0  0  0  0  0  0  0  0  0
    1.7411    2.4430   -0.6482 H   0  0  0  0  0  0  0  0  0  0  0  0
    1.6165    0.2328   -1.2883 H   0  0  0  0  0  0  0  0  0  0  0  0
    2.0699   -0.6090    0.8984 H   0  0  0  0  0  0  0  0  0  0  0  0
    1.3314    0.8179    1.6907 H   0  0  0  0  0  0  0  0  0  0  0  0
   -1.0818   -2.2800    1.0345 H   0  0  0  0  0  0  0  0  0  0  0  0
   -2.2209   -0.0725    0.6399 H   0  0  0  0  0  0  0  0  0  0  0  0
   -1.1799    1.3708    1.0801 H   0  0  0  0  0  0  0  0  0  0  0  0
   -1.5141    0.0250   -2.1206 H   0  0  0  0  0  0  0  0  0  0  0  0
  1  9  1  0  0  0  0
  1  2  1  0  0  0  0
  2  7  1  6  0  0  0
  2  3  1  0  0  0  0
  3 11  1  0  0  0  0
  3 12  1  0  0  0  0
  4  7  1  6  0  0  0
  4  3  1  0  0  0  0
  4  5  1  0  0  0  0
  6  4  1  0  0  0  0
  6 15  1  0  0  0  0
  7  8  1  6  0  0  0
  7  6  1  0  0  0  0
 10  2  1  0  0  0  0
 13  5  1  0  0  0  0
 14  6  1  0  0  0  0
 16  8  1  0  0  0  0
M  END
