20
title
C -0.66106737 1.9146559 -0.3548023
C -0.54257625 0.3860862 -0.40160698
C -1.9584938 -0.16637081 -0.6070882
C 0.65458715 -0.26387727 -1.2023193
C 1.63126 0.26282606 -0.10957681
C 0.38924456 -0.31981164 0.6409513
O 0.118029065 -0.31360716 1.9978884
C 0.50670207 -1.5427519 -0.32637423
H 0.28449637 2.4439902 -0.24052508
H -1.1345526 2.2822673 -1.2720814
H -1.3042858 2.2107558 0.48116538
H -2.3905778 0.24366125 -1.526908
H -2.0220113 -1.2521079 -0.67244714
H -2.6032445 0.14929469 0.2204509
H 0.813308 -0.23328292 -2.2786188
H 2.559782 -0.3046289 -0.0013583746
H 1.8230275 1.3317966 -0.04982014
H 0.81548357 -0.7967987 2.4539657
H -0.3631302 -2.1794174 -0.4715199
H 1.4141276 -2.1441967 -0.22211415
