title
 OpenBabel02282109583D

 20 21  0  0  1  0  0  0  0  0999 V2000
   -0.6611    1.9147   -0.3548 C   0  0  0  0  0  0  0  0  0  0  0  0
   -0.5426    0.3861   -0.4016 C   0  0  0  0  0  0  0  0  0  0  0  0
   -1.9585   -0.1664   -0.6071 C   0  0  0  0  0  0  0  0  0  0  0  0
    0.6546   -0.2639   -1.2023 C   0  0  1  0  0  0  0  0  0  0  0  0
    1.6313    0.2628   -0.1096 C   0  0  0  0  0  0  0  0  0  0  0  0
    0.3892   -0.3198    0.6410 C   0  0  1  0  0  0  0  0  0  0  0  0
    0.1180   -0.3136    1.9979 O   0  0  0  0  0  0  0  0  0  0  0  0
    0.5067   -1.5428   -0.3264 C   0  0  0  0  0  0  0  0  0  0  0  0
    0.2845    2.4440   -0.2405 H   0  0  0  0  0  0  0  0  0  0  0  0
   -1.1346    2.2823   -1.2721 H   0  0  0  0  0  0  0  0  0  0  0  0
   -1.3043    2.2108    0.4812 H   0  0  0  0  0  0  0  0  0  0  0  0
   -2.3906    0.2437   -1.5269 H   0  0  0  0  0  0  0  0  0  0  0  0
   -2.0220   -1.2521   -0.6724 H   0  0  0  0  0  0  0  0  0  0  0  0
   -2.6032    0.1493    0.2205 H   0  0  0  0  0  0  0  0  0  0  0  0
    0.8133   -0.2333   -2.2786 H   0  0  0  0  0  0  0  0  0  0  0  0
    2.5598   -0.3046   -0.0014 H   0  0  0  0  0  0  0  0  0  0  0  0
    1.8230    1.3318   -0.0498 H   0  0  0  0  0  0  0  0  0  0  0  0
    0.8155   -0.7968    2.4540 H   0  0  0  0  0  0  0  0  0  0  0  0
   -0.3631   -2.1794   -0.4715 H   0  0  0  0  0  0  0  0  0  0  0  0
    1.4141   -2.1442   -0.2221 H   0  0  0  0  0  0  0  0  0  0  0  0
  1  9  1  0  0  0  0
  1 11  1  0  0  0  0
  2  1  1  0  0  0  0
  2  6  1  0  0  0  0
  3  2  1  0  0  0  0
  3 14  1  0  0  0  0
  4 15  1  6  0  0  0
  4  2  1  0  0  0  0
  4  8  1  0  0  0  0
  4  5  1  0  0  0  0
  5 17  1  0  0  0  0
  5 16  1  0  0  0  0
  5  6  1  0  0  0  0
  6  7  1  1  0  0  0
  7 18  1  0  0  0  0
  8 20  1  0  0  0  0
  8  6  1  0  0  0  0
 10  1  1  0  0  0  0
 12  3  1  0  0  0  0
 13  3  1  0  0  0  0
 19  8  1  0  0  0  0
M  END
