title
 OpenBabel02282109583D

 19 20  0  0  1  0  0  0  0  0999 V2000
   -0.6073    1.9040   -0.4134 C   0  0  0  0  0  0  0  0  0  0  0  0
   -0.5112    0.3739   -0.3920 C   0  0  0  0  0  0  0  0  0  0  0  0
   -1.8811   -0.1705   -0.7994 C   0  0  0  0  0  0  0  0  0  0  0  0
    0.7136   -0.2316   -1.1658 N   0  0  1  0  0  0  0  0  0  0  0  0
    1.5758    0.2692    0.0032 C   0  0  0  0  0  0  0  0  0  0  0  0
    0.3276   -0.3278    0.7091 C   0  0  1  0  0  0  0  0  0  0  0  0
   -0.0283   -0.3478    2.0488 O   0  0  0  0  0  0  0  0  0  0  0  0
    0.5257   -1.4882   -0.2978 C   0  0  0  0  0  0  0  0  0  0  0  0
   -0.5459    2.2606   -1.4475 H   0  0  0  0  0  0  0  0  0  0  0  0
   -1.5767    2.2156   -0.0144 H   0  0  0  0  0  0  0  0  0  0  0  0
    0.1570    2.4170    0.1699 H   0  0  0  0  0  0  0  0  0  0  0  0
   -2.1980    0.3026   -1.7347 H   0  0  0  0  0  0  0  0  0  0  0  0
   -1.9293   -1.2485   -0.9447 H   0  0  0  0  0  0  0  0  0  0  0  0
   -2.6154    0.0926   -0.0311 H   0  0  0  0  0  0  0  0  0  0  0  0
    2.5153   -0.2813    0.0971 H   0  0  0  0  0  0  0  0  0  0  0  0
    1.7551    1.3414    0.0130 H   0  0  0  0  0  0  0  0  0  0  0  0
    0.6356   -0.8434    2.5409 H   0  0  0  0  0  0  0  0  0  0  0  0
   -0.3114   -2.1247   -0.5722 H   0  0  0  0  0  0  0  0  0  0  0  0
    1.4438   -2.0751   -0.2130 H   0  0  0  0  0  0  0  0  0  0  0  0
  1  2  1  0  0  0  0
  1 10  1  0  0  0  0
  1 11  1  0  0  0  0
  2  6  1  0  0  0  0
  3  2  1  0  0  0  0
  3 14  1  0  0  0  0
  4  2  1  1  0  0  0
  4  8  1  0  0  0  0
  4  5  1  0  0  0  0
  5 16  1  0  0  0  0
  5 15  1  0  0  0  0
  5  6  1  0  0  0  0
  6  7  1  1  0  0  0
  7 17  1  0  0  0  0
  8 19  1  0  0  0  0
  8  6  1  0  0  0  0
  9  1  1  0  0  0  0
 12  3  1  0  0  0  0
 13  3  1  0  0  0  0
 18  8  1  0  0  0  0
M  END
