title
 OpenBabel02282109583D

 20 21  0  0  1  0  0  0  0  0999 V2000
   -0.6329    1.9100   -0.4546 C   0  0  0  0  0  0  0  0  0  0  0  0
   -0.4709    0.3944   -0.4181 C   0  0  1  0  0  0  0  0  0  0  0  0
   -1.7536   -0.1986   -0.5583 O   0  0  0  0  0  0  0  0  0  0  0  0
    0.7199   -0.3016   -1.1652 C   0  0  1  0  0  0  0  0  0  0  0  0
    1.6505    0.2127   -0.0298 C   0  0  0  0  0  0  0  0  0  0  0  0
    0.3710   -0.3061    0.6999 C   0  0  1  0  0  0  0  0  0  0  0  0
    0.0768   -0.3109    2.1764 C   0  0  0  0  0  0  0  0  0  0  0  0
    0.4594   -1.5418   -0.2611 C   0  0  0  0  0  0  0  0  0  0  0  0
    0.2995    2.4600   -0.3251 H   0  0  0  0  0  0  0  0  0  0  0  0
   -1.0564    2.2166   -1.4203 H   0  0  0  0  0  0  0  0  0  0  0  0
   -1.3326    2.2259    0.3256 H   0  0  0  0  0  0  0  0  0  0  0  0
   -2.1919    0.2134   -1.3095 H   0  0  0  0  0  0  0  0  0  0  0  0
    0.9247   -0.2951   -2.2375 H   0  0  0  0  0  0  0  0  0  0  0  0
    2.5513   -0.3829    0.1381 H   0  0  0  0  0  0  0  0  0  0  0  0
    1.8814    1.2776    0.0191 H   0  0  0  0  0  0  0  0  0  0  0  0
    0.1078    0.7027    2.5920 H   0  0  0  0  0  0  0  0  0  0  0  0
   -0.9189   -0.7239    2.3690 H   0  0  0  0  0  0  0  0  0  0  0  0
    0.8070   -0.9181    2.7223 H   0  0  0  0  0  0  0  0  0  0  0  0
   -0.4584   -2.0992   -0.4338 H   0  0  0  0  0  0  0  0  0  0  0  0
    1.3184   -2.1992   -0.1015 H   0  0  0  0  0  0  0  0  0  0  0  0
  1  2  1  0  0  0  0
  1  9  1  0  0  0  0
  1 11  1  0  0  0  0
  2  4  1  6  0  0  0
  3  2  1  0  0  0  0
  4 13  1  6  0  0  0
  4  8  1  0  0  0  0
  4  5  1  0  0  0  0
  5 15  1  0  0  0  0
  5 14  1  0  0  0  0
  5  6  1  0  0  0  0
  6  2  1  6  0  0  0
  6  7  1  0  0  0  0
  7 17  1  0  0  0  0
  7 16  1  0  0  0  0
  7 18  1  0  0  0  0
  8 20  1  0  0  0  0
  8  6  1  0  0  0  0
 10  1  1  0  0  0  0
 12  3  1  0  0  0  0
 19  8  1  0  0  0  0
M  END
