18
title
C 0.5489165 2.1125615 0.060059223
C 0.5164045 0.622193 -0.06374795
C 1.1859725 -0.30989692 -1.1132708
C 0.6270798 -1.1816893 0.029785229
O 1.1551 -0.20016627 1.0013834
C -0.70359933 -0.35260448 0.0014648612
C -1.5705839 -0.3508717 1.2472044
O -1.4741791 -0.36647072 -1.1788657
H 1.579322 2.4801104 0.053462293
H 0.012469767 2.5645735 -0.7799803
H 0.071199924 2.4351792 0.990432
H 0.7277897 -0.38888612 -2.0981424
H 2.2745352 -0.2444667 -1.1359117
H 0.79441935 -2.2373316 0.24839462
H -0.9558128 -0.31263563 2.1460555
H -2.2502468 0.50754666 1.2356448
H -2.1842377 -1.2603408 1.2868612
H -2.2043405 -0.98086554 -1.0541381
