18
title
C -0.681723 1.9075913 -0.44421086
C -0.49860594 0.3962018 -0.42184144
O -1.7726791 -0.22248177 -0.5260134
C 0.6939303 -0.28441387 -1.1843578
C 1.638378 0.24016425 -0.057611898
C 0.3836844 -0.3005997 0.6628634
O 0.20359828 -0.2708066 2.0315266
C 0.46990466 -1.5423182 -0.29361027
H 0.25082284 2.4673948 -0.37097934
H -1.1692482 2.212323 -1.3795869
H -1.3310262 2.2117608 0.38258666
H -2.250998 0.19370307 -1.2497895
H 0.8867901 -0.26840305 -2.2552078
H 2.54816 -0.34411824 0.09262352
H 1.8462383 1.3082818 -0.0031786696
H -0.67410356 -0.6234891 2.2183158
H -0.44281942 -2.1094842 -0.46052516
H 1.3429707 -2.1828573 -0.15119906
