title
 OpenBabel02282109583D

 22 23  0  0  1  0  0  0  0  0999 V2000
    1.2845    1.7941   -0.0134 C   0  0  0  0  0  0  0  0  0  0  0  0
    0.7521    0.3846   -0.0350 C   0  0  1  0  0  0  0  0  0  0  0  0
    0.9496   -0.6874   -1.1554 C   0  0  0  0  0  0  0  0  0  0  0  0
    0.0882   -1.3833   -0.0624 C   0  0  1  0  0  0  0  0  0  0  0  0
    1.0922   -0.7737    0.9580 C   0  0  0  0  0  0  0  0  0  0  0  0
   -0.7673   -0.0673    0.0490 C   0  0  0  0  0  0  0  0  0  0  0  0
   -1.5398    0.2015    1.3473 C   0  0  0  0  0  0  0  0  0  0  0  0
   -1.7053    0.3019   -1.1078 C   0  0  0  0  0  0  0  0  0  0  0  0
    2.3777    1.8035   -0.0877 H   0  0  0  0  0  0  0  0  0  0  0  0
    0.8886    2.3805   -0.8503 H   0  0  0  0  0  0  0  0  0  0  0  0
    1.0092    2.3079    0.9147 H   0  0  0  0  0  0  0  0  0  0  0  0
    0.5088   -0.5052   -2.1341 H   0  0  0  0  0  0  0  0  0  0  0  0
    1.9693   -1.0677   -1.2634 H   0  0  0  0  0  0  0  0  0  0  0  0
   -0.2874   -2.4085   -0.0790 H   0  0  0  0  0  0  0  0  0  0  0  0
    2.1150   -1.1560    0.8971 H   0  0  0  0  0  0  0  0  0  0  0  0
    0.7876   -0.6739    1.9985 H   0  0  0  0  0  0  0  0  0  0  0  0
   -0.9905   -0.0229    2.2616 H   0  0  0  0  0  0  0  0  0  0  0  0
   -1.8415    1.2545    1.3963 H   0  0  0  0  0  0  0  0  0  0  0  0
   -2.4609   -0.3927    1.3658 H   0  0  0  0  0  0  0  0  0  0  0  0
   -2.6232   -0.2949   -1.0520 H   0  0  0  0  0  0  0  0  0  0  0  0
   -2.0063    1.3533   -1.0293 H   0  0  0  0  0  0  0  0  0  0  0  0
   -1.2842    0.1572   -2.1027 H   0  0  0  0  0  0  0  0  0  0  0  0
  1 11  1  0  0  0  0
  2  1  1  1  0  0  0
  2  6  1  0  0  0  0
  2  5  1  0  0  0  0
  3  4  1  0  0  0  0
  3  2  1  0  0  0  0
  4 14  1  6  0  0  0
  4  6  1  0  0  0  0
  4  5  1  0  0  0  0
  5 16  1  0  0  0  0
  6  7  1  0  0  0  0
  7 19  1  0  0  0  0
  7 18  1  0  0  0  0
  7 17  1  0  0  0  0
  8 20  1  0  0  0  0
  8 21  1  0  0  0  0
  8  6  1  0  0  0  0
  9  1  1  0  0  0  0
 10  1  1  0  0  0  0
 12  3  1  0  0  0  0
 13  3  1  0  0  0  0
 15  5  1  0  0  0  0
 22  8  1  0  0  0  0
M  END
