20
title
C 0.08765365 2.4622822 -0.2293976
C 0.11625875 0.958492 -0.2620233
C 0.6534206 0.034149192 -1.3745924
C 0.14812846 -0.94467974 -0.29415953
C 0.16984636 -2.4488294 -0.31233004
C 0.62965137 -0.004187441 0.8724889
C -0.7453414 -0.038936593 1.5679764
C -1.0739939 -0.019043898 0.062283915
H 1.0993674 2.8769336 -0.30427846
H -0.49762803 2.8630457 -1.0648264
H -0.35805258 2.8345883 0.69968694
H 0.10996818 0.041153096 -2.3272674
H 1.735187 0.055284463 -1.5543537
H 1.1946918 -2.826621 -0.40217593
H -0.26118606 -2.8669662 0.604096
H -0.40348506 -2.8405595 -1.1602371
H 1.6290861 0.0051045655 1.3141539
H -0.9996419 -0.9498459 2.119393
H -1.0296608 0.84384227 2.1496565
H -2.0473454 -0.026976084 -0.43425357
