19
title
C 0.042088278 2.4286711 -0.21098703
C 0.1776425 0.9351192 -0.23178624
C 0.6783044 0.031647947 -1.3639369
C 0.1764866 -0.92343503 -0.27550337
C 0.039071094 -2.416143 -0.3249674
C 0.69205695 -0.021489892 0.89479107
C -0.704214 -0.03477982 1.5008972
N -1.0514001 0.00026854506 0.015713984
H 1.02132 2.9050658 -0.32932687
H -0.6018413 2.7644765 -1.0302591
H -0.39371863 2.7808545 0.7295374
H 0.09588845 0.053817477 -2.2908509
H 1.754283 0.035649028 -1.5623307
H 1.0177034 -2.887663 -0.4656721
H -0.39714947 -2.8116424 0.5979834
H -0.6053005 -2.7122293 -1.1590743
H 1.6813352 -0.033235703 1.3678329
H -1.0439802 -0.94269973 2.0093634
H -1.0428113 0.8487493 2.0513823
