18
title
C 0.08208847 2.4762516 -0.22548814
C 0.12695728 0.9774968 -0.29523158
C 0.6453634 0.035677455 -1.4082235
C 0.15935554 -0.9616706 -0.3295146
C 0.1645636 -2.4626157 -0.312816
C 0.59774536 -0.004649082 0.82834727
O -0.6925769 -0.038283147 1.5113049
C -1.0175527 -0.01856319 0.087738246
H 1.0858381 2.9085782 -0.30007023
H -0.52206904 2.8947763 -1.0377758
H -0.35729063 2.7926888 0.7262826
H 0.09103356 0.043125056 -2.3525538
H 1.7224401 0.057130955 -1.6045465
H 1.1820085 -2.8583298 -0.40333858
H -0.2622959 -2.8269699 0.6274452
H -0.42683858 -2.8720775 -1.1389933
H 1.5085734 -3.9318435e-05 1.4290895
H -2.067091 -0.030842105 -0.21032064
