title
 OpenBabel02282109583D

 18 20  0  0  1  0  0  0  0  0999 V2000
    0.0694    2.4701   -0.2272 C   0  0  0  0  0  0  0  0  0  0  0  0
    0.1156    0.9686   -0.2562 C   0  0  1  0  0  0  0  0  0  0  0  0
    0.6642    0.0530   -1.3781 C   0  0  0  0  0  0  0  0  0  0  0  0
    0.1556   -0.9090   -0.2891 C   0  0  1  0  0  0  0  0  0  0  0  0
    0.0912   -2.2897   -0.2990 O   0  0  0  0  0  0  0  0  0  0  0  0
    0.6367    0.0224    0.8875 C   0  0  2  0  0  0  0  0  0  0  0  0
   -0.7430   -0.0381    1.5737 C   0  0  0  0  0  0  0  0  0  0  0  0
   -1.0703   -0.0196    0.0662 C   0  0  1  0  0  0  0  0  0  0  0  0
    1.0762    2.8967   -0.2980 H   0  0  0  0  0  0  0  0  0  0  0  0
   -0.5170    2.8629   -1.0652 H   0  0  0  0  0  0  0  0  0  0  0  0
   -0.3847    2.8367    0.6998 H   0  0  0  0  0  0  0  0  0  0  0  0
    0.1185    0.0564   -2.3282 H   0  0  0  0  0  0  0  0  0  0  0  0
    1.7466    0.0865   -1.5516 H   0  0  0  0  0  0  0  0  0  0  0  0
    0.9881   -2.6358   -0.3602 H   0  0  0  0  0  0  0  0  0  0  0  0
    1.6357    0.0482    1.3289 H   0  0  0  0  0  0  0  0  0  0  0  0
   -0.9810   -0.9601    2.1106 H   0  0  0  0  0  0  0  0  0  0  0  0
   -1.0457    0.8362    2.1584 H   0  0  0  0  0  0  0  0  0  0  0  0
   -2.0377   -0.0391   -0.4392 H   0  0  0  0  0  0  0  0  0  0  0  0
  1 11  1  0  0  0  0
  2  1  1  0  0  0  0
  2  8  1  6  0  0  0
  2  6  1  0  0  0  0
  3  4  1  0  0  0  0
  3  2  1  0  0  0  0
  4  5  1  6  0  0  0
  6  4  1  6  0  0  0
  6 15  1  0  0  0  0
  6  7  1  0  0  0  0
  7 16  1  0  0  0  0
  7 17  1  0  0  0  0
  8  4  1  6  0  0  0
  8  7  1  0  0  0  0
  9  1  1  0  0  0  0
 10  1  1  0  0  0  0
 12  3  1  0  0  0  0
 13  3  1  0  0  0  0
 14  5  1  0  0  0  0
 18  8  1  0  0  0  0
M  END
