17
title
C 0.06844321 2.471313 -0.19669774
C 0.12435733 0.97346693 -0.26622266
C 0.65766126 0.05725594 -1.3957641
C 0.15929663 -0.9236534 -0.3144283
O 0.08591873 -2.3018355 -0.33160874
C 0.617361 0.0140682 0.8675385
N -0.71650714 0.04303874 1.5528909
C -1.039078 -0.01594679 0.08914295
H 1.0706748 2.9086235 -0.26325518
H -0.52986413 2.884175 -1.0161028
H -0.3816844 2.7840676 0.7502614
H 0.10387554 0.07182492 -2.3399532
H 1.7372098 0.09082927 -1.5801507
H 0.97454685 -2.656562 -0.4447938
H 1.571328 0.04211928 1.398645
H -0.9047445 -0.8664736 1.9829364
H -2.0554914 -0.022656366 -0.3083957
