title
 OpenBabel02282109583D

 16 18  0  0  1  0  0  0  0  0999 V2000
    0.0660    2.4767   -0.2363 C   0  0  0  0  0  0  0  0  0  0  0  0
    0.1281    0.9794   -0.2915 C   0  0  1  0  0  0  0  0  0  0  0  0
    0.6557    0.0400   -1.4018 C   0  0  0  0  0  0  0  0  0  0  0  0
    0.1632   -0.9375   -0.3087 C   0  0  1  0  0  0  0  0  0  0  0  0
    0.0952   -2.3094   -0.3254 O   0  0  0  0  0  0  0  0  0  0  0  0
    0.6013    0.0271    0.8576 C   0  0  2  0  0  0  0  0  0  0  0  0
   -0.6941   -0.0007    1.5236 O   0  0  0  0  0  0  0  0  0  0  0  0
   -1.0181   -0.0166    0.1029 C   0  0  1  0  0  0  0  0  0  0  0  0
    1.0653    2.9195   -0.3076 H   0  0  0  0  0  0  0  0  0  0  0  0
   -0.5373    2.8811   -1.0559 H   0  0  0  0  0  0  0  0  0  0  0  0
   -0.3834    2.7943    0.7102 H   0  0  0  0  0  0  0  0  0  0  0  0
    0.1002    0.0364   -2.3444 H   0  0  0  0  0  0  0  0  0  0  0  0
    1.7339    0.0677   -1.5911 H   0  0  0  0  0  0  0  0  0  0  0  0
    0.9807   -2.6627   -0.4642 H   0  0  0  0  0  0  0  0  0  0  0  0
    1.5074    0.0558    1.4638 H   0  0  0  0  0  0  0  0  0  0  0  0
   -2.0641   -0.0393   -0.2029 H   0  0  0  0  0  0  0  0  0  0  0  0
  1 11  1  0  0  0  0
  2  1  1  0  0  0  0
  2  8  1  6  0  0  0
  2  6  1  0  0  0  0
  3  4  1  0  0  0  0
  3  2  1  0  0  0  0
  4  5  1  6  0  0  0
  6  4  1  6  0  0  0
  6 15  1  0  0  0  0
  6  7  1  0  0  0  0
  8  4  1  6  0  0  0
  8  7  1  0  0  0  0
  9  1  1  0  0  0  0
 10  1  1  0  0  0  0
 12  3  1  0  0  0  0
 13  3  1  0  0  0  0
 14  5  1  0  0  0  0
 16  8  1  0  0  0  0
M  END
