title
 OpenBabel02282109583D

 18 20  0  0  1  0  0  0  0  0999 V2000
    0.1033    2.4338   -0.2574 C   0  0  0  0  0  0  0  0  0  0  0  0
    0.0937    0.9374   -0.2288 C   0  0  1  0  0  0  0  0  0  0  0  0
    0.6823    0.0631   -1.3016 N   0  0  0  0  0  0  0  0  0  0  0  0
    0.1435   -0.9224   -0.3026 C   0  0  1  0  0  0  0  0  0  0  0  0
    0.2424   -2.4087   -0.4652 C   0  0  0  0  0  0  0  0  0  0  0  0
    0.5908   -0.0184    0.8970 C   0  0  2  0  0  0  0  0  0  0  0  0
   -0.7399    0.0046    1.5876 N   0  0  0  0  0  0  0  0  0  0  0  0
   -1.0825   -0.0339    0.1282 C   0  0  1  0  0  0  0  0  0  0  0  0
    1.1249    2.8111   -0.3666 H   0  0  0  0  0  0  0  0  0  0  0  0
   -0.4923    2.8187   -1.0926 H   0  0  0  0  0  0  0  0  0  0  0  0
   -0.3191    2.8233    0.6737 H   0  0  0  0  0  0  0  0  0  0  0  0
    0.0841    0.0813   -2.1339 H   0  0  0  0  0  0  0  0  0  0  0  0
    1.2844   -2.7122   -0.6066 H   0  0  0  0  0  0  0  0  0  0  0  0
   -0.1486   -2.9210    0.4213 H   0  0  0  0  0  0  0  0  0  0  0  0
   -0.3330   -2.7527   -1.3318 H   0  0  0  0  0  0  0  0  0  0  0  0
    1.5486   -0.0033    1.4188 H   0  0  0  0  0  0  0  0  0  0  0  0
   -0.9285   -0.9040    2.0200 H   0  0  0  0  0  0  0  0  0  0  0  0
   -2.1077   -0.0367   -0.2520 H   0  0  0  0  0  0  0  0  0  0  0  0
  1  2  1  0  0  0  0
  1 11  1  0  0  0  0
  2  8  1  6  0  0  0
  2  6  1  0  0  0  0
  3  4  1  0  0  0  0
  3  2  1  0  0  0  0
  4  8  1  6  0  0  0
  5  4  1  0  0  0  0
  5 14  1  0  0  0  0
  6  4  1  6  0  0  0
  6 16  1  0  0  0  0
  6  7  1  0  0  0  0
  7 17  1  0  0  0  0
  8 18  1  6  0  0  0
  8  7  1  0  0  0  0
  9  1  1  0  0  0  0
 10  1  1  0  0  0  0
 12  3  1  0  0  0  0
 13  5  1  0  0  0  0
 15  5  1  0  0  0  0
M  END
