18
title
C 0.103329696 2.433778 -0.25742826
C 0.093694024 0.93740654 -0.22878371
N 0.6823418 0.063093856 -1.3016019
C 0.14351472 -0.9224489 -0.30255032
C 0.24240926 -2.408706 -0.46516243
C 0.5907587 -0.018356187 0.89701945
N -0.739879 0.0046047135 1.587607
C -1.0824993 -0.033864126 0.12824602
H 1.1248618 2.8111203 -0.36664084
H -0.4923044 2.818722 -1.0925702
H -0.31911418 2.8232896 0.6736583
H 0.0840598 0.08134426 -2.1338766
H 1.2843628 -2.7122443 -0.6065542
H -0.14857255 -2.9210145 0.4212835
H -0.33301818 -2.7526815 -1.3317515
H 1.5486312 -0.0033248502 1.4187802
H -0.9285007 -0.9040047 2.0200346
H -2.1076734 -0.03667341 -0.25201306
