18
title
C 0.12982984 2.3984616 -0.30824918
C 0.07551495 0.91109866 -0.17053433
O 0.61215603 0.08067793 -1.2497448
C 0.13422255 -0.883436 -0.2576464
C 0.2848862 -2.3437984 -0.53837985
C 0.5940307 -0.027649937 0.9699391
C -0.7987091 -0.1052888 1.6305966
C -1.130091 -0.04299658 0.124438055
H 1.1658269 2.736657 -0.4084661
H -0.4257375 2.721733 -1.1940011
H -0.30890238 2.8796217 0.5715125
H 1.3401896 -2.6017184 -0.6707674
H -0.115695395 -2.9352937 0.29086697
H -0.25389677 -2.6162395 -1.4511782
H 1.5878043 -0.016972719 1.4202805
H -1.0443306 -1.0367467 2.1483335
H -1.1028838 0.7536762 2.2352862
H -2.0946379 -0.049817976 -0.38557
