title
 OpenBabel02282109583D

 18 20  0  0  1  0  0  0  0  0999 V2000
    0.1298    2.3985   -0.3082 C   0  0  0  0  0  0  0  0  0  0  0  0
    0.0755    0.9111   -0.1705 C   0  0  1  0  0  0  0  0  0  0  0  0
    0.6122    0.0807   -1.2497 O   0  0  0  0  0  0  0  0  0  0  0  0
    0.1342   -0.8834   -0.2576 C   0  0  1  0  0  0  0  0  0  0  0  0
    0.2849   -2.3438   -0.5384 C   0  0  0  0  0  0  0  0  0  0  0  0
    0.5940   -0.0276    0.9699 C   0  0  2  0  0  0  0  0  0  0  0  0
   -0.7987   -0.1053    1.6306 C   0  0  0  0  0  0  0  0  0  0  0  0
   -1.1301   -0.0430    0.1244 C   0  0  1  0  0  0  0  0  0  0  0  0
    1.1658    2.7367   -0.4085 H   0  0  0  0  0  0  0  0  0  0  0  0
   -0.4257    2.7217   -1.1940 H   0  0  0  0  0  0  0  0  0  0  0  0
   -0.3089    2.8796    0.5715 H   0  0  0  0  0  0  0  0  0  0  0  0
    1.3402   -2.6017   -0.6708 H   0  0  0  0  0  0  0  0  0  0  0  0
   -0.1157   -2.9353    0.2909 H   0  0  0  0  0  0  0  0  0  0  0  0
   -0.2539   -2.6162   -1.4512 H   0  0  0  0  0  0  0  0  0  0  0  0
    1.5878   -0.0170    1.4203 H   0  0  0  0  0  0  0  0  0  0  0  0
   -1.0443   -1.0367    2.1483 H   0  0  0  0  0  0  0  0  0  0  0  0
   -1.1029    0.7537    2.2353 H   0  0  0  0  0  0  0  0  0  0  0  0
   -2.0946   -0.0498   -0.3856 H   0  0  0  0  0  0  0  0  0  0  0  0
  1  2  1  0  0  0  0
  1 11  1  0  0  0  0
  2  8  1  6  0  0  0
  2  6  1  0  0  0  0
  3  4  1  0  0  0  0
  3  2  1  0  0  0  0
  4  8  1  6  0  0  0
  5  4  1  0  0  0  0
  5 13  1  0  0  0  0
  6  4  1  6  0  0  0
  6 15  1  0  0  0  0
  6  7  1  0  0  0  0
  7 16  1  0  0  0  0
  7 17  1  0  0  0  0
  8 18  1  6  0  0  0
  8  7  1  0  0  0  0
  9  1  1  0  0  0  0
 10  1  1  0  0  0  0
 12  5  1  0  0  0  0
 14  5  1  0  0  0  0
M  END
