title
 OpenBabel02282109583D

 16 18  0  0  1  0  0  0  0  0999 V2000
    0.1347    2.4177   -0.3329 C   0  0  0  0  0  0  0  0  0  0  0  0
    0.0851    0.9334   -0.1988 C   0  0  1  0  0  0  0  0  0  0  0  0
    0.5970    0.0824   -1.2704 O   0  0  0  0  0  0  0  0  0  0  0  0
    0.1446   -0.9017   -0.2899 C   0  0  1  0  0  0  0  0  0  0  0  0
    0.2895   -2.3591   -0.5699 C   0  0  0  0  0  0  0  0  0  0  0  0
    0.5615   -0.0285    0.9410 C   0  0  2  0  0  0  0  0  0  0  0  0
   -0.7434   -0.1026    1.5822 O   0  0  0  0  0  0  0  0  0  0  0  0
   -1.0824   -0.0434    0.1676 C   0  0  1  0  0  0  0  0  0  0  0  0
    1.1672    2.7612   -0.4476 H   0  0  0  0  0  0  0  0  0  0  0  0
   -0.4381    2.7463   -1.2054 H   0  0  0  0  0  0  0  0  0  0  0  0
   -0.2921    2.8798    0.5623 H   0  0  0  0  0  0  0  0  0  0  0  0
    1.3414   -2.6215   -0.7181 H   0  0  0  0  0  0  0  0  0  0  0  0
   -0.1006   -2.9341    0.2754 H   0  0  0  0  0  0  0  0  0  0  0  0
   -0.2664   -2.6370   -1.4705 H   0  0  0  0  0  0  0  0  0  0  0  0
    1.4602   -0.0300    1.5585 H   0  0  0  0  0  0  0  0  0  0  0  0
   -2.1309   -0.0626   -0.1311 H   0  0  0  0  0  0  0  0  0  0  0  0
  1  2  1  0  0  0  0
  1 11  1  0  0  0  0
  2  8  1  6  0  0  0
  2  6  1  0  0  0  0
  3  4  1  0  0  0  0
  3  2  1  0  0  0  0
  4  8  1  6  0  0  0
  5  4  1  0  0  0  0
  5 13  1  0  0  0  0
  6  4  1  6  0  0  0
  6 15  1  0  0  0  0
  6  7  1  0  0  0  0
  8 16  1  6  0  0  0
  8  7  1  0  0  0  0
  9  1  1  0  0  0  0
 10  1  1  0  0  0  0
 12  5  1  0  0  0  0
 14  5  1  0  0  0  0
M  END
