title
 OpenBabel02282109583D

 16 18  0  0  1  0  0  0  0  0999 V2000
    0.0530    2.3088    0.2285 O   0  0  0  0  0  0  0  0  0  0  0  0
    0.1584    0.9338    0.2415 C   0  0  1  0  0  0  0  0  0  0  0  0
    0.8725    0.0211    1.2652 C   0  0  0  0  0  0  0  0  0  0  0  0
    0.1840   -0.9255    0.2550 C   0  0  1  0  0  0  0  0  0  0  0  0
    0.2308   -2.3020    0.1830 O   0  0  0  0  0  0  0  0  0  0  0  0
   -1.0834    0.0045    0.1041 C   0  0  2  0  0  0  0  0  0  0  0  0
   -0.9906   -0.0240   -1.4364 C   0  0  0  0  0  0  0  0  0  0  0  0
    0.4824   -0.0190   -0.9754 C   0  0  1  0  0  0  0  0  0  0  0  0
    0.9365    2.6817    0.1373 H   0  0  0  0  0  0  0  0  0  0  0  0
    1.9681    0.0268    1.2617 H   0  0  0  0  0  0  0  0  0  0  0  0
    0.4800    0.0325    2.2880 H   0  0  0  0  0  0  0  0  0  0  0  0
   -0.1627   -2.6630    0.9847 H   0  0  0  0  0  0  0  0  0  0  0  0
   -1.9583    0.0179    0.7565 H   0  0  0  0  0  0  0  0  0  0  0  0
   -1.3422   -0.9334   -1.9302 H   0  0  0  0  0  0  0  0  0  0  0  0
   -1.3414    0.8684   -1.9609 H   0  0  0  0  0  0  0  0  0  0  0  0
    1.4034   -0.0314   -1.5611 H   0  0  0  0  0  0  0  0  0  0  0  0
  1  2  1  0  0  0  0
  2  8  1  6  0  0  0
  2  3  1  0  0  0  0
  3 11  1  0  0  0  0
  4  8  1  6  0  0  0
  4  3  1  0  0  0  0
  5  4  1  0  0  0  0
  5 12  1  0  0  0  0
  6  2  1  1  0  0  0
  6  4  1  0  0  0  0
  6 13  1  0  0  0  0
  7  8  1  0  0  0  0
  7  6  1  0  0  0  0
  8 16  1  6  0  0  0
  9  1  1  0  0  0  0
 10  3  1  0  0  0  0
 14  7  1  0  0  0  0
 15  7  1  0  0  0  0
M  END
