14
title
O 0.076773904 2.3222725 0.25722173
C 0.17604102 0.95463824 0.25503024
C 0.89596754 0.021612745 1.258792
C 0.19872843 -0.94558823 0.27149957
O 0.25549737 -2.3142488 0.20959955
C -1.0456991 0.007917266 0.079172194
O -0.9773411 -0.023605008 -1.3731134
C 0.4175015 -0.023053903 -0.96175873
H 0.96228206 2.6990216 0.2123962
H 1.9900213 0.025906008 1.2410039
H 0.5208074 0.03464995 2.2865927
H -0.070863955 -2.6775155 1.0400208
H -2.0190668 0.025481801 0.5686758
H 1.1990924 -0.0452434 -1.7206992
