title
 OpenBabel02282109583D

 16 18  0  0  1  0  0  0  0  0999 V2000
    0.2435    2.4726    0.3095 C   0  0  0  0  0  0  0  0  0  0  0  0
    0.1825    0.9846    0.1695 C   0  0  1  0  0  0  0  0  0  0  0  0
    0.6970    0.2081   -1.0785 C   0  0  0  0  0  0  0  0  0  0  0  0
   -0.1946   -0.9220   -0.5624 C   0  0  1  0  0  0  0  0  0  0  0  0
   -0.6235   -2.0532   -1.2199 O   0  0  0  0  0  0  0  0  0  0  0  0
   -0.1134   -0.8043    0.9751 C   0  0  1  0  0  0  0  0  0  0  0  0
    0.7913    0.2504    1.2868 O   0  0  0  0  0  0  0  0  0  0  0  0
   -1.0835    0.0356    0.2102 C   0  0  1  0  0  0  0  0  0  0  0  0
    1.2874    2.8037    0.3355 H   0  0  0  0  0  0  0  0  0  0  0  0
   -0.2511    2.9596   -0.5361 H   0  0  0  0  0  0  0  0  0  0  0  0
   -0.2419    2.7949    1.2349 H   0  0  0  0  0  0  0  0  0  0  0  0
    0.3025    0.6274   -2.0078 H   0  0  0  0  0  0  0  0  0  0  0  0
    1.7802    0.0589   -1.1426 H   0  0  0  0  0  0  0  0  0  0  0  0
    0.0623   -2.7267   -1.1477 H   0  0  0  0  0  0  0  0  0  0  0  0
   -0.2499   -1.6262    1.6662 H   0  0  0  0  0  0  0  0  0  0  0  0
   -2.1521    0.1930    0.2556 H   0  0  0  0  0  0  0  0  0  0  0  0
  1  9  1  0  0  0  0
  1 11  1  0  0  0  0
  2  8  1  1  0  0  0
  2  1  1  0  0  0  0
  2  7  1  0  0  0  0
  3  4  1  0  0  0  0
  3  2  1  0  0  0  0
  4  8  1  6  0  0  0
  5 14  1  0  0  0  0
  5  4  1  0  0  0  0
  6  4  1  6  0  0  0
  6  7  1  0  0  0  0
  6 15  1  0  0  0  0
  8 16  1  0  0  0  0
  8  6  1  1  0  0  0
 10  1  1  0  0  0  0
 12  3  1  0  0  0  0
 13  3  1  0  0  0  0
M  END
