16
title
C 0.24352857 2.472561 0.3095057
C 0.18247809 0.98462874 0.16948994
C 0.69701296 0.20812774 -1.0785207
C -0.19462754 -0.92201513 -0.5623646
O -0.62354547 -2.0531845 -1.2198547
C -0.11340871 -0.8043042 0.97513616
O 0.7912634 0.2504177 1.2868427
C -1.083494 0.03563022 0.21015505
H 1.287386 2.803655 0.33549762
H -0.25106803 2.9596179 -0.5361246
H -0.24191792 2.7948558 1.2349454
H 0.30247867 0.62744486 -2.007805
H 1.7802179 0.05886083 -1.1426405
H 0.062312793 -2.7266786 -1.1476718
H -0.24988987 -1.6262285 1.6661613
H -2.1520574 0.19300449 0.25555584
