18
title
C -0.36448163 2.5012586 -0.08375594
C -0.33655962 0.99596983 -0.08520443
C -1.6403514 0.15736033 0.09414657
C -0.7375526 -0.9330819 0.6579295
C 0.35538998 0.06360897 1.0032479
C 0.58538234 -0.8860288 -0.13321224
O 1.4762311 -1.9403473 -0.12533239
C 0.449271 0.2102753 -1.1839646
H 0.6473692 2.9205148 -0.10350192
H -0.89849764 2.8807967 -0.963463
H -0.87201273 2.88923 0.8063344
H -2.2879422 0.5851337 0.86660224
H -2.2328768 -0.050179042 -0.80582315
H -1.0018333 -1.8242995 1.2136836
H 0.90186447 0.2557651 1.914972
H 1.0920467 -2.6654596 -0.63058287
H -0.07311858 -0.0026985186 -2.1254008
H 1.4186312 0.6739594 -1.3910829
