title
 OpenBabel02282109583D

 20 22  0  0  1  0  0  0  0  0999 V2000
   -0.8610    2.0509   -0.1967 C   0  0  0  0  0  0  0  0  0  0  0  0
   -0.8003    0.5243   -0.1967 C   0  0  0  0  0  0  0  0  0  0  0  0
   -2.1639   -0.0693   -0.5466 C   0  0  0  0  0  0  0  0  0  0  0  0
    0.4426   -0.1297   -0.8620 C   0  0  1  0  0  0  0  0  0  0  0  0
    1.3801    0.2120    0.3503 C   0  0  2  0  0  0  0  0  0  0  0  0
    1.8876   -1.2365    0.4639 C   0  0  0  0  0  0  0  0  0  0  0  0
    0.4021   -1.3795    0.0877 C   0  0  1  0  0  0  0  0  0  0  0  0
   -0.0186   -0.1480    0.9662 C   0  0  2  0  0  0  0  0  0  0  0  0
    0.1020    2.5058    0.0508 H   0  0  0  0  0  0  0  0  0  0  0  0
   -1.1656    2.4289   -1.1799 H   0  0  0  0  0  0  0  0  0  0  0  0
   -1.5973    2.4118    0.5312 H   0  0  0  0  0  0  0  0  0  0  0  0
   -2.4936    0.2681   -1.5365 H   0  0  0  0  0  0  0  0  0  0  0  0
   -2.1525   -1.1626   -0.5547 H   0  0  0  0  0  0  0  0  0  0  0  0
   -2.9252    0.2510    0.1746 H   0  0  0  0  0  0  0  0  0  0  0  0
    0.7345   -0.1353   -1.9155 H   0  0  0  0  0  0  0  0  0  0  0  0
    1.9350    1.1384    0.4995 H   0  0  0  0  0  0  0  0  0  0  0  0
    2.6193   -1.5629   -0.2828 H   0  0  0  0  0  0  0  0  0  0  0  0
    2.1792   -1.5804    1.4619 H   0  0  0  0  0  0  0  0  0  0  0  0
   -0.1734   -2.2924   -0.0666 H   0  0  0  0  0  0  0  0  0  0  0  0
   -0.2613   -0.1747    2.0318 H   0  0  0  0  0  0  0  0  0  0  0  0
  1  2  1  0  0  0  0
  1  9  1  0  0  0  0
  1 11  1  0  0  0  0
  2  8  1  0  0  0  0
  3  2  1  0  0  0  0
  3 14  1  0  0  0  0
  4  2  1  0  0  0  0
  4  7  1  1  0  0  0
  5  4  1  6  0  0  0
  5  6  1  0  0  0  0
  5 16  1  0  0  0  0
  5  8  1  0  0  0  0
  6 18  1  0  0  0  0
  7 19  1  6  0  0  0
  7  6  1  0  0  0  0
  8  7  1  6  0  0  0
  8 20  1  0  0  0  0
 10  1  1  0  0  0  0
 12  3  1  0  0  0  0
 13  3  1  0  0  0  0
 15  4  1  0  0  0  0
 17  6  1  0  0  0  0
M  END
