19
title
C -0.88316244 2.053406 -0.17911577
C -0.79905945 0.5306244 -0.18615489
C -2.1386387 -0.11767884 -0.52613515
C 0.45148087 -0.1009207 -0.8371666
C 1.4032867 0.2467612 0.34832036
C 1.8158624 -1.2167222 0.4228319
N 0.34467924 -1.367833 0.059608698
C 0.014304696 -0.13332172 0.947038
H 0.07398635 2.5237343 0.064050525
H -1.2010715 2.427684 -1.158845
H -1.6211385 2.3965647 0.5548138
H -2.4857693 0.2061208 -1.5142158
H -2.0585241 -1.2064275 -0.52644527
H -2.9056997 0.17471208 0.20034792
H 0.715032 -0.20051993 -1.8937532
H 1.9896636 1.1569809 0.5085292
H 2.4955528 -1.6040094 -0.34390354
H 2.067492 -1.6357443 1.403115
H -0.23947984 -0.27126107 2.0017037
