title
 OpenBabel02282109583D

 18 20  0  0  1  0  0  0  0  0999 V2000
   -0.8769    2.0659   -0.1924 C   0  0  0  0  0  0  0  0  0  0  0  0
   -0.8239    0.5392   -0.1968 C   0  0  0  0  0  0  0  0  0  0  0  0
   -2.1861   -0.0611   -0.5394 C   0  0  0  0  0  0  0  0  0  0  0  0
    0.4086   -0.1063   -0.8898 C   0  0  1  0  0  0  0  0  0  0  0  0
    1.3400    0.1745    0.3322 C   0  0  2  0  0  0  0  0  0  0  0  0
    1.8266   -1.1955    0.4364 O   0  0  0  0  0  0  0  0  0  0  0  0
    0.4173   -1.3247    0.0876 C   0  0  1  0  0  0  0  0  0  0  0  0
   -0.0510   -0.1277    0.9752 C   0  0  2  0  0  0  0  0  0  0  0  0
    0.0920    2.5121    0.0517 H   0  0  0  0  0  0  0  0  0  0  0  0
   -1.1828    2.4494   -1.1726 H   0  0  0  0  0  0  0  0  0  0  0  0
   -1.6054    2.4297    0.5414 H   0  0  0  0  0  0  0  0  0  0  0  0
   -2.5231    0.2723   -1.5277 H   0  0  0  0  0  0  0  0  0  0  0  0
   -2.1652   -1.1552   -0.5469 H   0  0  0  0  0  0  0  0  0  0  0  0
   -2.9454    0.2525    0.1864 H   0  0  0  0  0  0  0  0  0  0  0  0
    0.6967   -0.1119   -1.9423 H   0  0  0  0  0  0  0  0  0  0  0  0
    2.0404    0.9883    0.5141 H   0  0  0  0  0  0  0  0  0  0  0  0
    0.0012   -2.3245   -0.0264 H   0  0  0  0  0  0  0  0  0  0  0  0
   -0.2848   -0.1577    2.0407 H   0  0  0  0  0  0  0  0  0  0  0  0
  1  9  1  0  0  0  0
  1 11  1  0  0  0  0
  2  1  1  0  0  0  0
  2  8  1  0  0  0  0
  3  2  1  0  0  0  0
  3 14  1  0  0  0  0
  4  2  1  0  0  0  0
  4  7  1  1  0  0  0
  5  4  1  6  0  0  0
  5  6  1  0  0  0  0
  5 16  1  0  0  0  0
  5  8  1  0  0  0  0
  7 17  1  6  0  0  0
  7  6  1  0  0  0  0
  8  7  1  6  0  0  0
  8 18  1  0  0  0  0
 10  1  1  0  0  0  0
 12  3  1  0  0  0  0
 13  3  1  0  0  0  0
 15  4  1  0  0  0  0
M  END
