title
 OpenBabel02282109583D

 18 20  0  0  1  0  0  0  0  0999 V2000
   -0.8665    2.0559   -0.2227 C   0  0  0  0  0  0  0  0  0  0  0  0
   -0.7475    0.5397   -0.1988 C   0  0  1  0  0  0  0  0  0  0  0  0
   -2.0010   -0.0731   -0.4526 O   0  0  0  0  0  0  0  0  0  0  0  0
    0.4820   -0.1288   -0.8637 C   0  0  1  0  0  0  0  0  0  0  0  0
    1.4005    0.1851    0.3695 C   0  0  2  0  0  0  0  0  0  0  0  0
    1.8668   -1.2790    0.4845 C   0  0  0  0  0  0  0  0  0  0  0  0
    0.3833   -1.3785    0.0817 C   0  0  1  0  0  0  0  0  0  0  0  0
   -0.0132   -0.1435    0.9667 C   0  0  2  0  0  0  0  0  0  0  0  0
    0.0822    2.5449    0.0144 H   0  0  0  0  0  0  0  0  0  0  0  0
   -1.1765    2.4047   -1.2166 H   0  0  0  0  0  0  0  0  0  0  0  0
   -1.6200    2.3893    0.4980 H   0  0  0  0  0  0  0  0  0  0  0  0
   -2.3644    0.3106   -1.2576 H   0  0  0  0  0  0  0  0  0  0  0  0
    0.7903   -0.1337   -1.9118 H   0  0  0  0  0  0  0  0  0  0  0  0
    1.9722    1.0993    0.5328 H   0  0  0  0  0  0  0  0  0  0  0  0
    2.6037   -1.6201   -0.2502 H   0  0  0  0  0  0  0  0  0  0  0  0
    2.1318   -1.6343    1.4859 H   0  0  0  0  0  0  0  0  0  0  0  0
   -0.2304   -2.2606   -0.0897 H   0  0  0  0  0  0  0  0  0  0  0  0
   -0.2814   -0.1650    2.0245 H   0  0  0  0  0  0  0  0  0  0  0  0
  1  2  1  0  0  0  0
  1  9  1  0  0  0  0
  1 11  1  0  0  0  0
  2  4  1  6  0  0  0
  3  2  1  0  0  0  0
  4  7  1  1  0  0  0
  5  4  1  6  0  0  0
  5  6  1  0  0  0  0
  5 14  1  0  0  0  0
  5  8  1  0  0  0  0
  6 16  1  0  0  0  0
  7  6  1  0  0  0  0
  7  8  1  1  0  0  0
  8  2  1  6  0  0  0
  8 18  1  0  0  0  0
 10  1  1  0  0  0  0
 12  3  1  0  0  0  0
 13  4  1  0  0  0  0
 15  6  1  0  0  0  0
 17  7  1  0  0  0  0
M  END
