18
title
C -0.86654717 2.0559423 -0.22274482
C -0.74750733 0.53970724 -0.19877596
O -2.0010364 -0.07308847 -0.45257387
C 0.48196742 -0.1287635 -0.8636947
C 1.4004529 0.18507513 0.36947972
C 1.8668406 -1.2789633 0.48452538
C 0.38333032 -1.378478 0.08166426
C -0.01318725 -0.14347494 0.9666723
H 0.08218608 2.5448573 0.014427329
H -1.1764901 2.4046588 -1.2165648
H -1.6199833 2.3892965 0.49795508
H -2.3643837 0.31056458 -1.2575599
H 0.7903137 -0.13369966 -1.9117894
H 1.9721799 1.0993143 0.532763
H 2.6037025 -1.6201184 -0.250198
H 2.1318314 -1.6343417 1.4858687
H -0.23041375 -2.2605755 -0.08965646
H -0.2813759 -0.16499263 2.0245435
