17
title
C -0.8840351 2.0726748 -0.1513754
C -0.7415887 0.5667786 -0.17497206
O -1.9811767 0.01010592 -0.5290207
C 0.49914765 -0.07655425 -0.83061975
C 1.4312577 0.17998575 0.38984713
C 1.7687702 -1.3081282 0.41911325
N 0.29804802 -1.3660728 0.023715176
C 0.020571703 -0.14987881 0.960232
H 0.055276986 2.5610778 0.1195365
H -1.1959112 2.434836 -1.1355584
H -1.6518344 2.364975 0.57118213
H -1.8556823 -0.9486192 -0.53474444
H 0.7803612 -0.15882523 -1.8832558
H 2.0568593 1.0540513 0.5928156
H 2.4420013 -1.7031565 -0.34887722
H 1.9779418 -1.7742546 1.3876536
H -0.25824547 -0.3179522 2.0032587
