title
 OpenBabel02282109583D

 16 18  0  0  1  0  0  0  0  0999 V2000
   -0.8809    2.0742   -0.2214 C   0  0  0  0  0  0  0  0  0  0  0  0
   -0.7691    0.5582   -0.2014 C   0  0  1  0  0  0  0  0  0  0  0  0
   -2.0199   -0.0606   -0.4489 O   0  0  0  0  0  0  0  0  0  0  0  0
    0.4507   -0.1053   -0.8906 C   0  0  1  0  0  0  0  0  0  0  0  0
    1.3620    0.1422    0.3519 C   0  0  2  0  0  0  0  0  0  0  0  0
    1.8031   -1.2427    0.4599 O   0  0  0  0  0  0  0  0  0  0  0  0
    0.3950   -1.3248    0.0846 C   0  0  1  0  0  0  0  0  0  0  0  0
   -0.0451   -0.1195    0.9750 C   0  0  2  0  0  0  0  0  0  0  0  0
    0.0728    2.5552    0.0158 H   0  0  0  0  0  0  0  0  0  0  0  0
   -1.1894    2.4287   -1.2132 H   0  0  0  0  0  0  0  0  0  0  0  0
   -1.6292    2.4107    0.5028 H   0  0  0  0  0  0  0  0  0  0  0  0
   -2.3905    0.3186   -1.2529 H   0  0  0  0  0  0  0  0  0  0  0  0
    0.7570   -0.1143   -1.9372 H   0  0  0  0  0  0  0  0  0  0  0  0
    2.0800    0.9364    0.5504 H   0  0  0  0  0  0  0  0  0  0  0  0
   -0.0614   -2.3032   -0.0421 H   0  0  0  0  0  0  0  0  0  0  0  0
   -0.3055   -0.1432    2.0328 H   0  0  0  0  0  0  0  0  0  0  0  0
  1  2  1  0  0  0  0
  1  9  1  0  0  0  0
  1 11  1  0  0  0  0
  2  4  1  6  0  0  0
  3  2  1  0  0  0  0
  4  7  1  1  0  0  0
  5  4  1  6  0  0  0
  5  6  1  0  0  0  0
  5 14  1  0  0  0  0
  5  8  1  0  0  0  0
  7  6  1  0  0  0  0
  7  8  1  1  0  0  0
  8  2  1  6  0  0  0
  8 16  1  0  0  0  0
 10  1  1  0  0  0  0
 12  3  1  0  0  0  0
 13  4  1  0  0  0  0
 15  7  1  0  0  0  0
M  END
