title
 OpenBabel02282109583D

 18 20  0  0  1  0  0  0  0  0999 V2000
    0.2661    2.0195   -0.6834 C   0  0  0  0  0  0  0  0  0  0  0  0
    0.2958    0.5122   -0.6485 C   0  0  1  0  0  0  0  0  0  0  0  0
    0.8571   -0.4055   -1.7576 C   0  0  0  0  0  0  0  0  0  0  0  0
    0.3674   -1.3799   -0.6759 C   0  0  1  0  0  0  0  0  0  0  0  0
    0.8351   -0.4456    0.4918 C   0  0  2  0  0  0  0  0  0  0  0  0
   -0.5454   -0.5678    1.1713 C   0  0  1  0  0  0  0  0  0  0  0  0
   -1.0110    0.3981    2.0782 O   0  0  0  0  0  0  0  0  0  0  0  0
   -0.8821   -0.4985   -0.3334 C   0  0  1  0  0  0  0  0  0  0  0  0
    1.2804    2.4237   -0.7775 H   0  0  0  0  0  0  0  0  0  0  0  0
   -0.3131    2.3746   -1.5433 H   0  0  0  0  0  0  0  0  0  0  0  0
   -0.1784    2.4666    0.2129 H   0  0  0  0  0  0  0  0  0  0  0  0
    0.3164   -0.4106   -2.7106 H   0  0  0  0  0  0  0  0  0  0  0  0
    1.9380   -0.3606   -1.9313 H   0  0  0  0  0  0  0  0  0  0  0  0
    0.3935   -2.4696   -0.6604 H   0  0  0  0  0  0  0  0  0  0  0  0
    1.8334   -0.4215    0.9338 H   0  0  0  0  0  0  0  0  0  0  0  0
   -0.7430   -1.5351    1.6448 H   0  0  0  0  0  0  0  0  0  0  0  0
   -0.8590    1.2714    1.7056 H   0  0  0  0  0  0  0  0  0  0  0  0
   -1.8507   -0.5351   -0.8365 H   0  0  0  0  0  0  0  0  0  0  0  0
  1  2  1  0  0  0  0
  1 11  1  0  0  0  0
  2  8  1  6  0  0  0
  2  5  1  0  0  0  0
  3  4  1  0  0  0  0
  3  2  1  0  0  0  0
  4 14  1  6  0  0  0
  5  4  1  6  0  0  0
  5 15  1  0  0  0  0
  5  6  1  0  0  0  0
  6  8  1  6  0  0  0
  6 16  1  0  0  0  0
  6  7  1  0  0  0  0
  8  4  1  6  0  0  0
  9  1  1  0  0  0  0
 10  1  1  0  0  0  0
 12  3  1  0  0  0  0
 13  3  1  0  0  0  0
 17  7  1  0  0  0  0
 18  8  1  0  0  0  0
M  END
