17
title
C 0.27829874 2.0342493 -0.65478015
C 0.2900269 0.52834827 -0.64870286
C 0.7968887 -0.4570047 -1.7011664
N 0.3053958 -1.4360912 -0.6401807
C 0.8005772 -0.45852545 0.45973745
C -0.545647 -0.55041265 1.169046
O -0.85475194 0.5385674 2.0030088
C -0.8735391 -0.47553483 -0.3311573
H 1.2955269 2.4314032 -0.74742085
H -0.3044783 2.4160519 -1.5009642
H -0.15893462 2.41793 0.27001897
H 0.25028977 -0.53160036 -2.6482878
H 1.8768388 -0.51574814 -1.8793393
H 1.8107853 -0.5464455 0.86428136
H -0.7559484 -1.5199889 1.6397364
H -1.763141 0.44035882 2.3047547
H -1.8243331 -0.58549356 -0.8584062
