title
 OpenBabel02282109583D

 17 19  0  0  1  0  0  0  0  0999 V2000
    0.2783    2.0342   -0.6548 C   0  0  0  0  0  0  0  0  0  0  0  0
    0.2900    0.5283   -0.6487 C   0  0  1  0  0  0  0  0  0  0  0  0
    0.7969   -0.4570   -1.7012 C   0  0  0  0  0  0  0  0  0  0  0  0
    0.3054   -1.4361   -0.6402 N   0  0  1  0  0  0  0  0  0  0  0  0
    0.8006   -0.4585    0.4597 C   0  0  2  0  0  0  0  0  0  0  0  0
   -0.5456   -0.5504    1.1690 C   0  0  1  0  0  0  0  0  0  0  0  0
   -0.8548    0.5386    2.0030 O   0  0  0  0  0  0  0  0  0  0  0  0
   -0.8735   -0.4755   -0.3312 C   0  0  1  0  0  0  0  0  0  0  0  0
    1.2955    2.4314   -0.7474 H   0  0  0  0  0  0  0  0  0  0  0  0
   -0.3045    2.4161   -1.5010 H   0  0  0  0  0  0  0  0  0  0  0  0
   -0.1589    2.4179    0.2700 H   0  0  0  0  0  0  0  0  0  0  0  0
    0.2503   -0.5316   -2.6483 H   0  0  0  0  0  0  0  0  0  0  0  0
    1.8768   -0.5157   -1.8793 H   0  0  0  0  0  0  0  0  0  0  0  0
    1.8108   -0.5464    0.8643 H   0  0  0  0  0  0  0  0  0  0  0  0
   -0.7559   -1.5200    1.6397 H   0  0  0  0  0  0  0  0  0  0  0  0
   -1.7631    0.4404    2.3048 H   0  0  0  0  0  0  0  0  0  0  0  0
   -1.8243   -0.5855   -0.8584 H   0  0  0  0  0  0  0  0  0  0  0  0
  1 11  1  0  0  0  0
  2  1  1  6  0  0  0
  3  2  1  0  0  0  0
  3  4  1  0  0  0  0
  4  8  1  1  0  0  0
  4  5  1  0  0  0  0
  5  2  1  6  0  0  0
  5 14  1  0  0  0  0
  5  6  1  0  0  0  0
  6  8  1  6  0  0  0
  6 15  1  0  0  0  0
  6  7  1  0  0  0  0
  7 16  1  0  0  0  0
  8  2  1  6  0  0  0
  9  1  1  0  0  0  0
 10  1  1  0  0  0  0
 12  3  1  0  0  0  0
 13  3  1  0  0  0  0
 17  8  1  0  0  0  0
M  END
