19
title
C -1.0906043 2.3699574 0.11948293
C -0.9691769 0.86212885 0.014710928
C -0.050683435 0.20350999 -1.014464
C 1.1777267 0.50476086 -0.1073499
C 1.6622505 -0.9434973 -0.08386999
C 0.1304878 -1.0173638 -0.04686063
C -0.7457071 -2.2224264 0.13041791
N 0.06404734 0.20171976 0.9345044
H -0.1280474 2.8725662 -0.01251511
H -1.7766874 2.7530165 -0.6439357
H -1.4875352 2.6524434 1.1001861
H -1.9558022 0.39654458 0.13244773
H -0.09376854 0.19088262 -2.1104562
H 1.7598474 1.4240979 -0.046300497
H 2.1535625 -1.3176105 -0.9864012
H 2.1815674 -1.2648227 0.82398623
H -0.49983475 -2.737163 1.0648205
H -1.8059005 -1.9520521 0.16031142
H -0.59927523 -2.9262877 -0.6959743
