18
title
C -1.0830941 2.465525 -0.24452625
C -1.0145379 0.944979 -0.24115677
C 0.17413293 0.24608126 -0.94402325
C 1.1197252 0.45218226 0.2794271
O 1.5217211 -0.94411564 0.36591345
C 0.09880208 -0.9915898 0.015505283
C -0.5606266 -2.3213646 -0.15849365
C -0.28461498 0.22953358 0.9210687
H -0.11393411 2.9143531 -0.0022072503
H -1.3886203 2.8443708 -1.226064
H -1.8105311 2.8291483 0.4895721
H -1.9922177 0.51251984 -0.4854691
H 0.46151042 0.23557672 -1.9965805
H 1.8702273 1.2173374 0.4708138
H -0.49854574 -2.904064 0.76574594
H -1.6164236 -2.1932237 -0.41729403
H -0.07422686 -2.8889217 -0.9578098
H -0.51819247 0.20023492 1.9865057
