title
 OpenBabel02282109583D

 18 20  0  0  1  0  0  0  0  0999 V2000
   -1.0831    2.4655   -0.2445 C   0  0  0  0  0  0  0  0  0  0  0  0
   -1.0145    0.9450   -0.2412 C   0  0  1  0  0  0  0  0  0  0  0  0
    0.1741    0.2461   -0.9440 C   0  0  1  0  0  0  0  0  0  0  0  0
    1.1197    0.4522    0.2794 C   0  0  2  0  0  0  0  0  0  0  0  0
    1.5217   -0.9441    0.3659 O   0  0  0  0  0  0  0  0  0  0  0  0
    0.0988   -0.9916    0.0155 C   0  0  2  0  0  0  0  0  0  0  0  0
   -0.5606   -2.3214   -0.1585 C   0  0  0  0  0  0  0  0  0  0  0  0
   -0.2846    0.2295    0.9211 C   0  0  2  0  0  0  0  0  0  0  0  0
   -0.1139    2.9144   -0.0022 H   0  0  0  0  0  0  0  0  0  0  0  0
   -1.3886    2.8444   -1.2261 H   0  0  0  0  0  0  0  0  0  0  0  0
   -1.8105    2.8291    0.4896 H   0  0  0  0  0  0  0  0  0  0  0  0
   -1.9922    0.5125   -0.4855 H   0  0  0  0  0  0  0  0  0  0  0  0
    0.4615    0.2356   -1.9966 H   0  0  0  0  0  0  0  0  0  0  0  0
    1.8702    1.2173    0.4708 H   0  0  0  0  0  0  0  0  0  0  0  0
   -0.4985   -2.9041    0.7657 H   0  0  0  0  0  0  0  0  0  0  0  0
   -1.6164   -2.1932   -0.4173 H   0  0  0  0  0  0  0  0  0  0  0  0
   -0.0742   -2.8889   -0.9578 H   0  0  0  0  0  0  0  0  0  0  0  0
   -0.5182    0.2002    1.9865 H   0  0  0  0  0  0  0  0  0  0  0  0
  1  2  1  0  0  0  0
  1  9  1  0  0  0  0
  1 11  1  0  0  0  0
  2 12  1  6  0  0  0
  3  2  1  1  0  0  0
  4  3  1  6  0  0  0
  4  5  1  0  0  0  0
  4 14  1  0  0  0  0
  4  8  1  0  0  0  0
  6  3  1  6  0  0  0
  6  5  1  0  0  0  0
  6  8  1  0  0  0  0
  7  6  1  0  0  0  0
  7 15  1  0  0  0  0
  8  2  1  6  0  0  0
  8 18  1  0  0  0  0
 10  1  1  0  0  0  0
 13  3  1  0  0  0  0
 16  7  1  0  0  0  0
 17  7  1  0  0  0  0
M  END
