17
title
C -1.0586919 2.4325218 -0.27071658
C -0.9801634 0.91430247 -0.27744228
C 0.2459988 0.22550888 -0.9010428
N 1.1374185 0.5724715 0.3163541
C 1.5847585 -0.8809921 0.4313013
C 0.1233415 -1.0387102 0.02052304
O -0.66983914 -2.1627202 -0.12307942
C -0.2618358 0.19190629 0.8762988
H -0.09961903 2.8718832 0.014838814
H -1.3299545 2.8134248 -1.2614549
H -1.8207297 2.7807782 0.4350909
H -1.9313084 0.4499753 -0.5559378
H 0.65469295 0.28823143 -1.9124209
H 2.364803 -1.1528554 -0.288226
H 1.8716824 -1.1706681 1.4473102
H -0.3085513 -2.707373 -0.8313174
H -0.44481152 0.21947946 1.9523662
