title
 OpenBabel02282109583D

 17 19  0  0  1  0  0  0  0  0999 V2000
   -1.0587    2.4325   -0.2707 C   0  0  0  0  0  0  0  0  0  0  0  0
   -0.9802    0.9143   -0.2774 C   0  0  1  0  0  0  0  0  0  0  0  0
    0.2460    0.2255   -0.9010 C   0  0  1  0  0  0  0  0  0  0  0  0
    1.1374    0.5725    0.3164 N   0  0  2  0  0  0  0  0  0  0  0  0
    1.5848   -0.8810    0.4313 C   0  0  0  0  0  0  0  0  0  0  0  0
    0.1233   -1.0387    0.0205 C   0  0  2  0  0  0  0  0  0  0  0  0
   -0.6698   -2.1627   -0.1231 O   0  0  0  0  0  0  0  0  0  0  0  0
   -0.2618    0.1919    0.8763 C   0  0  2  0  0  0  0  0  0  0  0  0
   -0.0996    2.8719    0.0148 H   0  0  0  0  0  0  0  0  0  0  0  0
   -1.3300    2.8134   -1.2615 H   0  0  0  0  0  0  0  0  0  0  0  0
   -1.8207    2.7808    0.4351 H   0  0  0  0  0  0  0  0  0  0  0  0
   -1.9313    0.4500   -0.5559 H   0  0  0  0  0  0  0  0  0  0  0  0
    0.6547    0.2882   -1.9124 H   0  0  0  0  0  0  0  0  0  0  0  0
    2.3648   -1.1529   -0.2882 H   0  0  0  0  0  0  0  0  0  0  0  0
    1.8717   -1.1707    1.4473 H   0  0  0  0  0  0  0  0  0  0  0  0
   -0.3086   -2.7074   -0.8313 H   0  0  0  0  0  0  0  0  0  0  0  0
   -0.4448    0.2195    1.9524 H   0  0  0  0  0  0  0  0  0  0  0  0
  1  9  1  0  0  0  0
  1 11  1  0  0  0  0
  2 12  1  6  0  0  0
  2  1  1  0  0  0  0
  3  2  1  1  0  0  0
  4  3  1  6  0  0  0
  4  5  1  0  0  0  0
  4  8  1  0  0  0  0
  5 15  1  0  0  0  0
  6  3  1  6  0  0  0
  6  5  1  0  0  0  0
  6  8  1  0  0  0  0
  7  6  1  0  0  0  0
  8  2  1  6  0  0  0
  8 17  1  0  0  0  0
 10  1  1  0  0  0  0
 13  3  1  0  0  0  0
 14  5  1  0  0  0  0
 16  7  1  0  0  0  0
M  END
