19
title
C -0.3553112 1.5628674 -1.7446678
N -0.11283654 0.16026647 -1.4309931
C -0.87108684 -0.46361858 -0.30574298
C 0.23827405 -1.5403857 -0.115599506
C 0.29873887 -1.3385808 1.4033968
C 0.038718134 0.091622554 0.87430286
C -0.10241991 1.3130753 1.7476721
C 0.9290349 -0.17686306 -0.41553032
H 0.4441805 1.9212245 -2.4024918
H -1.2969089 1.6434379 -2.2989635
H -0.4123176 2.2417839 -0.88132477
H -1.9540554 -0.6075543 -0.31815803
H 0.3452535 -2.4420726 -0.71652555
H -0.5042626 -1.792637 1.9935853
H 1.266829 -1.5105705 1.8855977
H 0.80628043 1.460263 2.3434436
H -0.28306225 2.2308037 1.184418
H -0.9343736 1.1830004 2.4500058
H 1.9938548 0.021343183 -0.5589661
