title
 OpenBabel02282109583D

 19 21  0  0  1  0  0  0  0  0999 V2000
   -0.3553    1.5629   -1.7447 C   0  0  0  0  0  0  0  0  0  0  0  0
   -0.1128    0.1603   -1.4310 N   0  0  0  0  0  0  0  0  0  0  0  0
   -0.8711   -0.4636   -0.3057 C   0  0  1  0  0  0  0  0  0  0  0  0
    0.2383   -1.5404   -0.1156 C   0  0  2  0  0  0  0  0  0  0  0  0
    0.2987   -1.3386    1.4034 C   0  0  0  0  0  0  0  0  0  0  0  0
    0.0387    0.0916    0.8743 C   0  0  2  0  0  0  0  0  0  0  0  0
   -0.1024    1.3131    1.7477 C   0  0  0  0  0  0  0  0  0  0  0  0
    0.9290   -0.1769   -0.4155 C   0  0  2  0  0  0  0  0  0  0  0  0
    0.4442    1.9212   -2.4025 H   0  0  0  0  0  0  0  0  0  0  0  0
   -1.2969    1.6434   -2.2990 H   0  0  0  0  0  0  0  0  0  0  0  0
   -0.4123    2.2418   -0.8813 H   0  0  0  0  0  0  0  0  0  0  0  0
   -1.9541   -0.6076   -0.3182 H   0  0  0  0  0  0  0  0  0  0  0  0
    0.3453   -2.4421   -0.7165 H   0  0  0  0  0  0  0  0  0  0  0  0
   -0.5043   -1.7926    1.9936 H   0  0  0  0  0  0  0  0  0  0  0  0
    1.2668   -1.5106    1.8856 H   0  0  0  0  0  0  0  0  0  0  0  0
    0.8063    1.4603    2.3434 H   0  0  0  0  0  0  0  0  0  0  0  0
   -0.2831    2.2308    1.1844 H   0  0  0  0  0  0  0  0  0  0  0  0
   -0.9344    1.1830    2.4500 H   0  0  0  0  0  0  0  0  0  0  0  0
    1.9939    0.0213   -0.5590 H   0  0  0  0  0  0  0  0  0  0  0  0
  1  2  1  0  0  0  0
  1 11  1  0  0  0  0
  2  8  1  0  0  0  0
  2  3  1  0  0  0  0
  3  4  1  6  0  0  0
  3  6  1  0  0  0  0
  4 13  1  6  0  0  0
  4  5  1  0  0  0  0
  5 15  1  0  0  0  0
  5 14  1  0  0  0  0
  6  8  1  6  0  0  0
  6  5  1  0  0  0  0
  6  7  1  0  0  0  0
  7 16  1  0  0  0  0
  7 18  1  0  0  0  0
  8  4  1  6  0  0  0
  9  1  1  0  0  0  0
 10  1  1  0  0  0  0
 12  3  1  0  0  0  0
 17  7  1  0  0  0  0
 19  8  1  0  0  0  0
M  END
