title
 OpenBabel02282109583D

 18 20  0  0  1  0  0  0  0  0999 V2000
   -0.2987    1.5764   -1.7604 C   0  0  0  0  0  0  0  0  0  0  0  0
   -0.0807    0.1676   -1.4545 N   0  0  0  0  0  0  0  0  0  0  0  0
   -0.8879   -0.4405   -0.3574 C   0  0  1  0  0  0  0  0  0  0  0  0
    0.2198   -1.5026   -0.0876 C   0  0  2  0  0  0  0  0  0  0  0  0
    0.3175   -1.2812    1.3847 N   0  0  0  0  0  0  0  0  0  0  0  0
    0.0137    0.0908    0.8452 C   0  0  2  0  0  0  0  0  0  0  0  0
   -0.1208    1.2547    1.7863 C   0  0  0  0  0  0  0  0  0  0  0  0
    0.9365   -0.1680   -0.4159 C   0  0  2  0  0  0  0  0  0  0  0  0
    0.5294    1.9380   -2.3794 H   0  0  0  0  0  0  0  0  0  0  0  0
   -1.2172    1.6741   -2.3490 H   0  0  0  0  0  0  0  0  0  0  0  0
   -0.3839    2.2408   -0.8868 H   0  0  0  0  0  0  0  0  0  0  0  0
   -1.9723   -0.5720   -0.4063 H   0  0  0  0  0  0  0  0  0  0  0  0
    0.3579   -2.4656   -0.5769 H   0  0  0  0  0  0  0  0  0  0  0  0
   -0.5104   -1.6623    1.8523 H   0  0  0  0  0  0  0  0  0  0  0  0
    0.7779    1.3341    2.4068 H   0  0  0  0  0  0  0  0  0  0  0  0
   -0.2631    2.2005    1.2596 H   0  0  0  0  0  0  0  0  0  0  0  0
   -0.9773    1.1095    2.4552 H   0  0  0  0  0  0  0  0  0  0  0  0
    2.0058    0.0165   -0.5273 H   0  0  0  0  0  0  0  0  0  0  0  0
  1  2  1  0  0  0  0
  1 11  1  0  0  0  0
  2  8  1  0  0  0  0
  2  3  1  0  0  0  0
  3  4  1  6  0  0  0
  3  6  1  0  0  0  0
  4 13  1  6  0  0  0
  4  5  1  0  0  0  0
  5 14  1  0  0  0  0
  6  8  1  6  0  0  0
  6  5  1  0  0  0  0
  6  7  1  0  0  0  0
  7 15  1  0  0  0  0
  7 17  1  0  0  0  0
  8  4  1  6  0  0  0
  9  1  1  0  0  0  0
 10  1  1  0  0  0  0
 12  3  1  0  0  0  0
 16  7  1  0  0  0  0
 18  8  1  0  0  0  0
M  END
