15
title
O 0.80452806 2.2684684 -0.75213814
C 0.74254864 0.87433296 -0.70322824
C 0.6743279 0.17782836 0.66598666
N -0.81355476 0.58750415 0.8306011
C -1.1895542 -0.85148114 1.1679741
C -0.11541295 -1.0519243 0.09746001
O 0.35723007 -2.194852 -0.5176486
C -0.6347983 0.18924998 -0.66501933
H 0.15983549 2.598356 -0.113256834
H 1.4640812 0.4769843 -1.4190433
H 1.3499981 0.21687327 1.52278
H -0.9591814 -1.1295904 2.2019737
H -2.2246041 -1.1035625 0.9166703
H 0.78750515 -2.748668 0.14338097
H -1.4814931 0.24541645 -1.3509018
