title
 OpenBabel02282109583D

 15 17  0  0  1  0  0  0  0  0999 V2000
    0.8045    2.2685   -0.7521 O   0  0  0  0  0  0  0  0  0  0  0  0
    0.7425    0.8743   -0.7032 C   0  0  1  0  0  0  0  0  0  0  0  0
    0.6743    0.1778    0.6660 C   0  0  1  0  0  0  0  0  0  0  0  0
   -0.8136    0.5875    0.8306 N   0  0  2  0  0  0  0  0  0  0  0  0
   -1.1896   -0.8515    1.1680 C   0  0  0  0  0  0  0  0  0  0  0  0
   -0.1154   -1.0519    0.0975 C   0  0  2  0  0  0  0  0  0  0  0  0
    0.3572   -2.1949   -0.5176 O   0  0  0  0  0  0  0  0  0  0  0  0
   -0.6348    0.1892   -0.6650 C   0  0  2  0  0  0  0  0  0  0  0  0
    0.1598    2.5984   -0.1133 H   0  0  0  0  0  0  0  0  0  0  0  0
    1.4641    0.4770   -1.4190 H   0  0  0  0  0  0  0  0  0  0  0  0
    1.3500    0.2169    1.5228 H   0  0  0  0  0  0  0  0  0  0  0  0
   -0.9592   -1.1296    2.2020 H   0  0  0  0  0  0  0  0  0  0  0  0
   -2.2246   -1.1036    0.9167 H   0  0  0  0  0  0  0  0  0  0  0  0
    0.7875   -2.7487    0.1434 H   0  0  0  0  0  0  0  0  0  0  0  0
   -1.4815    0.2454   -1.3509 H   0  0  0  0  0  0  0  0  0  0  0  0
  1  2  1  0  0  0  0
  1  9  1  0  0  0  0
  2 10  1  6  0  0  0
  3  2  1  6  0  0  0
  3  4  1  0  0  0  0
  3 11  1  0  0  0  0
  4  8  1  6  0  0  0
  4  5  1  0  0  0  0
  5 12  1  0  0  0  0
  6  8  1  6  0  0  0
  6  3  1  0  0  0  0
  6  5  1  0  0  0  0
  7  6  1  0  0  0  0
  7 14  1  0  0  0  0
  8  2  1  6  0  0  0
 13  5  1  0  0  0  0
 15  8  1  0  0  0  0
M  END
