17
title
C 0.31231442 2.3564355 0.16402353
C 0.19019912 0.86799747 0.0011296241
C 0.5899653 0.14261796 -1.3024429
N -0.48923606 -0.89471155 -1.117144
C -0.061970368 -1.8739672 -0.050877478
C -0.34775078 -0.8512935 1.0614884
O 0.70593625 0.1350549 1.1504761
C -1.0857251 -0.018176965 -0.009392778
H 1.36842 2.6426568 0.22444086
H -0.1355006 2.8784118 -0.6872644
H -0.18072529 2.6891167 1.0819917
H 0.3708522 0.73385084 -2.1984093
H 1.6110436 -0.24568443 -1.3603108
H -0.76235795 -2.7161753 -0.036500912
H 0.9621651 -2.2485614 -0.13684456
H -0.70913327 -1.1637319 2.0438883
H -2.1294303 0.28851414 -0.04634345
