18
title
O 0.2928316 2.2394261 0.03073978
C 0.2799365 0.840614 0.016882794
C 0.74288195 0.111821234 -1.2709743
C -0.43219385 -0.89061755 -1.1205422
C -0.19040969 -1.9583509 -0.024787068
C -0.50077087 -0.91177994 1.0741079
C 0.66198945 0.086878836 1.3169141
C -1.0718101 0.04939967 -0.0329666
H 1.2112954 2.5317953 0.057747427
H 0.5780351 0.7702941 -2.1292264
H 1.762531 -0.28794247 -1.3099568
H -0.9347658 -1.2063572 -2.0347056
H -0.96992517 -2.7257988 -0.056561146
H 0.7860513 -2.4550893 0.0009245487
H -1.0592937 -1.2447736 1.9488256
H 1.6774542 -0.31415302 1.411909
H 0.44344598 0.72892183 2.175606
H -2.0611775 0.49797216 -0.059570093
