title
 OpenBabel02282109583D

 16 18  0  0  1  0  0  0  0  0999 V2000
    0.3079    2.2578    0.0300 O   0  0  0  0  0  0  0  0  0  0  0  0
    0.2796    0.8626    0.0161 C   0  0  1  0  0  0  0  0  0  0  0  0
    0.7268    0.1133   -1.2712 C   0  0  0  0  0  0  0  0  0  0  0  0
   -0.4364   -0.8861   -1.0556 C   0  0  1  0  0  0  0  0  0  0  0  0
   -0.1325   -1.8480   -0.0211 O   0  0  0  0  0  0  0  0  0  0  0  0
   -0.4960   -0.9054    1.0121 C   0  0  1  0  0  0  0  0  0  0  0  0
    0.6523    0.0892    1.3129 C   0  0  0  0  0  0  0  0  0  0  0  0
   -1.0880    0.0830   -0.0305 C   0  0  1  0  0  0  0  0  0  0  0  0
    1.2289    2.5413    0.0556 H   0  0  0  0  0  0  0  0  0  0  0  0
    0.5234    0.7477   -2.1403 H   0  0  0  0  0  0  0  0  0  0  0  0
    1.7389   -0.2972   -1.3278 H   0  0  0  0  0  0  0  0  0  0  0  0
   -0.9151   -1.3483   -1.9203 H   0  0  0  0  0  0  0  0  0  0  0  0
   -1.0235   -1.3834    1.8390 H   0  0  0  0  0  0  0  0  0  0  0  0
    1.6597   -0.3229    1.4202 H   0  0  0  0  0  0  0  0  0  0  0  0
    0.3988    0.7074    2.1804 H   0  0  0  0  0  0  0  0  0  0  0  0
   -2.0830    0.5174   -0.0552 H   0  0  0  0  0  0  0  0  0  0  0  0
  1  9  1  0  0  0  0
  2  8  1  6  0  0  0
  2  1  1  0  0  0  0
  2  7  1  0  0  0  0
  3  4  1  0  0  0  0
  3  2  1  0  0  0  0
  4  8  1  1  0  0  0
  4  5  1  0  0  0  0
  5  6  1  0  0  0  0
  6  8  1  6  0  0  0
  6  7  1  0  0  0  0
  6 13  1  0  0  0  0
  7 14  1  0  0  0  0
  7 15  1  0  0  0  0
  8 16  1  6  0  0  0
 10  3  1  0  0  0  0
 11  3  1  0  0  0  0
 12  4  1  0  0  0  0
M  END
