title
 OpenBabel02282109583D

 20 22  0  0  1  0  0  0  0  0999 V2000
   -0.3474    2.1861   -0.3663 C   0  0  0  0  0  0  0  0  0  0  0  0
   -0.2417    0.6898   -0.4089 C   0  0  1  0  0  0  0  0  0  0  0  0
   -0.2561   -0.1729   -1.6740 C   0  0  0  0  0  0  0  0  0  0  0  0
   -0.5176   -1.3766   -0.7334 C   0  0  1  0  0  0  0  0  0  0  0  0
    0.7993   -1.5011    0.0743 C   0  0  0  0  0  0  0  0  0  0  0  0
    0.4290   -0.1546    0.7026 C   0  0  1  0  0  0  0  0  0  0  0  0
    1.0431    0.4354    1.9382 C   0  0  0  0  0  0  0  0  0  0  0  0
   -1.0354   -0.3529    0.3567 C   0  0  1  0  0  0  0  0  0  0  0  0
    0.5600    2.6626   -0.7575 H   0  0  0  0  0  0  0  0  0  0  0  0
   -1.1905    2.5346   -0.9743 H   0  0  0  0  0  0  0  0  0  0  0  0
   -0.5025    2.5594    0.6506 H   0  0  0  0  0  0  0  0  0  0  0  0
   -1.1293    0.0629   -2.2911 H   0  0  0  0  0  0  0  0  0  0  0  0
    0.6400   -0.2098   -2.3071 H   0  0  0  0  0  0  0  0  0  0  0  0
   -1.0435   -2.2607   -1.0876 H   0  0  0  0  0  0  0  0  0  0  0  0
    0.7489   -2.3010    0.8204 H   0  0  0  0  0  0  0  0  0  0  0  0
    1.7352   -1.5881   -0.4927 H   0  0  0  0  0  0  0  0  0  0  0  0
    2.0783    0.7511    1.7588 H   0  0  0  0  0  0  0  0  0  0  0  0
    0.4902    1.3093    2.2961 H   0  0  0  0  0  0  0  0  0  0  0  0
    1.0590   -0.2974    2.7533 H   0  0  0  0  0  0  0  0  0  0  0  0
   -1.9346   -0.2820    0.9532 H   0  0  0  0  0  0  0  0  0  0  0  0
  1 11  1  0  0  0  0
  2  1  1  0  0  0  0
  2  8  1  1  0  0  0
  3  4  1  0  0  0  0
  3  2  1  0  0  0  0
  4  5  1  0  0  0  0
  4  8  1  1  0  0  0
  5  6  1  0  0  0  0
  5 15  1  0  0  0  0
  6  2  1  6  0  0  0
  6  7  1  0  0  0  0
  7 18  1  0  0  0  0
  7 19  1  0  0  0  0
  8  6  1  1  0  0  0
  8 20  1  0  0  0  0
  9  1  1  0  0  0  0
 10  1  1  0  0  0  0
 12  3  1  0  0  0  0
 13  3  1  0  0  0  0
 14  4  1  0  0  0  0
 16  5  1  0  0  0  0
 17  7  1  0  0  0  0
M  END
