19
title
C -0.37380165 2.1632204 -0.37806624
C -0.17401594 0.6787243 -0.42963198
C -0.2775624 -0.18676722 -1.6785263
C -0.5319892 -1.3278168 -0.68202823
C 0.78639585 -1.51784 0.08314371
C 0.47953424 -0.13916832 0.6528529
C 1.0225941 0.41550294 1.9349376
N -1.0028622 -0.2891981 0.38695794
H 0.48483828 2.687366 -0.8140821
H -1.266514 2.4495323 -0.944289
H -0.5028969 2.5200257 0.6467906
H -1.1797209 0.06765771 -2.2429738
H 0.5761694 -0.2658018 -2.3611922
H -1.1774726 -2.1687925 -0.92761666
H 0.6964536 -2.2795744 0.86345446
H 1.707148 -1.6805762 -0.48859254
H 2.0770268 0.69438106 1.8231467
H 0.47120538 1.301375 2.2597642
H 0.95402867 -0.32996458 2.7343733
