18
title
C 0.019712087 2.1835947 -0.4271237
C 0.11588494 0.68847793 -0.47144243
C 0.97403103 -0.1691928 -1.4029565
C 0.118206926 -1.3693129 -0.91597855
C 0.51018727 -1.5237709 0.58363
C -0.17408311 -0.17380245 0.76594657
O -0.4879872 0.46472687 1.9489456
C -1.0082059 -0.343374 -0.49022967
H 0.9773696 2.6305275 -0.13458687
H -0.2545322 2.5937572 -1.4055508
H -0.7277419 2.5043907 0.30363792
H 0.7778411 0.075453326 -2.4517612
H 2.0572853 -0.21752138 -1.2339151
H -0.02985375 -2.2493262 -1.537227
H -0.057938624 -2.3261278 1.0670698
H 1.5748678 -1.6237994 0.82639915
H -1.1275828 -0.07710178 2.4237182
H -2.0663083 -0.25749403 -0.69249696
