18
title
C -0.032823525 2.225124 -0.5154735
C 0.08524547 0.7308912 -0.48817164
C 0.98878133 -0.14770995 -1.3612932
C 0.1559889 -1.3295041 -0.8116614
O 0.5214855 -1.3743299 0.5956732
C -0.22086698 -0.15643387 0.744823
C -0.55013084 0.30629945 2.122974
C -1.0209541 -0.33432278 -0.5068772
H 0.8941459 2.7023966 -0.17618357
H -0.2416912 2.5886106 -1.5283571
H -0.84214514 2.579937 0.13144116
H 0.79922104 0.02868809 -2.4243674
H 2.0654078 -0.17636715 -1.1612159
H 0.11389752 -2.3088057 -1.2835754
H 0.36473036 0.51819205 2.6871555
H -1.1506375 1.2195323 2.0932581
H -1.1153091 -0.45897326 2.6640174
H -2.0776868 -0.30279264 -0.73733205
