19
title
C -0.31736118 2.2156017 -0.32610625
C -0.21718305 0.72073025 -0.3932955
C -0.25331938 -0.16440874 -1.6303889
N -0.5607344 -1.3567508 -0.7488813
C 0.736913 -1.4853336 0.021062776
C 0.44292217 -0.1592657 0.7069039
C 1.056068 0.38494006 1.9627159
C -1.0048695 -0.34164834 0.32963577
H 0.59679985 2.6938531 -0.69763947
H -1.1523689 2.5781078 -0.9366056
H -0.48184004 2.5704625 0.6960084
H -1.1174457 0.050437514 -2.267127
H 0.64224046 -0.27591527 -2.2545109
H 0.668519 -2.331939 0.7116441
H 1.6311815 -1.595394 -0.6051461
H 2.093625 0.69859916 1.7967381
H 0.5078835 1.2515634 2.3450103
H 1.0619241 -0.3735206 2.753953
H -1.9393176 -0.3617487 0.87421674
