title
 OpenBabel02282109583D

 17 19  0  0  1  0  0  0  0  0999 V2000
    0.0150    2.2118   -0.3793 C   0  0  0  0  0  0  0  0  0  0  0  0
    0.1192    0.7187   -0.4475 C   0  0  1  0  0  0  0  0  0  0  0  0
    0.9481   -0.1604   -1.3664 C   0  0  0  0  0  0  0  0  0  0  0  0
    0.0981   -1.3495   -0.9508 N   0  0  1  0  0  0  0  0  0  0  0  0
    0.5037   -1.5111    0.5043 C   0  0  0  0  0  0  0  0  0  0  0  0
   -0.1681   -0.1780    0.7772 C   0  0  1  0  0  0  0  0  0  0  0  0
   -0.4952    0.4234    1.9736 O   0  0  0  0  0  0  0  0  0  0  0  0
   -0.9698   -0.3327   -0.4910 C   0  0  1  0  0  0  0  0  0  0  0  0
    0.9677    2.6566   -0.0695 H   0  0  0  0  0  0  0  0  0  0  0  0
   -0.2535    2.6373   -1.3524 H   0  0  0  0  0  0  0  0  0  0  0  0
   -0.7404    2.5154    0.3509 H   0  0  0  0  0  0  0  0  0  0  0  0
    0.7796    0.0533   -2.4263 H   0  0  0  0  0  0  0  0  0  0  0  0
    2.0228   -0.2814   -1.1829 H   0  0  0  0  0  0  0  0  0  0  0  0
   -0.0377   -2.3583    0.9381 H   0  0  0  0  0  0  0  0  0  0  0  0
    1.5797   -1.6341    0.6729 H   0  0  0  0  0  0  0  0  0  0  0  0
   -1.1442   -0.1274    2.4252 H   0  0  0  0  0  0  0  0  0  0  0  0
   -2.0181   -0.3440   -0.7551 H   0  0  0  0  0  0  0  0  0  0  0  0
  1  9  1  0  0  0  0
  1 11  1  0  0  0  0
  2  8  1  6  0  0  0
  2  1  1  0  0  0  0
  2  6  1  0  0  0  0
  3 13  1  0  0  0  0
  3  4  1  0  0  0  0
  3  2  1  0  0  0  0
  4  8  1  1  0  0  0
  4  5  1  0  0  0  0
  5 15  1  0  0  0  0
  5  6  1  0  0  0  0
  5 14  1  0  0  0  0
  6  8  1  6  0  0  0
  6  7  1  0  0  0  0
  7 16  1  0  0  0  0
  8 17  1  6  0  0  0
 10  1  1  0  0  0  0
 12  3  1  0  0  0  0
M  END
