16
title
C 0.0978484 2.1560016 -0.47958753
C 0.07575754 0.667698 -0.44955346
O 0.96790284 -0.08483396 -1.2801763
C 0.1728468 -1.2547483 -0.92692924
C 0.52671033 -1.515976 0.56083137
C -0.21782899 -0.20005791 0.8013125
O -0.68766 0.3230798 1.9866807
C -1.0284418 -0.34760478 -0.47797272
H 1.0971423 2.5313716 -0.231102
H -0.17341517 2.5411334 -1.4671843
H -0.6105573 2.5495048 0.25526553
H 0.1770103 -2.0353558 -1.6835804
H -0.030665556 -2.3629227 0.96927947
H 1.5919049 -1.591943 0.8029409
H 0.032865398 0.7953936 2.419437
H -2.0864763 -0.31409076 -0.69787794
