title
 OpenBabel02282109583D

 16 18  0  0  1  0  0  0  0  0999 V2000
    0.0978    2.1560   -0.4796 C   0  0  0  0  0  0  0  0  0  0  0  0
    0.0758    0.6677   -0.4496 C   0  0  1  0  0  0  0  0  0  0  0  0
    0.9679   -0.0848   -1.2802 O   0  0  0  0  0  0  0  0  0  0  0  0
    0.1728   -1.2547   -0.9269 C   0  0  1  0  0  0  0  0  0  0  0  0
    0.5267   -1.5160    0.5608 C   0  0  0  0  0  0  0  0  0  0  0  0
   -0.2178   -0.2001    0.8013 C   0  0  1  0  0  0  0  0  0  0  0  0
   -0.6877    0.3231    1.9867 O   0  0  0  0  0  0  0  0  0  0  0  0
   -1.0284   -0.3476   -0.4780 C   0  0  1  0  0  0  0  0  0  0  0  0
    1.0971    2.5314   -0.2311 H   0  0  0  0  0  0  0  0  0  0  0  0
   -0.1734    2.5411   -1.4672 H   0  0  0  0  0  0  0  0  0  0  0  0
   -0.6106    2.5495    0.2553 H   0  0  0  0  0  0  0  0  0  0  0  0
    0.1770   -2.0354   -1.6836 H   0  0  0  0  0  0  0  0  0  0  0  0
   -0.0307   -2.3629    0.9693 H   0  0  0  0  0  0  0  0  0  0  0  0
    1.5919   -1.5919    0.8029 H   0  0  0  0  0  0  0  0  0  0  0  0
    0.0329    0.7954    2.4194 H   0  0  0  0  0  0  0  0  0  0  0  0
   -2.0865   -0.3141   -0.6979 H   0  0  0  0  0  0  0  0  0  0  0  0
  1  2  1  0  0  0  0
  1  9  1  0  0  0  0
  1 11  1  0  0  0  0
  2  8  1  6  0  0  0
  2  6  1  0  0  0  0
  3  4  1  0  0  0  0
  3  2  1  0  0  0  0
  4  8  1  1  0  0  0
  4  5  1  0  0  0  0
  5  6  1  0  0  0  0
  5 14  1  0  0  0  0
  5 13  1  0  0  0  0
  6  8  1  6  0  0  0
  6  7  1  0  0  0  0
  7 15  1  0  0  0  0
  8 16  1  6  0  0  0
 10  1  1  0  0  0  0
 12  4  1  0  0  0  0
M  END
