title
 OpenBabel02282109583D

 16 18  0  0  1  0  0  0  0  0999 V2000
   -0.0027    2.0302   -0.3488 O   0  0  0  0  0  0  0  0  0  0  0  0
    0.1300    0.6536   -0.4643 C   0  0  1  0  0  0  0  0  0  0  0  0
    0.9904   -0.1685   -1.4110 C   0  0  0  0  0  0  0  0  0  0  0  0
    0.1049   -1.3599   -0.9317 C   0  0  1  0  0  0  0  0  0  0  0  0
    0.4641   -1.5577    0.5759 C   0  0  0  0  0  0  0  0  0  0  0  0
   -0.1976   -0.2103    0.7702 C   0  0  1  0  0  0  0  0  0  0  0  0
   -0.5026    0.3834    1.9738 O   0  0  0  0  0  0  0  0  0  0  0  0
   -1.0188   -0.3277   -0.5049 C   0  0  1  0  0  0  0  0  0  0  0  0
    0.8320    2.3827   -0.0158 H   0  0  0  0  0  0  0  0  0  0  0  0
    0.7947    0.0867   -2.4568 H   0  0  0  0  0  0  0  0  0  0  0  0
    2.0711   -0.2375   -1.2353 H   0  0  0  0  0  0  0  0  0  0  0  0
   -0.0579   -2.2187   -1.5764 H   0  0  0  0  0  0  0  0  0  0  0  0
   -0.1190   -2.3662    1.0263 H   0  0  0  0  0  0  0  0  0  0  0  0
    1.5234   -1.6715    0.8359 H   0  0  0  0  0  0  0  0  0  0  0  0
   -0.5936    1.3309    1.8008 H   0  0  0  0  0  0  0  0  0  0  0  0
   -2.0656   -0.2205   -0.7477 H   0  0  0  0  0  0  0  0  0  0  0  0
  1  9  1  0  0  0  0
  2  8  1  6  0  0  0
  2  1  1  0  0  0  0
  2  6  1  0  0  0  0
  3 11  1  0  0  0  0
  3  4  1  0  0  0  0
  3  2  1  0  0  0  0
  4  8  1  1  0  0  0
  4  5  1  0  0  0  0
  5  6  1  0  0  0  0
  5 14  1  0  0  0  0
  5 13  1  0  0  0  0
  6  8  1  6  0  0  0
  6  7  1  0  0  0  0
  8 16  1  6  0  0  0
 10  3  1  0  0  0  0
 12  4  1  0  0  0  0
 15  7  1  0  0  0  0
M  END
