15
title
O 0.00013030342 2.0558484 -0.29898697
C 0.1394221 0.6842381 -0.43651256
C 0.9678419 -0.1622338 -1.3778584
N 0.08251331 -1.3310957 -0.97131073
C 0.45593986 -1.5434804 0.49365357
C -0.19679055 -0.21703556 0.7786515
O -0.51533 0.33147514 1.9976157
C -0.98370755 -0.3124211 -0.5083585
H 0.821786 2.4067683 0.06713165
H 0.8007811 0.070066966 -2.4333436
H 2.0374827 -0.31235376 -1.1897962
H -0.09734662 -2.4010801 0.88519514
H 1.5282947 -1.6742637 0.6795268
H -0.60272634 1.2860358 1.8652524
H -2.0177972 -0.28973618 -0.82095414
