title
 OpenBabel02282109583D

 17 18  0  0  1  0  0  0  0  0999 V2000
   -0.0797    2.2869   -0.9765 N   0  0  0  0  0  0  0  0  0  0  0  0
   -0.0465    1.1240   -0.4805 C   0  0  0  0  0  0  0  0  0  0  0  0
   -1.3247    0.3277   -0.2418 C   0  0  0  0  0  0  0  0  0  0  0  0
   -1.0277   -1.0455    0.3639 C   0  0  2  0  0  0  0  0  0  0  0  0
   -0.0150   -0.8590    1.5323 C   0  0  0  0  0  0  0  0  0  0  0  0
    1.0588   -0.7998    0.4214 C   0  0  1  0  0  0  0  0  0  0  0  0
    0.1378   -1.6954   -0.4390 C   0  0  0  0  0  0  0  0  0  0  0  0
    1.1341    0.5230   -0.1340 O   0  0  0  0  0  0  0  0  0  0  0  0
    0.8681    2.6601   -1.0613 H   0  0  0  0  0  0  0  0  0  0  0  0
   -1.9741    0.9182    0.4130 H   0  0  0  0  0  0  0  0  0  0  0  0
   -1.8491    0.2344   -1.1986 H   0  0  0  0  0  0  0  0  0  0  0  0
   -1.9369   -1.6235    0.5387 H   0  0  0  0  0  0  0  0  0  0  0  0
   -0.1153    0.0161    2.1797 H   0  0  0  0  0  0  0  0  0  0  0  0
    0.0887   -1.7618    2.1388 H   0  0  0  0  0  0  0  0  0  0  0  0
    2.0894   -1.0903    0.6246 H   0  0  0  0  0  0  0  0  0  0  0  0
    0.2697   -2.7523   -0.1956 H   0  0  0  0  0  0  0  0  0  0  0  0
    0.1717   -1.5548   -1.5225 H   0  0  0  0  0  0  0  0  0  0  0  0
  1  2  2  0  0  0  0
  2  3  1  0  0  0  0
  2  8  1  0  0  0  0
  3  4  1  0  0  0  0
  3 10  1  0  0  0  0
  4 12  1  1  0  0  0
  4  5  1  0  0  0  0
  5 14  1  0  0  0  0
  5 13  1  0  0  0  0
  6 15  1  1  0  0  0
  6  5  1  0  0  0  0
  7 16  1  0  0  0  0
  7  4  1  0  0  0  0
  7  6  1  0  0  0  0
  8  6  1  0  0  0  0
  9  1  1  0  0  0  0
 11  3  1  0  0  0  0
 17  7  1  0  0  0  0
M  END
