16
title
N -0.024424834 2.287676 -0.94913447
C 0.004389711 1.1220098 -0.464174
C -1.2820668 0.3188144 -0.23709574
N -1.0598243 -1.0170177 0.3342119
C -0.07841228 -0.8502497 1.4732298
C 1.0480816 -0.82409626 0.42709744
C 0.078478575 -1.6428274 -0.44101214
O 1.175129 0.50189173 -0.111506775
H 0.92153555 2.6670702 -1.0286806
H -1.9371158 0.8920695 0.42582226
H -1.8043399 0.22154935 -1.1936222
H -0.21761556 0.038677882 2.0940514
H -0.072301514 -1.7476419 2.0972767
H 2.0616047 -1.1623496 0.650217
H 0.11964656 -2.7173345 -0.24473496
H 0.07844982 -1.4569672 -1.5182518
