title
 OpenBabel02282109583D

 16 17  0  0  1  0  0  0  0  0999 V2000
   -0.0244    2.2877   -0.9491 N   0  0  0  0  0  0  0  0  0  0  0  0
    0.0044    1.1220   -0.4642 C   0  0  0  0  0  0  0  0  0  0  0  0
   -1.2821    0.3188   -0.2371 C   0  0  0  0  0  0  0  0  0  0  0  0
   -1.0598   -1.0170    0.3342 N   0  0  2  0  0  0  0  0  0  0  0  0
   -0.0784   -0.8502    1.4732 C   0  0  0  0  0  0  0  0  0  0  0  0
    1.0481   -0.8241    0.4271 C   0  0  1  0  0  0  0  0  0  0  0  0
    0.0785   -1.6428   -0.4410 C   0  0  0  0  0  0  0  0  0  0  0  0
    1.1751    0.5019   -0.1115 O   0  0  0  0  0  0  0  0  0  0  0  0
    0.9215    2.6671   -1.0287 H   0  0  0  0  0  0  0  0  0  0  0  0
   -1.9371    0.8921    0.4258 H   0  0  0  0  0  0  0  0  0  0  0  0
   -1.8043    0.2215   -1.1936 H   0  0  0  0  0  0  0  0  0  0  0  0
   -0.2176    0.0387    2.0941 H   0  0  0  0  0  0  0  0  0  0  0  0
   -0.0723   -1.7476    2.0973 H   0  0  0  0  0  0  0  0  0  0  0  0
    2.0616   -1.1623    0.6502 H   0  0  0  0  0  0  0  0  0  0  0  0
    0.1196   -2.7173   -0.2447 H   0  0  0  0  0  0  0  0  0  0  0  0
    0.0784   -1.4570   -1.5183 H   0  0  0  0  0  0  0  0  0  0  0  0
  1  2  2  0  0  0  0
  2  3  1  0  0  0  0
  2  8  1  0  0  0  0
  3  4  1  0  0  0  0
  3 10  1  0  0  0  0
  4  7  1  6  0  0  0
  4  5  1  0  0  0  0
  5 12  1  0  0  0  0
  5 13  1  0  0  0  0
  6 14  1  1  0  0  0
  6  5  1  0  0  0  0
  7 15  1  0  0  0  0
  7  6  1  0  0  0  0
  8  6  1  0  0  0  0
  9  1  1  0  0  0  0
 11  3  1  0  0  0  0
 16  7  1  0  0  0  0
M  END
