title
 OpenBabel02282109583D

 18 19  0  0  1  0  0  0  0  0999 V2000
    0.0462   -2.1937    1.1473 O   0  0  0  0  0  0  0  0  0  0  0  0
    0.0237   -1.1243    0.5877 C   0  0  0  0  0  0  0  0  0  0  0  0
   -1.2981   -0.4283    0.2326 C   0  0  0  0  0  0  0  0  0  0  0  0
   -1.0849    0.9144   -0.4709 C   0  0  2  0  0  0  0  0  0  0  0  0
   -0.0328    0.7559   -1.6054 C   0  0  0  0  0  0  0  0  0  0  0  0
    1.0457    0.9438   -0.5007 C   0  0  1  0  0  0  0  0  0  0  0  0
   -0.0200    1.7498    0.2955 C   0  0  0  0  0  0  0  0  0  0  0  0
    1.3154   -0.3923    0.1960 C   0  0  0  0  0  0  0  0  0  0  0  0
   -1.8762   -1.1222   -0.3905 H   0  0  0  0  0  0  0  0  0  0  0  0
   -1.8659   -0.3095    1.1639 H   0  0  0  0  0  0  0  0  0  0  0  0
   -2.0361    1.3933   -0.7148 H   0  0  0  0  0  0  0  0  0  0  0  0
   -0.0280   -0.1779   -2.1778 H   0  0  0  0  0  0  0  0  0  0  0  0
   -0.0542    1.6006   -2.2987 H   0  0  0  0  0  0  0  0  0  0  0  0
    1.9762    1.4486   -0.7709 H   0  0  0  0  0  0  0  0  0  0  0  0
   -0.0386    2.8012   -0.0023 H   0  0  0  0  0  0  0  0  0  0  0  0
   -0.0038    1.6868    1.3888 H   0  0  0  0  0  0  0  0  0  0  0  0
    1.9055   -0.2576    1.1112 H   0  0  0  0  0  0  0  0  0  0  0  0
    1.8947   -1.0702   -0.4432 H   0  0  0  0  0  0  0  0  0  0  0  0
  2  1  2  0  0  0  0
  3  2  1  0  0  0  0
  3 10  1  0  0  0  0
  4 11  1  6  0  0  0
  4  3  1  0  0  0  0
  4  7  1  0  0  0  0
  5  6  1  0  0  0  0
  5  4  1  0  0  0  0
  6 14  1  6  0  0  0
  6  8  1  0  0  0  0
  6  7  1  0  0  0  0
  7 16  1  0  0  0  0
  8  2  1  0  0  0  0
  8 17  1  0  0  0  0
  9  3  1  0  0  0  0
 12  5  1  0  0  0  0
 13  5  1  0  0  0  0
 15  7  1  0  0  0  0
 18  8  1  0  0  0  0
M  END
