17
title
O 0.025498213 -2.4678514 0.08535715
C 0.0052201017 -1.2535418 0.04352949
C -1.2963172 -0.43423668 0.015025887
C -1.0506222 1.0808716 -0.037469048
C 0.025822164 1.3930006 -1.119871
C 1.0562528 0.975661 -0.033763777
C 0.025764933 1.4671929 1.0207863
N 1.133603 -0.48039368 0.016725462
H -1.873921 -0.7752494 -0.85130864
H -1.8740408 -0.71445185 0.9028116
H -1.9869336 1.6428137 -0.056975104
H 0.017346445 0.81627744 -2.0483098
H 0.08070101 2.4614258 -1.3421828
H 2.0634885 1.3927577 -0.04819765
H 0.08063818 2.5484457 1.1685961
H 0.01723751 0.9561314 1.9869243
H 2.020924 -0.95796865 0.03315882
