title
 OpenBabel02282109583D

 16 17  0  0  1  0  0  0  0  0999 V2000
    0.0617   -2.1972    1.0084 O   0  0  0  0  0  0  0  0  0  0  0  0
    0.0054   -1.1082    0.5105 C   0  0  0  0  0  0  0  0  0  0  0  0
   -1.3041   -0.3533    0.2590 C   0  0  0  0  0  0  0  0  0  0  0  0
   -1.0681    1.0125   -0.3880 C   0  0  2  0  0  0  0  0  0  0  0  0
   -0.0598    0.8254   -1.5601 C   0  0  0  0  0  0  0  0  0  0  0  0
    1.0252    0.8332   -0.4597 C   0  0  1  0  0  0  0  0  0  0  0  0
    0.0836    1.7217    0.3842 C   0  0  0  0  0  0  0  0  0  0  0  0
    1.1492   -0.4742    0.1338 O   0  0  0  0  0  0  0  0  0  0  0  0
   -1.9315   -0.9983   -0.3659 H   0  0  0  0  0  0  0  0  0  0  0  0
   -1.8142   -0.2651    1.2246 H   0  0  0  0  0  0  0  0  0  0  0  0
   -1.9983    1.5540   -0.5690 H   0  0  0  0  0  0  0  0  0  0  0  0
   -0.1367   -0.0698   -2.1827 H   0  0  0  0  0  0  0  0  0  0  0  0
    0.0092    1.7137   -2.1920 H   0  0  0  0  0  0  0  0  0  0  0  0
    2.0438    1.1498   -0.6808 H   0  0  0  0  0  0  0  0  0  0  0  0
    0.1789    2.7745    0.1091 H   0  0  0  0  0  0  0  0  0  0  0  0
    0.1328    1.6144    1.4709 H   0  0  0  0  0  0  0  0  0  0  0  0
  2  1  2  0  0  0  0
  3  2  1  0  0  0  0
  3 10  1  0  0  0  0
  4 11  1  6  0  0  0
  4  3  1  0  0  0  0
  4  7  1  0  0  0  0
  5  6  1  0  0  0  0
  5  4  1  0  0  0  0
  6 14  1  6  0  0  0
  6  8  1  0  0  0  0
  6  7  1  0  0  0  0
  7 16  1  0  0  0  0
  8  2  1  0  0  0  0
  9  3  1  0  0  0  0
 12  5  1  0  0  0  0
 13  5  1  0  0  0  0
 15  7  1  0  0  0  0
M  END
