title
 OpenBabel02282109583D

 16 17  0  0  1  0  0  0  0  0999 V2000
    0.0788   -2.4562    0.0775 O   0  0  0  0  0  0  0  0  0  0  0  0
    0.0562   -1.2427    0.0394 C   0  0  0  0  0  0  0  0  0  0  0  0
   -1.2537   -0.4208    0.0131 C   0  0  0  0  0  0  0  0  0  0  0  0
   -1.0819    1.0439   -0.0333 N   0  0  2  0  0  0  0  0  0  0  0  0
   -0.0353    1.3538   -1.0794 C   0  0  0  0  0  0  0  0  0  0  0  0
    1.0447    0.9987   -0.0313 C   0  0  1  0  0  0  0  0  0  0  0  0
   -0.0359    1.4195    0.9916 C   0  0  0  0  0  0  0  0  0  0  0  0
    1.1745   -0.4536    0.0148 N   0  0  0  0  0  0  0  0  0  0  0  0
   -1.8345   -0.7462   -0.8560 H   0  0  0  0  0  0  0  0  0  0  0  0
   -1.8348   -0.6905    0.9008 H   0  0  0  0  0  0  0  0  0  0  0  0
   -0.0801    0.7477   -1.9878 H   0  0  0  0  0  0  0  0  0  0  0  0
   -0.0702    2.4170   -1.3317 H   0  0  0  0  0  0  0  0  0  0  0  0
    2.0306    1.4686   -0.0459 H   0  0  0  0  0  0  0  0  0  0  0  0
   -0.0709    2.4965    1.1761 H   0  0  0  0  0  0  0  0  0  0  0  0
   -0.0811    0.8721    1.9366 H   0  0  0  0  0  0  0  0  0  0  0  0
    2.0740   -0.9081    0.0289 H   0  0  0  0  0  0  0  0  0  0  0  0
  2  1  2  0  0  0  0
  3  2  1  0  0  0  0
  3 10  1  0  0  0  0
  4  5  1  6  0  0  0
  4  3  1  0  0  0  0
  4  7  1  0  0  0  0
  5  6  1  0  0  0  0
  6 13  1  6  0  0  0
  6  8  1  0  0  0  0
  6  7  1  0  0  0  0
  7 14  1  0  0  0  0
  7 15  1  0  0  0  0
  8 16  1  0  0  0  0
  8  2  1  0  0  0  0
  9  3  1  0  0  0  0
 11  5  1  0  0  0  0
 12  5  1  0  0  0  0
M  END
