16
title
O 0.07882425 -2.45615 0.07751371
C 0.056168582 -1.242723 0.039366227
C -1.2537012 -0.42081076 0.013082978
N -1.0819235 1.0439491 -0.033316553
C -0.035337973 1.3538482 -1.0794007
C 1.0446779 0.99868685 -0.031308204
C -0.035891745 1.419507 0.99159
N 1.1744717 -0.4536441 0.014839198
H -1.8344504 -0.7462459 -0.85602856
H -1.8348044 -0.69054157 0.9008322
H -0.08008381 0.7476941 -1.9878495
H -0.07023024 2.4169838 -1.3317444
H 2.0305812 1.4686482 -0.045931228
H -0.07089276 2.4964912 1.1760645
H -0.08112643 0.8721102 1.9365835
H 2.0739896 -0.9081494 0.028947555
