16
title
O 0.030875392 -2.414603 -0.2851294
C 0.015508878 -1.2201164 -0.060137745
N -1.1443927 -0.4745705 0.09769093
C -1.0601109 0.9841982 0.05675782
C -0.016937375 1.4262947 -1.0171967
C 1.0347346 1.0107166 0.059052136
C -0.019299395 1.4276806 1.1230593
N 1.1558154 -0.4454515 0.10018576
H -1.9743618 -0.9330752 -0.24196172
H -2.062415 1.412686 0.060165282
H -0.009207643 0.89850605 -1.9734608
H -0.030444514 2.5070188 -1.1732669
H 2.0258636 1.4644336 0.06464202
H -0.03314293 2.508034 1.2775481
H -0.013600762 0.8950263 2.0750136
H 1.9978884 -0.88281024 -0.23755682
