title
 OpenBabel02282109583D

 14 15  0  0  1  0  0  0  0  0999 V2000
    0.0428   -2.1953    0.8825 O   0  0  0  0  0  0  0  0  0  0  0  0
    0.0213   -1.0900    0.4382 C   0  0  0  0  0  0  0  0  0  0  0  0
   -1.1432   -0.4373    0.1858 O   0  0  0  0  0  0  0  0  0  0  0  0
   -1.0523    0.8962   -0.3513 C   0  0  2  0  0  0  0  0  0  0  0  0
   -0.0339    0.8922   -1.5161 C   0  0  0  0  0  0  0  0  0  0  0  0
    1.0168    0.9247   -0.3807 C   0  0  1  0  0  0  0  0  0  0  0  0
   -0.0166    1.6936    0.4765 C   0  0  0  0  0  0  0  0  0  0  0  0
    1.1596   -0.4056    0.1531 O   0  0  0  0  0  0  0  0  0  0  0  0
   -2.0766    1.2408   -0.4810 H   0  0  0  0  0  0  0  0  0  0  0  0
   -0.0316    0.0346   -2.1910 H   0  0  0  0  0  0  0  0  0  0  0  0
   -0.0547    1.8276   -2.0780 H   0  0  0  0  0  0  0  0  0  0  0  0
    2.0271    1.2974   -0.5394 H   0  0  0  0  0  0  0  0  0  0  0  0
   -0.0347    2.7577    0.2346 H   0  0  0  0  0  0  0  0  0  0  0  0
    0.0009    1.5421    1.5571 H   0  0  0  0  0  0  0  0  0  0  0  0
  2  1  2  0  0  0  0
  3  2  1  0  0  0  0
  4  9  1  6  0  0  0
  4  3  1  0  0  0  0
  4  7  1  0  0  0  0
  5  6  1  0  0  0  0
  5  4  1  0  0  0  0
  6 12  1  6  0  0  0
  6  8  1  0  0  0  0
  6  7  1  0  0  0  0
  7 14  1  0  0  0  0
  8  2  1  0  0  0  0
 10  5  1  0  0  0  0
 11  5  1  0  0  0  0
 13  7  1  0  0  0  0
M  END
