title
 OpenBabel02282109583D

 18 19  0  0  1  0  0  0  0  0999 V2000
   -0.1227    2.7138    0.0313 C   0  0  0  0  0  0  0  0  0  0  0  0
   -0.0521    1.2184   -0.0447 C   0  0  0  0  0  0  0  0  0  0  0  0
   -0.0690    0.5112   -1.1785 C   0  0  0  0  0  0  0  0  0  0  0  0
   -0.0172   -0.9957   -1.0440 C   0  0  1  0  0  0  0  0  0  0  0  0
    1.1575   -1.3929   -0.1172 C   0  0  0  0  0  0  0  0  0  0  0  0
    0.1033   -1.0666    0.9637 C   0  0  1  0  0  0  0  0  0  0  0  0
    0.0259    0.4385    1.2606 C   0  0  0  0  0  0  0  0  0  0  0  0
   -0.9474   -1.4006    0.0126 O   0  0  0  0  0  0  0  0  0  0  0  0
    0.7530    3.1278    0.5482 H   0  0  0  0  0  0  0  0  0  0  0  0
   -0.1775    3.1659   -0.9628 H   0  0  0  0  0  0  0  0  0  0  0  0
   -1.0017    3.0392    0.6031 H   0  0  0  0  0  0  0  0  0  0  0  0
   -0.1159    0.9775   -2.1577 H   0  0  0  0  0  0  0  0  0  0  0  0
   -0.1874   -1.5395   -1.9750 H   0  0  0  0  0  0  0  0  0  0  0  0
    1.3713   -2.4626   -0.1530 H   0  0  0  0  0  0  0  0  0  0  0  0
    2.0761   -0.8051   -0.1647 H   0  0  0  0  0  0  0  0  0  0  0  0
    0.0573   -1.6817    1.8666 H   0  0  0  0  0  0  0  0  0  0  0  0
    0.8969    0.7591    1.8498 H   0  0  0  0  0  0  0  0  0  0  0  0
   -0.8578    0.6501    1.8781 H   0  0  0  0  0  0  0  0  0  0  0  0
  1  9  1  0  0  0  0
  1 11  1  0  0  0  0
  2  1  1  0  0  0  0
  2  7  1  0  0  0  0
  3  4  1  0  0  0  0
  3  2  2  0  0  0  0
  4 13  1  6  0  0  0
  4  5  1  0  0  0  0
  4  8  1  0  0  0  0
  5  6  1  0  0  0  0
  6  7  1  0  0  0  0
  6 16  1  1  0  0  0
  7 17  1  0  0  0  0
  7 18  1  0  0  0  0
  8  6  1  0  0  0  0
 10  1  1  0  0  0  0
 12  3  1  0  0  0  0
 14  5  1  0  0  0  0
 15  5  1  0  0  0  0
M  END
