20
title
C 0.014619626 2.7052221 0.0337423
C 0.0055674743 1.2063607 -0.038121503
C -0.01750492 0.5045686 -1.1754054
C -0.024110073 -1.0076021 -1.1053694
C -1.0764294 -1.4438998 -0.0389867
C 0.011733907 -1.086584 1.0153024
C 1.0594823 -1.454923 -0.0754993
C 0.023890838 0.43074957 1.268489
H 0.9046704 3.0744092 0.56052315
H -0.0006275203 3.1563096 -0.9624404
H -0.85236746 3.0835466 0.59157795
H -0.031543538 0.9967592 -2.1441607
H -0.043358013 -1.4800321 -2.0886996
H -2.0242121 -0.8995787 -0.0133627765
H -1.2660226 -2.5206711 -0.066458315
H 0.024900826 -1.645748 1.954345
H 1.2369043 -2.5335886 -0.10924516
H 2.0131545 -0.9204172 -0.082379416
H 0.91157186 0.7104715 1.8554026
H -0.8403014 0.7195169 1.8853147
