17
title
C -0.003887771 2.576082 0.037823204
C -0.0035815898 1.085515 -0.08733012
N -0.02300306 0.46934253 -1.2003832
C -0.017954165 -0.9909451 -1.0692647
C -1.0666795 -1.4057667 0.007321656
C 0.020573732 -0.9725342 1.0204408
C 1.0712595 -1.4019244 -0.032128807
O 0.01999689 0.4645679 1.129434
H 0.88677967 2.9132903 0.5778378
H -0.023189293 3.024178 -0.95489687
H -0.8749806 2.910164 0.61070544
H -0.035260264 -1.459441 -2.0527894
H -2.0199552 -0.87377906 0.020316962
H -1.2271107 -2.4853485 0.03984957
H 0.040078208 -1.3558557 2.0400543
H 1.2366606 -2.4809206 -0.0056104953
H 2.0224478 -0.86651397 -0.05427671
