19
title
C -0.54106873 2.50024 0.09050814
C -0.72539544 0.9935024 0.008712589
C -0.11158234 0.3722 -1.2801181
N 0.37925267 -1.0068814 -1.0858866
C -0.50767285 -1.6665875 -0.052589145
C 0.2934562 -0.9145372 1.0351627
C 1.4330945 -0.94292426 -0.002013637
O -0.16291046 0.41943455 1.1992964
H 0.5233202 2.7554379 0.09355092
H -1.0148218 2.9908533 -0.7662189
H -0.9914101 2.8938022 1.0060889
H -1.8037183 0.7744841 0.01254637
H -0.8710695 0.37453258 -2.0709443
H 0.7312305 0.97476786 -1.6381052
H -1.5803925 -1.4855124 -0.15109144
H -0.32084292 -2.743788 -0.042143602
H 0.42506635 -1.3334996 2.0366168
H 2.019683 -1.8668715 0.0011071916
H 2.0952454 -0.07391882 -0.04020862
