16
title
O -0.54400325 -2.2734566 -0.89197487
C -0.47547078 -1.10531 -0.67564887
C -1.5645213 0.017193453 -0.38321692
C -0.37634552 0.79053485 0.21617773
C 0.65902406 1.9615227 0.27518734
C 1.4631495 0.628369 0.5962384
C 0.28878877 0.23321737 1.5176791
C 0.658536 -0.018552644 -0.58536947
H -1.9312718 0.42551747 -1.3312232
H -2.4118035 -0.25298497 0.2515653
H 0.89172167 2.4562242 -0.67105377
H 0.5720114 2.6790936 1.0961072
H 2.5320692 0.56061757 0.8092356
H 0.14266106 0.82480204 2.4250197
H 0.16574988 -0.835161 1.7167886
H 0.8904442 0.35395423 -1.5905199
