14
title
O -0.4520547 -2.30509 -0.82371634
C -0.41468975 -1.1366235 -0.6107039
C -1.5387518 -0.044799786 -0.34805483
C -0.36195314 0.8238528 0.09025097
C 0.6393009 1.995981 0.25742018
C 1.3415798 0.6232903 0.60555804
O 0.14766414 0.2550061 1.3765614
C 0.6980187 -0.025251847 -0.6441086
H -1.9794502 0.26261523 -1.3021508
H -2.3186293 -0.26847228 0.38152146
H 0.9518842 2.523651 -0.64644563
H 0.48112062 2.6569955 1.1102227
H 2.3186047 0.46610573 1.0665344
H 1.0463595 0.24928214 -1.6435759
