15
title
O -0.5181766 -2.2827446 -0.892445
C -0.4825298 -1.1162038 -0.675141
C -1.6034635 -0.013373068 -0.37521297
C -0.4236686 0.7843273 0.21701923
C 0.65240645 1.9206818 0.29707667
N 1.4988732 0.64432055 0.5808196
C 0.3091459 0.22888024 1.4621322
C 0.6122041 0.02878506 -0.57698506
H -1.9833868 0.38459235 -1.3217603
H -2.4400527 -0.3140592 0.25975952
H 0.9221964 2.4318416 -0.62974745
H 0.6326698 2.603233 1.1508782
H 0.23302463 0.79572254 2.3937318
H 0.2708299 -0.848113 1.6526299
H 0.91307974 0.38259655 -1.5688034
