title
 OpenBabel02282109583D

 15 17  0  0  1  0  0  0  0  0999 V2000
   -0.5901   -2.3106   -0.8155 O   0  0  0  0  0  0  0  0  0  0  0  0
   -0.4440   -1.1461   -0.6037 C   0  0  0  0  0  0  0  0  0  0  0  0
   -1.4021   -0.0958   -0.4321 N   0  0  0  0  0  0  0  0  0  0  0  0
   -0.3614    0.7485    0.1570 C   0  0  1  0  0  0  0  0  0  0  0  0
    0.5908    1.9872    0.0901 C   0  0  0  0  0  0  0  0  0  0  0  0
    1.4370    0.7378    0.6255 C   0  0  1  0  0  0  0  0  0  0  0  0
    0.2522    0.4107    1.5513 C   0  0  0  0  0  0  0  0  0  0  0  0
    0.7238   -0.0825   -0.5197 C   0  0  1  0  0  0  0  0  0  0  0  0
   -2.3239   -0.2611   -0.0409 H   0  0  0  0  0  0  0  0  0  0  0  0
    0.8495    2.3623   -0.9014 H   0  0  0  0  0  0  0  0  0  0  0  0
    0.4286    2.7966    0.8072 H   0  0  0  0  0  0  0  0  0  0  0  0
    2.4966    0.7539    0.8821 H   0  0  0  0  0  0  0  0  0  0  0  0
    0.0497    1.1112    2.3642 H   0  0  0  0  0  0  0  0  0  0  0  0
    0.1621   -0.6293    1.8749 H   0  0  0  0  0  0  0  0  0  0  0  0
    0.9907    0.2264   -1.5338 H   0  0  0  0  0  0  0  0  0  0  0  0
  1  2  2  0  0  0  0
  2  8  1  0  0  0  0
  2  3  1  0  0  0  0
  3  9  1  0  0  0  0
  4  3  1  6  0  0  0
  4  7  1  0  0  0  0
  5  4  1  0  0  0  0
  5  6  1  0  0  0  0
  5 11  1  0  0  0  0
  6  8  1  6  0  0  0
  6 12  1  0  0  0  0
  6  7  1  0  0  0  0
  7 14  1  0  0  0  0
  7 13  1  0  0  0  0
  8  4  1  6  0  0  0
 10  5  1  0  0  0  0
 15  8  1  0  0  0  0
M  END
