title
 OpenBabel02282109583D

 14 16  0  0  1  0  0  0  0  0999 V2000
   -0.5623   -2.3377   -0.7919 O   0  0  0  0  0  0  0  0  0  0  0  0
   -0.4525   -1.1699   -0.5891 C   0  0  0  0  0  0  0  0  0  0  0  0
   -1.4366   -0.1401   -0.4230 N   0  0  0  0  0  0  0  0  0  0  0  0
   -0.4056    0.7408    0.1464 C   0  0  1  0  0  0  0  0  0  0  0  0
    0.5843    1.9583    0.0957 C   0  0  0  0  0  0  0  0  0  0  0  0
    1.4684    0.7778    0.6071 N   0  0  1  0  0  0  0  0  0  0  0  0
    0.2738    0.4226    1.4950 C   0  0  0  0  0  0  0  0  0  0  0  0
    0.6764   -0.0428   -0.5215 C   0  0  1  0  0  0  0  0  0  0  0  0
   -2.3620   -0.3283   -0.0500 H   0  0  0  0  0  0  0  0  0  0  0  0
    0.8798    2.3450   -0.8803 H   0  0  0  0  0  0  0  0  0  0  0  0
    0.4802    2.7477    0.8441 H   0  0  0  0  0  0  0  0  0  0  0  0
    0.1312    1.1132    2.3289 H   0  0  0  0  0  0  0  0  0  0  0  0
    0.2780   -0.6201    1.8247 H   0  0  0  0  0  0  0  0  0  0  0  0
    1.0155    0.2372   -1.5197 H   0  0  0  0  0  0  0  0  0  0  0  0
  1  2  2  0  0  0  0
  2  8  1  0  0  0  0
  2  3  1  0  0  0  0
  3  9  1  0  0  0  0
  4  3  1  6  0  0  0
  4  7  1  0  0  0  0
  5  4  1  0  0  0  0
  5  6  1  0  0  0  0
  5 11  1  0  0  0  0
  6  8  1  6  0  0  0
  6  7  1  0  0  0  0
  7 13  1  0  0  0  0
  7 12  1  0  0  0  0
  8  4  1  6  0  0  0
 10  5  1  0  0  0  0
 14  8  1  0  0  0  0
M  END
