14
title
O -0.5623375 -2.337684 -0.79194534
C -0.45254937 -1.1698824 -0.5890868
N -1.4365522 -0.14005457 -0.4230152
C -0.40560174 0.7408396 0.14636089
C 0.58433443 1.9583262 0.09566236
N 1.4684085 0.7777711 0.607057
C 0.27381092 0.4225706 1.4950216
C 0.67642504 -0.042818174 -0.5215009
H -2.3619819 -0.32831705 -0.05002897
H 0.8797961 2.344994 -0.88027143
H 0.48018563 2.7477145 0.84408975
H 0.1312257 1.113166 2.328909
H 0.27799654 -0.6200788 1.8246565
H 1.0155493 0.23724164 -1.5196527
