title
 OpenBabel02282109583D

 14 16  0  0  1  0  0  0  0  0999 V2000
   -0.6238   -2.1943   -1.0322 O   0  0  0  0  0  0  0  0  0  0  0  0
   -0.4284   -1.0904   -0.6571 C   0  0  0  0  0  0  0  0  0  0  0  0
   -1.4163   -0.1474   -0.2680 O   0  0  0  0  0  0  0  0  0  0  0  0
   -0.3316    0.6911    0.2330 C   0  0  1  0  0  0  0  0  0  0  0  0
    0.5345    1.9854    0.2063 C   0  0  0  0  0  0  0  0  0  0  0  0
    1.4621    0.7362    0.6159 C   0  0  1  0  0  0  0  0  0  0  0  0
    0.3366    0.2920    1.5711 C   0  0  0  0  0  0  0  0  0  0  0  0
    0.7249   -0.0372   -0.5513 C   0  0  1  0  0  0  0  0  0  0  0  0
    0.7264    2.4339   -0.7690 H   0  0  0  0  0  0  0  0  0  0  0  0
    0.3701    2.7329    0.9861 H   0  0  0  0  0  0  0  0  0  0  0  0
    2.5305    0.7893    0.8222 H   0  0  0  0  0  0  0  0  0  0  0  0
    0.1396    0.9266    2.4364 H   0  0  0  0  0  0  0  0  0  0  0  0
    0.3070   -0.7705    1.8213 H   0  0  0  0  0  0  0  0  0  0  0  0
    0.9244    0.3462   -1.5554 H   0  0  0  0  0  0  0  0  0  0  0  0
  1  2  2  0  0  0  0
  2  8  1  0  0  0  0
  2  3  1  0  0  0  0
  4  3  1  6  0  0  0
  4  7  1  0  0  0  0
  5  4  1  0  0  0  0
  5  6  1  0  0  0  0
  5 10  1  0  0  0  0
  6  8  1  6  0  0  0
  6 11  1  0  0  0  0
  6  7  1  0  0  0  0
  7 13  1  0  0  0  0
  7 12  1  0  0  0  0
  8  4  1  1  0  0  0
  9  5  1  0  0  0  0
 14  8  1  0  0  0  0
M  END
