title
 OpenBabel02282109583D

 20 22  0  0  1  0  0  0  0  0999 V2000
   -1.5387    1.8756   -0.6185 C   0  0  0  0  0  0  0  0  0  0  0  0
   -1.3483    0.3652   -0.5170 C   0  0  1  0  0  0  0  0  0  0  0  0
   -0.3547   -0.3447   -1.5504 C   0  0  0  0  0  0  0  0  0  0  0  0
    0.5704   -0.6058   -0.3441 C   0  0  1  0  0  0  0  0  0  0  0  0
    1.2746   -1.5124    0.7152 C   0  0  0  0  0  0  0  0  0  0  0  0
    0.7621   -0.2054    1.4780 C   0  0  1  0  0  0  0  0  0  0  0  0
    1.3374    0.5985    0.3002 C   0  0  0  0  0  0  0  0  0  0  0  0
   -0.5651   -0.3854    0.6559 C   0  0  1  0  0  0  0  0  0  0  0  0
   -0.6041    2.4281   -0.7351 H   0  0  0  0  0  0  0  0  0  0  0  0
   -2.1628    2.1148   -1.4876 H   0  0  0  0  0  0  0  0  0  0  0  0
   -2.0490    2.2622    0.2702 H   0  0  0  0  0  0  0  0  0  0  0  0
   -2.3428   -0.0876   -0.5696 H   0  0  0  0  0  0  0  0  0  0  0  0
   -0.8011   -1.2455   -1.9809 H   0  0  0  0  0  0  0  0  0  0  0  0
    0.0526    0.2715   -2.3582 H   0  0  0  0  0  0  0  0  0  0  0  0
    0.7692   -2.4498    0.9624 H   0  0  0  0  0  0  0  0  0  0  0  0
    2.3614   -1.6404    0.6660 H   0  0  0  0  0  0  0  0  0  0  0  0
    0.8964   -0.0044    2.5454 H   0  0  0  0  0  0  0  0  0  0  0  0
    2.4247    0.5876    0.1781 H   0  0  0  0  0  0  0  0  0  0  0  0
    0.9423    1.6008    0.1506 H   0  0  0  0  0  0  0  0  0  0  0  0
   -1.1272   -1.2811    0.9383 H   0  0  0  0  0  0  0  0  0  0  0  0
  1  2  1  0  0  0  0
  1 11  1  0  0  0  0
  2  8  1  1  0  0  0
  3  2  1  0  0  0  0
  4  3  1  6  0  0  0
  4  7  1  0  0  0  0
  4  5  1  0  0  0  0
  5 15  1  0  0  0  0
  5  6  1  0  0  0  0
  6  8  1  6  0  0  0
  6 17  1  0  0  0  0
  7  6  1  0  0  0  0
  8  4  1  6  0  0  0
  8 20  1  0  0  0  0
  9  1  1  0  0  0  0
 10  1  1  0  0  0  0
 12  2  1  0  0  0  0
 13  3  1  0  0  0  0
 14  3  1  0  0  0  0
 16  5  1  0  0  0  0
 18  7  1  0  0  0  0
 19  7  1  0  0  0  0
M  END
