title
 OpenBabel02282109583D

 19 21  0  0  1  0  0  0  0  0999 V2000
   -1.4749    1.8216   -0.6651 C   0  0  0  0  0  0  0  0  0  0  0  0
   -1.3008    0.3083   -0.5432 C   0  0  1  0  0  0  0  0  0  0  0  0
   -0.3171   -0.4350   -1.5437 C   0  0  0  0  0  0  0  0  0  0  0  0
    0.5785   -0.6147   -0.3056 C   0  0  1  0  0  0  0  0  0  0  0  0
    1.2326   -1.4564    0.8298 C   0  0  0  0  0  0  0  0  0  0  0  0
    0.6702   -0.0961    1.4353 C   0  0  1  0  0  0  0  0  0  0  0  0
    1.3406    0.6362    0.2664 C   0  0  0  0  0  0  0  0  0  0  0  0
   -0.5853   -0.4124    0.6134 N   0  0  1  0  0  0  0  0  0  0  0  0
   -0.5611    2.3608   -0.9216 H   0  0  0  0  0  0  0  0  0  0  0  0
   -2.2090    2.0362   -1.4506 H   0  0  0  0  0  0  0  0  0  0  0  0
   -1.8664    2.2358    0.2700 H   0  0  0  0  0  0  0  0  0  0  0  0
   -2.3033   -0.1282   -0.5574 H   0  0  0  0  0  0  0  0  0  0  0  0
   -0.7478   -1.3608   -1.9306 H   0  0  0  0  0  0  0  0  0  0  0  0
    0.1017    0.1520   -2.3647 H   0  0  0  0  0  0  0  0  0  0  0  0
    0.6822   -2.3528    1.1143 H   0  0  0  0  0  0  0  0  0  0  0  0
    2.3181   -1.5835    0.8486 H   0  0  0  0  0  0  0  0  0  0  0  0
    0.6377    0.1786    2.4929 H   0  0  0  0  0  0  0  0  0  0  0  0
    2.4342    0.6178    0.2243 H   0  0  0  0  0  0  0  0  0  0  0  0
    0.9584    1.6226    0.0202 H   0  0  0  0  0  0  0  0  0  0  0  0
  1  2  1  0  0  0  0
  1 11  1  0  0  0  0
  2  8  1  1  0  0  0
  3  2  1  0  0  0  0
  4  3  1  6  0  0  0
  4  7  1  0  0  0  0
  4  5  1  0  0  0  0
  5 16  1  0  0  0  0
  5 15  1  0  0  0  0
  5  6  1  0  0  0  0
  6  8  1  6  0  0  0
  6 17  1  0  0  0  0
  7  6  1  0  0  0  0
  8  4  1  6  0  0  0
  9  1  1  0  0  0  0
 10  1  1  0  0  0  0
 12  2  1  0  0  0  0
 13  3  1  0  0  0  0
 14  3  1  0  0  0  0
 18  7  1  0  0  0  0
 19  7  1  0  0  0  0
M  END
