title
 OpenBabel02282109583D

 19 21  0  0  1  0  0  0  0  0999 V2000
   -1.4999    1.9301   -0.5642 C   0  0  0  0  0  0  0  0  0  0  0  0
   -1.3401    0.4150   -0.5050 C   0  0  1  0  0  0  0  0  0  0  0  0
   -0.3891   -0.2890   -1.5915 C   0  0  0  0  0  0  0  0  0  0  0  0
    0.5474   -0.6161   -0.4013 C   0  0  1  0  0  0  0  0  0  0  0  0
    1.2365   -1.5081    0.6854 C   0  0  0  0  0  0  0  0  0  0  0  0
    0.7703   -0.2593    1.5066 N   0  0  1  0  0  0  0  0  0  0  0  0
    1.3032    0.5327    0.3121 C   0  0  0  0  0  0  0  0  0  0  0  0
   -0.5357   -0.4069    0.6092 C   0  0  1  0  0  0  0  0  0  0  0  0
   -0.5574    2.4616   -0.7128 H   0  0  0  0  0  0  0  0  0  0  0  0
   -2.1554    2.2008   -1.3999 H   0  0  0  0  0  0  0  0  0  0  0  0
   -1.9607    2.3091    0.3539 H   0  0  0  0  0  0  0  0  0  0  0  0
   -2.3439   -0.0203   -0.5313 H   0  0  0  0  0  0  0  0  0  0  0  0
   -0.8720   -1.1581   -2.0457 H   0  0  0  0  0  0  0  0  0  0  0  0
    0.0180    0.3486   -2.3823 H   0  0  0  0  0  0  0  0  0  0  0  0
    0.7314   -2.4351    0.9682 H   0  0  0  0  0  0  0  0  0  0  0  0
    2.3256   -1.6193    0.6926 H   0  0  0  0  0  0  0  0  0  0  0  0
    2.3954    0.5354    0.2390 H   0  0  0  0  0  0  0  0  0  0  0  0
    0.9160    1.5488    0.2643 H   0  0  0  0  0  0  0  0  0  0  0  0
   -1.1253   -1.2580    0.9594 H   0  0  0  0  0  0  0  0  0  0  0  0
  1  2  1  0  0  0  0
  1 11  1  0  0  0  0
  2  8  1  1  0  0  0
  3  2  1  0  0  0  0
  4  3  1  6  0  0  0
  4  7  1  0  0  0  0
  4  5  1  0  0  0  0
  5 16  1  0  0  0  0
  5 15  1  0  0  0  0
  5  6  1  0  0  0  0
  6  8  1  6  0  0  0
  7  6  1  0  0  0  0
  8  4  1  6  0  0  0
  8 19  1  0  0  0  0
  9  1  1  0  0  0  0
 10  1  1  0  0  0  0
 12  2  1  0  0  0  0
 13  3  1  0  0  0  0
 14  3  1  0  0  0  0
 17  7  1  0  0  0  0
 18  7  1  0  0  0  0
M  END
