18
title
C -1.5016053 1.8566715 -0.6586966
C -1.3260556 0.37153152 -0.4157469
O -0.4149472 -0.28630745 -1.4076684
C 0.4664207 -0.5452199 -0.31657466
C 1.2262186 -1.5641999 0.58371294
C 0.88433427 -0.25026664 1.4475259
C 1.3904167 0.5761686 0.25506952
C -0.54560584 -0.32608676 0.779439
H -0.561318 2.4074473 -0.6682711
H -1.9898394 2.0119557 -1.6264862
H -2.1471317 2.27966 0.11841539
H -2.3019757 -0.118616216 -0.48594773
H 0.6869189 -2.4741962 0.8534707
H 2.2897027 -1.7492629 0.40270314
H 1.1418759 -0.116959326 2.4991958
H 2.454156 0.49981844 0.018914793
H 1.0405957 1.6039273 0.1923829
H -1.106318 -1.2126738 1.0826395
