17
title
C -1.4698591 1.9196867 -0.58895355
C -1.324915 0.42501357 -0.4012256
O -0.45779702 -0.21930653 -1.4449706
C 0.43962243 -0.55484456 -0.37202248
C 1.2003977 -1.5634232 0.55613387
N 0.9091532 -0.32188278 1.4625165
C 1.3593333 0.50998515 0.26308003
C -0.5217838 -0.35837662 0.7283695
H -0.5128061 2.439167 -0.63775975
H -2.0037951 2.116779 -1.5241724
H -2.0578866 2.3401499 0.23341133
H -2.3126755 -0.045861423 -0.44410807
H 0.6709721 -2.4674776 0.86104846
H 2.2732644 -1.728555 0.42322984
H 2.4322515 0.44900212 0.06678714
H 1.0241961 1.5440718 0.31385353
H -1.1010947 -1.1982217 1.1104813
