title
 OpenBabel02282109583D

 17 19  0  0  1  0  0  0  0  0999 V2000
   -1.4699    1.9197   -0.5890 C   0  0  0  0  0  0  0  0  0  0  0  0
   -1.3249    0.4250   -0.4012 C   0  0  1  0  0  0  0  0  0  0  0  0
   -0.4578   -0.2193   -1.4450 O   0  0  0  0  0  0  0  0  0  0  0  0
    0.4396   -0.5548   -0.3720 C   0  0  1  0  0  0  0  0  0  0  0  0
    1.2004   -1.5634    0.5561 C   0  0  0  0  0  0  0  0  0  0  0  0
    0.9092   -0.3219    1.4625 N   0  0  1  0  0  0  0  0  0  0  0  0
    1.3593    0.5100    0.2631 C   0  0  0  0  0  0  0  0  0  0  0  0
   -0.5218   -0.3584    0.7284 C   0  0  1  0  0  0  0  0  0  0  0  0
   -0.5128    2.4392   -0.6378 H   0  0  0  0  0  0  0  0  0  0  0  0
   -2.0038    2.1168   -1.5242 H   0  0  0  0  0  0  0  0  0  0  0  0
   -2.0579    2.3401    0.2334 H   0  0  0  0  0  0  0  0  0  0  0  0
   -2.3127   -0.0459   -0.4441 H   0  0  0  0  0  0  0  0  0  0  0  0
    0.6710   -2.4675    0.8610 H   0  0  0  0  0  0  0  0  0  0  0  0
    2.2733   -1.7286    0.4232 H   0  0  0  0  0  0  0  0  0  0  0  0
    2.4323    0.4490    0.0668 H   0  0  0  0  0  0  0  0  0  0  0  0
    1.0242    1.5441    0.3139 H   0  0  0  0  0  0  0  0  0  0  0  0
   -1.1011   -1.1982    1.1105 H   0  0  0  0  0  0  0  0  0  0  0  0
  1  2  1  0  0  0  0
  1 11  1  0  0  0  0
  2  8  1  1  0  0  0
  3  2  1  0  0  0  0
  4  3  1  6  0  0  0
  4  7  1  0  0  0  0
  4  5  1  0  0  0  0
  5 13  1  0  0  0  0
  5  6  1  0  0  0  0
  6  8  1  6  0  0  0
  7 16  1  0  0  0  0
  7  6  1  0  0  0  0
  8  4  1  6  0  0  0
  8 17  1  0  0  0  0
  9  1  1  0  0  0  0
 10  1  1  0  0  0  0
 12  2  1  0  0  0  0
 14  5  1  0  0  0  0
 15  7  1  0  0  0  0
M  END
