19
title
C -0.34370756 2.4740016 -0.7833663
N -0.25950393 1.0307779 -0.7498013
C -1.4842774 0.25775287 -0.30859137
C -0.48532656 -0.7458613 0.31306082
C 0.30661035 -1.4072423 1.4868088
C 1.3899828 -0.89272046 0.42829996
C 0.4850484 -1.4889162 -0.6662037
C 0.5027165 0.40599102 0.36998314
H 0.6341532 2.8926287 -1.0436298
H -1.058475 2.7884035 -1.5514257
H -0.66243654 2.91825 0.17941487
H -2.0792081 0.80762994 0.43730444
H -2.1290329 -0.08341481 -1.1249456
H 0.27683133 -0.8928226 2.4507189
H 0.24319571 -2.492926 1.6051712
H 2.4740705 -1.0021718 0.53072006
H 0.40191418 -2.5792115 -0.6851388
H 0.5783795 -1.0635582 -1.664003
H 0.50536335 1.0298088 1.2758641
