16
title
O 1.4536066 1.3334595 -0.9997
C 1.2540493 -0.022010883 -0.76000077
C 1.3425645 -0.5035383 0.771126
C -0.18211074 -0.54797643 0.71836
C -1.6545765 -1.0123297 0.83205694
C -1.5083413 0.0824788 -0.3037093
O -0.697833 0.8756842 0.6295503
C -0.22302647 -0.6184764 -0.81133145
H 0.77723736 1.7787242 -0.46919778
H 1.9339417 -0.56941247 -1.4171435
H 1.7941642 -1.495512 0.8534079
H 1.79974 0.1842446 1.4862113
H -1.8698123 -2.0400755 0.530556
H -2.2231095 -0.691144 1.7065222
H -2.311698 0.59979534 -0.8349009
H -0.32074365 -1.5890532 -1.3007946
