title
 OpenBabel02282109583D

 17 19  0  0  1  0  0  0  0  0999 V2000
    1.2573    1.6341   -0.8927 O   0  0  0  0  0  0  0  0  0  0  0  0
    1.2355    0.2351   -0.7714 C   0  0  1  0  0  0  0  0  0  0  0  0
    1.4739   -0.3739    0.7014 C   0  0  0  0  0  0  0  0  0  0  0  0
   -0.0632   -0.5628    0.7373 C   0  0  1  0  0  0  0  0  0  0  0  0
   -1.4203   -1.3393    0.6892 C   0  0  0  0  0  0  0  0  0  0  0  0
   -1.6601   -0.1575   -0.3105 N   0  0  1  0  0  0  0  0  0  0  0  0
   -0.9702    0.6934    0.7649 C   0  0  0  0  0  0  0  0  0  0  0  0
   -0.1784   -0.4896   -0.7554 C   0  0  1  0  0  0  0  0  0  0  0  0
    2.1706    1.9280   -0.8095 H   0  0  0  0  0  0  0  0  0  0  0  0
    1.8829   -0.2288   -1.5284 H   0  0  0  0  0  0  0  0  0  0  0  0
    2.0473   -1.3037    0.6506 H   0  0  0  0  0  0  0  0  0  0  0  0
    1.9225    0.2957    1.4418 H   0  0  0  0  0  0  0  0  0  0  0  0
   -1.4216   -2.3242    0.2150 H   0  0  0  0  0  0  0  0  0  0  0  0
   -2.1023   -1.2975    1.5443 H   0  0  0  0  0  0  0  0  0  0  0  0
   -1.5842    0.8440    1.6583 H   0  0  0  0  0  0  0  0  0  0  0  0
   -0.5746    1.6334    0.3864 H   0  0  0  0  0  0  0  0  0  0  0  0
   -0.1482   -1.4034   -1.3540 H   0  0  0  0  0  0  0  0  0  0  0  0
  1  9  1  0  0  0  0
  1  2  1  0  0  0  0
  2  8  1  6  0  0  0
  2  3  1  0  0  0  0
  3  4  1  0  0  0  0
  3 12  1  0  0  0  0
  4  8  1  6  0  0  0
  4  7  1  0  0  0  0
  5  4  1  0  0  0  0
  5 14  1  0  0  0  0
  6  5  1  1  0  0  0
  6  7  1  0  0  0  0
  7 15  1  0  0  0  0
  8  6  1  6  0  0  0
 10  2  1  0  0  0  0
 11  3  1  0  0  0  0
 13  5  1  0  0  0  0
 16  7  1  0  0  0  0
 17  8  1  0  0  0  0
M  END
