title
 OpenBabel02282109583D

 14 13  0  0  0  0  0  0  0  0999 V2000
   -0.0248    1.8263    0.0100 C   0  0  0  0  0  0  0  0  0  0  0  0
   -0.0036    0.2658    0.0015 C   0  0  0  0  0  0  0  0  0  0  0  0
    0.7107   -0.2183    1.1983 C   0  0  0  0  0  0  0  0  0  0  0  0
    1.2972   -0.5773    2.1819 C   0  0  0  0  0  0  0  0  0  0  0  0
   -1.3895   -0.2403    0.0119 C   0  0  0  0  0  0  0  0  0  0  0  0
   -2.5289   -0.6171    0.0208 C   0  0  0  0  0  0  0  0  0  0  0  0
    0.6878   -0.2054   -1.2138 C   0  0  0  0  0  0  0  0  0  0  0  0
    1.2554   -0.5536   -2.2122 C   0  0  0  0  0  0  0  0  0  0  0  0
    0.9994    2.2037    0.0015 H   0  0  0  0  0  0  0  0  0  0  0  0
   -0.5535    2.1872   -0.8743 H   0  0  0  0  0  0  0  0  0  0  0  0
   -0.5353    2.1778    0.9085 H   0  0  0  0  0  0  0  0  0  0  0  0
    1.8138   -0.9115    3.0476 H   0  0  0  0  0  0  0  0  0  0  0  0
   -3.5318   -0.9667    0.0285 H   0  0  0  0  0  0  0  0  0  0  0  0
    1.7554   -0.8782   -3.0913 H   0  0  0  0  0  0  0  0  0  0  0  0
  1 11  1  0  0  0  0
  2  1  1  0  0  0  0
  2  5  1  0  0  0  0
  2  3  1  0  0  0  0
  3  4  3  0  0  0  0
  4 12  1  0  0  0  0
  5  6  3  0  0  0  0
  6 13  1  0  0  0  0
  7  2  1  0  0  0  0
  8  7  3  0  0  0  0
  9  1  1  0  0  0  0
 10  1  1  0  0  0  0
 14  8  1  0  0  0  0
M  END
