title
 OpenBabel02282109583D

 13 12  0  0  0  0  0  0  0  0999 V2000
   -0.0284    1.8316    0.0163 C   0  0  0  0  0  0  0  0  0  0  0  0
   -0.0160    0.2714    0.0233 C   0  0  0  0  0  0  0  0  0  0  0  0
    0.7098   -0.2201    1.2063 C   0  0  0  0  0  0  0  0  0  0  0  0
    1.3046   -0.5856    2.1816 C   0  0  0  0  0  0  0  0  0  0  0  0
   -1.3959   -0.2421    0.0170 C   0  0  0  0  0  0  0  0  0  0  0  0
   -2.5324   -0.6257    0.0147 C   0  0  0  0  0  0  0  0  0  0  0  0
    0.6799   -0.1988   -1.2003 C   0  0  0  0  0  0  0  0  0  0  0  0
    1.2260   -0.5342   -2.1607 N   0  0  0  0  0  0  0  0  0  0  0  0
    0.9965    2.2066    0.0092 H   0  0  0  0  0  0  0  0  0  0  0  0
   -0.5572    2.1904   -0.8684 H   0  0  0  0  0  0  0  0  0  0  0  0
   -0.5391    2.1832    0.9140 H   0  0  0  0  0  0  0  0  0  0  0  0
    1.8293   -0.9247    3.0411 H   0  0  0  0  0  0  0  0  0  0  0  0
   -3.5339   -0.9807    0.0123 H   0  0  0  0  0  0  0  0  0  0  0  0
  1  2  1  0  0  0  0
  1 11  1  0  0  0  0
  2  3  1  0  0  0  0
  3  4  3  0  0  0  0
  4 12  1  0  0  0  0
  5  2  1  0  0  0  0
  6  5  3  0  0  0  0
  7  2  1  0  0  0  0
  8  7  3  0  0  0  0
  9  1  1  0  0  0  0
 10  1  1  0  0  0  0
 13  6  1  0  0  0  0
M  END
