13
title
C -0.028399434 1.8315527 0.016339362
C -0.016016325 0.2714446 0.023295838
C 0.7098372 -0.2201125 1.206296
C 1.3046278 -0.5856179 2.1816103
C -1.3959287 -0.2421149 0.017028412
C -2.5323555 -0.6256979 0.014660275
C 0.6799278 -0.19883722 -1.2003237
N 1.2259942 -0.5341744 -2.160687
H 0.99651796 2.2066236 0.009163728
H -0.5572231 2.1903658 -0.86841047
H -0.5390805 2.183238 0.9139843
H 1.8293294 -0.92466205 3.0411427
H -3.5338597 -0.9807221 0.012267732
