title
 OpenBabel02282109583D

 13 12  0  0  0  0  0  0  0  0999 V2000
   -0.0545    1.7609    0.0611 N   0  0  0  0  0  0  0  0  0  0  0  0
   -0.0076    0.2792    0.0079 C   0  0  0  0  0  0  0  0  0  0  0  0
   -1.3940   -0.2277    0.0173 C   0  0  0  0  0  0  0  0  0  0  0  0
   -2.5242   -0.6297    0.0052 C   0  0  0  0  0  0  0  0  0  0  0  0
    0.6815   -0.2261   -1.2035 C   0  0  0  0  0  0  0  0  0  0  0  0
    1.2494   -0.5750   -2.2031 C   0  0  0  0  0  0  0  0  0  0  0  0
    0.7098   -0.2037    1.2042 C   0  0  0  0  0  0  0  0  0  0  0  0
    1.3114   -0.5859    2.1691 C   0  0  0  0  0  0  0  0  0  0  0  0
    0.9022    2.1047    0.0209 H   0  0  0  0  0  0  0  0  0  0  0  0
   -0.5206    2.0885   -0.7819 H   0  0  0  0  0  0  0  0  0  0  0  0
   -3.5232   -0.9906    0.0027 H   0  0  0  0  0  0  0  0  0  0  0  0
    1.7493   -0.8983   -3.0828 H   0  0  0  0  0  0  0  0  0  0  0  0
    1.8364   -0.9296    3.0262 H   0  0  0  0  0  0  0  0  0  0  0  0
  2  3  1  0  0  0  0
  2  1  1  0  0  0  0
  2  7  1  0  0  0  0
  4  3  3  0  0  0  0
  5  2  1  0  0  0  0
  6  5  3  0  0  0  0
  7  8  3  0  0  0  0
  8 13  1  0  0  0  0
  9  1  1  0  0  0  0
 10  1  1  0  0  0  0
 11  4  1  0  0  0  0
 12  6  1  0  0  0  0
M  END
