12
title
N -0.05022376 1.7624506 0.06499126
C 0.018934138 0.2873636 0.0060349093
C 0.69590557 -0.22589858 -1.2047375
C 1.2531725 -0.5823047 -2.206702
C 0.71263677 -0.2050936 1.2080152
C 1.2973977 -0.5933715 2.180047
C -1.3800617 -0.22134377 0.011082814
N -2.4660661 -0.6115217 -0.0069450457
H 0.9008725 2.1169999 0.12230825
H -0.44484606 2.102675 -0.80876106
H 1.7450539 -0.91152763 -3.089347
H 1.8081226 -0.94339395 3.0437882
