11
title
N -0.05990574 1.7591459 0.06808472
C 0.0019717806 0.29309472 0.026794652
C 0.70663404 -0.20772582 1.2149223
C 1.3000125 -0.60560507 2.1771224
C -1.3900646 -0.22629446 0.015270766
N -2.4741082 -0.62041074 -0.0060973978
C 0.6937625 -0.22204238 -1.1934655
N 1.2485706 -0.5437402 -2.1541827
H 0.8850513 2.1270726 0.13008884
H -0.47982576 2.1090407 -0.7891309
H 1.8199481 -0.9628605 3.0330446
