title
 OpenBabel02282109583D

 11 10  0  0  0  0  0  0  0  0999 V2000
   -0.0599    1.7591    0.0681 N   0  0  0  0  0  0  0  0  0  0  0  0
    0.0020    0.2931    0.0268 C   0  0  0  0  0  0  0  0  0  0  0  0
    0.7066   -0.2077    1.2149 C   0  0  0  0  0  0  0  0  0  0  0  0
    1.3000   -0.6056    2.1771 C   0  0  0  0  0  0  0  0  0  0  0  0
   -1.3901   -0.2263    0.0153 C   0  0  0  0  0  0  0  0  0  0  0  0
   -2.4741   -0.6204   -0.0061 N   0  0  0  0  0  0  0  0  0  0  0  0
    0.6938   -0.2220   -1.1935 C   0  0  0  0  0  0  0  0  0  0  0  0
    1.2486   -0.5437   -2.1542 N   0  0  0  0  0  0  0  0  0  0  0  0
    0.8851    2.1271    0.1301 H   0  0  0  0  0  0  0  0  0  0  0  0
   -0.4798    2.1090   -0.7891 H   0  0  0  0  0  0  0  0  0  0  0  0
    1.8199   -0.9629    3.0330 H   0  0  0  0  0  0  0  0  0  0  0  0
  1  9  1  0  0  0  0
  2  1  1  0  0  0  0
  2  3  1  0  0  0  0
  3  4  3  0  0  0  0
  4 11  1  0  0  0  0
  5  2  1  0  0  0  0
  6  5  3  0  0  0  0
  7  2  1  0  0  0  0
  8  7  3  0  0  0  0
 10  1  1  0  0  0  0
M  END
