10
title
O -0.076881565 1.6955912 0.0036551503
C 0.0018619135 0.28422242 0.021853887
C 0.7051507 -0.22802326 1.206701
C 1.3047167 -0.60419255 2.1749206
C -1.3964885 -0.21223402 0.014345292
N -2.4768507 -0.61586386 0.016624033
C 0.69003606 -0.21628422 -1.2039423
N 1.2553154 -0.56225306 -2.1490407
H 0.8118092 2.041234 0.1595467
H 1.8294508 -0.94698685 3.034289
