title
 OpenBabel02282109583D

 14 13  0  0  0  0  0  0  0  0999 V2000
   -0.0544    1.7371    0.1789 C   0  0  0  0  0  0  0  0  0  0  0  0
   -0.0567    0.2154   -0.0806 C   0  0  0  0  0  0  0  0  0  0  0  0
    0.5906   -0.5431    1.1216 C   0  0  0  0  0  0  0  0  0  0  0  0
    1.0203    0.0025    2.0962 O   0  0  0  0  0  0  0  0  0  0  0  0
   -1.4204   -0.3123   -0.2028 C   0  0  0  0  0  0  0  0  0  0  0  0
   -2.5336   -0.7628   -0.2380 C   0  0  0  0  0  0  0  0  0  0  0  0
    0.7457   -0.1357   -1.2579 C   0  0  0  0  0  0  0  0  0  0  0  0
    1.4539   -0.4377   -2.1802 C   0  0  0  0  0  0  0  0  0  0  0  0
    0.9711    2.0861    0.3115 H   0  0  0  0  0  0  0  0  0  0  0  0
   -0.5086    2.2583   -0.6653 H   0  0  0  0  0  0  0  0  0  0  0  0
   -0.6189    1.9562    1.0868 H   0  0  0  0  0  0  0  0  0  0  0  0
    0.6131   -1.6424    0.9830 H   0  0  0  0  0  0  0  0  0  0  0  0
   -3.5206   -1.1519   -0.2922 H   0  0  0  0  0  0  0  0  0  0  0  0
    2.0622   -0.6968   -3.0117 H   0  0  0  0  0  0  0  0  0  0  0  0
  1  9  1  0  0  0  0
  1 11  1  0  0  0  0
  2  1  1  0  0  0  0
  2  3  1  0  0  0  0
  3  4  2  0  0  0  0
  5  2  1  0  0  0  0
  6  5  3  0  0  0  0
  7  2  1  0  0  0  0
  8  7  3  0  0  0  0
 10  1  1  0  0  0  0
 12  3  1  0  0  0  0
 13  6  1  0  0  0  0
 14  8  1  0  0  0  0
M  END
