13
title
C -0.055549994 1.744949 -0.0852313
C -0.05961471 0.20192024 -0.096300885
C 0.68349713 -0.3634119 1.163385
O 1.1147926 0.33616537 2.0303648
C -1.4138658 -0.3535278 -0.043312985
C -2.5160508 -0.8158901 0.0722463
C 0.6557498 -0.3184786 -1.2744461
N 1.2563791 -0.72858846 -2.1722481
H 0.9714962 2.1141152 -0.092857994
H -0.58658725 2.1266317 -0.9583357
H -0.54727393 2.0969703 0.8224197
H 0.74813974 -1.46855 1.1800059
H -3.4963818 -1.21912 0.14965373
