title
 OpenBabel02282109583D

 12 11  0  0  0  0  0  0  0  0999 V2000
   -0.0625    1.7813    0.1270 O   0  0  0  0  0  0  0  0  0  0  0  0
    0.0395    0.3614    0.0640 C   0  0  0  0  0  0  0  0  0  0  0  0
   -1.4527   -0.1029    0.0607 C   0  0  0  0  0  0  0  0  0  0  0  0
   -1.8823   -1.0178   -0.5735 O   0  0  0  0  0  0  0  0  0  0  0  0
    0.7555   -0.0982   -1.1264 C   0  0  0  0  0  0  0  0  0  0  0  0
    1.3480   -0.4430   -2.1117 C   0  0  0  0  0  0  0  0  0  0  0  0
    0.6373   -0.1892    1.2892 C   0  0  0  0  0  0  0  0  0  0  0  0
    1.0844   -0.6204    2.3180 C   0  0  0  0  0  0  0  0  0  0  0  0
    0.8286    2.1353    0.2286 H   0  0  0  0  0  0  0  0  0  0  0  0
   -2.0624    0.5272    0.7395 H   0  0  0  0  0  0  0  0  0  0  0  0
    1.8660   -0.7582   -2.9842 H   0  0  0  0  0  0  0  0  0  0  0  0
    1.4937   -1.0081    3.2188 H   0  0  0  0  0  0  0  0  0  0  0  0
  1  9  1  0  0  0  0
  2  1  1  0  0  0  0
  2  7  1  0  0  0  0
  3  2  1  0  0  0  0
  3 10  1  0  0  0  0
  4  3  2  0  0  0  0
  5  2  1  0  0  0  0
  6  5  3  0  0  0  0
  7  8  3  0  0  0  0
  8 12  1  0  0  0  0
 11  6  1  0  0  0  0
M  END
