12
title
O -0.062466662 1.7813344 0.12701626
C 0.039524097 0.36135766 0.06402367
C -1.4526503 -0.10289361 0.060740262
O -1.8822814 -1.0177612 -0.5735379
C 0.7555091 -0.09821179 -1.1264486
C 1.3480415 -0.4430211 -2.1116962
C 0.63725746 -0.18918361 1.2892208
C 1.0843735 -0.6203563 2.318005
H 0.8285835 2.1353238 0.2286461
H -2.0624418 0.5271893 0.7394667
H 1.8659574 -0.7582365 -2.9841852
H 1.4937236 -1.0081315 3.2187781
