title
 OpenBabel02282109583D

 10  9  0  0  0  0  0  0  0  0999 V2000
   -0.0427    1.5787    0.1125 O   0  0  0  0  0  0  0  0  0  0  0  0
   -0.0525    0.1920    0.0963 C   0  0  0  0  0  0  0  0  0  0  0  0
    0.6795   -0.3275   -1.1956 C   0  0  0  0  0  0  0  0  0  0  0  0
    1.1289    0.4731   -1.9618 O   0  0  0  0  0  0  0  0  0  0  0  0
    0.6721   -0.3789    1.2544 C   0  0  0  0  0  0  0  0  0  0  0  0
    1.2804   -0.8425    2.1195 N   0  0  0  0  0  0  0  0  0  0  0  0
   -1.4296   -0.3500    0.0520 C   0  0  0  0  0  0  0  0  0  0  0  0
   -2.4930   -0.7907   -0.0395 N   0  0  0  0  0  0  0  0  0  0  0  0
    0.4254    1.8485   -0.6991 H   0  0  0  0  0  0  0  0  0  0  0  0
    0.7367   -1.4204   -1.3217 H   0  0  0  0  0  0  0  0  0  0  0  0
  2  1  1  0  0  0  0
  2  5  1  0  0  0  0
  3  2  1  0  0  0  0
  4  3  2  0  0  0  0
  5  6  3  0  0  0  0
  7  2  1  0  0  0  0
  8  7  3  0  0  0  0
  9  1  1  0  0  0  0
 10  3  1  0  0  0  0
M  END
