14
title
C 0.17838994 1.7748308 -0.026385622
C 0.16861992 0.23271324 -0.09048645
C 0.93071264 -0.31225833 1.1351819
O 0.40109932 -0.87472695 2.053653
C -1.270774 -0.32608965 -0.050310027
O -2.24683 0.36549354 0.02358131
C 0.8273403 -0.2754196 -1.2894051
C 1.3669995 -0.7320594 -2.2621968
H 1.2043749 2.1498353 0.0097869905
H -0.31262696 2.1843812 -0.9107867
H -0.36572796 2.1130977 0.85783875
H 2.0248742 -0.12321531 1.1010823
H -1.3261364 -1.4306933 -0.112345636
H 1.8408861 -1.1209438 -3.1301255
