11
title
O -0.0982932 1.4648168 0.09897631
C -0.12347364 0.087349914 0.02428048
C 0.6205607 -0.39811605 -1.2484163
O 1.1758589 0.40415543 -1.9466771
C 0.60429496 -0.5707436 1.2528689
O 1.3533592 0.04923577 1.9418523
C -1.4928111 -0.45951614 -0.027889827
N -2.5418682 -0.9433951 -0.05717794
H 0.42620358 1.7684864 -0.6617969
H 0.60936826 -1.4824218 -1.4539365
H 0.3662484 -1.6434182 1.4058458
