14
title
C 0.21255732 1.7089524 -0.17803451
C 0.020676771 0.16801684 -0.017321995
C 0.9095914 -0.2854042 1.1402684
O 0.56745845 -0.19706005 2.2916565
C -1.4570963 -0.08078885 0.28241152
O -2.2914245 -0.1415197 -0.58408487
C 0.44148317 -0.48526964 -1.333353
O 1.5919566 -0.72452676 -1.5975376
H 1.2590203 1.9307199 -0.4037684
H -0.41525736 2.078219 -0.99334127
H -0.06909564 2.2166584 0.7483098
H 1.8980345 -0.68390495 0.8407459
H -1.7043207 -0.18273993 1.3566407
H -0.38894764 -0.7049037 -2.031632
