12
title
O -0.11389814 1.5873389 0.060458694
C -0.14107457 0.207159 0.0034446602
C 0.5928658 -0.35313606 -1.2578777
O 1.3339542 0.31551564 -1.9125687
C 0.5422332 -0.4098684 1.2302526
O 1.1088842 0.29781702 2.0214646
C -1.5760127 -0.32737797 -0.04251563
O -1.8255694 -1.4982883 -0.16235091
H 0.47156993 1.8213798 0.7990922
H 0.34380296 -1.4090468 -1.4839251
H 0.4711667 -1.5066144 1.3311338
H -2.34127 0.47024152 0.03726307
