15
title
C 0.115694076 1.7667756 -0.16394928
C 0.120115854 0.21785586 -0.1418485
C 0.8457313 -0.33070734 1.1371404
N 0.15880914 0.121130586 2.3345945
C -1.2655816 -0.28636122 -0.13804914
N -2.3511574 -0.6763215 -0.07860035
C 0.81866515 -0.3021829 -1.329153
N 1.4122474 -0.6939977 -2.2389023
H 1.1441694 2.128117 -0.23957479
H -0.45403236 2.1419125 -1.0156279
H -0.32552296 2.1240852 0.76664996
H 0.9335588 -1.4215586 1.0337005
H 1.8580449 0.08351853 1.1263628
H -0.65061605 -0.45906654 2.5292063
H 0.7725666 0.06678739 3.1384716
