title
 OpenBabel02282109583D

 15 14  0  0  0  0  0  0  0  0999 V2000
    0.1157    1.7668   -0.1639 C   0  0  0  0  0  0  0  0  0  0  0  0
    0.1201    0.2179   -0.1418 C   0  0  0  0  0  0  0  0  0  0  0  0
    0.8457   -0.3307    1.1371 C   0  0  0  0  0  0  0  0  0  0  0  0
    0.1588    0.1211    2.3346 N   0  0  0  0  0  0  0  0  0  0  0  0
   -1.2656   -0.2864   -0.1380 C   0  0  0  0  0  0  0  0  0  0  0  0
   -2.3512   -0.6763   -0.0786 N   0  0  0  0  0  0  0  0  0  0  0  0
    0.8187   -0.3022   -1.3292 C   0  0  0  0  0  0  0  0  0  0  0  0
    1.4122   -0.6940   -2.2389 N   0  0  0  0  0  0  0  0  0  0  0  0
    1.1442    2.1281   -0.2396 H   0  0  0  0  0  0  0  0  0  0  0  0
   -0.4540    2.1419   -1.0156 H   0  0  0  0  0  0  0  0  0  0  0  0
   -0.3255    2.1241    0.7666 H   0  0  0  0  0  0  0  0  0  0  0  0
    0.9336   -1.4216    1.0337 H   0  0  0  0  0  0  0  0  0  0  0  0
    1.8580    0.0835    1.1264 H   0  0  0  0  0  0  0  0  0  0  0  0
   -0.6506   -0.4591    2.5292 H   0  0  0  0  0  0  0  0  0  0  0  0
    0.7726    0.0668    3.1385 H   0  0  0  0  0  0  0  0  0  0  0  0
  1  2  1  0  0  0  0
  1 11  1  0  0  0  0
  2  5  1  0  0  0  0
  2  3  1  0  0  0  0
  3  4  1  0  0  0  0
  4 14  1  0  0  0  0
  4 15  1  0  0  0  0
  5  6  3  0  0  0  0
  7  2  1  0  0  0  0
  8  7  3  0  0  0  0
  9  1  1  0  0  0  0
 10  1  1  0  0  0  0
 12  3  1  0  0  0  0
 13  3  1  0  0  0  0
M  END
