16
title
C -0.008376884 1.9983898 0.04345594
C 0.0056570126 0.44574615 0.022411756
C 0.757939 -0.0539621 1.2824564
O 0.77630925 -1.4627656 1.2732587
C -1.3772042 -0.053483177 0.037174385
C -2.5226445 -0.4127711 0.06685877
C 0.69897544 -0.018104184 -1.1883341
C 1.2871802 -0.34783864 -2.1819608
H 1.0149829 2.3831987 0.03330679
H -0.5328564 2.3796718 -0.8340602
H -0.52114815 2.357028 0.9400564
H 1.7732936 0.3697808 1.2581567
H 0.23579977 0.3437986 2.1657789
H 1.244498 -1.7649366 2.0566404
H -3.5283153 -0.75328076 0.083627924
H 1.7961445 -0.6625551 -3.059178
