title
 OpenBabel02282109583D

 15 14  0  0  1  0  0  0  0  0999 V2000
   -0.2390    1.7636    0.0027 C   0  0  0  0  0  0  0  0  0  0  0  0
   -0.2280    0.2147    0.0141 C   0  0  1  0  0  0  0  0  0  0  0  0
    0.5174   -0.3097    1.2933 C   0  0  0  0  0  0  0  0  0  0  0  0
    1.8465    0.1382    1.3582 O   0  0  0  0  0  0  0  0  0  0  0  0
   -1.5866   -0.3291   -0.0040 C   0  0  0  0  0  0  0  0  0  0  0  0
   -2.7025   -0.7702    0.0373 C   0  0  0  0  0  0  0  0  0  0  0  0
    0.5306   -0.2791   -1.1524 C   0  0  0  0  0  0  0  0  0  0  0  0
    1.1877   -0.6664   -2.0208 N   0  0  0  0  0  0  0  0  0  0  0  0
    0.7823    2.1322    0.1112 H   0  0  0  0  0  0  0  0  0  0  0  0
   -0.6696    2.1427   -0.9256 H   0  0  0  0  0  0  0  0  0  0  0  0
   -0.8411    2.1213    0.8415 H   0  0  0  0  0  0  0  0  0  0  0  0
   -0.0021    0.0965    2.1653 H   0  0  0  0  0  0  0  0  0  0  0  0
    0.4389   -1.4038    1.3212 H   0  0  0  0  0  0  0  0  0  0  0  0
    2.3542   -0.3174    0.6762 H   0  0  0  0  0  0  0  0  0  0  0  0
   -3.6899   -1.1621    0.0566 H   0  0  0  0  0  0  0  0  0  0  0  0
  1  2  1  0  0  0  0
  1  9  1  0  0  0  0
  1 11  1  0  0  0  0
  2  7  1  6  0  0  0
  2  3  1  0  0  0  0
  3 13  1  0  0  0  0
  3  4  1  0  0  0  0
  3 12  1  0  0  0  0
  5  2  1  0  0  0  0
  5  6  3  0  0  0  0
  6 15  1  0  0  0  0
  8  7  3  0  0  0  0
 10  1  1  0  0  0  0
 14  4  1  0  0  0  0
M  END
