title
 OpenBabel02282109583D

 18 17  0  0  0  0  0  0  0  0999 V2000
   -0.8237    1.5987    1.4292 C   0  0  0  0  0  0  0  0  0  0  0  0
   -0.7444    0.0776    1.3163 C   0  0  0  0  0  0  0  0  0  0  0  0
   -0.0168   -0.4486    0.0379 C   0  0  0  0  0  0  0  0  0  0  0  0
   -0.0123   -2.0017    0.0582 C   0  0  0  0  0  0  0  0  0  0  0  0
   -0.7225    0.0129   -1.1677 C   0  0  0  0  0  0  0  0  0  0  0  0
   -1.3290    0.3624   -2.1443 C   0  0  0  0  0  0  0  0  0  0  0  0
    1.3727    0.0345    0.0158 C   0  0  0  0  0  0  0  0  0  0  0  0
    2.5166    0.4020    0.0280 C   0  0  0  0  0  0  0  0  0  0  0  0
    0.1752    2.0437    1.4533 H   0  0  0  0  0  0  0  0  0  0  0  0
   -1.3661    2.0281    0.5819 H   0  0  0  0  0  0  0  0  0  0  0  0
   -1.3455    1.8855    2.3471 H   0  0  0  0  0  0  0  0  0  0  0  0
   -0.2157   -0.3384    2.1812 H   0  0  0  0  0  0  0  0  0  0  0  0
   -1.7516   -0.3540    1.3135 H   0  0  0  0  0  0  0  0  0  0  0  0
   -1.0399   -2.3745    0.0728 H   0  0  0  0  0  0  0  0  0  0  0  0
    0.4915   -2.3962   -0.8264 H   0  0  0  0  0  0  0  0  0  0  0  0
    0.5114   -2.3585    0.9491 H   0  0  0  0  0  0  0  0  0  0  0  0
   -1.8508    0.6800   -3.0131 H   0  0  0  0  0  0  0  0  0  0  0  0
    3.5250    0.7352    0.0235 H   0  0  0  0  0  0  0  0  0  0  0  0
  1  9  1  0  0  0  0
  1 11  1  0  0  0  0
  2  1  1  0  0  0  0
  2 12  1  0  0  0  0
  3  4  1  0  0  0  0
  3  2  1  0  0  0  0
  4 14  1  0  0  0  0
  4 16  1  0  0  0  0
  5  3  1  0  0  0  0
  6  5  3  0  0  0  0
  7  8  3  0  0  0  0
  7  3  1  0  0  0  0
 10  1  1  0  0  0  0
 13  2  1  0  0  0  0
 15  4  1  0  0  0  0
 17  6  1  0  0  0  0
 18  8  1  0  0  0  0
M  END
