title
 OpenBabel02282109583D

 17 16  0  0  1  0  0  0  0  0999 V2000
   -0.5935    1.9468    1.4194 C   0  0  0  0  0  0  0  0  0  0  0  0
   -0.4788    0.4249    1.3202 C   0  0  0  0  0  0  0  0  0  0  0  0
    0.2570   -0.1022    0.0442 C   0  0  1  0  0  0  0  0  0  0  0  0
    1.7258    0.3952   -0.0227 C   0  0  0  0  0  0  0  0  0  0  0  0
    0.2358   -1.5703    0.0568 C   0  0  0  0  0  0  0  0  0  0  0  0
    0.2367   -2.7699    0.1071 C   0  0  0  0  0  0  0  0  0  0  0  0
   -0.4610    0.3739   -1.1571 C   0  0  0  0  0  0  0  0  0  0  0  0
   -1.0190    0.7775   -2.0850 N   0  0  0  0  0  0  0  0  0  0  0  0
    0.3832    2.4302    1.5114 H   0  0  0  0  0  0  0  0  0  0  0  0
   -1.1008    2.3656    0.5451 H   0  0  0  0  0  0  0  0  0  0  0  0
   -1.1766    2.2155    2.3049 H   0  0  0  0  0  0  0  0  0  0  0  0
    0.0641    0.0211    2.1813 H   0  0  0  0  0  0  0  0  0  0  0  0
   -1.4753   -0.0261    1.3359 H   0  0  0  0  0  0  0  0  0  0  0  0
    2.2548    0.0726    0.8775 H   0  0  0  0  0  0  0  0  0  0  0  0
    2.2302   -0.0255   -0.8944 H   0  0  0  0  0  0  0  0  0  0  0  0
    1.7622    1.4841   -0.0907 H   0  0  0  0  0  0  0  0  0  0  0  0
    0.2302   -3.8318    0.1369 H   0  0  0  0  0  0  0  0  0  0  0  0
  1  9  1  0  0  0  0
  1 11  1  0  0  0  0
  2 13  1  0  0  0  0
  2  1  1  0  0  0  0
  2 12  1  0  0  0  0
  3  7  1  6  0  0  0
  3  5  1  0  0  0  0
  3  2  1  0  0  0  0
  4  3  1  0  0  0  0
  4 14  1  0  0  0  0
  5  6  3  0  0  0  0
  6 17  1  0  0  0  0
  8  7  3  0  0  0  0
 10  1  1  0  0  0  0
 15  4  1  0  0  0  0
 16  4  1  0  0  0  0
M  END
