16
title
C -0.5945167 1.9609185 1.4097427
C -0.4835526 0.43864354 1.3183265
C 0.25292265 -0.08182691 0.039482534
C 1.7276121 0.39608276 -0.030168593
C 0.2319674 -1.5566212 0.06785399
N 0.23722877 -2.7094917 0.13403612
C -0.46538752 0.3754616 -1.165595
N -1.0219475 0.775835 -2.0949862
H 0.38323295 2.4425657 1.4972769
H -1.1056648 2.3770227 0.5366372
H -1.1736681 2.2312448 2.2968056
H 0.06032915 0.037059918 2.1795306
H -1.4807957 -0.010656103 1.3343142
H 2.2543175 0.07777874 0.8726
H 2.228814 -0.031617686 -0.90016896
H 1.7656289 1.4837162 -0.105401576
