title
 OpenBabel02282109583D

 15 14  0  0  1  0  0  0  0  0999 V2000
   -0.5022    1.9286    1.4439 C   0  0  0  0  0  0  0  0  0  0  0  0
   -0.5559    0.4080    1.3023 C   0  0  0  0  0  0  0  0  0  0  0  0
    0.2162   -0.1175    0.0588 C   0  0  1  0  0  0  0  0  0  0  0  0
    1.5719    0.3289    0.0698 O   0  0  0  0  0  0  0  0  0  0  0  0
    0.1459   -1.5837    0.0040 C   0  0  0  0  0  0  0  0  0  0  0  0
    0.1247   -2.7843    0.0219 C   0  0  0  0  0  0  0  0  0  0  0  0
   -0.3909    0.4431   -1.1735 C   0  0  0  0  0  0  0  0  0  0  0  0
   -0.8994    0.8895   -2.1089 N   0  0  0  0  0  0  0  0  0  0  0  0
    0.5324    2.2766    1.4840 H   0  0  0  0  0  0  0  0  0  0  0  0
   -0.9967    2.4231    0.6027 H   0  0  0  0  0  0  0  0  0  0  0  0
   -1.0082    2.2378    2.3625 H   0  0  0  0  0  0  0  0  0  0  0  0
   -0.1025   -0.0808    2.1718 H   0  0  0  0  0  0  0  0  0  0  0  0
   -1.5893    0.0520    1.2379 H   0  0  0  0  0  0  0  0  0  0  0  0
    2.0792   -0.3168    0.5742 H   0  0  0  0  0  0  0  0  0  0  0  0
    0.0992   -3.8468    0.0153 H   0  0  0  0  0  0  0  0  0  0  0  0
  1  9  1  0  0  0  0
  1 11  1  0  0  0  0
  2  1  1  0  0  0  0
  2 12  1  0  0  0  0
  3  7  1  6  0  0  0
  3  4  1  0  0  0  0
  3  2  1  0  0  0  0
  4 14  1  0  0  0  0
  5  6  3  0  0  0  0
  5  3  1  0  0  0  0
  8  7  3  0  0  0  0
 10  1  1  0  0  0  0
 13  2  1  0  0  0  0
 15  6  1  0  0  0  0
M  END
