15
title
C -0.5022077 1.9286226 1.4438989
C -0.5558644 0.40801662 1.3022625
C 0.21616316 -0.117543004 0.05877555
O 1.5718926 0.32892928 0.06978608
C 0.1459018 -1.5837042 0.004020578
C 0.12470341 -2.7842965 0.021926409
C -0.39092088 0.44310203 -1.1735153
N -0.8993913 0.88946444 -2.1088855
H 0.5324454 2.2766497 1.4840376
H -0.9966721 2.4231234 0.6027008
H -1.0081714 2.2377958 2.362468
H -0.102497995 -0.08076512 2.1717951
H -1.5892923 0.052005533 1.2379279
H 2.0792403 -0.31684464 0.57421786
H 0.09917897 -3.8467996 0.015264279
