title
 OpenBabel02282109583D

 14 13  0  0  0  0  0  0  0  0999 V2000
    1.4354    1.9972    0.2176 C   0  0  0  0  0  0  0  0  0  0  0  0
    1.3828    0.4701    0.1904 C   0  0  0  0  0  0  0  0  0  0  0  0
   -0.0685   -0.0854    0.2235 C   0  0  0  0  0  0  0  0  0  0  0  0
   -0.7980    0.3650    1.3507 O   0  0  0  0  0  0  0  0  0  0  0  0
   -0.8155    0.3798   -0.9655 C   0  0  0  0  0  0  0  0  0  0  0  0
   -1.3547    0.7572   -1.9132 N   0  0  0  0  0  0  0  0  0  0  0  0
   -0.0181   -1.5695    0.2034 C   0  0  0  0  0  0  0  0  0  0  0  0
    0.0637   -2.7203    0.2542 N   0  0  0  0  0  0  0  0  0  0  0  0
    2.4753    2.3316    0.2510 H   0  0  0  0  0  0  0  0  0  0  0  0
    0.9703    2.4254   -0.6747 H   0  0  0  0  0  0  0  0  0  0  0  0
    0.9171    2.3924    1.0943 H   0  0  0  0  0  0  0  0  0  0  0  0
    1.8804    0.0716   -0.6995 H   0  0  0  0  0  0  0  0  0  0  0  0
    1.8992    0.0430    1.0582 H   0  0  0  0  0  0  0  0  0  0  0  0
   -0.3686    0.0144    2.1410 H   0  0  0  0  0  0  0  0  0  0  0  0
  1  9  1  0  0  0  0
  1 11  1  0  0  0  0
  2  1  1  0  0  0  0
  2  3  1  0  0  0  0
  2 13  1  0  0  0  0
  3  4  1  0  0  0  0
  4 14  1  0  0  0  0
  5  3  1  0  0  0  0
  6  5  3  0  0  0  0
  7  3  1  0  0  0  0
  7  8  3  0  0  0  0
 10  1  1  0  0  0  0
 12  2  1  0  0  0  0
M  END
