16
title
C -0.519793 1.884616 1.3896934
N -0.50831956 0.4352242 1.2158408
C 0.23467246 -0.08166947 0.05562793
C 1.7164658 0.38150185 -0.04883648
C 0.19630834 -1.5505884 0.11296962
C 0.21151188 -2.7477884 0.19361566
C -0.47416583 0.3654805 -1.17232
N -0.99366164 0.74472404 -2.131447
H 0.464848 2.3439937 1.567794
H -0.95936304 2.351863 0.50313777
H -1.1633071 2.1206737 2.2412086
H -0.16350466 -0.034510277 2.0452423
H 2.2515779 0.062927134 0.84957397
H 2.195939 -0.066764764 -0.92170227
H 1.7740613 1.4680135 -0.13897659
H 0.2061356 -3.8086243 0.2525921
