16
title
C -0.75001675 1.5277498 1.3000786
O -0.6879593 0.1134259 1.2160771
C -0.032301933 -0.4121777 0.06475291
C -0.108619064 -1.9424853 0.22796598
C -0.72010237 -0.0031985783 -1.1769631
C -1.3045182 0.30979398 -2.1789157
C 1.3796164 0.018582925 0.008871288
C 2.5344343 0.34936267 -0.01099649
H 0.2519559 1.9739938 1.3352346
H -1.3035092 1.9579834 0.45576617
H -1.2776735 1.7523974 2.2291965
H -1.1575245 -2.2414625 0.27804407
H 0.37311253 -2.4390328 -0.6159524
H 0.3947203 -2.2253702 1.1546391
H -1.813951 0.59177107 -3.0674827
H 3.554464 0.6450407 -0.03742054
