title
 OpenBabel02282109583D

 13 12  0  0  0  0  0  0  0  0999 V2000
    0.0847    1.6479    0.0207 N   0  0  0  0  0  0  0  0  0  0  0  0
    0.1048    0.1843   -0.1287 C   0  0  0  0  0  0  0  0  0  0  0  0
    0.8644   -0.3865    1.1154 C   0  0  0  0  0  0  0  0  0  0  0  0
    0.2417    0.0188    2.2935 O   0  0  0  0  0  0  0  0  0  0  0  0
   -1.2856   -0.3065   -0.1321 C   0  0  0  0  0  0  0  0  0  0  0  0
   -2.3752   -0.6861   -0.1483 N   0  0  0  0  0  0  0  0  0  0  0  0
    0.7832   -0.2660   -1.3649 C   0  0  0  0  0  0  0  0  0  0  0  0
    1.3771   -0.5739   -2.3069 N   0  0  0  0  0  0  0  0  0  0  0  0
    1.0050    2.0205   -0.1991 H   0  0  0  0  0  0  0  0  0  0  0  0
   -0.5766    2.0696   -0.6241 H   0  0  0  0  0  0  0  0  0  0  0  0
    0.8603   -1.4783    1.0810 H   0  0  0  0  0  0  0  0  0  0  0  0
    1.9077   -0.0406    1.0329 H   0  0  0  0  0  0  0  0  0  0  0  0
    0.0949    0.9721    2.2162 H   0  0  0  0  0  0  0  0  0  0  0  0
  2  1  1  0  0  0  0
  2  3  1  0  0  0  0
  3  4  1  0  0  0  0
  5  2  1  0  0  0  0
  6  5  3  0  0  0  0
  7  2  1  0  0  0  0
  8  7  3  0  0  0  0
  9  1  1  0  0  0  0
 10  1  1  0  0  0  0
 11  3  1  0  0  0  0
 12  3  1  0  0  0  0
 13  4  1  0  0  0  0
M  END
