15
title
N -1.0769322 1.8446904 -0.9177927
C -0.9558822 0.39569056 -1.0060505
C -0.13504712 -0.12927803 0.22367013
N -0.67758995 0.32482383 1.510658
C -0.08198247 -1.5927542 0.17740297
C -0.09126059 -2.7912886 0.11550211
C 1.2413503 0.4168834 0.087434284
N 2.2838478 0.88752174 -0.07402534
H -0.22942464 2.2967443 -1.2466904
H -1.8410665 2.177617 -1.4934042
H -1.9517807 -0.050283853 -0.9274259
H -0.49013337 0.02081525 -1.9288062
H -1.011045 1.2772259 1.363904
H -1.480655 -0.25242612 1.7416899
H -0.07937286 -3.8528597 0.07160949
