title
 OpenBabel02282109583D

 14 13  0  0  1  0  0  0  0  0999 V2000
   -1.1539    1.8080   -0.8626 N   0  0  0  0  0  0  0  0  0  0  0  0
   -0.8792    0.3919   -1.0812 C   0  0  0  0  0  0  0  0  0  0  0  0
   -0.1284   -0.1479    0.1792 C   0  0  1  0  0  0  0  0  0  0  0  0
   -0.8238    0.2509    1.3350 O   0  0  0  0  0  0  0  0  0  0  0  0
   -0.0272   -1.6066    0.1254 C   0  0  0  0  0  0  0  0  0  0  0  0
    0.0419   -2.8009    0.0332 C   0  0  0  0  0  0  0  0  0  0  0  0
    1.2434    0.4457    0.1783 C   0  0  0  0  0  0  0  0  0  0  0  0
    2.2754    0.9650    0.1506 N   0  0  0  0  0  0  0  0  0  0  0  0
   -0.3605    2.3836   -1.1246 H   0  0  0  0  0  0  0  0  0  0  0  0
   -1.9555    2.1167   -1.3981 H   0  0  0  0  0  0  0  0  0  0  0  0
   -1.8265   -0.1502   -1.1302 H   0  0  0  0  0  0  0  0  0  0  0  0
   -0.2972    0.1600   -1.9817 H   0  0  0  0  0  0  0  0  0  0  0  0
   -1.1655    1.1346    1.1019 H   0  0  0  0  0  0  0  0  0  0  0  0
    0.1106   -3.8595   -0.0283 H   0  0  0  0  0  0  0  0  0  0  0  0
  2  1  1  0  0  0  0
  2  3  1  0  0  0  0
  3  5  1  6  0  0  0
  3  4  1  0  0  0  0
  6  5  3  0  0  0  0
  7  3  1  0  0  0  0
  8  7  3  0  0  0  0
  9  1  1  0  0  0  0
 10  1  1  0  0  0  0
 11  2  1  0  0  0  0
 12  2  1  0  0  0  0
 13  4  1  0  0  0  0
 14  6  1  0  0  0  0
M  END
