16
title
C 0.07212602 1.7867758 -0.0141210575
C 0.11650275 0.23755987 -0.042532198
C 0.8427949 -0.29679787 1.2200478
O 0.17349759 0.20340817 2.3652093
C -1.3392606 -0.26352718 -0.016044946
O -1.8711252 -0.8981988 -0.88531095
C 0.82451016 -0.24399632 -1.2235793
C 1.4411225 -0.63176596 -2.1785636
H 1.0903231 2.1849203 0.004322848
H -0.4320939 2.1717932 -0.9037009
H -0.4515088 2.1330996 0.8792685
H 0.8406935 -1.3958899 1.195541
H 1.8891487 0.03945793 1.1807423
H 0.5895309 -0.16900691 3.1477432
H -1.8767972 0.034111943 0.9074733
H 1.967034 -0.9801306 -3.0329928
