title
 OpenBabel02282109583D

 15 14  0  0  1  0  0  0  0  0999 V2000
   -0.0323    1.7714   -0.2603 C   0  0  0  0  0  0  0  0  0  0  0  0
   -0.1406    0.2310   -0.1196 C   0  0  1  0  0  0  0  0  0  0  0  0
    0.4318   -0.2418    1.2452 C   0  0  0  0  0  0  0  0  0  0  0  0
    1.7872    0.1097    1.4036 O   0  0  0  0  0  0  0  0  0  0  0  0
   -1.6250   -0.1503   -0.2490 C   0  0  0  0  0  0  0  0  0  0  0  0
   -2.3020   -0.4796    0.6856 O   0  0  0  0  0  0  0  0  0  0  0  0
    0.6065   -0.4175   -1.2029 C   0  0  0  0  0  0  0  0  0  0  0  0
    1.2096   -0.9498   -2.0338 N   0  0  0  0  0  0  0  0  0  0  0  0
    1.0076    2.0680   -0.1138 H   0  0  0  0  0  0  0  0  0  0  0  0
   -0.3669    2.1096   -1.2440 H   0  0  0  0  0  0  0  0  0  0  0  0
   -0.6467    2.2487    0.5080 H   0  0  0  0  0  0  0  0  0  0  0  0
   -0.1255    0.2624    2.0374 H   0  0  0  0  0  0  0  0  0  0  0  0
    0.2643   -1.3205    1.3548 H   0  0  0  0  0  0  0  0  0  0  0  0
    2.3169   -0.4520    0.8265 H   0  0  0  0  0  0  0  0  0  0  0  0
   -2.0378   -0.0613   -1.2763 H   0  0  0  0  0  0  0  0  0  0  0  0
  1  2  1  0  0  0  0
  1  9  1  0  0  0  0
  1 11  1  0  0  0  0
  2  7  1  6  0  0  0
  2  3  1  0  0  0  0
  3 13  1  0  0  0  0
  3  4  1  0  0  0  0
  3 12  1  0  0  0  0
  5  2  1  0  0  0  0
  5  6  2  0  0  0  0
  8  7  3  0  0  0  0
 10  1  1  0  0  0  0
 14  4  1  0  0  0  0
 15  5  1  0  0  0  0
M  END
