title
 OpenBabel02282109583D

 17 16  0  0  1  0  0  0  0  0999 V2000
   -0.5327    1.9541    1.5607 C   0  0  0  0  0  0  0  0  0  0  0  0
   -0.4331    0.4342    1.4097 C   0  0  0  0  0  0  0  0  0  0  0  0
    0.3105   -0.0526    0.1268 C   0  0  1  0  0  0  0  0  0  0  0  0
    1.7819    0.4260    0.0898 C   0  0  0  0  0  0  0  0  0  0  0  0
    0.3212   -1.5875    0.1806 C   0  0  0  0  0  0  0  0  0  0  0  0
   -0.2239   -2.3237   -0.5909 O   0  0  0  0  0  0  0  0  0  0  0  0
   -0.3995    0.4088   -1.0706 C   0  0  0  0  0  0  0  0  0  0  0  0
   -0.9523    0.8153   -1.9997 N   0  0  0  0  0  0  0  0  0  0  0  0
    0.4490    2.4215    1.6773 H   0  0  0  0  0  0  0  0  0  0  0  0
   -1.0263    2.4052    0.6952 H   0  0  0  0  0  0  0  0  0  0  0  0
   -1.1209    2.1995    2.4495 H   0  0  0  0  0  0  0  0  0  0  0  0
    0.0895    0.0044    2.2731 H   0  0  0  0  0  0  0  0  0  0  0  0
   -1.4392    0.0011    1.4005 H   0  0  0  0  0  0  0  0  0  0  0  0
    2.3097    0.0724    0.9811 H   0  0  0  0  0  0  0  0  0  0  0  0
    2.2938    0.0409   -0.7957 H   0  0  0  0  0  0  0  0  0  0  0  0
    1.8354    1.5156    0.0658 H   0  0  0  0  0  0  0  0  0  0  0  0
    0.9038   -1.9709    1.0495 H   0  0  0  0  0  0  0  0  0  0  0  0
  1  9  1  0  0  0  0
  1 11  1  0  0  0  0
  2  1  1  0  0  0  0
  2 12  1  0  0  0  0
  3  7  1  6  0  0  0
  3  5  1  0  0  0  0
  3  2  1  0  0  0  0
  4  3  1  0  0  0  0
  4 14  1  0  0  0  0
  5 17  1  0  0  0  0
  6  5  2  0  0  0  0
  8  7  3  0  0  0  0
 10  1  1  0  0  0  0
 13  2  1  0  0  0  0
 15  4  1  0  0  0  0
 16  4  1  0  0  0  0
M  END
