title
 OpenBabel02282109583D

 15 14  0  0  1  0  0  0  0  0999 V2000
   -0.5680    1.8513    1.5116 C   0  0  0  0  0  0  0  0  0  0  0  0
   -0.5611    0.3457    1.2435 C   0  0  0  0  0  0  0  0  0  0  0  0
    0.3174   -0.0710    0.0496 C   0  0  1  0  0  0  0  0  0  0  0  0
    1.6962    0.1975    0.2355 O   0  0  0  0  0  0  0  0  0  0  0  0
    0.2603   -1.6078   -0.1638 C   0  0  0  0  0  0  0  0  0  0  0  0
   -0.6849   -2.2840    0.1204 O   0  0  0  0  0  0  0  0  0  0  0  0
   -0.1598    0.5547   -1.2043 C   0  0  0  0  0  0  0  0  0  0  0  0
   -0.5135    1.0578   -2.1835 N   0  0  0  0  0  0  0  0  0  0  0  0
    0.4342    2.2236    1.7514 H   0  0  0  0  0  0  0  0  0  0  0  0
   -0.9471    2.4119    0.6514 H   0  0  0  0  0  0  0  0  0  0  0  0
   -1.2077    2.0791    2.3681 H   0  0  0  0  0  0  0  0  0  0  0  0
   -0.1787   -0.1971    2.1140 H   0  0  0  0  0  0  0  0  0  0  0  0
   -1.5726   -0.0254    1.0552 H   0  0  0  0  0  0  0  0  0  0  0  0
    1.8329    1.1511    0.2337 H   0  0  0  0  0  0  0  0  0  0  0  0
    1.1976   -2.0090   -0.5991 H   0  0  0  0  0  0  0  0  0  0  0  0
  1  9  1  0  0  0  0
  1 11  1  0  0  0  0
  2  1  1  0  0  0  0
  2 12  1  0  0  0  0
  3  7  1  6  0  0  0
  3  4  1  0  0  0  0
  3  2  1  0  0  0  0
  5  3  1  0  0  0  0
  5  6  2  0  0  0  0
  8  7  3  0  0  0  0
 10  1  1  0  0  0  0
 13  2  1  0  0  0  0
 14  4  1  0  0  0  0
 15  5  1  0  0  0  0
M  END
