title
 OpenBabel02282109583D

 16 15  0  0  1  0  0  0  0  0999 V2000
   -0.5303    1.9161    1.4049 C   0  0  0  0  0  0  0  0  0  0  0  0
   -0.3545    0.4688    1.2758 N   0  0  0  0  0  0  0  0  0  0  0  0
    0.1843   -0.0268    0.0020 C   0  0  1  0  0  0  0  0  0  0  0  0
    1.6769    0.2447   -0.2487 C   0  0  0  0  0  0  0  0  0  0  0  0
   -0.1083   -1.5530    0.0776 C   0  0  0  0  0  0  0  0  0  0  0  0
    0.7493   -2.3826    0.1867 O   0  0  0  0  0  0  0  0  0  0  0  0
   -0.6282    0.5009   -1.1064 C   0  0  0  0  0  0  0  0  0  0  0  0
   -1.2551    0.8839   -1.9984 N   0  0  0  0  0  0  0  0  0  0  0  0
    0.3899    2.5030    1.2615 H   0  0  0  0  0  0  0  0  0  0  0  0
   -1.2719    2.2599    0.6793 H   0  0  0  0  0  0  0  0  0  0  0  0
   -0.9172    2.1255    2.4053 H   0  0  0  0  0  0  0  0  0  0  0  0
    0.2448    0.1215    2.0177 H   0  0  0  0  0  0  0  0  0  0  0  0
    2.2646   -0.2570    0.5234 H   0  0  0  0  0  0  0  0  0  0  0  0
    1.9895   -0.1493   -1.2188 H   0  0  0  0  0  0  0  0  0  0  0  0
    1.8826    1.3169   -0.2264 H   0  0  0  0  0  0  0  0  0  0  0  0
   -1.1898   -1.7905    0.0931 H   0  0  0  0  0  0  0  0  0  0  0  0
  1 11  1  0  0  0  0
  2  1  1  0  0  0  0
  2 12  1  0  0  0  0
  3  7  1  6  0  0  0
  3  5  1  0  0  0  0
  3  2  1  0  0  0  0
  4 15  1  0  0  0  0
  4  3  1  0  0  0  0
  4 13  1  0  0  0  0
  5 16  1  0  0  0  0
  5  6  2  0  0  0  0
  8  7  3  0  0  0  0
  9  1  1  0  0  0  0
 10  1  1  0  0  0  0
 14  4  1  0  0  0  0
M  END
