16
title
C -0.5302755 1.9160527 1.4049158
N -0.35448757 0.46876886 1.2758071
C 0.18425497 -0.026826136 0.0020245574
C 1.6768708 0.24473289 -0.24873123
C -0.108328074 -1.5529743 0.0775601
O 0.7492891 -2.3826265 0.18670502
C -0.6282218 0.5008615 -1.1063648
N -1.2551082 0.8838892 -1.9983593
H 0.38986441 2.503028 1.2614731
H -1.2719173 2.2598748 0.6792639
H -0.9172361 2.1254687 2.4053373
H 0.24476406 0.12150494 2.0177104
H 2.2646303 -0.25704095 0.52341807
H 1.9895306 -0.149301 -1.2188002
H 1.8826334 1.3168775 -0.22641346
H -1.1898186 -1.7905475 0.09314719
