title
 OpenBabel02282109583D

 15 14  0  0  1  0  0  0  0  0999 V2000
   -0.3950    1.9256    1.4005 C   0  0  0  0  0  0  0  0  0  0  0  0
   -0.3752    0.5093    1.2789 O   0  0  0  0  0  0  0  0  0  0  0  0
    0.1731   -0.0149    0.0882 C   0  0  1  0  0  0  0  0  0  0  0  0
    1.6653    0.2691   -0.1123 C   0  0  0  0  0  0  0  0  0  0  0  0
   -0.0813   -1.5429    0.2294 C   0  0  0  0  0  0  0  0  0  0  0  0
    0.6468   -2.3837   -0.2110 O   0  0  0  0  0  0  0  0  0  0  0  0
   -0.6079    0.4353   -1.0906 C   0  0  0  0  0  0  0  0  0  0  0  0
   -1.2336    0.7836   -1.9982 N   0  0  0  0  0  0  0  0  0  0  0  0
    0.6163    2.3458    1.4596 H   0  0  0  0  0  0  0  0  0  0  0  0
   -0.9321    2.3915    0.5647 H   0  0  0  0  0  0  0  0  0  0  0  0
   -0.9233    2.1405    2.3307 H   0  0  0  0  0  0  0  0  0  0  0  0
    2.1974    0.0215    0.8097 H   0  0  0  0  0  0  0  0  0  0  0  0
    2.0463   -0.3638   -0.9159 H   0  0  0  0  0  0  0  0  0  0  0  0
    1.8451    1.3148   -0.3674 H   0  0  0  0  0  0  0  0  0  0  0  0
   -1.0071   -1.7634    0.7967 H   0  0  0  0  0  0  0  0  0  0  0  0
  1  9  1  0  0  0  0
  1 11  1  0  0  0  0
  2  1  1  0  0  0  0
  3  7  1  6  0  0  0
  3  5  1  0  0  0  0
  3  2  1  0  0  0  0
  4  3  1  0  0  0  0
  4 12  1  0  0  0  0
  5 15  1  0  0  0  0
  6  5  2  0  0  0  0
  8  7  3  0  0  0  0
 10  1  1  0  0  0  0
 13  4  1  0  0  0  0
 14  4  1  0  0  0  0
M  END
