title
 OpenBabel02282109583D

 16 15  0  0  0  0  0  0  0  0999 V2000
   -0.2430    1.7114   -0.1950 C   0  0  0  0  0  0  0  0  0  0  0  0
    0.0680    0.2073   -0.1054 C   0  0  0  0  0  0  0  0  0  0  0  0
    0.9587   -0.1606    1.0803 C   0  0  0  0  0  0  0  0  0  0  0  0
    0.2405    0.1830    2.2563 O   0  0  0  0  0  0  0  0  0  0  0  0
   -1.2404   -0.5961   -0.0107 C   0  0  0  0  0  0  0  0  0  0  0  0
   -2.2954   -0.2224   -0.4476 O   0  0  0  0  0  0  0  0  0  0  0  0
    0.7280   -0.2337   -1.4151 C   0  0  0  0  0  0  0  0  0  0  0  0
    1.7276   -0.8992   -1.4868 O   0  0  0  0  0  0  0  0  0  0  0  0
    0.6633    2.2839   -0.4146 H   0  0  0  0  0  0  0  0  0  0  0  0
   -0.9841    1.9009   -0.9739 H   0  0  0  0  0  0  0  0  0  0  0  0
   -0.6491    2.0547    0.7581 H   0  0  0  0  0  0  0  0  0  0  0  0
    1.1880   -1.2348    1.0427 H   0  0  0  0  0  0  0  0  0  0  0  0
    1.9135    0.3784    1.0074 H   0  0  0  0  0  0  0  0  0  0  0  0
    0.7619   -0.0797    3.0203 H   0  0  0  0  0  0  0  0  0  0  0  0
   -1.1282   -1.5916    0.4700 H   0  0  0  0  0  0  0  0  0  0  0  0
    0.1971    0.1236   -2.3240 H   0  0  0  0  0  0  0  0  0  0  0  0
  1  2  1  0  0  0  0
  1 11  1  0  0  0  0
  2  5  1  0  0  0  0
  2  3  1  0  0  0  0
  3  4  1  0  0  0  0
  4 14  1  0  0  0  0
  5 15  1  0  0  0  0
  6  5  2  0  0  0  0
  7  2  1  0  0  0  0
  8  7  2  0  0  0  0
  9  1  1  0  0  0  0
 10  1  1  0  0  0  0
 12  3  1  0  0  0  0
 13  3  1  0  0  0  0
 16  7  1  0  0  0  0
M  END
