18
title
C -1.3161858 1.9579926 0.9971463
C -1.016431 0.46181282 0.8543314
C -0.07559875 0.063496344 -0.31187847
C -0.5932198 0.5495089 -1.6844119
C 1.3141947 0.64436996 -0.07719568
O 2.253769 0.008472793 0.327911
C 0.06082484 -1.460502 -0.38041773
O -0.6124516 -2.2369714 0.24214448
H -0.4147633 2.5487134 1.1891305
H -1.8011329 2.3673124 0.1059074
H -1.9944161 2.1199448 1.8400184
H -0.5825869 0.0792635 1.784305
H -1.9483035 -0.09506316 0.7131533
H -0.51597095 1.6373408 -1.7703742
H -0.015285344 0.11141502 -2.5053213
H -1.642105 0.2701338 -1.8194426
H 1.4126782 1.7299707 -0.30577603
H 0.8307033 -1.811469 -1.1012205
