title
 OpenBabel02282109583D

 18 17  0  0  0  0  0  0  0  0999 V2000
   -1.3162    1.9580    0.9971 C   0  0  0  0  0  0  0  0  0  0  0  0
   -1.0164    0.4618    0.8543 C   0  0  0  0  0  0  0  0  0  0  0  0
   -0.0756    0.0635   -0.3119 C   0  0  0  0  0  0  0  0  0  0  0  0
   -0.5932    0.5495   -1.6844 C   0  0  0  0  0  0  0  0  0  0  0  0
    1.3142    0.6444   -0.0772 C   0  0  0  0  0  0  0  0  0  0  0  0
    2.2538    0.0085    0.3279 O   0  0  0  0  0  0  0  0  0  0  0  0
    0.0608   -1.4605   -0.3804 C   0  0  0  0  0  0  0  0  0  0  0  0
   -0.6125   -2.2370    0.2421 O   0  0  0  0  0  0  0  0  0  0  0  0
   -0.4148    2.5487    1.1891 H   0  0  0  0  0  0  0  0  0  0  0  0
   -1.8011    2.3673    0.1059 H   0  0  0  0  0  0  0  0  0  0  0  0
   -1.9944    2.1199    1.8400 H   0  0  0  0  0  0  0  0  0  0  0  0
   -0.5826    0.0793    1.7843 H   0  0  0  0  0  0  0  0  0  0  0  0
   -1.9483   -0.0951    0.7132 H   0  0  0  0  0  0  0  0  0  0  0  0
   -0.5160    1.6373   -1.7704 H   0  0  0  0  0  0  0  0  0  0  0  0
   -0.0153    0.1114   -2.5053 H   0  0  0  0  0  0  0  0  0  0  0  0
   -1.6421    0.2701   -1.8194 H   0  0  0  0  0  0  0  0  0  0  0  0
    1.4127    1.7300   -0.3058 H   0  0  0  0  0  0  0  0  0  0  0  0
    0.8307   -1.8115   -1.1012 H   0  0  0  0  0  0  0  0  0  0  0  0
  1  9  1  0  0  0  0
  1 11  1  0  0  0  0
  2  1  1  0  0  0  0
  2 12  1  0  0  0  0
  3  5  1  0  0  0  0
  3  2  1  0  0  0  0
  4  3  1  0  0  0  0
  5  6  2  0  0  0  0
  7  3  1  0  0  0  0
  7  8  2  0  0  0  0
 10  1  1  0  0  0  0
 13  2  1  0  0  0  0
 14  4  1  0  0  0  0
 15  4  1  0  0  0  0
 16  4  1  0  0  0  0
 17  5  1  0  0  0  0
 18  7  1  0  0  0  0
M  END
