title
 OpenBabel02282109583D

 14 13  0  0  0  0  0  0  0  0999 V2000
    1.2687    1.7346    0.5888 O   0  0  0  0  0  0  0  0  0  0  0  0
    1.2083    0.3204    0.5991 C   0  0  0  0  0  0  0  0  0  0  0  0
   -0.2424   -0.1227    0.2984 C   0  0  0  0  0  0  0  0  0  0  0  0
   -1.1479    0.5941    1.1195 O   0  0  0  0  0  0  0  0  0  0  0  0
   -0.6157    0.2041   -1.1577 C   0  0  0  0  0  0  0  0  0  0  0  0
    0.0306    0.9459   -1.8567 O   0  0  0  0  0  0  0  0  0  0  0  0
   -0.4093   -1.6034    0.5798 C   0  0  0  0  0  0  0  0  0  0  0  0
   -0.2027   -2.4515   -0.2498 O   0  0  0  0  0  0  0  0  0  0  0  0
    1.1654    1.9917   -0.3387 H   0  0  0  0  0  0  0  0  0  0  0  0
    1.8943   -0.1356   -0.1236 H   0  0  0  0  0  0  0  0  0  0  0  0
    1.4899   -0.0011    1.6064 H   0  0  0  0  0  0  0  0  0  0  0  0
   -0.7318    1.4617    1.2500 H   0  0  0  0  0  0  0  0  0  0  0  0
   -1.5751   -0.2286   -1.5022 H   0  0  0  0  0  0  0  0  0  0  0  0
   -0.7231   -1.8346    1.6201 H   0  0  0  0  0  0  0  0  0  0  0  0
  1  2  1  0  0  0  0
  2 11  1  0  0  0  0
  3  7  1  0  0  0  0
  3  2  1  0  0  0  0
  3  4  1  0  0  0  0
  4 12  1  0  0  0  0
  5  3  1  0  0  0  0
  6  5  2  0  0  0  0
  7 14  1  0  0  0  0
  8  7  2  0  0  0  0
  9  1  1  0  0  0  0
 10  2  1  0  0  0  0
 13  5  1  0  0  0  0
M  END
