18
title
C 0.10815516 1.9704921 -0.18144526
C 0.10107569 0.42957288 -0.18087973
C 0.8052293 -0.077220716 1.1035144
O 0.6443808 -1.4700644 1.3071767
C -1.3648843 -0.10480795 -0.20814683
O -2.0429182 0.12445872 1.0108997
C 0.80373573 -0.109440126 -1.3460056
C 1.3748928 -0.6047502 -2.2826767
H 1.1175507 2.3641045 -0.028754052
H -0.2654955 2.3587146 -1.1325624
H -0.53905493 2.3338544 0.621743
H 1.8653371 0.21017417 1.0726804
H 0.34628317 0.4103951 1.9676875
H 1.0347925 -1.9174092 0.5467043
H -1.9207543 0.42359367 -0.9889731
H -1.3547646 -1.1698955 -0.46427238
H -1.7477067 -0.55880344 1.6229833
H 1.877141 -1.0165823 -3.123163
