22
title
C -0.66512114 1.6883243 1.4104648
C -0.53998256 0.16653264 1.3079082
C 0.13882446 -0.36820245 0.013652221
C 0.19887769 -1.9123509 0.0891024
C -0.6020494 0.09010222 -1.279418
C -2.0774567 -0.3102244 -1.3837471
C 1.5138952 0.14188413 -0.05717431
C 2.641933 0.55469686 -0.12325345
H 0.31126273 2.169434 1.3005782
H -1.330261 2.09913 0.64431745
H -1.074188 1.9727316 2.3848512
H 0.03875119 -0.20541939 2.1611905
H -1.5311128 -0.295086 1.3871799
H -0.8042441 -2.3364284 0.19196881
H 0.6614228 -2.3299747 -0.8098388
H 0.7905336 -2.2304673 0.9519361
H -0.5144617 1.1782442 -1.3611777
H -0.053097244 -0.31848407 -2.1355586
H -2.214445 -1.3953295 -1.3537288
H -2.6809375 0.12531348 -0.58131397
H -2.4930573 0.043699965 -2.3324401
H 3.6381361 0.917765 -0.18027602
