21
title
C 1.7251778 1.981213 -0.17343894
C 1.5565958 0.46149018 -0.24462666
C 0.09171646 -0.063267924 -0.259681
C -0.6759414 0.46273655 -1.492694
C 0.12755781 -1.6188742 -0.24240956
C -1.2304273 -2.3214114 -0.16914089
C -0.5883698 0.4051653 0.96048623
N -1.1172664 0.76948196 1.9223027
H 2.786069 2.2372894 -0.09798073
H 1.3311404 2.4826062 -1.0621139
H 1.2179782 2.3958807 0.70302033
H 2.0442424 0.07310238 -1.1471505
H 2.0696766 0.0021833973 0.60786474
H -0.17755884 0.119261555 -2.4050903
H -1.7061234 0.10159018 -1.5050839
H -0.70830053 1.5538875 -1.5067561
H 0.6643409 -1.9359866 -1.1449043
H 0.7410596 -1.9317392 0.61004794
H -1.0887494 -3.4034204 -0.092059754
H -1.7988429 -1.9953872 0.70721394
H -1.8404386 -2.1349125 -1.0576818
