title
 OpenBabel02282109583D

 19 18  0  0  1  0  0  0  0  0999 V2000
   -1.0236    2.0429   -1.3723 C   0  0  0  0  0  0  0  0  0  0  0  0
   -0.9865    0.5180   -1.2440 C   0  0  0  0  0  0  0  0  0  0  0  0
   -0.2829   -0.0232    0.0272 C   0  0  1  0  0  0  0  0  0  0  0  0
   -0.9650    0.4484    1.3283 C   0  0  0  0  0  0  0  0  0  0  0  0
   -0.2761   -1.5796   -0.0223 C   0  0  0  0  0  0  0  0  0  0  0  0
    0.3974   -2.1726    1.0641 O   0  0  0  0  0  0  0  0  0  0  0  0
    1.1266    0.4027    0.0345 C   0  0  0  0  0  0  0  0  0  0  0  0
    2.2480    0.6869    0.0442 N   0  0  0  0  0  0  0  0  0  0  0  0
   -0.0142    2.4656   -1.3576 H   0  0  0  0  0  0  0  0  0  0  0  0
   -1.4931    2.3309   -2.3173 H   0  0  0  0  0  0  0  0  0  0  0  0
   -1.5969    2.5069   -0.5646 H   0  0  0  0  0  0  0  0  0  0  0  0
   -2.0082    0.1187   -1.2407 H   0  0  0  0  0  0  0  0  0  0  0  0
   -0.4873    0.0924   -2.1223 H   0  0  0  0  0  0  0  0  0  0  0  0
   -2.0325    0.2091    1.2839 H   0  0  0  0  0  0  0  0  0  0  0  0
   -0.5297   -0.0703    2.1842 H   0  0  0  0  0  0  0  0  0  0  0  0
   -0.8569    1.5244    1.4772 H   0  0  0  0  0  0  0  0  0  0  0  0
   -1.3139   -1.9241    0.0339 H   0  0  0  0  0  0  0  0  0  0  0  0
    0.1383   -1.9071   -0.9868 H   0  0  0  0  0  0  0  0  0  0  0  0
    1.3359   -1.9642    0.9843 H   0  0  0  0  0  0  0  0  0  0  0  0
  1  9  1  0  0  0  0
  1  2  1  0  0  0  0
  1 11  1  0  0  0  0
  2 12  1  0  0  0  0
  2  3  1  0  0  0  0
  3  7  1  1  0  0  0
  3  4  1  0  0  0  0
  4 16  1  0  0  0  0
  4 15  1  0  0  0  0
  5  3  1  0  0  0  0
  5 17  1  0  0  0  0
  5  6  1  0  0  0  0
  7  8  3  0  0  0  0
 10  1  1  0  0  0  0
 13  2  1  0  0  0  0
 14  4  1  0  0  0  0
 18  5  1  0  0  0  0
 19  6  1  0  0  0  0
M  END
