20
title
C 1.7242489 1.9515747 -0.17174055
C 1.5386081 0.43516234 -0.24965055
C 0.07150559 -0.07297032 -0.25923717
C -0.708705 0.47862148 -1.4767866
N 0.13708429 -1.5409635 -0.19570033
C -1.1290363 -2.267599 -0.1828427
C -0.5976396 0.39475352 0.97578293
N -1.1263915 0.78370225 1.9269613
H 2.7887259 2.1933937 -0.10282796
H 1.3293945 2.4629142 -1.0544388
H 1.22998 2.3670104 0.71155417
H 2.0109062 0.049918152 -1.1630172
H 2.0383637 -0.051491164 0.5930107
H -0.20555623 0.16612029 -2.397959
H -1.7328914 0.100545295 -1.494012
H -0.75824887 1.5697643 -1.4616754
H 0.71925527 -1.86225 -0.96195555
H -0.91385084 -3.334807 -0.07974867
H -1.7137629 -1.9620875 0.69010234
H -1.7570404 -2.133225 -1.0777117
