20
title
C -0.87014794 1.7140675 -1.2363881
C -0.87388206 0.18822294 -1.1403177
C -0.07755854 -0.3718606 0.067416
C -0.0976102 -1.9141436 0.055088803
O 1.2625854 0.1441261 0.10084109
C 2.1313488 -0.24622166 -0.9415493
C -0.68770576 0.09559126 1.3213643
C -1.2219263 0.4472629 2.3382642
H 0.14880608 2.1014955 -1.317662
H -1.4348488 2.0465233 -2.1125114
H -1.324576 2.1614847 -0.34792143
H -1.9009317 -0.18445331 -1.059103
H -0.46268055 -0.25105327 -2.0569296
H 0.27150628 -2.3066535 -0.8965477
H 0.52131224 -2.3043356 0.86677545
H -1.1198874 -2.273474 0.19528644
H 2.3364851 -1.325174 -0.9417922
H 1.7619116 0.038419485 -1.9365025
H 3.0715368 0.28133607 -0.76206577
H -1.6817768 0.76594377 3.2410011
