title
 OpenBabel02282109583D

 20 19  0  0  1  0  0  0  0  0999 V2000
   -0.8701    1.7141   -1.2364 C   0  0  0  0  0  0  0  0  0  0  0  0
   -0.8739    0.1882   -1.1403 C   0  0  0  0  0  0  0  0  0  0  0  0
   -0.0776   -0.3719    0.0674 C   0  0  1  0  0  0  0  0  0  0  0  0
   -0.0976   -1.9141    0.0551 C   0  0  0  0  0  0  0  0  0  0  0  0
    1.2626    0.1441    0.1008 O   0  0  0  0  0  0  0  0  0  0  0  0
    2.1313   -0.2462   -0.9415 C   0  0  0  0  0  0  0  0  0  0  0  0
   -0.6877    0.0956    1.3214 C   0  0  0  0  0  0  0  0  0  0  0  0
   -1.2219    0.4473    2.3383 C   0  0  0  0  0  0  0  0  0  0  0  0
    0.1488    2.1015   -1.3177 H   0  0  0  0  0  0  0  0  0  0  0  0
   -1.4348    2.0465   -2.1125 H   0  0  0  0  0  0  0  0  0  0  0  0
   -1.3246    2.1615   -0.3479 H   0  0  0  0  0  0  0  0  0  0  0  0
   -1.9009   -0.1845   -1.0591 H   0  0  0  0  0  0  0  0  0  0  0  0
   -0.4627   -0.2511   -2.0569 H   0  0  0  0  0  0  0  0  0  0  0  0
    0.2715   -2.3067   -0.8965 H   0  0  0  0  0  0  0  0  0  0  0  0
    0.5213   -2.3043    0.8668 H   0  0  0  0  0  0  0  0  0  0  0  0
   -1.1199   -2.2735    0.1953 H   0  0  0  0  0  0  0  0  0  0  0  0
    2.3365   -1.3252   -0.9418 H   0  0  0  0  0  0  0  0  0  0  0  0
    1.7619    0.0384   -1.9365 H   0  0  0  0  0  0  0  0  0  0  0  0
    3.0715    0.2813   -0.7621 H   0  0  0  0  0  0  0  0  0  0  0  0
   -1.6818    0.7659    3.2410 H   0  0  0  0  0  0  0  0  0  0  0  0
  1  2  1  0  0  0  0
  1 11  1  0  0  0  0
  2 12  1  0  0  0  0
  2  3  1  0  0  0  0
  3  5  1  0  0  0  0
  3  7  1  1  0  0  0
  4  3  1  0  0  0  0
  4 16  1  0  0  0  0
  4 15  1  0  0  0  0
  6 19  1  0  0  0  0
  6  5  1  0  0  0  0
  7  8  3  0  0  0  0
  8 20  1  0  0  0  0
  9  1  1  0  0  0  0
 10  1  1  0  0  0  0
 13  2  1  0  0  0  0
 14  4  1  0  0  0  0
 17  6  1  0  0  0  0
 18  6  1  0  0  0  0
M  END
