title
 OpenBabel02282109583D

 20 19  0  0  0  0  0  0  0  0999 V2000
    1.7081    1.9826   -0.1563 C   0  0  0  0  0  0  0  0  0  0  0  0
    1.5711    0.4593   -0.1735 C   0  0  0  0  0  0  0  0  0  0  0  0
    0.1091   -0.0710   -0.2475 C   0  0  0  0  0  0  0  0  0  0  0  0
   -0.6503    0.4001   -1.4177 N   0  0  0  0  0  0  0  0  0  0  0  0
    0.1277   -1.6223   -0.2648 C   0  0  0  0  0  0  0  0  0  0  0  0
   -1.2497   -2.2849   -0.2227 C   0  0  0  0  0  0  0  0  0  0  0  0
   -0.6108    0.3903    0.9586 C   0  0  0  0  0  0  0  0  0  0  0  0
   -1.1394    0.7607    1.9172 N   0  0  0  0  0  0  0  0  0  0  0  0
    2.7613    2.2694   -0.0898 H   0  0  0  0  0  0  0  0  0  0  0  0
    1.3043    2.4373   -1.0668 H   0  0  0  0  0  0  0  0  0  0  0  0
    1.1872    2.4188    0.7016 H   0  0  0  0  0  0  0  0  0  0  0  0
    2.1017    0.0437   -1.0398 H   0  0  0  0  0  0  0  0  0  0  0  0
    2.0493    0.0372    0.7179 H   0  0  0  0  0  0  0  0  0  0  0  0
   -0.7345    1.4116   -1.4052 H   0  0  0  0  0  0  0  0  0  0  0  0
   -0.1359    0.1551   -2.2601 H   0  0  0  0  0  0  0  0  0  0  0  0
    0.6599   -1.9168   -1.1789 H   0  0  0  0  0  0  0  0  0  0  0  0
    0.7410   -1.9664    0.5749 H   0  0  0  0  0  0  0  0  0  0  0  0
   -1.1492   -3.3721   -0.2907 H   0  0  0  0  0  0  0  0  0  0  0  0
   -1.7699   -2.0531    0.7115 H   0  0  0  0  0  0  0  0  0  0  0  0
   -1.8733   -1.9393   -1.0498 H   0  0  0  0  0  0  0  0  0  0  0  0
  1  9  1  0  0  0  0
  1 11  1  0  0  0  0
  2  1  1  0  0  0  0
  2 13  1  0  0  0  0
  3  2  1  0  0  0  0
  3  7  1  0  0  0  0
  4 14  1  0  0  0  0
  4  3  1  0  0  0  0
  5  3  1  0  0  0  0
  5  6  1  0  0  0  0
  5 17  1  0  0  0  0
  6 19  1  0  0  0  0
  7  8  3  0  0  0  0
 10  1  1  0  0  0  0
 12  2  1  0  0  0  0
 15  4  1  0  0  0  0
 16  5  1  0  0  0  0
 18  6  1  0  0  0  0
 20  6  1  0  0  0  0
M  END
