title
 OpenBabel02282109583D

 20 19  0  0  0  0  0  0  0  0999 V2000
   -0.7984    2.0430   -1.0738 C   0  0  0  0  0  0  0  0  0  0  0  0
   -0.7078    0.5161   -1.0915 C   0  0  0  0  0  0  0  0  0  0  0  0
    0.0287   -0.0839    0.1245 C   0  0  0  0  0  0  0  0  0  0  0  0
   -0.7429    0.2967    1.2728 O   0  0  0  0  0  0  0  0  0  0  0  0
    0.1341   -1.6308    0.0378 C   0  0  0  0  0  0  0  0  0  0  0  0
   -1.2120   -2.3593    0.0137 C   0  0  0  0  0  0  0  0  0  0  0  0
    1.3911    0.4636    0.2364 C   0  0  0  0  0  0  0  0  0  0  0  0
    2.5148    0.8722    0.3669 C   0  0  0  0  0  0  0  0  0  0  0  0
    0.1954    2.4988   -1.1065 H   0  0  0  0  0  0  0  0  0  0  0  0
   -1.3659    2.4035   -1.9370 H   0  0  0  0  0  0  0  0  0  0  0  0
   -1.2988    2.3858   -0.1651 H   0  0  0  0  0  0  0  0  0  0  0  0
   -1.7155    0.0894   -1.1004 H   0  0  0  0  0  0  0  0  0  0  0  0
   -0.2015    0.1719   -2.0002 H   0  0  0  0  0  0  0  0  0  0  0  0
   -0.2035    0.1353    2.0543 H   0  0  0  0  0  0  0  0  0  0  0  0
    0.7318   -1.8885   -0.8441 H   0  0  0  0  0  0  0  0  0  0  0  0
    0.7155   -1.9651    0.9061 H   0  0  0  0  0  0  0  0  0  0  0  0
   -1.8462   -2.0207    0.8370 H   0  0  0  0  0  0  0  0  0  0  0  0
   -1.7542   -2.1946   -0.9219 H   0  0  0  0  0  0  0  0  0  0  0  0
   -1.0599   -3.4378    0.1176 H   0  0  0  0  0  0  0  0  0  0  0  0
    3.5026    1.2478    0.4741 H   0  0  0  0  0  0  0  0  0  0  0  0
  1 11  1  0  0  0  0
  2  1  1  0  0  0  0
  2  3  1  0  0  0  0
  3  7  1  0  0  0  0
  3  4  1  0  0  0  0
  4 14  1  0  0  0  0
  5  3  1  0  0  0  0
  5 16  1  0  0  0  0
  6  5  1  0  0  0  0
  6 19  1  0  0  0  0
  6 17  1  0  0  0  0
  7  8  3  0  0  0  0
  8 20  1  0  0  0  0
  9  1  1  0  0  0  0
 10  1  1  0  0  0  0
 12  2  1  0  0  0  0
 13  2  1  0  0  0  0
 15  5  1  0  0  0  0
 18  6  1  0  0  0  0
M  END
