19
title
C -0.6007402 1.9328073 1.6365963
C -0.63089716 0.41267744 1.4715408
C 0.11622698 -0.10342412 0.21819508
O 1.4688333 0.3525253 0.20426059
C 0.04973341 -1.6473635 0.13312674
C 0.77784437 -2.2397358 -1.0743076
C -0.5070761 0.4767573 -0.99181473
N -1.0432787 0.90403485 -1.9213425
H 0.42779845 2.3019586 1.6458268
H -1.1279947 2.428723 0.81645864
H -1.0821635 2.2251308 2.5738757
H -0.16224991 -0.07304488 2.3383136
H -1.6641282 0.04974417 1.4350075
H 1.8970698 -0.014014143 0.9867247
H 0.48501045 -2.031922 1.0655917
H -1.0030372 -1.9511625 0.13505983
H 0.30980498 -1.9231442 -2.01093
H 1.8216163 -1.9166929 -1.0950652
H 0.7540167 -3.3323205 -1.0367855
