18
title
C -0.58197856 1.9299468 1.6503597
C -0.66440594 0.4146493 1.4541953
C 0.089660406 -0.10600137 0.20948453
O 1.4738436 0.23804432 0.2552925
C 0.058478836 -1.6424104 0.15045102
N 0.731133 -2.1143863 -1.0499814
C -0.5237833 0.4669007 -1.0129869
N -1.0121897 0.98856384 -1.9212911
H 0.45369363 2.2572062 1.789924
H -1.00411 2.4684184 0.79620993
H -1.1380813 2.229115 2.5427907
H -0.2338281 -0.09843253 2.3209236
H -1.7121398 0.10285584 1.3770105
H 1.5662014 1.1816893 0.0877672
H 0.49890614 -1.9928294 1.0992465
H -0.98578316 -1.9702641 0.1282819
H 1.7106876 -1.85382 -1.008831
H 0.6846559 -3.1253147 -1.1083462
