18
title
C -0.53247464 1.6115859 1.2982954
O -0.63547266 0.21249537 1.0837102
C 0.147019 -0.3483441 0.012881481
C 0.08672193 -1.8650723 0.23718193
C -0.522793 0.03719329 -1.3325413
O -1.8909262 -0.30040318 -1.3235818
C 1.5363652 0.12166856 0.028235877
C 2.6754532 0.5058138 0.0036432385
H 0.49967554 1.9121675 1.5108858
H -0.9000787 2.1984823 0.4453288
H -1.1578834 1.8300488 2.1669617
H -0.94745815 -2.2012079 0.14075872
H 0.6986393 -2.3817334 -0.5060521
H 0.45717612 -2.1078203 1.234819
H -0.36675534 1.1098633 -1.5216569
H -0.046507243 -0.5132648 -2.1491373
H -2.2202408 -0.03691923 -0.45425716
H 3.684885 0.8368152 -0.011871732
