16
title
N -0.26456195 1.5509555 -0.079713106
C -0.15909654 0.08607485 -0.1824735
C -1.5916275 -0.47912532 -0.04846553
O -2.2108104 -0.034389712 1.1276782
C 0.52503747 -0.39060962 -1.4910839
O 1.8118436 0.16754603 -1.6443208
C 0.67588705 -0.38768566 0.9387247
N 1.3987334 -0.7865437 1.7472535
H 0.6672822 1.9561058 -0.096141174
H -0.7364248 1.8950964 -0.91399485
H -2.1481812 -0.17457928 -0.9530332
H -1.5685537 -1.5726405 -0.023918917
H -1.9605793 0.89619344 1.2222029
H 0.5421503 -1.4893802 -1.5283587
H -0.07158423 -0.031986944 -2.3370016
H 2.3992784 -0.2570347 -1.0079292
