18
title
N 1.7244346 1.9030141 -0.07333908
C 1.5748609 0.46118352 -0.15727587
C 0.114953235 -0.07375802 -0.2392942
N -0.5278669 0.5038186 -1.4255126
C 0.096382454 -1.6261251 -0.22321719
N -1.2735567 -2.1144223 -0.369084
C -0.62148887 0.39689323 0.95325017
N -1.1753988 0.7254104 1.9132988
H 1.1354865 2.3370502 -0.7794008
H 1.3779258 2.232922 0.8232245
H 2.0883875 0.10171278 -1.0599222
H 2.0766642 -0.001228171 0.6988046
H 0.030130584 0.24752639 -2.237731
H -1.425833 0.039442938 -1.547763
H 0.67752284 -1.9647341 -1.089003
H 0.61468387 -1.9856908 0.6803677
H -1.2766845 -3.101049 -0.6024077
H -1.7735903 -2.0187318 0.51003516
