17
title
N -1.1160139 1.9250339 -1.3243587
C -1.0778959 0.48166093 -1.1715195
C -0.26271507 -0.056509987 0.040054888
N -0.82960147 0.5018003 1.2739894
C -0.22445114 -1.60829 0.039849013
O 0.4498767 -2.1190221 1.171875
C 1.1338705 0.4114177 -0.07225028
N 2.2431374 0.71773905 -0.18294933
H -1.3328435 2.3473117 -0.42532
H -0.19630058 2.2696621 -1.5848498
H -2.1040525 0.10960536 -1.0463791
H -0.6883408 0.034175113 -2.0915344
H -1.8036665 0.21153785 1.3333659
H -0.36017254 0.07173084 2.0675542
H -1.2555908 -1.9728079 0.10343787
H 0.21038978 -1.9784949 -0.89976203
H 1.3937477 -1.9604352 1.053863
