title
 OpenBabel02282109583D

 17 16  0  0  1  0  0  0  0  0999 V2000
   -1.1160    1.9250   -1.3244 N   0  0  0  0  0  0  0  0  0  0  0  0
   -1.0779    0.4817   -1.1715 C   0  0  0  0  0  0  0  0  0  0  0  0
   -0.2627   -0.0565    0.0401 C   0  0  1  0  0  0  0  0  0  0  0  0
   -0.8296    0.5018    1.2740 N   0  0  0  0  0  0  0  0  0  0  0  0
   -0.2245   -1.6083    0.0398 C   0  0  0  0  0  0  0  0  0  0  0  0
    0.4499   -2.1190    1.1719 O   0  0  0  0  0  0  0  0  0  0  0  0
    1.1339    0.4114   -0.0723 C   0  0  0  0  0  0  0  0  0  0  0  0
    2.2431    0.7177   -0.1829 N   0  0  0  0  0  0  0  0  0  0  0  0
   -1.3328    2.3473   -0.4253 H   0  0  0  0  0  0  0  0  0  0  0  0
   -0.1963    2.2697   -1.5848 H   0  0  0  0  0  0  0  0  0  0  0  0
   -2.1041    0.1096   -1.0464 H   0  0  0  0  0  0  0  0  0  0  0  0
   -0.6883    0.0342   -2.0915 H   0  0  0  0  0  0  0  0  0  0  0  0
   -1.8037    0.2115    1.3334 H   0  0  0  0  0  0  0  0  0  0  0  0
   -0.3602    0.0717    2.0676 H   0  0  0  0  0  0  0  0  0  0  0  0
   -1.2556   -1.9728    0.1034 H   0  0  0  0  0  0  0  0  0  0  0  0
    0.2104   -1.9785   -0.8998 H   0  0  0  0  0  0  0  0  0  0  0  0
    1.3937   -1.9604    1.0539 H   0  0  0  0  0  0  0  0  0  0  0  0
  1  2  1  0  0  0  0
  1  9  1  0  0  0  0
  2 11  1  0  0  0  0
  2  3  1  0  0  0  0
  3  7  1  6  0  0  0
  3  4  1  0  0  0  0
  4 13  1  0  0  0  0
  4 14  1  0  0  0  0
  5  3  1  0  0  0  0
  5 15  1  0  0  0  0
  5  6  1  0  0  0  0
  8  7  3  0  0  0  0
 10  1  1  0  0  0  0
 12  2  1  0  0  0  0
 16  5  1  0  0  0  0
 17  6  1  0  0  0  0
M  END
