17
title
N -1.2568502 1.8282777 -1.0065764
C -0.9897684 0.40714523 -1.2318826
C -0.20634398 -0.13310467 -0.01040068
O -0.87585294 0.24932602 1.1711862
C -0.11311797 -1.6627021 -0.016849544
N 0.64714617 -2.1153538 1.1390424
C 1.1546909 0.47402337 -0.043426897
N 2.1695786 1.020721 -0.12807229
H -0.4382446 2.3861756 -1.229488
H -2.0189693 2.1551998 -1.5879172
H -1.9476389 -0.12103587 -1.2624023
H -0.44176117 0.18263364 -2.1576686
H -1.220922 1.1388417 0.9786408
H -1.150847 -2.0343368 -0.06501284
H 0.40101203 -1.9849696 -0.9293259
H 0.1569067 -1.8499501 1.9871278
H 0.7277085 -3.1259441 1.1367748
