15
title
O 2.3789804 0.4495485 -0.49375108
C 1.2470405 1.0811074 0.050700363
C 0.01262712 0.16289692 -0.07156238
O -0.12930822 -0.13855453 -1.4473096
C 0.19033635 -1.1546798 0.71592224
O -0.7892419 -2.097934 0.3105935
C -1.1986188 0.8570025 0.4289981
N -2.1508102 1.3633691 0.8452622
H 2.1360235 0.19773947 -1.3939668
H 1.4554808 1.2890333 1.1044252
H 1.0205841 2.033611 -0.44895488
H -0.5994135 -0.9862058 -1.48095
H 1.1631379 -1.5704007 0.4465199
H 0.16653073 -0.9663303 1.7958186
H -1.6304554 -1.8563657 0.71638584
