18
title
C -0.17064077 1.684745 0.037681106
C -0.21199422 0.14427856 0.12841806
C 0.4861976 -0.35074437 1.4145056
O 1.8272878 0.07198618 1.5159417
C -1.6674932 -0.35587123 0.11856807
O -2.317177 0.14269598 -1.0406482
C 0.4999184 -0.4059399 -1.1005292
O 1.6015426 -0.90894437 -1.0920606
H 0.8554794 2.0350435 0.16477445
H -0.5665964 2.0410073 -0.91585654
H -0.7832144 2.1157267 0.8371709
H -0.039195955 0.05667029 2.2861953
H 0.40670878 -1.4488686 1.4663132
H 2.2791305 -0.33240914 0.76242024
H -1.6838452 -1.4573898 0.13896045
H -2.1625051 -0.0017763787 1.0372807
H -3.2062976 -0.2217341 -1.0725131
H -0.065426335 -0.30412304 -2.0486455
