20
title
C -0.46992192 1.9494686 1.6515933
C -0.50900215 0.4369551 1.4079373
C 0.24910438 -0.053400747 0.15668751
C 1.7144431 0.41462612 0.1080624
C 0.20444322 -1.5979779 0.15023495
O 0.80455506 -2.0722978 -1.0469362
C -0.45912522 0.40427634 -1.1220134
O -1.6047541 0.7754673 -1.1742169
H 0.5469953 2.3116646 1.8300905
H -0.8860761 2.496806 0.8016064
H -1.0664058 2.2041852 2.5328894
H -0.097958714 -0.08258601 2.2832239
H -1.5534761 0.12321181 1.3124188
H 2.2310436 0.14147748 1.0343425
H 2.2393587 -0.060564153 -0.7240578
H 1.791845 1.4989921 -0.011150348
H 0.73925006 -1.9687269 1.0394604
H -0.8430159 -1.9259374 0.22560193
H 0.7343664 -3.0308213 -1.0633518
H 0.1671102 0.35928905 -2.038526
