20
title
C 0.049555253 0.034790803 2.6741393
C -0.5192405 0.6450638 1.3892488
C 0.15573956 0.14927696 0.081382096
O 1.5603337 0.39952603 0.10542673
C -0.17548196 -1.3215641 -0.22986239
C 0.5365486 -1.868159 -1.4712682
C -0.36615825 1.0644988 -1.0261519
O -1.4362334 0.9373394 -1.5613942
H -0.08163368 -1.0507612 2.714331
H 1.1165274 0.25732654 2.7842317
H -0.45558876 0.45776722 3.5472717
H -1.5933477 0.44483992 1.3124229
H -0.4045399 1.7351412 1.4388844
H 1.9534814 -0.16347863 0.779402
H 0.08110315 -1.9350402 0.6424961
H -1.260323 -1.3919842 -0.35932392
H 0.21615304 -1.3409362 -2.374918
H 1.6206295 -1.7561493 -1.3853683
H 0.3107925 -2.9295664 -1.6085281
H 0.32856822 1.8979003 -1.2720692
