title
 OpenBabel02282109583D

 18 17  0  0  1  0  0  0  0  0999 V2000
   -0.0607   -0.0227    2.6661 C   0  0  0  0  0  0  0  0  0  0  0  0
   -0.5328    0.6484    1.3711 C   0  0  0  0  0  0  0  0  0  0  0  0
    0.1510    0.1588    0.0792 C   0  0  1  0  0  0  0  0  0  0  0  0
    1.5663    0.3803    0.0883 O   0  0  0  0  0  0  0  0  0  0  0  0
   -0.1206   -1.3207   -0.2477 C   0  0  0  0  0  0  0  0  0  0  0  0
    0.5943   -1.7070   -1.4030 O   0  0  0  0  0  0  0  0  0  0  0  0
   -0.3660    1.0115   -1.0854 C   0  0  0  0  0  0  0  0  0  0  0  0
   -1.5249    1.0598   -1.3998 O   0  0  0  0  0  0  0  0  0  0  0  0
   -0.2662   -1.0964    2.6810 H   0  0  0  0  0  0  0  0  0  0  0  0
    1.0136    0.1186    2.8384 H   0  0  0  0  0  0  0  0  0  0  0  0
   -0.5727    0.4222    3.5240 H   0  0  0  0  0  0  0  0  0  0  0  0
   -1.6107    0.5086    1.2403 H   0  0  0  0  0  0  0  0  0  0  0  0
   -0.3681    1.7298    1.4486 H   0  0  0  0  0  0  0  0  0  0  0  0
    1.9204    0.0426    0.9177 H   0  0  0  0  0  0  0  0  0  0  0  0
    0.1444   -1.9501    0.6171 H   0  0  0  0  0  0  0  0  0  0  0  0
   -1.1859   -1.4557   -0.4566 H   0  0  0  0  0  0  0  0  0  0  0  0
    1.4843   -1.3490   -1.2892 H   0  0  0  0  0  0  0  0  0  0  0  0
    0.4216    1.6020   -1.6008 H   0  0  0  0  0  0  0  0  0  0  0  0
  1  9  1  0  0  0  0
  1 10  1  0  0  0  0
  1 11  1  0  0  0  0
  2 13  1  0  0  0  0
  2  1  1  0  0  0  0
  3  7  1  6  0  0  0
  3  4  1  0  0  0  0
  3  2  1  0  0  0  0
  4 14  1  0  0  0  0
  5  3  1  0  0  0  0
  5 15  1  0  0  0  0
  6 17  1  0  0  0  0
  6  5  1  0  0  0  0
  8  7  2  0  0  0  0
 12  2  1  0  0  0  0
 16  5  1  0  0  0  0
 18  7  1  0  0  0  0
M  END
