title
 OpenBabel02282109583D

 20 19  0  0  0  0  0  0  0  0999 V2000
   -0.1574    1.8658   -0.0726 C   0  0  0  0  0  0  0  0  0  0  0  0
   -0.1340    0.3314   -0.1258 C   0  0  0  0  0  0  0  0  0  0  0  0
    0.6420   -0.1806    1.0959 C   0  0  0  0  0  0  0  0  0  0  0  0
    0.9379   -1.5675    0.9111 O   0  0  0  0  0  0  0  0  0  0  0  0
   -1.5690   -0.2358   -0.1313 C   0  0  0  0  0  0  0  0  0  0  0  0
   -2.3909    0.2597    0.9183 O   0  0  0  0  0  0  0  0  0  0  0  0
    0.5636   -0.1539   -1.4224 C   0  0  0  0  0  0  0  0  0  0  0  0
    1.9775   -0.0556   -1.3722 O   0  0  0  0  0  0  0  0  0  0  0  0
    0.8535    2.2657   -0.1967 H   0  0  0  0  0  0  0  0  0  0  0  0
   -0.7833    2.2683   -0.8761 H   0  0  0  0  0  0  0  0  0  0  0  0
   -0.5702    2.2258    0.8737 H   0  0  0  0  0  0  0  0  0  0  0  0
    1.5679    0.3986    1.2058 H   0  0  0  0  0  0  0  0  0  0  0  0
    0.0451   -0.0227    2.0072 H   0  0  0  0  0  0  0  0  0  0  0  0
    1.3823   -1.8907    1.7004 H   0  0  0  0  0  0  0  0  0  0  0  0
   -2.0667    0.0598   -1.0626 H   0  0  0  0  0  0  0  0  0  0  0  0
   -1.5247   -1.3333   -0.1130 H   0  0  0  0  0  0  0  0  0  0  0  0
   -2.1844   -0.2332    1.7170 H   0  0  0  0  0  0  0  0  0  0  0  0
    0.2564   -1.1854   -1.6444 H   0  0  0  0  0  0  0  0  0  0  0  0
    0.2387    0.4724   -2.2603 H   0  0  0  0  0  0  0  0  0  0  0  0
    2.2631   -0.7684   -0.7885 H   0  0  0  0  0  0  0  0  0  0  0  0
  1 11  1  0  0  0  0
  2  1  1  0  0  0  0
  2  3  1  0  0  0  0
  3 12  1  0  0  0  0
  3 13  1  0  0  0  0
  4  3  1  0  0  0  0
  4 14  1  0  0  0  0
  5  2  1  0  0  0  0
  5 16  1  0  0  0  0
  5  6  1  0  0  0  0
  6 17  1  0  0  0  0
  7  8  1  0  0  0  0
  7  2  1  0  0  0  0
  8 20  1  0  0  0  0
  9  1  1  0  0  0  0
 10  1  1  0  0  0  0
 15  5  1  0  0  0  0
 18  7  1  0  0  0  0
 19  7  1  0  0  0  0
M  END
