20
title
C -0.15738407 1.8657522 -0.07264221
C -0.13398696 0.33135992 -0.1257546
C 0.6419545 -0.18063441 1.0958719
O 0.93788505 -1.5675328 0.91114444
C -1.5690125 -0.23579192 -0.13129908
O -2.3908978 0.25967753 0.9182618
C 0.56357276 -0.15389389 -1.4224081
O 1.9775383 -0.05562934 -1.3721833
H 0.8534797 2.2657197 -0.19671042
H -0.7832503 2.2682612 -0.8760517
H -0.570249 2.2257745 0.87369365
H 1.5679334 0.39860442 1.2058293
H 0.045093667 -0.022676913 2.007152
H 1.3823069 -1.8907216 1.7003746
H -2.0666862 0.059786204 -1.0626218
H -1.5246651 -1.3332628 -0.113043025
H -2.1844275 -0.23317885 1.7170069
H 0.2563675 -1.1854062 -1.6444126
H 0.23874368 0.47242853 -2.2603045
H 2.2631266 -0.76838917 -0.78851914
