title
 OpenBabel02282109583D

 24 23  0  0  0  0  0  0  0  0999 V2000
   -0.7424    1.7671    1.2700 C   0  0  0  0  0  0  0  0  0  0  0  0
   -0.6221    0.2449    1.1372 C   0  0  0  0  0  0  0  0  0  0  0  0
    0.0600   -0.2894   -0.1487 C   0  0  0  0  0  0  0  0  0  0  0  0
    0.1064   -1.8281   -0.0692 C   0  0  0  0  0  0  0  0  0  0  0  0
   -0.6649    0.1671   -1.4398 C   0  0  0  0  0  0  0  0  0  0  0  0
   -2.1392   -0.2327   -1.5683 C   0  0  0  0  0  0  0  0  0  0  0  0
    1.5049    0.2339   -0.2447 C   0  0  0  0  0  0  0  0  0  0  0  0
    2.2092   -0.0987    0.9451 O   0  0  0  0  0  0  0  0  0  0  0  0
    0.2391    2.2506    1.2899 H   0  0  0  0  0  0  0  0  0  0  0  0
   -1.3208    2.2134    0.4545 H   0  0  0  0  0  0  0  0  0  0  0  0
   -1.2483    2.0256    2.2059 H   0  0  0  0  0  0  0  0  0  0  0  0
   -0.0571   -0.1373    1.9930 H   0  0  0  0  0  0  0  0  0  0  0  0
   -1.6209   -0.2016    1.2083 H   0  0  0  0  0  0  0  0  0  0  0  0
   -0.8873   -2.2545    0.0977 H   0  0  0  0  0  0  0  0  0  0  0  0
    0.5046   -2.2584   -0.9957 H   0  0  0  0  0  0  0  0  0  0  0  0
    0.7523   -2.1446    0.7535 H   0  0  0  0  0  0  0  0  0  0  0  0
   -0.5869    1.2580   -1.5279 H   0  0  0  0  0  0  0  0  0  0  0  0
   -0.1148   -0.2396   -2.2992 H   0  0  0  0  0  0  0  0  0  0  0  0
   -2.2735   -1.3181   -1.5340 H   0  0  0  0  0  0  0  0  0  0  0  0
   -2.7527    0.2036   -0.7740 H   0  0  0  0  0  0  0  0  0  0  0  0
   -2.5447    0.1170   -2.5231 H   0  0  0  0  0  0  0  0  0  0  0  0
    1.9891   -0.2179   -1.1255 H   0  0  0  0  0  0  0  0  0  0  0  0
    1.4969    1.3235   -0.4006 H   0  0  0  0  0  0  0  0  0  0  0  0
    3.1177    0.1999    0.8501 H   0  0  0  0  0  0  0  0  0  0  0  0
  1  9  1  0  0  0  0
  1 11  1  0  0  0  0
  2 13  1  0  0  0  0
  2  1  1  0  0  0  0
  2 12  1  0  0  0  0
  3  4  1  0  0  0  0
  3  2  1  0  0  0  0
  4 14  1  0  0  0  0
  4 16  1  0  0  0  0
  5  3  1  0  0  0  0
  6 19  1  0  0  0  0
  6  5  1  0  0  0  0
  6 20  1  0  0  0  0
  7  3  1  0  0  0  0
  7  8  1  0  0  0  0
 10  1  1  0  0  0  0
 15  4  1  0  0  0  0
 17  5  1  0  0  0  0
 18  5  1  0  0  0  0
 21  6  1  0  0  0  0
 22  7  1  0  0  0  0
 23  7  1  0  0  0  0
 24  8  1  0  0  0  0
M  END
