title
 OpenBabel02282109583D

 24 23  0  0  0  0  0  0  0  0999 V2000
   -0.7976    1.8408   -1.4599 C   0  0  0  0  0  0  0  0  0  0  0  0
   -0.5881    0.3234   -1.4700 C   0  0  0  0  0  0  0  0  0  0  0  0
    0.0940   -0.2611   -0.2082 C   0  0  0  0  0  0  0  0  0  0  0  0
    0.1523   -1.7933   -0.3310 C   0  0  0  0  0  0  0  0  0  0  0  0
    1.5062    0.3330   -0.0284 C   0  0  0  0  0  0  0  0  0  0  0  0
    2.2918   -0.2106    1.1693 C   0  0  0  0  0  0  0  0  0  0  0  0
   -0.6024    0.1452    0.9830 O   0  0  0  0  0  0  0  0  0  0  0  0
   -1.9038   -0.3528    1.1909 C   0  0  0  0  0  0  0  0  0  0  0  0
    0.1485    2.3864   -1.5192 H   0  0  0  0  0  0  0  0  0  0  0  0
   -1.4070    2.1501   -2.3147 H   0  0  0  0  0  0  0  0  0  0  0  0
   -1.3060    2.1570   -0.5449 H   0  0  0  0  0  0  0  0  0  0  0  0
   -1.5574   -0.1724   -1.6022 H   0  0  0  0  0  0  0  0  0  0  0  0
    0.0100    0.0318   -2.3420 H   0  0  0  0  0  0  0  0  0  0  0  0
    0.8560   -2.0806   -1.1185 H   0  0  0  0  0  0  0  0  0  0  0  0
    0.4814   -2.2523    0.6048 H   0  0  0  0  0  0  0  0  0  0  0  0
   -0.8214   -2.2167   -0.5941 H   0  0  0  0  0  0  0  0  0  0  0  0
    2.0699    0.1679   -0.9549 H   0  0  0  0  0  0  0  0  0  0  0  0
    1.3976    1.4156    0.0872 H   0  0  0  0  0  0  0  0  0  0  0  0
    1.7054   -0.1109    2.0861 H   0  0  0  0  0  0  0  0  0  0  0  0
    2.5558   -1.2655    1.0464 H   0  0  0  0  0  0  0  0  0  0  0  0
    3.2251    0.3462    1.2981 H   0  0  0  0  0  0  0  0  0  0  0  0
   -2.6019   -0.0749    0.3883 H   0  0  0  0  0  0  0  0  0  0  0  0
   -1.9277   -1.4453    1.3055 H   0  0  0  0  0  0  0  0  0  0  0  0
   -2.2604    0.0961    2.1221 H   0  0  0  0  0  0  0  0  0  0  0  0
  1 11  1  0  0  0  0
  2  1  1  0  0  0  0
  2  3  1  0  0  0  0
  3  5  1  0  0  0  0
  3  7  1  0  0  0  0
  4  3  1  0  0  0  0
  4 15  1  0  0  0  0
  5 18  1  0  0  0  0
  5  6  1  0  0  0  0
  6 21  1  0  0  0  0
  6 19  1  0  0  0  0
  7  8  1  0  0  0  0
  8 23  1  0  0  0  0
  8 24  1  0  0  0  0
  9  1  1  0  0  0  0
 10  1  1  0  0  0  0
 12  2  1  0  0  0  0
 13  2  1  0  0  0  0
 14  4  1  0  0  0  0
 16  4  1  0  0  0  0
 17  5  1  0  0  0  0
 20  6  1  0  0  0  0
 22  8  1  0  0  0  0
M  END
