title
 OpenBabel02282109583D

 22 21  0  0  0  0  0  0  0  0999 V2000
   -0.6295    1.7725    1.3260 C   0  0  0  0  0  0  0  0  0  0  0  0
   -0.6629    0.2558    1.1087 C   0  0  0  0  0  0  0  0  0  0  0  0
    0.0691   -0.2792   -0.1494 C   0  0  0  0  0  0  0  0  0  0  0  0
    0.0852   -1.8184   -0.0956 C   0  0  0  0  0  0  0  0  0  0  0  0
   -0.6406    0.1791   -1.4344 C   0  0  0  0  0  0  0  0  0  0  0  0
   -1.9716   -0.3178   -1.4283 O   0  0  0  0  0  0  0  0  0  0  0  0
    1.5136    0.2418   -0.2190 C   0  0  0  0  0  0  0  0  0  0  0  0
    2.1723   -0.0692    1.0015 O   0  0  0  0  0  0  0  0  0  0  0  0
    0.3899    2.1314    1.4974 H   0  0  0  0  0  0  0  0  0  0  0  0
   -1.0492    2.3262    0.4794 H   0  0  0  0  0  0  0  0  0  0  0  0
   -1.2206    2.0391    2.2081 H   0  0  0  0  0  0  0  0  0  0  0  0
   -0.2220   -0.2308    1.9839 H   0  0  0  0  0  0  0  0  0  0  0  0
   -1.7028   -0.0796    1.0472 H   0  0  0  0  0  0  0  0  0  0  0  0
   -0.9308   -2.2127   -0.0247 H   0  0  0  0  0  0  0  0  0  0  0  0
    0.5451   -2.2376   -0.9984 H   0  0  0  0  0  0  0  0  0  0  0  0
    0.6615   -2.1607    0.7673 H   0  0  0  0  0  0  0  0  0  0  0  0
   -0.6347    1.2784   -1.4986 H   0  0  0  0  0  0  0  0  0  0  0  0
   -0.0856   -0.2015   -2.3081 H   0  0  0  0  0  0  0  0  0  0  0  0
   -2.4053   -0.0241   -2.2340 H   0  0  0  0  0  0  0  0  0  0  0  0
    2.0274   -0.2295   -1.0725 H   0  0  0  0  0  0  0  0  0  0  0  0
    1.5152    1.3288   -0.3961 H   0  0  0  0  0  0  0  0  0  0  0  0
    3.0846    0.2253    0.9337 H   0  0  0  0  0  0  0  0  0  0  0  0
  1  9  1  0  0  0  0
  1 11  1  0  0  0  0
  2  1  1  0  0  0  0
  2 12  1  0  0  0  0
  3  4  1  0  0  0  0
  3  2  1  0  0  0  0
  4 14  1  0  0  0  0
  4 16  1  0  0  0  0
  5  6  1  0  0  0  0
  5  3  1  0  0  0  0
  7  3  1  0  0  0  0
  7  8  1  0  0  0  0
 10  1  1  0  0  0  0
 13  2  1  0  0  0  0
 15  4  1  0  0  0  0
 17  5  1  0  0  0  0
 18  5  1  0  0  0  0
 19  6  1  0  0  0  0
 20  7  1  0  0  0  0
 21  7  1  0  0  0  0
 22  8  1  0  0  0  0
M  END
