title
 OpenBabel02282109583D

 22 21  0  0  0  0  0  0  0  0999 V2000
   -0.1156    0.6912   -2.2740 C   0  0  0  0  0  0  0  0  0  0  0  0
   -0.7109    0.7536   -0.8627 C   0  0  0  0  0  0  0  0  0  0  0  0
   -0.0106   -0.0886    0.2310 C   0  0  0  0  0  0  0  0  0  0  0  0
   -0.7851    0.0046    1.4269 O   0  0  0  0  0  0  0  0  0  0  0  0
    0.0908   -1.5818   -0.1180 C   0  0  0  0  0  0  0  0  0  0  0  0
   -1.2548   -2.2698   -0.3700 C   0  0  0  0  0  0  0  0  0  0  0  0
    1.3952    0.4573    0.5539 C   0  0  0  0  0  0  0  0  0  0  0  0
    1.3234    1.7358    1.1847 O   0  0  0  0  0  0  0  0  0  0  0  0
   -0.1598   -0.3204   -2.6885 H   0  0  0  0  0  0  0  0  0  0  0  0
   -0.6706    1.3465   -2.9527 H   0  0  0  0  0  0  0  0  0  0  0  0
    0.9320    1.0106   -2.3005 H   0  0  0  0  0  0  0  0  0  0  0  0
   -0.7313    1.7968   -0.5182 H   0  0  0  0  0  0  0  0  0  0  0  0
   -1.7597    0.4430   -0.8884 H   0  0  0  0  0  0  0  0  0  0  0  0
   -0.5241    0.8401    1.8374 H   0  0  0  0  0  0  0  0  0  0  0  0
    0.7482   -1.7086   -0.9867 H   0  0  0  0  0  0  0  0  0  0  0  0
    0.5886   -2.0745    0.7252 H   0  0  0  0  0  0  0  0  0  0  0  0
   -1.9308   -2.1050    0.4726 H   0  0  0  0  0  0  0  0  0  0  0  0
   -1.7447   -1.8986   -1.2757 H   0  0  0  0  0  0  0  0  0  0  0  0
   -1.1162   -3.3484   -0.4923 H   0  0  0  0  0  0  0  0  0  0  0  0
    1.8694   -0.2024    1.2866 H   0  0  0  0  0  0  0  0  0  0  0  0
    2.0319    0.4874   -0.3398 H   0  0  0  0  0  0  0  0  0  0  0  0
    1.1437    2.3961    0.5084 H   0  0  0  0  0  0  0  0  0  0  0  0
  1  2  1  0  0  0  0
  2 12  1  0  0  0  0
  2  3  1  0  0  0  0
  3  7  1  0  0  0  0
  3  4  1  0  0  0  0
  4 14  1  0  0  0  0
  5  3  1  0  0  0  0
  5 16  1  0  0  0  0
  6  5  1  0  0  0  0
  6 17  1  0  0  0  0
  7  8  1  0  0  0  0
  7 20  1  0  0  0  0
  9  1  1  0  0  0  0
 10  1  1  0  0  0  0
 11  1  1  0  0  0  0
 13  2  1  0  0  0  0
 15  5  1  0  0  0  0
 18  6  1  0  0  0  0
 19  6  1  0  0  0  0
 21  7  1  0  0  0  0
 22  8  1  0  0  0  0
M  END
