22
title
C -0.115640305 0.6911804 -2.27404
C -0.71094644 0.75361544 -0.86270624
C -0.010620677 -0.08856664 0.23101626
O -0.7850803 0.00456717 1.4269273
C 0.09078286 -1.5817734 -0.11797399
C -1.2547817 -2.2698312 -0.3700143
C 1.3951705 0.45727608 0.55385816
O 1.323436 1.7357692 1.1846764
H -0.15980801 -0.3204294 -2.688481
H -0.6706118 1.346504 -2.9527256
H 0.9319808 1.0106409 -2.3005197
H -0.7313305 1.7968374 -0.5181624
H -1.7596979 0.4430442 -0.8883663
H -0.5240752 0.8400602 1.8374133
H 0.7482311 -1.7086288 -0.9867004
H 0.5886192 -2.0744505 0.72522986
H -1.9307919 -2.1050236 0.47257006
H -1.744695 -1.8985952 -1.2757123
H -1.1162367 -3.34841 -0.49229145
H 1.869365 -0.20241436 1.2865505
H 2.0318778 0.4874217 -0.33981603
H 1.1437005 2.3961136 0.5084243
