title
 OpenBabel02282109583D

 20 19  0  0  0  0  0  0  0  0999 V2000
   -1.9112    0.6619    1.2168 C   0  0  0  0  0  0  0  0  0  0  0  0
   -0.3868    0.6854    1.0765 C   0  0  0  0  0  0  0  0  0  0  0  0
    0.1780   -0.0751   -0.1335 C   0  0  0  0  0  0  0  0  0  0  0  0
    1.6147    0.1061   -0.0279 O   0  0  0  0  0  0  0  0  0  0  0  0
   -0.1003   -1.5842   -0.0740 C   0  0  0  0  0  0  0  0  0  0  0  0
    0.4260   -2.1687    1.0988 O   0  0  0  0  0  0  0  0  0  0  0  0
   -0.2634    0.5256   -1.4762 C   0  0  0  0  0  0  0  0  0  0  0  0
    0.1126    1.8817   -1.5929 O   0  0  0  0  0  0  0  0  0  0  0  0
   -2.4098    1.1200    0.3572 H   0  0  0  0  0  0  0  0  0  0  0  0
   -2.2971   -0.3551    1.3360 H   0  0  0  0  0  0  0  0  0  0  0  0
   -2.2110    1.2276    2.1039 H   0  0  0  0  0  0  0  0  0  0  0  0
   -0.0421    1.7204    1.0005 H   0  0  0  0  0  0  0  0  0  0  0  0
    0.0700    0.2566    1.9728 H   0  0  0  0  0  0  0  0  0  0  0  0
    2.0225   -0.3564   -0.7715 H   0  0  0  0  0  0  0  0  0  0  0  0
   -1.1760   -1.7853   -0.0826 H   0  0  0  0  0  0  0  0  0  0  0  0
    0.3235   -2.0570   -0.9791 H   0  0  0  0  0  0  0  0  0  0  0  0
    1.3020   -1.7786    1.2153 H   0  0  0  0  0  0  0  0  0  0  0  0
    0.1709   -0.0797   -2.2932 H   0  0  0  0  0  0  0  0  0  0  0  0
   -1.3510    0.4793   -1.5879 H   0  0  0  0  0  0  0  0  0  0  0  0
    1.0146    1.9336   -1.2513 H   0  0  0  0  0  0  0  0  0  0  0  0
  1 10  1  0  0  0  0
  1 11  1  0  0  0  0
  2  1  1  0  0  0  0
  2 13  1  0  0  0  0
  3  5  1  0  0  0  0
  3  4  1  0  0  0  0
  3  2  1  0  0  0  0
  5  6  1  0  0  0  0
  6 17  1  0  0  0  0
  7  3  1  0  0  0  0
  8  7  1  0  0  0  0
  8 20  1  0  0  0  0
  9  1  1  0  0  0  0
 12  2  1  0  0  0  0
 14  4  1  0  0  0  0
 15  5  1  0  0  0  0
 16  5  1  0  0  0  0
 18  7  1  0  0  0  0
 19  7  1  0  0  0  0
M  END
