20
title
C -0.6203804 1.6719686 1.0972264
O -0.546002 0.25707167 0.98030335
C 0.10778152 -0.29684737 -0.19053078
C 0.007616212 -1.8097697 0.00795496
C -0.64482653 0.14602876 -1.4556042
O -2.027549 -0.136896 -1.3683778
C 1.5749093 0.16078787 -0.22304451
O 2.2344546 -0.10780645 0.99860656
H 0.36885434 2.144548 1.1449788
H -1.1889143 2.1341002 0.28027815
H -1.1431327 1.8685075 2.0366
H -1.0385964 -2.116256 0.061093573
H 0.47749436 -2.3298194 -0.83193016
H 0.5185777 -2.1059175 0.9258504
H -0.4705289 1.217969 -1.6413614
H -0.25246122 -0.3969533 -2.322069
H -2.276244 0.0168206 -0.44859636
H 2.1086183 -0.38169113 -1.0107099
H 1.6295797 1.2317877 -0.47585034
H 1.583543 0.043785326 1.6948919
