title
 OpenBabel02282109583D

 18 17  0  0  0  0  0  0  0  0999 V2000
    1.7069    1.1119   -0.0226 O   0  0  0  0  0  0  0  0  0  0  0  0
    1.3347   -0.2532    0.0409 C   0  0  0  0  0  0  0  0  0  0  0  0
   -0.1950   -0.4794    0.0826 C   0  0  0  0  0  0  0  0  0  0  0  0
   -0.4577   -1.8536   -0.1727 O   0  0  0  0  0  0  0  0  0  0  0  0
   -0.7553   -0.2112    1.4803 C   0  0  0  0  0  0  0  0  0  0  0  0
   -0.3630    1.1057    1.8737 O   0  0  0  0  0  0  0  0  0  0  0  0
   -0.9054    0.3833   -0.9708 C   0  0  0  0  0  0  0  0  0  0  0  0
   -0.4474    0.0480   -2.2771 O   0  0  0  0  0  0  0  0  0  0  0  0
    1.2934    1.5305    0.7440 H   0  0  0  0  0  0  0  0  0  0  0  0
    1.7258   -0.7290   -0.8644 H   0  0  0  0  0  0  0  0  0  0  0  0
    1.7928   -0.7702    0.8979 H   0  0  0  0  0  0  0  0  0  0  0  0
   -0.4088   -1.9497   -1.1333 H   0  0  0  0  0  0  0  0  0  0  0  0
   -1.8499   -0.3106    1.4683 H   0  0  0  0  0  0  0  0  0  0  0  0
   -0.3511   -0.9701    2.1639 H   0  0  0  0  0  0  0  0  0  0  0  0
   -0.6044    1.2390    2.7942 H   0  0  0  0  0  0  0  0  0  0  0  0
   -1.9752    0.1498   -0.9507 H   0  0  0  0  0  0  0  0  0  0  0  0
   -0.7731    1.4476   -0.7555 H   0  0  0  0  0  0  0  0  0  0  0  0
    0.3942    0.5000   -2.4035 H   0  0  0  0  0  0  0  0  0  0  0  0
  1  2  1  0  0  0  0
  1  9  1  0  0  0  0
  2  3  1  0  0  0  0
  2 11  1  0  0  0  0
  3  5  1  0  0  0  0
  4  3  1  0  0  0  0
  5  6  1  0  0  0  0
  5 14  1  0  0  0  0
  6 15  1  0  0  0  0
  7 16  1  0  0  0  0
  7 17  1  0  0  0  0
  7  3  1  0  0  0  0
  8  7  1  0  0  0  0
 10  2  1  0  0  0  0
 12  4  1  0  0  0  0
 13  5  1  0  0  0  0
 18  8  1  0  0  0  0
M  END
