18
title
O 1.7069229 1.1119455 -0.022643903
C 1.334653 -0.25316164 0.040850066
C -0.19503543 -0.4793841 0.08257037
O -0.4576908 -1.8536115 -0.172655
C -0.7553306 -0.21119076 1.4802989
O -0.363005 1.1056974 1.8737043
C -0.90536577 0.38332817 -0.970781
O -0.4473891 0.04802957 -2.2771163
H 1.2933803 1.53054 0.744035
H 1.7258362 -0.7289527 -0.8644243
H 1.7928437 -0.7701587 0.897913
H -0.40879187 -1.9496791 -1.1332841
H -1.849907 -0.31061295 1.468255
H -0.3511406 -0.9700842 2.1638942
H -0.60441726 1.2390009 2.7941825
H -1.9752072 0.14975195 -0.95071584
H -0.7730575 1.4476466 -0.75546634
H 0.39422086 0.4999512 -2.4035203
