10
title
O 0.63284457 -1.6196455 -0.0113775935
C 0.6556057 -0.41106164 -0.0060559893
C 1.8664496 0.37351346 -0.010157082
C 2.889671 1.006865 -0.0136237005
C -0.65562385 0.41109216 0.0059777005
O -0.63286453 1.6196735 0.011520217
C -1.8664647 -0.37348747 0.009959196
C -2.8896425 -1.0069089 0.013572195
H 3.79382 1.5667307 -0.0158241
H -3.793444 -1.5673257 0.017464902
