9
title
O -1.3621008 -2.5949218 -0.0010399144
C -1.3651334 -1.3962483 0.004274532
C -0.024671968 -0.6198537 -0.0031822002
O 1.0436016 -1.1666384 -0.01534296
C -0.122012906 0.9145213 0.0058483793
O -1.1767457 1.4962586 0.01834495
C 1.1677018 1.6195616 -0.001838461
N 2.167413 2.199879 -0.007653533
H -2.2850683 -0.7863217 0.014413365
