title
 OpenBabel02282109583D

  9  8  0  0  0  0  0  0  0  0999 V2000
   -1.3621   -2.5949   -0.0010 O   0  0  0  0  0  0  0  0  0  0  0  0
   -1.3651   -1.3962    0.0043 C   0  0  0  0  0  0  0  0  0  0  0  0
   -0.0247   -0.6199   -0.0032 C   0  0  0  0  0  0  0  0  0  0  0  0
    1.0436   -1.1666   -0.0153 O   0  0  0  0  0  0  0  0  0  0  0  0
   -0.1220    0.9145    0.0058 C   0  0  0  0  0  0  0  0  0  0  0  0
   -1.1767    1.4963    0.0183 O   0  0  0  0  0  0  0  0  0  0  0  0
    1.1677    1.6196   -0.0018 C   0  0  0  0  0  0  0  0  0  0  0  0
    2.1674    2.1999   -0.0077 N   0  0  0  0  0  0  0  0  0  0  0  0
   -2.2851   -0.7863    0.0144 H   0  0  0  0  0  0  0  0  0  0  0  0
  1  2  2  0  0  0  0
  2  9  1  0  0  0  0
  3  2  1  0  0  0  0
  3  5  1  0  0  0  0
  4  3  2  0  0  0  0
  5  6  2  0  0  0  0
  7  5  1  0  0  0  0
  8  7  3  0  0  0  0
M  END
