title
 OpenBabel02282109583D

 14 13  0  0  1  0  0  0  0  0999 V2000
    0.8128    2.0037    0.7564 C   0  0  0  0  0  0  0  0  0  0  0  0
    0.6799    0.6910   -0.0303 C   0  0  1  0  0  0  0  0  0  0  0  0
    1.4322   -0.4052    0.5748 C   0  0  0  0  0  0  0  0  0  0  0  0
    2.0372   -1.2985    1.1040 C   0  0  0  0  0  0  0  0  0  0  0  0
   -0.8014    0.2804   -0.1878 C   0  0  0  0  0  0  0  0  0  0  0  0
   -1.7031    0.9069    0.3165 O   0  0  0  0  0  0  0  0  0  0  0  0
   -1.0431   -0.8914   -1.0081 C   0  0  0  0  0  0  0  0  0  0  0  0
   -1.2460   -1.8428   -1.7165 C   0  0  0  0  0  0  0  0  0  0  0  0
    1.8637    2.2941    0.8200 H   0  0  0  0  0  0  0  0  0  0  0  0
    0.2488    2.7985    0.2634 H   0  0  0  0  0  0  0  0  0  0  0  0
    0.4182    1.8848    1.7673 H   0  0  0  0  0  0  0  0  0  0  0  0
    1.0565    0.8369   -1.0541 H   0  0  0  0  0  0  0  0  0  0  0  0
    2.5771   -2.0901    1.5619 H   0  0  0  0  0  0  0  0  0  0  0  0
   -1.4339   -2.6870   -2.3348 H   0  0  0  0  0  0  0  0  0  0  0  0
  1  9  1  0  0  0  0
  1 11  1  0  0  0  0
  2 12  1  6  0  0  0
  2  3  1  0  0  0  0
  2  1  1  0  0  0  0
  3  4  3  0  0  0  0
  4 13  1  0  0  0  0
  5  2  1  0  0  0  0
  5  6  2  0  0  0  0
  7  5  1  0  0  0  0
  8  7  3  0  0  0  0
 10  1  1  0  0  0  0
 14  8  1  0  0  0  0
M  END
