title
 OpenBabel02282109583D

 13 12  0  0  1  0  0  0  0  0999 V2000
   -0.6630    1.7312   -0.5016 C   0  0  0  0  0  0  0  0  0  0  0  0
   -0.4605    0.2001   -0.6544 C   0  0  1  0  0  0  0  0  0  0  0  0
    0.2288   -0.1442   -1.8889 C   0  0  0  0  0  0  0  0  0  0  0  0
    0.7869   -0.4039   -2.9194 C   0  0  0  0  0  0  0  0  0  0  0  0
    0.2724   -0.3479    0.5726 C   0  0  0  0  0  0  0  0  0  0  0  0
    1.3680   -0.8378    0.5830 O   0  0  0  0  0  0  0  0  0  0  0  0
   -0.4991   -0.2214    1.8321 C   0  0  0  0  0  0  0  0  0  0  0  0
   -1.1091   -0.1293    2.8102 N   0  0  0  0  0  0  0  0  0  0  0  0
    0.3019    2.2437   -0.4946 H   0  0  0  0  0  0  0  0  0  0  0  0
   -1.2472    2.1031   -1.3451 H   0  0  0  0  0  0  0  0  0  0  0  0
   -1.1980    1.9619    0.4233 H   0  0  0  0  0  0  0  0  0  0  0  0
   -1.4563   -0.2673   -0.6442 H   0  0  0  0  0  0  0  0  0  0  0  0
    1.2832   -0.6446   -3.8273 H   0  0  0  0  0  0  0  0  0  0  0  0
  1  9  1  0  0  0  0
  1 11  1  0  0  0  0
  2 12  1  6  0  0  0
  2  1  1  0  0  0  0
  2  5  1  0  0  0  0
  3  2  1  0  0  0  0
  4  3  3  0  0  0  0
  5  6  2  0  0  0  0
  5  7  1  0  0  0  0
  7  8  3  0  0  0  0
 10  1  1  0  0  0  0
 13  4  1  0  0  0  0
M  END
