title
 OpenBabel02282109583D

 13 12  0  0  1  0  0  0  0  0999 V2000
   -0.6564    1.7696   -0.4202 C   0  0  0  0  0  0  0  0  0  0  0  0
   -0.4695    0.2429   -0.6029 C   0  0  1  0  0  0  0  0  0  0  0  0
    0.2350   -0.0612   -1.8482 C   0  0  0  0  0  0  0  0  0  0  0  0
    0.7605   -0.2761   -2.8535 N   0  0  0  0  0  0  0  0  0  0  0  0
    0.2679   -0.3560    0.6103 C   0  0  0  0  0  0  0  0  0  0  0  0
    1.3981   -0.7737    0.5601 O   0  0  0  0  0  0  0  0  0  0  0  0
   -0.5112   -0.3590    1.8349 C   0  0  0  0  0  0  0  0  0  0  0  0
   -1.1696   -0.3708    2.8424 C   0  0  0  0  0  0  0  0  0  0  0  0
    0.3136    2.2705   -0.3772 H   0  0  0  0  0  0  0  0  0  0  0  0
   -1.2237    2.1794   -1.2581 H   0  0  0  0  0  0  0  0  0  0  0  0
   -1.2009    1.9676    0.5056 H   0  0  0  0  0  0  0  0  0  0  0  0
   -1.4615   -0.2242   -0.6457 H   0  0  0  0  0  0  0  0  0  0  0  0
   -1.7345   -0.3903    3.7436 H   0  0  0  0  0  0  0  0  0  0  0  0
  1  9  1  0  0  0  0
  1 11  1  0  0  0  0
  2 12  1  6  0  0  0
  2  1  1  0  0  0  0
  2  5  1  0  0  0  0
  3  2  1  0  0  0  0
  4  3  3  0  0  0  0
  5  7  1  0  0  0  0
  6  5  2  0  0  0  0
  7  8  3  0  0  0  0
  8 13  1  0  0  0  0
 10  1  1  0  0  0  0
M  END
