13
title
C -0.6564069 1.7695748 -0.42015454
C -0.46951795 0.24288458 -0.6028518
C 0.23496725 -0.06116026 -1.8481851
N 0.7605455 -0.27611282 -2.85351
C 0.26789594 -0.35598752 0.61032254
O 1.3981296 -0.77366066 0.5601451
C -0.51122254 -0.3590264 1.8348644
C -1.1696072 -0.370751 2.8424063
H 0.3135594 2.2704527 -0.37724656
H -1.2237303 2.1793826 -1.2580535
H -1.2009486 1.9675905 0.5056315
H -1.4615269 -0.22417673 -0.64567864
H -1.7344929 -0.39029405 3.7435527
