12
title
O -0.5952853 1.9832125 -0.5021021
C -0.61784506 0.58527404 -0.45363283
C 0.039943334 -0.042612724 -1.6060739
C 0.5908094 -0.5509488 -2.5448182
C 0.07878571 0.10216261 0.8418995
O 0.6416071 0.9104729 1.5480937
C 0.0056152884 -1.303259 1.1431465
C -0.09686328 -2.4759402 1.3922915
H 0.026069934 2.2554 0.19378681
H -1.6614362 0.23633805 -0.40903252
H 1.0713398 -0.995063 -3.3816934
H -0.17650121 -3.512193 1.6176982
