title
 OpenBabel02282109583D

 11 10  0  0  1  0  0  0  0  0999 V2000
   -0.7052    1.9930   -0.4508 O   0  0  0  0  0  0  0  0  0  0  0  0
   -0.6564    0.5968   -0.4370 C   0  0  1  0  0  0  0  0  0  0  0  0
    0.0193    0.0080   -1.6009 C   0  0  0  0  0  0  0  0  0  0  0  0
    0.5975   -0.4791   -2.5344 C   0  0  0  0  0  0  0  0  0  0  0  0
    0.0938    0.1114    0.8175 C   0  0  0  0  0  0  0  0  0  0  0  0
    0.6966    0.8774    1.5243 O   0  0  0  0  0  0  0  0  0  0  0  0
    0.0446   -1.3279    1.0923 C   0  0  0  0  0  0  0  0  0  0  0  0
   -0.0338   -2.4589    1.3184 N   0  0  0  0  0  0  0  0  0  0  0  0
    0.0158    2.3032    0.1181 H   0  0  0  0  0  0  0  0  0  0  0  0
   -1.6844    0.2084   -0.3849 H   0  0  0  0  0  0  0  0  0  0  0  0
    1.0964   -0.9068   -3.3698 H   0  0  0  0  0  0  0  0  0  0  0  0
  1  2  1  0  0  0  0
  1  9  1  0  0  0  0
  2 10  1  1  0  0  0
  2  5  1  0  0  0  0
  3  2  1  0  0  0  0
  4  3  3  0  0  0  0
  5  7  1  0  0  0  0
  5  6  2  0  0  0  0
  7  8  3  0  0  0  0
 11  4  1  0  0  0  0
M  END
