14
title
C 1.0452228 1.4949679 -0.5507663
C 0.734009 0.043148603 -0.09104165
C 1.4838421 -0.3218928 1.101612
C 2.1157012 -0.6092643 2.0815
C -0.77524024 -0.083254136 0.11803489
O -1.3471043 -0.028214816 1.1772885
C -1.6244416 -0.27472633 -1.1502106
O -1.1626456 -0.39363563 -2.2542205
H 2.1159673 1.5932937 -0.740447
H 0.5049779 1.7282538 -1.4712813
H 0.763217 2.2089636 0.22689852
H 0.9948867 -0.6238705 -0.92176884
H 2.6699789 -0.8719606 2.9484115
H -2.7121265 -0.30581146 -0.931005
