title
 OpenBabel02282109583D

 16 15  0  0  1  0  0  0  0  0999 V2000
    0.8971    1.5876   -0.1508 C   0  0  0  0  0  0  0  0  0  0  0  0
    0.8348    0.0495   -0.1215 C   0  0  1  0  0  0  0  0  0  0  0  0
    1.5620   -0.4940    1.0223 C   0  0  0  0  0  0  0  0  0  0  0  0
    2.1616   -0.9399    1.9635 C   0  0  0  0  0  0  0  0  0  0  0  0
   -0.6383   -0.4773   -0.1212 C   0  0  1  0  0  0  0  0  0  0  0  0
   -1.3796   -0.0046    0.9928 O   0  0  0  0  0  0  0  0  0  0  0  0
   -1.3045   -0.1689   -1.3901 C   0  0  0  0  0  0  0  0  0  0  0  0
   -1.8530    0.1205   -2.4203 C   0  0  0  0  0  0  0  0  0  0  0  0
    1.9344    1.9255   -0.2009 H   0  0  0  0  0  0  0  0  0  0  0  0
    0.3614    1.9738   -1.0227 H   0  0  0  0  0  0  0  0  0  0  0  0
    0.4543    2.0054    0.7576 H   0  0  0  0  0  0  0  0  0  0  0  0
    1.2954   -0.3356   -1.0408 H   0  0  0  0  0  0  0  0  0  0  0  0
    2.6907   -1.3359    2.7946 H   0  0  0  0  0  0  0  0  0  0  0  0
   -0.5958   -1.5646    0.0045 H   0  0  0  0  0  0  0  0  0  0  0  0
   -1.6727    0.8910    0.7944 H   0  0  0  0  0  0  0  0  0  0  0  0
   -2.3461    0.3560   -3.3313 H   0  0  0  0  0  0  0  0  0  0  0  0
  1  2  1  0  0  0  0
  1 11  1  0  0  0  0
  2 12  1  6  0  0  0
  2  5  1  0  0  0  0
  2  3  1  0  0  0  0
  3  4  3  0  0  0  0
  4 13  1  0  0  0  0
  5 14  1  1  0  0  0
  5  6  1  0  0  0  0
  7  5  1  0  0  0  0
  8  7  3  0  0  0  0
  9  1  1  0  0  0  0
 10  1  1  0  0  0  0
 15  6  1  0  0  0  0
 16  8  1  0  0  0  0
M  END
