16
title
C 0.631022 2.1945808 -0.22444277
C 0.58909327 0.65414375 -0.20158003
C 1.2900848 0.16098437 0.9895771
N 1.8388554 -0.19400302 1.9422438
C -0.8651124 0.08466228 -0.2449315
C -1.6709832 0.5891003 -1.4579204
C -0.8337548 -1.3824513 -0.25136396
N -0.8185847 -2.5369549 -0.29174235
H 1.6605211 2.5423133 -0.11545179
H 0.24019553 2.5785668 -1.1684699
H 0.04317124 2.6131065 0.59773463
H 1.1240568 0.2691873 -1.0783991
H -1.3728229 0.39665955 0.6759793
H -2.6494508 0.10478189 -1.4844089
H -1.8266264 1.6677778 -1.397856
H -1.153242 0.3583357 -2.3935487
