16
title
C 0.9107413 1.5798384 -0.23836266
C 0.82935655 0.04613821 -0.157265
C 1.5234356 -0.45157 1.0327977
N 2.0313728 -0.8462949 1.9936668
C -0.6497293 -0.50612944 -0.13794279
N -1.460277 -0.111540094 1.0098807
C -1.3196291 -0.13920979 -1.38558
C -1.8444744 0.17952429 -2.4182267
H 1.951393 1.909163 -0.27551618
H 0.39860967 1.9252566 -1.1390845
H 0.44295526 2.0435524 0.6342941
H 1.3239202 -0.38538048 -1.0356631
H -0.56562823 -1.5998883 -0.10487382
H -0.9851876 -0.36028823 1.8730053
H -1.6177617 0.8907869 1.0145078
H -2.3269646 0.44336408 -3.3271725
