15
title
C -0.62513375 1.571138 -0.69562036
C -0.5310665 0.036671966 -0.6406237
C 0.121796094 -0.49122882 -1.842191
N 0.6241133 -0.9074716 -2.7958155
C 0.22247472 -0.47641578 0.63043284
O 1.5490862 0.016462263 0.69014156
C -0.5422377 -0.16441956 1.8395498
C -1.1569842 0.12819374 2.8301961
H 0.37215367 2.0145264 -0.7518315
H -1.1860168 1.8908501 -1.5761933
H -1.1342528 1.942259 0.19746868
H -1.5421999 -0.38658047 -0.6051105
H 0.32041034 -1.563975 0.5394126
H 1.5285801 0.8896472 1.0959731
H -1.6963232 0.36571032 3.7145176
