14
title
N -0.2559029 1.4924253 -0.69730043
C -0.47515887 0.035679195 -0.674623
C 0.14820035 -0.5908133 -1.8352813
C 0.64537907 -1.1045289 -2.8000534
C 0.18388714 -0.48630267 0.64496154
O 1.4968839 -0.023792911 0.7582621
C -0.6532189 -0.048064016 1.7909645
N -1.3202834 0.32212856 2.6591485
H -0.30802837 1.8448594 -1.6454749
H -0.96826357 1.9613008 -0.14579199
H -1.5400876 -0.24023947 -0.65534943
H 1.088691 -1.564541 -3.6489985
H 0.20331575 -1.5801057 0.63401765
H 1.4664278 0.8849728 0.4109595
