title
 OpenBabel02282109583D

 14 13  0  0  1  0  0  0  0  0999 V2000
   -0.2358    1.4714    0.9806 N   0  0  0  0  0  0  0  0  0  0  0  0
   -0.2007    0.0278    0.8214 C   0  0  1  0  0  0  0  0  0  0  0  0
   -1.5590   -0.5202    0.9449 C   0  0  0  0  0  0  0  0  0  0  0  0
   -2.6219   -0.9721    0.9710 N   0  0  0  0  0  0  0  0  0  0  0  0
    0.4011   -0.5109   -0.5421 C   0  0  1  0  0  0  0  0  0  0  0  0
   -0.3163   -0.1407   -1.7500 N   0  0  0  0  0  0  0  0  0  0  0  0
    1.7902   -0.0371   -0.6227 C   0  0  0  0  0  0  0  0  0  0  0  0
    2.8674    0.3804   -0.6289 N   0  0  0  0  0  0  0  0  0  0  0  0
    0.7059    1.8495    0.9408 H   0  0  0  0  0  0  0  0  0  0  0  0
   -0.7894    1.9097    0.2515 H   0  0  0  0  0  0  0  0  0  0  0  0
    0.4064   -0.3869    1.6356 H   0  0  0  0  0  0  0  0  0  0  0  0
    0.4205   -1.6061   -0.4832 H   0  0  0  0  0  0  0  0  0  0  0  0
   -1.2637   -0.5050   -1.7181 H   0  0  0  0  0  0  0  0  0  0  0  0
   -0.3628    0.8675   -1.8573 H   0  0  0  0  0  0  0  0  0  0  0  0
  2  3  1  0  0  0  0
  2  1  1  0  0  0  0
  2 11  1  1  0  0  0
  3  4  3  0  0  0  0
  5 12  1  1  0  0  0
  5  2  1  0  0  0  0
  6 13  1  0  0  0  0
  6  5  1  0  0  0  0
  7  5  1  0  0  0  0
  8  7  3  0  0  0  0
  9  1  1  0  0  0  0
 10  1  1  0  0  0  0
 14  6  1  0  0  0  0
M  END
