14
title
N -0.23583569 1.4714398 0.9805788
C -0.20065382 0.027794823 0.8214462
C -1.5590036 -0.5202403 0.9449437
N -2.6219091 -0.9720571 0.9710283
C 0.40110818 -0.51093584 -0.54209316
N -0.31626642 -0.14074814 -1.7499863
C 1.7902293 -0.037067324 -0.6227077
N 2.867402 0.3803625 -0.6289104
H 0.7058854 1.849532 0.94076073
H -0.7894456 1.9097459 0.25146815
H 0.40641496 -0.3869317 1.6355538
H 0.42050365 -1.6061312 -0.483161
H -1.2637185 -0.50502586 -1.7181433
H -0.36280674 0.8674788 -1.8572732
