14
title
O 0.7771089 1.3597586 -1.4404235
C -0.08612609 0.5200633 -0.7012999
C -0.47592065 -0.6740715 -1.4533927
C -0.72289973 -1.6653891 -2.0866878
C 0.5461421 0.121605076 0.67575586
O 1.0906439 1.2455375 1.33671
C -0.42985475 -0.58937883 1.503689
C -1.264397 -1.1066567 2.1970394
H 1.5124607 0.8245809 -1.7600797
H -0.97240794 1.1309621 -0.49013585
H -0.96541715 -2.536213 -2.6445537
H 1.4013093 -0.53269523 0.4663196
H 0.35976303 1.7869514 1.6561179
H -1.9892197 -1.5851587 2.80862
