title
 OpenBabel02282109583D

 13 12  0  0  1  0  0  0  0  0999 V2000
   -0.1800    1.4567   -0.6507 O   0  0  0  0  0  0  0  0  0  0  0  0
   -0.5043    0.0687   -0.6474 C   0  0  1  0  0  0  0  0  0  0  0  0
   -0.0108   -0.6153   -1.8401 C   0  0  0  0  0  0  0  0  0  0  0  0
    0.3728   -1.1490   -2.8457 C   0  0  0  0  0  0  0  0  0  0  0  0
    0.1621   -0.4846    0.6416 C   0  0  1  0  0  0  0  0  0  0  0  0
    1.5261   -0.1684    0.6794 O   0  0  0  0  0  0  0  0  0  0  0  0
   -0.5567    0.0316    1.8312 C   0  0  0  0  0  0  0  0  0  0  0  0
   -1.1147    0.4231    2.7637 N   0  0  0  0  0  0  0  0  0  0  0  0
   -0.2685    1.7888   -1.5496 H   0  0  0  0  0  0  0  0  0  0  0  0
   -1.5919   -0.0733   -0.5671 H   0  0  0  0  0  0  0  0  0  0  0  0
    0.7175   -1.6305   -3.7281 H   0  0  0  0  0  0  0  0  0  0  0  0
    0.0767   -1.5753    0.6418 H   0  0  0  0  0  0  0  0  0  0  0  0
    1.5890    0.7643    0.4282 H   0  0  0  0  0  0  0  0  0  0  0  0
  1  2  1  0  0  0  0
  2 10  1  1  0  0  0
  2  5  1  0  0  0  0
  3  2  1  0  0  0  0
  4  3  3  0  0  0  0
  5 12  1  6  0  0  0
  5  6  1  0  0  0  0
  5  7  1  0  0  0  0
  7  8  3  0  0  0  0
  9  1  1  0  0  0  0
 11  4  1  0  0  0  0
 13  6  1  0  0  0  0
M  END
