title
 OpenBabel02282109583D

 12 11  0  0  1  0  0  0  0  0999 V2000
   -0.3961    1.4797   -0.7356 O   0  0  0  0  0  0  0  0  0  0  0  0
   -0.5095    0.0803   -0.6274 C   0  0  1  0  0  0  0  0  0  0  0  0
    0.0021   -0.6072   -1.8266 C   0  0  0  0  0  0  0  0  0  0  0  0
    0.4176   -1.1348   -2.7662 N   0  0  0  0  0  0  0  0  0  0  0  0
    0.2450   -0.4372    0.6392 C   0  0  1  0  0  0  0  0  0  0  0  0
    1.5534    0.0815    0.6841 O   0  0  0  0  0  0  0  0  0  0  0  0
   -0.5235   -0.0963    1.8498 C   0  0  0  0  0  0  0  0  0  0  0  0
   -1.1193    0.1881    2.7974 N   0  0  0  0  0  0  0  0  0  0  0  0
    0.4878    1.6813   -1.0659 H   0  0  0  0  0  0  0  0  0  0  0  0
   -1.5763   -0.1438   -0.5253 H   0  0  0  0  0  0  0  0  0  0  0  0
    0.3381   -1.5264    0.5805 H   0  0  0  0  0  0  0  0  0  0  0  0
    1.4991    0.9991    0.9775 H   0  0  0  0  0  0  0  0  0  0  0  0
  1  2  1  0  0  0  0
  2 10  1  1  0  0  0
  2  5  1  0  0  0  0
  3  2  1  0  0  0  0
  4  3  3  0  0  0  0
  5 11  1  6  0  0  0
  5  6  1  0  0  0  0
  5  7  1  0  0  0  0
  6 12  1  0  0  0  0
  7  8  3  0  0  0  0
  9  1  1  0  0  0  0
M  END
