14
title
C 0.010958898 1.6380701 0.53756326
N 0.027044885 0.17645107 0.52628547
C 0.102517664 -0.47581664 1.7548902
N 0.15426025 0.20079598 2.830261
C -0.028564487 -0.5738455 -0.63557786
N -0.013978387 -1.8531312 -0.6377099
C -0.10590796 0.1791146 -1.8774887
N -0.16913477 0.6869463 -2.9147627
H 0.91771984 2.0143597 1.016794
H -0.05011315 2.014267 -0.48215598
H -0.84536874 1.9941534 1.114941
H 0.10933359 -1.5600603 1.6533474
H 0.20581329 -0.4246728 3.6322114
H -0.062080514 -2.2206457 -1.5838293
