14
title
C 0.023134094 1.6472583 0.568017
N 0.024620827 0.18810599 0.5167239
C 0.08529423 -0.5031516 1.7250304
N 0.13707957 0.13239527 2.825123
C -0.0306057 -0.5496226 -0.6601856
O -0.028435223 -1.765437 -0.68427336
C -0.09280441 0.21425714 -1.8954185
C -0.14686675 0.73813707 -2.9767215
H 0.93031996 2.0015857 1.0633584
H -0.027203687 2.0413582 -0.4446364
H -0.83360344 1.9967738 1.1491683
H 0.08128882 -1.5830601 1.5820816
H 0.17671852 -0.52388114 3.603078
H -0.19462296 1.202553 -3.9318144
