13
title
C -0.0914807 1.6457047 0.54410005
N -0.0511036 0.18336183 0.5230087
C -0.14141473 -0.49277893 1.7455883
N -0.25412613 0.16557793 2.8239427
C 0.070149355 -0.5703291 -0.62354666
O 0.10568189 -1.7804155 -0.66532785
C 0.16073886 0.20130883 -1.8769096
N 0.23783813 0.7252176 -2.9041069
H -0.011933771 2.0281465 -0.4720414
H -1.0278146 1.9800516 0.99546045
H 0.73269796 2.0264351 1.150745
H -0.10217888 -1.5746266 1.6242458
H -0.3077765 -0.46828458 3.6194353
