14
title
C -0.021305483 1.6263459 0.48716286
N -0.004078501 0.165098 0.5036892
C -0.005946075 -0.48759925 1.7337911
O -0.020160494 0.09109381 2.7951992
C 0.013838151 -0.57339275 -0.6881488
N 0.03647105 -1.8531519 -0.6773272
C 0.0053454353 0.20383035 -1.8996576
C -0.00030659727 0.7857504 -2.9526007
H 0.8666508 2.0222485 -0.012124601
H -0.91176695 2.0012987 -0.023687186
H -0.031857386 1.9498471 1.5269886
H 0.0064685834 -1.5781986 1.6206136
H 0.045501847 -2.2127717 -1.6283962
H -0.005341927 1.3005552 -3.8824935
