13
title
C -0.021547928 1.628567 0.47822794
N -0.0052636336 0.16461585 0.51515347
C -0.009194629 -0.47910774 1.7566139
O -0.024557218 0.11462614 2.8063295
C 0.013813499 -0.58538336 -0.6573814
N 0.033717904 -1.8609844 -0.6691005
C 0.009788763 0.19771431 -1.8833203
N 0.00783528 0.7550156 -2.8964996
H 0.8690978 2.016589 -0.022394918
H -0.9121762 1.9964964 -0.037377857
H -0.034044545 1.9650139 1.513681
H 0.003150025 -1.5710579 1.6563151
H 0.044553485 -2.2227526 -1.6193235
