13
title
C -0.02670539 1.6412219 0.50302154
N -0.005291017 0.17791998 0.50138533
C -0.002623866 -0.49945 1.725276
O -0.016713692 0.060145393 2.79373
C 0.01232675 -0.56813955 -0.68121946
O 0.030563395 -1.7806009 -0.7073375
C 0.0073098377 0.21982425 -1.900168
C 0.0041981908 0.80838484 -2.9486873
H 0.8591036 2.0428388 0.00593309
H -0.91974485 2.0169308 -0.0013842146
H -0.03561627 1.9529191 1.5466427
H 0.014186603 -1.5876788 1.5886153
H 0.0012415212 1.3227334 -3.8793414
