12
title
C -0.02692279 1.6377656 0.4975499
N -0.005937684 0.17076083 0.51137215
C -0.0062219263 -0.5018416 1.7474047
O -0.022887077 0.07182828 2.804392
C 0.014193814 -0.58198273 -0.65057635
O 0.030768484 -1.788495 -0.70705426
C 0.011174359 0.22260085 -1.8865029
N 0.009805518 0.80698544 -2.8831856
H 0.8626183 2.0332778 0.0026801063
H -0.91924906 2.0076513 -0.011906283
H -0.040041354 1.9576848 1.5382743
H 0.010494182 -1.5912603 1.6211361
