title
 OpenBabel02282109583D

 12 11  0  0  1  0  0  0  0  0999 V2000
   -0.6543    1.8387   -0.3522 O   0  0  0  0  0  0  0  0  0  0  0  0
   -0.6182    0.4587   -0.3098 C   0  0  1  0  0  0  0  0  0  0  0  0
    0.0410   -0.1151   -1.5627 C   0  0  0  0  0  0  0  0  0  0  0  0
    0.4982    0.6196   -2.4014 O   0  0  0  0  0  0  0  0  0  0  0  0
    0.1321   -0.0715    0.9410 C   0  0  0  0  0  0  0  0  0  0  0  0
    0.7981    0.6423    1.6457 O   0  0  0  0  0  0  0  0  0  0  0  0
   -0.0415   -1.4925    1.1838 C   0  0  0  0  0  0  0  0  0  0  0  0
   -0.2001   -2.6742    1.3508 C   0  0  0  0  0  0  0  0  0  0  0  0
   -0.1259    2.0991   -1.1237 H   0  0  0  0  0  0  0  0  0  0  0  0
   -1.6344    0.0282   -0.2599 H   0  0  0  0  0  0  0  0  0  0  0  0
    0.0795   -1.2164   -1.6504 H   0  0  0  0  0  0  0  0  0  0  0  0
   -0.3278   -3.7170    1.5176 H   0  0  0  0  0  0  0  0  0  0  0  0
  1  2  1  0  0  0  0
  2 10  1  1  0  0  0
  2  5  1  0  0  0  0
  3  2  1  0  0  0  0
  4  3  2  0  0  0  0
  5  7  1  0  0  0  0
  5  6  2  0  0  0  0
  7  8  3  0  0  0  0
  8 12  1  0  0  0  0
  9  1  1  0  0  0  0
 11  3  1  0  0  0  0
M  END
