15
title
C 0.14796701 1.7820379 0.58636767
N 0.07400904 0.3208051 0.61120355
C 0.16211404 -0.32886326 1.8404799
N 0.3034918 0.3177875 2.9269953
C -0.027374385 -0.44054395 -0.54885685
N 0.10608733 -1.709834 -0.54841816
C -0.35597715 0.29230943 -1.8433919
O -0.38877684 -0.2971366 -2.8926926
H 0.45694906 2.0977147 1.5819072
H 0.88531595 2.1264327 -0.14334363
H -0.8229545 2.2380779 0.36542717
H 0.09125282 -1.4101057 1.7289014
H 0.33550403 -0.32674563 3.7137136
H -0.0351803 -2.0437732 -1.5041289
H -0.5870047 1.3711066 -1.7873561
