14
title
C -0.4635551 1.5633458 0.39247087
N -0.09038179 0.14513916 0.49881348
C -0.058280166 -0.45144287 1.7677667
N -0.34260622 0.20327486 2.816958
C 0.23580125 -0.6535157 -0.5773656
O 0.5452943 -1.8291515 -0.4898699
C 0.22386771 -0.072970115 -2.000213
O -0.044621203 1.0477387 -2.336938
H 0.34562638 2.1451998 -0.04946656
H -1.3548445 1.6846887 -0.22358544
H -0.6605004 1.9073027 1.406054
H 0.23163646 -1.4995145 1.708036
H -0.26368058 -0.3966507 3.6356142
H 0.51254976 -0.8724306 -2.7120018
