13
title
C -0.4818718 1.5523704 0.40199232
N -0.094779804 0.13672191 0.48485824
C -0.07435724 -0.46398738 1.7574761
O -0.35648212 0.12228818 2.7706008
C 0.25254595 -0.6501306 -0.6028018
O 0.57150435 -1.8200182 -0.5228183
C 0.24860598 -0.04902258 -2.0195057
O -0.030468041 1.0747513 -2.3343334
H 0.3244977 2.152861 -0.01904907
H -1.3702302 1.6778529 -0.21697511
H -0.68974674 1.8687998 1.4231896
H 0.22676228 -1.5170659 1.7064453
H 0.55279416 -0.8323139 -2.742344
