title
 OpenBabel02282109583D

 13 12  0  0  0  0  0  0  0  0999 V2000
   -0.4819    1.5524    0.4020 C   0  0  0  0  0  0  0  0  0  0  0  0
   -0.0948    0.1367    0.4849 N   0  0  0  0  0  0  0  0  0  0  0  0
   -0.0744   -0.4640    1.7575 C   0  0  0  0  0  0  0  0  0  0  0  0
   -0.3565    0.1223    2.7706 O   0  0  0  0  0  0  0  0  0  0  0  0
    0.2525   -0.6501   -0.6028 C   0  0  0  0  0  0  0  0  0  0  0  0
    0.5715   -1.8200   -0.5228 O   0  0  0  0  0  0  0  0  0  0  0  0
    0.2486   -0.0490   -2.0195 C   0  0  0  0  0  0  0  0  0  0  0  0
   -0.0305    1.0748   -2.3343 O   0  0  0  0  0  0  0  0  0  0  0  0
    0.3245    2.1529   -0.0190 H   0  0  0  0  0  0  0  0  0  0  0  0
   -1.3702    1.6779   -0.2170 H   0  0  0  0  0  0  0  0  0  0  0  0
   -0.6897    1.8688    1.4232 H   0  0  0  0  0  0  0  0  0  0  0  0
    0.2268   -1.5171    1.7064 H   0  0  0  0  0  0  0  0  0  0  0  0
    0.5528   -0.8323   -2.7423 H   0  0  0  0  0  0  0  0  0  0  0  0
  1  2  1  0  0  0  0
  1 11  1  0  0  0  0
  2  3  1  0  0  0  0
  3  4  2  0  0  0  0
  5  6  2  0  0  0  0
  5  2  1  0  0  0  0
  7  5  1  0  0  0  0
  8  7  2  0  0  0  0
  9  1  1  0  0  0  0
 10  1  1  0  0  0  0
 12  3  1  0  0  0  0
 13  7  1  0  0  0  0
M  END
