16
title
C 1.0306048 1.5181607 -0.24862333
C 0.95335656 -0.019501124 -0.19691667
C 1.7228097 -0.557863 0.92117304
C 2.3574698 -0.9957155 1.84272
C -0.52428406 -0.51380503 -0.1257196
O -1.2134064 0.049166664 0.95074993
C -1.2441248 -0.21912298 -1.4278468
O -2.27469 0.4082766 -1.4577857
H 2.0714388 1.8467005 -0.28359595
H 0.5160987 1.9047185 -1.1346475
H 0.5581039 1.9422736 0.6389189
H 1.3768438 -0.42984852 -1.1256858
H 2.9164734 -1.3828756 2.6582816
H -0.49343506 -1.6142371 -0.03425655
H -1.9928328 0.48130172 0.56669134
H -0.7772786 -0.62085515 -2.3509724
