title
 OpenBabel02282109583D

 16 15  0  0  1  0  0  0  0  0999 V2000
    1.0306    1.5182   -0.2486 C   0  0  0  0  0  0  0  0  0  0  0  0
    0.9534   -0.0195   -0.1969 C   0  0  1  0  0  0  0  0  0  0  0  0
    1.7228   -0.5579    0.9212 C   0  0  0  0  0  0  0  0  0  0  0  0
    2.3575   -0.9957    1.8427 C   0  0  0  0  0  0  0  0  0  0  0  0
   -0.5243   -0.5138   -0.1257 C   0  0  1  0  0  0  0  0  0  0  0  0
   -1.2134    0.0492    0.9507 O   0  0  0  0  0  0  0  0  0  0  0  0
   -1.2441   -0.2191   -1.4278 C   0  0  0  0  0  0  0  0  0  0  0  0
   -2.2747    0.4083   -1.4578 O   0  0  0  0  0  0  0  0  0  0  0  0
    2.0714    1.8467   -0.2836 H   0  0  0  0  0  0  0  0  0  0  0  0
    0.5161    1.9047   -1.1346 H   0  0  0  0  0  0  0  0  0  0  0  0
    0.5581    1.9423    0.6389 H   0  0  0  0  0  0  0  0  0  0  0  0
    1.3768   -0.4298   -1.1257 H   0  0  0  0  0  0  0  0  0  0  0  0
    2.9165   -1.3829    2.6583 H   0  0  0  0  0  0  0  0  0  0  0  0
   -0.4934   -1.6142   -0.0343 H   0  0  0  0  0  0  0  0  0  0  0  0
   -1.9928    0.4813    0.5667 H   0  0  0  0  0  0  0  0  0  0  0  0
   -0.7773   -0.6209   -2.3510 H   0  0  0  0  0  0  0  0  0  0  0  0
  1  2  1  0  0  0  0
  1 11  1  0  0  0  0
  2 12  1  6  0  0  0
  2  5  1  0  0  0  0
  2  3  1  0  0  0  0
  3  4  3  0  0  0  0
  4 13  1  0  0  0  0
  5 14  1  1  0  0  0
  5  6  1  0  0  0  0
  7  5  1  0  0  0  0
  8  7  2  0  0  0  0
  9  1  1  0  0  0  0
 10  1  1  0  0  0  0
 15  6  1  0  0  0  0
 16  7  1  0  0  0  0
M  END
