title
 OpenBabel02282109583D

 15 14  0  0  1  0  0  0  0  0999 V2000
   -0.7591    1.5055   -0.7684 C   0  0  0  0  0  0  0  0  0  0  0  0
   -0.6474   -0.0287   -0.7051 C   0  0  1  0  0  0  0  0  0  0  0  0
   -0.0480   -0.5628   -1.9314 C   0  0  0  0  0  0  0  0  0  0  0  0
    0.4118   -0.9843   -2.9039 N   0  0  0  0  0  0  0  0  0  0  0  0
    0.1684   -0.5073    0.5332 C   0  0  1  0  0  0  0  0  0  0  0  0
    1.4278    0.0880    0.5794 O   0  0  0  0  0  0  0  0  0  0  0  0
   -0.6058   -0.2231    1.8098 C   0  0  0  0  0  0  0  0  0  0  0  0
   -0.1226    0.4186    2.7088 O   0  0  0  0  0  0  0  0  0  0  0  0
    0.2369    1.9494   -0.8006 H   0  0  0  0  0  0  0  0  0  0  0  0
   -1.3139    1.8153   -1.6563 H   0  0  0  0  0  0  0  0  0  0  0  0
   -1.2812    1.8846    0.1153 H   0  0  0  0  0  0  0  0  0  0  0  0
   -1.6509   -0.4692   -0.6275 H   0  0  0  0  0  0  0  0  0  0  0  0
    0.2575   -1.6062    0.4655 H   0  0  0  0  0  0  0  0  0  0  0  0
    1.4866    0.5220    1.4458 H   0  0  0  0  0  0  0  0  0  0  0  0
   -1.6283   -0.6483    1.8744 H   0  0  0  0  0  0  0  0  0  0  0  0
  1  2  1  0  0  0  0
  1 11  1  0  0  0  0
  2 12  1  1  0  0  0
  2  5  1  0  0  0  0
  3  2  1  0  0  0  0
  4  3  3  0  0  0  0
  5 13  1  6  0  0  0
  5  6  1  0  0  0  0
  5  7  1  0  0  0  0
  6 14  1  0  0  0  0
  7 15  1  0  0  0  0
  7  8  2  0  0  0  0
  9  1  1  0  0  0  0
 10  1  1  0  0  0  0
M  END
