title
 OpenBabel02282109583D

 16 15  0  0  1  0  0  0  0  0999 V2000
   -0.7447    1.9808   -0.6521 C   0  0  0  0  0  0  0  0  0  0  0  0
   -0.6325    0.4459   -0.5994 C   0  0  1  0  0  0  0  0  0  0  0  0
    0.0109   -0.0647   -1.8296 C   0  0  0  0  0  0  0  0  0  0  0  0
    0.5271   -0.4504   -2.7885 N   0  0  0  0  0  0  0  0  0  0  0  0
    0.0518   -0.0466    0.5847 N   0  0  0  0  0  0  0  0  0  0  0  0
    1.4491    0.2991    0.8093 C   0  0  0  0  0  0  0  0  0  0  0  0
   -0.5928   -0.8845    1.4579 C   0  0  0  0  0  0  0  0  0  0  0  0
   -0.1113   -1.3483    2.4652 O   0  0  0  0  0  0  0  0  0  0  0  0
    0.2396    2.4490   -0.7185 H   0  0  0  0  0  0  0  0  0  0  0  0
   -1.3246    2.2841   -1.5272 H   0  0  0  0  0  0  0  0  0  0  0  0
   -1.2477    2.3369    0.2503 H   0  0  0  0  0  0  0  0  0  0  0  0
   -1.6455    0.0270   -0.5739 H   0  0  0  0  0  0  0  0  0  0  0  0
    1.5680    1.3633    1.0383 H   0  0  0  0  0  0  0  0  0  0  0  0
    1.7927   -0.2874    1.6610 H   0  0  0  0  0  0  0  0  0  0  0  0
    2.0501    0.0551   -0.0728 H   0  0  0  0  0  0  0  0  0  0  0  0
   -1.6330   -1.0908    1.1366 H   0  0  0  0  0  0  0  0  0  0  0  0
  1  2  1  0  0  0  0
  1 11  1  0  0  0  0
  2 12  1  1  0  0  0
  2  5  1  0  0  0  0
  3  2  1  0  0  0  0
  4  3  3  0  0  0  0
  5  6  1  0  0  0  0
  5  7  1  0  0  0  0
  6 13  1  0  0  0  0
  6 14  1  0  0  0  0
  7  8  2  0  0  0  0
  9  1  1  0  0  0  0
 10  1  1  0  0  0  0
 15  6  1  0  0  0  0
 16  7  1  0  0  0  0
M  END
