16
title
C -0.74473476 1.9808079 -0.6520792
C -0.6325483 0.44591844 -0.5993906
C 0.010902193 -0.064724505 -1.8296326
N 0.5271018 -0.45038396 -2.788536
N 0.05182269 -0.046640392 0.58470076
C 1.4491417 0.2991384 0.80933493
C -0.59283125 -0.8845289 1.457921
O -0.11128786 -1.348292 2.4652145
H 0.2395595 2.4489756 -0.7185474
H -1.3245615 2.284102 -1.5272444
H -1.2477314 2.3369164 0.25030577
H -1.6454543 0.026998702 -0.5738717
H 1.5679541 1.363274 1.0383484
H 1.7926793 -0.28740543 1.6609731
H 2.0500855 0.055127565 -0.07280701
H -1.6329737 -1.0908208 1.1365638
