title
 OpenBabel02282109583D

 18 17  0  0  1  0  0  0  0  0999 V2000
   -0.2521    2.1704    0.5340 C   0  0  0  0  0  0  0  0  0  0  0  0
   -0.1002    0.6382    0.4803 C   0  0  1  0  0  0  0  0  0  0  0  0
   -1.4976    0.0363    0.4969 C   0  0  0  0  0  0  0  0  0  0  0  0
   -2.0660   -0.3434    1.4862 O   0  0  0  0  0  0  0  0  0  0  0  0
    0.6820    0.1508   -0.7703 C   0  0  1  0  0  0  0  0  0  0  0  0
    2.1323    0.6714   -0.8165 C   0  0  0  0  0  0  0  0  0  0  0  0
    0.6593   -1.3114   -0.8351 C   0  0  0  0  0  0  0  0  0  0  0  0
    0.6421   -2.5133   -0.8593 C   0  0  0  0  0  0  0  0  0  0  0  0
    0.7202    2.6647    0.5959 H   0  0  0  0  0  0  0  0  0  0  0  0
   -0.7686    2.5496   -0.3555 H   0  0  0  0  0  0  0  0  0  0  0  0
   -0.8333    2.4614    1.4132 H   0  0  0  0  0  0  0  0  0  0  0  0
    0.4084    0.2898    1.3853 H   0  0  0  0  0  0  0  0  0  0  0  0
   -2.0004    0.0147   -0.4995 H   0  0  0  0  0  0  0  0  0  0  0  0
    0.1558    0.5351   -1.6570 H   0  0  0  0  0  0  0  0  0  0  0  0
    2.6823    0.3601    0.0767 H   0  0  0  0  0  0  0  0  0  0  0  0
    2.6505    0.2668   -1.6893 H   0  0  0  0  0  0  0  0  0  0  0  0
    2.1592    1.7619   -0.8802 H   0  0  0  0  0  0  0  0  0  0  0  0
    0.6184   -3.5747   -0.8878 H   0  0  0  0  0  0  0  0  0  0  0  0
  1  9  1  0  0  0  0
  1 11  1  0  0  0  0
  2  3  1  0  0  0  0
  2  1  1  0  0  0  0
  2 12  1  1  0  0  0
  3  4  2  0  0  0  0
  5 14  1  6  0  0  0
  5  2  1  0  0  0  0
  6  5  1  0  0  0  0
  6 15  1  0  0  0  0
  7  5  1  0  0  0  0
  8  7  3  0  0  0  0
 10  1  1  0  0  0  0
 13  3  1  0  0  0  0
 16  6  1  0  0  0  0
 17  6  1  0  0  0  0
 18  8  1  0  0  0  0
M  END
