17
title
C -0.25702468 2.1557646 0.54953384
C -0.110185094 0.62313783 0.49005347
C -1.5127702 0.024915854 0.51549006
O -2.1038854 -0.25545183 1.5230161
C 0.672671 0.15283416 -0.76477987
C 2.1210482 0.67704004 -0.82424897
C 0.6724136 -1.3145018 -0.835548
N 0.6759406 -2.4694371 -0.8815425
H 0.71598065 2.6481557 0.61420715
H -0.77552384 2.5407076 -0.33608457
H -0.8371787 2.4369082 1.4319444
H 0.40276143 0.27409807 1.3923
H -1.9899036 -0.094042264 -0.486084
H 0.13533324 0.5107824 -1.6540687
H 2.638633 0.2707024 -1.6962914
H 2.1329644 1.7661703 -0.8986854
H 2.6770146 0.38121688 0.06985438
