16
title
C 0.79453725 1.6007199 -0.0791504
C 0.70066607 0.065292165 -0.08409747
C 1.4408572 -0.48592913 1.1234612
O 2.512154 -1.0336955 1.0683304
C -0.77361876 -0.4325705 -0.067828834
O -1.4797788 0.034596954 1.0791659
C -1.463403 -0.08819028 -1.311985
C -2.0296762 0.23560758 -2.3219457
H 1.8363218 1.9207506 -0.16067298
H 0.2388825 2.019565 -0.92331177
H 0.38681352 2.0187373 0.8471676
H 1.1909839 -0.33445182 -0.9771737
H 0.91933393 -0.3272514 2.0923455
H -0.7625378 -1.5249985 0.034074035
H -1.8020344 0.9213739 0.8863288
H -2.5382042 0.50029606 -3.216501
