18
title
C 0.6254048 2.2414033 -0.24852471
C 0.56593317 0.70287263 -0.24882686
C 1.2904477 0.20305623 0.9924288
O 2.3036613 -0.44507173 0.98420286
C -0.88527745 0.15090092 -0.26763415
C -1.696116 0.6291139 -1.4859459
C -0.85637087 -1.3703312 -0.28790346
O -1.3599058 -2.0798328 0.54264665
H 1.6632934 2.5836556 -0.19720763
H 0.18433642 2.6566253 -1.1572492
H 0.08852646 2.6587052 0.6106627
H 1.1160489 0.3140534 -1.1139288
H 0.80782723 0.50649977 1.9518163
H -1.3998729 0.44490486 0.65484375
H -1.207697 0.34327987 -2.4242024
H -2.6964278 0.18605287 -1.4770803
H -1.8148685 1.7147532 -1.4834104
H -0.32934293 -1.8017551 -1.1719635
