title
 OpenBabel02282109583D

 16 15  0  0  1  0  0  0  0  0999 V2000
   -0.4803    1.6989    0.9207 C   0  0  0  0  0  0  0  0  0  0  0  0
   -0.3560    0.1712    0.9054 C   0  0  1  0  0  0  0  0  0  0  0  0
   -1.7133   -0.5070    1.0778 C   0  0  0  0  0  0  0  0  0  0  0  0
   -1.9978   -1.5900    0.6407 O   0  0  0  0  0  0  0  0  0  0  0  0
    0.3586   -0.3754   -0.3523 C   0  0  1  0  0  0  0  0  0  0  0  0
   -0.1601    0.1916   -1.5236 O   0  0  0  0  0  0  0  0  0  0  0  0
    1.8493   -0.1411   -0.2657 C   0  0  0  0  0  0  0  0  0  0  0  0
    2.4519    0.4643   -1.1192 O   0  0  0  0  0  0  0  0  0  0  0  0
    0.5032    2.1764    0.9509 H   0  0  0  0  0  0  0  0  0  0  0  0
   -0.9955    2.0451    0.0223 H   0  0  0  0  0  0  0  0  0  0  0  0
   -1.0405    2.0338    1.7991 H   0  0  0  0  0  0  0  0  0  0  0  0
    0.2187   -0.1505    1.7906 H   0  0  0  0  0  0  0  0  0  0  0  0
   -2.4418    0.0771    1.6852 H   0  0  0  0  0  0  0  0  0  0  0  0
    0.1989   -1.4679   -0.3519 H   0  0  0  0  0  0  0  0  0  0  0  0
    0.5993    0.5863   -1.9812 H   0  0  0  0  0  0  0  0  0  0  0  0
    2.3615   -0.5610    0.6250 H   0  0  0  0  0  0  0  0  0  0  0  0
  1  9  1  0  0  0  0
  1 11  1  0  0  0  0
  2  1  1  0  0  0  0
  2  3  1  0  0  0  0
  2 12  1  1  0  0  0
  3 13  1  0  0  0  0
  4  3  2  0  0  0  0
  5 14  1  6  0  0  0
  5  7  1  0  0  0  0
  5  2  1  0  0  0  0
  6  5  1  0  0  0  0
  7 16  1  0  0  0  0
  8  7  2  0  0  0  0
 10  1  1  0  0  0  0
 15  6  1  0  0  0  0
M  END
