title
 OpenBabel02282109583D

 17 16  0  0  1  0  0  0  0  0999 V2000
    0.9192    1.8215   -0.3834 C   0  0  0  0  0  0  0  0  0  0  0  0
    0.7567    0.3036   -0.2854 C   0  0  1  0  0  0  0  0  0  0  0  0
    1.5527   -0.2957    0.8789 C   0  0  0  0  0  0  0  0  0  0  0  0
    2.3990    0.2885    1.5001 O   0  0  0  0  0  0  0  0  0  0  0  0
   -0.6223   -0.1559   -0.2193 N   0  0  0  0  0  0  0  0  0  0  0  0
   -1.4689    0.2773    0.8849 C   0  0  0  0  0  0  0  0  0  0  0  0
   -1.1579   -0.9407   -1.2043 C   0  0  0  0  0  0  0  0  0  0  0  0
   -2.2985   -1.3454   -1.2391 O   0  0  0  0  0  0  0  0  0  0  0  0
    1.9791    2.0748   -0.4511 H   0  0  0  0  0  0  0  0  0  0  0  0
    0.4011    2.2039   -1.2663 H   0  0  0  0  0  0  0  0  0  0  0  0
    0.5216    2.3220    0.5030 H   0  0  0  0  0  0  0  0  0  0  0  0
    1.1881   -0.1618   -1.1854 H   0  0  0  0  0  0  0  0  0  0  0  0
    1.2814   -1.3536    1.0998 H   0  0  0  0  0  0  0  0  0  0  0  0
   -1.7255    1.3394    0.8048 H   0  0  0  0  0  0  0  0  0  0  0  0
   -2.3855   -0.3109    0.8458 H   0  0  0  0  0  0  0  0  0  0  0  0
   -0.9679    0.1128    1.8448 H   0  0  0  0  0  0  0  0  0  0  0  0
   -0.4110   -1.1775   -1.9882 H   0  0  0  0  0  0  0  0  0  0  0  0
  1  2  1  0  0  0  0
  1 11  1  0  0  0  0
  2 12  1  6  0  0  0
  2  5  1  0  0  0  0
  2  3  1  0  0  0  0
  3 13  1  0  0  0  0
  3  4  2  0  0  0  0
  5  6  1  0  0  0  0
  6 16  1  0  0  0  0
  7  5  1  0  0  0  0
  8  7  2  0  0  0  0
  9  1  1  0  0  0  0
 10  1  1  0  0  0  0
 14  6  1  0  0  0  0
 15  6  1  0  0  0  0
 17  7  1  0  0  0  0
M  END
