title
 OpenBabel02282109583D

 14 13  0  0  1  0  0  0  0  0999 V2000
   -0.8011    1.2042   -0.6039 O   0  0  0  0  0  0  0  0  0  0  0  0
   -0.7083   -0.1882   -0.6086 C   0  0  1  0  0  0  0  0  0  0  0  0
    0.0018   -0.6726   -1.8614 C   0  0  0  0  0  0  0  0  0  0  0  0
    0.3845    0.1032   -2.6997 O   0  0  0  0  0  0  0  0  0  0  0  0
    0.0496   -0.7051    0.6389 C   0  0  1  0  0  0  0  0  0  0  0  0
    1.4063   -0.3842    0.5764 O   0  0  0  0  0  0  0  0  0  0  0  0
   -0.5825   -0.1149    1.8881 C   0  0  0  0  0  0  0  0  0  0  0  0
    0.0718    0.5162    2.6784 O   0  0  0  0  0  0  0  0  0  0  0  0
   -0.3241    1.5033   -1.3949 H   0  0  0  0  0  0  0  0  0  0  0  0
   -1.7140   -0.6493   -0.6059 H   0  0  0  0  0  0  0  0  0  0  0  0
    0.1416   -1.7673   -1.9605 H   0  0  0  0  0  0  0  0  0  0  0  0
   -0.0932   -1.8010    0.6887 H   0  0  0  0  0  0  0  0  0  0  0  0
    1.5763    0.1936    1.3379 H   0  0  0  0  0  0  0  0  0  0  0  0
   -1.6656   -0.3002    2.0309 H   0  0  0  0  0  0  0  0  0  0  0  0
  2 10  1  1  0  0  0
  2  1  1  0  0  0  0
  2  5  1  0  0  0  0
  3  2  1  0  0  0  0
  4  3  2  0  0  0  0
  5 12  1  1  0  0  0
  5  7  1  0  0  0  0
  6  5  1  0  0  0  0
  6 13  1  0  0  0  0
  7 14  1  0  0  0  0
  7  8  2  0  0  0  0
  9  1  1  0  0  0  0
 11  3  1  0  0  0  0
M  END
