14
title
C -0.33022127 2.6213093 0.7709962
N -0.31914082 1.1720129 0.7369865
C 0.15655915 0.6134418 -0.31045118
N 0.6453233 1.1903758 -1.4491447
C 0.18056639 -0.89480627 -0.36518142
O 0.6817323 -1.4724127 -1.3120638
C -0.403924 -1.6044384 0.7483525
C -0.87238073 -2.2773042 1.6289084
H 0.687811 3.0437803 0.73898226
H -0.8873533 3.049519 -0.07711145
H -0.79993546 2.9638636 1.6955136
H 0.9469317 2.149069 -1.4314438
H 1.1160737 0.5631373 -2.084622
H -1.2908139 -2.855003 2.416832
