13
title
C 0.8088321 2.6209843 0.06712006
N 0.75334716 1.1731129 0.06586738
C -0.3950833 0.6181778 -0.026203021
N -1.6314135 1.1773686 -0.15532795
C -0.4152093 -0.87982595 -0.020880267
O -1.4364357 -1.5259527 -0.05781163
C 0.8986346 -1.5370432 0.04222755
N 1.8724974 -2.1581848 0.08745156
H 1.8488617 2.947671 0.11914465
H 0.35718578 3.0473495 -0.8418605
H 0.276958 3.050454 0.93132836
H -1.7715757 2.1480079 0.0638263
H -2.4211738 0.5561791 -0.06885598
