14
title
C -0.4712226 2.744712 0.84935534
N -0.47943446 1.2978574 0.75035495
C 0.21092182 0.7676337 -0.19391727
N 0.9959211 1.376226 -1.1269021
C 0.19102103 -0.73135173 -0.31312722
O 0.7605521 -1.2970775 -1.2179672
C -0.5914055 -1.5263406 0.7557006
O -0.7052733 -2.7188566 0.65733314
H 0.5474258 3.1397798 0.98674643
H -0.88854194 3.2228901 -0.05177242
H -1.0761654 3.0587142 1.702237
H 0.9119106 2.3615701 -1.3037944
H 1.3402759 0.78654885 -1.869478
H -1.0167946 -0.93716013 1.583346
