15
title
C -0.91775286 2.5656655 1.1512198
N -0.8470804 1.1150349 1.1252276
C -0.24005772 0.5550037 0.16002496
N 0.32959634 1.1474861 -0.9594661
C -0.24065532 -0.9721114 0.10388471
O -1.112473 -1.466671 -0.89419043
C 1.1366857 -1.4822607 -0.10285555
N 2.2166426 -1.8375771 -0.31214166
H 0.060487017 3.0490847 0.9929485
H -1.6069165 2.9498413 0.38542014
H -1.2922257 2.8904169 2.1244948
H 0.42435735 2.1516385 -0.9349953
H 1.1452408 0.6857051 -1.340356
H -0.6163084 -1.3271513 1.0646542
H -0.9493721 -0.9648282 -1.7021109
