title
 OpenBabel02282109583D

 18 17  0  0  0  0  0  0  0  0999 V2000
    1.2183    2.7609    0.0173 C   0  0  0  0  0  0  0  0  0  0  0  0
    1.1199    1.3133    0.0063 N   0  0  0  0  0  0  0  0  0  0  0  0
   -0.0110    0.7307    0.0056 C   0  0  0  0  0  0  0  0  0  0  0  0
   -1.3671    1.4046    0.0154 C   0  0  0  0  0  0  0  0  0  0  0  0
    0.0133   -0.6788   -0.0055 N   0  0  0  0  0  0  0  0  0  0  0  0
    1.3179   -1.3422   -0.0154 C   0  0  0  0  0  0  0  0  0  0  0  0
   -1.1187   -1.4673   -0.0072 C   0  0  0  0  0  0  0  0  0  0  0  0
   -1.1164   -2.6785   -0.0164 O   0  0  0  0  0  0  0  0  0  0  0  0
    2.2754    3.0387    0.0153 H   0  0  0  0  0  0  0  0  0  0  0  0
    0.7557    3.2257   -0.8645 H   0  0  0  0  0  0  0  0  0  0  0  0
    0.7627    3.2117    0.9099 H   0  0  0  0  0  0  0  0  0  0  0  0
   -1.9561    1.1396   -0.8680 H   0  0  0  0  0  0  0  0  0  0  0  0
   -1.9505    1.1258    0.8982 H   0  0  0  0  0  0  0  0  0  0  0  0
   -1.2431    2.4862    0.0235 H   0  0  0  0  0  0  0  0  0  0  0  0
    1.8916   -1.0542    0.8678 H   0  0  0  0  0  0  0  0  0  0  0  0
    1.1336   -2.4145   -0.0238 H   0  0  0  0  0  0  0  0  0  0  0  0
    1.8858   -1.0391   -0.8971 H   0  0  0  0  0  0  0  0  0  0  0  0
   -2.0526   -0.8877    0.0006 H   0  0  0  0  0  0  0  0  0  0  0  0
  1 11  1  0  0  0  0
  2  1  1  0  0  0  0
  3  2  2  0  0  0  0
  3  4  1  0  0  0  0
  4 14  1  0  0  0  0
  4 13  1  0  0  0  0
  5  3  1  0  0  0  0
  6  5  1  0  0  0  0
  6 15  1  0  0  0  0
  7  5  1  0  0  0  0
  7 18  1  0  0  0  0
  8  7  2  0  0  0  0
  9  1  1  0  0  0  0
 10  1  1  0  0  0  0
 12  4  1  0  0  0  0
 16  6  1  0  0  0  0
 17  6  1  0  0  0  0
M  END
