title
 OpenBabel02282109583D

 13 12  0  0  0  0  0  0  0  0999 V2000
    1.6639    2.6155   -0.0028 C   0  0  0  0  0  0  0  0  0  0  0  0
    1.5769    1.0917   -0.0086 C   0  0  0  0  0  0  0  0  0  0  0  0
    0.1597    0.5799    0.0012 C   0  0  0  0  0  0  0  0  0  0  0  0
   -0.8365    1.2593    0.0134 O   0  0  0  0  0  0  0  0  0  0  0  0
   -0.0028   -0.9557   -0.0048 C   0  0  0  0  0  0  0  0  0  0  0  0
    0.9241   -1.7229   -0.0167 O   0  0  0  0  0  0  0  0  0  0  0  0
   -1.4002   -1.4255    0.0059 C   0  0  0  0  0  0  0  0  0  0  0  0
   -2.4769   -1.8463    0.0139 N   0  0  0  0  0  0  0  0  0  0  0  0
    2.7084    2.9361   -0.0101 H   0  0  0  0  0  0  0  0  0  0  0  0
    1.1653    3.0398   -0.8780 H   0  0  0  0  0  0  0  0  0  0  0  0
    1.1799    3.0322    0.8841 H   0  0  0  0  0  0  0  0  0  0  0  0
    2.0797    0.6527   -0.8810 H   0  0  0  0  0  0  0  0  0  0  0  0
    2.0943    0.6454    0.8514 H   0  0  0  0  0  0  0  0  0  0  0  0
  1 11  1  0  0  0  0
  2  1  1  0  0  0  0
  2  3  1  0  0  0  0
  2 13  1  0  0  0  0
  3  4  2  0  0  0  0
  5  3  1  0  0  0  0
  5  7  1  0  0  0  0
  6  5  2  0  0  0  0
  7  8  3  0  0  0  0
  9  1  1  0  0  0  0
 10  1  1  0  0  0  0
 12  2  1  0  0  0  0
M  END
