title
 OpenBabel02282109583D

 14 13  0  0  0  0  0  0  0  0999 V2000
   -0.6752    2.6386    1.2079 C   0  0  0  0  0  0  0  0  0  0  0  0
   -0.6398    1.2039    1.0405 N   0  0  0  0  0  0  0  0  0  0  0  0
    0.0202    0.6133    0.0191 C   0  0  0  0  0  0  0  0  0  0  0  0
    0.6625    1.2725   -0.8762 N   0  0  0  0  0  0  0  0  0  0  0  0
   -0.0928   -0.9023    0.0648 C   0  0  0  0  0  0  0  0  0  0  0  0
   -0.7152   -1.4705    0.9383 O   0  0  0  0  0  0  0  0  0  0  0  0
    0.5837   -1.6287   -0.9919 C   0  0  0  0  0  0  0  0  0  0  0  0
    1.1297   -2.2734   -1.8495 C   0  0  0  0  0  0  0  0  0  0  0  0
    0.3352    3.0464    1.3253 H   0  0  0  0  0  0  0  0  0  0  0  0
   -1.1254    3.1258    0.3355 H   0  0  0  0  0  0  0  0  0  0  0  0
   -1.2635    2.8786    2.0953 H   0  0  0  0  0  0  0  0  0  0  0  0
   -1.1093    0.5897    1.6849 H   0  0  0  0  0  0  0  0  0  0  0  0
    1.0828    0.6317   -1.5478 H   0  0  0  0  0  0  0  0  0  0  0  0
    1.6113   -2.8451   -2.6061 H   0  0  0  0  0  0  0  0  0  0  0  0
  1  9  1  0  0  0  0
  1 11  1  0  0  0  0
  2  1  1  0  0  0  0
  2 12  1  0  0  0  0
  3  5  1  0  0  0  0
  3  2  1  0  0  0  0
  4  3  2  0  0  0  0
  5  6  2  0  0  0  0
  7  5  1  0  0  0  0
  8  7  3  0  0  0  0
 10  1  1  0  0  0  0
 13  4  1  0  0  0  0
 14  8  1  0  0  0  0
M  END
