13
title
C -0.79690933 2.6613977 1.1262846
N -0.7244587 1.2212883 1.0016258
C -0.0097469175 0.621668 0.024807839
N 0.6562939 1.2665854 -0.86294436
C -0.08680416 -0.88652027 0.10068992
O -0.7137752 -1.4889644 0.93639296
C 0.6727386 -1.6079715 -0.9388926
N 1.2549589 -2.209524 -1.7366676
H 0.19950126 3.0920079 1.27345
H -1.2211742 3.1115732 0.22225657
H -1.4264429 2.9106479 1.9817395
H -1.2101173 0.6203753 1.6462302
H 1.1258458 0.63398314 -1.5090725
