13
title
C -0.7195424 2.6449049 1.181352
N -0.50894314 1.2160554 1.0831717
C -0.063714065 0.61225057 -0.03816456
O 0.21779755 1.1479933 -1.0936817
C 0.06364413 -0.91505176 0.15273708
O -0.21795776 -1.4471284 1.2069339
C 0.5343964 -1.6442868 -0.99828464
C 0.9244325 -2.2885437 -1.9368037
H -0.08838961 3.0847268 1.9610434
H -0.45633218 3.0848098 0.21837825
H -1.7662994 2.8755379 1.4068269
H -0.69238394 0.60793006 1.8683478
H 1.2698717 -2.8486462 -2.771972
