12
title
C -0.7021313 2.5186718 1.1966003
O -0.6465389 1.085014 1.1241767
C -0.034432333 0.5949859 0.05008934
O 0.46186164 1.2386435 -0.8384931
C -0.031377356 -0.94822097 0.07301054
O -0.53045475 -1.582732 0.9696528
C 0.61846507 -1.5518336 -1.0676742
C 1.1476727 -2.1057987 -1.9955685
H 0.30696467 2.9373343 1.2185806
H -1.2349638 2.9225252 0.33236703
H -1.2342952 2.7458413 2.1192865
H 1.6186992 -2.5851712 -2.8194797
