title
 OpenBabel02282109583D

 12 11  0  0  0  0  0  0  0  0999 V2000
    1.5702    2.4182   -0.0021 O   0  0  0  0  0  0  0  0  0  0  0  0
    1.5446    1.0169   -0.0091 C   0  0  0  0  0  0  0  0  0  0  0  0
    0.1015    0.5504    0.0020 C   0  0  0  0  0  0  0  0  0  0  0  0
   -0.8558    1.2772    0.0148 O   0  0  0  0  0  0  0  0  0  0  0  0
   -0.0672   -0.9864   -0.0046 C   0  0  0  0  0  0  0  0  0  0  0  0
    0.9025   -1.7149   -0.0175 O   0  0  0  0  0  0  0  0  0  0  0  0
   -1.4279   -1.4679    0.0057 C   0  0  0  0  0  0  0  0  0  0  0  0
   -2.5571   -1.8841    0.0142 C   0  0  0  0  0  0  0  0  0  0  0  0
    2.4901    2.6981   -0.0096 H   0  0  0  0  0  0  0  0  0  0  0  0
    2.0288    0.5731   -0.8949 H   0  0  0  0  0  0  0  0  0  0  0  0
    2.0453    0.5640    0.8628 H   0  0  0  0  0  0  0  0  0  0  0  0
   -3.5555   -2.2503    0.0220 H   0  0  0  0  0  0  0  0  0  0  0  0
  2  1  1  0  0  0  0
  2  3  1  0  0  0  0
  2 11  1  0  0  0  0
  3  4  2  0  0  0  0
  5  3  1  0  0  0  0
  5  7  1  0  0  0  0
  6  5  2  0  0  0  0
  7  8  3  0  0  0  0
  8 12  1  0  0  0  0
  9  1  1  0  0  0  0
 10  2  1  0  0  0  0
M  END
