title
 OpenBabel02282109583D

 11 10  0  0  0  0  0  0  0  0999 V2000
    1.5697    2.4431   -0.0020 O   0  0  0  0  0  0  0  0  0  0  0  0
    1.5616    1.0451   -0.0094 C   0  0  0  0  0  0  0  0  0  0  0  0
    0.1268    0.5644    0.0017 C   0  0  0  0  0  0  0  0  0  0  0  0
   -0.8501    1.2635    0.0148 O   0  0  0  0  0  0  0  0  0  0  0  0
   -0.0357   -0.9677   -0.0048 C   0  0  0  0  0  0  0  0  0  0  0  0
    0.8950   -1.7318   -0.0179 O   0  0  0  0  0  0  0  0  0  0  0  0
   -1.4314   -1.4378    0.0062 C   0  0  0  0  0  0  0  0  0  0  0  0
   -2.5088   -1.8564    0.0144 N   0  0  0  0  0  0  0  0  0  0  0  0
    2.4846    2.7394   -0.0101 H   0  0  0  0  0  0  0  0  0  0  0  0
    2.0487    0.6040   -0.8961 H   0  0  0  0  0  0  0  0  0  0  0  0
    2.0655    0.5946    0.8630 H   0  0  0  0  0  0  0  0  0  0  0  0
  2  1  1  0  0  0  0
  2  3  1  0  0  0  0
  2 11  1  0  0  0  0
  3  4  2  0  0  0  0
  5  3  1  0  0  0  0
  5  7  1  0  0  0  0
  6  5  2  0  0  0  0
  7  8  3  0  0  0  0
  9  1  1  0  0  0  0
 10  2  1  0  0  0  0
M  END
