14
title
C -1.3161284 2.446887 1.2436242
C -1.0820986 0.940699 1.1697184
C -0.008750276 0.5481653 0.18536605
O 0.5899829 1.3058639 -0.53960204
C 0.41879287 -0.9304049 0.17407013
O 0.5809539 -1.5635736 1.1896688
C 0.6775201 -1.6010215 -1.1823156
O 0.16691606 -1.230716 -2.2033305
H -0.4113515 2.9666693 1.5691329
H -1.5896983 2.8482962 0.26461577
H -2.1186156 2.6754017 1.9494348
H -0.8053903 0.5100021 2.1404572
H -1.9971982 0.40395653 0.8772506
H 1.3052722 -2.5134757 -1.0988953
