title
 OpenBabel02282109583D

 12 11  0  0  0  0  0  0  0  0999 V2000
   -0.6725    2.7006    1.1403 C   0  0  0  0  0  0  0  0  0  0  0  0
   -0.6275    1.2636    1.0844 O   0  0  0  0  0  0  0  0  0  0  0  0
   -0.0192    0.7521    0.0213 C   0  0  0  0  0  0  0  0  0  0  0  0
    0.4858    1.3809   -0.8785 O   0  0  0  0  0  0  0  0  0  0  0  0
   -0.0170   -0.7863    0.0424 C   0  0  0  0  0  0  0  0  0  0  0  0
   -0.5122   -1.4326    0.9229 O   0  0  0  0  0  0  0  0  0  0  0  0
    0.6793   -1.4539   -1.1707 C   0  0  0  0  0  0  0  0  0  0  0  0
    0.7366   -2.6500   -1.2522 O   0  0  0  0  0  0  0  0  0  0  0  0
    0.3398    3.1111    1.1520 H   0  0  0  0  0  0  0  0  0  0  0  0
   -1.2079    3.0967    0.2743 H   0  0  0  0  0  0  0  0  0  0  0  0
   -1.1981    2.9410    2.0630 H   0  0  0  0  0  0  0  0  0  0  0  0
    1.1031   -0.7700   -1.9266 H   0  0  0  0  0  0  0  0  0  0  0  0
  1  9  1  0  0  0  0
  1 11  1  0  0  0  0
  2  1  1  0  0  0  0
  3  5  1  0  0  0  0
  3  2  1  0  0  0  0
  4  3  2  0  0  0  0
  5  6  2  0  0  0  0
  7  5  1  0  0  0  0
  8  7  2  0  0  0  0
 10  1  1  0  0  0  0
 12  7  1  0  0  0  0
M  END
