18
title
C -0.7753209 2.770741 1.3869377
C -0.7494349 1.245681 1.3366673
C -0.058051728 0.70232344 0.108723775
O 0.4294735 1.4103742 -0.748906
C 0.02090768 -0.813498 -0.042146903
N -0.49973294 -1.5490806 0.87252057
N 0.6635568 -1.1800048 -1.180602
C 0.8772435 -2.5501041 -1.5708851
H 0.23732756 3.1830003 1.3832879
H -1.2966564 3.1854355 0.51992846
H -1.2840724 3.1142964 2.2917087
H -0.25304314 0.81146586 2.212744
H -1.7567158 0.81344026 1.3657789
H -0.38862407 -2.543593 0.6689448
H 0.9904132 -0.4171952 -1.7538425
H 1.4755965 -3.0956593 -0.82829297
H -0.07174071 -3.0885177 -1.6998385
H 1.4125766 -2.572696 -2.5214624
