18
title
C -0.8297971 2.7800775 1.4239123
C -0.76433283 1.2588211 1.3262962
C -0.05321355 0.7691527 0.084508024
O 0.4217991 1.4972161 -0.7570439
C 0.053193733 -0.7691527 -0.08451954
O -0.42181313 -1.497216 0.75703573
C 0.7643458 -1.2588212 -1.3262889
C 0.8298139 -2.7800775 -1.4239023
H 0.1726167 3.2162516 1.4374609
H -1.356855 3.2063558 0.56614536
H -1.3510374 3.0843196 2.3353934
H -0.26050183 0.8117556 2.1931589
H -1.7625577 0.8020856 1.3367797
H 0.26053897 -0.8117555 -2.1931653
H 1.7625713 -0.80208594 -1.3367448
H -0.17259921 -3.216252 -1.4374826
H 1.3510828 -3.0843198 -2.3353672
H 1.3568451 -3.2063553 -0.5661188
