title
 OpenBabel02282109583D

 17 16  0  0  0  0  0  0  0  0999 V2000
   -0.8127    2.7768    1.3793 C   0  0  0  0  0  0  0  0  0  0  0  0
   -0.6551    1.2598    1.3570 C   0  0  0  0  0  0  0  0  0  0  0  0
   -0.0955    0.7314    0.0605 C   0  0  0  0  0  0  0  0  0  0  0  0
    0.2068    1.4257   -0.8856 O   0  0  0  0  0  0  0  0  0  0  0  0
    0.0841   -0.8041   -0.0132 C   0  0  0  0  0  0  0  0  0  0  0  0
   -0.2113   -1.5282    0.9233 O   0  0  0  0  0  0  0  0  0  0  0  0
    0.5880   -1.1995   -1.2013 N   0  0  0  0  0  0  0  0  0  0  0  0
    0.8530   -2.5829   -1.5309 C   0  0  0  0  0  0  0  0  0  0  0  0
    0.1486    3.2743    1.2248 H   0  0  0  0  0  0  0  0  0  0  0  0
   -1.4839    3.1141    0.5848 H   0  0  0  0  0  0  0  0  0  0  0  0
   -1.2210    3.1060    2.3384 H   0  0  0  0  0  0  0  0  0  0  0  0
   -0.0043    0.8967    2.1631 H   0  0  0  0  0  0  0  0  0  0  0  0
   -1.6051    0.7397    1.5361 H   0  0  0  0  0  0  0  0  0  0  0  0
    0.7744   -0.4591   -1.8627 H   0  0  0  0  0  0  0  0  0  0  0  0
    0.2650   -2.9041   -2.3977 H   0  0  0  0  0  0  0  0  0  0  0  0
    1.9143   -2.7421   -1.7514 H   0  0  0  0  0  0  0  0  0  0  0  0
    0.5737   -3.1872   -0.6664 H   0  0  0  0  0  0  0  0  0  0  0  0
  1 11  1  0  0  0  0
  2  1  1  0  0  0  0
  2 13  1  0  0  0  0
  2 12  1  0  0  0  0
  3  2  1  0  0  0  0
  4  3  2  0  0  0  0
  5  3  1  0  0  0  0
  5  6  2  0  0  0  0
  7  5  1  0  0  0  0
  8  7  1  0  0  0  0
  8 17  1  0  0  0  0
  9  1  1  0  0  0  0
 10  1  1  0  0  0  0
 14  7  1  0  0  0  0
 15  8  1  0  0  0  0
 16  8  1  0  0  0  0
M  END
