title
 OpenBabel02282109583D

 16 15  0  0  0  0  0  0  0  0999 V2000
   -0.8563    2.7648   -1.3752 C   0  0  0  0  0  0  0  0  0  0  0  0
   -0.7811    1.2438   -1.2844 C   0  0  0  0  0  0  0  0  0  0  0  0
   -0.0442    0.7589   -0.0563 C   0  0  0  0  0  0  0  0  0  0  0  0
    0.4421    1.4776    0.7786 O   0  0  0  0  0  0  0  0  0  0  0  0
    0.0493   -0.7822    0.0647 C   0  0  0  0  0  0  0  0  0  0  0  0
   -0.4252   -1.5351   -0.7505 O   0  0  0  0  0  0  0  0  0  0  0  0
    0.7077   -1.1513    1.1627 O   0  0  0  0  0  0  0  0  0  0  0  0
    0.8396   -2.5680    1.3512 C   0  0  0  0  0  0  0  0  0  0  0  0
    0.1435    3.2059   -1.4063 H   0  0  0  0  0  0  0  0  0  0  0  0
   -1.3963    3.0686   -2.2758 H   0  0  0  0  0  0  0  0  0  0  0  0
   -1.3694    3.1849   -0.5061 H   0  0  0  0  0  0  0  0  0  0  0  0
   -1.7767    0.7813   -1.2771 H   0  0  0  0  0  0  0  0  0  0  0  0
   -0.2898    0.8020   -2.1612 H   0  0  0  0  0  0  0  0  0  0  0  0
   -0.1449   -3.0368    1.4244 H   0  0  0  0  0  0  0  0  0  0  0  0
    1.3816   -3.0158    0.5144 H   0  0  0  0  0  0  0  0  0  0  0  0
    1.3950   -2.6916    2.2801 H   0  0  0  0  0  0  0  0  0  0  0  0
  1  2  1  0  0  0  0
  1 11  1  0  0  0  0
  2 12  1  0  0  0  0
  2  3  1  0  0  0  0
  3  5  1  0  0  0  0
  3  4  2  0  0  0  0
  5  7  1  0  0  0  0
  6  5  2  0  0  0  0
  7  8  1  0  0  0  0
  8 14  1  0  0  0  0
  8 16  1  0  0  0  0
  9  1  1  0  0  0  0
 10  1  1  0  0  0  0
 13  2  1  0  0  0  0
 15  8  1  0  0  0  0
M  END
