16
title
C -0.6247006 2.8247077 1.0864357
N -0.590382 1.3876418 0.9487446
C 0.056021065 0.7818153 -0.07766389
N 0.652791 1.4313701 -1.0067222
C -0.030714542 -0.73231184 0.033726584
O -0.5861354 -1.3081175 0.93955314
O 0.58156896 -1.3442901 -0.9849887
C 0.54941034 -2.778333 -0.9537554
H 0.38273337 3.238586 1.215557
H -1.0552726 3.2891443 0.19267191
H -1.2328079 3.0847967 1.9547865
H -0.9930427 0.7848488 1.6459032
H 1.0580795 0.7795674 -1.6739204
H -0.48258713 -3.1367729 -0.9705882
H 1.0848732 -3.1052525 -1.844342
H 1.038867 -3.1508148 -0.05070125
