15
title
C -0.64937943 2.881071 1.0948459
N -0.48195487 1.446513 1.0072832
C -0.043724332 0.8172093 -0.101539366
O 0.2670633 1.340143 -1.1603286
C 0.036625292 -0.7121972 0.0926866
O -0.2709582 -1.2284421 1.1393656
C 0.5240729 -1.4654914 -1.1247396
O 0.558568 -2.8385358 -0.84003806
H -0.0143215405 3.3063831 1.879492
H -0.36141652 3.306793 0.13240547
H -1.6909468 3.1460009 1.306687
H -0.69246775 0.84638816 1.7925345
H -0.14726561 -1.2039791 -1.9591911
H 1.5068605 -1.045436 -1.3950508
H 0.8706392 -3.2951398 -1.6263936
