title
 OpenBabel02282109583D

 15 14  0  0  0  0  0  0  0  0999 V2000
   -0.6494    2.8811    1.0948 C   0  0  0  0  0  0  0  0  0  0  0  0
   -0.4820    1.4465    1.0073 N   0  0  0  0  0  0  0  0  0  0  0  0
   -0.0437    0.8172   -0.1015 C   0  0  0  0  0  0  0  0  0  0  0  0
    0.2671    1.3401   -1.1603 O   0  0  0  0  0  0  0  0  0  0  0  0
    0.0366   -0.7122    0.0927 C   0  0  0  0  0  0  0  0  0  0  0  0
   -0.2710   -1.2284    1.1394 O   0  0  0  0  0  0  0  0  0  0  0  0
    0.5241   -1.4655   -1.1247 C   0  0  0  0  0  0  0  0  0  0  0  0
    0.5586   -2.8385   -0.8400 O   0  0  0  0  0  0  0  0  0  0  0  0
   -0.0143    3.3064    1.8795 H   0  0  0  0  0  0  0  0  0  0  0  0
   -0.3614    3.3068    0.1324 H   0  0  0  0  0  0  0  0  0  0  0  0
   -1.6909    3.1460    1.3067 H   0  0  0  0  0  0  0  0  0  0  0  0
   -0.6925    0.8464    1.7925 H   0  0  0  0  0  0  0  0  0  0  0  0
   -0.1473   -1.2040   -1.9592 H   0  0  0  0  0  0  0  0  0  0  0  0
    1.5069   -1.0454   -1.3951 H   0  0  0  0  0  0  0  0  0  0  0  0
    0.8706   -3.2951   -1.6264 H   0  0  0  0  0  0  0  0  0  0  0  0
  1 11  1  0  0  0  0
  1  9  1  0  0  0  0
  2  1  1  0  0  0  0
  2 12  1  0  0  0  0
  3  5  1  0  0  0  0
  3  2  1  0  0  0  0
  4  3  2  0  0  0  0
  5  6  2  0  0  0  0
  7  8  1  0  0  0  0
  7  5  1  0  0  0  0
 10  1  1  0  0  0  0
 13  7  1  0  0  0  0
 14  7  1  0  0  0  0
 15  8  1  0  0  0  0
M  END
