15
title
C -0.70853484 2.8366957 -1.0090955
N -0.6730721 1.3996983 -0.84385175
C 0.12215126 0.78456056 0.06121832
O 0.8885999 1.322137 0.8334264
C -0.07186674 -0.7464023 -0.010728954
O -0.835715 -1.2834766 -0.7800244
O 0.6980326 -1.3753057 0.86826485
C 0.58451796 -2.8064005 0.87357324
H -0.0054616258 3.26816 -0.2951494
H -0.41261563 3.1262157 -2.0233123
H -1.7100133 3.2338102 -0.8105974
H -1.2511795 0.79537296 -1.4088544
H -0.43930376 -3.10693 1.1093947
H 0.85710406 -3.214259 -0.102894545
H 1.2743578 -3.1527455 1.6419438
