14
title
C -0.6580721 2.761123 1.1139269
O -0.61973137 1.3262525 1.0720274
C -0.0134981 0.8029732 0.0099381395
O 0.4902214 1.4302547 -0.891034
C -0.019784601 -0.7416792 0.04790749
O -0.5220271 -1.3585687 0.945684
C 0.6668018 -1.36465 -1.1535794
O 0.61376035 -2.7602968 -1.0362171
H 0.3556569 3.1691396 1.1263951
H -1.1864866 3.153976 0.24179883
H -1.1867532 3.0147672 2.0317042
H 0.16506663 -0.98024535 -2.057217
H 1.6941851 -0.9655781 -1.1907789
H 1.0504886 -3.138956 -1.8044766
