title
 OpenBabel02282109583D

 14 13  0  0  0  0  0  0  0  0999 V2000
   -0.6452    2.7077    1.0930 C   0  0  0  0  0  0  0  0  0  0  0  0
   -0.5994    1.2742    1.0384 O   0  0  0  0  0  0  0  0  0  0  0  0
    0.0115    0.7701   -0.0346 C   0  0  0  0  0  0  0  0  0  0  0  0
    0.5075    1.4061   -0.9248 O   0  0  0  0  0  0  0  0  0  0  0  0
   -0.0115   -0.7701    0.0346 C   0  0  0  0  0  0  0  0  0  0  0  0
   -0.5074   -1.4061    0.9248 O   0  0  0  0  0  0  0  0  0  0  0  0
    0.5993   -1.2742   -1.0384 O   0  0  0  0  0  0  0  0  0  0  0  0
    0.6452   -2.7077   -1.0930 C   0  0  0  0  0  0  0  0  0  0  0  0
    0.3662    3.1215    1.1039 H   0  0  0  0  0  0  0  0  0  0  0  0
   -1.1799    3.1055    0.2269 H   0  0  0  0  0  0  0  0  0  0  0  0
   -1.1709    2.9501    2.0156 H   0  0  0  0  0  0  0  0  0  0  0  0
    1.1800   -3.1055   -0.2270 H   0  0  0  0  0  0  0  0  0  0  0  0
   -0.3662   -3.1215   -1.1037 H   0  0  0  0  0  0  0  0  0  0  0  0
    1.1707   -2.9501   -2.0157 H   0  0  0  0  0  0  0  0  0  0  0  0
  1  9  1  0  0  0  0
  1 11  1  0  0  0  0
  2  1  1  0  0  0  0
  3  5  1  0  0  0  0
  3  2  1  0  0  0  0
  4  3  2  0  0  0  0
  5  6  2  0  0  0  0
  7  5  1  0  0  0  0
  8  7  1  0  0  0  0
  8 12  1  0  0  0  0
 10  1  1  0  0  0  0
 13  8  1  0  0  0  0
 14  8  1  0  0  0  0
M  END
