14
title
O 1.5126327 2.665858 -0.0005053791
C 1.5107267 1.2638378 -0.0074404445
C 0.07808749 0.76785547 0.003409969
O -0.892497 1.4836259 0.016074225
C -0.07808479 -0.7678569 -0.003123861
O 0.89249784 -1.4836264 -0.015990494
C -1.5107267 -1.2638378 0.0074390457
O -1.5126352 -2.6658568 0.0002512553
H 2.427639 2.9610655 -0.007874515
H 2.003363 0.8281851 -0.8926054
H 2.0195944 0.81950027 0.8641372
H -2.0034757 -0.82834727 0.89262205
H -2.0194812 -0.81933814 -0.86412096
H -2.427646 -2.9610617 0.0071536605
