title
 OpenBabel02282109583D

 18 17  0  0  0  0  0  0  0  0999 V2000
   -0.7081    2.7817    1.1643 C   0  0  0  0  0  0  0  0  0  0  0  0
   -0.6042    1.2602    1.1029 C   0  0  0  0  0  0  0  0  0  0  0  0
    0.0866    0.7621   -0.1460 C   0  0  0  0  0  0  0  0  0  0  0  0
    0.5384    1.5027   -0.9965 O   0  0  0  0  0  0  0  0  0  0  0  0
    0.2089   -0.7401   -0.3343 C   0  0  0  0  0  0  0  0  0  0  0  0
    0.9551   -1.0781   -1.4304 N   0  0  0  0  0  0  0  0  0  0  0  0
   -0.3481   -1.5145    0.5193 N   0  0  0  0  0  0  0  0  0  0  0  0
   -0.2109   -2.9428    0.3069 C   0  0  0  0  0  0  0  0  0  0  0  0
    0.2809    3.2465    1.1319 H   0  0  0  0  0  0  0  0  0  0  0  0
   -1.2774    3.1729    0.3167 H   0  0  0  0  0  0  0  0  0  0  0  0
   -1.2062    3.0932    2.0865 H   0  0  0  0  0  0  0  0  0  0  0  0
   -0.0604    0.8526    1.9640 H   0  0  0  0  0  0  0  0  0  0  0  0
   -1.5852    0.7749    1.1567 H   0  0  0  0  0  0  0  0  0  0  0  0
    1.1608   -0.3145   -2.0580 H   0  0  0  0  0  0  0  0  0  0  0  0
    0.8729   -1.9987   -1.8255 H   0  0  0  0  0  0  0  0  0  0  0  0
    0.8443   -3.2552    0.2605 H   0  0  0  0  0  0  0  0  0  0  0  0
   -0.6900   -3.4850    1.1255 H   0  0  0  0  0  0  0  0  0  0  0  0
   -0.6886   -3.2713   -0.6313 H   0  0  0  0  0  0  0  0  0  0  0  0
  1 11  1  0  0  0  0
  2 13  1  0  0  0  0
  2  1  1  0  0  0  0
  2 12  1  0  0  0  0
  3  2  1  0  0  0  0
  4  3  2  0  0  0  0
  5  3  1  0  0  0  0
  5  7  2  0  0  0  0
  6  5  1  0  0  0  0
  8  7  1  0  0  0  0
  8 17  1  0  0  0  0
  9  1  1  0  0  0  0
 10  1  1  0  0  0  0
 14  6  1  0  0  0  0
 15  6  1  0  0  0  0
 16  8  1  0  0  0  0
 18  8  1  0  0  0  0
M  END
