18
title
C -0.7081274 2.781704 1.164253
C -0.60424596 1.2602104 1.1029091
C 0.08660378 0.762128 -0.14599028
O 0.5383997 1.5026911 -0.99646497
C 0.20891628 -0.7400644 -0.334309
N 0.955052 -1.078105 -1.4303992
N -0.3481344 -1.5144682 0.51932377
C -0.21094826 -2.9427729 0.30694297
H 0.28086373 3.2464805 1.1318816
H -1.2774141 3.1729388 0.31666234
H -1.206198 3.0931845 2.0864632
H -0.06039873 0.85257405 1.9639877
H -1.5852174 0.7749102 1.1567378
H 1.1607623 -0.31453493 -2.0579848
H 0.87287915 -1.9987035 -1.8254673
H 0.844285 -3.2552161 0.26048812
H -0.6899769 -3.485026 1.1254504
H -0.688622 -3.2713099 -0.631256
