title
 OpenBabel02282109583D

 17 16  0  0  0  0  0  0  0  0999 V2000
   -0.4863    2.7943    0.8773 C   0  0  0  0  0  0  0  0  0  0  0  0
   -0.3802    1.3588    0.7505 N   0  0  0  0  0  0  0  0  0  0  0  0
    0.1529    0.7490   -0.3237 C   0  0  0  0  0  0  0  0  0  0  0  0
    0.6195    1.3053   -1.3103 O   0  0  0  0  0  0  0  0  0  0  0  0
    0.1309   -0.7723   -0.2259 C   0  0  0  0  0  0  0  0  0  0  0  0
    0.7590   -1.3538   -1.2837 N   0  0  0  0  0  0  0  0  0  0  0  0
   -0.4208   -1.3250    0.7884 N   0  0  0  0  0  0  0  0  0  0  0  0
   -0.4157   -2.7744    0.8476 C   0  0  0  0  0  0  0  0  0  0  0  0
    0.0519    3.1555    1.7608 H   0  0  0  0  0  0  0  0  0  0  0  0
   -0.0450    3.2407   -0.0152 H   0  0  0  0  0  0  0  0  0  0  0  0
   -1.5325    3.1118    0.9546 H   0  0  0  0  0  0  0  0  0  0  0  0
   -0.7294    0.7292    1.4618 H   0  0  0  0  0  0  0  0  0  0  0  0
    1.0037   -0.7229   -2.0335 H   0  0  0  0  0  0  0  0  0  0  0  0
    0.6248   -2.3277   -1.4890 H   0  0  0  0  0  0  0  0  0  0  0  0
    0.6048   -3.1874    0.8153 H   0  0  0  0  0  0  0  0  0  0  0  0
   -0.8839   -3.1073    1.7769 H   0  0  0  0  0  0  0  0  0  0  0  0
   -0.9783   -3.2275    0.0145 H   0  0  0  0  0  0  0  0  0  0  0  0
  1 11  1  0  0  0  0
  1  9  1  0  0  0  0
  2  1  1  0  0  0  0
  2 12  1  0  0  0  0
  3  5  1  0  0  0  0
  3  2  1  0  0  0  0
  4  3  2  0  0  0  0
  5  7  2  0  0  0  0
  6  5  1  0  0  0  0
  7  8  1  0  0  0  0
  8 16  1  0  0  0  0
 10  1  1  0  0  0  0
 13  6  1  0  0  0  0
 14  6  1  0  0  0  0
 15  8  1  0  0  0  0
 17  8  1  0  0  0  0
M  END
