17
title
C -0.4862761 2.7943494 0.8773191
N -0.38023728 1.3587626 0.7504858
C 0.15294445 0.74899215 -0.32365558
O 0.6195011 1.3052791 -1.3103142
C 0.13094789 -0.7722715 -0.22590955
N 0.75896776 -1.3538014 -1.2836912
N -0.42076787 -1.3249737 0.78840625
C -0.41569412 -2.7743523 0.8475746
H 0.051935792 3.1555152 1.7607945
H -0.04504791 3.240677 -0.01521643
H -1.5324651 3.1117573 0.9546121
H -0.7293725 0.72917604 1.4617653
H 1.0036931 -0.7229048 -2.033462
H 0.62483 -2.3276904 -1.4889693
H 0.6048492 -3.1874225 0.8153297
H -0.8839434 -3.1072876 1.776884
H -0.9782574 -3.2274597 0.014536898
