title
 OpenBabel02282109583D

 16 15  0  0  0  0  0  0  0  0999 V2000
    0.9249    2.7339    0.0080 C   0  0  0  0  0  0  0  0  0  0  0  0
    0.9158    1.3007   -0.0146 O   0  0  0  0  0  0  0  0  0  0  0  0
   -0.2910    0.7425   -0.0030 C   0  0  0  0  0  0  0  0  0  0  0  0
   -1.3339    1.3594    0.0179 O   0  0  0  0  0  0  0  0  0  0  0  0
   -0.2508   -0.7715   -0.0128 C   0  0  0  0  0  0  0  0  0  0  0  0
   -1.5098   -1.3015   -0.1537 N   0  0  0  0  0  0  0  0  0  0  0  0
    0.8636   -1.3849    0.0789 N   0  0  0  0  0  0  0  0  0  0  0  0
    0.8174   -2.8348    0.0629 C   0  0  0  0  0  0  0  0  0  0  0  0
    1.9760    3.0202   -0.0031 H   0  0  0  0  0  0  0  0  0  0  0  0
    0.4071    3.1357   -0.8667 H   0  0  0  0  0  0  0  0  0  0  0  0
    0.4337    3.1078    0.9100 H   0  0  0  0  0  0  0  0  0  0  0  0
   -2.2692   -0.6504   -0.0217 H   0  0  0  0  0  0  0  0  0  0  0  0
   -1.6681   -2.2549    0.1244 H   0  0  0  0  0  0  0  0  0  0  0  0
    0.2689   -3.2436    0.9283 H   0  0  0  0  0  0  0  0  0  0  0  0
    0.3301   -3.2249   -0.8446 H   0  0  0  0  0  0  0  0  0  0  0  0
    1.8333   -3.2342    0.1016 H   0  0  0  0  0  0  0  0  0  0  0  0
  1 11  1  0  0  0  0
  2  3  1  0  0  0  0
  2  1  1  0  0  0  0
  3  4  2  0  0  0  0
  5  3  1  0  0  0  0
  5  7  2  0  0  0  0
  6 12  1  0  0  0  0
  6  5  1  0  0  0  0
  6 13  1  0  0  0  0
  8  7  1  0  0  0  0
  8 16  1  0  0  0  0
  8 14  1  0  0  0  0
  9  1  1  0  0  0  0
 10  1  1  0  0  0  0
 15  8  1  0  0  0  0
M  END
