title
 OpenBabel02282109583D

 16 15  0  0  1  0  0  0  0  0999 V2000
    0.7807    1.9701    1.0361 C   0  0  0  0  0  0  0  0  0  0  0  0
    0.8398    0.7673    0.0744 C   0  0  1  0  0  0  0  0  0  0  0  0
    1.7275   -0.2884    0.5536 C   0  0  0  0  0  0  0  0  0  0  0  0
    2.4696   -1.1376    0.9693 C   0  0  0  0  0  0  0  0  0  0  0  0
   -0.5712    0.2604   -0.2767 C   0  0  0  0  0  0  0  0  0  0  0  0
   -1.5228    1.0096   -0.2783 O   0  0  0  0  0  0  0  0  0  0  0  0
   -0.7620   -1.1907   -0.6813 C   0  0  0  0  0  0  0  0  0  0  0  0
   -2.0698   -1.4321   -1.1056 O   0  0  0  0  0  0  0  0  0  0  0  0
    1.7749    2.4059    1.1539 H   0  0  0  0  0  0  0  0  0  0  0  0
    0.0956    2.7220    0.6421 H   0  0  0  0  0  0  0  0  0  0  0  0
    0.4224    1.6556    2.0195 H   0  0  0  0  0  0  0  0  0  0  0  0
    1.2335    1.1228   -0.8922 H   0  0  0  0  0  0  0  0  0  0  0  0
    3.1229   -1.8933    1.3304 H   0  0  0  0  0  0  0  0  0  0  0  0
   -0.0312   -1.4356   -1.4688 H   0  0  0  0  0  0  0  0  0  0  0  0
   -0.4885   -1.8163    0.1838 H   0  0  0  0  0  0  0  0  0  0  0  0
   -2.5429   -0.5966   -0.9667 H   0  0  0  0  0  0  0  0  0  0  0  0
  1  9  1  0  0  0  0
  1 11  1  0  0  0  0
  2 12  1  6  0  0  0
  2  3  1  0  0  0  0
  2  1  1  0  0  0  0
  3  4  3  0  0  0  0
  4 13  1  0  0  0  0
  5  2  1  0  0  0  0
  6  5  2  0  0  0  0
  7  5  1  0  0  0  0
  7 15  1  0  0  0  0
  8 16  1  0  0  0  0
  8  7  1  0  0  0  0
 10  1  1  0  0  0  0
 14  7  1  0  0  0  0
M  END
