title
 OpenBabel02282109583D

 15 14  0  0  1  0  0  0  0  0999 V2000
    0.2304    1.9599   -1.2966 C   0  0  0  0  0  0  0  0  0  0  0  0
   -0.4899    0.7212   -0.7318 C   0  0  1  0  0  0  0  0  0  0  0  0
   -0.5309   -0.3789   -1.6968 C   0  0  0  0  0  0  0  0  0  0  0  0
   -0.5541   -1.2423   -2.4647 N   0  0  0  0  0  0  0  0  0  0  0  0
    0.0914    0.2886    0.6322 C   0  0  0  0  0  0  0  0  0  0  0  0
    0.5800    1.1078    1.3745 O   0  0  0  0  0  0  0  0  0  0  0  0
   -0.0050   -1.1646    1.0562 C   0  0  0  0  0  0  0  0  0  0  0  0
    0.4345   -1.3448    2.3669 O   0  0  0  0  0  0  0  0  0  0  0  0
    1.2579    1.7143   -1.5749 H   0  0  0  0  0  0  0  0  0  0  0  0
   -0.2910    2.3321   -2.1803 H   0  0  0  0  0  0  0  0  0  0  0  0
    0.2547    2.7359   -0.5310 H   0  0  0  0  0  0  0  0  0  0  0  0
   -1.5342    0.9900   -0.5110 H   0  0  0  0  0  0  0  0  0  0  0  0
   -1.0488   -1.4975    0.9338 H   0  0  0  0  0  0  0  0  0  0  0  0
    0.5834   -1.7622    0.3398 H   0  0  0  0  0  0  0  0  0  0  0  0
    0.7654   -0.4812    2.6571 H   0  0  0  0  0  0  0  0  0  0  0  0
  1  2  1  0  0  0  0
  1 11  1  0  0  0  0
  2 12  1  1  0  0  0
  2  5  1  0  0  0  0
  3  2  1  0  0  0  0
  4  3  3  0  0  0  0
  5  7  1  0  0  0  0
  5  6  2  0  0  0  0
  7  8  1  0  0  0  0
  8 15  1  0  0  0  0
  9  1  1  0  0  0  0
 10  1  1  0  0  0  0
 13  7  1  0  0  0  0
 14  7  1  0  0  0  0
M  END
