18
title
C -0.99989283 2.5632117 -0.7437415
C -0.831981 1.2352601 -0.011065404
C 0.13596778 0.28975788 -0.69448584
O 0.636051 0.52829313 -1.7682256
C 0.537177 -1.0141721 0.040170033
C 1.9378549 -0.800719 0.6690119
C -0.42942488 -1.4812528 1.0266219
C -1.210563 -1.8766731 1.8509382
H -1.345465 2.4010978 -1.7675995
H -1.7247872 3.199016 -0.22810571
H -0.04995777 3.1012316 -0.80440336
H -0.49655518 1.3774871 1.0251476
H -1.7881584 0.70422286 0.08639415
H 0.6381697 -1.7660717 -0.75116533
H 1.903781 -0.033108853 1.4476334
H 2.2918088 -1.7288185 1.1235105
H 2.6412234 -0.48918405 -0.10650078
H -1.9077256 -2.2273643 2.5712569
