title
 OpenBabel02282109583D

 16 15  0  0  1  0  0  0  0  0999 V2000
   -0.5037    2.5292   -1.4461 C   0  0  0  0  0  0  0  0  0  0  0  0
   -0.4548    1.0092   -1.3047 C   0  0  0  0  0  0  0  0  0  0  0  0
    0.3657    0.5374   -0.1284 C   0  0  0  0  0  0  0  0  0  0  0  0
    0.9384    1.2807    0.6353 O   0  0  0  0  0  0  0  0  0  0  0  0
    0.5038   -0.9922    0.1119 C   0  0  1  0  0  0  0  0  0  0  0  0
    1.3934   -1.2264    1.1682 O   0  0  0  0  0  0  0  0  0  0  0  0
   -0.8209   -1.5779    0.3509 C   0  0  0  0  0  0  0  0  0  0  0  0
   -1.9085   -2.0490    0.5501 C   0  0  0  0  0  0  0  0  0  0  0  0
    0.4996    2.9446   -1.5692 H   0  0  0  0  0  0  0  0  0  0  0  0
   -1.1048    2.8125   -2.3139 H   0  0  0  0  0  0  0  0  0  0  0  0
   -0.9418    2.9899   -0.5572 H   0  0  0  0  0  0  0  0  0  0  0  0
   -1.4579    0.5784   -1.1987 H   0  0  0  0  0  0  0  0  0  0  0  0
   -0.0380    0.5365   -2.2053 H   0  0  0  0  0  0  0  0  0  0  0  0
    0.9131   -1.4266   -0.8154 H   0  0  0  0  0  0  0  0  0  0  0  0
    1.5675   -0.3461    1.5436 H   0  0  0  0  0  0  0  0  0  0  0  0
   -2.8633   -2.4779    0.7316 H   0  0  0  0  0  0  0  0  0  0  0  0
  1  2  1  0  0  0  0
  1 11  1  0  0  0  0
  2 12  1  0  0  0  0
  2  3  1  0  0  0  0
  3  5  1  0  0  0  0
  3  4  2  0  0  0  0
  5 14  1  6  0  0  0
  5  7  1  0  0  0  0
  5  6  1  0  0  0  0
  6 15  1  0  0  0  0
  7  8  3  0  0  0  0
  8 16  1  0  0  0  0
  9  1  1  0  0  0  0
 10  1  1  0  0  0  0
 13  2  1  0  0  0  0
M  END
