15
title
C -0.927446 2.562959 1.1687238
C -0.9127829 1.0445719 1.0030335
C -0.23601742 0.58278185 -0.26209563
O 0.25653076 1.3176224 -1.0842966
C -0.17731006 -0.9475965 -0.5601651
O 0.41383672 -1.1762353 -1.7991146
C 0.54587066 -1.6308159 0.5323392
N 1.1018683 -2.147789 1.4035339
H 0.08939814 2.961819 1.1961396
H -1.447997 3.0439813 0.33696306
H -1.4314837 2.8373978 2.0985448
H -0.41040546 0.5514485 1.845539
H -1.931063 0.6303753 1.0004745
H -1.2116069 -1.32629 -0.55339545
H 0.7399204 -0.30439287 -2.0853107
