15
title
C 1.0493562 2.5907848 0.4142578
N 0.903864 1.1515615 0.28911188
C -0.28040475 0.521832 0.40980044
O -1.3455088 1.0635473 0.66271114
C -0.25538832 -1.029048 0.27625087
O -1.5740142 -1.485935 0.1546389
C 0.5902387 -1.4743922 -0.83313626
C 1.316893 -1.828551 -1.7230414
H 1.2799286 3.0546153 -0.55115926
H 0.1030779 2.9896603 0.7801304
H 1.8448768 2.8384643 1.1237043
H 1.6840563 0.6050882 -0.04250819
H 0.19414724 -1.4023993 1.2146223
H -2.1126018 -0.69755405 0.35033488
H 1.9411 -2.1559627 -2.517918
