title
 OpenBabel02282109583D

 15 14  0  0  1  0  0  0  0  0999 V2000
    0.3182    2.4711    1.0862 C   0  0  0  0  0  0  0  0  0  0  0  0
    0.4480    1.0525    0.8948 O   0  0  0  0  0  0  0  0  0  0  0  0
   -0.5239    0.4735    0.1818 C   0  0  0  0  0  0  0  0  0  0  0  0
   -1.4807    1.0412   -0.2724 O   0  0  0  0  0  0  0  0  0  0  0  0
   -0.2749   -1.0405    0.0535 C   0  0  1  0  0  0  0  0  0  0  0  0
   -1.3468   -1.7145   -0.8169 C   0  0  0  0  0  0  0  0  0  0  0  0
    1.0773   -1.3045   -0.4455 C   0  0  0  0  0  0  0  0  0  0  0  0
    2.1297   -1.5352   -0.8627 N   0  0  0  0  0  0  0  0  0  0  0  0
    0.3041    2.9847    0.1223 H   0  0  0  0  0  0  0  0  0  0  0  0
   -0.6038    2.6999    1.6258 H   0  0  0  0  0  0  0  0  0  0  0  0
    1.1894    2.7692    1.6679 H   0  0  0  0  0  0  0  0  0  0  0  0
   -0.3200   -1.4407    1.0752 H   0  0  0  0  0  0  0  0  0  0  0  0
   -1.1844   -2.7938   -0.8461 H   0  0  0  0  0  0  0  0  0  0  0  0
   -2.3352   -1.5079   -0.4036 H   0  0  0  0  0  0  0  0  0  0  0  0
   -1.3155   -1.3243   -1.8358 H   0  0  0  0  0  0  0  0  0  0  0  0
  1 10  1  0  0  0  0
  1 11  1  0  0  0  0
  2  1  1  0  0  0  0
  3  2  1  0  0  0  0
  4  3  2  0  0  0  0
  5  3  1  0  0  0  0
  5 12  1  1  0  0  0
  6 14  1  0  0  0  0
  6  5  1  0  0  0  0
  7  5  1  0  0  0  0
  8  7  3  0  0  0  0
  9  1  1  0  0  0  0
 13  6  1  0  0  0  0
 15  6  1  0  0  0  0
M  END
