15
title
C 0.31816044 2.4710917 1.0861887
O 0.44804695 1.0524921 0.8948469
C -0.5238794 0.4735101 0.18178192
O -1.4806994 1.0411576 -0.27238926
C -0.2749092 -1.0404738 0.05350926
C -1.3467903 -1.7145401 -0.8169228
C 1.07733 -1.3044866 -0.44554374
N 2.1296687 -1.5351914 -0.86274445
H 0.30411008 2.984709 0.122314356
H -0.6038465 2.6999476 1.6257625
H 1.1894091 2.769205 1.6678653
H -0.3200085 -1.4406761 1.0752325
H -1.1843926 -2.7938402 -0.84607625
H -2.3352401 -1.5079342 -0.4036033
H -1.3154619 -1.3243381 -1.8357893
