15
title
C -0.9195002 2.4475634 0.88896036
O -0.90768796 1.0153996 0.78467846
C -0.26938826 0.523811 -0.2835098
O 0.2455281 1.1871228 -1.1452384
C -0.25529373 -1.0120134 -0.2561236
N -0.16194457 -1.4872806 -1.6368041
C 0.83542025 -1.4490395 0.62858593
C 1.742311 -1.8363326 1.3165399
H 0.10048831 2.834441 0.95096105
H -1.41455 2.8895755 0.021155648
H -1.4709127 2.671953 1.8014596
H -1.2064971 -1.3400347 0.17931962
H 0.53716516 -0.9231071 -2.1135397
H 0.166973 -2.4472086 -1.6407771
H 2.5405037 -2.17679 1.9290413
