14
title
C -0.78560764 2.4242551 0.9992565
O -0.6676758 0.9968476 0.8609365
C -0.30655393 0.5575679 -0.3461165
O -0.10516299 1.2443628 -1.311704
C -0.21788551 -0.99135566 -0.37004682
N 0.13254474 -1.5508316 -1.6640459
C 0.7236825 -1.451685 0.66047245
N 1.4806468 -1.7993352 1.4601432
H 0.16995858 2.9057934 0.78058565
H -1.5459775 2.8102067 0.31647035
H -1.0744053 2.5956068 2.0352476
H -1.2116367 -1.3598773 -0.08282808
H -0.53489375 -1.2102332 -2.3505118
H 1.03376 -1.1806347 -1.9541906
