title
 OpenBabel02282109583D

 14 13  0  0  1  0  0  0  0  0999 V2000
   -0.7856    2.4243    0.9993 C   0  0  0  0  0  0  0  0  0  0  0  0
   -0.6677    0.9968    0.8609 O   0  0  0  0  0  0  0  0  0  0  0  0
   -0.3066    0.5576   -0.3461 C   0  0  0  0  0  0  0  0  0  0  0  0
   -0.1052    1.2444   -1.3117 O   0  0  0  0  0  0  0  0  0  0  0  0
   -0.2179   -0.9914   -0.3700 C   0  0  1  0  0  0  0  0  0  0  0  0
    0.1325   -1.5508   -1.6640 N   0  0  0  0  0  0  0  0  0  0  0  0
    0.7237   -1.4517    0.6605 C   0  0  0  0  0  0  0  0  0  0  0  0
    1.4806   -1.7993    1.4601 N   0  0  0  0  0  0  0  0  0  0  0  0
    0.1700    2.9058    0.7806 H   0  0  0  0  0  0  0  0  0  0  0  0
   -1.5460    2.8102    0.3165 H   0  0  0  0  0  0  0  0  0  0  0  0
   -1.0744    2.5956    2.0352 H   0  0  0  0  0  0  0  0  0  0  0  0
   -1.2116   -1.3599   -0.0828 H   0  0  0  0  0  0  0  0  0  0  0  0
   -0.5349   -1.2102   -2.3505 H   0  0  0  0  0  0  0  0  0  0  0  0
    1.0338   -1.1806   -1.9542 H   0  0  0  0  0  0  0  0  0  0  0  0
  1 11  1  0  0  0  0
  2  1  1  0  0  0  0
  3  2  1  0  0  0  0
  4  3  2  0  0  0  0
  5  3  1  0  0  0  0
  5 12  1  1  0  0  0
  5  7  1  0  0  0  0
  6  5  1  0  0  0  0
  7  8  3  0  0  0  0
  9  1  1  0  0  0  0
 10  1  1  0  0  0  0
 13  6  1  0  0  0  0
 14  6  1  0  0  0  0
M  END
