13
title
C -0.20693932 2.5048862 -1.1358502
O -0.12715092 1.0658937 -1.0846736
C 0.42285982 0.55493724 0.0067944652
O 0.88493407 1.1718719 0.93316615
C 0.42509648 -0.98689234 -0.009157764
O 1.2021128 -1.4717089 1.0427271
C -0.9720137 -1.4730669 0.05518497
N -2.0596528 -1.8575116 0.111089244
H 0.79390514 2.9389887 -1.088923
H -0.6853773 2.7358382 -2.0860498
H -0.8036858 2.8774946 -0.3008715
H 0.8465091 -1.3188869 -0.9667278
H 1.3057766 -0.72841763 1.6584488
