title
 OpenBabel02282109583D

 13 12  0  0  1  0  0  0  0  0999 V2000
    1.4654    2.3578    0.4511 O   0  0  0  0  0  0  0  0  0  0  0  0
    1.3510    0.9696    0.3710 C   0  0  0  0  0  0  0  0  0  0  0  0
   -0.0903    0.5180    0.3731 C   0  0  0  0  0  0  0  0  0  0  0  0
   -1.0027    1.3114    0.4152 O   0  0  0  0  0  0  0  0  0  0  0  0
   -0.4350   -0.9921    0.3410 C   0  0  1  0  0  0  0  0  0  0  0  0
   -1.8104   -1.1838    0.4422 O   0  0  0  0  0  0  0  0  0  0  0  0
    0.1220   -1.5894   -0.8918 C   0  0  0  0  0  0  0  0  0  0  0  0
    0.5741   -2.0445   -1.8526 N   0  0  0  0  0  0  0  0  0  0  0  0
    0.5649    2.7119    0.4598 H   0  0  0  0  0  0  0  0  0  0  0  0
    1.8290    0.5770   -0.5411 H   0  0  0  0  0  0  0  0  0  0  0  0
    1.8602    0.4792    1.2179 H   0  0  0  0  0  0  0  0  0  0  0  0
    0.0743   -1.4682    1.1933 H   0  0  0  0  0  0  0  0  0  0  0  0
   -2.2080   -0.3030    0.3401 H   0  0  0  0  0  0  0  0  0  0  0  0
  1  9  1  0  0  0  0
  2  3  1  0  0  0  0
  2  1  1  0  0  0  0
  2 11  1  0  0  0  0
  3  4  2  0  0  0  0
  5  3  1  0  0  0  0
  5  6  1  0  0  0  0
  5 12  1  1  0  0  0
  7  5  1  0  0  0  0
  8  7  3  0  0  0  0
 10  2  1  0  0  0  0
 13  6  1  0  0  0  0
M  END
