16
title
C -0.12191511 2.1464133 -1.1461203
C -0.5023096 0.71923184 -0.7533061
C -0.09466148 -0.29362684 -1.8344514
O -0.49839047 -1.4240937 -1.888891
C 0.1591873 0.28202382 0.55808234
O 1.1758134 0.7951953 0.97117317
C -0.50139 -0.8419627 1.3327185
O 0.25869894 -1.226212 2.438444
H 0.9644928 2.2496078 -1.2021979
H -0.5524096 2.4099193 -2.116666
H -0.4831831 2.8634732 -0.40541512
H -1.5855949 0.5997545 -0.63228875
H 0.6301781 0.102106296 -2.5793169
H -1.5042299 -0.48428774 1.6299845
H -0.6708656 -1.6831709 0.6434921
H 0.9870534 -0.58832836 2.486916
