18
title
C 0.9894003 2.9107494 -0.009038192
C 1.063826 1.3838964 0.019851964
C -0.29911095 0.7138549 -0.024176246
N -1.3404825 1.4438044 -0.078493915
N -0.332604 -0.7008374 -0.0019094876
C -1.6268218 -1.3766787 -0.043064374
C 0.79733455 -1.499769 0.057724025
O 0.7789969 -2.7095442 0.077549264
H 1.9997337 3.3289826 0.025280666
H 0.49378443 3.263245 -0.9155968
H 0.4216581 3.2929332 0.84142905
H 1.6655908 1.0273978 -0.82565653
H 1.5944178 1.0569723 0.92301065
H -2.203026 0.9040548 -0.104607776
H -2.16621 -1.1261549 -0.9619223
H -1.4332302 -2.447313 -0.017030906
H -2.2385893 -1.0959256 0.8200118
H 1.7329776 -0.927238 0.086033925
