title
 OpenBabel02282109583D

 16 15  0  0  0  0  0  0  0  0999 V2000
    0.0060    1.8095    0.7102 C   0  0  0  0  0  0  0  0  0  0  0  0
   -0.0010    0.3471    0.6709 N   0  0  0  0  0  0  0  0  0  0  0  0
   -0.0083   -0.3714    1.8714 C   0  0  0  0  0  0  0  0  0  0  0  0
   -0.0092    0.2163    2.9964 N   0  0  0  0  0  0  0  0  0  0  0  0
   -0.0000   -0.3548   -0.5183 C   0  0  0  0  0  0  0  0  0  0  0  0
   -0.0055   -1.5738   -0.5743 O   0  0  0  0  0  0  0  0  0  0  0  0
    0.0082    0.4483   -1.8187 C   0  0  0  0  0  0  0  0  0  0  0  0
    0.0087   -0.4174   -2.9116 O   0  0  0  0  0  0  0  0  0  0  0  0
    0.9020    2.2113    0.2292 H   0  0  0  0  0  0  0  0  0  0  0  0
   -0.8802    2.2200    0.2185 H   0  0  0  0  0  0  0  0  0  0  0  0
    0.0013    2.1012    1.7590 H   0  0  0  0  0  0  0  0  0  0  0  0
   -0.0129   -1.4457    1.6907 H   0  0  0  0  0  0  0  0  0  0  0  0
   -0.0151   -0.4679    3.7499 H   0  0  0  0  0  0  0  0  0  0  0  0
   -0.8714    1.1116   -1.8381 H   0  0  0  0  0  0  0  0  0  0  0  0
    0.8935    1.1043   -1.8315 H   0  0  0  0  0  0  0  0  0  0  0  0
    0.0030   -1.3087   -2.5244 H   0  0  0  0  0  0  0  0  0  0  0  0
  1 11  1  0  0  0  0
  2  1  1  0  0  0  0
  2  3  1  0  0  0  0
  3  4  2  0  0  0  0
  4 13  1  0  0  0  0
  5  2  1  0  0  0  0
  6  5  2  0  0  0  0
  7  5  1  0  0  0  0
  8 16  1  0  0  0  0
  8  7  1  0  0  0  0
  9  1  1  0  0  0  0
 10  1  1  0  0  0  0
 12  3  1  0  0  0  0
 14  7  1  0  0  0  0
 15  7  1  0  0  0  0
M  END
