16
title
C -0.037396252 1.7848881 0.6672024
N -0.01666784 0.32479855 0.66113013
C -0.033136558 -0.32743892 1.8918641
O -0.077030614 0.24932083 2.9542148
C 0.024911238 -0.4193292 -0.5296065
N -0.025663419 -1.689434 -0.5118193
C 0.14403754 0.3996752 -1.818303
O 0.06520096 -0.4135531 -2.9665654
H 0.81630445 2.2014198 0.12533341
H -0.9626787 2.1789875 0.2346413
H 0.019046972 2.091701 1.7110223
H 0.0008413589 -1.4170326 1.7750283
H 0.068616234 -2.0307593 -1.4686519
H -0.60937643 1.1986403 -1.8335286
H 1.1247278 0.8881321 -1.8509334
H -0.85418576 -0.67394507 -3.0877583
