16
title
C 0.08784327 1.8000926 0.68503183
N 0.013036864 0.34025282 0.6465137
C -0.02828719 -0.34856156 1.8625884
O -0.005656013 0.19517864 2.9398806
C -0.017726293 -0.39138606 -0.5502581
O -0.079875 -1.6019899 -0.562669
C 0.03113036 0.42115644 -1.8513876
N 0.0001242424 -0.3803828 -3.059709
H 1.0036358 2.1646912 0.21208057
H -0.7749226 2.256069 0.19229195
H 0.0910963 2.0859392 1.7363137
H -0.08255135 -1.433348 1.7107581
H -0.8092731 1.12656 -1.860622
H 0.9359865 1.0416825 -1.8488802
H 0.7727457 -1.0406741 -3.0351672
H -0.83142066 -0.96504337 -3.0439548
