title
 OpenBabel02282109583D

 15 14  0  0  0  0  0  0  0  0999 V2000
    0.0193    1.8004    0.7225 C   0  0  0  0  0  0  0  0  0  0  0  0
   -0.0000    0.3389    0.6602 N   0  0  0  0  0  0  0  0  0  0  0  0
   -0.0178   -0.3792    1.8642 C   0  0  0  0  0  0  0  0  0  0  0  0
   -0.0180    0.1456    2.9490 O   0  0  0  0  0  0  0  0  0  0  0  0
   -0.0012   -0.3575   -0.5427 C   0  0  0  0  0  0  0  0  0  0  0  0
   -0.0175   -1.5725   -0.6041 O   0  0  0  0  0  0  0  0  0  0  0  0
    0.0190    0.4589   -1.8327 C   0  0  0  0  0  0  0  0  0  0  0  0
    0.0150   -0.3900   -2.9374 O   0  0  0  0  0  0  0  0  0  0  0  0
    0.9193    2.2035    0.2510 H   0  0  0  0  0  0  0  0  0  0  0  0
   -0.8633    2.2275    0.2393 H   0  0  0  0  0  0  0  0  0  0  0  0
    0.0159    2.0693    1.7780 H   0  0  0  0  0  0  0  0  0  0  0  0
   -0.0312   -1.4621    1.6909 H   0  0  0  0  0  0  0  0  0  0  0  0
   -0.8543    1.1310   -1.8442 H   0  0  0  0  0  0  0  0  0  0  0  0
    0.9105    1.1067   -1.8319 H   0  0  0  0  0  0  0  0  0  0  0  0
   -0.0000   -1.2888   -2.5695 H   0  0  0  0  0  0  0  0  0  0  0  0
  1 11  1  0  0  0  0
  2  1  1  0  0  0  0
  2  3  1  0  0  0  0
  3  4  2  0  0  0  0
  5  2  1  0  0  0  0
  6  5  2  0  0  0  0
  7 14  1  0  0  0  0
  7  5  1  0  0  0  0
  8 15  1  0  0  0  0
  8  7  1  0  0  0  0
  9  1  1  0  0  0  0
 10  1  1  0  0  0  0
 12  3  1  0  0  0  0
 13  7  1  0  0  0  0
M  END
