title
 OpenBabel02282109583D

 17 16  0  0  1  0  0  0  0  0999 V2000
    0.7032    2.5942   -0.5792 C   0  0  0  0  0  0  0  0  0  0  0  0
    0.5016    1.1584   -0.6238 N   0  0  0  0  0  0  0  0  0  0  0  0
    0.3527    0.4154    0.5001 C   0  0  0  0  0  0  0  0  0  0  0  0
    0.4434    0.8482    1.6341 O   0  0  0  0  0  0  0  0  0  0  0  0
    0.1134   -1.1002    0.2454 C   0  0  1  0  0  0  0  0  0  0  0  0
   -0.1458   -1.8494    1.5511 C   0  0  0  0  0  0  0  0  0  0  0  0
   -0.9731   -1.3588   -0.7871 C   0  0  0  0  0  0  0  0  0  0  0  0
   -0.9937   -0.8873   -1.8999 O   0  0  0  0  0  0  0  0  0  0  0  0
    1.5180    2.8884   -1.2481 H   0  0  0  0  0  0  0  0  0  0  0  0
   -0.2018    3.1411   -0.8699 H   0  0  0  0  0  0  0  0  0  0  0  0
    0.9614    2.8642    0.4451 H   0  0  0  0  0  0  0  0  0  0  0  0
    0.2630    0.7151   -1.5008 H   0  0  0  0  0  0  0  0  0  0  0  0
    1.0400   -1.4649   -0.2214 H   0  0  0  0  0  0  0  0  0  0  0  0
   -0.2349   -2.9247    1.3677 H   0  0  0  0  0  0  0  0  0  0  0  0
    0.6668   -1.6769    2.2568 H   0  0  0  0  0  0  0  0  0  0  0  0
   -1.0671   -1.4995    2.0253 H   0  0  0  0  0  0  0  0  0  0  0  0
   -1.7825   -2.0435   -0.4527 H   0  0  0  0  0  0  0  0  0  0  0  0
  1 11  1  0  0  0  0
  2  1  1  0  0  0  0
  2  3  1  0  0  0  0
  3  4  2  0  0  0  0
  5 13  1  6  0  0  0
  5  3  1  0  0  0  0
  5  6  1  0  0  0  0
  6 16  1  0  0  0  0
  6 15  1  0  0  0  0
  7 17  1  0  0  0  0
  7  5  1  0  0  0  0
  8  7  2  0  0  0  0
  9  1  1  0  0  0  0
 10  1  1  0  0  0  0
 12  2  1  0  0  0  0
 14  6  1  0  0  0  0
M  END
