17
title
C 0.7031816 2.594227 -0.57919455
N 0.50159633 1.1583966 -0.623779
C 0.35267258 0.41536802 0.5000948
O 0.4434379 0.84824693 1.6341169
C 0.1133833 -1.1001599 0.24543986
C -0.14575386 -1.8493586 1.551094
C -0.973083 -1.35884 -0.7871484
O -0.99368894 -0.88733435 -1.8999385
H 1.5179654 2.8884065 -1.2480563
H -0.20182574 3.1410537 -0.86988926
H 0.9614353 2.8641589 0.4451235
H 0.26295775 0.7150776 -1.5007914
H 1.0400376 -1.4648972 -0.22137266
H -0.23489666 -2.9247136 1.3676534
H 0.66684854 -1.6769121 2.2567863
H -1.0670929 -1.4995418 2.025342
H -1.7824893 -2.0434823 -0.45272258
