17
title
C 1.1199744 2.8130128 -0.019489573
N 1.0727066 1.3644929 -0.05500641
C -0.11064108 0.68747354 0.028135702
O -1.1918933 1.2410574 0.13584302
N 0.010876942 -0.7137553 -0.020263573
C 1.2907296 -1.3976762 -0.14842224
C -1.1547413 -1.4661677 0.059056114
N -1.1364429 -2.7384837 0.022932138
H 1.7068379 3.1713357 0.8337286
H 1.5549513 3.219776 -0.9393416
H 0.09533183 3.1712 0.078048825
H 1.9357185 0.859373 -0.14244819
H 1.9487265 -1.1754379 0.6995261
H 1.0824218 -2.4670777 -0.15942231
H 1.7959819 -1.127341 -1.0827696
H -2.0303674 -0.824743 0.15142332
H -2.0846002 -3.1002247 0.09426259
