title
 OpenBabel02282109583D

 14 13  0  0  1  0  0  0  0  0999 V2000
   -1.0324    2.4982    1.0143 C   0  0  0  0  0  0  0  0  0  0  0  0
   -0.9770    1.0771    0.8084 O   0  0  0  0  0  0  0  0  0  0  0  0
   -0.2714    0.6770   -0.2687 C   0  0  0  0  0  0  0  0  0  0  0  0
    0.2870    1.4045   -1.0381 O   0  0  0  0  0  0  0  0  0  0  0  0
   -0.2857   -0.8635   -0.3354 C   0  0  1  0  0  0  0  0  0  0  0  0
    0.1772   -1.3429   -1.5480 O   0  0  0  0  0  0  0  0  0  0  0  0
    0.5433   -1.4027    0.8276 C   0  0  0  0  0  0  0  0  0  0  0  0
    1.5032   -2.1022    0.6243 O   0  0  0  0  0  0  0  0  0  0  0  0
   -0.0267    2.9075    1.1360 H   0  0  0  0  0  0  0  0  0  0  0  0
   -1.5126    2.9866    0.1633 H   0  0  0  0  0  0  0  0  0  0  0  0
   -1.6191    2.6439    1.9208 H   0  0  0  0  0  0  0  0  0  0  0  0
   -1.3284   -1.1705   -0.1526 H   0  0  0  0  0  0  0  0  0  0  0  0
    1.0127   -1.7972   -1.3547 H   0  0  0  0  0  0  0  0  0  0  0  0
    0.2194   -1.1092    1.8428 H   0  0  0  0  0  0  0  0  0  0  0  0
  1  9  1  0  0  0  0
  1 11  1  0  0  0  0
  2  1  1  0  0  0  0
  3  2  1  0  0  0  0
  4  3  2  0  0  0  0
  5  3  1  0  0  0  0
  5 12  1  1  0  0  0
  5  7  1  0  0  0  0
  6 13  1  0  0  0  0
  6  5  1  0  0  0  0
  7 14  1  0  0  0  0
  8  7  2  0  0  0  0
 10  1  1  0  0  0  0
M  END
