16
title
C -0.68234 2.6078405 1.0618275
O -0.614908 1.1780168 1.0082974
C 0.024038862 0.6862093 -0.071416944
O 0.51311177 1.3663017 -0.94424593
N 0.03748257 -0.698871 -0.033734415
C -0.5792097 -1.4473528 1.0617548
C 0.6619236 -1.3712631 -1.0808929
N 0.7180862 -2.640186 -1.1223196
H 0.3204931 3.0407944 1.0850068
H -1.2166404 3.0016522 0.19400975
H -1.2207742 2.840563 1.9804665
H -1.6474755 -1.2280182 1.1240734
H -0.42863184 -2.5043135 0.8490103
H -0.11264302 -1.1886593 2.0149422
H 1.0687948 -0.6729709 -1.8127464
H 1.2118405 -2.9386642 -1.9604295
