15
title
C -0.640564 2.6314113 -1.085386
O -0.5939424 1.1989256 -1.0195534
C 0.03195425 0.7067047 0.06345562
O 0.5293399 1.3772323 0.9352768
N 0.02278026 -0.68681777 0.032662787
C -0.59966105 -1.4384146 -1.0571303
C 0.6306617 -1.3760812 1.0809501
O 0.67815506 -2.5796351 1.1500891
H 0.36913887 3.047623 -1.1037667
H -1.1684111 2.8633413 -2.009972
H -1.1761469 3.03766 -0.22439851
H -0.12404714 -1.2004504 -2.0108554
H -0.46312138 -2.4940968 -0.8260191
H -1.664247 -1.2058892 -1.1271193
H 1.0545642 -0.68838346 1.824813
