title
 OpenBabel02282109583D

 15 14  0  0  0  0  0  0  0  0999 V2000
   -0.6406    2.6314   -1.0854 C   0  0  0  0  0  0  0  0  0  0  0  0
   -0.5939    1.1989   -1.0196 O   0  0  0  0  0  0  0  0  0  0  0  0
    0.0320    0.7067    0.0635 C   0  0  0  0  0  0  0  0  0  0  0  0
    0.5293    1.3772    0.9353 O   0  0  0  0  0  0  0  0  0  0  0  0
    0.0228   -0.6868    0.0327 N   0  0  0  0  0  0  0  0  0  0  0  0
   -0.5997   -1.4384   -1.0571 C   0  0  0  0  0  0  0  0  0  0  0  0
    0.6307   -1.3761    1.0810 C   0  0  0  0  0  0  0  0  0  0  0  0
    0.6782   -2.5796    1.1501 O   0  0  0  0  0  0  0  0  0  0  0  0
    0.3691    3.0476   -1.1038 H   0  0  0  0  0  0  0  0  0  0  0  0
   -1.1684    2.8633   -2.0100 H   0  0  0  0  0  0  0  0  0  0  0  0
   -1.1761    3.0377   -0.2244 H   0  0  0  0  0  0  0  0  0  0  0  0
   -0.1240   -1.2005   -2.0109 H   0  0  0  0  0  0  0  0  0  0  0  0
   -0.4631   -2.4941   -0.8260 H   0  0  0  0  0  0  0  0  0  0  0  0
   -1.6642   -1.2059   -1.1271 H   0  0  0  0  0  0  0  0  0  0  0  0
    1.0546   -0.6884    1.8248 H   0  0  0  0  0  0  0  0  0  0  0  0
  1  2  1  0  0  0  0
  1 11  1  0  0  0  0
  2  3  1  0  0  0  0
  3  4  2  0  0  0  0
  5  3  1  0  0  0  0
  5  7  1  0  0  0  0
  6 13  1  0  0  0  0
  6  5  1  0  0  0  0
  7  8  2  0  0  0  0
  7 15  1  0  0  0  0
  9  1  1  0  0  0  0
 10  1  1  0  0  0  0
 12  6  1  0  0  0  0
 14  6  1  0  0  0  0
M  END
