title
 OpenBabel02282109583D

 14 13  0  0  1  0  0  0  0  0999 V2000
    1.7602    2.3595    0.3505 O   0  0  0  0  0  0  0  0  0  0  0  0
    1.5781    0.9917    0.5403 C   0  0  0  0  0  0  0  0  0  0  0  0
    0.1259    0.5888    0.3444 C   0  0  0  0  0  0  0  0  0  0  0  0
   -0.7224    1.4279    0.1672 O   0  0  0  0  0  0  0  0  0  0  0  0
   -0.2133   -0.9193    0.3849 C   0  0  1  0  0  0  0  0  0  0  0  0
   -1.5033   -1.1565    0.8321 O   0  0  0  0  0  0  0  0  0  0  0  0
   -0.0088   -1.4891   -1.0186 C   0  0  0  0  0  0  0  0  0  0  0  0
   -0.9298   -1.9776   -1.6207 O   0  0  0  0  0  0  0  0  0  0  0  0
    0.8683    2.7271    0.2456 H   0  0  0  0  0  0  0  0  0  0  0  0
    2.2107    0.4092   -0.1519 H   0  0  0  0  0  0  0  0  0  0  0  0
    1.8725    0.6743    1.5569 H   0  0  0  0  0  0  0  0  0  0  0  0
    0.5272   -1.4087    1.0411 H   0  0  0  0  0  0  0  0  0  0  0  0
   -2.0003   -1.4810    0.0644 H   0  0  0  0  0  0  0  0  0  0  0  0
    1.0104   -1.4248   -1.4465 H   0  0  0  0  0  0  0  0  0  0  0  0
  1  2  1  0  0  0  0
  2 11  1  0  0  0  0
  3  5  1  0  0  0  0
  3  2  1  0  0  0  0
  4  3  2  0  0  0  0
  5  6  1  0  0  0  0
  5 12  1  1  0  0  0
  7  5  1  0  0  0  0
  8  7  2  0  0  0  0
  9  1  1  0  0  0  0
 10  2  1  0  0  0  0
 13  6  1  0  0  0  0
 14  7  1  0  0  0  0
M  END
