title
 OpenBabel02282109583D

 16 15  0  0  1  0  0  0  0  0999 V2000
    0.0136    1.6402    0.6785 C   0  0  0  0  0  0  0  0  0  0  0  0
   -0.2442    0.1289    0.5186 C   0  0  1  0  0  0  0  0  0  0  0  0
   -1.7357   -0.2022    0.4927 C   0  0  0  0  0  0  0  0  0  0  0  0
   -2.2768    0.1980    1.7439 O   0  0  0  0  0  0  0  0  0  0  0  0
    0.4426   -0.4071   -0.7280 C   0  0  0  0  0  0  0  0  0  0  0  0
   -0.1598   -0.8590   -1.6795 O   0  0  0  0  0  0  0  0  0  0  0  0
    1.8978   -0.3466   -0.7225 C   0  0  0  0  0  0  0  0  0  0  0  0
    3.1009   -0.3078   -0.7055 C   0  0  0  0  0  0  0  0  0  0  0  0
    1.0819    1.8543    0.7608 H   0  0  0  0  0  0  0  0  0  0  0  0
   -0.3835    2.1933   -0.1795 H   0  0  0  0  0  0  0  0  0  0  0  0
   -0.4905    1.9953    1.5789 H   0  0  0  0  0  0  0  0  0  0  0  0
    0.2066   -0.3807    1.3816 H   0  0  0  0  0  0  0  0  0  0  0  0
   -2.2143    0.3249   -0.3452 H   0  0  0  0  0  0  0  0  0  0  0  0
   -1.8725   -1.2787    0.3192 H   0  0  0  0  0  0  0  0  0  0  0  0
   -3.2247    0.0401    1.7233 H   0  0  0  0  0  0  0  0  0  0  0  0
    4.1637   -0.2797   -0.7067 H   0  0  0  0  0  0  0  0  0  0  0  0
  1  9  1  0  0  0  0
  1 11  1  0  0  0  0
  2  1  1  0  0  0  0
  2 12  1  1  0  0  0
  3  2  1  0  0  0  0
  3  4  1  0  0  0  0
  5  7  1  0  0  0  0
  5  2  1  0  0  0  0
  6  5  2  0  0  0  0
  7  8  3  0  0  0  0
 10  1  1  0  0  0  0
 13  3  1  0  0  0  0
 14  3  1  0  0  0  0
 15  4  1  0  0  0  0
 16  8  1  0  0  0  0
M  END
