18
title
C -0.70145077 2.7119007 1.3088679
C -0.6113916 1.1832534 1.2873214
C -0.004166236 0.6149177 -0.0037828493
C 1.4811224 0.98469245 -0.19947468
C -0.15841942 -0.90332294 -0.0540633
O -0.5094044 -1.5747361 0.8919181
C 0.14583881 -1.5250394 -1.3375964
C 0.379151 -2.0315342 -2.4047174
H 0.28456032 3.185775 1.2741702
H -1.2815468 3.089348 0.45884177
H -1.1951665 3.0547907 2.2231631
H -0.025086155 0.82703197 2.1418762
H -1.6107727 0.7554786 1.4185193
H -0.5575837 1.0059446 -0.87077165
H 1.8849303 0.53607374 -1.110914
H 1.5999316 2.067944 -0.27769253
H 2.0800104 0.6360836 0.6486438
H 0.5825449 -2.495372 -3.339383
