17
title
C 1.434824 2.7585528 -0.025008656
C 1.4126482 1.2298625 -0.11040884
C 0.0057397657 0.62589717 0.013194461
C -0.9299937 0.97647715 -1.1643484
C 0.08073528 -0.8826595 0.16498278
O 1.0727419 -1.555132 0.043883406
C -1.2097776 -1.5409771 0.49386007
N -2.2145875 -2.046206 0.76315427
H 2.4639487 3.1274886 -0.05961016
H 0.892486 3.2278996 -0.85143226
H 0.98808014 3.1120682 0.9111026
H 1.859423 0.8970259 -1.0542362
H 2.0427067 0.8091126 0.6800197
H -0.47326306 0.9941683 0.9338593
H -1.9096837 0.5031193 -1.0553876
H -1.0863636 2.056086 -1.2115595
H -0.49352065 0.6510974 -2.1141293
