title
 OpenBabel02282109583D

 17 16  0  0  1  0  0  0  0  0999 V2000
    1.4348    2.7586   -0.0250 C   0  0  0  0  0  0  0  0  0  0  0  0
    1.4126    1.2299   -0.1104 C   0  0  0  0  0  0  0  0  0  0  0  0
    0.0057    0.6259    0.0132 C   0  0  1  0  0  0  0  0  0  0  0  0
   -0.9300    0.9765   -1.1643 C   0  0  0  0  0  0  0  0  0  0  0  0
    0.0807   -0.8827    0.1650 C   0  0  0  0  0  0  0  0  0  0  0  0
    1.0727   -1.5551    0.0439 O   0  0  0  0  0  0  0  0  0  0  0  0
   -1.2098   -1.5410    0.4939 C   0  0  0  0  0  0  0  0  0  0  0  0
   -2.2146   -2.0462    0.7632 N   0  0  0  0  0  0  0  0  0  0  0  0
    2.4639    3.1275   -0.0596 H   0  0  0  0  0  0  0  0  0  0  0  0
    0.8925    3.2279   -0.8514 H   0  0  0  0  0  0  0  0  0  0  0  0
    0.9881    3.1121    0.9111 H   0  0  0  0  0  0  0  0  0  0  0  0
    1.8594    0.8970   -1.0542 H   0  0  0  0  0  0  0  0  0  0  0  0
    2.0427    0.8091    0.6800 H   0  0  0  0  0  0  0  0  0  0  0  0
   -0.4733    0.9942    0.9339 H   0  0  0  0  0  0  0  0  0  0  0  0
   -1.9097    0.5031   -1.0554 H   0  0  0  0  0  0  0  0  0  0  0  0
   -1.0864    2.0561   -1.2116 H   0  0  0  0  0  0  0  0  0  0  0  0
   -0.4935    0.6511   -2.1141 H   0  0  0  0  0  0  0  0  0  0  0  0
  1 11  1  0  0  0  0
  2  1  1  0  0  0  0
  2  3  1  0  0  0  0
  2 13  1  0  0  0  0
  3  5  1  0  0  0  0
  3 14  1  1  0  0  0
  4 15  1  0  0  0  0
  4  3  1  0  0  0  0
  5  7  1  0  0  0  0
  6  5  2  0  0  0  0
  7  8  3  0  0  0  0
  9  1  1  0  0  0  0
 10  1  1  0  0  0  0
 12  2  1  0  0  0  0
 16  4  1  0  0  0  0
 17  4  1  0  0  0  0
M  END
