17
title
C -0.43358713 2.0139925 1.7736877
C -0.3524642 0.48435974 1.7988503
N 0.29708284 -0.08321629 0.61801535
C 1.7437564 -0.19232757 0.6346014
C -0.4635459 -0.2954967 -0.494175
N -1.7202312 -0.025396476 -0.5364645
C 0.22011846 -0.87357515 -1.6437132
N 0.6852796 -1.3282957 -2.6003718
H 0.55952567 2.4684649 1.699254
H -1.0368031 2.3457608 0.925693
H -0.9016701 2.3785346 2.693239
H 0.21346295 0.14282547 2.6722832
H -1.3579279 0.06179424 1.8555292
H 2.101922 -0.66277117 -0.28143814
H 2.2216256 0.79216534 0.72264856
H 2.0644333 -0.8048963 1.4849118
H -2.1223671 -0.30239558 -1.4275298
