title
 OpenBabel02282109583D

 17 16  0  0  0  0  0  0  0  0999 V2000
   -0.4336    2.0140    1.7737 C   0  0  0  0  0  0  0  0  0  0  0  0
   -0.3525    0.4844    1.7989 C   0  0  0  0  0  0  0  0  0  0  0  0
    0.2971   -0.0832    0.6180 N   0  0  0  0  0  0  0  0  0  0  0  0
    1.7438   -0.1923    0.6346 C   0  0  0  0  0  0  0  0  0  0  0  0
   -0.4635   -0.2955   -0.4942 C   0  0  0  0  0  0  0  0  0  0  0  0
   -1.7202   -0.0254   -0.5365 N   0  0  0  0  0  0  0  0  0  0  0  0
    0.2201   -0.8736   -1.6437 C   0  0  0  0  0  0  0  0  0  0  0  0
    0.6853   -1.3283   -2.6004 N   0  0  0  0  0  0  0  0  0  0  0  0
    0.5595    2.4685    1.6993 H   0  0  0  0  0  0  0  0  0  0  0  0
   -1.0368    2.3458    0.9257 H   0  0  0  0  0  0  0  0  0  0  0  0
   -0.9017    2.3785    2.6932 H   0  0  0  0  0  0  0  0  0  0  0  0
    0.2135    0.1428    2.6723 H   0  0  0  0  0  0  0  0  0  0  0  0
   -1.3579    0.0618    1.8555 H   0  0  0  0  0  0  0  0  0  0  0  0
    2.1019   -0.6628   -0.2814 H   0  0  0  0  0  0  0  0  0  0  0  0
    2.2216    0.7922    0.7226 H   0  0  0  0  0  0  0  0  0  0  0  0
    2.0644   -0.8049    1.4849 H   0  0  0  0  0  0  0  0  0  0  0  0
   -2.1224   -0.3024   -1.4275 H   0  0  0  0  0  0  0  0  0  0  0  0
  1  2  1  0  0  0  0
  1 11  1  0  0  0  0
  2 13  1  0  0  0  0
  2 12  1  0  0  0  0
  3  4  1  0  0  0  0
  3  2  1  0  0  0  0
  4 15  1  0  0  0  0
  4 16  1  0  0  0  0
  5  3  1  0  0  0  0
  6  5  2  0  0  0  0
  7  5  1  0  0  0  0
  8  7  3  0  0  0  0
  9  1  1  0  0  0  0
 10  1  1  0  0  0  0
 14  4  1  0  0  0  0
 17  6  1  0  0  0  0
M  END
