title
 OpenBabel02282109583D

 17 16  0  0  0  0  0  0  0  0999 V2000
   -0.4508    1.9391    1.8554 C   0  0  0  0  0  0  0  0  0  0  0  0
   -0.3959    0.4102    1.7876 C   0  0  0  0  0  0  0  0  0  0  0  0
    0.2958   -0.0870    0.5987 N   0  0  0  0  0  0  0  0  0  0  0  0
    1.7326   -0.2677    0.6800 C   0  0  0  0  0  0  0  0  0  0  0  0
   -0.4477   -0.2845   -0.5305 C   0  0  0  0  0  0  0  0  0  0  0  0
   -1.6494   -0.0688   -0.5850 O   0  0  0  0  0  0  0  0  0  0  0  0
    0.2626   -0.7854   -1.7028 C   0  0  0  0  0  0  0  0  0  0  0  0
    0.7478   -1.1941   -2.7250 C   0  0  0  0  0  0  0  0  0  0  0  0
    0.5511    2.3805    1.8497 H   0  0  0  0  0  0  0  0  0  0  0  0
   -1.0103    2.3323    1.0031 H   0  0  0  0  0  0  0  0  0  0  0  0
   -0.9534    2.2579    2.7739 H   0  0  0  0  0  0  0  0  0  0  0  0
    0.1212    0.0027    2.6632 H   0  0  0  0  0  0  0  0  0  0  0  0
   -1.4095    0.0053    1.7683 H   0  0  0  0  0  0  0  0  0  0  0  0
    1.9858   -1.0091    1.4480 H   0  0  0  0  0  0  0  0  0  0  0  0
    2.1176   -0.6129   -0.2787 H   0  0  0  0  0  0  0  0  0  0  0  0
    2.2337    0.6739    0.9366 H   0  0  0  0  0  0  0  0  0  0  0  0
    1.1718   -1.5554   -3.6300 H   0  0  0  0  0  0  0  0  0  0  0  0
  1 11  1  0  0  0  0
  2  1  1  0  0  0  0
  2 12  1  0  0  0  0
  3  4  1  0  0  0  0
  3  2  1  0  0  0  0
  4 16  1  0  0  0  0
  4 14  1  0  0  0  0
  5  3  1  0  0  0  0
  6  5  2  0  0  0  0
  7  5  1  0  0  0  0
  8  7  3  0  0  0  0
  9  1  1  0  0  0  0
 10  1  1  0  0  0  0
 13  2  1  0  0  0  0
 15  4  1  0  0  0  0
 17  8  1  0  0  0  0
M  END
