17
title
C -0.4507861 1.9391136 1.8553587
C -0.39589134 0.4101596 1.7876459
N 0.29580256 -0.087007605 0.5986761
C 1.7325628 -0.26765504 0.6800245
C -0.4476972 -0.28453448 -0.5304674
O -1.6493945 -0.068791114 -0.58495486
C 0.26260003 -0.78543025 -1.7028095
C 0.747802 -1.194116 -2.7249527
H 0.5510553 2.3804753 1.8497448
H -1.0103105 2.3322847 1.003082
H -0.9533894 2.2578576 2.7738626
H 0.12117783 0.0026954217 2.6632473
H -1.4094803 0.0052690906 1.7683415
H 1.9857602 -1.0090833 1.4479777
H 2.1176476 -0.6129345 -0.27870026
H 2.233652 0.67393214 0.9365644
H 1.1717637 -1.555435 -3.6299667
