title
 OpenBabel02282109583D

 16 15  0  0  0  0  0  0  0  0999 V2000
    1.6685    2.1094   -0.5194 C   0  0  0  0  0  0  0  0  0  0  0  0
    1.7090    0.5802   -0.5710 C   0  0  0  0  0  0  0  0  0  0  0  0
    0.3749   -0.0278   -0.5582 N   0  0  0  0  0  0  0  0  0  0  0  0
   -0.2928   -0.2290   -1.8336 C   0  0  0  0  0  0  0  0  0  0  0  0
   -0.1715   -0.3107    0.6509 C   0  0  0  0  0  0  0  0  0  0  0  0
    0.3581   -0.1023    1.7264 O   0  0  0  0  0  0  0  0  0  0  0  0
   -1.5146   -0.9287    0.6144 C   0  0  0  0  0  0  0  0  0  0  0  0
   -2.5635   -1.4111    0.6708 N   0  0  0  0  0  0  0  0  0  0  0  0
    2.6857    2.5106   -0.5576 H   0  0  0  0  0  0  0  0  0  0  0  0
    1.1099    2.5282   -1.3622 H   0  0  0  0  0  0  0  0  0  0  0  0
    1.2023    2.4447    0.4102 H   0  0  0  0  0  0  0  0  0  0  0  0
    2.2146    0.2341   -1.4782 H   0  0  0  0  0  0  0  0  0  0  0  0
    2.2512    0.1918    0.2932 H   0  0  0  0  0  0  0  0  0  0  0  0
   -1.2842   -0.6551   -1.6797 H   0  0  0  0  0  0  0  0  0  0  0  0
   -0.4044    0.7223   -2.3659 H   0  0  0  0  0  0  0  0  0  0  0  0
    0.2875   -0.9125   -2.4638 H   0  0  0  0  0  0  0  0  0  0  0  0
  1 11  1  0  0  0  0
  2  3  1  0  0  0  0
  2  1  1  0  0  0  0
  2 13  1  0  0  0  0
  3  5  1  0  0  0  0
  4 14  1  0  0  0  0
  4  3  1  0  0  0  0
  5  6  2  0  0  0  0
  7  5  1  0  0  0  0
  7  8  3  0  0  0  0
  9  1  1  0  0  0  0
 10  1  1  0  0  0  0
 12  2  1  0  0  0  0
 15  4  1  0  0  0  0
 16  4  1  0  0  0  0
M  END
