16
title
C 1.6685479 2.1094346 -0.51940775
C 1.7089616 0.5801873 -0.57095546
N 0.37489223 -0.02776645 -0.5582206
C -0.2927649 -0.22898881 -1.8335531
C -0.17153694 -0.3106608 0.6509439
O 0.35810578 -0.10226564 1.7264458
C -1.5145831 -0.928653 0.6144221
N -2.5634544 -1.4110683 0.6708113
H 2.6856894 2.5106158 -0.55758095
H 1.1098742 2.5281785 -1.3622277
H 1.2022598 2.4446597 0.410231
H 2.214573 0.23408356 -1.4781947
H 2.2512357 0.19183858 0.2932064
H -1.2842114 -0.65506005 -1.6797111
H -0.4044404 0.7222875 -2.3659036
H 0.28750098 -0.9124768 -2.4638052
