title
 OpenBabel02282109583D

 16 15  0  0  1  0  0  0  0  0999 V2000
    0.8469    2.5605    0.2330 C   0  0  0  0  0  0  0  0  0  0  0  0
    0.8980    1.1048    0.1611 N   0  0  0  0  0  0  0  0  0  0  0  0
   -0.1100    0.4703   -0.6779 C   0  0  1  0  0  0  0  0  0  0  0  0
    0.1733    0.4426   -2.1813 C   0  0  0  0  0  0  0  0  0  0  0  0
   -0.3026   -0.9389   -0.1162 C   0  0  0  0  0  0  0  0  0  0  0  0
   -0.1952   -1.9609   -0.7433 O   0  0  0  0  0  0  0  0  0  0  0  0
   -0.6262   -0.9800    1.3284 C   0  0  0  0  0  0  0  0  0  0  0  0
   -0.9470   -1.0575    2.4367 N   0  0  0  0  0  0  0  0  0  0  0  0
    1.6605    2.9143    0.8717 H   0  0  0  0  0  0  0  0  0  0  0  0
    0.9298    3.0697   -0.7411 H   0  0  0  0  0  0  0  0  0  0  0  0
   -0.0955    2.8677    0.6976 H   0  0  0  0  0  0  0  0  0  0  0  0
    1.8228    0.7905   -0.1118 H   0  0  0  0  0  0  0  0  0  0  0  0
   -1.0562    0.9977   -0.4869 H   0  0  0  0  0  0  0  0  0  0  0  0
   -0.6450   -0.0306   -2.7304 H   0  0  0  0  0  0  0  0  0  0  0  0
    0.3005    1.4603   -2.5596 H   0  0  0  0  0  0  0  0  0  0  0  0
    1.0833   -0.1274   -2.3906 H   0  0  0  0  0  0  0  0  0  0  0  0
  1 11  1  0  0  0  0
  1  9  1  0  0  0  0
  2  1  1  0  0  0  0
  3 13  1  1  0  0  0
  3  5  1  0  0  0  0
  3  2  1  0  0  0  0
  4  3  1  0  0  0  0
  5  7  1  0  0  0  0
  6  5  2  0  0  0  0
  7  8  3  0  0  0  0
 10  1  1  0  0  0  0
 12  2  1  0  0  0  0
 14  4  1  0  0  0  0
 15  4  1  0  0  0  0
 16  4  1  0  0  0  0
M  END
