title
 OpenBabel02282109583D

 15 14  0  0  1  0  0  0  0  0999 V2000
   -0.3262    2.5904    1.2558 C   0  0  0  0  0  0  0  0  0  0  0  0
   -0.4578    1.1861    1.1667 O   0  0  0  0  0  0  0  0  0  0  0  0
    0.2264    0.6034    0.0953 C   0  0  1  0  0  0  0  0  0  0  0  0
    1.7338    0.4250    0.3589 C   0  0  0  0  0  0  0  0  0  0  0  0
   -0.4262   -0.7506   -0.1727 C   0  0  0  0  0  0  0  0  0  0  0  0
   -1.2764   -1.2647    0.4996 O   0  0  0  0  0  0  0  0  0  0  0  0
    0.0856   -1.4316   -1.3877 C   0  0  0  0  0  0  0  0  0  0  0  0
    0.4765   -1.9524   -2.3433 N   0  0  0  0  0  0  0  0  0  0  0  0
    0.7031    2.9039    1.4789 H   0  0  0  0  0  0  0  0  0  0  0  0
   -0.6497    3.0852    0.3277 H   0  0  0  0  0  0  0  0  0  0  0  0
   -0.9738    2.9136    2.0732 H   0  0  0  0  0  0  0  0  0  0  0  0
    0.0962    1.1966   -0.8289 H   0  0  0  0  0  0  0  0  0  0  0  0
    2.2080    1.4009    0.4849 H   0  0  0  0  0  0  0  0  0  0  0  0
    1.8846   -0.1585    1.2711 H   0  0  0  0  0  0  0  0  0  0  0  0
    2.2254   -0.0811   -0.4762 H   0  0  0  0  0  0  0  0  0  0  0  0
  1  9  1  0  0  0  0
  1 11  1  0  0  0  0
  2  1  1  0  0  0  0
  3 12  1  6  0  0  0
  3  4  1  0  0  0  0
  3  2  1  0  0  0  0
  4 13  1  0  0  0  0
  4 14  1  0  0  0  0
  5  3  1  0  0  0  0
  5  6  2  0  0  0  0
  7  5  1  0  0  0  0
  8  7  3  0  0  0  0
 10  1  1  0  0  0  0
 15  4  1  0  0  0  0
M  END
