15
title
C -0.32621452 2.5903807 1.2558382
O -0.45779893 1.1861172 1.1667001
C 0.22636425 0.6033564 0.09530384
C 1.7337666 0.42496574 0.35890752
C -0.42622858 -0.7505826 -0.17266993
O -1.276448 -1.2647396 0.49962425
C 0.08563722 -1.4315685 -1.3876836
N 0.4764927 -1.9523929 -2.3433096
H 0.70313567 2.9039028 1.4788886
H -0.6496602 3.085176 0.3276536
H -0.9737812 2.9136164 2.0731516
H 0.096170016 1.196591 -0.82893735
H 2.2080138 1.400895 0.4848935
H 1.8846393 -0.15851511 1.2710961
H 2.225389 -0.08112288 -0.47617286
