title
 OpenBabel02282109583D

 13 12  0  0  1  0  0  0  0  0999 V2000
    1.4407    1.4268    0.8098 O   0  0  0  0  0  0  0  0  0  0  0  0
    0.8764    1.4116   -0.4802 C   0  0  0  0  0  0  0  0  0  0  0  0
   -0.4977    0.6909   -0.5489 C   0  0  1  0  0  0  0  0  0  0  0  0
   -1.0039    0.7811   -1.8477 O   0  0  0  0  0  0  0  0  0  0  0  0
   -0.3705   -0.7682   -0.1421 C   0  0  0  0  0  0  0  0  0  0  0  0
   -0.5294   -1.6602   -0.9442 O   0  0  0  0  0  0  0  0  0  0  0  0
   -0.0770   -1.0639    1.2634 C   0  0  0  0  0  0  0  0  0  0  0  0
    0.0896   -1.3173    2.3792 N   0  0  0  0  0  0  0  0  0  0  0  0
    0.9414    2.0343    1.3653 H   0  0  0  0  0  0  0  0  0  0  0  0
    0.7275    2.4154   -0.8987 H   0  0  0  0  0  0  0  0  0  0  0  0
    1.5804    0.8833   -1.1306 H   0  0  0  0  0  0  0  0  0  0  0  0
   -1.1818    1.1783    0.1658 H   0  0  0  0  0  0  0  0  0  0  0  0
   -1.0228   -0.1217   -2.2016 H   0  0  0  0  0  0  0  0  0  0  0  0
  1  9  1  0  0  0  0
  2  1  1  0  0  0  0
  3  2  1  0  0  0  0
  3  5  1  0  0  0  0
  3 12  1  1  0  0  0
  4  3  1  0  0  0  0
  5  7  1  0  0  0  0
  6  5  2  0  0  0  0
  7  8  3  0  0  0  0
 10  2  1  0  0  0  0
 11  2  1  0  0  0  0
 13  4  1  0  0  0  0
M  END
