13
title
O 1.4406515 1.4268142 0.80980605
C 0.87641937 1.4115806 -0.48015824
C -0.49765858 0.6909015 -0.54891807
O -1.0038978 0.7810717 -1.8477427
C -0.37048885 -0.7682376 -0.14206791
O -0.5293962 -1.6601784 -0.9442203
C -0.07699571 -1.0638509 1.263443
N 0.08956476 -1.3172803 2.3791883
H 0.94144744 2.0342653 1.3653381
H 0.72752064 2.4153547 -0.8987421
H 1.5803769 0.8833337 -1.1305648
H -1.1818205 1.1782684 0.16581093
H -1.0227863 -0.121665694 -2.2016032
