18
title
C -0.4466095 2.7776172 1.2219069
C -0.6293669 1.2574314 1.2212573
C 0.10286776 0.5435287 0.07474587
C 1.643909 0.6389528 0.17615674
C -0.27497825 -0.9222863 0.01581047
O -0.7438269 -1.5612957 0.93029165
C -0.047919117 -1.6678398 -1.3117294
O 0.33134493 -1.1430161 -2.3253825
H 0.59697485 3.0673878 1.37793
H -0.77658325 3.2188537 0.27458587
H -1.0351088 3.2352545 2.0227697
H -0.29352108 0.834707 2.174747
H -1.6973505 1.0203753 1.1537039
H -0.18500146 0.98162293 -0.89010096
H 1.9632871 1.6831121 0.13937746
H 1.9966481 0.20634797 1.1182901
H 2.1292894 0.115968965 -0.6515
H -0.29720825 -2.7480204 -1.2367613
