title
 OpenBabel02282109583D

 18 17  0  0  1  0  0  0  0  0999 V2000
   -0.4466    2.7776    1.2219 C   0  0  0  0  0  0  0  0  0  0  0  0
   -0.6294    1.2574    1.2213 C   0  0  0  0  0  0  0  0  0  0  0  0
    0.1029    0.5435    0.0747 C   0  0  1  0  0  0  0  0  0  0  0  0
    1.6439    0.6390    0.1762 C   0  0  0  0  0  0  0  0  0  0  0  0
   -0.2750   -0.9223    0.0158 C   0  0  0  0  0  0  0  0  0  0  0  0
   -0.7438   -1.5613    0.9303 O   0  0  0  0  0  0  0  0  0  0  0  0
   -0.0479   -1.6678   -1.3117 C   0  0  0  0  0  0  0  0  0  0  0  0
    0.3313   -1.1430   -2.3254 O   0  0  0  0  0  0  0  0  0  0  0  0
    0.5970    3.0674    1.3779 H   0  0  0  0  0  0  0  0  0  0  0  0
   -0.7766    3.2189    0.2746 H   0  0  0  0  0  0  0  0  0  0  0  0
   -1.0351    3.2353    2.0228 H   0  0  0  0  0  0  0  0  0  0  0  0
   -0.2935    0.8347    2.1747 H   0  0  0  0  0  0  0  0  0  0  0  0
   -1.6974    1.0204    1.1537 H   0  0  0  0  0  0  0  0  0  0  0  0
   -0.1850    0.9816   -0.8901 H   0  0  0  0  0  0  0  0  0  0  0  0
    1.9633    1.6831    0.1394 H   0  0  0  0  0  0  0  0  0  0  0  0
    1.9966    0.2063    1.1183 H   0  0  0  0  0  0  0  0  0  0  0  0
    2.1293    0.1160   -0.6515 H   0  0  0  0  0  0  0  0  0  0  0  0
   -0.2972   -2.7480   -1.2368 H   0  0  0  0  0  0  0  0  0  0  0  0
  1  9  1  0  0  0  0
  1 11  1  0  0  0  0
  2  1  1  0  0  0  0
  2 12  1  0  0  0  0
  3 14  1  6  0  0  0
  3  4  1  0  0  0  0
  3  2  1  0  0  0  0
  4 16  1  0  0  0  0
  5  3  1  0  0  0  0
  5  6  2  0  0  0  0
  7 18  1  0  0  0  0
  7  5  1  0  0  0  0
  8  7  2  0  0  0  0
 10  1  1  0  0  0  0
 13  2  1  0  0  0  0
 15  4  1  0  0  0  0
 17  4  1  0  0  0  0
M  END
