16
title
C -0.5273425 2.7294383 0.639359
C -0.56296134 1.2062602 0.7779746
C 0.38397193 0.5244148 -0.23939565
O 1.7062441 0.97815347 -0.09885326
C 0.34059638 -0.9816193 -0.073372036
O 1.2942336 -1.6065216 0.34017095
C -0.9265926 -1.7561493 -0.44550398
O -1.9050214 -1.2469625 -0.92425513
H 0.4922722 3.1014218 0.7627186
H -0.8870114 3.0425663 -0.3468018
H -1.1633855 3.2008517 1.3942012
H -0.2491786 0.91348135 1.7876937
H -1.5791745 0.8310579 0.6221731
H 0.022167407 0.7619837 -1.2516371
H 2.2109926 0.23512483 0.26404944
H -0.83483326 -2.844096 -0.24596646
