title
 OpenBabel02282109583D

 17 16  0  0  0  0  0  0  0  0999 V2000
   -0.5242    2.0986    1.6722 C   0  0  0  0  0  0  0  0  0  0  0  0
   -0.2051    0.6065    1.7950 C   0  0  0  0  0  0  0  0  0  0  0  0
    0.3401    0.0346    0.5589 N   0  0  0  0  0  0  0  0  0  0  0  0
    1.7912    0.0309    0.4257 C   0  0  0  0  0  0  0  0  0  0  0  0
   -0.5529   -0.3904   -0.3680 C   0  0  0  0  0  0  0  0  0  0  0  0
   -1.7679   -0.3105   -0.2214 O   0  0  0  0  0  0  0  0  0  0  0  0
   -0.1170   -1.0279   -1.6995 C   0  0  0  0  0  0  0  0  0  0  0  0
    0.9828   -1.1262   -2.1770 O   0  0  0  0  0  0  0  0  0  0  0  0
    0.3625    2.6795    1.3992 H   0  0  0  0  0  0  0  0  0  0  0  0
   -1.2940    2.2558    0.9132 H   0  0  0  0  0  0  0  0  0  0  0  0
   -0.8980    2.4826    2.6264 H   0  0  0  0  0  0  0  0  0  0  0  0
    0.5324    0.4311    2.5849 H   0  0  0  0  0  0  0  0  0  0  0  0
   -1.1139    0.0538    2.0422 H   0  0  0  0  0  0  0  0  0  0  0  0
    2.0833   -0.3525   -0.5470 H   0  0  0  0  0  0  0  0  0  0  0  0
    2.1813    1.0495    0.5388 H   0  0  0  0  0  0  0  0  0  0  0  0
    2.2390   -0.5909    1.2106 H   0  0  0  0  0  0  0  0  0  0  0  0
   -1.0287   -1.3888   -2.2171 H   0  0  0  0  0  0  0  0  0  0  0  0
  1  2  1  0  0  0  0
  1 11  1  0  0  0  0
  2 13  1  0  0  0  0
  2 12  1  0  0  0  0
  3  2  1  0  0  0  0
  4 15  1  0  0  0  0
  4  3  1  0  0  0  0
  4 16  1  0  0  0  0
  5  6  2  0  0  0  0
  5  3  1  0  0  0  0
  7  5  1  0  0  0  0
  8  7  2  0  0  0  0
  9  1  1  0  0  0  0
 10  1  1  0  0  0  0
 14  4  1  0  0  0  0
 17  7  1  0  0  0  0
M  END
