17
title
C -0.52423143 2.0985532 1.6721736
C -0.20513299 0.6064935 1.794984
N 0.34009123 0.034617808 0.5588729
C 1.7912192 0.030885305 0.42571968
C -0.552869 -0.39039055 -0.36800987
O -1.7679399 -0.31045577 -0.22135979
C -0.11695098 -1.0278796 -1.6995422
O 0.9828491 -1.1261569 -2.1770165
H 0.3625158 2.6795447 1.3991811
H -1.2940271 2.255757 0.91317976
H -0.8979912 2.4825675 2.626357
H 0.53235865 0.43111634 2.5849016
H -1.1138985 0.05379423 2.0422246
H 2.0832536 -0.35245773 -0.5470117
H 2.1812615 1.0494888 0.53879935
H 2.2390301 -0.59090966 1.2106111
H -1.0287337 -1.3888247 -2.2171414
