title
 OpenBabel02282109583D

 14 13  0  0  1  0  0  0  0  0999 V2000
    1.5463    2.2002   -0.1921 O   0  0  0  0  0  0  0  0  0  0  0  0
    1.2717    0.8270   -0.0863 C   0  0  0  0  0  0  0  0  0  0  0  0
   -0.2634    0.6039   -0.0997 C   0  0  1  0  0  0  0  0  0  0  0  0
   -0.8114    1.2699   -1.2145 O   0  0  0  0  0  0  0  0  0  0  0  0
   -0.6093   -0.8668   -0.1521 C   0  0  0  0  0  0  0  0  0  0  0  0
   -1.0936   -1.3705   -1.1437 O   0  0  0  0  0  0  0  0  0  0  0  0
   -0.3277   -1.7502    1.0638 C   0  0  0  0  0  0  0  0  0  0  0  0
    0.1763   -1.3390    2.0752 O   0  0  0  0  0  0  0  0  0  0  0  0
    1.0199    2.5178   -0.9373 H   0  0  0  0  0  0  0  0  0  0  0  0
    1.7181    0.2554   -0.9174 H   0  0  0  0  0  0  0  0  0  0  0  0
    1.6964    0.4703    0.8550 H   0  0  0  0  0  0  0  0  0  0  0  0
   -0.6723    1.0411    0.8208 H   0  0  0  0  0  0  0  0  0  0  0  0
   -1.0747    0.5798   -1.8426 H   0  0  0  0  0  0  0  0  0  0  0  0
   -0.6398   -2.8041    0.9147 H   0  0  0  0  0  0  0  0  0  0  0  0
  1  2  1  0  0  0  0
  2 11  1  0  0  0  0
  3  2  1  0  0  0  0
  3 12  1  1  0  0  0
  4  3  1  0  0  0  0
  5  3  1  0  0  0  0
  5  7  1  0  0  0  0
  6  5  2  0  0  0  0
  7  8  2  0  0  0  0
  9  1  1  0  0  0  0
 10  2  1  0  0  0  0
 13  4  1  0  0  0  0
 14  7  1  0  0  0  0
M  END
