title
 OpenBabel02282109583D

 20 19  0  0  1  0  0  0  0  0999 V2000
   -1.0700    2.6649    1.5406 C   0  0  0  0  0  0  0  0  0  0  0  0
   -0.7963    1.1644    1.4868 C   0  0  0  0  0  0  0  0  0  0  0  0
   -0.1034    0.7117    0.2092 C   0  0  0  0  0  0  0  0  0  0  0  0
    0.3259    1.5036   -0.6018 O   0  0  0  0  0  0  0  0  0  0  0  0
    0.0161   -0.7954   -0.0083 C   0  0  1  0  0  0  0  0  0  0  0  0
   -1.2454   -1.3158   -0.7279 C   0  0  0  0  0  0  0  0  0  0  0  0
    1.2827   -1.1227   -0.8002 C   0  0  0  0  0  0  0  0  0  0  0  0
    1.3877   -2.5377   -0.8804 O   0  0  0  0  0  0  0  0  0  0  0  0
   -0.1437    3.2317    1.4213 H   0  0  0  0  0  0  0  0  0  0  0  0
   -1.7416    2.9692    0.7331 H   0  0  0  0  0  0  0  0  0  0  0  0
   -1.5293    2.9420    2.4936 H   0  0  0  0  0  0  0  0  0  0  0  0
   -0.1533    0.8507    2.3225 H   0  0  0  0  0  0  0  0  0  0  0  0
   -1.7177    0.5798    1.6093 H   0  0  0  0  0  0  0  0  0  0  0  0
    0.0826   -1.2916    0.9682 H   0  0  0  0  0  0  0  0  0  0  0  0
   -1.3752   -0.8047   -1.6877 H   0  0  0  0  0  0  0  0  0  0  0  0
   -1.1396   -2.3857   -0.9169 H   0  0  0  0  0  0  0  0  0  0  0  0
   -2.1484   -1.1557   -0.1313 H   0  0  0  0  0  0  0  0  0  0  0  0
    1.2170   -0.6597   -1.7937 H   0  0  0  0  0  0  0  0  0  0  0  0
    2.1579   -0.6871   -0.2944 H   0  0  0  0  0  0  0  0  0  0  0  0
    2.1271   -2.7503   -1.4567 H   0  0  0  0  0  0  0  0  0  0  0  0
  1 11  1  0  0  0  0
  2  1  1  0  0  0  0
  2 13  1  0  0  0  0
  2 12  1  0  0  0  0
  3  2  1  0  0  0  0
  4  3  2  0  0  0  0
  5  3  1  0  0  0  0
  5 14  1  1  0  0  0
  6 17  1  0  0  0  0
  6  5  1  0  0  0  0
  7 19  1  0  0  0  0
  7  5  1  0  0  0  0
  8  7  1  0  0  0  0
  9  1  1  0  0  0  0
 10  1  1  0  0  0  0
 15  6  1  0  0  0  0
 16  6  1  0  0  0  0
 18  7  1  0  0  0  0
 20  8  1  0  0  0  0
M  END
