21
title
C -0.15202196 2.8384995 -1.3602171
C -0.20828314 1.3157135 -1.211953
C -0.04617988 0.8062635 0.23778825
C -1.1832542 1.2623185 1.164247
C -0.0143602975 -0.7241166 0.20560925
O -0.99538666 -1.3801497 -0.10419102
N 1.1853354 -1.2917122 0.527932
C 1.3981339 -2.7255626 0.52697164
H 0.7824651 3.2449837 -0.956129
H -0.20773391 3.1246574 -2.4151738
H -0.98023903 3.3327692 -0.84405816
H -1.1548988 0.9276876 -1.6037133
H 0.58289146 0.86835915 -1.8271409
H 0.9079982 1.1844183 0.6313794
H -1.0235512 0.90531474 2.1867363
H -1.2567332 2.3521798 1.1997738
H -2.133617 0.85314745 0.81161624
H 1.9494073 -0.68810874 0.78031236
H 1.684474 -3.0887318 1.5205319
H 0.455154 -3.189845 0.23578529
H 2.1761808 -3.0151916 -0.18850346
