title
 OpenBabel02282109583D

 20 19  0  0  1  0  0  0  0  0999 V2000
   -0.5029    2.9559   -1.1631 C   0  0  0  0  0  0  0  0  0  0  0  0
   -0.5095    1.4247   -1.1785 C   0  0  0  0  0  0  0  0  0  0  0  0
    0.0197    0.7858    0.1152 C   0  0  1  0  0  0  0  0  0  0  0  0
   -0.8605    1.0794    1.3479 C   0  0  0  0  0  0  0  0  0  0  0  0
    0.1450   -0.7210   -0.0520 C   0  0  0  0  0  0  0  0  0  0  0  0
   -0.4095   -1.3894   -0.8885 O   0  0  0  0  0  0  0  0  0  0  0  0
    0.9613   -1.2438    0.8902 O   0  0  0  0  0  0  0  0  0  0  0  0
    1.1133   -2.6673    0.8483 C   0  0  0  0  0  0  0  0  0  0  0  0
    0.5012    3.3490   -0.9661 H   0  0  0  0  0  0  0  0  0  0  0  0
   -0.8282    3.3516   -2.1300 H   0  0  0  0  0  0  0  0  0  0  0  0
   -1.1744    3.3643   -0.4015 H   0  0  0  0  0  0  0  0  0  0  0  0
   -1.5217    1.0511   -1.3683 H   0  0  0  0  0  0  0  0  0  0  0  0
    0.0986    1.0673   -2.0168 H   0  0  0  0  0  0  0  0  0  0  0  0
    1.0276    1.1649    0.3263 H   0  0  0  0  0  0  0  0  0  0  0  0
   -0.9047    2.1531    1.5462 H   0  0  0  0  0  0  0  0  0  0  0  0
   -1.8831    0.7215    1.1865 H   0  0  0  0  0  0  0  0  0  0  0  0
   -0.4599    0.5873    2.2374 H   0  0  0  0  0  0  0  0  0  0  0  0
    0.1497   -3.1642    0.9878 H   0  0  0  0  0  0  0  0  0  0  0  0
    1.5321   -2.9829   -0.1108 H   0  0  0  0  0  0  0  0  0  0  0  0
    1.7933   -2.9185    1.6626 H   0  0  0  0  0  0  0  0  0  0  0  0
  1  9  1  0  0  0  0
  1 11  1  0  0  0  0
  2  1  1  0  0  0  0
  2  3  1  0  0  0  0
  3 14  1  1  0  0  0
  3  4  1  0  0  0  0
  4 15  1  0  0  0  0
  4 17  1  0  0  0  0
  5  3  1  0  0  0  0
  5  7  1  0  0  0  0
  6  5  2  0  0  0  0
  8  7  1  0  0  0  0
  8 18  1  0  0  0  0
  8 20  1  0  0  0  0
 10  1  1  0  0  0  0
 12  2  1  0  0  0  0
 13  2  1  0  0  0  0
 16  4  1  0  0  0  0
 19  8  1  0  0  0  0
M  END
