title
 OpenBabel02282109583D

 20 19  0  0  1  0  0  0  0  0999 V2000
   -0.6561    2.9440    0.7988 C   0  0  0  0  0  0  0  0  0  0  0  0
   -0.7799    1.4200    0.7396 C   0  0  0  0  0  0  0  0  0  0  0  0
    0.3040    0.7889   -0.1567 C   0  0  1  0  0  0  0  0  0  0  0  0
    1.5856    1.1580    0.2786 O   0  0  0  0  0  0  0  0  0  0  0  0
    0.1995   -0.7397   -0.2012 C   0  0  0  0  0  0  0  0  0  0  0  0
    1.1550   -1.3990    0.1562 O   0  0  0  0  0  0  0  0  0  0  0  0
   -1.0848   -1.3763   -0.6945 C   0  0  0  0  0  0  0  0  0  0  0  0
   -0.9487   -2.8693   -0.9913 C   0  0  0  0  0  0  0  0  0  0  0  0
    0.3350    3.2308    1.1571 H   0  0  0  0  0  0  0  0  0  0  0  0
   -0.7992    3.3895   -0.1921 H   0  0  0  0  0  0  0  0  0  0  0  0
   -1.4064    3.3714    1.4707 H   0  0  0  0  0  0  0  0  0  0  0  0
   -0.6814    0.9976    1.7474 H   0  0  0  0  0  0  0  0  0  0  0  0
   -1.7709    1.1387    0.3642 H   0  0  0  0  0  0  0  0  0  0  0  0
    0.1443    1.1484   -1.1901 H   0  0  0  0  0  0  0  0  0  0  0  0
    2.0408    0.3182    0.4565 H   0  0  0  0  0  0  0  0  0  0  0  0
   -1.8483   -1.2048    0.0772 H   0  0  0  0  0  0  0  0  0  0  0  0
   -1.4368   -0.8194   -1.5722 H   0  0  0  0  0  0  0  0  0  0  0  0
   -0.2172   -3.0462   -1.7845 H   0  0  0  0  0  0  0  0  0  0  0  0
   -0.6078   -3.4109   -0.1063 H   0  0  0  0  0  0  0  0  0  0  0  0
   -1.9081   -3.2865   -1.3087 H   0  0  0  0  0  0  0  0  0  0  0  0
  1  9  1  0  0  0  0
  1 11  1  0  0  0  0
  2  1  1  0  0  0  0
  2 12  1  0  0  0  0
  3 14  1  6  0  0  0
  3  4  1  0  0  0  0
  3  2  1  0  0  0  0
  4 15  1  0  0  0  0
  5  3  1  0  0  0  0
  5  6  2  0  0  0  0
  7  5  1  0  0  0  0
  7 16  1  0  0  0  0
  8  7  1  0  0  0  0
  8 19  1  0  0  0  0
 10  1  1  0  0  0  0
 13  2  1  0  0  0  0
 17  7  1  0  0  0  0
 18  8  1  0  0  0  0
 20  8  1  0  0  0  0
M  END
