title
 OpenBabel02282109583D

 18 17  0  0  1  0  0  0  0  0999 V2000
    1.1803    2.9133   -0.1306 C   0  0  0  0  0  0  0  0  0  0  0  0
    1.1301    1.3982    0.0775 C   0  0  0  0  0  0  0  0  0  0  0  0
   -0.2836    0.8328   -0.1673 C   0  0  1  0  0  0  0  0  0  0  0  0
   -0.7405    1.1722   -1.4504 O   0  0  0  0  0  0  0  0  0  0  0  0
   -0.3355   -0.6791    0.0155 C   0  0  0  0  0  0  0  0  0  0  0  0
   -0.7145   -1.3869   -0.8993 O   0  0  0  0  0  0  0  0  0  0  0  0
    0.0628   -1.3201    1.3330 C   0  0  0  0  0  0  0  0  0  0  0  0
   -0.1828   -2.6950    1.3306 O   0  0  0  0  0  0  0  0  0  0  0  0
    2.1968    3.2912    0.0122 H   0  0  0  0  0  0  0  0  0  0  0  0
    0.8529    3.1700   -1.1403 H   0  0  0  0  0  0  0  0  0  0  0  0
    0.5257    3.4305    0.5796 H   0  0  0  0  0  0  0  0  0  0  0  0
    1.8249    0.9014   -0.6107 H   0  0  0  0  0  0  0  0  0  0  0  0
    1.4475    1.1491    1.0971 H   0  0  0  0  0  0  0  0  0  0  0  0
   -0.9594    1.2651    0.5933 H   0  0  0  0  0  0  0  0  0  0  0  0
   -0.9586    0.3327   -1.8841 H   0  0  0  0  0  0  0  0  0  0  0  0
    1.1302   -1.1049    1.5085 H   0  0  0  0  0  0  0  0  0  0  0  0
   -0.4878   -0.8220    2.1467 H   0  0  0  0  0  0  0  0  0  0  0  0
   -0.4786   -2.9050    0.4315 H   0  0  0  0  0  0  0  0  0  0  0  0
  1  9  1  0  0  0  0
  1  2  1  0  0  0  0
  1 11  1  0  0  0  0
  2 13  1  0  0  0  0
  3  5  1  0  0  0  0
  3  2  1  0  0  0  0
  3 14  1  1  0  0  0
  4  3  1  0  0  0  0
  5  7  1  0  0  0  0
  6  5  2  0  0  0  0
  7 16  1  0  0  0  0
  7 17  1  0  0  0  0
  8  7  1  0  0  0  0
 10  1  1  0  0  0  0
 12  2  1  0  0  0  0
 15  4  1  0  0  0  0
 18  8  1  0  0  0  0
M  END
