18
title
C 1.1803285 2.9133291 -0.1305744
C 1.1301457 1.3981905 0.077455714
C -0.28357533 0.8328039 -0.16729476
O -0.7405161 1.1721572 -1.4504364
C -0.3354887 -0.67914295 0.015506151
O -0.714534 -1.3868937 -0.8993144
C 0.06281766 -1.3201468 1.333046
O -0.18281999 -2.6949928 1.3305781
H 2.1967752 3.2912247 0.012246805
H 0.8528547 3.1700368 -1.1403016
H 0.5256834 3.430472 0.579615
H 1.8248622 0.90135145 -0.61072373
H 1.4474854 1.1490836 1.0970634
H -0.95943755 1.265135 0.59327525
H -0.9585511 0.33267137 -1.8840885
H 1.1302363 -1.1049373 1.5084871
H -0.4877607 -0.8219545 2.1466942
H -0.47864202 -2.9049923 0.43153188
