18
title
C -0.5936036 2.8080125 1.0996704
C -0.56766295 1.2817087 1.0069342
C 0.1923964 0.7963498 -0.24312358
O 1.5203315 1.2614237 -0.2534743
C 0.2003125 -0.7250137 -0.31655854
O 1.2121416 -1.3807113 -0.21506433
O -1.0203167 -1.2412486 -0.490099
C -1.0874425 -2.6752563 -0.54442936
H 0.423481 3.2074785 1.1011612
H -1.1272925 3.2458758 0.24862702
H -1.0959576 3.135652 2.014619
H -0.073825896 0.8605694 1.8916149
H -1.5850623 0.8771183 0.97790223
H -0.33007666 1.1711508 -1.1365784
H 2.0748863 0.47375563 -0.14900307
H -0.48540252 -3.054407 -1.3734747
H -0.7209925 -3.1110833 0.38800007
H -2.1396508 -2.9159691 -0.69272953
