title
 OpenBabel02282109583D

 18 17  0  0  1  0  0  0  0  0999 V2000
   -0.5936    2.8080    1.0997 C   0  0  0  0  0  0  0  0  0  0  0  0
   -0.5677    1.2817    1.0069 C   0  0  0  0  0  0  0  0  0  0  0  0
    0.1924    0.7963   -0.2431 C   0  0  1  0  0  0  0  0  0  0  0  0
    1.5203    1.2614   -0.2535 O   0  0  0  0  0  0  0  0  0  0  0  0
    0.2003   -0.7250   -0.3166 C   0  0  0  0  0  0  0  0  0  0  0  0
    1.2121   -1.3807   -0.2151 O   0  0  0  0  0  0  0  0  0  0  0  0
   -1.0203   -1.2412   -0.4901 O   0  0  0  0  0  0  0  0  0  0  0  0
   -1.0874   -2.6753   -0.5444 C   0  0  0  0  0  0  0  0  0  0  0  0
    0.4235    3.2075    1.1012 H   0  0  0  0  0  0  0  0  0  0  0  0
   -1.1273    3.2459    0.2486 H   0  0  0  0  0  0  0  0  0  0  0  0
   -1.0960    3.1357    2.0146 H   0  0  0  0  0  0  0  0  0  0  0  0
   -0.0738    0.8606    1.8916 H   0  0  0  0  0  0  0  0  0  0  0  0
   -1.5851    0.8771    0.9779 H   0  0  0  0  0  0  0  0  0  0  0  0
   -0.3301    1.1712   -1.1366 H   0  0  0  0  0  0  0  0  0  0  0  0
    2.0749    0.4738   -0.1490 H   0  0  0  0  0  0  0  0  0  0  0  0
   -0.4854   -3.0544   -1.3735 H   0  0  0  0  0  0  0  0  0  0  0  0
   -0.7210   -3.1111    0.3880 H   0  0  0  0  0  0  0  0  0  0  0  0
   -2.1397   -2.9160   -0.6927 H   0  0  0  0  0  0  0  0  0  0  0  0
  1  9  1  0  0  0  0
  1 11  1  0  0  0  0
  2  1  1  0  0  0  0
  2 12  1  0  0  0  0
  3 14  1  6  0  0  0
  3  2  1  0  0  0  0
  4  3  1  0  0  0  0
  4 15  1  0  0  0  0
  5  3  1  0  0  0  0
  5  6  2  0  0  0  0
  7  5  1  0  0  0  0
  8  7  1  0  0  0  0
  8 17  1  0  0  0  0
 10  1  1  0  0  0  0
 13  2  1  0  0  0  0
 16  8  1  0  0  0  0
 18  8  1  0  0  0  0
M  END
