title
 OpenBabel02282109583D

 21 20  0  0  0  0  0  0  0  0999 V2000
    1.7135    2.0610   -0.7614 C   0  0  0  0  0  0  0  0  0  0  0  0
    1.7175    0.5298   -0.7735 C   0  0  0  0  0  0  0  0  0  0  0  0
    0.3744   -0.0506   -0.7595 N   0  0  0  0  0  0  0  0  0  0  0  0
   -0.2471   -0.2720   -2.0504 C   0  0  0  0  0  0  0  0  0  0  0  0
   -0.2129   -0.2798    0.4590 C   0  0  0  0  0  0  0  0  0  0  0  0
    0.3667   -0.0057    1.4999 O   0  0  0  0  0  0  0  0  0  0  0  0
   -1.6132   -0.8995    0.4774 C   0  0  0  0  0  0  0  0  0  0  0  0
   -2.0998   -1.1526    1.9038 C   0  0  0  0  0  0  0  0  0  0  0  0
    2.7381    2.4444   -0.8013 H   0  0  0  0  0  0  0  0  0  0  0  0
    1.1688    2.4722   -1.6179 H   0  0  0  0  0  0  0  0  0  0  0  0
    1.2459    2.4253    0.1566 H   0  0  0  0  0  0  0  0  0  0  0  0
    2.2317    0.1538   -1.6656 H   0  0  0  0  0  0  0  0  0  0  0  0
    2.2439    0.1580    0.1071 H   0  0  0  0  0  0  0  0  0  0  0  0
   -1.2605   -0.6514   -1.9396 H   0  0  0  0  0  0  0  0  0  0  0  0
   -0.3003    0.6604   -2.6276 H   0  0  0  0  0  0  0  0  0  0  0  0
    0.3262   -0.9983   -2.6420 H   0  0  0  0  0  0  0  0  0  0  0  0
   -2.3102   -0.2328   -0.0462 H   0  0  0  0  0  0  0  0  0  0  0  0
   -1.6059   -1.8357   -0.0945 H   0  0  0  0  0  0  0  0  0  0  0  0
   -3.1030   -1.5889    1.8920 H   0  0  0  0  0  0  0  0  0  0  0  0
   -1.4278   -1.8346    2.4296 H   0  0  0  0  0  0  0  0  0  0  0  0
   -2.1276   -0.2227    2.4757 H   0  0  0  0  0  0  0  0  0  0  0  0
  1 11  1  0  0  0  0
  2  1  1  0  0  0  0
  2  3  1  0  0  0  0
  2 13  1  0  0  0  0
  3  5  1  0  0  0  0
  4 14  1  0  0  0  0
  4  3  1  0  0  0  0
  5  7  1  0  0  0  0
  5  6  2  0  0  0  0
  7  8  1  0  0  0  0
  8 20  1  0  0  0  0
  8 21  1  0  0  0  0
  9  1  1  0  0  0  0
 10  1  1  0  0  0  0
 12  2  1  0  0  0  0
 15  4  1  0  0  0  0
 16  4  1  0  0  0  0
 17  7  1  0  0  0  0
 18  7  1  0  0  0  0
 19  8  1  0  0  0  0
M  END
