title
 OpenBabel02282109583D

 19 18  0  0  0  0  0  0  0  0999 V2000
   -0.3044    2.0758    1.8932 C   0  0  0  0  0  0  0  0  0  0  0  0
   -0.2624    0.5458    1.8872 C   0  0  0  0  0  0  0  0  0  0  0  0
    0.4524   -0.0052    0.7334 N   0  0  0  0  0  0  0  0  0  0  0  0
    1.8865   -0.1833    0.8705 C   0  0  0  0  0  0  0  0  0  0  0  0
   -0.2508   -0.2870   -0.3920 C   0  0  0  0  0  0  0  0  0  0  0  0
   -1.4598   -0.0924   -0.4806 O   0  0  0  0  0  0  0  0  0  0  0  0
    0.4730   -0.8828   -1.6116 C   0  0  0  0  0  0  0  0  0  0  0  0
   -0.4557   -1.1204   -2.6254 O   0  0  0  0  0  0  0  0  0  0  0  0
    0.7008    2.5099    1.8933 H   0  0  0  0  0  0  0  0  0  0  0  0
   -0.8408    2.4414    1.0139 H   0  0  0  0  0  0  0  0  0  0  0  0
   -0.8241    2.4355    2.7867 H   0  0  0  0  0  0  0  0  0  0  0  0
    0.2303    0.1693    2.7907 H   0  0  0  0  0  0  0  0  0  0  0  0
   -1.2778    0.1469    1.8616 H   0  0  0  0  0  0  0  0  0  0  0  0
    2.3333   -0.5144   -0.0652 H   0  0  0  0  0  0  0  0  0  0  0  0
    2.3684    0.7595    1.1557 H   0  0  0  0  0  0  0  0  0  0  0  0
    2.1157   -0.9282    1.6430 H   0  0  0  0  0  0  0  0  0  0  0  0
    1.2547   -0.1837   -1.9507 H   0  0  0  0  0  0  0  0  0  0  0  0
    0.9821   -1.8144   -1.3179 H   0  0  0  0  0  0  0  0  0  0  0  0
   -1.2999   -0.8156   -2.2467 H   0  0  0  0  0  0  0  0  0  0  0  0
  1  9  1  0  0  0  0
  1 11  1  0  0  0  0
  2  1  1  0  0  0  0
  2 12  1  0  0  0  0
  3  4  1  0  0  0  0
  3  2  1  0  0  0  0
  4 15  1  0  0  0  0
  4 16  1  0  0  0  0
  5  3  1  0  0  0  0
  6  5  2  0  0  0  0
  7 18  1  0  0  0  0
  7  5  1  0  0  0  0
  8 19  1  0  0  0  0
  8  7  1  0  0  0  0
 10  1  1  0  0  0  0
 13  2  1  0  0  0  0
 14  4  1  0  0  0  0
 17  7  1  0  0  0  0
M  END
