20
title
C -1.6872205 1.9239444 -1.1865232
C -1.5171492 0.40252057 -1.1544071
N -0.8121753 -0.07855566 0.030238708
C -1.5583751 -0.27100062 1.2584385
C 0.55584675 -0.23135872 -0.052679457
O 1.1950415 0.092362 -1.0445889
N 1.1659001 -0.74857485 1.0782486
C 2.5785112 -1.0824105 1.0130712
H -0.7069905 2.4070642 -1.2049993
H -2.2402346 2.227998 -2.0814438
H -2.237995 2.288993 -0.31258264
H -2.4938116 -0.09477882 -1.1935452
H -0.94156206 0.08097072 -2.023636
H -1.8020722 -1.3275249 1.4525923
H -1.0100904 0.122693196 2.1203423
H -2.5026624 0.27491087 1.1955408
H 0.6059907 -1.3206217 1.688963
H 2.7736936 -2.0246317 0.48307166
H 3.097969 -0.28679347 0.4790053
H 2.978065 -1.1583806 2.0279822
