title
 OpenBabel02282109583D

 19 18  0  0  0  0  0  0  0  0999 V2000
   -1.5671    2.0283   -1.0680 C   0  0  0  0  0  0  0  0  0  0  0  0
   -1.5227    0.4977   -1.1085 C   0  0  0  0  0  0  0  0  0  0  0  0
   -0.8183   -0.0973    0.0240 N   0  0  0  0  0  0  0  0  0  0  0  0
   -1.5488   -0.2747    1.2670 C   0  0  0  0  0  0  0  0  0  0  0  0
    0.5276   -0.2861   -0.0995 C   0  0  0  0  0  0  0  0  0  0  0  0
    1.1690   -0.0606   -1.1064 O   0  0  0  0  0  0  0  0  0  0  0  0
    1.0823   -0.7724    1.0425 O   0  0  0  0  0  0  0  0  0  0  0  0
    2.4870   -1.0167    0.9576 C   0  0  0  0  0  0  0  0  0  0  0  0
   -0.5531    2.4356   -1.1050 H   0  0  0  0  0  0  0  0  0  0  0  0
   -2.1224    2.4139   -1.9290 H   0  0  0  0  0  0  0  0  0  0  0  0
   -2.0576    2.3968   -0.1613 H   0  0  0  0  0  0  0  0  0  0  0  0
   -2.5389    0.0865   -1.1168 H   0  0  0  0  0  0  0  0  0  0  0  0
   -1.0172    0.1678   -2.0174 H   0  0  0  0  0  0  0  0  0  0  0  0
   -0.9635   -0.8770    1.9575 H   0  0  0  0  0  0  0  0  0  0  0  0
   -1.7788    0.6843    1.7510 H   0  0  0  0  0  0  0  0  0  0  0  0
   -2.4962   -0.7877    1.0658 H   0  0  0  0  0  0  0  0  0  0  0  0
    2.7815   -1.3836    1.9417 H   0  0  0  0  0  0  0  0  0  0  0  0
    2.7087   -1.7646    0.1918 H   0  0  0  0  0  0  0  0  0  0  0  0
    3.0288   -0.0990    0.7153 H   0  0  0  0  0  0  0  0  0  0  0  0
  1 11  1  0  0  0  0
  2  1  1  0  0  0  0
  2  3  1  0  0  0  0
  3  4  1  0  0  0  0
  4 15  1  0  0  0  0
  4 14  1  0  0  0  0
  5  3  1  0  0  0  0
  5  7  1  0  0  0  0
  6  5  2  0  0  0  0
  8  7  1  0  0  0  0
  8 17  1  0  0  0  0
  9  1  1  0  0  0  0
 10  1  1  0  0  0  0
 12  2  1  0  0  0  0
 13  2  1  0  0  0  0
 16  4  1  0  0  0  0
 18  8  1  0  0  0  0
 19  8  1  0  0  0  0
M  END
