title
 OpenBabel02282109583D

 17 16  0  0  1  0  0  0  0  0999 V2000
   -0.3379    2.4119   -1.3490 C   0  0  0  0  0  0  0  0  0  0  0  0
   -0.2084    1.0137   -0.9834 N   0  0  0  0  0  0  0  0  0  0  0  0
    0.4512    0.6069    0.1207 C   0  0  0  0  0  0  0  0  0  0  0  0
    1.0382    1.3484    0.9007 O   0  0  0  0  0  0  0  0  0  0  0  0
    0.4708   -0.9134    0.3841 C   0  0  1  0  0  0  0  0  0  0  0  0
    1.0157   -1.1384    1.6524 O   0  0  0  0  0  0  0  0  0  0  0  0
   -0.9220   -1.5610    0.3052 C   0  0  0  0  0  0  0  0  0  0  0  0
   -1.4378   -1.5812   -1.0270 O   0  0  0  0  0  0  0  0  0  0  0  0
   -0.0461    2.5683   -2.3924 H   0  0  0  0  0  0  0  0  0  0  0  0
   -1.3659    2.7684   -1.2166 H   0  0  0  0  0  0  0  0  0  0  0  0
    0.3208    2.9903   -0.7007 H   0  0  0  0  0  0  0  0  0  0  0  0
   -0.7514    0.3095   -1.4678 H   0  0  0  0  0  0  0  0  0  0  0  0
    1.0996   -1.3751   -0.4010 H   0  0  0  0  0  0  0  0  0  0  0  0
    1.3331   -0.2603    1.9326 H   0  0  0  0  0  0  0  0  0  0  0  0
   -0.8581   -2.5712    0.7267 H   0  0  0  0  0  0  0  0  0  0  0  0
   -1.6382   -0.9925    0.9053 H   0  0  0  0  0  0  0  0  0  0  0  0
   -0.9504   -2.2479   -1.5224 H   0  0  0  0  0  0  0  0  0  0  0  0
  1 10  1  0  0  0  0
  1  2  1  0  0  0  0
  1 11  1  0  0  0  0
  2  3  1  0  0  0  0
  3  5  1  0  0  0  0
  3  4  2  0  0  0  0
  5 13  1  6  0  0  0
  5  6  1  0  0  0  0
  6 14  1  0  0  0  0
  7  5  1  0  0  0  0
  7 15  1  0  0  0  0
  7 16  1  0  0  0  0
  8  7  1  0  0  0  0
  9  1  1  0  0  0  0
 12  2  1  0  0  0  0
 17  8  1  0  0  0  0
M  END
