19
title
C -1.0048093 2.8071275 -0.8058763
N -0.47636506 1.462419 -0.9540373
C -0.13201137 0.7663909 0.27486256
C -1.2448192 0.66273504 1.3474287
C 0.28019673 -0.64875096 -0.1058872
O -0.18438406 -1.2727336 -1.0277622
O 1.1926783 -1.1433471 0.7499469
C 1.5849847 -2.5020437 0.51139504
H -0.27022815 3.4344902 -0.28648677
H -1.1589743 3.2391768 -1.7992071
H -1.9568715 2.8866146 -0.2542189
H -1.085737 0.8719067 -1.509131
H 0.7341904 1.2625623 0.7290248
H -1.5520277 1.6566342 1.6818603
H -2.1216772 0.14705853 0.941901
H -0.88728064 0.10829978 2.220164
H 0.7223049 -3.1698966 0.57715994
H 2.0323007 -2.6035347 -0.4803591
H 2.313768 -2.740727 1.2858921
