title
 OpenBabel02282109583D

 19 18  0  0  1  0  0  0  0  0999 V2000
   -1.0048    2.8071   -0.8059 C   0  0  0  0  0  0  0  0  0  0  0  0
   -0.4764    1.4624   -0.9540 N   0  0  0  0  0  0  0  0  0  0  0  0
   -0.1320    0.7664    0.2749 C   0  0  1  0  0  0  0  0  0  0  0  0
   -1.2448    0.6627    1.3474 C   0  0  0  0  0  0  0  0  0  0  0  0
    0.2802   -0.6488   -0.1059 C   0  0  0  0  0  0  0  0  0  0  0  0
   -0.1844   -1.2727   -1.0278 O   0  0  0  0  0  0  0  0  0  0  0  0
    1.1927   -1.1433    0.7499 O   0  0  0  0  0  0  0  0  0  0  0  0
    1.5850   -2.5020    0.5114 C   0  0  0  0  0  0  0  0  0  0  0  0
   -0.2702    3.4345   -0.2865 H   0  0  0  0  0  0  0  0  0  0  0  0
   -1.1590    3.2392   -1.7992 H   0  0  0  0  0  0  0  0  0  0  0  0
   -1.9569    2.8866   -0.2542 H   0  0  0  0  0  0  0  0  0  0  0  0
   -1.0857    0.8719   -1.5091 H   0  0  0  0  0  0  0  0  0  0  0  0
    0.7342    1.2626    0.7290 H   0  0  0  0  0  0  0  0  0  0  0  0
   -1.5520    1.6566    1.6819 H   0  0  0  0  0  0  0  0  0  0  0  0
   -2.1217    0.1471    0.9419 H   0  0  0  0  0  0  0  0  0  0  0  0
   -0.8873    0.1083    2.2202 H   0  0  0  0  0  0  0  0  0  0  0  0
    0.7223   -3.1699    0.5772 H   0  0  0  0  0  0  0  0  0  0  0  0
    2.0323   -2.6035   -0.4804 H   0  0  0  0  0  0  0  0  0  0  0  0
    2.3138   -2.7407    1.2859 H   0  0  0  0  0  0  0  0  0  0  0  0
  1  9  1  0  0  0  0
  1 11  1  0  0  0  0
  2  1  1  0  0  0  0
  2  3  1  0  0  0  0
  3 13  1  1  0  0  0
  3  4  1  0  0  0  0
  4 14  1  0  0  0  0
  4 16  1  0  0  0  0
  5  3  1  0  0  0  0
  5  7  1  0  0  0  0
  6  5  2  0  0  0  0
  8 17  1  0  0  0  0
  8  7  1  0  0  0  0
  8 19  1  0  0  0  0
 10  1  1  0  0  0  0
 12  2  1  0  0  0  0
 15  4  1  0  0  0  0
 18  8  1  0  0  0  0
M  END
