18
title
C 1.4035494 2.6828468 -0.25882456
O 1.306787 1.2535007 -0.26470843
C 0.064091116 0.75744146 -0.092567906
O -0.9137869 1.4520364 0.043901008
C 0.078826934 -0.7592645 -0.08119525
C 0.7957318 -1.2885418 1.1754453
C -1.348366 -1.2940474 -0.19724403
O -1.2613616 -2.7070737 -0.3155723
H 2.4606714 2.9096837 -0.39771298
H 0.8103843 3.1131742 -1.0698111
H 1.0456032 3.0907488 0.68991846
H 0.64406276 -1.0912232 -0.9602519
H 1.8344878 -0.95265347 1.2029504
H 0.29484 -0.9369219 2.0842497
H 0.7711091 -2.3796375 1.1724647
H -1.9246697 -0.9940706 0.68972194
H -1.8412373 -0.8464876 -1.0718371
H -2.1547918 -3.0611296 -0.32761407
