title
 OpenBabel02282109583D

 17 16  0  0  1  0  0  0  0  0999 V2000
   -0.8565    2.6871    0.9025 C   0  0  0  0  0  0  0  0  0  0  0  0
   -0.8407    1.2551    0.8229 O   0  0  0  0  0  0  0  0  0  0  0  0
   -0.2393    0.7450   -0.2667 C   0  0  0  0  0  0  0  0  0  0  0  0
    0.2584    1.4149   -1.1371 O   0  0  0  0  0  0  0  0  0  0  0  0
   -0.2244   -0.7743   -0.2295 C   0  0  1  0  0  0  0  0  0  0  0  0
   -0.1087   -1.2861   -1.5863 N   0  0  0  0  0  0  0  0  0  0  0  0
    0.9093   -1.2271    0.7139 C   0  0  0  0  0  0  0  0  0  0  0  0
    0.9015   -2.6465    0.6987 O   0  0  0  0  0  0  0  0  0  0  0  0
    0.1615    3.0848    0.9090 H   0  0  0  0  0  0  0  0  0  0  0  0
   -1.3938    3.1117    0.0511 H   0  0  0  0  0  0  0  0  0  0  0  0
   -1.3674    2.9265    1.8350 H   0  0  0  0  0  0  0  0  0  0  0  0
   -1.1660   -1.1174    0.2154 H   0  0  0  0  0  0  0  0  0  0  0  0
    0.5489   -0.7045   -2.0984 H   0  0  0  0  0  0  0  0  0  0  0  0
    0.2656   -2.2288   -1.5421 H   0  0  0  0  0  0  0  0  0  0  0  0
    1.8662   -0.8271    0.3436 H   0  0  0  0  0  0  0  0  0  0  0  0
    0.7354   -0.8336    1.7262 H   0  0  0  0  0  0  0  0  0  0  0  0
    1.6891   -2.9608    1.1514 H   0  0  0  0  0  0  0  0  0  0  0  0
  1  9  1  0  0  0  0
  1 11  1  0  0  0  0
  2  1  1  0  0  0  0
  3  5  1  0  0  0  0
  3  2  1  0  0  0  0
  4  3  2  0  0  0  0
  5 12  1  1  0  0  0
  5  7  1  0  0  0  0
  6 14  1  0  0  0  0
  6  5  1  0  0  0  0
  7 16  1  0  0  0  0
  8  7  1  0  0  0  0
  8 17  1  0  0  0  0
 10  1  1  0  0  0  0
 13  6  1  0  0  0  0
 15  7  1  0  0  0  0
M  END
