title
 OpenBabel02282109583D

 16 15  0  0  1  0  0  0  0  0999 V2000
   -0.2248    2.7655   -1.0733 C   0  0  0  0  0  0  0  0  0  0  0  0
   -0.2134    1.3276   -1.0768 O   0  0  0  0  0  0  0  0  0  0  0  0
    0.3821    0.7502   -0.0309 C   0  0  0  0  0  0  0  0  0  0  0  0
    0.8970    1.3462    0.8873 O   0  0  0  0  0  0  0  0  0  0  0  0
    0.3141   -0.7653   -0.0883 C   0  0  1  0  0  0  0  0  0  0  0  0
    1.1169   -1.3115    0.9360 O   0  0  0  0  0  0  0  0  0  0  0  0
   -1.1349   -1.2649    0.0855 C   0  0  0  0  0  0  0  0  0  0  0  0
   -1.1474   -2.6674    0.1940 O   0  0  0  0  0  0  0  0  0  0  0  0
    0.7963    3.1536   -1.0732 H   0  0  0  0  0  0  0  0  0  0  0  0
   -0.7467    3.0578   -1.9837 H   0  0  0  0  0  0  0  0  0  0  0  0
   -0.7485    3.1410   -0.1912 H   0  0  0  0  0  0  0  0  0  0  0  0
    0.6889   -1.1120   -1.0595 H   0  0  0  0  0  0  0  0  0  0  0  0
    1.3309   -0.5726    1.5264 H   0  0  0  0  0  0  0  0  0  0  0  0
   -1.5707   -0.7829    0.9773 H   0  0  0  0  0  0  0  0  0  0  0  0
   -1.7390   -0.9893   -0.7834 H   0  0  0  0  0  0  0  0  0  0  0  0
   -0.4702   -2.8815    0.8491 H   0  0  0  0  0  0  0  0  0  0  0  0
  1  9  1  0  0  0  0
  1 11  1  0  0  0  0
  2  1  1  0  0  0  0
  2  3  1  0  0  0  0
  3  4  2  0  0  0  0
  5 12  1  6  0  0  0
  5  3  1  0  0  0  0
  5  7  1  0  0  0  0
  5  6  1  0  0  0  0
  6 13  1  0  0  0  0
  7  8  1  0  0  0  0
  7 14  1  0  0  0  0
  8 16  1  0  0  0  0
 10  1  1  0  0  0  0
 15  7  1  0  0  0  0
M  END
