18
title
C -0.3948124 2.8327096 -0.4099888
O -0.111634426 1.4624953 -0.59612393
C -0.6729727 0.6019984 0.3755788
C -2.1736493 0.35868603 0.19012907
C 0.106788345 -0.71169406 0.33719292
O -0.27888113 -1.6906424 0.9412859
C 1.4023103 -0.77684265 -0.45171225
O 1.9971322 -2.0353549 -0.33459774
H -0.083389275 3.175759 0.58863574
H 0.1727937 3.3809884 -1.1651069
H -1.461552 3.0608342 -0.5391823
H -0.49838334 1.0183619 1.3848124
H -2.7483566 1.2702274 0.3709649
H -2.3749714 0.014548958 -0.8285477
H -2.5040884 -0.4092825 0.89241046
H 1.1760284 -0.5242732 -1.4990834
H 2.0667715 0.024557054 -0.09224424
H 1.3968407 -2.5492911 0.22874263
