title
 OpenBabel02282109583D

 18 17  0  0  1  0  0  0  0  0999 V2000
   -0.3948    2.8327   -0.4100 C   0  0  0  0  0  0  0  0  0  0  0  0
   -0.1116    1.4625   -0.5961 O   0  0  0  0  0  0  0  0  0  0  0  0
   -0.6730    0.6020    0.3756 C   0  0  1  0  0  0  0  0  0  0  0  0
   -2.1736    0.3587    0.1901 C   0  0  0  0  0  0  0  0  0  0  0  0
    0.1068   -0.7117    0.3372 C   0  0  0  0  0  0  0  0  0  0  0  0
   -0.2789   -1.6906    0.9413 O   0  0  0  0  0  0  0  0  0  0  0  0
    1.4023   -0.7768   -0.4517 C   0  0  0  0  0  0  0  0  0  0  0  0
    1.9971   -2.0354   -0.3346 O   0  0  0  0  0  0  0  0  0  0  0  0
   -0.0834    3.1758    0.5886 H   0  0  0  0  0  0  0  0  0  0  0  0
    0.1728    3.3810   -1.1651 H   0  0  0  0  0  0  0  0  0  0  0  0
   -1.4616    3.0608   -0.5392 H   0  0  0  0  0  0  0  0  0  0  0  0
   -0.4984    1.0184    1.3848 H   0  0  0  0  0  0  0  0  0  0  0  0
   -2.7484    1.2702    0.3710 H   0  0  0  0  0  0  0  0  0  0  0  0
   -2.3750    0.0145   -0.8285 H   0  0  0  0  0  0  0  0  0  0  0  0
   -2.5041   -0.4093    0.8924 H   0  0  0  0  0  0  0  0  0  0  0  0
    1.1760   -0.5243   -1.4991 H   0  0  0  0  0  0  0  0  0  0  0  0
    2.0668    0.0246   -0.0922 H   0  0  0  0  0  0  0  0  0  0  0  0
    1.3968   -2.5493    0.2287 H   0  0  0  0  0  0  0  0  0  0  0  0
  1  9  1  0  0  0  0
  2  1  1  0  0  0  0
  2  3  1  0  0  0  0
  3 12  1  1  0  0  0
  4 13  1  0  0  0  0
  4  3  1  0  0  0  0
  4 15  1  0  0  0  0
  5  3  1  0  0  0  0
  5  6  2  0  0  0  0
  7  8  1  0  0  0  0
  7 17  1  0  0  0  0
  7  5  1  0  0  0  0
  8 18  1  0  0  0  0
 10  1  1  0  0  0  0
 11  1  1  0  0  0  0
 14  4  1  0  0  0  0
 16  7  1  0  0  0  0
M  END
