title
 OpenBabel02282109583D

 18 17  0  0  1  0  0  0  0  0999 V2000
   -0.9158    2.2553    0.0544 C   0  0  0  0  0  0  0  0  0  0  0  0
   -0.1731    1.4381    0.9381 O   0  0  0  0  0  0  0  0  0  0  0  0
    0.8097    0.6126    0.3257 C   0  0  1  0  0  0  0  0  0  0  0  0
    1.9117    0.3620    1.3411 C   0  0  0  0  0  0  0  0  0  0  0  0
    0.1513   -0.7055   -0.1094 C   0  0  0  0  0  0  0  0  0  0  0  0
    0.2143   -1.7500    0.4857 O   0  0  0  0  0  0  0  0  0  0  0  0
   -0.5549   -0.5362   -1.2480 O   0  0  0  0  0  0  0  0  0  0  0  0
   -1.2754   -1.6923   -1.6992 C   0  0  0  0  0  0  0  0  0  0  0  0
   -0.2548    2.9039   -0.5409 H   0  0  0  0  0  0  0  0  0  0  0  0
   -1.5375    1.6701   -0.6334 H   0  0  0  0  0  0  0  0  0  0  0  0
   -1.5594    2.8823    0.6764 H   0  0  0  0  0  0  0  0  0  0  0  0
    1.2074    1.1107   -0.5710 H   0  0  0  0  0  0  0  0  0  0  0  0
    2.6979   -0.2644    0.9111 H   0  0  0  0  0  0  0  0  0  0  0  0
    2.3443    1.3150    1.6541 H   0  0  0  0  0  0  0  0  0  0  0  0
    1.5047   -0.1531    2.2135 H   0  0  0  0  0  0  0  0  0  0  0  0
   -1.7782   -1.3898   -2.6177 H   0  0  0  0  0  0  0  0  0  0  0  0
   -0.5885   -2.5200   -1.8920 H   0  0  0  0  0  0  0  0  0  0  0  0
   -2.0037   -2.0086   -0.9485 H   0  0  0  0  0  0  0  0  0  0  0  0
  1 11  1  0  0  0  0
  1  2  1  0  0  0  0
  3 12  1  6  0  0  0
  3  2  1  0  0  0  0
  3  4  1  0  0  0  0
  4 14  1  0  0  0  0
  4 15  1  0  0  0  0
  5  3  1  0  0  0  0
  5  6  2  0  0  0  0
  7  5  1  0  0  0  0
  8  7  1  0  0  0  0
  8 18  1  0  0  0  0
  9  1  1  0  0  0  0
 10  1  1  0  0  0  0
 13  4  1  0  0  0  0
 16  8  1  0  0  0  0
 17  8  1  0  0  0  0
M  END
