title
 OpenBabel02282109583D

 16 15  0  0  1  0  0  0  0  0999 V2000
    1.4498    1.7706    0.8100 O   0  0  0  0  0  0  0  0  0  0  0  0
    0.9502    1.5646   -0.4976 C   0  0  0  0  0  0  0  0  0  0  0  0
   -0.4470    0.8936   -0.5323 C   0  0  1  0  0  0  0  0  0  0  0  0
   -0.9495    0.9550   -1.8388 O   0  0  0  0  0  0  0  0  0  0  0  0
   -0.3873   -0.5568   -0.0627 C   0  0  0  0  0  0  0  0  0  0  0  0
   -0.6224   -1.4476   -0.8594 O   0  0  0  0  0  0  0  0  0  0  0  0
   -0.0476   -0.8966    1.3713 C   0  0  0  0  0  0  0  0  0  0  0  0
   -0.0038   -2.2778    1.5820 O   0  0  0  0  0  0  0  0  0  0  0  0
    0.9587    2.4939    1.2130 H   0  0  0  0  0  0  0  0  0  0  0  0
    0.8653    2.4998   -1.0650 H   0  0  0  0  0  0  0  0  0  0  0  0
    1.6743    0.9285   -1.0162 H   0  0  0  0  0  0  0  0  0  0  0  0
   -1.1055    1.4513    0.1552 H   0  0  0  0  0  0  0  0  0  0  0  0
   -1.0358    0.0325   -2.1285 H   0  0  0  0  0  0  0  0  0  0  0  0
    0.9067   -0.4132    1.6245 H   0  0  0  0  0  0  0  0  0  0  0  0
   -0.8076   -0.4147    2.0116 H   0  0  0  0  0  0  0  0  0  0  0  0
   -0.2714   -2.6811    0.7428 H   0  0  0  0  0  0  0  0  0  0  0  0
  1  9  1  0  0  0  0
  2  1  1  0  0  0  0
  3  2  1  0  0  0  0
  3  5  1  0  0  0  0
  3 12  1  1  0  0  0
  4  3  1  0  0  0  0
  5  7  1  0  0  0  0
  6  5  2  0  0  0  0
  7  8  1  0  0  0  0
  7 14  1  0  0  0  0
  7 15  1  0  0  0  0
 10  2  1  0  0  0  0
 11  2  1  0  0  0  0
 13  4  1  0  0  0  0
 16  8  1  0  0  0  0
M  END
