title
 OpenBabel02282109583D

 18 17  0  0  1  0  0  0  0  0999 V2000
    0.6876    1.5084   -0.1520 C   0  0  0  0  0  0  0  0  0  0  0  0
    0.6205   -0.0207   -0.0867 C   0  0  1  0  0  0  0  0  0  0  0  0
    1.3577   -0.5655    1.1386 C   0  0  0  0  0  0  0  0  0  0  0  0
    2.7219   -0.1817    1.0384 O   0  0  0  0  0  0  0  0  0  0  0  0
   -0.8329   -0.5558   -0.0923 C   0  0  1  0  0  0  0  0  0  0  0  0
   -1.5752   -0.1225    1.0485 O   0  0  0  0  0  0  0  0  0  0  0  0
   -1.5296   -0.2322   -1.3405 C   0  0  0  0  0  0  0  0  0  0  0  0
   -2.1062    0.0657   -2.3527 C   0  0  0  0  0  0  0  0  0  0  0  0
    1.7288    1.8349   -0.1402 H   0  0  0  0  0  0  0  0  0  0  0  0
    0.2097    1.8872   -1.0597 H   0  0  0  0  0  0  0  0  0  0  0  0
    0.1910    1.9597    0.7151 H   0  0  0  0  0  0  0  0  0  0  0  0
    1.1134   -0.4338   -0.9762 H   0  0  0  0  0  0  0  0  0  0  0  0
    0.8907   -0.1679    2.0509 H   0  0  0  0  0  0  0  0  0  0  0  0
    1.2597   -1.6634    1.1692 H   0  0  0  0  0  0  0  0  0  0  0  0
    3.1607   -0.4171    1.8606 H   0  0  0  0  0  0  0  0  0  0  0  0
   -0.7923   -1.6482    0.0072 H   0  0  0  0  0  0  0  0  0  0  0  0
   -1.8611    0.7821    0.8827 H   0  0  0  0  0  0  0  0  0  0  0  0
   -2.6204    0.3121   -3.2489 H   0  0  0  0  0  0  0  0  0  0  0  0
  1  9  1  0  0  0  0
  1  2  1  0  0  0  0
  1 11  1  0  0  0  0
  2 12  1  6  0  0  0
  2  3  1  0  0  0  0
  3 14  1  0  0  0  0
  3 13  1  0  0  0  0
  4  3  1  0  0  0  0
  4 15  1  0  0  0  0
  5  2  1  0  0  0  0
  5 16  1  1  0  0  0
  5  6  1  0  0  0  0
  7  5  1  0  0  0  0
  8  7  3  0  0  0  0
 10  1  1  0  0  0  0
 17  6  1  0  0  0  0
 18  8  1  0  0  0  0
M  END
