17
title
C 0.6854214 1.5125929 -0.15550365
C 0.6275993 -0.016663611 -0.072159655
C 1.3711084 -0.5488914 1.1564982
O 2.7279174 -0.15241471 1.0432395
C -0.81974924 -0.56016517 -0.0659431
O -1.5850958 -0.13161695 1.0478479
C -1.5084413 -0.2407066 -1.3343819
N -2.0484009 0.037452962 -2.3175316
H 1.726233 1.8396292 -0.15957448
H 0.19931038 1.8830727 -1.0627302
H 0.20308132 1.9776912 0.71274775
H 1.1197066 -0.4356435 -0.9591852
H 0.90455794 -0.14859124 2.068062
H 1.2807277 -1.6470091 1.1944277
H 3.1803813 -0.38546965 1.858781
H -0.7856051 -1.6526005 0.019287912
H -1.7442969 0.81497204 0.96055126
