22
title
C -0.71360105 2.638143 1.4608524
C -0.7328778 1.1115553 1.3194433
C 0.031939205 0.5727136 0.09471358
C 1.5045266 1.0067868 0.108591214
C -0.0783577 -0.98040605 -0.010763273
C -1.5303048 -1.5074024 -0.007192955
C 0.6073242 -1.4769571 -1.2054546
C 1.1349297 -1.8916607 -2.203729
H 0.29059237 3.0229867 1.6589692
H -1.0830897 3.1238267 0.55035
H -1.3556559 2.9561727 2.2882648
H -0.31708306 0.6554096 2.2294736
H -1.7776625 0.78959334 1.2663788
H -0.43957788 0.9859116 -0.80870986
H 2.0455508 0.5834368 -0.74074244
H 1.6015694 2.0942268 0.059466615
H 2.0015376 0.6689112 1.0267549
H 0.43457288 -1.4016733 0.8672226
H -2.1173828 -1.0282323 -0.79724
H -1.5402387 -2.5848966 -0.18933676
H -2.0203576 -1.3224416 0.9510205
H 1.6131375 -2.2609594 -3.0768032
