20
title
C 1.5700904 2.6650264 -0.003346163
C 1.4769465 1.1385604 -0.09073145
C 0.037971217 0.5937282 -0.14019321
C -0.68571943 0.9624345 -1.4414175
C 0.050475676 -0.9446494 0.070180714
O 0.7539732 -1.3256712 1.2522277
C -1.3007036 -1.5152028 0.07529403
C -2.4125683 -1.9688902 0.14165668
H 2.61337 2.9847414 0.081871584
H 1.1484624 3.1583087 -0.88465667
H 1.0358967 3.0437331 0.8756886
H 2.018834 0.78691787 -0.9801585
H 1.9817657 0.6934261 0.77135485
H -0.52378696 1.0206182 0.7045337
H -0.15978448 0.5471992 -2.3099425
H -1.7086698 0.5783599 -1.4522823
H -0.7329938 2.04673 -1.5712729
H 0.6243938 -1.3951657 -0.7506396
H 0.18010338 -1.132801 2.0021255
H -3.3891244 -2.38456 0.18358368
