19
title
C -0.74750835 2.641524 1.444121
C -0.7245179 1.1136041 1.354423
C 0.029239038 0.5904208 0.119172804
N 1.4532465 0.9243749 0.06881916
C -0.09845825 -0.951116 0.00022124185
N -1.5011035 -1.3753749 -0.009578119
C 0.6433278 -1.4454852 -1.1805766
N 1.1300325 -1.8935286 -2.1289656
H 0.2624404 3.060727 1.5028956
H -1.2408369 3.0822525 0.5701104
H -1.2925119 2.9728758 2.3327298
H -0.24742047 0.695465 2.25304
H -1.7449613 0.720891 1.3400848
H -0.4282415 1.0211846 -0.7825601
H 1.5854326 1.9049785 -0.14986695
H 1.8865596 0.7658669 0.97501904
H 0.3723556 -1.3912295 0.8891562
H -1.9363176 -1.0876707 -0.8824887
H -1.5549375 -2.389189 0.010596623
