title
 OpenBabel02282109583D

 20 19  0  0  1  0  0  0  0  0999 V2000
   -0.6423    2.6264    1.4512 C   0  0  0  0  0  0  0  0  0  0  0  0
   -0.7260    1.1006    1.3524 C   0  0  0  0  0  0  0  0  0  0  0  0
   -0.0336    0.5503    0.0973 C   0  0  1  0  0  0  0  0  0  0  0  0
    1.3153    0.9918    0.0224 O   0  0  0  0  0  0  0  0  0  0  0  0
   -0.1144   -0.9979   -0.0133 C   0  0  1  0  0  0  0  0  0  0  0  0
   -1.5624   -1.5301   -0.0677 C   0  0  0  0  0  0  0  0  0  0  0  0
    0.6375   -1.4716   -1.1751 C   0  0  0  0  0  0  0  0  0  0  0  0
    1.2159   -1.8837   -2.1448 C   0  0  0  0  0  0  0  0  0  0  0  0
    0.3979    2.9593    1.4269 H   0  0  0  0  0  0  0  0  0  0  0  0
   -1.1612    3.1019    0.6116 H   0  0  0  0  0  0  0  0  0  0  0  0
   -1.1028    2.9864    2.3759 H   0  0  0  0  0  0  0  0  0  0  0  0
   -0.2624    0.6417    2.2388 H   0  0  0  0  0  0  0  0  0  0  0  0
   -1.7761    0.7898    1.3600 H   0  0  0  0  0  0  0  0  0  0  0  0
   -0.5106    0.9776   -0.7939 H   0  0  0  0  0  0  0  0  0  0  0  0
    1.8018    0.5852    0.7486 H   0  0  0  0  0  0  0  0  0  0  0  0
    0.3628   -1.4079    0.8914 H   0  0  0  0  0  0  0  0  0  0  0  0
   -2.1109   -1.0696   -0.8954 H   0  0  0  0  0  0  0  0  0  0  0  0
   -1.5604   -2.6107   -0.2284 H   0  0  0  0  0  0  0  0  0  0  0  0
   -2.0982   -1.3251    0.8620 H   0  0  0  0  0  0  0  0  0  0  0  0
    1.7438   -2.2345   -2.9965 H   0  0  0  0  0  0  0  0  0  0  0  0
  1 11  1  0  0  0  0
  2 13  1  0  0  0  0
  2  1  1  0  0  0  0
  2 12  1  0  0  0  0
  3 14  1  6  0  0  0
  3  2  1  0  0  0  0
  4  3  1  0  0  0  0
  4 15  1  0  0  0  0
  5  3  1  0  0  0  0
  5 16  1  1  0  0  0
  6  5  1  0  0  0  0
  6 19  1  0  0  0  0
  7  5  1  0  0  0  0
  8  7  3  0  0  0  0
  9  1  1  0  0  0  0
 10  1  1  0  0  0  0
 17  6  1  0  0  0  0
 18  6  1  0  0  0  0
 20  8  1  0  0  0  0
M  END
