title
 OpenBabel02282109583D

 19 18  0  0  1  0  0  0  0  0999 V2000
   -0.6369    2.6408    1.4595 C   0  0  0  0  0  0  0  0  0  0  0  0
   -0.7085    1.1136    1.3721 C   0  0  0  0  0  0  0  0  0  0  0  0
   -0.0429    0.5647    0.1038 C   0  0  1  0  0  0  0  0  0  0  0  0
    1.3061    0.9893   -0.0043 O   0  0  0  0  0  0  0  0  0  0  0  0
   -0.1366   -0.9840    0.0013 C   0  0  1  0  0  0  0  0  0  0  0  0
   -1.5800   -1.5209   -0.0819 C   0  0  0  0  0  0  0  0  0  0  0  0
    0.6331   -1.4551   -1.1564 C   0  0  0  0  0  0  0  0  0  0  0  0
    1.2075   -1.8574   -2.0748 N   0  0  0  0  0  0  0  0  0  0  0  0
    0.3983    2.9855    1.4059 H   0  0  0  0  0  0  0  0  0  0  0  0
   -1.1839    3.1060    0.6325 H   0  0  0  0  0  0  0  0  0  0  0  0
   -1.0755    2.9997    2.3950 H   0  0  0  0  0  0  0  0  0  0  0  0
   -0.2176    0.6632    2.2482 H   0  0  0  0  0  0  0  0  0  0  0  0
   -1.7547    0.7921    1.4081 H   0  0  0  0  0  0  0  0  0  0  0  0
   -0.5366    0.9908   -0.7784 H   0  0  0  0  0  0  0  0  0  0  0  0
    1.7882    0.6699    0.7674 H   0  0  0  0  0  0  0  0  0  0  0  0
    0.3438   -1.4050    0.8966 H   0  0  0  0  0  0  0  0  0  0  0  0
   -1.5779   -2.6023   -0.2363 H   0  0  0  0  0  0  0  0  0  0  0  0
   -2.1257   -1.3099    0.8399 H   0  0  0  0  0  0  0  0  0  0  0  0
   -2.1154   -1.0617   -0.9181 H   0  0  0  0  0  0  0  0  0  0  0  0
  1 11  1  0  0  0  0
  2 13  1  0  0  0  0
  2  1  1  0  0  0  0
  2 12  1  0  0  0  0
  3 14  1  6  0  0  0
  3  2  1  0  0  0  0
  4  3  1  0  0  0  0
  4 15  1  0  0  0  0
  5  3  1  0  0  0  0
  5 16  1  1  0  0  0
  6  5  1  0  0  0  0
  6 18  1  0  0  0  0
  7  5  1  0  0  0  0
  8  7  3  0  0  0  0
  9  1  1  0  0  0  0
 10  1  1  0  0  0  0
 17  6  1  0  0  0  0
 19  6  1  0  0  0  0
M  END
