19
title
C -0.6369434 2.6407628 1.4595351
C -0.70849496 1.1136409 1.3721408
C -0.042871267 0.5647207 0.103791274
O 1.3061062 0.9893116 -0.004338823
C -0.1365895 -0.983962 0.0013350624
C -1.5799617 -1.5209032 -0.081908904
C 0.6331371 -1.4551433 -1.1563638
N 1.20746 -1.8573714 -2.0747952
H 0.39831463 2.9854515 1.4059439
H -1.1838781 3.1060226 0.63249254
H -1.0754937 2.9996507 2.3949602
H -0.217617 0.6631609 2.2482095
H -1.7547251 0.7921127 1.4081239
H -0.5366244 0.9907845 -0.77841693
H 1.7881991 0.6698514 0.76738155
H 0.34379223 -1.404977 0.8966399
H -1.5778521 -2.602265 -0.23632534
H -2.125697 -1.3098518 0.8398645
H -2.1153774 -1.0616993 -0.91812235
