18
title
C -0.70848465 2.6351528 1.4558339
C -0.6767807 1.1064689 1.3904917
C -0.025948925 0.5825344 0.108331665
O 1.3256922 0.98626405 -0.019742023
C -0.14713262 -0.9619682 -0.0021512627
N -1.552386 -1.3643966 -0.08846833
C 0.66642296 -1.4686296 -1.1286292
N 1.2341609 -1.9165268 -2.0306983
H 0.2957118 3.053223 1.345096
H -1.3300827 3.0492153 0.6545482
H -1.1214639 2.9781597 2.408761
H -0.11565696 0.7048846 2.248582
H -1.685954 0.69095165 1.4628918
H -0.5314647 1.0171667 -0.7640948
H 1.7921519 0.7424413 0.7881431
H 0.26556846 -1.3955779 0.918563
H -1.9309361 -1.0905788 -0.99142885
H -1.6294129 -2.375752 -0.04285277
