title
 OpenBabel02282109583D

 20 19  0  0  1  0  0  0  0  0999 V2000
    1.5258    2.5777   -0.2523 C   0  0  0  0  0  0  0  0  0  0  0  0
    1.4710    1.0523   -0.1571 C   0  0  0  0  0  0  0  0  0  0  0  0
    0.1036    0.5219   -0.1481 N   0  0  0  0  0  0  0  0  0  0  0  0
   -0.6069    0.8357   -1.3865 C   0  0  0  0  0  0  0  0  0  0  0  0
    0.0702   -0.9207    0.1303 C   0  0  1  0  0  0  0  0  0  0  0  0
    0.7619   -1.3182    1.4494 C   0  0  0  0  0  0  0  0  0  0  0  0
   -1.3312   -1.3778    0.2003 C   0  0  0  0  0  0  0  0  0  0  0  0
   -2.4147   -1.7728    0.2706 N   0  0  0  0  0  0  0  0  0  0  0  0
    2.5513    2.9171   -0.0785 H   0  0  0  0  0  0  0  0  0  0  0  0
    1.2216    2.9510   -1.2332 H   0  0  0  0  0  0  0  0  0  0  0  0
    0.8794    3.0304    0.5054 H   0  0  0  0  0  0  0  0  0  0  0  0
    2.0682    0.6073   -0.9787 H   0  0  0  0  0  0  0  0  0  0  0  0
    1.9548    0.7606    0.7770 H   0  0  0  0  0  0  0  0  0  0  0  0
   -0.1074    0.4208   -2.2828 H   0  0  0  0  0  0  0  0  0  0  0  0
   -1.6223    0.4368   -1.3450 H   0  0  0  0  0  0  0  0  0  0  0  0
   -0.6826    1.9170   -1.5087 H   0  0  0  0  0  0  0  0  0  0  0  0
    0.5403   -1.4987   -0.6919 H   0  0  0  0  0  0  0  0  0  0  0  0
    1.8471   -1.2423    1.3679 H   0  0  0  0  0  0  0  0  0  0  0  0
    0.4145   -0.6771    2.2633 H   0  0  0  0  0  0  0  0  0  0  0  0
    0.5171   -2.3548    1.6915 H   0  0  0  0  0  0  0  0  0  0  0  0
  1  2  1  0  0  0  0
  1  9  1  0  0  0  0
  1 11  1  0  0  0  0
  2  3  1  0  0  0  0
  2 13  1  0  0  0  0
  3  5  1  0  0  0  0
  4 15  1  0  0  0  0
  4  3  1  0  0  0  0
  5 17  1  6  0  0  0
  5  7  1  0  0  0  0
  5  6  1  0  0  0  0
  6 20  1  0  0  0  0
  6 19  1  0  0  0  0
  7  8  3  0  0  0  0
 10  1  1  0  0  0  0
 12  2  1  0  0  0  0
 14  4  1  0  0  0  0
 16  4  1  0  0  0  0
 18  6  1  0  0  0  0
M  END
