title
 OpenBabel02282109583D

 20 19  0  0  1  0  0  0  0  0999 V2000
   -0.3383    2.4226    1.4799 C   0  0  0  0  0  0  0  0  0  0  0  0
   -0.4459    1.0310    1.2932 O   0  0  0  0  0  0  0  0  0  0  0  0
    0.2789    0.5170    0.1835 C   0  0  1  0  0  0  0  0  0  0  0  0
    1.7716    0.4007    0.4945 C   0  0  0  0  0  0  0  0  0  0  0  0
   -0.3733   -0.8497   -0.1451 C   0  0  1  0  0  0  0  0  0  0  0  0
   -1.8806   -0.7072   -0.4366 C   0  0  0  0  0  0  0  0  0  0  0  0
    0.3062   -1.5081   -1.2589 C   0  0  0  0  0  0  0  0  0  0  0  0
    0.8368   -2.0419   -2.1968 C   0  0  0  0  0  0  0  0  0  0  0  0
    0.6797    2.7371    1.7518 H   0  0  0  0  0  0  0  0  0  0  0  0
   -0.6407    2.9779    0.5782 H   0  0  0  0  0  0  0  0  0  0  0  0
   -1.0113    2.6891    2.2988 H   0  0  0  0  0  0  0  0  0  0  0  0
    0.1343    1.1814   -0.6852 H   0  0  0  0  0  0  0  0  0  0  0  0
    1.9257   -0.2483    1.3628 H   0  0  0  0  0  0  0  0  0  0  0  0
    2.3094   -0.0213   -0.3575 H   0  0  0  0  0  0  0  0  0  0  0  0
    2.2058    1.3791    0.7181 H   0  0  0  0  0  0  0  0  0  0  0  0
   -0.2538   -1.4720    0.7530 H   0  0  0  0  0  0  0  0  0  0  0  0
   -2.3304   -1.6874   -0.6133 H   0  0  0  0  0  0  0  0  0  0  0  0
   -2.3769   -0.2306    0.4097 H   0  0  0  0  0  0  0  0  0  0  0  0
   -2.0421   -0.0962   -1.3303 H   0  0  0  0  0  0  0  0  0  0  0  0
    1.3115   -2.5220   -3.0163 H   0  0  0  0  0  0  0  0  0  0  0  0
  1  9  1  0  0  0  0
  1 11  1  0  0  0  0
  2  1  1  0  0  0  0
  3 12  1  6  0  0  0
  3  4  1  0  0  0  0
  3  2  1  0  0  0  0
  4 15  1  0  0  0  0
  4 13  1  0  0  0  0
  5  3  1  0  0  0  0
  5 16  1  1  0  0  0
  6  5  1  0  0  0  0
  6 18  1  0  0  0  0
  7  5  1  0  0  0  0
  8  7  3  0  0  0  0
 10  1  1  0  0  0  0
 14  4  1  0  0  0  0
 17  6  1  0  0  0  0
 19  6  1  0  0  0  0
 20  8  1  0  0  0  0
M  END
