20
title
C -0.33825082 2.4225907 1.4798722
O -0.44588596 1.0309693 1.2931688
C 0.27893952 0.51695824 0.18351322
C 1.771643 0.40067196 0.49452865
C -0.37334907 -0.8496674 -0.14508766
C -1.8805987 -0.7072149 -0.43659836
C 0.3062105 -1.5080746 -1.258857
C 0.83679205 -2.0418932 -2.196834
H 0.6796661 2.7370996 1.7518044
H -0.6407308 2.977899 0.5782374
H -1.0112689 2.6890817 2.2988412
H 0.134277 1.1813821 -0.6852005
H 1.925671 -0.24831326 1.3627867
H 2.3093894 -0.021253534 -0.3574608
H 2.2057796 1.3791454 0.718087
H -0.25375026 -1.4719645 0.7530314
H -2.3303616 -1.6873647 -0.6133277
H -2.3768609 -0.2305624 0.40972102
H -2.042103 -0.096161194 -1.3303237
H 1.3114809 -2.5219762 -3.0163338
