18
title
C -0.41448832 2.0993972 0.8283189
O 0.4486543 0.9795466 0.9539375
C 0.8507203 0.3734602 -0.26429325
C 2.3516443 0.10864268 -0.19052415
C 0.046262775 -0.95102495 -0.46474785
N 0.051738992 -1.8508905 0.68681294
C -1.3491077 -0.6376597 -0.825236
N -2.4309273 -0.3600634 -1.1220001
H 0.058818217 2.9028134 0.24568649
H -1.3702377 1.8370521 0.3606798
H -0.60170966 2.4644146 1.8409605
H 0.63886935 1.040976 -1.1113029
H 2.588569 -0.53579766 0.6610658
H 2.715207 -0.36912593 -1.1058841
H 2.8869822 1.0510935 -0.053984392
H 0.47598746 -1.486061 -1.3206214
H 0.9723495 -2.2649333 0.78916895
H -0.12023466 -1.2948357 1.5211085
