title
 OpenBabel02282109583D

 18 17  0  0  1  0  0  0  0  0999 V2000
   -0.4145    2.0994    0.8283 C   0  0  0  0  0  0  0  0  0  0  0  0
    0.4487    0.9795    0.9539 O   0  0  0  0  0  0  0  0  0  0  0  0
    0.8507    0.3735   -0.2643 C   0  0  1  0  0  0  0  0  0  0  0  0
    2.3516    0.1086   -0.1905 C   0  0  0  0  0  0  0  0  0  0  0  0
    0.0463   -0.9510   -0.4647 C   0  0  1  0  0  0  0  0  0  0  0  0
    0.0517   -1.8509    0.6868 N   0  0  0  0  0  0  0  0  0  0  0  0
   -1.3491   -0.6377   -0.8252 C   0  0  0  0  0  0  0  0  0  0  0  0
   -2.4309   -0.3601   -1.1220 N   0  0  0  0  0  0  0  0  0  0  0  0
    0.0588    2.9028    0.2457 H   0  0  0  0  0  0  0  0  0  0  0  0
   -1.3702    1.8371    0.3607 H   0  0  0  0  0  0  0  0  0  0  0  0
   -0.6017    2.4644    1.8410 H   0  0  0  0  0  0  0  0  0  0  0  0
    0.6389    1.0410   -1.1113 H   0  0  0  0  0  0  0  0  0  0  0  0
    2.5886   -0.5358    0.6611 H   0  0  0  0  0  0  0  0  0  0  0  0
    2.7152   -0.3691   -1.1059 H   0  0  0  0  0  0  0  0  0  0  0  0
    2.8870    1.0511   -0.0540 H   0  0  0  0  0  0  0  0  0  0  0  0
    0.4760   -1.4861   -1.3206 H   0  0  0  0  0  0  0  0  0  0  0  0
    0.9723   -2.2649    0.7892 H   0  0  0  0  0  0  0  0  0  0  0  0
   -0.1202   -1.2948    1.5211 H   0  0  0  0  0  0  0  0  0  0  0  0
  1  2  1  0  0  0  0
  1 11  1  0  0  0  0
  3 12  1  6  0  0  0
  3  4  1  0  0  0  0
  3  2  1  0  0  0  0
  4 15  1  0  0  0  0
  4 13  1  0  0  0  0
  5 16  1  6  0  0  0
  5  3  1  0  0  0  0
  5  6  1  0  0  0  0
  6 17  1  0  0  0  0
  6 18  1  0  0  0  0
  7  5  1  0  0  0  0
  8  7  3  0  0  0  0
  9  1  1  0  0  0  0
 10  1  1  0  0  0  0
 14  4  1  0  0  0  0
M  END
