title
 OpenBabel02282109583D

 18 17  0  0  1  0  0  0  0  0999 V2000
    0.1341    2.3439    0.9834 C   0  0  0  0  0  0  0  0  0  0  0  0
    0.1072    0.9395    0.8725 O   0  0  0  0  0  0  0  0  0  0  0  0
    0.6937    0.4113   -0.3112 C   0  0  1  0  0  0  0  0  0  0  0  0
    2.2125    0.2963   -0.1882 C   0  0  0  0  0  0  0  0  0  0  0  0
    0.0287   -0.9736   -0.4905 C   0  0  1  0  0  0  0  0  0  0  0  0
    0.1857   -1.7504    0.6858 O   0  0  0  0  0  0  0  0  0  0  0  0
   -1.3815   -0.8353   -0.8784 C   0  0  0  0  0  0  0  0  0  0  0  0
   -2.5347   -0.7212   -1.1973 C   0  0  0  0  0  0  0  0  0  0  0  0
    1.1580    2.7415    1.0322 H   0  0  0  0  0  0  0  0  0  0  0  0
   -0.3865    2.8241    0.1415 H   0  0  0  0  0  0  0  0  0  0  0  0
   -0.3825    2.6027    1.9109 H   0  0  0  0  0  0  0  0  0  0  0  0
    0.4252    1.0417   -1.1720 H   0  0  0  0  0  0  0  0  0  0  0  0
    2.6633    1.2646    0.0455 H   0  0  0  0  0  0  0  0  0  0  0  0
    2.4677   -0.4133    0.6024 H   0  0  0  0  0  0  0  0  0  0  0  0
    2.6477   -0.0556   -1.1292 H   0  0  0  0  0  0  0  0  0  0  0  0
    0.5621   -1.5161   -1.2799 H   0  0  0  0  0  0  0  0  0  0  0  0
   -0.1534   -1.2003    1.4043 H   0  0  0  0  0  0  0  0  0  0  0  0
   -3.5548   -0.6294   -1.4777 H   0  0  0  0  0  0  0  0  0  0  0  0
  1  9  1  0  0  0  0
  1 11  1  0  0  0  0
  2  1  1  0  0  0  0
  3 12  1  6  0  0  0
  3  4  1  0  0  0  0
  3  2  1  0  0  0  0
  4 13  1  0  0  0  0
  4 14  1  0  0  0  0
  5 16  1  6  0  0  0
  5  3  1  0  0  0  0
  5  6  1  0  0  0  0
  6 17  1  0  0  0  0
  7  5  1  0  0  0  0
  8  7  3  0  0  0  0
 10  1  1  0  0  0  0
 15  4  1  0  0  0  0
 18  8  1  0  0  0  0
M  END
