16
title
N -0.43435827 1.6193824 1.0652512
C -0.2986888 0.16646253 0.9866068
C -1.6295674 -0.45297158 1.1342906
N -2.6600611 -0.9607966 1.2515227
C 0.36763564 -0.370831 -0.3060868
O -0.31161848 0.21688272 -1.3948582
C 1.8574452 -0.0368734 -0.37066677
O 2.2894025 -0.45219904 -1.66057
H 0.47125742 2.0438054 1.2333354
H -0.76623267 1.9565959 0.16556256
H 0.2992629 -0.17064005 1.8426223
H 0.26361582 -1.4672033 -0.32594243
H 0.25220546 0.07590357 -2.166153
H 2.0007212 1.0449717 -0.23755898
H 2.4015794 -0.56504273 0.42674866
H 3.1488206 -0.06302095 -1.8442346
