16
title
O 1.3676614 2.482731 -0.26490515
C 1.4709804 1.089067 0.02258107
C 0.043498155 0.54985523 -0.042178217
O -0.54186547 0.8729796 -1.2852567
C 0.015985485 -0.9849639 0.09855227
O 0.7311575 -1.4039514 1.2597929
C -1.3524271 -1.5008142 0.09357184
C -2.4750319 -1.9242275 0.16230233
H 2.2480094 2.8274915 -0.43631268
H 2.086684 0.5752003 -0.7308974
H 1.905247 0.9077545 1.0122975
H -0.5327666 0.989269 0.79023063
H -0.27286708 1.7829926 -1.4660003
H 0.56299734 -1.4005859 -0.7565956
H 0.12820709 -1.3397765 2.008464
H -3.4672682 -2.3013902 0.19784054
