18
title
C -0.6175905 1.7311221 0.8453317
C -0.39283007 0.20564415 0.81838495
C -1.7467009 -0.4847657 0.86000824
O -2.2135494 -1.0126008 1.8360331
C 0.4013644 -0.28648213 -0.412102
O -0.14266714 0.18794861 -1.6483393
C 1.8984543 0.034517124 -0.35907784
O 2.5516274 -0.4537124 -1.5094006
H 0.327115 2.2798076 0.795467
H -1.2520851 2.0595958 0.014150999
H -1.1221907 2.0199208 1.7709998
H 0.14411849 -0.09595779 1.7245793
H -2.3003423 -0.45723736 -0.10535703
H 0.30704856 -1.3767831 -0.48453882
H -0.11248889 1.1518967 -1.6367915
H 2.043674 1.1241049 -0.2482435
H 2.3570516 -0.4460987 0.51186824
H 1.9556061 -0.26824772 -2.2467256
