title
 OpenBabel02282109583D

 20 19  0  0  1  0  0  0  0  0999 V2000
   -0.6071    2.0805   -0.3205 C   0  0  0  0  0  0  0  0  0  0  0  0
   -0.4615    0.5531   -0.3038 C   0  0  1  0  0  0  0  0  0  0  0  0
    0.2644    0.0723   -1.5653 C   0  0  0  0  0  0  0  0  0  0  0  0
   -0.5207    0.4304   -2.6922 O   0  0  0  0  0  0  0  0  0  0  0  0
    0.2578    0.0238    0.9610 C   0  0  1  0  0  0  0  0  0  0  0  0
   -0.3996    0.4936    2.2736 C   0  0  0  0  0  0  0  0  0  0  0  0
    0.2531   -1.4938    0.9706 C   0  0  0  0  0  0  0  0  0  0  0  0
    1.2245   -2.1981    1.0707 O   0  0  0  0  0  0  0  0  0  0  0  0
    0.3653    2.5683   -0.1809 H   0  0  0  0  0  0  0  0  0  0  0  0
   -1.0095    2.3983   -1.2844 H   0  0  0  0  0  0  0  0  0  0  0  0
   -1.2799    2.4382    0.4626 H   0  0  0  0  0  0  0  0  0  0  0  0
   -1.4684    0.1113   -0.3330 H   0  0  0  0  0  0  0  0  0  0  0  0
    1.2641    0.5358   -1.6095 H   0  0  0  0  0  0  0  0  0  0  0  0
    0.4151   -1.0177   -1.5254 H   0  0  0  0  0  0  0  0  0  0  0  0
   -0.0430    0.1745   -3.4862 H   0  0  0  0  0  0  0  0  0  0  0  0
    1.3079    0.3405    0.9499 H   0  0  0  0  0  0  0  0  0  0  0  0
   -1.4512    0.1886    2.3218 H   0  0  0  0  0  0  0  0  0  0  0  0
    0.1164    0.0666    3.1387 H   0  0  0  0  0  0  0  0  0  0  0  0
   -0.3604    1.5811    2.3643 H   0  0  0  0  0  0  0  0  0  0  0  0
   -0.7707   -1.9376    0.9009 H   0  0  0  0  0  0  0  0  0  0  0  0
  1  2  1  0  0  0  0
  1  9  1  0  0  0  0
  1 11  1  0  0  0  0
  2 12  1  6  0  0  0
  2  5  1  0  0  0  0
  3 14  1  0  0  0  0
  3  2  1  0  0  0  0
  4  3  1  0  0  0  0
  5 16  1  6  0  0  0
  5  7  1  0  0  0  0
  5  6  1  0  0  0  0
  6 17  1  0  0  0  0
  6 19  1  0  0  0  0
  6 18  1  0  0  0  0
  7  8  2  0  0  0  0
 10  1  1  0  0  0  0
 13  3  1  0  0  0  0
 15  4  1  0  0  0  0
 20  7  1  0  0  0  0
M  END
