20
title
C -0.60708237 2.0804553 -0.32045057
C -0.4615177 0.5531421 -0.30377272
C 0.26441938 0.07225794 -1.5653304
O -0.52068394 0.43044603 -2.6922133
C 0.25779372 0.02383373 0.9610027
C -0.399613 0.49363822 2.2735906
C 0.25306892 -1.4938178 0.970616
O 1.2245092 -2.1980996 1.0707006
H 0.36533147 2.5683181 -0.18087085
H -1.0095398 2.3983302 -1.2844356
H -1.2799182 2.4381912 0.4626486
H -1.4684364 0.1113146 -0.33304214
H 1.2641269 0.5358394 -1.6095423
H 0.41508716 -1.0177426 -1.525353
H -0.04303653 0.17454231 -3.4862373
H 1.3078724 0.3404753 0.9499477
H -1.4512436 0.1885975 2.321806
H 0.11643266 0.066606976 3.138699
H -0.36037207 1.5811235 2.3642788
H -0.77069515 -1.9376309 0.9008895
