title
 OpenBabel02282109583D

 19 18  0  0  1  0  0  0  0  0999 V2000
    1.1629    1.6932   -0.6025 C   0  0  0  0  0  0  0  0  0  0  0  0
    0.9554    0.1718   -0.5866 C   0  0  1  0  0  0  0  0  0  0  0  0
    1.7172   -0.4965    0.5670 C   0  0  0  0  0  0  0  0  0  0  0  0
    1.2624    0.0658    1.7853 O   0  0  0  0  0  0  0  0  0  0  0  0
   -0.4565   -0.2262   -0.6055 N   0  0  0  0  0  0  0  0  0  0  0  0
   -0.8263   -1.3644   -1.4308 C   0  0  0  0  0  0  0  0  0  0  0  0
   -1.3834    0.2971    0.2526 C   0  0  0  0  0  0  0  0  0  0  0  0
   -2.5369   -0.0774    0.3441 O   0  0  0  0  0  0  0  0  0  0  0  0
    2.2181    1.9150   -0.7901 H   0  0  0  0  0  0  0  0  0  0  0  0
    0.5673    2.1522   -1.3955 H   0  0  0  0  0  0  0  0  0  0  0  0
    0.8965    2.1514    0.3510 H   0  0  0  0  0  0  0  0  0  0  0  0
    1.3832   -0.2295   -1.5127 H   0  0  0  0  0  0  0  0  0  0  0  0
    1.5397   -1.5814    0.5352 H   0  0  0  0  0  0  0  0  0  0  0  0
    2.7976   -0.3295    0.4268 H   0  0  0  0  0  0  0  0  0  0  0  0
    1.5597   -0.4868    2.5129 H   0  0  0  0  0  0  0  0  0  0  0  0
   -0.2867   -2.2726   -1.1316 H   0  0  0  0  0  0  0  0  0  0  0  0
   -1.8955   -1.5327   -1.3059 H   0  0  0  0  0  0  0  0  0  0  0  0
   -0.6056   -1.1652   -2.4860 H   0  0  0  0  0  0  0  0  0  0  0  0
   -0.9765    1.1164    0.8635 H   0  0  0  0  0  0  0  0  0  0  0  0
  1  2  1  0  0  0  0
  1 11  1  0  0  0  0
  2 12  1  6  0  0  0
  2  3  1  0  0  0  0
  3  4  1  0  0  0  0
  4 15  1  0  0  0  0
  5  2  1  0  0  0  0
  5  7  1  0  0  0  0
  6 17  1  0  0  0  0
  6 16  1  0  0  0  0
  6  5  1  0  0  0  0
  7  8  2  0  0  0  0
  7 19  1  0  0  0  0
  9  1  1  0  0  0  0
 10  1  1  0  0  0  0
 13  3  1  0  0  0  0
 14  3  1  0  0  0  0
 18  6  1  0  0  0  0
M  END
