title
 OpenBabel02282109583D

 22 21  0  0  1  0  0  0  0  0999 V2000
    1.5374    2.7956    0.0045 C   0  0  0  0  0  0  0  0  0  0  0  0
    1.4806    1.2644    0.0623 C   0  0  0  0  0  0  0  0  0  0  0  0
    0.0584    0.6732    0.0059 C   0  0  1  0  0  0  0  0  0  0  0  0
   -0.6789    1.0859   -1.2791 C   0  0  0  0  0  0  0  0  0  0  0  0
    0.0620   -0.8731    0.1459 C   0  0  1  0  0  0  0  0  0  0  0  0
    0.7787   -1.3904    1.4095 C   0  0  0  0  0  0  0  0  0  0  0  0
   -1.3655   -1.3842    0.2062 C   0  0  0  0  0  0  0  0  0  0  0  0
   -1.8503   -2.2081   -0.5252 O   0  0  0  0  0  0  0  0  0  0  0  0
    2.5635    3.1476    0.1493 H   0  0  0  0  0  0  0  0  0  0  0  0
    1.1904    3.1876   -0.9555 H   0  0  0  0  0  0  0  0  0  0  0  0
    0.9197    3.2442    0.7910 H   0  0  0  0  0  0  0  0  0  0  0  0
    2.0739    0.8443   -0.7618 H   0  0  0  0  0  0  0  0  0  0  0  0
    1.9701    0.9409    0.9865 H   0  0  0  0  0  0  0  0  0  0  0  0
   -0.5007    1.0764    0.8654 H   0  0  0  0  0  0  0  0  0  0  0  0
   -0.1294    0.7493   -2.1662 H   0  0  0  0  0  0  0  0  0  0  0  0
   -1.6804    0.6481   -1.3315 H   0  0  0  0  0  0  0  0  0  0  0  0
   -0.7931    2.1705   -1.3470 H   0  0  0  0  0  0  0  0  0  0  0  0
    0.5224   -1.3198   -0.7435 H   0  0  0  0  0  0  0  0  0  0  0  0
    0.3627   -0.9360    2.3161 H   0  0  0  0  0  0  0  0  0  0  0  0
    0.6707   -2.4760    1.4971 H   0  0  0  0  0  0  0  0  0  0  0  0
    1.8472   -1.1677    1.3810 H   0  0  0  0  0  0  0  0  0  0  0  0
   -1.9636   -0.9370    1.0389 H   0  0  0  0  0  0  0  0  0  0  0  0
  1  2  1  0  0  0  0
  1  9  1  0  0  0  0
  1 11  1  0  0  0  0
  2 13  1  0  0  0  0
  3  2  1  0  0  0  0
  3  5  1  0  0  0  0
  3 14  1  1  0  0  0
  4  3  1  0  0  0  0
  5 18  1  6  0  0  0
  5  7  1  0  0  0  0
  5  6  1  0  0  0  0
  6 20  1  0  0  0  0
  6 19  1  0  0  0  0
  7 22  1  0  0  0  0
  8  7  2  0  0  0  0
 10  1  1  0  0  0  0
 12  2  1  0  0  0  0
 15  4  1  0  0  0  0
 16  4  1  0  0  0  0
 17  4  1  0  0  0  0
 21  6  1  0  0  0  0
M  END
