title
 OpenBabel02282109583D

 20 19  0  0  1  0  0  0  0  0999 V2000
   -0.6620    2.7497    1.3978 C   0  0  0  0  0  0  0  0  0  0  0  0
   -0.5268    1.2242    1.3698 C   0  0  0  0  0  0  0  0  0  0  0  0
    0.2406    0.6768    0.1503 C   0  0  1  0  0  0  0  0  0  0  0  0
    1.7314    1.0446    0.1951 C   0  0  0  0  0  0  0  0  0  0  0  0
    0.0233   -0.8609    0.0626 C   0  0  1  0  0  0  0  0  0  0  0  0
   -1.3412   -1.1862    0.0697 O   0  0  0  0  0  0  0  0  0  0  0  0
    0.6738   -1.4663   -1.1665 C   0  0  0  0  0  0  0  0  0  0  0  0
    0.0233   -2.0544   -1.9989 O   0  0  0  0  0  0  0  0  0  0  0  0
    0.3056    3.2565    1.4682 H   0  0  0  0  0  0  0  0  0  0  0  0
   -1.1649    3.1171    0.4962 H   0  0  0  0  0  0  0  0  0  0  0  0
   -1.2574    3.0667    2.2596 H   0  0  0  0  0  0  0  0  0  0  0  0
   -0.0267    0.8784    2.2857 H   0  0  0  0  0  0  0  0  0  0  0  0
   -1.5234    0.7754    1.3708 H   0  0  0  0  0  0  0  0  0  0  0  0
   -0.2096    1.1087   -0.7546 H   0  0  0  0  0  0  0  0  0  0  0  0
    2.2584    0.7891   -0.7286 H   0  0  0  0  0  0  0  0  0  0  0  0
    1.8605    2.1191    0.3466 H   0  0  0  0  0  0  0  0  0  0  0  0
    2.2373    0.5339    1.0236 H   0  0  0  0  0  0  0  0  0  0  0  0
    0.5259   -1.3162    0.9375 H   0  0  0  0  0  0  0  0  0  0  0  0
   -1.4972   -1.6685   -0.7581 H   0  0  0  0  0  0  0  0  0  0  0  0
    1.7700   -1.3576   -1.2676 H   0  0  0  0  0  0  0  0  0  0  0  0
  1  9  1  0  0  0  0
  1 11  1  0  0  0  0
  2 13  1  0  0  0  0
  2  1  1  0  0  0  0
  2 12  1  0  0  0  0
  3 14  1  6  0  0  0
  3  4  1  0  0  0  0
  3  2  1  0  0  0  0
  4 16  1  0  0  0  0
  4 17  1  0  0  0  0
  5  6  1  0  0  0  0
  5  3  1  0  0  0  0
  5 18  1  1  0  0  0
  7  5  1  0  0  0  0
  8  7  2  0  0  0  0
 10  1  1  0  0  0  0
 15  4  1  0  0  0  0
 19  6  1  0  0  0  0
 20  7  1  0  0  0  0
M  END
