21
title
C 1.718872 1.6447009 -0.8603608
C 1.7092867 0.11806801 -0.9567864
C 0.30340445 -0.5069513 -0.86849195
C 0.3475107 -2.027611 -1.0787594
N -0.3957591 -0.14510413 0.36649188
C 0.13892365 -0.5463557 1.6580318
C -1.5705144 0.54997635 0.329437
O -2.2317636 0.88295525 1.2913338
H 2.7364895 2.0358164 -0.95090157
H 1.1175104 2.0956879 -1.6576313
H 1.3107868 1.9888146 0.094550826
H 2.1480215 -0.19629227 -1.9112829
H 2.3510618 -0.3130707 -0.17825016
H -0.29990172 -0.07479183 -1.6768984
H 0.9838894 -2.5215573 -0.33775213
H -0.65505743 -2.4595053 -1.0114193
H 0.7555545 -2.258722 -2.0673697
H 1.1283187 -0.110589184 1.8342482
H -0.5514562 -0.18334098 2.4194214
H 0.21994698 -1.6355436 1.737974
H -1.8697033 0.7884475 -0.7101642
