title
 OpenBabel02282109583D

 18 17  0  0  1  0  0  0  0  0999 V2000
   -0.5660    2.7401    1.4470 C   0  0  0  0  0  0  0  0  0  0  0  0
   -0.5971    1.2119    1.3693 C   0  0  0  0  0  0  0  0  0  0  0  0
    0.1590    0.6601    0.1609 C   0  0  1  0  0  0  0  0  0  0  0  0
    1.5423    1.0002    0.1737 O   0  0  0  0  0  0  0  0  0  0  0  0
    0.0049   -0.8788    0.0435 C   0  0  1  0  0  0  0  0  0  0  0  0
   -1.3400   -1.2647    0.0449 O   0  0  0  0  0  0  0  0  0  0  0  0
    0.6910   -1.3838   -1.2115 C   0  0  0  0  0  0  0  0  0  0  0  0
    0.0911   -2.0494   -2.0234 O   0  0  0  0  0  0  0  0  0  0  0  0
    0.4619    3.1138    1.4586 H   0  0  0  0  0  0  0  0  0  0  0  0
   -1.0702    3.1866    0.5832 H   0  0  0  0  0  0  0  0  0  0  0  0
   -1.0706    3.0972    2.3494 H   0  0  0  0  0  0  0  0  0  0  0  0
   -0.1574    0.7761    2.2801 H   0  0  0  0  0  0  0  0  0  0  0  0
   -1.6263    0.8447    1.3216 H   0  0  0  0  0  0  0  0  0  0  0  0
   -0.2423    1.1143   -0.7540 H   0  0  0  0  0  0  0  0  0  0  0  0
    1.8833    0.8103    1.0553 H   0  0  0  0  0  0  0  0  0  0  0  0
    0.5434   -1.3246    0.9032 H   0  0  0  0  0  0  0  0  0  0  0  0
   -1.4581   -1.7868   -0.7662 H   0  0  0  0  0  0  0  0  0  0  0  0
    1.7505   -1.1026   -1.3430 H   0  0  0  0  0  0  0  0  0  0  0  0
  1  9  1  0  0  0  0
  1 11  1  0  0  0  0
  2  1  1  0  0  0  0
  2 12  1  0  0  0  0
  3 14  1  6  0  0  0
  3  4  1  0  0  0  0
  3  2  1  0  0  0  0
  4 15  1  0  0  0  0
  5  6  1  0  0  0  0
  5  3  1  0  0  0  0
  5 16  1  1  0  0  0
  7  5  1  0  0  0  0
  8  7  2  0  0  0  0
 10  1  1  0  0  0  0
 13  2  1  0  0  0  0
 17  6  1  0  0  0  0
 18  7  1  0  0  0  0
M  END
