20
title
C 1.3021765 2.619217 -0.38473925
O 1.27375 1.2226546 -0.19695841
C -0.012390852 0.63023746 -0.30118388
C -0.45209265 0.48940328 -1.7611904
C 0.070427895 -0.7350708 0.41458136
C 0.57177925 -0.5911609 1.8629209
C -1.2941716 -1.3942715 0.44254863
O -1.55868 -2.4775312 -0.010483641
H 2.325119 2.9474587 -0.18460743
H 1.0375156 2.9152148 -1.4098282
H 0.62174404 3.1357305 0.31020325
H -0.7415116 1.2616462 0.23855741
H 0.2613201 -0.13175139 -2.311148
H -1.4386866 0.020580914 -1.830921
H -0.51408327 1.4632785 -2.2541778
H 0.74214274 -1.3887812 -0.15160713
H 1.5264606 -0.06377039 1.8691162
H -0.13751054 -0.01772103 2.471543
H 0.7022836 -1.5714113 2.329881
H -2.0754573 -0.78742445 0.96328056
