title
 OpenBabel02282109583D

 22 21  0  0  1  0  0  0  0  0999 V2000
   -0.7144    2.0252   -0.4430 C   0  0  0  0  0  0  0  0  0  0  0  0
   -0.4443    0.5136   -0.4814 C   0  0  1  0  0  0  0  0  0  0  0  0
    0.3549    0.1800   -1.7475 C   0  0  0  0  0  0  0  0  0  0  0  0
   -0.4536    0.4820   -2.8781 O   0  0  0  0  0  0  0  0  0  0  0  0
    0.2657   -0.0235    0.7885 C   0  0  1  0  0  0  0  0  0  0  0  0
   -0.2451    0.6070    2.0927 C   0  0  0  0  0  0  0  0  0  0  0  0
    0.1443   -1.5494    0.8893 C   0  0  0  0  0  0  0  0  0  0  0  0
    1.0062   -1.9980    1.9281 O   0  0  0  0  0  0  0  0  0  0  0  0
    0.2113    2.5849   -0.2598 H   0  0  0  0  0  0  0  0  0  0  0  0
   -1.1191    2.3487   -1.4043 H   0  0  0  0  0  0  0  0  0  0  0  0
   -1.4289    2.2953    0.3379 H   0  0  0  0  0  0  0  0  0  0  0  0
   -1.4133    0.0014   -0.5767 H   0  0  0  0  0  0  0  0  0  0  0  0
    1.2823    0.7772   -1.7525 H   0  0  0  0  0  0  0  0  0  0  0  0
    0.6498   -0.8789   -1.7596 H   0  0  0  0  0  0  0  0  0  0  0  0
    0.0757    0.3504   -3.6696 H   0  0  0  0  0  0  0  0  0  0  0  0
    1.3392    0.2020    0.7042 H   0  0  0  0  0  0  0  0  0  0  0  0
   -1.3319    0.4892    2.1865 H   0  0  0  0  0  0  0  0  0  0  0  0
    0.2225    0.1112    2.9461 H   0  0  0  0  0  0  0  0  0  0  0  0
   -0.0179    1.6740    2.1498 H   0  0  0  0  0  0  0  0  0  0  0  0
   -0.9054   -1.8110    1.1045 H   0  0  0  0  0  0  0  0  0  0  0  0
    0.4105   -2.0294   -0.0631 H   0  0  0  0  0  0  0  0  0  0  0  0
    0.8690   -2.9421    2.0453 H   0  0  0  0  0  0  0  0  0  0  0  0
  1  9  1  0  0  0  0
  1 11  1  0  0  0  0
  2 12  1  6  0  0  0
  2  1  1  0  0  0  0
  2  5  1  0  0  0  0
  3  2  1  0  0  0  0
  4  3  1  0  0  0  0
  5 16  1  6  0  0  0
  5  7  1  0  0  0  0
  5  6  1  0  0  0  0
  6 19  1  0  0  0  0
  6 17  1  0  0  0  0
  6 18  1  0  0  0  0
  7 20  1  0  0  0  0
  7  8  1  0  0  0  0
  8 22  1  0  0  0  0
 10  1  1  0  0  0  0
 13  3  1  0  0  0  0
 14  3  1  0  0  0  0
 15  4  1  0  0  0  0
 21  7  1  0  0  0  0
M  END
