22
title
C -0.7143595 2.0252173 -0.44296378
C -0.444334 0.51357174 -0.48137346
C 0.35486317 0.18000118 -1.7475457
O -0.45364094 0.48204073 -2.8781304
C 0.26571202 -0.023489038 0.7885053
C -0.24513863 0.6070433 2.0926983
C 0.14433128 -1.5493594 0.88928306
O 1.0061629 -1.9979674 1.9280922
H 0.21132201 2.5849347 -0.25980204
H -1.1191373 2.3487303 -1.404336
H -1.4289485 2.2952795 0.3378631
H -1.4133291 0.0014192666 -0.57670164
H 1.2822723 0.77716714 -1.7525245
H 0.64979064 -0.8789196 -1.7596426
H 0.07566565 0.3503714 -3.669634
H 1.3392012 0.20200364 0.7041743
H -1.3318936 0.48920104 2.1864767
H 0.22246063 0.111180685 2.9460537
H -0.017916767 1.6739861 2.149839
H -0.90541875 -1.8109633 1.1044749
H 0.41050005 -2.0294425 -0.06314385
H 0.86902046 -2.9421225 2.0453262
