26
title
C -0.8228227 2.9130569 -1.1675123
C -0.65359026 1.3896995 -1.222094
C -0.11360878 0.75302184 0.07562141
C -1.0304823 1.0956635 1.262922
C 0.09121549 -0.7872581 -0.03470392
C 0.66143817 -1.2351995 -1.3907218
C 0.99237686 -1.3095026 1.1078176
C 0.8925262 -2.8174677 1.3640041
H 0.11052328 3.4034402 -0.8668153
H -1.0992806 3.3058317 -2.151232
H -1.6007577 3.2210474 -0.46325344
H -1.6174889 0.9256063 -1.4763173
H 0.024138628 1.1547791 -2.0482335
H 0.8758237 1.1984003 0.2671576
H -2.0591362 0.77400094 1.0574069
H -0.7131737 0.6076833 2.187896
H -1.0530143 2.1706314 1.4600265
H -0.9001569 -1.2529774 0.07941906
H 0.8743835 -2.3081057 -1.3892092
H -0.029391052 -1.0469041 -2.2159472
H 1.6014187 -0.71525675 -1.6134406
H 2.03363 -1.0440013 0.8774994
H 0.75257653 -0.7890827 2.0406234
H 1.5462272 -3.117858 2.189237
H -0.13105214 -3.1032257 1.6316729
H 1.1815349 -3.4080067 0.48911375
