title
 OpenBabel02282109583D

 26 25  0  0  1  0  0  0  0  0999 V2000
   -0.8228    2.9131   -1.1675 C   0  0  0  0  0  0  0  0  0  0  0  0
   -0.6536    1.3897   -1.2221 C   0  0  0  0  0  0  0  0  0  0  0  0
   -0.1136    0.7530    0.0756 C   0  0  1  0  0  0  0  0  0  0  0  0
   -1.0305    1.0957    1.2629 C   0  0  0  0  0  0  0  0  0  0  0  0
    0.0912   -0.7873   -0.0347 C   0  0  1  0  0  0  0  0  0  0  0  0
    0.6614   -1.2352   -1.3907 C   0  0  0  0  0  0  0  0  0  0  0  0
    0.9924   -1.3095    1.1078 C   0  0  0  0  0  0  0  0  0  0  0  0
    0.8925   -2.8175    1.3640 C   0  0  0  0  0  0  0  0  0  0  0  0
    0.1105    3.4034   -0.8668 H   0  0  0  0  0  0  0  0  0  0  0  0
   -1.0993    3.3058   -2.1512 H   0  0  0  0  0  0  0  0  0  0  0  0
   -1.6008    3.2210   -0.4633 H   0  0  0  0  0  0  0  0  0  0  0  0
   -1.6175    0.9256   -1.4763 H   0  0  0  0  0  0  0  0  0  0  0  0
    0.0241    1.1548   -2.0482 H   0  0  0  0  0  0  0  0  0  0  0  0
    0.8758    1.1984    0.2672 H   0  0  0  0  0  0  0  0  0  0  0  0
   -2.0591    0.7740    1.0574 H   0  0  0  0  0  0  0  0  0  0  0  0
   -0.7132    0.6077    2.1879 H   0  0  0  0  0  0  0  0  0  0  0  0
   -1.0530    2.1706    1.4600 H   0  0  0  0  0  0  0  0  0  0  0  0
   -0.9002   -1.2530    0.0794 H   0  0  0  0  0  0  0  0  0  0  0  0
    0.8744   -2.3081   -1.3892 H   0  0  0  0  0  0  0  0  0  0  0  0
   -0.0294   -1.0469   -2.2159 H   0  0  0  0  0  0  0  0  0  0  0  0
    1.6014   -0.7153   -1.6134 H   0  0  0  0  0  0  0  0  0  0  0  0
    2.0336   -1.0440    0.8775 H   0  0  0  0  0  0  0  0  0  0  0  0
    0.7526   -0.7891    2.0406 H   0  0  0  0  0  0  0  0  0  0  0  0
    1.5462   -3.1179    2.1892 H   0  0  0  0  0  0  0  0  0  0  0  0
   -0.1311   -3.1032    1.6317 H   0  0  0  0  0  0  0  0  0  0  0  0
    1.1815   -3.4080    0.4891 H   0  0  0  0  0  0  0  0  0  0  0  0
  1  9  1  0  0  0  0
  1 11  1  0  0  0  0
  2  1  1  0  0  0  0
  2  3  1  0  0  0  0
  3 14  1  1  0  0  0
  3  4  1  0  0  0  0
  4 17  1  0  0  0  0
  4 16  1  0  0  0  0
  5  3  1  0  0  0  0
  5 18  1  1  0  0  0
  5  7  1  0  0  0  0
  6 19  1  0  0  0  0
  6  5  1  0  0  0  0
  7  8  1  0  0  0  0
  7 23  1  0  0  0  0
  8 25  1  0  0  0  0
  8 24  1  0  0  0  0
 10  1  1  0  0  0  0
 12  2  1  0  0  0  0
 13  2  1  0  0  0  0
 15  4  1  0  0  0  0
 20  6  1  0  0  0  0
 21  6  1  0  0  0  0
 22  7  1  0  0  0  0
 26  8  1  0  0  0  0
M  END
