24
title
C -0.90019923 2.8653972 -1.3284883
C -0.9259823 1.341492 -1.1623634
C -0.10910054 0.8050954 0.034016207
C -0.7603529 1.2375234 1.3594738
C 0.08974192 -0.7321661 -0.06926887
C 0.9637887 -1.1305745 -1.2705206
C 0.6890606 -1.3300314 1.209829
O 0.81222063 -2.7369902 1.0335976
H 0.12723777 3.2326472 -1.4319243
H -1.4498123 3.1658738 -2.2262833
H -1.3546573 3.3876665 -0.48134524
H -1.9655337 1.0001578 -1.0589197
H -0.5533919 0.8950653 -2.0888455
H 0.89030653 1.2651609 -0.014446303
H -0.12045517 1.0376654 2.2229378
H -0.97041786 2.3104494 1.3633384
H -1.7119422 0.7154053 1.518869
H -0.9009062 -1.1945777 -0.19341426
H 1.9391731 -0.63017195 -1.2205702
H 1.1399059 -2.2074842 -1.2649986
H 0.503738 -0.8690143 -2.2261426
H 1.6730443 -0.8684781 1.4049581
H 0.045563016 -1.1140895 2.0721116
H 1.172722 -3.1077702 1.843764
