title
 OpenBabel02282109583D

 24 23  0  0  1  0  0  0  0  0999 V2000
   -0.7558    2.8565    1.2975 C   0  0  0  0  0  0  0  0  0  0  0  0
   -0.7941    1.3262    1.2104 C   0  0  0  0  0  0  0  0  0  0  0  0
   -0.0022    0.7355    0.0280 C   0  0  1  0  0  0  0  0  0  0  0  0
    1.4733    1.1626    0.0511 C   0  0  0  0  0  0  0  0  0  0  0  0
   -0.1066   -0.8029   -0.0290 C   0  0  1  0  0  0  0  0  0  0  0  0
   -1.5427   -1.3361   -0.0299 C   0  0  0  0  0  0  0  0  0  0  0  0
    0.5675   -1.2081   -1.2204 O   0  0  0  0  0  0  0  0  0  0  0  0
    1.0626   -2.5243   -1.2056 C   0  0  0  0  0  0  0  0  0  0  0  0
    0.2505    3.2327    1.5015 H   0  0  0  0  0  0  0  0  0  0  0  0
   -1.0988    3.3137    0.3623 H   0  0  0  0  0  0  0  0  0  0  0  0
   -1.4089    3.2142    2.0998 H   0  0  0  0  0  0  0  0  0  0  0  0
   -0.4108    0.8999    2.1488 H   0  0  0  0  0  0  0  0  0  0  0  0
   -1.8412    1.0144    1.1391 H   0  0  0  0  0  0  0  0  0  0  0  0
   -0.4524    1.1072   -0.9045 H   0  0  0  0  0  0  0  0  0  0  0  0
    2.0237    0.6649   -0.7488 H   0  0  0  0  0  0  0  0  0  0  0  0
    1.5830    2.2421   -0.0809 H   0  0  0  0  0  0  0  0  0  0  0  0
    1.9413    0.8954    1.0073 H   0  0  0  0  0  0  0  0  0  0  0  0
    0.4311   -1.2196    0.8416 H   0  0  0  0  0  0  0  0  0  0  0  0
   -2.1300   -0.8548   -0.8188 H   0  0  0  0  0  0  0  0  0  0  0  0
   -1.5540   -2.4147   -0.2113 H   0  0  0  0  0  0  0  0  0  0  0  0
   -2.0384   -1.1643    0.9289 H   0  0  0  0  0  0  0  0  0  0  0  0
    1.7581   -2.6892   -0.3673 H   0  0  0  0  0  0  0  0  0  0  0  0
    0.2663   -3.2811   -1.1413 H   0  0  0  0  0  0  0  0  0  0  0  0
    1.6028   -2.6759   -2.1440 H   0  0  0  0  0  0  0  0  0  0  0  0
  1  9  1  0  0  0  0
  1 11  1  0  0  0  0
  2  1  1  0  0  0  0
  2 12  1  0  0  0  0
  3 14  1  6  0  0  0
  3  4  1  0  0  0  0
  3  2  1  0  0  0  0
  4 17  1  0  0  0  0
  5  3  1  0  0  0  0
  5 18  1  1  0  0  0
  6  5  1  0  0  0  0
  6 21  1  0  0  0  0
  7  8  1  0  0  0  0
  7  5  1  0  0  0  0
  8 23  1  0  0  0  0
  8 22  1  0  0  0  0
 10  1  1  0  0  0  0
 13  2  1  0  0  0  0
 15  4  1  0  0  0  0
 16  4  1  0  0  0  0
 19  6  1  0  0  0  0
 20  6  1  0  0  0  0
 24  8  1  0  0  0  0
M  END
