title
 OpenBabel02282109583D

 22 21  0  0  1  0  0  0  0  0999 V2000
   -0.6196    2.8668    1.3939 C   0  0  0  0  0  0  0  0  0  0  0  0
   -0.7252    1.3423    1.2980 C   0  0  0  0  0  0  0  0  0  0  0  0
   -0.0029    0.7673    0.0721 C   0  0  1  0  0  0  0  0  0  0  0  0
    1.3624    1.1959    0.0453 O   0  0  0  0  0  0  0  0  0  0  0  0
   -0.1032   -0.7675   -0.0453 C   0  0  1  0  0  0  0  0  0  0  0  0
   -1.5507   -1.2796   -0.0778 C   0  0  0  0  0  0  0  0  0  0  0  0
    0.6622   -1.2561   -1.2790 C   0  0  0  0  0  0  0  0  0  0  0  0
    0.7001   -2.6783   -1.2423 O   0  0  0  0  0  0  0  0  0  0  0  0
    0.4257    3.1848    1.4047 H   0  0  0  0  0  0  0  0  0  0  0  0
   -1.1013    3.3476    0.5351 H   0  0  0  0  0  0  0  0  0  0  0  0
   -1.1058    3.2392    2.3006 H   0  0  0  0  0  0  0  0  0  0  0  0
   -0.3023    0.8789    2.2023 H   0  0  0  0  0  0  0  0  0  0  0  0
   -1.7791    1.0473    1.2694 H   0  0  0  0  0  0  0  0  0  0  0  0
   -0.4388    1.2152   -0.8326 H   0  0  0  0  0  0  0  0  0  0  0  0
    1.7911    0.8379    0.8314 H   0  0  0  0  0  0  0  0  0  0  0  0
    0.4000   -1.2038    0.8317 H   0  0  0  0  0  0  0  0  0  0  0  0
   -1.5565   -2.3454   -0.3158 H   0  0  0  0  0  0  0  0  0  0  0  0
   -2.0610   -1.1423    0.8786 H   0  0  0  0  0  0  0  0  0  0  0  0
   -2.1323   -0.7586   -0.8487 H   0  0  0  0  0  0  0  0  0  0  0  0
    0.1506   -0.8973   -2.1887 H   0  0  0  0  0  0  0  0  0  0  0  0
    1.6720   -0.8288   -1.2765 H   0  0  0  0  0  0  0  0  0  0  0  0
    1.1789   -2.9834   -2.0179 H   0  0  0  0  0  0  0  0  0  0  0  0
  1  9  1  0  0  0  0
  1 11  1  0  0  0  0
  2  1  1  0  0  0  0
  2 12  1  0  0  0  0
  3 14  1  6  0  0  0
  3  2  1  0  0  0  0
  4  3  1  0  0  0  0
  4 15  1  0  0  0  0
  5  3  1  0  0  0  0
  5 16  1  1  0  0  0
  6  5  1  0  0  0  0
  6 18  1  0  0  0  0
  7 21  1  0  0  0  0
  7  8  1  0  0  0  0
  7  5  1  0  0  0  0
 10  1  1  0  0  0  0
 13  2  1  0  0  0  0
 17  6  1  0  0  0  0
 19  6  1  0  0  0  0
 20  7  1  0  0  0  0
 22  8  1  0  0  0  0
M  END
