title
 OpenBabel02282109583D

 22 21  0  0  1  0  0  0  0  0999 V2000
    1.3443    2.6468   -0.5308 C   0  0  0  0  0  0  0  0  0  0  0  0
    1.2724    1.2468   -0.4150 O   0  0  0  0  0  0  0  0  0  0  0  0
   -0.0467    0.7068   -0.4466 C   0  0  1  0  0  0  0  0  0  0  0  0
   -0.5442    0.6035   -1.8924 C   0  0  0  0  0  0  0  0  0  0  0  0
    0.0259   -0.6419    0.2941 C   0  0  1  0  0  0  0  0  0  0  0  0
    0.4984   -0.4508    1.7414 C   0  0  0  0  0  0  0  0  0  0  0  0
   -1.3087   -1.3914    0.2527 C   0  0  0  0  0  0  0  0  0  0  0  0
   -1.1438   -2.6245    0.9403 O   0  0  0  0  0  0  0  0  0  0  0  0
    2.3965    2.9243   -0.4266 H   0  0  0  0  0  0  0  0  0  0  0  0
    0.9862    3.0153   -1.5038 H   0  0  0  0  0  0  0  0  0  0  0  0
    0.7660    3.1512    0.2595 H   0  0  0  0  0  0  0  0  0  0  0  0
   -0.7183    1.3787    0.1172 H   0  0  0  0  0  0  0  0  0  0  0  0
    0.0400   -0.1378   -2.4470 H   0  0  0  0  0  0  0  0  0  0  0  0
   -1.5998    0.3205   -1.9369 H   0  0  0  0  0  0  0  0  0  0  0  0
   -0.4462    1.5646   -2.4053 H   0  0  0  0  0  0  0  0  0  0  0  0
    0.7639   -1.2586   -0.2368 H   0  0  0  0  0  0  0  0  0  0  0  0
   -0.2171    0.1629    2.3040 H   0  0  0  0  0  0  0  0  0  0  0  0
    0.5800   -1.4148    2.2460 H   0  0  0  0  0  0  0  0  0  0  0  0
    1.4669    0.0512    1.7629 H   0  0  0  0  0  0  0  0  0  0  0  0
   -2.0919   -0.7755    0.7287 H   0  0  0  0  0  0  0  0  0  0  0  0
   -1.6170   -1.5722   -0.7864 H   0  0  0  0  0  0  0  0  0  0  0  0
   -1.9820   -3.0943    0.9158 H   0  0  0  0  0  0  0  0  0  0  0  0
  1  9  1  0  0  0  0
  1  2  1  0  0  0  0
  1 11  1  0  0  0  0
  3  2  1  0  0  0  0
  3 12  1  1  0  0  0
  3  5  1  0  0  0  0
  4  3  1  0  0  0  0
  5 16  1  6  0  0  0
  5  6  1  0  0  0  0
  6 19  1  0  0  0  0
  6 18  1  0  0  0  0
  6 17  1  0  0  0  0
  7  5  1  0  0  0  0
  7 20  1  0  0  0  0
  7  8  1  0  0  0  0
 10  1  1  0  0  0  0
 13  4  1  0  0  0  0
 14  4  1  0  0  0  0
 15  4  1  0  0  0  0
 21  7  1  0  0  0  0
 22  8  1  0  0  0  0
M  END
