22
title
C 1.3442922 2.6467788 -0.5307903
O 1.2723951 1.2467825 -0.4149974
C -0.04665799 0.70679456 -0.44663477
C -0.5442491 0.6035167 -1.892355
C 0.025901487 -0.6419029 0.29405388
C 0.49843872 -0.45077026 1.7414466
C -1.3086779 -1.3914074 0.25274828
O -1.143755 -2.6245139 0.9403403
H 2.3965242 2.924333 -0.42661184
H 0.98616576 3.0153174 -1.503834
H 0.765977 3.1512034 0.25948444
H -0.71832556 1.3787125 0.117230155
H 0.039971877 -0.13779317 -2.4469943
H -1.599844 0.32054985 -1.9369382
H -0.44621986 1.5645595 -2.4053047
H 0.76391417 -1.2586106 -0.23684452
H -0.21707149 0.16287126 2.3039503
H 0.5799824 -1.4148258 2.2460418
H 1.466855 0.05118335 1.7628738
H -2.091899 -0.775494 0.7287073
H -1.6169863 -1.5722383 -0.7864309
H -1.9820039 -3.094287 0.9157547
