title
 OpenBabel02282109583D

  9  8  0  0  0  0  0  0  0  0999 V2000
    1.0043   -2.1556   -0.0126 O   0  0  0  0  0  0  0  0  0  0  0  0
    0.9983   -0.9429   -0.0092 C   0  0  0  0  0  0  0  0  0  0  0  0
    2.1920   -0.1322   -0.0155 C   0  0  0  0  0  0  0  0  0  0  0  0
    3.1855    0.5470   -0.0207 C   0  0  0  0  0  0  0  0  0  0  0  0
   -0.2430   -0.1866    0.0013 C   0  0  0  0  0  0  0  0  0  0  0  0
   -1.2916    0.4164    0.0100 C   0  0  0  0  0  0  0  0  0  0  0  0
   -2.4709    1.1024    0.0199 C   0  0  0  0  0  0  0  0  0  0  0  0
   -3.4724    1.6906    0.0283 N   0  0  0  0  0  0  0  0  0  0  0  0
    4.0686    1.1400   -0.0253 H   0  0  0  0  0  0  0  0  0  0  0  0
  1  2  2  0  0  0  0
  2  5  1  0  0  0  0
  3  2  1  0  0  0  0
  4  3  3  0  0  0  0
  5  6  3  0  0  0  0
  6  7  1  0  0  0  0
  7  8  3  0  0  0  0
  9  4  1  0  0  0  0
M  END
