9
title
O 1.0042872 -2.1555734 -0.012602516
C 0.99830705 -0.94290024 -0.009209522
C 2.1920142 -0.1322215 -0.015469441
C 3.1854699 0.5469957 -0.020660788
C -0.24301046 -0.1866229 0.001265354
C -1.2915707 0.41642553 0.010032857
C -2.4709382 1.1023678 0.019924773
N -3.47241 1.6906203 0.02831789
H 4.068568 1.1400043 -0.0252624
