title
 OpenBabel02282109583D

  8  7  0  0  0  0  0  0  0  0999 V2000
    1.0151   -2.1491   -0.0129 O   0  0  0  0  0  0  0  0  0  0  0  0
    0.9653   -0.9434   -0.0092 C   0  0  0  0  0  0  0  0  0  0  0  0
    2.1770   -0.1132   -0.0151 C   0  0  0  0  0  0  0  0  0  0  0  0
    3.1319    0.5385   -0.0198 N   0  0  0  0  0  0  0  0  0  0  0  0
   -0.2673   -0.1928    0.0013 C   0  0  0  0  0  0  0  0  0  0  0  0
   -1.3132    0.4141    0.0101 C   0  0  0  0  0  0  0  0  0  0  0  0
   -2.4917    1.1017    0.0200 C   0  0  0  0  0  0  0  0  0  0  0  0
   -3.4941    1.6878    0.0284 N   0  0  0  0  0  0  0  0  0  0  0  0
  1  2  2  0  0  0  0
  2  5  1  0  0  0  0
  3  2  1  0  0  0  0
  4  3  3  0  0  0  0
  5  6  3  0  0  0  0
  6  7  1  0  0  0  0
  7  8  3  0  0  0  0
M  END
