title
 OpenBabel02282109583D

 13 12  0  0  0  0  0  0  0  0999 V2000
    0.9625    1.8330    0.1194 N   0  0  0  0  0  0  0  0  0  0  0  0
    0.9827    0.5562    0.0140 C   0  0  0  0  0  0  0  0  0  0  0  0
   -0.1587   -0.1827   -0.0394 N   0  0  0  0  0  0  0  0  0  0  0  0
   -1.4584    0.4615    0.1096 C   0  0  0  0  0  0  0  0  0  0  0  0
   -2.5310   -0.5190    0.0227 C   0  0  0  0  0  0  0  0  0  0  0  0
   -3.4050   -1.3395   -0.0436 C   0  0  0  0  0  0  0  0  0  0  0  0
    2.2043   -0.2301   -0.0737 C   0  0  0  0  0  0  0  0  0  0  0  0
    3.1974   -0.8189   -0.1349 N   0  0  0  0  0  0  0  0  0  0  0  0
    1.9022    2.2199    0.1166 H   0  0  0  0  0  0  0  0  0  0  0  0
   -0.1100   -1.1859    0.0072 H   0  0  0  0  0  0  0  0  0  0  0  0
   -1.5039    1.0008    1.0662 H   0  0  0  0  0  0  0  0  0  0  0  0
   -1.5664    1.2271   -0.6687 H   0  0  0  0  0  0  0  0  0  0  0  0
   -4.1886   -2.0543   -0.1035 H   0  0  0  0  0  0  0  0  0  0  0  0
  2  1  2  0  0  0  0
  3 10  1  0  0  0  0
  3  2  1  0  0  0  0
  3  4  1  0  0  0  0
  4 11  1  0  0  0  0
  5  4  1  0  0  0  0
  6  5  3  0  0  0  0
  7  2  1  0  0  0  0
  8  7  3  0  0  0  0
  9  1  1  0  0  0  0
 12  4  1  0  0  0  0
 13  6  1  0  0  0  0
M  END
