14
title
O -1.1392076 -1.6400567 0.0035978449
C -1.105699 -0.42840743 0.0075363233
C 0.18767327 0.3666935 -2.788883e-05
C 1.4321115 -0.5353044 -0.014041862
C 2.6681724 0.23598659 -0.020829676
C 3.6735096 0.8945209 -0.026655516
C -2.3211937 0.36910713 0.020200202
C -3.3137808 1.0498351 0.030653013
H 0.17690521 1.0363985 -0.86892813
H 0.19138962 1.0291239 0.8745097
H 1.4054296 -1.2012784 0.8555347
H 1.3911605 -1.1938865 -0.8886952
H 4.5714674 1.4610416 -0.032215647
H -4.2014003 1.6350836 0.040407564
