13
title
O -1.1581702 -1.6353067 0.0035288166
C -1.0758504 -0.43338782 0.007476826
C 0.21376401 0.35129005 -0.00021215212
C 1.454711 -0.5559313 -0.014724418
C 2.6895068 0.2167993 -0.021806909
C 3.6926086 0.8779306 -0.027613938
C -2.3015437 0.39732593 0.02086998
N -3.2490275 1.0599006 0.03132342
H 0.20101982 1.0227083 -0.8686232
H 0.21590537 1.0150563 0.87416923
H 1.427336 -1.2205037 0.8559954
H 1.412518 -1.2128522 -0.89065355
H 4.5893884 1.4467121 -0.03307165
