title
 OpenBabel02282109583D

 12 11  0  0  0  0  0  0  0  0999 V2000
   -1.1543   -1.6320    0.0036 O   0  0  0  0  0  0  0  0  0  0  0  0
   -1.0945   -0.4290    0.0077 C   0  0  0  0  0  0  0  0  0  0  0  0
    0.1892    0.3697    0.0001 C   0  0  0  0  0  0  0  0  0  0  0  0
    1.4233   -0.5459   -0.0147 C   0  0  0  0  0  0  0  0  0  0  0  0
    2.6642    0.2236   -0.0217 C   0  0  0  0  0  0  0  0  0  0  0  0
    3.6370    0.8464   -0.0270 N   0  0  0  0  0  0  0  0  0  0  0  0
   -2.3265    0.3856    0.0211 C   0  0  0  0  0  0  0  0  0  0  0  0
   -3.2808    1.0382    0.0314 N   0  0  0  0  0  0  0  0  0  0  0  0
    0.1756    1.0388   -0.8695 H   0  0  0  0  0  0  0  0  0  0  0  0
    0.1907    1.0309    0.8758 H   0  0  0  0  0  0  0  0  0  0  0  0
    1.4119   -1.2062    0.8580 H   0  0  0  0  0  0  0  0  0  0  0  0
    1.3970   -1.1981   -0.8931 H   0  0  0  0  0  0  0  0  0  0  0  0
  1  2  2  0  0  0  0
  2  7  1  0  0  0  0
  3  2  1  0  0  0  0
  3 10  1  0  0  0  0
  4  3  1  0  0  0  0
  4 11  1  0  0  0  0
  5  4  1  0  0  0  0
  6  5  3  0  0  0  0
  7  8  3  0  0  0  0
  9  3  1  0  0  0  0
 12  4  1  0  0  0  0
M  END
