12
title
O -0.98344576 -1.719155 0.0040947716
C -0.9828071 -0.513261 0.006213822
O 0.12496848 0.25130457 -0.0018355934
C 1.3630844 -0.49624854 -0.013799596
C 2.4715998 0.44069332 -0.018376635
C 3.411784 1.1866628 -0.022452688
C -2.1723845 0.30758435 0.01843191
C -3.1929595 0.9408807 0.028750964
H 1.3944691 -1.1499258 0.8644566
H 1.3815244 -1.1430621 -0.89751464
H 4.2411795 1.8501045 -0.025979243
H -4.095456 1.5022782 0.03786238
