title
 OpenBabel02282109583D

  9  8  0  0  0  0  0  0  0  0999 V2000
   -2.8983   -1.8738    0.7200 O   0  0  0  0  0  0  0  0  0  0  0  0
   -2.4988   -1.1602   -0.1653 C   0  0  0  0  0  0  0  0  0  0  0  0
   -1.2669   -0.3998   -0.0755 C   0  0  0  0  0  0  0  0  0  0  0  0
   -0.2427    0.2410   -0.0167 C   0  0  0  0  0  0  0  0  0  0  0  0
    0.9676    1.0165    0.0657 C   0  0  0  0  0  0  0  0  0  0  0  0
    1.0194    2.1507    0.4757 O   0  0  0  0  0  0  0  0  0  0  0  0
    2.1682    0.3069   -0.4034 C   0  0  0  0  0  0  0  0  0  0  0  0
    3.1132   -0.2460   -0.7747 N   0  0  0  0  0  0  0  0  0  0  0  0
   -3.0420   -1.0284   -1.1205 H   0  0  0  0  0  0  0  0  0  0  0  0
  2  3  1  0  0  0  0
  2  1  2  0  0  0  0
  3  4  3  0  0  0  0
  4  5  1  0  0  0  0
  5  6  2  0  0  0  0
  7  5  1  0  0  0  0
  8  7  3  0  0  0  0
  9  2  1  0  0  0  0
M  END
