10
title
O -1.8532344 -1.672532 0.26487723
C -0.7958705 -2.1277196 -0.071574174
C 0.47120413 -1.2875496 -0.29338604
O 1.4925472 -1.847509 -0.6348459
C 0.35426924 0.12718226 -0.07637372
C 0.2661235 1.3237872 0.104676716
C 0.16312753 2.6601167 0.30814087
C 0.07364641 3.8509173 0.48881072
H -0.6114562 -3.2055812 -0.2612754
H -0.008808033 4.8983464 0.6487089
