title
 OpenBabel02282109583D

 13 12  0  0  0  0  0  0  0  0999 V2000
    0.8496    1.7030   -0.0935 N   0  0  0  0  0  0  0  0  0  0  0  0
    0.8957    0.4313    0.0003 C   0  0  0  0  0  0  0  0  0  0  0  0
   -0.2369   -0.3395    0.0619 N   0  0  0  0  0  0  0  0  0  0  0  0
   -1.5277    0.3153    0.1715 C   0  0  0  0  0  0  0  0  0  0  0  0
   -2.6136   -0.6493    0.0003 C   0  0  0  0  0  0  0  0  0  0  0  0
   -3.4661   -1.4192   -0.1169 N   0  0  0  0  0  0  0  0  0  0  0  0
    2.1869   -0.3614    0.0080 C   0  0  0  0  0  0  0  0  0  0  0  0
    3.2624    0.1693   -0.0582 O   0  0  0  0  0  0  0  0  0  0  0  0
    1.8031    2.0583   -0.1842 H   0  0  0  0  0  0  0  0  0  0  0  0
   -0.1629   -1.2807    0.4147 H   0  0  0  0  0  0  0  0  0  0  0  0
   -1.6509    0.8339    1.1336 H   0  0  0  0  0  0  0  0  0  0  0  0
   -1.5875    1.0902   -0.5999 H   0  0  0  0  0  0  0  0  0  0  0  0
    2.0832   -1.4672    0.0775 H   0  0  0  0  0  0  0  0  0  0  0  0
  1  2  2  0  0  0  0
  2  7  1  0  0  0  0
  2  3  1  0  0  0  0
  3  4  1  0  0  0  0
  3 10  1  0  0  0  0
  4 11  1  0  0  0  0
  5  4  1  0  0  0  0
  6  5  3  0  0  0  0
  7 13  1  0  0  0  0
  8  7  2  0  0  0  0
  9  1  1  0  0  0  0
 12  4  1  0  0  0  0
M  END
