title
 OpenBabel02282109583D

 14 13  0  0  0  0  0  0  0  0999 V2000
   -2.3888   -1.5615    0.2530 O   0  0  0  0  0  0  0  0  0  0  0  0
   -1.3332   -2.0244   -0.0884 C   0  0  0  0  0  0  0  0  0  0  0  0
   -0.0477   -1.1944   -0.2267 C   0  0  0  0  0  0  0  0  0  0  0  0
    0.9604   -1.7632   -0.5779 O   0  0  0  0  0  0  0  0  0  0  0  0
   -0.1431    0.2776    0.0888 C   0  0  0  0  0  0  0  0  0  0  0  0
    1.1979    1.0074   -0.0829 C   0  0  0  0  0  0  0  0  0  0  0  0
    1.0952    2.4276    0.2251 C   0  0  0  0  0  0  0  0  0  0  0  0
    0.9843    3.5957    0.4847 C   0  0  0  0  0  0  0  0  0  0  0  0
   -1.1804   -3.0956   -0.3377 H   0  0  0  0  0  0  0  0  0  0  0  0
   -0.9219    0.7165   -0.5470 H   0  0  0  0  0  0  0  0  0  0  0  0
   -0.5302    0.3869    1.1095 H   0  0  0  0  0  0  0  0  0  0  0  0
    1.9517    0.5355    0.5577 H   0  0  0  0  0  0  0  0  0  0  0  0
    1.5571    0.8685   -1.1090 H   0  0  0  0  0  0  0  0  0  0  0  0
    0.9024    4.6299    0.7106 H   0  0  0  0  0  0  0  0  0  0  0  0
  2  1  2  0  0  0  0
  3  2  1  0  0  0  0
  3  5  1  0  0  0  0
  4  3  2  0  0  0  0
  5 11  1  0  0  0  0
  6  5  1  0  0  0  0
  6  7  1  0  0  0  0
  6 12  1  0  0  0  0
  7  8  3  0  0  0  0
  8 14  1  0  0  0  0
  9  2  1  0  0  0  0
 10  5  1  0  0  0  0
 13  6  1  0  0  0  0
M  END
