13
title
O -2.3889475 -1.5934523 0.23017761
C -1.3399894 -2.0437407 -0.14545368
C -0.062457986 -1.2013463 -0.27108663
O 0.9492242 -1.7379098 -0.6579207
C -0.16713685 0.25875667 0.10414784
C 1.175012 0.9854164 -0.06594807
C 1.0834492 2.3970594 0.29581565
N 0.997359 3.51221 0.5851762
H -1.1890733 -3.1036608 -0.43695244
H -0.9547597 0.7189672 -0.5041779
H -0.5353097 0.32787326 1.134624
H 1.9430753 0.50562286 0.54889554
H 1.5198218 0.9012282 -1.1014123
