title
 OpenBabel02282109583D

 13 12  0  0  0  0  0  0  0  0999 V2000
   -2.0788   -1.6160    0.5286 O   0  0  0  0  0  0  0  0  0  0  0  0
   -1.1371   -1.9486   -0.1434 C   0  0  0  0  0  0  0  0  0  0  0  0
    0.1377   -1.1109   -0.2866 C   0  0  0  0  0  0  0  0  0  0  0  0
    1.0596   -1.5028   -0.9796 O   0  0  0  0  0  0  0  0  0  0  0  0
    0.0922    0.0402    0.4186 N   0  0  0  0  0  0  0  0  0  0  0  0
    1.1683    1.0199    0.3878 C   0  0  0  0  0  0  0  0  0  0  0  0
    0.6790    2.3705    0.1324 C   0  0  0  0  0  0  0  0  0  0  0  0
    0.2647    3.4822   -0.0536 C   0  0  0  0  0  0  0  0  0  0  0  0
   -1.0974   -2.8907   -0.7241 H   0  0  0  0  0  0  0  0  0  0  0  0
   -0.7597    0.2357    0.9252 H   0  0  0  0  0  0  0  0  0  0  0  0
    1.7275    1.0019    1.3331 H   0  0  0  0  0  0  0  0  0  0  0  0
    1.8585    0.6936   -0.3972 H   0  0  0  0  0  0  0  0  0  0  0  0
   -0.0928    4.4666   -0.2309 H   0  0  0  0  0  0  0  0  0  0  0  0
  2  1  2  0  0  0  0
  3  2  1  0  0  0  0
  3  5  1  0  0  0  0
  4  3  2  0  0  0  0
  5 10  1  0  0  0  0
  6  5  1  0  0  0  0
  6 11  1  0  0  0  0
  7  6  1  0  0  0  0
  8  7  3  0  0  0  0
  9  2  1  0  0  0  0
 12  6  1  0  0  0  0
 13  8  1  0  0  0  0
M  END
