11
title
O -1.6144577 -2.79027 -0.0009880149
C -1.4648536 -1.6033924 0.003729847
C -0.06108569 -0.97571814 -0.00445254
O 0.9760076 -1.5740122 -0.015737845
O -0.18244027 0.3708863 0.0027546335
C 1.0672373 1.0766959 -0.0039761243
C 0.7806586 2.5081477 0.0066593946
N 0.5890008 3.646206 0.014804918
H -2.297483 -0.8740032 0.013878234
H 1.6604744 0.7980399 0.8729035
H 1.6452154 0.8081796 -0.89411837
