title
 OpenBabel02282109583D

 13 12  0  0  0  0  0  0  0  0999 V2000
    0.4924    1.1869   -0.7792 N   0  0  0  0  0  0  0  0  0  0  0  0
    0.9328    0.1985   -0.0965 C   0  0  0  0  0  0  0  0  0  0  0  0
    0.1228   -0.5042    0.7496 N   0  0  0  0  0  0  0  0  0  0  0  0
   -1.2314   -0.0545    0.9926 C   0  0  0  0  0  0  0  0  0  0  0  0
   -2.1409   -0.2358   -0.2256 C   0  0  0  0  0  0  0  0  0  0  0  0
   -3.2334    0.2537   -0.2984 O   0  0  0  0  0  0  0  0  0  0  0  0
    2.3034   -0.2855   -0.1538 C   0  0  0  0  0  0  0  0  0  0  0  0
    3.4020   -0.6393   -0.2212 N   0  0  0  0  0  0  0  0  0  0  0  0
    1.2108    1.5846   -1.3775 H   0  0  0  0  0  0  0  0  0  0  0  0
    0.5433   -1.1800    1.3634 H   0  0  0  0  0  0  0  0  0  0  0  0
   -1.6482   -0.6488    1.8119 H   0  0  0  0  0  0  0  0  0  0  0  0
   -1.2641    1.0011    1.2853 H   0  0  0  0  0  0  0  0  0  0  0  0
   -1.7209   -0.8903   -1.0203 H   0  0  0  0  0  0  0  0  0  0  0  0
  1  2  2  0  0  0  0
  2  3  1  0  0  0  0
  3  4  1  0  0  0  0
  3 10  1  0  0  0  0
  4 12  1  0  0  0  0
  4 11  1  0  0  0  0
  5  4  1  0  0  0  0
  6  5  2  0  0  0  0
  7  2  1  0  0  0  0
  8  7  3  0  0  0  0
  9  1  1  0  0  0  0
 13  5  1  0  0  0  0
M  END
