title
 OpenBabel02282109583D

 12 11  0  0  0  0  0  0  0  0999 V2000
    1.5341    2.8833   -0.1439 N   0  0  0  0  0  0  0  0  0  0  0  0
    1.2738    1.6904    0.1516 C   0  0  0  0  0  0  0  0  0  0  0  0
    1.0047    0.8042   -0.8460 O   0  0  0  0  0  0  0  0  0  0  0  0
    0.6806   -0.5013   -0.4638 C   0  0  0  0  0  0  0  0  0  0  0  0
   -0.7273   -0.6169    0.1123 C   0  0  0  0  0  0  0  0  0  0  0  0
   -1.4293    0.3150    0.3954 O   0  0  0  0  0  0  0  0  0  0  0  0
   -1.1640   -2.0122    0.3294 C   0  0  0  0  0  0  0  0  0  0  0  0
   -1.4712   -3.1149    0.4922 N   0  0  0  0  0  0  0  0  0  0  0  0
    1.7292    3.4223    0.6968 H   0  0  0  0  0  0  0  0  0  0  0  0
    1.2507    1.2423    1.1532 H   0  0  0  0  0  0  0  0  0  0  0  0
    0.7517   -1.1315   -1.3566 H   0  0  0  0  0  0  0  0  0  0  0  0
    1.3818   -0.9193    0.2772 H   0  0  0  0  0  0  0  0  0  0  0  0
  1  2  2  0  0  0  0
  1  9  1  0  0  0  0
  2 10  1  0  0  0  0
  3  4  1  0  0  0  0
  3  2  1  0  0  0  0
  4  5  1  0  0  0  0
  4 12  1  0  0  0  0
  5  7  1  0  0  0  0
  5  6  2  0  0  0  0
  7  8  3  0  0  0  0
 11  4  1  0  0  0  0
M  END
