12
title
N 1.5340602 2.883275 -0.1439236
C 1.2738054 1.6903919 0.15158412
O 1.0047458 0.80417407 -0.84604394
C 0.6805811 -0.5013097 -0.46377325
C -0.7273303 -0.6169382 0.11226336
O -1.4293019 0.31504372 0.3954183
C -1.1639649 -2.0121984 0.32937
N -1.4712092 -3.1149137 0.49217933
H 1.7292273 3.4223163 0.69681513
H 1.2506953 1.2423196 1.1531879
H 0.7517087 -1.131514 -1.3566135
H 1.3817903 -0.9193409 0.277232
