14
title
O -1.9222395 -2.9420846 0.74695504
C -1.7400942 -1.7557466 0.8260513
C -0.38974386 -1.07857 0.7952384
C -0.32655555 0.008186264 -0.28284463
C 0.85867125 0.9477896 -0.105071284
O 1.5775694 0.9298305 0.8690959
C 1.0623206 1.8907956 -1.1908041
C 1.211804 2.661788 -2.1029215
H -2.5991285 -1.0504671 0.9363398
H -0.22133021 -0.60577184 1.7718275
H 0.38796407 -1.832591 0.6544193
H -0.2844444 -0.42094788 -1.2909368
H -1.2327535 0.632327 -0.2719389
H 1.3605164 3.3505788 -2.8992255
