title
 OpenBabel02282109583D

 13 12  0  0  0  0  0  0  0  0999 V2000
   -1.9141   -2.9530    0.8081 O   0  0  0  0  0  0  0  0  0  0  0  0
   -1.7638   -1.7613    0.8450 C   0  0  0  0  0  0  0  0  0  0  0  0
   -0.4220   -1.0596    0.8485 C   0  0  0  0  0  0  0  0  0  0  0  0
   -0.3330   -0.0100   -0.2635 C   0  0  0  0  0  0  0  0  0  0  0  0
    0.8582    0.9103   -0.1070 C   0  0  0  0  0  0  0  0  0  0  0  0
    1.6180    0.9093    0.8264 O   0  0  0  0  0  0  0  0  0  0  0  0
    1.0396    1.8698   -1.2184 C   0  0  0  0  0  0  0  0  0  0  0  0
    1.1646    2.6135   -2.0948 N   0  0  0  0  0  0  0  0  0  0  0  0
   -2.6402   -1.0714    0.8875 H   0  0  0  0  0  0  0  0  0  0  0  0
   -0.3049   -0.5561    1.8171 H   0  0  0  0  0  0  0  0  0  0  0  0
    0.3725   -1.8041    0.7632 H   0  0  0  0  0  0  0  0  0  0  0  0
   -0.2808   -0.4710   -1.2583 H   0  0  0  0  0  0  0  0  0  0  0  0
   -1.2297    0.6276   -0.2905 H   0  0  0  0  0  0  0  0  0  0  0  0
  1  2  2  0  0  0  0
  2  3  1  0  0  0  0
  2  9  1  0  0  0  0
  3 10  1  0  0  0  0
  4  5  1  0  0  0  0
  4  3  1  0  0  0  0
  5  6  2  0  0  0  0
  7  5  1  0  0  0  0
  8  7  3  0  0  0  0
 11  3  1  0  0  0  0
 12  4  1  0  0  0  0
 13  4  1  0  0  0  0
M  END
