title
 OpenBabel02282109583D

 12 11  0  0  0  0  0  0  0  0999 V2000
   -1.6290   -2.0873    1.7687 O   0  0  0  0  0  0  0  0  0  0  0  0
   -1.2137   -1.4631    0.8324 C   0  0  0  0  0  0  0  0  0  0  0  0
    0.2655   -1.4255    0.4643 C   0  0  0  0  0  0  0  0  0  0  0  0
    0.5401   -0.5021   -0.5952 O   0  0  0  0  0  0  0  0  0  0  0  0
    0.4264    0.7990   -0.2502 C   0  0  0  0  0  0  0  0  0  0  0  0
    0.0927    1.1825    0.8431 O   0  0  0  0  0  0  0  0  0  0  0  0
    0.7587    1.6593   -1.3601 C   0  0  0  0  0  0  0  0  0  0  0  0
    1.0232    2.4213   -2.2501 C   0  0  0  0  0  0  0  0  0  0  0  0
   -1.8779   -0.8952    0.1445 H   0  0  0  0  0  0  0  0  0  0  0  0
    0.8516   -1.1902    1.3563 H   0  0  0  0  0  0  0  0  0  0  0  0
    0.5651   -2.4036    0.0788 H   0  0  0  0  0  0  0  0  0  0  0  0
    1.2576    3.0960   -3.0376 H   0  0  0  0  0  0  0  0  0  0  0  0
  2  1  2  0  0  0  0
  3  2  1  0  0  0  0
  3 10  1  0  0  0  0
  4  5  1  0  0  0  0
  4  3  1  0  0  0  0
  5  6  2  0  0  0  0
  7  5  1  0  0  0  0
  8  7  3  0  0  0  0
  9  2  1  0  0  0  0
 11  3  1  0  0  0  0
 12  8  1  0  0  0  0
M  END
