12
title
O -1.6290432 -2.0873244 1.7686867
C -1.213654 -1.4630743 0.83236516
C 0.26549134 -1.4254802 0.46425894
O 0.5400964 -0.50211036 -0.5951768
C 0.42644164 0.7989713 -0.25018433
O 0.09271441 1.1824833 0.84306866
C 0.75870275 1.6592962 -1.3601047
C 1.0231836 2.4212978 -2.2501175
H -1.8778507 -0.8952342 0.14452776
H 0.8516395 -1.190228 1.3563179
H 0.5650935 -2.4036357 0.07878199
H 1.2576213 3.0960271 -3.0376112
