11
title
O -1.8581076 -2.6485682 1.4343567
C -1.5670686 -1.74721 0.6981262
C -0.2631614 -0.9791057 0.8377069
O -0.24065934 0.020751225 -0.19634864
C 0.84517646 0.7984905 -0.22556993
O 1.7849257 0.74111915 0.51653236
C 0.7373698 1.766937 -1.3211873
N 0.7023678 2.5498517 -2.1690726
H -2.2196753 -1.4070928 -0.1335487
H -0.19983397 -0.5080912 1.8239073
H 0.59213734 -1.6543231 0.7327745
