title
 OpenBabel02282109583D

 13 12  0  0  0  0  0  0  0  0999 V2000
   -2.6168   -1.6663    0.0127 O   0  0  0  0  0  0  0  0  0  0  0  0
   -2.5510   -0.4547    0.0206 C   0  0  0  0  0  0  0  0  0  0  0  0
   -1.3914    0.2485    0.0176 N   0  0  0  0  0  0  0  0  0  0  0  0
   -0.1071   -0.3979    0.0020 C   0  0  0  0  0  0  0  0  0  0  0  0
    0.9928    0.6488   -0.0056 C   0  0  0  0  0  0  0  0  0  0  0  0
    0.7537    1.8385    0.0011 O   0  0  0  0  0  0  0  0  0  0  0  0
    2.3417    0.1266   -0.0215 C   0  0  0  0  0  0  0  0  0  0  0  0
    3.4556   -0.3284   -0.0348 C   0  0  0  0  0  0  0  0  0  0  0  0
   -3.4391    0.2065    0.0316 H   0  0  0  0  0  0  0  0  0  0  0  0
   -1.3825    1.2586    0.0221 H   0  0  0  0  0  0  0  0  0  0  0  0
    0.0325   -1.0542    0.8726 H   0  0  0  0  0  0  0  0  0  0  0  0
    0.0140   -1.0479   -0.8761 H   0  0  0  0  0  0  0  0  0  0  0  0
    4.4456   -0.7167   -0.0473 H   0  0  0  0  0  0  0  0  0  0  0  0
  1  2  2  0  0  0  0
  2  9  1  0  0  0  0
  3  2  1  0  0  0  0
  3 10  1  0  0  0  0
  4  3  1  0  0  0  0
  4 11  1  0  0  0  0
  5  6  2  0  0  0  0
  5  4  1  0  0  0  0
  7  5  1  0  0  0  0
  8  7  3  0  0  0  0
 12  4  1  0  0  0  0
 13  8  1  0  0  0  0
M  END
