12
title
O -2.6113276 -1.6738966 0.03357901
C -2.5739849 -0.46290895 0.025637109
N -1.4226204 0.26074198 -0.0023957465
C -0.13863036 -0.38292632 -0.016317397
C 0.95819813 0.6530902 -0.0074055153
O 0.76647097 1.8437086 0.0070792027
C 2.3248522 0.104693204 -0.01924
N 3.3942473 -0.33421537 -0.028440142
H -3.4727688 0.1819736 0.03974209
H -1.4323206 1.2700793 0.0009884784
H -0.0018653508 -1.0502334 0.8477385
H -0.005952322 -1.0269084 -0.8988582
