title
 OpenBabel02282109583D

 14 13  0  0  0  0  0  0  0  0999 V2000
   -2.3517   -2.5385    0.9422 O   0  0  0  0  0  0  0  0  0  0  0  0
   -1.8492   -1.4593    1.1120 C   0  0  0  0  0  0  0  0  0  0  0  0
   -0.4098   -1.1137    0.8037 C   0  0  0  0  0  0  0  0  0  0  0  0
   -0.3031    0.1228   -0.0935 C   0  0  0  0  0  0  0  0  0  0  0  0
    1.1008    0.6808   -0.1646 C   0  0  0  0  0  0  0  0  0  0  0  0
    2.0252    0.3174    0.5234 O   0  0  0  0  0  0  0  0  0  0  0  0
    1.3505    1.8031   -1.1836 C   0  0  0  0  0  0  0  0  0  0  0  0
    0.5024    2.2242   -1.9241 O   0  0  0  0  0  0  0  0  0  0  0  0
   -2.4411   -0.6103    1.5313 H   0  0  0  0  0  0  0  0  0  0  0  0
    0.0999   -0.9023    1.7535 H   0  0  0  0  0  0  0  0  0  0  0  0
    0.0778   -1.9820    0.3543 H   0  0  0  0  0  0  0  0  0  0  0  0
   -0.6503   -0.0733   -1.1145 H   0  0  0  0  0  0  0  0  0  0  0  0
   -0.9519    0.9360    0.2657 H   0  0  0  0  0  0  0  0  0  0  0  0
    2.3944    2.1799   -1.1619 H   0  0  0  0  0  0  0  0  0  0  0  0
  1  2  2  0  0  0  0
  2  9  1  0  0  0  0
  3  2  1  0  0  0  0
  3 10  1  0  0  0  0
  4 13  1  0  0  0  0
  4  3  1  0  0  0  0
  5  4  1  0  0  0  0
  5  6  2  0  0  0  0
  7 14  1  0  0  0  0
  7  5  1  0  0  0  0
  8  7  2  0  0  0  0
 11  3  1  0  0  0  0
 12  4  1  0  0  0  0
M  END
