13
title
O -1.9738091 -2.6506917 1.0567824
C -1.4965576 -1.5701302 0.8421508
C -0.019643862 -1.3433241 0.5342599
N 0.19821517 -0.22561657 -0.3544695
C 0.7615786 0.9377569 0.051982846
O 1.1395621 1.2025555 1.1778413
C 0.9020131 1.9590367 -1.0810257
O 0.5429149 1.74518 -2.2099168
H -2.10309 -0.63634455 0.8621576
H 0.48626593 -1.0996004 1.4771428
H 0.40947345 -2.2692971 0.13994369
H -0.04667302 -0.28353202 -1.3333496
H 1.3674369 2.9077444 -0.7515141
