title
 OpenBabel02282109583D

 12 11  0  0  0  0  0  0  0  0999 V2000
   -0.9084   -2.9320    1.0259 O   0  0  0  0  0  0  0  0  0  0  0  0
   -0.7852   -1.9243    0.3879 C   0  0  0  0  0  0  0  0  0  0  0  0
   -0.9821   -0.5403    0.9979 C   0  0  0  0  0  0  0  0  0  0  0  0
   -0.6374    0.5068    0.0819 O   0  0  0  0  0  0  0  0  0  0  0  0
    0.6722    0.6572   -0.1409 C   0  0  0  0  0  0  0  0  0  0  0  0
    1.5496   -0.0139    0.3415 O   0  0  0  0  0  0  0  0  0  0  0  0
    0.9768    1.8104   -1.1042 C   0  0  0  0  0  0  0  0  0  0  0  0
    0.1430    2.4904   -1.6298 O   0  0  0  0  0  0  0  0  0  0  0  0
   -0.5492   -1.9235   -0.6991 H   0  0  0  0  0  0  0  0  0  0  0  0
   -2.0410   -0.3923    1.2241 H   0  0  0  0  0  0  0  0  0  0  0  0
   -0.3964   -0.4655    1.9177 H   0  0  0  0  0  0  0  0  0  0  0  0
    2.0673    1.9314   -1.2558 H   0  0  0  0  0  0  0  0  0  0  0  0
  2  3  1  0  0  0  0
  2  1  2  0  0  0  0
  3 10  1  0  0  0  0
  3 11  1  0  0  0  0
  4  3  1  0  0  0  0
  5  4  1  0  0  0  0
  5  6  2  0  0  0  0
  7  5  1  0  0  0  0
  8  7  2  0  0  0  0
  9  2  1  0  0  0  0
 12  7  1  0  0  0  0
M  END
