title
 OpenBabel02282109583D

 13 12  0  0  0  0  0  0  0  0999 V2000
   -2.7018   -1.8205    0.0138 O   0  0  0  0  0  0  0  0  0  0  0  0
   -2.6562   -0.6087    0.0214 C   0  0  0  0  0  0  0  0  0  0  0  0
   -1.5031    0.1091    0.0165 N   0  0  0  0  0  0  0  0  0  0  0  0
   -0.2170   -0.5261    0.0011 C   0  0  0  0  0  0  0  0  0  0  0  0
    0.8806    0.5134   -0.0057 C   0  0  0  0  0  0  0  0  0  0  0  0
    0.6682    1.7001    0.0019 O   0  0  0  0  0  0  0  0  0  0  0  0
    2.3209   -0.0434   -0.0217 C   0  0  0  0  0  0  0  0  0  0  0  0
    3.2813    0.6730   -0.0277 O   0  0  0  0  0  0  0  0  0  0  0  0
   -3.5528    0.0397    0.0319 H   0  0  0  0  0  0  0  0  0  0  0  0
   -1.5061    1.1194    0.0210 H   0  0  0  0  0  0  0  0  0  0  0  0
   -0.0767   -1.1892    0.8696 H   0  0  0  0  0  0  0  0  0  0  0  0
   -0.0944   -1.1821   -0.8756 H   0  0  0  0  0  0  0  0  0  0  0  0
    2.4018   -1.1528   -0.0268 H   0  0  0  0  0  0  0  0  0  0  0  0
  1  2  2  0  0  0  0
  2  9  1  0  0  0  0
  3 10  1  0  0  0  0
  3  2  1  0  0  0  0
  4  3  1  0  0  0  0
  4 11  1  0  0  0  0
  5  4  1  0  0  0  0
  5  6  2  0  0  0  0
  7  5  1  0  0  0  0
  8  7  2  0  0  0  0
 12  4  1  0  0  0  0
 13  7  1  0  0  0  0
M  END
