13
title
C 0.9914567 3.7635107 0.07397576
C 0.92739093 2.3113575 0.1295782
C 0.8718289 1.1110069 0.1748587
C 0.7962032 -0.33633143 0.22718145
C -0.5791124 -0.90290505 -0.10791315
O -1.5555923 -0.26830655 -0.3976249
C -0.63331723 -2.3822637 -0.04833955
N -0.6624062 -3.537109 0.0016588763
H 1.7239648 4.100214 -0.66734225
H 0.019431239 4.1867824 -0.20050496
H 1.2780362 4.1853857 1.0431939
H 1.5124085 -0.8093396 -0.46155918
H 1.0680696 -0.7253266 1.2200671
