14
title
C 1.1141002 3.7478225 -0.088550664
C 0.90981656 2.3148885 -0.23777546
C 0.74136007 1.1304419 -0.3611294
C 0.5268708 -0.29774076 -0.50061166
C -0.62651706 -0.8468271 0.32944357
O -1.3398873 -0.20753533 1.060263
C -0.8782482 -2.3569393 0.20188494
O -0.22479643 -3.0838556 -0.49862725
H 2.146212 3.9746852 0.20013408
H 0.9060851 4.278929 -1.0237968
H 0.45450228 4.1608157 0.6822533
H 0.33629778 -0.5837987 -1.5449942
H 1.4221208 -0.8753665 -0.22900029
H -1.728387 -2.7026725 0.8265915
