title
 OpenBabel02282109583D

 18 17  0  0  1  0  0  0  0  0999 V2000
    0.8260    3.7973    0.1750 C   0  0  0  0  0  0  0  0  0  0  0  0
    0.8154    2.3414    0.1397 C   0  0  0  0  0  0  0  0  0  0  0  0
    0.8220    1.1373    0.1102 C   0  0  0  0  0  0  0  0  0  0  0  0
    0.8054   -0.3206    0.0871 C   0  0  0  0  0  0  0  0  0  0  0  0
   -0.6334   -0.9174    0.1334 C   0  0  1  0  0  0  0  0  0  0  0  0
   -1.4661   -0.5049   -1.0941 C   0  0  0  0  0  0  0  0  0  0  0  0
   -0.5643   -2.3711    0.2648 C   0  0  0  0  0  0  0  0  0  0  0  0
   -0.4878   -3.5677    0.3554 C   0  0  0  0  0  0  0  0  0  0  0  0
    1.6508    4.1740    0.7901 H   0  0  0  0  0  0  0  0  0  0  0  0
    0.9413    4.2212   -0.8287 H   0  0  0  0  0  0  0  0  0  0  0  0
   -0.1055    4.1923    0.5956 H   0  0  0  0  0  0  0  0  0  0  0  0
    1.3072   -0.6926   -0.8151 H   0  0  0  0  0  0  0  0  0  0  0  0
    1.3739   -0.7144    0.9374 H   0  0  0  0  0  0  0  0  0  0  0  0
   -1.1207   -0.5132    1.0301 H   0  0  0  0  0  0  0  0  0  0  0  0
   -1.0191   -0.8993   -2.0120 H   0  0  0  0  0  0  0  0  0  0  0  0
   -2.4846   -0.8939   -1.0191 H   0  0  0  0  0  0  0  0  0  0  0  0
   -1.5075    0.5848   -1.1673 H   0  0  0  0  0  0  0  0  0  0  0  0
   -0.4322   -4.6242    0.4451 H   0  0  0  0  0  0  0  0  0  0  0  0
  1 11  1  0  0  0  0
  1  9  1  0  0  0  0
  2  1  1  0  0  0  0
  3  2  3  0  0  0  0
  4  3  1  0  0  0  0
  4  5  1  0  0  0  0
  4 13  1  0  0  0  0
  5  7  1  0  0  0  0
  5 14  1  1  0  0  0
  6 16  1  0  0  0  0
  6  5  1  0  0  0  0
  7  8  3  0  0  0  0
  8 18  1  0  0  0  0
 10  1  1  0  0  0  0
 12  4  1  0  0  0  0
 15  6  1  0  0  0  0
 17  6  1  0  0  0  0
M  END
