17
title
C 0.8053072 3.8141296 0.19314842
C 0.80519235 2.3587332 0.14791171
C 0.8227013 1.1551688 0.110943325
C 0.82131016 -0.30166772 0.07761604
C -0.6176359 -0.8954058 0.12525983
C -1.4635599 -0.49361828 -1.0957538
C -0.54197294 -2.354486 0.24971782
N -0.47089043 -3.5046434 0.33997306
H 1.6403421 4.19103 0.7936749
H 0.8965224 4.2445517 -0.81001955
H -0.12011753 4.1978636 0.6362641
H 1.319917 -0.66431004 -0.82991666
H 1.3953651 -0.6977685 0.9230792
H -1.1033531 -0.51713663 1.0325106
H -1.50894 0.5957218 -1.1605681
H -1.0198805 -0.8802026 -2.0179026
H -2.4793098 -0.887225 -1.013571
