title
 OpenBabel02282109583D

 17 16  0  0  1  0  0  0  0  0999 V2000
    0.8053    3.8141    0.1931 C   0  0  0  0  0  0  0  0  0  0  0  0
    0.8052    2.3587    0.1479 C   0  0  0  0  0  0  0  0  0  0  0  0
    0.8227    1.1552    0.1109 C   0  0  0  0  0  0  0  0  0  0  0  0
    0.8213   -0.3017    0.0776 C   0  0  0  0  0  0  0  0  0  0  0  0
   -0.6176   -0.8954    0.1253 C   0  0  1  0  0  0  0  0  0  0  0  0
   -1.4636   -0.4936   -1.0958 C   0  0  0  0  0  0  0  0  0  0  0  0
   -0.5420   -2.3545    0.2497 C   0  0  0  0  0  0  0  0  0  0  0  0
   -0.4709   -3.5046    0.3400 N   0  0  0  0  0  0  0  0  0  0  0  0
    1.6403    4.1910    0.7937 H   0  0  0  0  0  0  0  0  0  0  0  0
    0.8965    4.2446   -0.8100 H   0  0  0  0  0  0  0  0  0  0  0  0
   -0.1201    4.1979    0.6363 H   0  0  0  0  0  0  0  0  0  0  0  0
    1.3199   -0.6643   -0.8299 H   0  0  0  0  0  0  0  0  0  0  0  0
    1.3954   -0.6978    0.9231 H   0  0  0  0  0  0  0  0  0  0  0  0
   -1.1034   -0.5171    1.0325 H   0  0  0  0  0  0  0  0  0  0  0  0
   -1.5089    0.5957   -1.1606 H   0  0  0  0  0  0  0  0  0  0  0  0
   -1.0199   -0.8802   -2.0179 H   0  0  0  0  0  0  0  0  0  0  0  0
   -2.4793   -0.8872   -1.0136 H   0  0  0  0  0  0  0  0  0  0  0  0
  1 11  1  0  0  0  0
  1  9  1  0  0  0  0
  2  1  1  0  0  0  0
  3  2  3  0  0  0  0
  4  3  1  0  0  0  0
  4  5  1  0  0  0  0
  4 13  1  0  0  0  0
  5  7  1  0  0  0  0
  5 14  1  1  0  0  0
  6 17  1  0  0  0  0
  6  5  1  0  0  0  0
  7  8  3  0  0  0  0
 10  1  1  0  0  0  0
 12  4  1  0  0  0  0
 15  6  1  0  0  0  0
 16  6  1  0  0  0  0
M  END
