16
title
C 0.8203766 3.8283768 0.26296315
C 0.81287634 2.3734312 0.22291143
C 0.808168 1.1708844 0.18085994
C 0.7989931 -0.28448537 0.1535854
C -0.6315496 -0.8734896 0.041396253
N -1.2534062 -0.48992708 -1.2225461
C -0.5794829 -2.3395066 0.2452709
N -0.55349886 -3.4898653 0.3611682
H 1.7221569 4.2329135 -0.20965578
H -0.04480317 4.2426224 -0.26615536
H 0.79041374 4.200896 1.2927601
H 1.3937622 -0.6605959 -0.68930745
H 1.2676023 -0.6872101 1.0592211
H -1.2345129 -0.45009282 0.85195816
H -0.75846946 -0.92142844 -1.998411
H -2.2091444 -0.83031774 -1.2613435
