title
 OpenBabel02282109583D

 16 15  0  0  1  0  0  0  0  0999 V2000
    0.8025    3.8121    0.1706 C   0  0  0  0  0  0  0  0  0  0  0  0
    0.7997    2.3571    0.2156 C   0  0  0  0  0  0  0  0  0  0  0  0
    0.7989    1.1539    0.2478 C   0  0  0  0  0  0  0  0  0  0  0  0
    0.7785   -0.3012    0.2969 C   0  0  0  0  0  0  0  0  0  0  0  0
   -0.6398   -0.8920    0.0659 C   0  0  1  0  0  0  0  0  0  0  0  0
   -1.1883   -0.5023   -1.1826 O   0  0  0  0  0  0  0  0  0  0  0  0
   -0.6119   -2.3505    0.2195 C   0  0  0  0  0  0  0  0  0  0  0  0
   -0.5524   -3.5480    0.3074 C   0  0  0  0  0  0  0  0  0  0  0  0
    1.6231    4.1898   -0.4496 H   0  0  0  0  0  0  0  0  0  0  0  0
   -0.1332    4.1962   -0.2504 H   0  0  0  0  0  0  0  0  0  0  0  0
    0.9178    4.2440    1.1709 H   0  0  0  0  0  0  0  0  0  0  0  0
    1.4523   -0.7248   -0.4599 H   0  0  0  0  0  0  0  0  0  0  0  0
    1.1454   -0.6604    1.2664 H   0  0  0  0  0  0  0  0  0  0  0  0
   -1.3126   -0.4597    0.8147 H   0  0  0  0  0  0  0  0  0  0  0  0
   -0.7008   -0.9649   -1.8737 H   0  0  0  0  0  0  0  0  0  0  0  0
   -0.5223   -4.6061    0.3965 H   0  0  0  0  0  0  0  0  0  0  0  0
  1  2  1  0  0  0  0
  1 11  1  0  0  0  0
  2  3  3  0  0  0  0
  3  4  1  0  0  0  0
  4 13  1  0  0  0  0
  5  7  1  0  0  0  0
  5  4  1  0  0  0  0
  5 14  1  1  0  0  0
  6  5  1  0  0  0  0
  7  8  3  0  0  0  0
  8 16  1  0  0  0  0
  9  1  1  0  0  0  0
 10  1  1  0  0  0  0
 12  4  1  0  0  0  0
 15  6  1  0  0  0  0
M  END
