title
 OpenBabel02282109583D

 18 17  0  0  1  0  0  0  0  0999 V2000
    0.9132    3.8494    0.0061 C   0  0  0  0  0  0  0  0  0  0  0  0
    0.8984    2.3932    0.0090 C   0  0  0  0  0  0  0  0  0  0  0  0
    0.9016    1.1888    0.0130 C   0  0  0  0  0  0  0  0  0  0  0  0
    0.8806   -0.2686    0.0293 C   0  0  0  0  0  0  0  0  0  0  0  0
   -0.5571   -0.8588    0.0517 C   0  0  1  0  0  0  0  0  0  0  0  0
   -1.3634   -0.4491   -1.1907 C   0  0  0  0  0  0  0  0  0  0  0  0
   -0.4623   -2.3702    0.1138 C   0  0  0  0  0  0  0  0  0  0  0  0
   -0.9034   -3.0617    0.9939 O   0  0  0  0  0  0  0  0  0  0  0  0
    1.7732    4.2382    0.5625 H   0  0  0  0  0  0  0  0  0  0  0  0
    0.9712    4.2467   -1.0133 H   0  0  0  0  0  0  0  0  0  0  0  0
    0.0084    4.2576    0.4697 H   0  0  0  0  0  0  0  0  0  0  0  0
    1.4130   -0.6580   -0.8500 H   0  0  0  0  0  0  0  0  0  0  0  0
    1.4304   -0.6342    0.9061 H   0  0  0  0  0  0  0  0  0  0  0  0
   -1.0668   -0.5243    0.9599 H   0  0  0  0  0  0  0  0  0  0  0  0
   -1.3823    0.6397   -1.2815 H   0  0  0  0  0  0  0  0  0  0  0  0
   -0.9132   -0.8555   -2.1041 H   0  0  0  0  0  0  0  0  0  0  0  0
   -2.3930   -0.8126   -1.1292 H   0  0  0  0  0  0  0  0  0  0  0  0
    0.0668   -2.8232   -0.7609 H   0  0  0  0  0  0  0  0  0  0  0  0
  1  2  1  0  0  0  0
  1 11  1  0  0  0  0
  1  9  1  0  0  0  0
  2  3  3  0  0  0  0
  3  4  1  0  0  0  0
  4  5  1  0  0  0  0
  4 13  1  0  0  0  0
  5  7  1  0  0  0  0
  5 14  1  1  0  0  0
  6 17  1  0  0  0  0
  6  5  1  0  0  0  0
  7  8  2  0  0  0  0
 10  1  1  0  0  0  0
 12  4  1  0  0  0  0
 15  6  1  0  0  0  0
 16  6  1  0  0  0  0
 18  7  1  0  0  0  0
M  END
