18
title
C 0.9132169 3.8493724 0.0060731247
C 0.8983756 2.3931825 0.008950729
C 0.90157586 1.1888443 0.012967637
C 0.8805754 -0.2686009 0.02934416
C -0.55708724 -0.85882306 0.051674727
C -1.3633502 -0.44914624 -1.1907064
C -0.4622633 -2.3702044 0.11376365
O -0.90336424 -3.0617428 0.9938572
H 1.7731867 4.2381988 0.56245816
H 0.971247 4.246657 -1.0132897
H 0.008394296 4.2575836 0.46967095
H 1.4130256 -0.65797806 -0.8500081
H 1.4303957 -0.6341851 0.90606874
H -1.0667521 -0.5242951 0.95988613
H -1.3822529 0.63974166 -1.2814845
H -0.9131878 -0.8555472 -2.104122
H -2.3930237 -0.8126185 -1.1292231
H 0.06679063 -2.8231554 -0.7609154
