16
title
C 1.051712 3.4342716 1.312247
C 0.83857584 2.2656586 0.4700118
C 0.67573935 1.3052664 -0.23843804
C 0.44407174 0.13589531 -1.0767161
C -0.74093586 -0.74320596 -0.5924146
O -1.0043653 -1.7521216 -1.5231198
C -0.45156235 -1.3448526 0.76898414
O -0.49321193 -2.5394285 0.9472639
H 1.9090616 3.29421 1.9796177
H 1.243489 4.328015 0.70849705
H 0.17540078 3.6395254 1.9368323
H 0.20985602 0.43655974 -2.1040003
H 1.3417767 -0.49183744 -1.1358325
H -1.6154197 -0.08042401 -0.4692053
H -0.9536374 -2.5844853 -1.0253359
H -0.19888361 -0.6362857 1.5796101
