17
title
C 1.0984405 3.6211822 -0.33174595
C 1.094982 2.168975 -0.2320676
C 1.0959795 0.9687146 -0.13970381
C 1.0871909 -0.49260232 -0.03900682
N -0.24558146 -1.0762267 -0.078919016
C -1.019463 -0.9467368 -1.3006252
C -0.7858487 -1.6751418 1.0213736
O -1.8927459 -2.165231 1.0863667
H 1.916216 4.054381 0.25430927
H 1.2208184 3.9509544 -1.3690323
H 0.16102283 4.0444546 0.04482507
H 1.6934736 -0.9200239 -0.8507162
H 1.560823 -0.80596566 0.8989278
H -0.51238316 -1.4475601 -2.1344275
H -1.988391 -1.4150777 -1.1291492
H -1.1576635 0.10830142 -1.5600524
H -0.07820255 -1.6731758 1.8742698
