13
title
N -0.565989 1.2621993 0.44950444
C -0.6965944 0.072477154 -0.23015201
N 0.19653943 -0.61383456 -0.8327702
C 1.5718594 -0.113926984 -0.83607775
C 2.174716 0.077344544 0.48713237
C 2.6390357 0.24687889 1.5840299
C -2.0636356 -0.41755322 -0.30294704
N -3.1613848 -0.776864 -0.33525416
H 0.34305325 1.4545691 0.84904057
H -1.3491532 1.5568038 1.0119604
H 2.1786945 -0.82875323 -1.4004632
H 1.6189513 0.839483 -1.3866355
H 3.073479 0.36949015 2.5459015
