title
 OpenBabel02282109583D

 12 11  0  0  0  0  0  0  0  0999 V2000
   -0.6054    1.2184    0.4658 N   0  0  0  0  0  0  0  0  0  0  0  0
   -0.6985    0.0376   -0.2250 C   0  0  0  0  0  0  0  0  0  0  0  0
    0.2086   -0.6485   -0.8122 N   0  0  0  0  0  0  0  0  0  0  0  0
    1.5862   -0.1818   -0.8138 C   0  0  0  0  0  0  0  0  0  0  0  0
    2.1410    0.1588    0.5077 C   0  0  0  0  0  0  0  0  0  0  0  0
    2.5162    0.4541    1.5611 N   0  0  0  0  0  0  0  0  0  0  0  0
   -2.0587   -0.4645   -0.3394 C   0  0  0  0  0  0  0  0  0  0  0  0
   -3.1512   -0.8339   -0.4076 N   0  0  0  0  0  0  0  0  0  0  0  0
    0.2851    1.4707    0.8706 H   0  0  0  0  0  0  0  0  0  0  0  0
   -1.4121    1.5093    0.9958 H   0  0  0  0  0  0  0  0  0  0  0  0
    2.2110   -0.9654   -1.2523 H   0  0  0  0  0  0  0  0  0  0  0  0
    1.6933    0.7058   -1.4561 H   0  0  0  0  0  0  0  0  0  0  0  0
  1  9  1  0  0  0  0
  1 10  1  0  0  0  0
  2  1  1  0  0  0  0
  3  2  2  0  0  0  0
  4  3  1  0  0  0  0
  4  5  1  0  0  0  0
  5  6  3  0  0  0  0
  7  2  1  0  0  0  0
  8  7  3  0  0  0  0
 11  4  1  0  0  0  0
 12  4  1  0  0  0  0
M  END
