title
 OpenBabel02282109583D

 14 13  0  0  1  0  0  0  0  0999 V2000
    1.2685    2.0607   -0.4323 C   0  0  0  0  0  0  0  0  0  0  0  0
    1.2583    0.5107   -0.3773 C   0  0  1  0  0  0  0  0  0  0  0  0
    2.0145    0.0146    0.7781 C   0  0  0  0  0  0  0  0  0  0  0  0
    2.6489   -0.3673    1.7234 C   0  0  0  0  0  0  0  0  0  0  0  0
   -0.1099   -0.0118   -0.3816 C   0  0  0  0  0  0  0  0  0  0  0  0
   -1.2451   -0.4282   -0.4033 C   0  0  0  0  0  0  0  0  0  0  0  0
   -2.5235   -0.8945   -0.4224 C   0  0  0  0  0  0  0  0  0  0  0  0
   -3.6576   -1.3084   -0.4412 C   0  0  0  0  0  0  0  0  0  0  0  0
    2.2993    2.4210   -0.4683 H   0  0  0  0  0  0  0  0  0  0  0  0
    0.7351    2.4055   -1.3213 H   0  0  0  0  0  0  0  0  0  0  0  0
    0.7819    2.4737    0.4536 H   0  0  0  0  0  0  0  0  0  0  0  0
    1.7565    0.1435   -1.2870 H   0  0  0  0  0  0  0  0  0  0  0  0
    3.2034   -0.7162    2.5593 H   0  0  0  0  0  0  0  0  0  0  0  0
   -4.6550   -1.6719   -0.4553 H   0  0  0  0  0  0  0  0  0  0  0  0
  1  2  1  0  0  0  0
  1 11  1  0  0  0  0
  2 12  1  6  0  0  0
  2  3  1  0  0  0  0
  3  4  3  0  0  0  0
  4 13  1  0  0  0  0
  5  2  1  0  0  0  0
  6  5  3  0  0  0  0
  7  6  1  0  0  0  0
  8  7  3  0  0  0  0
  9  1  1  0  0  0  0
 10  1  1  0  0  0  0
 14  8  1  0  0  0  0
M  END
