13
title
C -0.28776282 2.035408 1.3404492
C -0.2840463 0.48646122 1.2725856
C -1.659447 -0.03770628 1.3509575
N -2.7429807 -0.42917547 1.4307743
C 0.39698207 -0.009792438 0.078245886
C 0.98550993 -0.39888987 -0.90305185
C 1.6426169 -0.8353003 -2.011884
C 2.226342 -1.2231169 -2.9945343
H 0.74138266 2.3997698 1.3282988
H -0.8204396 2.452281 0.4838311
H -0.77706414 2.3667722 2.2591064
H 0.24680674 0.106046 2.156819
H 2.7376604 -1.5644416 -3.860534
