title
 OpenBabel02282109583D

 13 12  0  0  1  0  0  0  0  0999 V2000
   -0.2878    2.0354    1.3404 C   0  0  0  0  0  0  0  0  0  0  0  0
   -0.2840    0.4865    1.2726 C   0  0  1  0  0  0  0  0  0  0  0  0
   -1.6594   -0.0377    1.3510 C   0  0  0  0  0  0  0  0  0  0  0  0
   -2.7430   -0.4292    1.4308 N   0  0  0  0  0  0  0  0  0  0  0  0
    0.3970   -0.0098    0.0782 C   0  0  0  0  0  0  0  0  0  0  0  0
    0.9855   -0.3989   -0.9031 C   0  0  0  0  0  0  0  0  0  0  0  0
    1.6426   -0.8353   -2.0119 C   0  0  0  0  0  0  0  0  0  0  0  0
    2.2263   -1.2231   -2.9945 C   0  0  0  0  0  0  0  0  0  0  0  0
    0.7414    2.3998    1.3283 H   0  0  0  0  0  0  0  0  0  0  0  0
   -0.8204    2.4523    0.4838 H   0  0  0  0  0  0  0  0  0  0  0  0
   -0.7771    2.3668    2.2591 H   0  0  0  0  0  0  0  0  0  0  0  0
    0.2468    0.1060    2.1568 H   0  0  0  0  0  0  0  0  0  0  0  0
    2.7377   -1.5644   -3.8605 H   0  0  0  0  0  0  0  0  0  0  0  0
  1 11  1  0  0  0  0
  2  1  1  0  0  0  0
  2  3  1  0  0  0  0
  2 12  1  1  0  0  0
  3  4  3  0  0  0  0
  5  2  1  0  0  0  0
  6  5  3  0  0  0  0
  7  6  1  0  0  0  0
  8  7  3  0  0  0  0
  9  1  1  0  0  0  0
 10  1  1  0  0  0  0
 13  8  1  0  0  0  0
M  END
