12
title
C 1.2674594 2.0735183 -0.41921648
C 1.2553838 0.52302104 -0.38218233
C 2.0168595 0.01959941 0.77339107
N 2.6338625 -0.35287046 1.675334
C -0.10600422 -0.00999659 -0.37736928
C -1.2385035 -0.4246444 -0.3973407
C -2.5215392 -0.8936377 -0.4195714
N -3.6126924 -1.2898799 -0.44177386
H 2.2984807 2.431222 -0.45498326
H 0.7346693 2.4200892 -1.3068101
H 0.7808712 2.479635 0.46919945
H 1.7605742 0.15071934 -1.2843537
