title
 OpenBabel02282109583D

 12 11  0  0  1  0  0  0  0  0999 V2000
    1.2675    2.0735   -0.4192 C   0  0  0  0  0  0  0  0  0  0  0  0
    1.2554    0.5230   -0.3822 C   0  0  1  0  0  0  0  0  0  0  0  0
    2.0169    0.0196    0.7734 C   0  0  0  0  0  0  0  0  0  0  0  0
    2.6339   -0.3529    1.6753 N   0  0  0  0  0  0  0  0  0  0  0  0
   -0.1060   -0.0100   -0.3774 C   0  0  0  0  0  0  0  0  0  0  0  0
   -1.2385   -0.4246   -0.3973 C   0  0  0  0  0  0  0  0  0  0  0  0
   -2.5215   -0.8936   -0.4196 C   0  0  0  0  0  0  0  0  0  0  0  0
   -3.6127   -1.2899   -0.4418 N   0  0  0  0  0  0  0  0  0  0  0  0
    2.2985    2.4312   -0.4550 H   0  0  0  0  0  0  0  0  0  0  0  0
    0.7347    2.4201   -1.3068 H   0  0  0  0  0  0  0  0  0  0  0  0
    0.7809    2.4796    0.4692 H   0  0  0  0  0  0  0  0  0  0  0  0
    1.7606    0.1507   -1.2844 H   0  0  0  0  0  0  0  0  0  0  0  0
  1  2  1  0  0  0  0
  1 11  1  0  0  0  0
  2 12  1  6  0  0  0
  2  5  1  0  0  0  0
  2  3  1  0  0  0  0
  3  4  3  0  0  0  0
  6  5  3  0  0  0  0
  7  6  1  0  0  0  0
  8  7  3  0  0  0  0
  9  1  1  0  0  0  0
 10  1  1  0  0  0  0
M  END
