title
 OpenBabel02282109583D

 12 11  0  0  1  0  0  0  0  0999 V2000
   -1.0799    1.9749   -0.8521 N   0  0  0  0  0  0  0  0  0  0  0  0
   -0.9713    0.5071   -0.9173 C   0  0  1  0  0  0  0  0  0  0  0  0
   -0.3152   -0.0145   -2.1289 C   0  0  0  0  0  0  0  0  0  0  0  0
    0.2108   -0.3921   -3.1409 C   0  0  0  0  0  0  0  0  0  0  0  0
   -0.2893    0.0102    0.2836 C   0  0  0  0  0  0  0  0  0  0  0  0
    0.2733   -0.4053    1.2668 C   0  0  0  0  0  0  0  0  0  0  0  0
    0.9117   -0.8709    2.3807 C   0  0  0  0  0  0  0  0  0  0  0  0
    1.4552   -1.2671    3.3276 N   0  0  0  0  0  0  0  0  0  0  0  0
   -0.1499    2.3782   -0.9306 H   0  0  0  0  0  0  0  0  0  0  0  0
   -1.5989    2.2922   -1.6667 H   0  0  0  0  0  0  0  0  0  0  0  0
   -1.9986    0.1157   -0.8886 H   0  0  0  0  0  0  0  0  0  0  0  0
    0.6780   -0.7352   -4.0314 H   0  0  0  0  0  0  0  0  0  0  0  0
  2 11  1  1  0  0  0
  2  1  1  0  0  0  0
  2  5  1  0  0  0  0
  3  2  1  0  0  0  0
  4  3  3  0  0  0  0
  5  6  3  0  0  0  0
  6  7  1  0  0  0  0
  7  8  3  0  0  0  0
  9  1  1  0  0  0  0
 10  1  1  0  0  0  0
 12  4  1  0  0  0  0
M  END
