12
title
N -1.079917 1.9748938 -0.8521057
C -0.9712656 0.5071164 -0.9172641
C -0.3152443 -0.0145050725 -2.1289475
C 0.21081851 -0.39214188 -3.1408677
C -0.28932676 0.010243134 0.28361812
C 0.2732652 -0.4052521 1.2667642
C 0.9117205 -0.8708867 2.3807075
N 1.4551806 -1.2670548 3.327587
H -0.1498713 2.378175 -0.93055123
H -1.5989404 2.2922032 -1.6666874
H -1.9985837 0.11566995 -0.8886073
H 0.6779989 -0.7352207 -4.0313873
