12
title
N -0.21346258 1.9611475 1.3869623
C -0.18996112 0.49471554 1.2820747
C -1.5604769 -0.026203258 1.46362
N -2.6301124 -0.43803358 1.6006724
C 0.39611888 -0.03481336 0.04304149
C 0.9181715 -0.41360044 -0.9804709
C 1.4970891 -0.84296185 -2.134054
C 2.0131512 -1.2228485 -3.1569378
H 0.74084467 2.30336 1.3162369
H -0.7194307 2.3456795 0.59351224
H 0.39967394 0.12265085 2.131573
H 2.462867 -1.5605928 -4.0579586
