12
title
O -1.0714064 1.9047529 -0.8697455
C -0.9637423 0.4862452 -0.88468003
C -0.3228069 -0.012650422 -2.1105185
C 0.2086839 -0.39093298 -3.1188715
C -0.27549356 -0.031145982 0.30585375
C 0.29436344 -0.43010473 1.2954011
C 0.9368933 -0.88100225 2.4064188
C 1.5070853 -1.280262 3.3927794
H -0.17645086 2.2627437 -0.90785736
H -2.0038059 0.1343473 -0.8648247
H 0.67423195 -0.73232085 -4.0106964
H 2.0084023 -1.6329876 4.259878
