10
title
O -1.0640929 1.9097762 -0.8773319
C -0.96588355 0.5036783 -0.879472
C -0.3266734 -0.007836873 -2.1153066
N 0.17454986 -0.3769867 -3.0876973
C -0.27193207 -0.026104325 0.30183086
C 0.2948578 -0.4255925 1.2888157
C 0.9371515 -0.87912035 2.4062836
N 1.4824643 -1.2626767 3.3566265
H -0.17319979 2.2817662 -0.88497126
H -2.0013645 0.14000952 -0.86830205
