title
 OpenBabel02282109583D

 13 12  0  0  1  0  0  0  0  0999 V2000
   -0.0944    1.9874    1.4094 C   0  0  0  0  0  0  0  0  0  0  0  0
   -0.3985    0.4713    1.2894 C   0  0  1  0  0  0  0  0  0  0  0  0
   -1.8507    0.2252    1.3132 C   0  0  0  0  0  0  0  0  0  0  0  0
   -2.9916    0.0516    1.3491 N   0  0  0  0  0  0  0  0  0  0  0  0
    0.2169   -0.1125    0.0985 C   0  0  0  0  0  0  0  0  0  0  0  0
    0.7643   -0.5671   -0.8753 C   0  0  0  0  0  0  0  0  0  0  0  0
    1.3840   -1.1287   -2.0533 C   0  0  0  0  0  0  0  0  0  0  0  0
    2.5621   -1.0399   -2.3055 O   0  0  0  0  0  0  0  0  0  0  0  0
    0.9864    2.1381    1.4379 H   0  0  0  0  0  0  0  0  0  0  0  0
   -0.5053    2.5269    0.5542 H   0  0  0  0  0  0  0  0  0  0  0  0
   -0.5394    2.3823    2.3251 H   0  0  0  0  0  0  0  0  0  0  0  0
    0.0250   -0.0334    2.1690 H   0  0  0  0  0  0  0  0  0  0  0  0
    0.6806   -1.6596   -2.7246 H   0  0  0  0  0  0  0  0  0  0  0  0
  1  9  1  0  0  0  0
  1 11  1  0  0  0  0
  2  3  1  0  0  0  0
  2  1  1  0  0  0  0
  2 12  1  1  0  0  0
  3  4  3  0  0  0  0
  5  2  1  0  0  0  0
  6  5  3  0  0  0  0
  7  6  1  0  0  0  0
  8  7  2  0  0  0  0
 10  1  1  0  0  0  0
 13  7  1  0  0  0  0
M  END
