13
title
C -0.09438173 1.9873621 1.4094166
C -0.39851838 0.47129405 1.2894348
C -1.8506558 0.2252251 1.3132129
N -2.991644 0.051603846 1.3491362
C 0.21692966 -0.112455495 0.09846665
C 0.76431286 -0.5671297 -0.8752681
C 1.3839549 -1.1286517 -2.0532603
O 2.5621376 -1.0398988 -2.3055234
H 0.9863701 2.1381452 1.4378788
H -0.5053032 2.526889 0.55424994
H -0.5394215 2.3822947 2.325101
H 0.024972033 -0.033379026 2.1690083
H 0.6805813 -1.6596267 -2.724641
