title
 OpenBabel02282109583D

 12 11  0  0  1  0  0  0  0  0999 V2000
   -1.0693    2.0597   -0.8894 O   0  0  0  0  0  0  0  0  0  0  0  0
   -0.9431    0.6457   -0.9220 C   0  0  1  0  0  0  0  0  0  0  0  0
   -0.2882    0.1641   -2.1459 C   0  0  0  0  0  0  0  0  0  0  0  0
    0.2603   -0.1949   -3.1520 C   0  0  0  0  0  0  0  0  0  0  0  0
   -0.2513    0.1157    0.2636 C   0  0  0  0  0  0  0  0  0  0  0  0
    0.3121   -0.3076    1.2439 C   0  0  0  0  0  0  0  0  0  0  0  0
    0.9954   -0.7800    2.4230 C   0  0  0  0  0  0  0  0  0  0  0  0
    0.9984   -1.9303    2.7936 O   0  0  0  0  0  0  0  0  0  0  0  0
   -0.1848    2.4343   -0.9774 H   0  0  0  0  0  0  0  0  0  0  0  0
   -1.9767    0.2756   -0.9046 H   0  0  0  0  0  0  0  0  0  0  0  0
    0.7377   -0.5213   -4.0434 H   0  0  0  0  0  0  0  0  0  0  0  0
    1.5331    0.0129    2.9810 H   0  0  0  0  0  0  0  0  0  0  0  0
  2 10  1  1  0  0  0
  2  1  1  0  0  0  0
  2  5  1  0  0  0  0
  3  2  1  0  0  0  0
  4  3  3  0  0  0  0
  5  6  3  0  0  0  0
  6  7  1  0  0  0  0
  7  8  2  0  0  0  0
  7 12  1  0  0  0  0
  9  1  1  0  0  0  0
 11  4  1  0  0  0  0
M  END
