title
 OpenBabel02282109583D

 11 10  0  0  1  0  0  0  0  0999 V2000
   -1.0734    2.0576   -0.8775 O   0  0  0  0  0  0  0  0  0  0  0  0
   -0.9500    0.6516   -0.8825 C   0  0  1  0  0  0  0  0  0  0  0  0
   -0.3026    0.1621   -2.1237 C   0  0  0  0  0  0  0  0  0  0  0  0
    0.2063   -0.1845   -3.1005 N   0  0  0  0  0  0  0  0  0  0  0  0
   -0.2476    0.1180    0.2898 C   0  0  0  0  0  0  0  0  0  0  0  0
    0.3229   -0.3050    1.2648 C   0  0  0  0  0  0  0  0  0  0  0  0
    1.0118   -0.7861    2.4427 C   0  0  0  0  0  0  0  0  0  0  0  0
    1.0590   -1.9479    2.7660 O   0  0  0  0  0  0  0  0  0  0  0  0
   -0.1880    2.4412   -0.8594 H   0  0  0  0  0  0  0  0  0  0  0  0
   -1.9796    0.2716   -0.8772 H   0  0  0  0  0  0  0  0  0  0  0  0
    1.5014    0.0101    3.0372 H   0  0  0  0  0  0  0  0  0  0  0  0
  1  9  1  0  0  0  0
  2  1  1  0  0  0  0
  2 10  1  1  0  0  0
  2  5  1  0  0  0  0
  3  2  1  0  0  0  0
  4  3  3  0  0  0  0
  5  6  3  0  0  0  0
  6  7  1  0  0  0  0
  7  8  2  0  0  0  0
  7 11  1  0  0  0  0
M  END
