14
title
N 0.6339235 1.0112753 -0.6038802
C 0.62744796 -0.007139337 0.30240315
C 1.9682187 -0.64963955 0.5202365
O 2.9519255 -0.34273273 -0.10822357
N -0.3282605 -0.47403014 1.0206383
C -1.6507447 0.13921894 0.8987125
C -2.2326672 0.10973942 -0.44716573
C -2.6809156 0.08983542 -1.5635021
H 1.4886122 1.0900084 -1.1378669
H -0.22531793 1.2435925 -1.0784806
H 1.9580922 -1.4285163 1.3044727
H -2.3257697 -0.38095826 1.5862796
H -1.6062167 1.1872185 1.23819
H -3.1006045 0.052055676 -2.5386786
