13
title
N 0.6577125 0.9776777 -0.5920955
C 0.62493974 -0.045805108 0.2992843
C 1.9659274 -0.6926888 0.533617
O 2.958375 -0.36789012 -0.068812676
N -0.3377766 -0.5320614 0.9989534
C -1.665062 0.056023765 0.9021133
C -2.1961432 0.18577716 -0.4657917
N -2.5559175 0.3025035 -1.5587403
H 1.5303518 1.0719435 -1.0938994
H -0.17945354 1.27629 -1.0670713
H 1.9417766 -1.4866754 1.3014892
H -2.3618944 -0.5594091 1.4792267
H -1.6784146 1.0596962 1.3551692
