title
 OpenBabel02282109583D

 14 13  0  0  1  0  0  0  0  0999 V2000
   -0.3557    2.0509    1.2057 C   0  0  0  0  0  0  0  0  0  0  0  0
   -0.2561    0.5058    1.1388 C   0  0  1  0  0  0  0  0  0  0  0  0
   -1.6777   -0.0753    1.1620 C   0  0  0  0  0  0  0  0  0  0  0  0
   -2.1731   -0.5878    2.1270 O   0  0  0  0  0  0  0  0  0  0  0  0
    0.4425    0.0539   -0.0541 C   0  0  0  0  0  0  0  0  0  0  0  0
    0.9923   -0.3361   -1.0598 C   0  0  0  0  0  0  0  0  0  0  0  0
    1.6168   -0.7672   -2.1889 C   0  0  0  0  0  0  0  0  0  0  0  0
    2.1707   -1.1507   -3.1909 C   0  0  0  0  0  0  0  0  0  0  0  0
    0.6429    2.4923    1.1730 H   0  0  0  0  0  0  0  0  0  0  0  0
   -0.9281    2.4403    0.3589 H   0  0  0  0  0  0  0  0  0  0  0  0
   -0.8476    2.3524    2.1342 H   0  0  0  0  0  0  0  0  0  0  0  0
    0.2491    0.1356    2.0381 H   0  0  0  0  0  0  0  0  0  0  0  0
   -2.2303    0.0452    0.2043 H   0  0  0  0  0  0  0  0  0  0  0  0
    2.6586   -1.4872   -4.0720 H   0  0  0  0  0  0  0  0  0  0  0  0
  1 11  1  0  0  0  0
  2  3  1  0  0  0  0
  2  1  1  0  0  0  0
  2 12  1  1  0  0  0
  3  4  2  0  0  0  0
  5  2  1  0  0  0  0
  6  5  3  0  0  0  0
  7  6  1  0  0  0  0
  8  7  3  0  0  0  0
  9  1  1  0  0  0  0
 10  1  1  0  0  0  0
 13  3  1  0  0  0  0
 14  8  1  0  0  0  0
M  END
