13
title
C 1.1803628 2.0766134 -0.30282322
C 1.1167786 0.5279132 -0.34555292
C 1.873335 -0.025162462 0.8760884
O 2.9875617 -0.46181357 0.8145896
C -0.25186414 0.041291233 -0.35151395
C -1.3866508 -0.37366563 -0.3210807
C -2.6710565 -0.8359326 -0.296396
N -3.7644649 -1.2275463 -0.27429745
H 2.2230093 2.400808 -0.34405518
H 0.64248925 2.4989667 -1.154163
H 0.7256035 2.4599576 0.6148011
H 1.6448509 0.16484323 -1.2342703
H 1.3131813 0.049421724 1.8329254
