18
title
C 1.3152745 1.819429 -0.075260125
C 1.2120838 0.2808172 -0.11887655
C -0.24838546 -0.2310729 -0.08170399
C -0.98633504 0.10565901 1.2304957
C -2.3294306 -0.45942906 1.2724038
C -3.4342535 -0.9326315 1.2816079
C 1.8913566 -0.24386007 -1.3029631
C 2.431773 -0.6661339 -2.2904215
H 2.359401 2.135225 -0.14054967
H 0.7740914 2.2644541 -0.91590714
H 0.8994458 2.2174122 0.85436463
H 1.7276183 -0.11825812 0.7672132
H -0.80046606 0.18764034 -0.9300183
H -0.24597469 -1.3165823 -0.21622822
H -0.40506652 -0.2707279 2.083362
H -1.0518746 1.192115 1.3624223
H -4.4114532 -1.3471321 1.300411
H 2.9168072 -1.0450723 -3.1556005
