16
title
C -0.5948003 1.8056515 1.2087699
C -0.495267 0.27009213 1.1111768
C 0.20483232 -0.2303848 -0.17490485
C -0.58609307 0.1167475 -1.4520884
C 0.04853243 -0.42736822 -2.650422
N 0.56188995 -0.8616072 -3.5898323
C 0.20962363 -0.26295605 2.282438
N 0.77477103 -0.67691386 3.2014265
H 0.39757967 2.2618608 1.1521173
H -1.2092934 2.2056882 0.3986371
H -1.052492 2.1021137 2.155186
H -1.5101523 -0.14944705 1.136978
H 1.2090449 0.20084308 -0.23490182
H 0.32952046 -1.3151107 -0.11702338
H -1.605969 -0.28161877 -1.3884189
H -0.67649263 1.2005607 -1.5775821
