title
 OpenBabel02282109583D

 16 15  0  0  1  0  0  0  0  0999 V2000
    0.6083    1.5512    0.3091 C   0  0  0  0  0  0  0  0  0  0  0  0
   -0.2275    0.3441    0.7853 C   0  0  1  0  0  0  0  0  0  0  0  0
   -0.0279   -0.9183    0.0736 N   0  0  0  0  0  0  0  0  0  0  0  0
   -0.7188   -1.0757   -1.2045 C   0  0  0  0  0  0  0  0  0  0  0  0
   -0.2003   -0.3147   -2.3509 C   0  0  0  0  0  0  0  0  0  0  0  0
    0.2475    0.2796   -3.2959 C   0  0  0  0  0  0  0  0  0  0  0  0
    0.0206    0.1090    2.2222 C   0  0  0  0  0  0  0  0  0  0  0  0
    0.2392   -0.0527    3.3451 N   0  0  0  0  0  0  0  0  0  0  0  0
    1.6766    1.3335    0.4015 H   0  0  0  0  0  0  0  0  0  0  0  0
    0.3845    1.7689   -0.7361 H   0  0  0  0  0  0  0  0  0  0  0  0
    0.3876    2.4342    0.9157 H   0  0  0  0  0  0  0  0  0  0  0  0
   -1.2918    0.5943    0.6895 H   0  0  0  0  0  0  0  0  0  0  0  0
    0.9609   -1.1232   -0.0200 H   0  0  0  0  0  0  0  0  0  0  0  0
   -0.6976   -2.1420   -1.4601 H   0  0  0  0  0  0  0  0  0  0  0  0
   -1.7757   -0.8272   -1.0477 H   0  0  0  0  0  0  0  0  0  0  0  0
    0.6384    0.8091   -4.1298 H   0  0  0  0  0  0  0  0  0  0  0  0
  1  9  1  0  0  0  0
  1  2  1  0  0  0  0
  1 11  1  0  0  0  0
  2 12  1  6  0  0  0
  2  7  1  0  0  0  0
  3  2  1  0  0  0  0
  4 15  1  0  0  0  0
  4  3  1  0  0  0  0
  5  4  1  0  0  0  0
  6  5  3  0  0  0  0
  7  8  3  0  0  0  0
 10  1  1  0  0  0  0
 13  3  1  0  0  0  0
 14  4  1  0  0  0  0
 16  6  1  0  0  0  0
M  END
