16
title
C 1.2126645 1.9105715 -0.007048705
C 1.157228 0.37023187 -0.117738925
N -0.18781784 -0.22126059 -0.042743094
C -0.89228904 0.030698854 1.2072065
C -2.1601653 -0.7054036 1.2421453
N -3.1726654 -1.2602559 1.267209
C 1.7912084 -0.07089166 -1.3610518
C 2.302976 -0.39315972 -2.398856
H 2.246869 2.2585669 -0.0739783
H 0.64455736 2.3721566 -0.82048106
H 0.80240434 2.253219 0.9472193
H 1.7238548 -0.052927505 0.724581
H -0.74563396 0.07878359 -0.83567
H -0.26721266 -0.32405707 2.0368197
H -1.1195062 1.0897069 1.418126
H 2.7595994 -0.6968028 -3.3085067
