title
 OpenBabel02282109583D

 15 14  0  0  1  0  0  0  0  0999 V2000
   -0.5941    1.9201    1.0733 C   0  0  0  0  0  0  0  0  0  0  0  0
   -0.4596    0.3824    1.0360 C   0  0  1  0  0  0  0  0  0  0  0  0
    0.1471   -0.1862   -0.1691 N   0  0  0  0  0  0  0  0  0  0  0  0
   -0.6542   -0.0267   -1.3772 C   0  0  0  0  0  0  0  0  0  0  0  0
   -0.0216   -0.7135   -2.5069 C   0  0  0  0  0  0  0  0  0  0  0  0
    0.4828   -1.2293   -3.4083 N   0  0  0  0  0  0  0  0  0  0  0  0
    0.3131   -0.0776    2.2022 C   0  0  0  0  0  0  0  0  0  0  0  0
    0.9258   -0.4019    3.1258 N   0  0  0  0  0  0  0  0  0  0  0  0
    0.3890    2.3931    0.9932 H   0  0  0  0  0  0  0  0  0  0  0  0
   -1.2213    2.2698    0.2492 H   0  0  0  0  0  0  0  0  0  0  0  0
   -1.0543    2.2437    2.0107 H   0  0  0  0  0  0  0  0  0  0  0  0
   -1.4612   -0.0599    1.1244 H   0  0  0  0  0  0  0  0  0  0  0  0
    1.0829    0.1818   -0.3063 H   0  0  0  0  0  0  0  0  0  0  0  0
   -1.6380   -0.4814   -1.2053 H   0  0  0  0  0  0  0  0  0  0  0  0
   -0.8381    1.0169   -1.6835 H   0  0  0  0  0  0  0  0  0  0  0  0
  1 11  1  0  0  0  0
  2  1  1  0  0  0  0
  2 12  1  1  0  0  0
  2  7  1  0  0  0  0
  3  2  1  0  0  0  0
  4 14  1  0  0  0  0
  4  3  1  0  0  0  0
  5  4  1  0  0  0  0
  6  5  3  0  0  0  0
  7  8  3  0  0  0  0
  9  1  1  0  0  0  0
 10  1  1  0  0  0  0
 13  3  1  0  0  0  0
 15  4  1  0  0  0  0
M  END
