15
title
C -0.6087158 1.9771571 -0.9583536
C -0.639175 0.44244 -0.9095673
O 0.063895755 -0.07186524 0.229133
C 1.4634296 -0.05663214 0.08433566
C 2.0631745 -0.7744429 1.213007
N 2.569702 -1.3298782 2.0890293
C -2.0079236 -0.0612996 -0.8386299
C -3.1448727 -0.4452726 -0.8041392
H 0.41496605 2.3481722 -1.0615617
H -1.1860119 2.3345249 -1.8149307
H -1.0456829 2.3856978 -0.044312857
H -0.16698483 0.043462805 -1.8231429
H 1.7782465 -0.54980195 -0.8501058
H 1.8762659 0.96356946 0.06972907
H -4.1464634 -0.7973769 -0.7677544
