title
 OpenBabel02282109583D

 15 14  0  0  1  0  0  0  0  0999 V2000
   -0.6087    1.9772   -0.9584 C   0  0  0  0  0  0  0  0  0  0  0  0
   -0.6392    0.4424   -0.9096 C   0  0  1  0  0  0  0  0  0  0  0  0
    0.0639   -0.0719    0.2291 O   0  0  0  0  0  0  0  0  0  0  0  0
    1.4634   -0.0566    0.0843 C   0  0  0  0  0  0  0  0  0  0  0  0
    2.0632   -0.7744    1.2130 C   0  0  0  0  0  0  0  0  0  0  0  0
    2.5697   -1.3299    2.0890 N   0  0  0  0  0  0  0  0  0  0  0  0
   -2.0079   -0.0613   -0.8386 C   0  0  0  0  0  0  0  0  0  0  0  0
   -3.1449   -0.4453   -0.8041 C   0  0  0  0  0  0  0  0  0  0  0  0
    0.4150    2.3482   -1.0616 H   0  0  0  0  0  0  0  0  0  0  0  0
   -1.1860    2.3345   -1.8149 H   0  0  0  0  0  0  0  0  0  0  0  0
   -1.0457    2.3857   -0.0443 H   0  0  0  0  0  0  0  0  0  0  0  0
   -0.1670    0.0435   -1.8231 H   0  0  0  0  0  0  0  0  0  0  0  0
    1.7782   -0.5498   -0.8501 H   0  0  0  0  0  0  0  0  0  0  0  0
    1.8763    0.9636    0.0697 H   0  0  0  0  0  0  0  0  0  0  0  0
   -4.1465   -0.7974   -0.7678 H   0  0  0  0  0  0  0  0  0  0  0  0
  1  2  1  0  0  0  0
  1 11  1  0  0  0  0
  2 12  1  6  0  0  0
  2  7  1  0  0  0  0
  2  3  1  0  0  0  0
  4  3  1  0  0  0  0
  4  5  1  0  0  0  0
  5  6  3  0  0  0  0
  7  8  3  0  0  0  0
  8 15  1  0  0  0  0
  9  1  1  0  0  0  0
 10  1  1  0  0  0  0
 13  4  1  0  0  0  0
 14  4  1  0  0  0  0
M  END
