14
title
C 1.5017713 1.6046466 1.0052046
C 0.3828924 0.6750236 0.54380214
O 0.9766173 -0.34264892 -0.25334692
C 0.06711152 -1.2078999 -0.90125287
C -0.72029555 -0.52070427 -1.9415689
N -1.3337177 0.04102451 -2.743267
C -0.33931282 0.078347124 1.689248
N -0.9080311 -0.4092406 2.5690014
H 2.239404 1.0480329 1.5871992
H 1.989234 2.0354986 0.12827708
H 1.0947454 2.4089754 1.6220373
H -0.35034117 1.2388561 -0.051361073
H 0.6689635 -1.9931835 -1.3657968
H -0.6227004 -1.6828603 -0.18951093
