title
 OpenBabel02282109583D

 14 13  0  0  1  0  0  0  0  0999 V2000
    1.5018    1.6046    1.0052 C   0  0  0  0  0  0  0  0  0  0  0  0
    0.3829    0.6750    0.5438 C   0  0  1  0  0  0  0  0  0  0  0  0
    0.9766   -0.3426   -0.2533 O   0  0  0  0  0  0  0  0  0  0  0  0
    0.0671   -1.2079   -0.9013 C   0  0  0  0  0  0  0  0  0  0  0  0
   -0.7203   -0.5207   -1.9416 C   0  0  0  0  0  0  0  0  0  0  0  0
   -1.3337    0.0410   -2.7433 N   0  0  0  0  0  0  0  0  0  0  0  0
   -0.3393    0.0783    1.6892 C   0  0  0  0  0  0  0  0  0  0  0  0
   -0.9080   -0.4092    2.5690 N   0  0  0  0  0  0  0  0  0  0  0  0
    2.2394    1.0480    1.5872 H   0  0  0  0  0  0  0  0  0  0  0  0
    1.9892    2.0355    0.1283 H   0  0  0  0  0  0  0  0  0  0  0  0
    1.0947    2.4090    1.6220 H   0  0  0  0  0  0  0  0  0  0  0  0
   -0.3503    1.2389   -0.0514 H   0  0  0  0  0  0  0  0  0  0  0  0
    0.6690   -1.9932   -1.3658 H   0  0  0  0  0  0  0  0  0  0  0  0
   -0.6227   -1.6829   -0.1895 H   0  0  0  0  0  0  0  0  0  0  0  0
  1  9  1  0  0  0  0
  1 11  1  0  0  0  0
  2 12  1  6  0  0  0
  2  1  1  0  0  0  0
  2  7  1  0  0  0  0
  3  2  1  0  0  0  0
  4  3  1  0  0  0  0
  4 14  1  0  0  0  0
  5  4  1  0  0  0  0
  6  5  3  0  0  0  0
  7  8  3  0  0  0  0
 10  1  1  0  0  0  0
 13  4  1  0  0  0  0
M  END
