15
title
N -0.6229807 1.7137107 1.2244766
C -0.4994097 0.2628711 1.1044217
C 0.19149451 -0.27972385 -0.17367896
C -0.5834733 0.10018452 -1.4490477
C 0.05916189 -0.408014 -2.6579795
N 0.5790552 -0.81354195 -3.6065722
C 0.21800159 -0.25395572 2.283214
N 0.80712676 -0.6732659 3.1837075
H 0.27688825 2.1679752 1.1032723
H -1.2603719 2.0818133 0.5280132
H -1.5166007 -0.1490787 1.1486864
H 1.2113354 0.115260705 -0.22709057
H 0.27422488 -1.3688167 -0.105817415
H -1.6060628 -0.29463464 -1.406547
H -0.6658241 1.1893376 -1.538041
