15
title
O -0.6013312 1.6251183 1.0794872
C -0.49889216 0.21235028 1.0669333
C 0.17589854 -0.33407426 -0.2030746
C -0.5827769 0.09769539 -1.4728261
C 0.06771719 -0.3655516 -2.6909037
C 0.62642646 -0.75832206 -3.679603
C 0.19670574 -0.28123793 2.2734518
N 0.7703259 -0.64848006 3.20686
H 0.28847247 1.9933997 1.136215
H -1.5339061 -0.14719231 1.1093558
H 1.2102356 0.025661124 -0.24493352
H 0.2239319 -1.4259697 -0.14347175
H -1.6097151 -0.28934914 -1.4327663
H -0.67002803 1.1897223 -1.4828199
H 1.1088272 -1.099849 -4.561794
