14
title
O -0.5806463 1.6291817 1.0711553
C -0.49196368 0.21647203 1.0882076
C 0.17239782 -0.35719365 -0.17685723
C -0.58866733 0.08887254 -1.4393613
C 0.058404837 -0.3719808 -2.6641672
N 0.5837306 -0.7427699 -3.6239839
C 0.20598754 -0.26423472 2.2967591
N 0.7820747 -0.6202852 3.2327173
H 0.3057097 1.9946429 1.1790403
H -1.5297837 -0.1337991 1.1409099
H 1.2121649 -0.016450794 -0.22551703
H 0.19705108 -1.4491198 -0.11090875
H -1.6156309 -0.29483452 -1.4197795
H -0.6606816 1.1806903 -1.4586501
