17
title
C -0.7894855 1.8660092 -0.93147045
C -0.70110726 0.33096722 -0.8678941
C 0.067436434 -0.18421094 0.3673472
C 1.5575596 0.2159428 0.3636566
C 2.2750306 -0.33393952 1.5118194
N 2.8256042 -0.77491957 2.4269536
C -2.1079502 -0.24265979 -0.8281856
O -2.569676 -0.9967484 -1.6428351
H 0.20145145 2.3229854 -0.99778295
H -1.356794 2.1869109 -1.8099717
H -1.2865626 2.2697563 -0.04206333
H -0.23106244 -0.05662821 -1.7787806
H -0.4026739 0.19209231 1.2836089
H 0.002513204 -1.2766908 0.4059895
H 2.0419319 -0.1400892 -0.55311376
H 1.6719984 1.3045198 0.38006827
H -2.7113469 0.09971692 0.046903636
