16
title
C 1.2309649 1.7759291 0.028890753
C 1.0398947 0.2596358 -0.068632856
N -0.33693862 -0.23481473 -0.033281717
C -0.9875264 -0.14000764 1.269263
C -2.330596 -0.7264834 1.2222133
N -3.3975272 -1.1664424 1.1815996
C 1.7026265 -0.32547674 -1.3172072
O 2.4993882 0.2590927 -2.001953
H 2.2893295 2.02937 -0.06482013
H 0.6992686 2.2828605 -0.7830032
H 0.8629647 2.1655784 0.98196405
H 1.5624678 -0.22835758 0.7710961
H -0.9001343 0.24122116 -0.7315672
H -0.3921044 -0.70339316 1.9982394
H -1.0838594 0.8847095 1.666298
H 1.3761394 -1.3647083 -1.5386556
