title
 OpenBabel02282109583D

 16 15  0  0  1  0  0  0  0  0999 V2000
    1.2310    1.7759    0.0289 C   0  0  0  0  0  0  0  0  0  0  0  0
    1.0399    0.2596   -0.0686 C   0  0  1  0  0  0  0  0  0  0  0  0
   -0.3369   -0.2348   -0.0333 N   0  0  0  0  0  0  0  0  0  0  0  0
   -0.9875   -0.1400    1.2693 C   0  0  0  0  0  0  0  0  0  0  0  0
   -2.3306   -0.7265    1.2222 C   0  0  0  0  0  0  0  0  0  0  0  0
   -3.3975   -1.1664    1.1816 N   0  0  0  0  0  0  0  0  0  0  0  0
    1.7026   -0.3255   -1.3172 C   0  0  0  0  0  0  0  0  0  0  0  0
    2.4994    0.2591   -2.0020 O   0  0  0  0  0  0  0  0  0  0  0  0
    2.2893    2.0294   -0.0648 H   0  0  0  0  0  0  0  0  0  0  0  0
    0.6993    2.2829   -0.7830 H   0  0  0  0  0  0  0  0  0  0  0  0
    0.8630    2.1656    0.9820 H   0  0  0  0  0  0  0  0  0  0  0  0
    1.5625   -0.2284    0.7711 H   0  0  0  0  0  0  0  0  0  0  0  0
   -0.9001    0.2412   -0.7316 H   0  0  0  0  0  0  0  0  0  0  0  0
   -0.3921   -0.7034    1.9982 H   0  0  0  0  0  0  0  0  0  0  0  0
   -1.0839    0.8847    1.6663 H   0  0  0  0  0  0  0  0  0  0  0  0
    1.3761   -1.3647   -1.5387 H   0  0  0  0  0  0  0  0  0  0  0  0
  1 11  1  0  0  0  0
  2  3  1  0  0  0  0
  2  1  1  0  0  0  0
  2 12  1  1  0  0  0
  3  4  1  0  0  0  0
  4 15  1  0  0  0  0
  4 14  1  0  0  0  0
  5  4  1  0  0  0  0
  6  5  3  0  0  0  0
  7  2  1  0  0  0  0
  8  7  2  0  0  0  0
  9  1  1  0  0  0  0
 10  1  1  0  0  0  0
 13  3  1  0  0  0  0
 16  7  1  0  0  0  0
M  END
