title
 OpenBabel02282109583D

 16 15  0  0  1  0  0  0  0  0999 V2000
   -0.5434    1.7787   -1.0474 C   0  0  0  0  0  0  0  0  0  0  0  0
   -0.5098    0.2648   -0.8416 C   0  0  1  0  0  0  0  0  0  0  0  0
    0.1421   -0.1547    0.3436 O   0  0  0  0  0  0  0  0  0  0  0  0
    1.5552   -0.0479    0.3043 C   0  0  0  0  0  0  0  0  0  0  0  0
    2.1279   -0.6809    1.4844 C   0  0  0  0  0  0  0  0  0  0  0  0
    2.6261   -1.1931    2.4492 C   0  0  0  0  0  0  0  0  0  0  0  0
   -1.9134   -0.3323   -0.7639 C   0  0  0  0  0  0  0  0  0  0  0  0
   -2.8515    0.0689   -1.3996 O   0  0  0  0  0  0  0  0  0  0  0  0
    0.4447    2.1780   -1.2895 H   0  0  0  0  0  0  0  0  0  0  0  0
   -1.2249    2.0092   -1.8697 H   0  0  0  0  0  0  0  0  0  0  0  0
   -0.9111    2.2715   -0.1429 H   0  0  0  0  0  0  0  0  0  0  0  0
   -0.0288   -0.2133   -1.7171 H   0  0  0  0  0  0  0  0  0  0  0  0
    1.9468   -0.5334   -0.6060 H   0  0  0  0  0  0  0  0  0  0  0  0
    1.8718    1.0056    0.2645 H   0  0  0  0  0  0  0  0  0  0  0  0
    3.0614   -1.6487    3.3042 H   0  0  0  0  0  0  0  0  0  0  0  0
   -1.9844   -1.1958   -0.0681 H   0  0  0  0  0  0  0  0  0  0  0  0
  1  2  1  0  0  0  0
  1 11  1  0  0  0  0
  2 12  1  6  0  0  0
  2  7  1  0  0  0  0
  2  3  1  0  0  0  0
  4  3  1  0  0  0  0
  4  5  1  0  0  0  0
  5  6  3  0  0  0  0
  6 15  1  0  0  0  0
  7 16  1  0  0  0  0
  8  7  2  0  0  0  0
  9  1  1  0  0  0  0
 10  1  1  0  0  0  0
 13  4  1  0  0  0  0
 14  4  1  0  0  0  0
M  END
