title
 OpenBabel02282109583D

 16 15  0  0  0  0  0  0  0  0999 V2000
    0.3370    2.0082   -0.6755 C   0  0  0  0  0  0  0  0  0  0  0  0
    0.4621    0.5620   -0.7640 N   0  0  0  0  0  0  0  0  0  0  0  0
    0.4695   -0.2217    0.4498 C   0  0  0  0  0  0  0  0  0  0  0  0
   -0.9390   -0.3565    1.0842 C   0  0  0  0  0  0  0  0  0  0  0  0
   -0.9010   -1.1346    2.3184 C   0  0  0  0  0  0  0  0  0  0  0  0
   -0.8378   -1.7547    3.2913 N   0  0  0  0  0  0  0  0  0  0  0  0
    0.6048   -0.0328   -1.9891 C   0  0  0  0  0  0  0  0  0  0  0  0
    0.6078    0.5438   -3.0535 O   0  0  0  0  0  0  0  0  0  0  0  0
    1.1179    2.4220   -0.0272 H   0  0  0  0  0  0  0  0  0  0  0  0
    0.4462    2.4094   -1.6830 H   0  0  0  0  0  0  0  0  0  0  0  0
   -0.6398    2.3091   -0.2794 H   0  0  0  0  0  0  0  0  0  0  0  0
    0.8533   -1.2201    0.2219 H   0  0  0  0  0  0  0  0  0  0  0  0
    1.1516    0.2291    1.1801 H   0  0  0  0  0  0  0  0  0  0  0  0
   -1.3543    0.6324    1.3048 H   0  0  0  0  0  0  0  0  0  0  0  0
   -1.6180   -0.8394    0.3734 H   0  0  0  0  0  0  0  0  0  0  0  0
    0.7248   -1.1303   -1.8974 H   0  0  0  0  0  0  0  0  0  0  0  0
  1 11  1  0  0  0  0
  1  9  1  0  0  0  0
  2  1  1  0  0  0  0
  2  3  1  0  0  0  0
  3  4  1  0  0  0  0
  3 13  1  0  0  0  0
  4 14  1  0  0  0  0
  4  5  1  0  0  0  0
  5  6  3  0  0  0  0
  7 16  1  0  0  0  0
  7  2  1  0  0  0  0
  8  7  2  0  0  0  0
 10  1  1  0  0  0  0
 12  3  1  0  0  0  0
 15  4  1  0  0  0  0
M  END
