title
 OpenBabel02282109583D

 15 14  0  0  1  0  0  0  0  0999 V2000
   -0.5259    1.5021    0.9488 O   0  0  0  0  0  0  0  0  0  0  0  0
   -0.5117    0.1035    1.0141 C   0  0  1  0  0  0  0  0  0  0  0  0
    0.1490   -0.5056   -0.2353 C   0  0  0  0  0  0  0  0  0  0  0  0
   -0.5632   -0.0230   -1.5131 C   0  0  0  0  0  0  0  0  0  0  0  0
    0.0544   -0.5534   -2.7252 C   0  0  0  0  0  0  0  0  0  0  0  0
    0.5545   -0.9858   -3.6729 N   0  0  0  0  0  0  0  0  0  0  0  0
    0.2048   -0.3601    2.2686 C   0  0  0  0  0  0  0  0  0  0  0  0
    0.6777    0.4281    3.0500 O   0  0  0  0  0  0  0  0  0  0  0  0
   -0.0575    1.8087    1.7420 H   0  0  0  0  0  0  0  0  0  0  0  0
   -1.5453   -0.2861    1.0817 H   0  0  0  0  0  0  0  0  0  0  0  0
    1.2008   -0.2033   -0.2706 H   0  0  0  0  0  0  0  0  0  0  0  0
    0.1184   -1.5993   -0.1791 H   0  0  0  0  0  0  0  0  0  0  0  0
   -1.6180   -0.3222   -1.4974 H   0  0  0  0  0  0  0  0  0  0  0  0
   -0.5421    1.0705   -1.5441 H   0  0  0  0  0  0  0  0  0  0  0  0
    0.2716   -1.4553    2.4267 H   0  0  0  0  0  0  0  0  0  0  0  0
  1  2  1  0  0  0  0
  1  9  1  0  0  0  0
  2 10  1  1  0  0  0
  2  7  1  0  0  0  0
  3 12  1  0  0  0  0
  3  2  1  0  0  0  0
  4 13  1  0  0  0  0
  4  3  1  0  0  0  0
  5  4  1  0  0  0  0
  6  5  3  0  0  0  0
  7 15  1  0  0  0  0
  7  8  2  0  0  0  0
 11  3  1  0  0  0  0
 14  4  1  0  0  0  0
M  END
