15
title
O -0.5258594 1.5020704 0.94877976
C -0.5116613 0.10351788 1.0140879
C 0.14900018 -0.50562584 -0.23530328
C -0.56318873 -0.022976872 -1.5131092
C 0.05442031 -0.5533727 -2.7251782
N 0.5545121 -0.98578084 -3.6728835
C 0.20476992 -0.3601006 2.268615
O 0.67772216 0.4280603 3.050001
H -0.057485532 1.8087226 1.7420101
H -1.5452642 -0.28614503 1.0817226
H 1.2007653 -0.2032674 -0.2706071
H 0.11840822 -1.5992968 -0.17910028
H -1.6179745 -0.32218495 -1.4973834
H -0.5421038 1.0704844 -1.5440626
H 0.27157697 -1.4553231 2.4266887
