18
title
C -0.70316005 1.7117926 1.2716753
C -0.4686068 0.18783541 1.2439591
C 0.23079604 -0.29034734 -0.052426126
C -0.59592116 -0.055416238 -1.328008
C 0.0360549 -0.73064435 -2.5252185
O 0.34494537 -0.17695907 -3.5479136
C 0.30426192 -0.2350997 2.411207
C 0.9602577 -0.5735585 3.3601701
H 0.24683344 2.2478554 1.1840143
H -1.3544173 2.024156 0.45089898
H -1.1735808 2.009531 2.211876
H -1.4493417 -0.30761155 1.2921288
H 1.199909 0.21447472 -0.13980535
H 0.44620615 -1.3604387 0.047755096
H -1.5955826 -0.49640602 -1.194811
H -0.71860045 1.0054543 -1.558621
H 0.21007365 -1.8250117 -2.391509
H 1.5294011 -0.8768191 4.20379
