16
title
C 0.5073249 1.6392343 -0.25594065
C 1.075664 0.2200282 -0.075330056
C -0.028552128 -0.85222626 0.13215707
N -0.7711305 -0.665952 1.363312
C -2.0228927 -0.12447559 1.3965403
O -2.6129854 0.3173155 0.43553805
C 1.9051822 -0.16501403 -1.2214257
N 2.5480127 -0.4821927 -2.1280663
H 1.3143826 2.3648102 -0.38125142
H -0.14545341 1.6867177 -1.1306214
H -0.07950385 1.916958 0.62179005
H 1.7289551 0.20826535 0.8073945
H -0.74568635 -0.8002823 -0.69013697
H 0.42574114 -1.8473618 0.1303985
H -0.38973635 -1.0291209 2.2224383
H -2.4461548 -0.13205048 2.4199803
