16
title
C -0.8298376 1.6721237 -0.8800494
C -0.8409276 0.13260387 -0.8395068
C -0.085405976 -0.42824402 0.37611806
O 1.2690991 -0.014054491 0.24279273
C 2.0923705 -0.30997184 1.2725672
N 3.3100939 0.0070871646 1.2084199
C -2.2094274 -0.39194688 -0.8347255
N -3.28945 -0.8022365 -0.8139582
H 0.20298734 2.024272 -0.8764407
H -1.3281431 2.0377238 -1.7804239
H -1.3473834 2.0856006 -0.009633012
H -0.3412647 -0.25189295 -1.7370348
H -0.5229871 -0.03768824 1.3043104
H -0.15299633 -1.5228199 0.39293134
H 1.5887252 -0.821649 2.1040447
H 3.7918062 -0.2791047 2.058057
