title
 OpenBabel02282109583D

 16 15  0  0  1  0  0  0  0  0999 V2000
   -0.8298    1.6721   -0.8800 C   0  0  0  0  0  0  0  0  0  0  0  0
   -0.8409    0.1326   -0.8395 C   0  0  1  0  0  0  0  0  0  0  0  0
   -0.0854   -0.4282    0.3761 C   0  0  0  0  0  0  0  0  0  0  0  0
    1.2691   -0.0141    0.2428 O   0  0  0  0  0  0  0  0  0  0  0  0
    2.0924   -0.3100    1.2726 C   0  0  0  0  0  0  0  0  0  0  0  0
    3.3101    0.0071    1.2084 N   0  0  0  0  0  0  0  0  0  0  0  0
   -2.2094   -0.3919   -0.8347 C   0  0  0  0  0  0  0  0  0  0  0  0
   -3.2894   -0.8022   -0.8140 N   0  0  0  0  0  0  0  0  0  0  0  0
    0.2030    2.0243   -0.8764 H   0  0  0  0  0  0  0  0  0  0  0  0
   -1.3281    2.0377   -1.7804 H   0  0  0  0  0  0  0  0  0  0  0  0
   -1.3474    2.0856   -0.0096 H   0  0  0  0  0  0  0  0  0  0  0  0
   -0.3413   -0.2519   -1.7370 H   0  0  0  0  0  0  0  0  0  0  0  0
   -0.5230   -0.0377    1.3043 H   0  0  0  0  0  0  0  0  0  0  0  0
   -0.1530   -1.5228    0.3929 H   0  0  0  0  0  0  0  0  0  0  0  0
    1.5887   -0.8216    2.1040 H   0  0  0  0  0  0  0  0  0  0  0  0
    3.7918   -0.2791    2.0581 H   0  0  0  0  0  0  0  0  0  0  0  0
  1  9  1  0  0  0  0
  1  2  1  0  0  0  0
  1 11  1  0  0  0  0
  2 12  1  6  0  0  0
  2  7  1  0  0  0  0
  2  3  1  0  0  0  0
  3 14  1  0  0  0  0
  3 13  1  0  0  0  0
  4  3  1  0  0  0  0
  4  5  1  0  0  0  0
  5 15  1  0  0  0  0
  6  5  2  0  0  0  0
  6 16  1  0  0  0  0
  7  8  3  0  0  0  0
 10  1  1  0  0  0  0
M  END
