16
title
C -0.70177805 1.594013 -0.7052563
C -0.83409476 0.068959504 -0.87357205
C -0.09628385 -0.7048294 0.23482473
O 1.3043125 -0.4248658 0.16774578
C 1.9211848 0.05044304 1.2679647
O 3.0877945 0.2982403 1.2967416
C -2.231899 -0.35570565 -0.8933674
C -3.3811164 -0.70717484 -0.8755107
H 0.3508652 1.8868564 -0.7199366
H -1.2166623 2.1131425 -1.5167377
H -1.1472073 1.9197302 0.24007292
H -0.36723647 -0.21649103 -1.8254377
H -0.49565938 -0.429391 1.2191659
H -0.22908014 -1.781258 0.09658528
H 1.2296093 0.18005171 2.1234696
H -4.39735 -1.0158837 -0.8781295
