16
title
C 1.3065426 1.9117469 0.0043830494
C 1.1802568 0.391745 -0.23108119
N -0.17599335 -0.1540579 -0.18457533
C -0.82659864 -0.11570995 1.1153346
C -2.0156488 -1.0681591 1.1391321
O -3.009981 -0.8854312 1.7887169
C 1.783416 0.03418238 -1.5273566
N 2.2554 -0.21481769 -2.5517414
H 2.3526688 2.226721 -0.039524637
H 0.7498462 2.4650502 -0.7577546
H 0.90861964 2.1721923 0.98838603
H 1.7581506 -0.1314054 0.54235756
H -0.7510896 0.29137635 -0.89238834
H -0.11539068 -0.49652803 1.864084
H -1.1638353 0.8714864 1.4646848
H -1.8747654 -1.9678417 0.5002505
