title
 OpenBabel02282109583D

 15 14  0  0  1  0  0  0  0  0999 V2000
   -0.5844    1.9930    1.0200 C   0  0  0  0  0  0  0  0  0  0  0  0
   -0.3914    0.4715    1.0778 C   0  0  1  0  0  0  0  0  0  0  0  0
    0.2536   -0.0505   -0.0711 O   0  0  0  0  0  0  0  0  0  0  0  0
   -0.5738   -0.1906   -1.2043 C   0  0  0  0  0  0  0  0  0  0  0  0
    0.1905   -1.0048   -2.2387 C   0  0  0  0  0  0  0  0  0  0  0  0
   -0.2051   -1.1790   -3.3589 O   0  0  0  0  0  0  0  0  0  0  0  0
    0.4346    0.0960    2.2384 C   0  0  0  0  0  0  0  0  0  0  0  0
    1.0606   -0.1762    3.1696 N   0  0  0  0  0  0  0  0  0  0  0  0
    0.3800    2.4877    0.8845 H   0  0  0  0  0  0  0  0  0  0  0  0
   -1.2423    2.2585    0.1888 H   0  0  0  0  0  0  0  0  0  0  0  0
   -1.0401    2.3525    1.9462 H   0  0  0  0  0  0  0  0  0  0  0  0
   -1.3715   -0.0165    1.2059 H   0  0  0  0  0  0  0  0  0  0  0  0
   -1.5058   -0.7282   -0.9607 H   0  0  0  0  0  0  0  0  0  0  0  0
   -0.8560    0.7734   -1.6513 H   0  0  0  0  0  0  0  0  0  0  0  0
    1.1432   -1.4310   -1.8577 H   0  0  0  0  0  0  0  0  0  0  0  0
  1  2  1  0  0  0  0
  1 11  1  0  0  0  0
  2 12  1  1  0  0  0
  2  7  1  0  0  0  0
  3  2  1  0  0  0  0
  4 13  1  0  0  0  0
  4  3  1  0  0  0  0
  5 15  1  0  0  0  0
  5  4  1  0  0  0  0
  6  5  2  0  0  0  0
  7  8  3  0  0  0  0
  9  1  1  0  0  0  0
 10  1  1  0  0  0  0
 14  4  1  0  0  0  0
M  END
