title
 OpenBabel02282109583D

 15 14  0  0  1  0  0  0  0  0999 V2000
    1.4127    1.5689    0.1785 N   0  0  0  0  0  0  0  0  0  0  0  0
    1.0468    0.1866   -0.1504 C   0  0  1  0  0  0  0  0  0  0  0  0
   -0.4813    0.0946   -0.3415 C   0  0  0  0  0  0  0  0  0  0  0  0
   -1.1587    0.5442    0.8527 N   0  0  0  0  0  0  0  0  0  0  0  0
   -2.0610   -0.2254    1.5223 C   0  0  0  0  0  0  0  0  0  0  0  0
   -2.4439   -1.3199    1.1696 O   0  0  0  0  0  0  0  0  0  0  0  0
    1.7473   -0.3391   -1.3388 C   0  0  0  0  0  0  0  0  0  0  0  0
    2.3058   -0.7066   -2.2820 N   0  0  0  0  0  0  0  0  0  0  0  0
    2.3819    1.6176    0.4769 H   0  0  0  0  0  0  0  0  0  0  0  0
    1.3366    2.1525   -0.6508 H   0  0  0  0  0  0  0  0  0  0  0  0
    1.3169   -0.4411    0.7058 H   0  0  0  0  0  0  0  0  0  0  0  0
   -0.7684    0.6995   -1.2120 H   0  0  0  0  0  0  0  0  0  0  0  0
   -0.7900   -0.9350   -0.5301 H   0  0  0  0  0  0  0  0  0  0  0  0
   -0.8392    1.4103    1.2596 H   0  0  0  0  0  0  0  0  0  0  0  0
   -2.4204    0.2755    2.4422 H   0  0  0  0  0  0  0  0  0  0  0  0
  1  9  1  0  0  0  0
  2  1  1  0  0  0  0
  2 11  1  1  0  0  0
  3  2  1  0  0  0  0
  3  4  1  0  0  0  0
  4 14  1  0  0  0  0
  4  5  1  0  0  0  0
  5 15  1  0  0  0  0
  6  5  2  0  0  0  0
  7  2  1  0  0  0  0
  8  7  3  0  0  0  0
 10  1  1  0  0  0  0
 12  3  1  0  0  0  0
 13  3  1  0  0  0  0
M  END
