title
 OpenBabel02282109583D

 15 14  0  0  1  0  0  0  0  0999 V2000
   -0.4346    1.5698    1.1640 N   0  0  0  0  0  0  0  0  0  0  0  0
   -0.3203    0.1152    1.1360 C   0  0  1  0  0  0  0  0  0  0  0  0
    0.3683   -0.4681   -0.1148 C   0  0  0  0  0  0  0  0  0  0  0  0
   -0.4027   -0.0181   -1.2221 O   0  0  0  0  0  0  0  0  0  0  0  0
    0.0622   -0.3293   -2.4534 C   0  0  0  0  0  0  0  0  0  0  0  0
   -0.5750    0.0487   -3.4719 N   0  0  0  0  0  0  0  0  0  0  0  0
    0.3872   -0.3630    2.3323 C   0  0  0  0  0  0  0  0  0  0  0  0
    0.9755   -0.7541    3.2458 N   0  0  0  0  0  0  0  0  0  0  0  0
    0.4888    1.9945    1.1716 H   0  0  0  0  0  0  0  0  0  0  0  0
   -0.8938    1.8660    0.3074 H   0  0  0  0  0  0  0  0  0  0  0  0
   -1.3377   -0.2951    1.1648 H   0  0  0  0  0  0  0  0  0  0  0  0
    1.4006   -0.0993   -0.1806 H   0  0  0  0  0  0  0  0  0  0  0  0
    0.3869   -1.5646   -0.0704 H   0  0  0  0  0  0  0  0  0  0  0  0
    0.9948   -0.9090   -2.4358 H   0  0  0  0  0  0  0  0  0  0  0  0
   -0.1020   -0.2615   -4.3179 H   0  0  0  0  0  0  0  0  0  0  0  0
  1  9  1  0  0  0  0
  2  1  1  0  0  0  0
  2 11  1  1  0  0  0
  2  7  1  0  0  0  0
  3 13  1  0  0  0  0
  3  2  1  0  0  0  0
  4  3  1  0  0  0  0
  5 14  1  0  0  0  0
  5  4  1  0  0  0  0
  6  5  2  0  0  0  0
  7  8  3  0  0  0  0
 10  1  1  0  0  0  0
 12  3  1  0  0  0  0
 15  6  1  0  0  0  0
M  END
