title
 OpenBabel02282109583D

 14 13  0  0  1  0  0  0  0  0999 V2000
    0.8129    1.3927    0.0189 N   0  0  0  0  0  0  0  0  0  0  0  0
    0.9960   -0.0121   -0.3347 C   0  0  1  0  0  0  0  0  0  0  0  0
   -0.3746   -0.7126   -0.4346 C   0  0  0  0  0  0  0  0  0  0  0  0
   -0.9659   -0.7906    0.8509 O   0  0  0  0  0  0  0  0  0  0  0  0
   -1.7955    0.2137    1.2294 C   0  0  0  0  0  0  0  0  0  0  0  0
   -2.2523    0.2778    2.3276 O   0  0  0  0  0  0  0  0  0  0  0  0
    1.7551   -0.2204   -1.5842 C   0  0  0  0  0  0  0  0  0  0  0  0
    2.3301   -0.3414   -2.5798 N   0  0  0  0  0  0  0  0  0  0  0  0
    1.6758    1.7920    0.3719 H   0  0  0  0  0  0  0  0  0  0  0  0
    0.5461    1.9349   -0.7976 H   0  0  0  0  0  0  0  0  0  0  0  0
    1.5414   -0.4985    0.4810 H   0  0  0  0  0  0  0  0  0  0  0  0
   -1.0193   -0.1702   -1.1384 H   0  0  0  0  0  0  0  0  0  0  0  0
   -0.2548   -1.7366   -0.7942 H   0  0  0  0  0  0  0  0  0  0  0  0
   -2.0086    0.9231    0.4104 H   0  0  0  0  0  0  0  0  0  0  0  0
  1  9  1  0  0  0  0
  2  1  1  0  0  0  0
  2 11  1  1  0  0  0
  3  2  1  0  0  0  0
  3  4  1  0  0  0  0
  4  5  1  0  0  0  0
  5  6  2  0  0  0  0
  7  2  1  0  0  0  0
  8  7  3  0  0  0  0
 10  1  1  0  0  0  0
 12  3  1  0  0  0  0
 13  3  1  0  0  0  0
 14  5  1  0  0  0  0
M  END
