14
title
N 0.8129387 1.3927106 0.018853843
C 0.99595016 -0.012084964 -0.33470833
C -0.37459403 -0.7126127 -0.43460804
O -0.9659156 -0.79055184 0.8508658
C -1.7954504 0.21366577 1.2294436
O -2.252293 0.27784672 2.327582
C 1.7551178 -0.22041497 -1.5842458
N 2.3301258 -0.34141192 -2.5798297
H 1.6758486 1.7919984 0.37187138
H 0.54614294 1.9348652 -0.79759735
H 1.5414238 -0.49850842 0.48104778
H -1.0193062 -0.17019394 -1.1384232
H -0.25478607 -1.7366095 -0.7941796
H -2.0086267 0.9231278 0.41040727
