15
title
O -0.41015828 1.7395594 1.0893335
C -0.37415427 0.32720053 1.1753429
C 0.23805457 -0.3375541 -0.07334826
C -0.5305989 0.040440265 -1.3475951
C 0.19712985 -0.4000907 -2.5984018
O -0.2814146 -1.0731249 -3.472441
C 0.3364638 -0.11410415 2.3925028
N 0.9262551 -0.44272876 3.330178
H 0.49355716 2.0721653 1.1453756
H -1.421857 0.01925749 1.268475
H 1.2884274 -0.02789044 -0.15328
H 0.24104828 -1.4235587 0.06963577
H -1.5360711 -0.39016294 -1.3569382
H -0.6255351 1.1342264 -1.3816861
H 1.2520401 -0.041143354 -2.6625142
