title
 OpenBabel02282109583D

 15 14  0  0  1  0  0  0  0  0999 V2000
   -0.4102    1.7396    1.0893 O   0  0  0  0  0  0  0  0  0  0  0  0
   -0.3742    0.3272    1.1753 C   0  0  1  0  0  0  0  0  0  0  0  0
    0.2381   -0.3376   -0.0733 C   0  0  0  0  0  0  0  0  0  0  0  0
   -0.5306    0.0404   -1.3476 C   0  0  0  0  0  0  0  0  0  0  0  0
    0.1971   -0.4001   -2.5984 C   0  0  0  0  0  0  0  0  0  0  0  0
   -0.2814   -1.0731   -3.4724 O   0  0  0  0  0  0  0  0  0  0  0  0
    0.3365   -0.1141    2.3925 C   0  0  0  0  0  0  0  0  0  0  0  0
    0.9263   -0.4427    3.3302 N   0  0  0  0  0  0  0  0  0  0  0  0
    0.4936    2.0722    1.1454 H   0  0  0  0  0  0  0  0  0  0  0  0
   -1.4219    0.0193    1.2685 H   0  0  0  0  0  0  0  0  0  0  0  0
    1.2884   -0.0279   -0.1533 H   0  0  0  0  0  0  0  0  0  0  0  0
    0.2410   -1.4236    0.0696 H   0  0  0  0  0  0  0  0  0  0  0  0
   -1.5361   -0.3902   -1.3569 H   0  0  0  0  0  0  0  0  0  0  0  0
   -0.6255    1.1342   -1.3817 H   0  0  0  0  0  0  0  0  0  0  0  0
    1.2520   -0.0411   -2.6625 H   0  0  0  0  0  0  0  0  0  0  0  0
  1  9  1  0  0  0  0
  1  2  1  0  0  0  0
  2 10  1  1  0  0  0
  2  7  1  0  0  0  0
  3 12  1  0  0  0  0
  3  2  1  0  0  0  0
  4  3  1  0  0  0  0
  5  4  1  0  0  0  0
  6  5  2  0  0  0  0
  7  8  3  0  0  0  0
 11  3  1  0  0  0  0
 13  4  1  0  0  0  0
 14  4  1  0  0  0  0
 15  5  1  0  0  0  0
M  END
