title
 OpenBabel02282109583D

 15 14  0  0  1  0  0  0  0  0999 V2000
   -0.9797    1.4427    1.0925 O   0  0  0  0  0  0  0  0  0  0  0  0
   -0.4491    0.1183    0.9823 C   0  0  1  0  0  0  0  0  0  0  0  0
    0.5438    0.0377   -0.1938 C   0  0  0  0  0  0  0  0  0  0  0  0
   -0.0794    0.5336   -1.4017 N   0  0  0  0  0  0  0  0  0  0  0  0
   -0.1352   -0.1806   -2.5579 C   0  0  0  0  0  0  0  0  0  0  0  0
    0.3814   -1.2627   -2.7389 O   0  0  0  0  0  0  0  0  0  0  0  0
    0.1688   -0.3312    2.2275 C   0  0  0  0  0  0  0  0  0  0  0  0
    0.7185   -0.6623    3.2438 C   0  0  0  0  0  0  0  0  0  0  0  0
   -0.3414    1.9705    1.5859 H   0  0  0  0  0  0  0  0  0  0  0  0
   -1.3136   -0.5128    0.7461 H   0  0  0  0  0  0  0  0  0  0  0  0
    1.4394    0.6215    0.0573 H   0  0  0  0  0  0  0  0  0  0  0  0
    0.8517   -0.9935   -0.3771 H   0  0  0  0  0  0  0  0  0  0  0  0
   -0.6004    1.3937   -1.3236 H   0  0  0  0  0  0  0  0  0  0  0  0
   -0.7120    0.3528   -3.3390 H   0  0  0  0  0  0  0  0  0  0  0  0
    1.1859   -0.9711    4.1466 H   0  0  0  0  0  0  0  0  0  0  0  0
  1  9  1  0  0  0  0
  2 10  1  6  0  0  0
  2  1  1  0  0  0  0
  2  7  1  0  0  0  0
  3 11  1  0  0  0  0
  3  2  1  0  0  0  0
  4 13  1  0  0  0  0
  4  3  1  0  0  0  0
  5  4  1  0  0  0  0
  6  5  2  0  0  0  0
  7  8  3  0  0  0  0
  8 15  1  0  0  0  0
 12  3  1  0  0  0  0
 14  5  1  0  0  0  0
M  END
