title
 OpenBabel02282109583D

 14 13  0  0  1  0  0  0  0  0999 V2000
   -0.9959    1.4474    1.0879 O   0  0  0  0  0  0  0  0  0  0  0  0
   -0.4409    0.1489    0.9355 C   0  0  1  0  0  0  0  0  0  0  0  0
    0.5768    0.1009   -0.2206 C   0  0  0  0  0  0  0  0  0  0  0  0
   -0.0408    0.5619   -1.4426 N   0  0  0  0  0  0  0  0  0  0  0  0
   -0.1337   -0.2171   -2.5586 C   0  0  0  0  0  0  0  0  0  0  0  0
    0.3373   -1.3270   -2.6729 O   0  0  0  0  0  0  0  0  0  0  0  0
    0.1701   -0.3274    2.1885 C   0  0  0  0  0  0  0  0  0  0  0  0
    0.6795   -0.6659    3.1688 N   0  0  0  0  0  0  0  0  0  0  0  0
   -0.3350    2.0147    1.5031 H   0  0  0  0  0  0  0  0  0  0  0  0
   -1.2854   -0.5026    0.6882 H   0  0  0  0  0  0  0  0  0  0  0  0
    1.4459    0.7185    0.0418 H   0  0  0  0  0  0  0  0  0  0  0  0
    0.9237   -0.9204   -0.3921 H   0  0  0  0  0  0  0  0  0  0  0  0
   -0.5319    1.4420   -1.4137 H   0  0  0  0  0  0  0  0  0  0  0  0
   -0.6905    0.2937   -3.3675 H   0  0  0  0  0  0  0  0  0  0  0  0
  1  9  1  0  0  0  0
  2 10  1  6  0  0  0
  2  1  1  0  0  0  0
  2  7  1  0  0  0  0
  3 11  1  0  0  0  0
  3  2  1  0  0  0  0
  4 13  1  0  0  0  0
  4  3  1  0  0  0  0
  5  4  1  0  0  0  0
  6  5  2  0  0  0  0
  7  8  3  0  0  0  0
 12  3  1  0  0  0  0
 14  5  1  0  0  0  0
M  END
