15
title
O -0.8167672 1.1446135 0.67892015
C -0.31591064 -0.14945786 0.9968446
C 0.6925958 -0.6330383 -0.06386117
O 0.06945934 -0.7834125 -1.3253639
C 0.015006388 0.30067307 -2.1318018
N -0.6279541 0.24009667 -3.2140918
C 0.2878618 -0.2000363 2.3278413
C 0.8328847 -0.20423625 3.3992598
H -0.1917752 1.793159 1.0217817
H -1.1845973 -0.81652397 0.9514107
H 1.5361927 0.06909508 -0.114769496
H 1.0791763 -1.6171379 0.21309242
H 0.5820251 1.1578292 -1.7491629
H -0.5467689 1.1223925 -3.714765
H 1.2912605 -0.21971987 4.3577247
