title
 OpenBabel02282109583D

 13 12  0  0  1  0  0  0  0  0999 V2000
   -0.7466    1.1820    0.7109 O   0  0  0  0  0  0  0  0  0  0  0  0
   -0.3051   -0.1267    1.0057 C   0  0  1  0  0  0  0  0  0  0  0  0
    0.6433   -0.6767   -0.0773 C   0  0  0  0  0  0  0  0  0  0  0  0
   -0.0528   -0.7734   -1.3081 O   0  0  0  0  0  0  0  0  0  0  0  0
    0.0071    0.2851   -2.1543 C   0  0  0  0  0  0  0  0  0  0  0  0
   -0.6197    0.3270   -3.1651 O   0  0  0  0  0  0  0  0  0  0  0  0
    0.3426   -0.2094    2.3268 C   0  0  0  0  0  0  0  0  0  0  0  0
    0.8893   -0.2459    3.3440 N   0  0  0  0  0  0  0  0  0  0  0  0
   -0.0369    1.8044    0.9091 H   0  0  0  0  0  0  0  0  0  0  0  0
   -1.2054   -0.7502    1.0134 H   0  0  0  0  0  0  0  0  0  0  0  0
    1.5241   -0.0269   -0.1653 H   0  0  0  0  0  0  0  0  0  0  0  0
    0.9795   -1.6829    0.1839 H   0  0  0  0  0  0  0  0  0  0  0  0
    0.7089    1.0673   -1.8103 H   0  0  0  0  0  0  0  0  0  0  0  0
  1  9  1  0  0  0  0
  1  2  1  0  0  0  0
  2 10  1  1  0  0  0
  2  7  1  0  0  0  0
  3 12  1  0  0  0  0
  3  2  1  0  0  0  0
  4  3  1  0  0  0  0
  5 13  1  0  0  0  0
  5  4  1  0  0  0  0
  6  5  2  0  0  0  0
  7  8  3  0  0  0  0
 11  3  1  0  0  0  0
M  END
