13
title
O -0.74664056 1.1820368 0.71085614
C -0.30509454 -0.12666377 1.0056859
C 0.6432587 -0.6767299 -0.077345505
O -0.052770637 -0.7734001 -1.3080708
C 0.007115431 0.28508452 -2.154293
O -0.6196526 0.32704133 -3.165084
C 0.3425598 -0.20937198 2.3268085
N 0.8892725 -0.24594718 3.3439536
H -0.03691732 1.8044109 0.9091494
H -1.2053862 -0.75017047 1.013362
H 1.5241187 -0.026876142 -0.16528513
H 0.97947985 -1.6829332 0.18394034
H 0.7088664 1.0673246 -1.8103415
