title
 OpenBabel02282109583D

 17 16  0  0  1  0  0  0  0  0999 V2000
   -0.5647    1.7324   -0.1383 C   0  0  0  0  0  0  0  0  0  0  0  0
   -0.5620    0.3807   -0.8724 C   0  0  1  0  0  0  0  0  0  0  0  0
    0.1483   -0.7429   -0.1005 C   0  0  0  0  0  0  0  0  0  0  0  0
    1.5870   -0.5534    0.0099 N   0  0  0  0  0  0  0  0  0  0  0  0
    2.1879   -0.0522    1.1221 C   0  0  0  0  0  0  0  0  0  0  0  0
    1.6071    0.3492    2.1085 O   0  0  0  0  0  0  0  0  0  0  0  0
   -1.9805   -0.0193   -1.2336 C   0  0  0  0  0  0  0  0  0  0  0  0
   -2.4722   -1.0986   -1.0223 O   0  0  0  0  0  0  0  0  0  0  0  0
    0.4558    2.0805    0.0315 H   0  0  0  0  0  0  0  0  0  0  0  0
   -1.0925    2.4941   -0.7217 H   0  0  0  0  0  0  0  0  0  0  0  0
   -1.0503    1.6456    0.8381 H   0  0  0  0  0  0  0  0  0  0  0  0
   -0.0520    0.5273   -1.8397 H   0  0  0  0  0  0  0  0  0  0  0  0
   -0.2480   -0.7998    0.9160 H   0  0  0  0  0  0  0  0  0  0  0  0
   -0.0518   -1.7012   -0.5861 H   0  0  0  0  0  0  0  0  0  0  0  0
    2.1780   -0.8761   -0.7394 H   0  0  0  0  0  0  0  0  0  0  0  0
    3.2921   -0.0491    1.0262 H   0  0  0  0  0  0  0  0  0  0  0  0
   -2.5657    0.7875   -1.7337 H   0  0  0  0  0  0  0  0  0  0  0  0
  1  9  1  0  0  0  0
  1 11  1  0  0  0  0
  2 12  1  6  0  0  0
  2  1  1  0  0  0  0
  2  3  1  0  0  0  0
  3  4  1  0  0  0  0
  3 13  1  0  0  0  0
  4  5  1  0  0  0  0
  5  6  2  0  0  0  0
  7  8  2  0  0  0  0
  7  2  1  0  0  0  0
 10  1  1  0  0  0  0
 14  3  1  0  0  0  0
 15  4  1  0  0  0  0
 16  5  1  0  0  0  0
 17  7  1  0  0  0  0
M  END
