17
title
C -0.13339287 1.8400346 1.1133372
C -0.39505446 0.32278237 1.1350025
C 0.22372289 -0.4072784 -0.05089196
O -0.38581175 0.109309815 -1.2359525
C 0.072318785 -0.38138255 -2.4038208
N -0.42213345 0.020378077 -3.4930084
C 0.08055841 -0.27212405 2.44331
O 0.85446405 -1.190992 2.5413356
H 0.9403727 2.052357 1.1537361
H -0.5341429 2.271873 0.19469129
H -0.6095639 2.3342009 1.9656668
H -1.4851074 0.17179227 1.1044707
H 1.3086699 -0.24303603 -0.07517632
H 0.049324296 -1.4860146 0.031097213
H 0.8750068 -1.1224439 -2.2843106
H 0.034300588 -0.4462153 -4.2739906
H -0.34206176 0.22134532 3.3483953
