title
 OpenBabel02282109583D

 16 15  0  0  1  0  0  0  0  0999 V2000
    1.1174    1.8822   -0.3306 C   0  0  0  0  0  0  0  0  0  0  0  0
    1.0865    0.3481   -0.2109 C   0  0  1  0  0  0  0  0  0  0  0  0
   -0.2998   -0.2444   -0.4570 C   0  0  0  0  0  0  0  0  0  0  0  0
   -1.2251    0.2757    0.5050 O   0  0  0  0  0  0  0  0  0  0  0  0
   -1.8373   -0.5891    1.3369 C   0  0  0  0  0  0  0  0  0  0  0  0
   -2.6081   -0.2393    2.1779 O   0  0  0  0  0  0  0  0  0  0  0  0
    2.1060   -0.2753   -1.1436 C   0  0  0  0  0  0  0  0  0  0  0  0
    1.8600   -1.1348   -1.9517 O   0  0  0  0  0  0  0  0  0  0  0  0
    2.1200    2.2724   -0.1313 H   0  0  0  0  0  0  0  0  0  0  0  0
    0.8207    2.2018   -1.3351 H   0  0  0  0  0  0  0  0  0  0  0  0
    0.4254    2.3265    0.3873 H   0  0  0  0  0  0  0  0  0  0  0  0
    1.4058    0.0844    0.8099 H   0  0  0  0  0  0  0  0  0  0  0  0
   -0.6664    0.0330   -1.4496 H   0  0  0  0  0  0  0  0  0  0  0  0
   -0.2665   -1.3381   -0.4082 H   0  0  0  0  0  0  0  0  0  0  0  0
   -1.5471   -1.6416    1.1485 H   0  0  0  0  0  0  0  0  0  0  0  0
    3.1367    0.1325   -1.0331 H   0  0  0  0  0  0  0  0  0  0  0  0
  1  2  1  0  0  0  0
  1  9  1  0  0  0  0
  1 11  1  0  0  0  0
  2 12  1  1  0  0  0
  3 14  1  0  0  0  0
  3  2  1  0  0  0  0
  3  4  1  0  0  0  0
  4  5  1  0  0  0  0
  5  6  2  0  0  0  0
  7 16  1  0  0  0  0
  7  2  1  0  0  0  0
  8  7  2  0  0  0  0
 10  1  1  0  0  0  0
 13  3  1  0  0  0  0
 15  5  1  0  0  0  0
M  END
