16
title
C -0.6185091 1.8230128 1.0008599
C -0.3781654 0.31443572 0.9902939
O 0.30359033 -0.16182116 -0.1565806
C -0.4513826 -0.18971673 -1.3425299
C 0.34277037 -0.956121 -2.3886385
O -0.009604109 -1.0764774 -3.5306737
C 0.46089855 -0.13928911 2.1830997
O 0.3804355 0.339401 3.2823591
H 0.31678012 2.354034 0.8017894
H -1.358871 2.1198704 0.25390187
H -0.9799444 2.1163564 1.9891591
H -1.3472253 -0.21191081 1.0847371
H -1.4185727 -0.70096976 -1.1963946
H -0.67091596 0.8149482 -1.733019
H 1.2818787 -1.403924 -1.9957391
H 1.1507539 -0.97706836 1.9424071
