title
 OpenBabel02282109583D

 16 15  0  0  1  0  0  0  0  0999 V2000
   -0.3876    1.5950    0.9902 O   0  0  0  0  0  0  0  0  0  0  0  0
   -0.4102    0.1996    1.1068 C   0  0  1  0  0  0  0  0  0  0  0  0
    0.2113   -0.4766   -0.1315 C   0  0  0  0  0  0  0  0  0  0  0  0
   -0.5190   -0.0675   -1.4203 C   0  0  0  0  0  0  0  0  0  0  0  0
    0.2013   -0.5590   -2.6540 C   0  0  0  0  0  0  0  0  0  0  0  0
   -0.2893   -1.2418   -3.5152 O   0  0  0  0  0  0  0  0  0  0  0  0
    0.3197   -0.2359    2.3619 C   0  0  0  0  0  0  0  0  0  0  0  0
    0.8475    0.5630    3.0968 O   0  0  0  0  0  0  0  0  0  0  0  0
    0.1210    1.9140    1.7530 H   0  0  0  0  0  0  0  0  0  0  0  0
   -1.4518   -0.1581    1.2057 H   0  0  0  0  0  0  0  0  0  0  0  0
    1.2667   -0.1825   -0.1931 H   0  0  0  0  0  0  0  0  0  0  0  0
    0.1802   -1.5662   -0.0082 H   0  0  0  0  0  0  0  0  0  0  0  0
   -1.5466   -0.4422   -1.4385 H   0  0  0  0  0  0  0  0  0  0  0  0
   -0.5471    1.0295   -1.4574 H   0  0  0  0  0  0  0  0  0  0  0  0
    1.2674   -0.2348   -2.7184 H   0  0  0  0  0  0  0  0  0  0  0  0
    0.3487   -1.3257    2.5647 H   0  0  0  0  0  0  0  0  0  0  0  0
  1  2  1  0  0  0  0
  1  9  1  0  0  0  0
  2 10  1  1  0  0  0
  2  7  1  0  0  0  0
  3 12  1  0  0  0  0
  3  2  1  0  0  0  0
  4  3  1  0  0  0  0
  5  4  1  0  0  0  0
  6  5  2  0  0  0  0
  7 16  1  0  0  0  0
  7  8  2  0  0  0  0
 11  3  1  0  0  0  0
 13  4  1  0  0  0  0
 14  4  1  0  0  0  0
 15  5  1  0  0  0  0
M  END
