16
title
O -0.38755417 1.5949998 0.99024194
C -0.41023633 0.19958669 1.1067544
C 0.21126711 -0.476551 -0.13146447
C -0.51899576 -0.06746444 -1.4203099
C 0.20125318 -0.5590011 -2.6540425
O -0.2892666 -1.2418209 -3.5152194
C 0.31967336 -0.23587358 2.3618987
O 0.84752446 0.56300586 3.0968018
H 0.12104053 1.9139799 1.7530088
H -1.4518443 -0.15810186 1.2057455
H 1.2667094 -0.18251035 -0.19313525
H 0.18015069 -1.5661768 -0.0082322275
H -1.5466241 -0.44223005 -1.4384643
H -0.54709464 1.029493 -1.4573532
H 1.2674179 -0.23484218 -2.7184362
H 0.34867722 -1.3257467 2.56467
