title
 OpenBabel02282109583D

 15 14  0  0  1  0  0  0  0  0999 V2000
    0.0054    1.6605    1.3535 O   0  0  0  0  0  0  0  0  0  0  0  0
   -0.2175    0.4738    0.6453 C   0  0  1  0  0  0  0  0  0  0  0  0
    0.8319    0.3621   -0.4793 C   0  0  0  0  0  0  0  0  0  0  0  0
    0.6528   -0.8214   -1.2711 O   0  0  0  0  0  0  0  0  0  0  0  0
   -0.2388   -0.7596   -2.2767 C   0  0  0  0  0  0  0  0  0  0  0  0
   -0.9549    0.2531   -2.5188 N   0  0  0  0  0  0  0  0  0  0  0  0
   -0.1526   -0.7199    1.5756 C   0  0  0  0  0  0  0  0  0  0  0  0
    0.0444   -0.5815    2.7601 O   0  0  0  0  0  0  0  0  0  0  0  0
    0.1378    1.3894    2.2765 H   0  0  0  0  0  0  0  0  0  0  0  0
   -1.2126    0.4747    0.1713 H   0  0  0  0  0  0  0  0  0  0  0  0
    0.7620    1.2526   -1.1064 H   0  0  0  0  0  0  0  0  0  0  0  0
    1.8335    0.2836   -0.0509 H   0  0  0  0  0  0  0  0  0  0  0  0
   -0.2241   -1.7096   -2.8189 H   0  0  0  0  0  0  0  0  0  0  0  0
   -1.5472    0.0913   -3.3295 H   0  0  0  0  0  0  0  0  0  0  0  0
   -0.2896   -1.7174    1.1175 H   0  0  0  0  0  0  0  0  0  0  0  0
  1  9  1  0  0  0  0
  2 10  1  6  0  0  0
  2  1  1  0  0  0  0
  2  7  1  0  0  0  0
  3 12  1  0  0  0  0
  3  2  1  0  0  0  0
  4  3  1  0  0  0  0
  5  4  1  0  0  0  0
  6  5  2  0  0  0  0
  7  8  2  0  0  0  0
 11  3  1  0  0  0  0
 13  5  1  0  0  0  0
 14  6  1  0  0  0  0
 15  7  1  0  0  0  0
M  END
