title
 OpenBabel02282109583D

 14 13  0  0  1  0  0  0  0  0999 V2000
   -0.5434    1.1267    0.6511 O   0  0  0  0  0  0  0  0  0  0  0  0
   -0.2929   -0.2128    0.9645 C   0  0  1  0  0  0  0  0  0  0  0  0
    0.5831   -0.8623   -0.1181 C   0  0  0  0  0  0  0  0  0  0  0  0
   -0.1194   -0.9153   -1.3541 O   0  0  0  0  0  0  0  0  0  0  0  0
    0.0048    0.1441   -2.1918 C   0  0  0  0  0  0  0  0  0  0  0  0
   -0.5952    0.2095   -3.2194 O   0  0  0  0  0  0  0  0  0  0  0  0
    0.3636   -0.3346    2.3265 C   0  0  0  0  0  0  0  0  0  0  0  0
    0.6250    0.6419    2.9850 O   0  0  0  0  0  0  0  0  0  0  0  0
   -0.2092    1.6432    1.4022 H   0  0  0  0  0  0  0  0  0  0  0  0
   -1.2368   -0.7845    1.0058 H   0  0  0  0  0  0  0  0  0  0  0  0
    1.5147   -0.2923   -0.2232 H   0  0  0  0  0  0  0  0  0  0  0  0
    0.8271   -1.8968    0.1403 H   0  0  0  0  0  0  0  0  0  0  0  0
    0.7171    0.9020   -1.8220 H   0  0  0  0  0  0  0  0  0  0  0  0
    0.5861   -1.3599    2.6845 H   0  0  0  0  0  0  0  0  0  0  0  0
  1  2  1  0  0  0  0
  1  9  1  0  0  0  0
  2 10  1  1  0  0  0
  2  7  1  0  0  0  0
  3 12  1  0  0  0  0
  3  2  1  0  0  0  0
  4  3  1  0  0  0  0
  5 13  1  0  0  0  0
  5  4  1  0  0  0  0
  6  5  2  0  0  0  0
  7 14  1  0  0  0  0
  7  8  2  0  0  0  0
 11  3  1  0  0  0  0
M  END
