title
 OpenBabel02282109583D

 14 13  0  0  0  0  0  0  0  0999 V2000
    0.0493    3.5748    0.6437 C   0  0  0  0  0  0  0  0  0  0  0  0
   -0.0849    2.1756    0.9932 N   0  0  0  0  0  0  0  0  0  0  0  0
    0.0510    1.3255    0.0673 C   0  0  0  0  0  0  0  0  0  0  0  0
   -0.0686   -0.0301    0.3519 N   0  0  0  0  0  0  0  0  0  0  0  0
    0.0604   -1.0350   -0.5779 C   0  0  0  0  0  0  0  0  0  0  0  0
    0.3062   -0.8153   -1.8118 N   0  0  0  0  0  0  0  0  0  0  0  0
   -0.1106   -2.3656   -0.0168 C   0  0  0  0  0  0  0  0  0  0  0  0
   -0.2394   -3.4411    0.3875 N   0  0  0  0  0  0  0  0  0  0  0  0
    0.8543    4.0230    1.2372 H   0  0  0  0  0  0  0  0  0  0  0  0
    0.2611    3.7499   -0.4223 H   0  0  0  0  0  0  0  0  0  0  0  0
   -0.8720    4.1063    0.9079 H   0  0  0  0  0  0  0  0  0  0  0  0
    0.2619    1.5335   -0.9845 H   0  0  0  0  0  0  0  0  0  0  0  0
   -0.2636   -0.2677    1.3133 H   0  0  0  0  0  0  0  0  0  0  0  0
    0.3647   -1.6832   -2.3373 H   0  0  0  0  0  0  0  0  0  0  0  0
  1 11  1  0  0  0  0
  1  2  1  0  0  0  0
  1  9  1  0  0  0  0
  3  4  1  0  0  0  0
  3  2  2  0  0  0  0
  4 13  1  0  0  0  0
  5  7  1  0  0  0  0
  5  4  1  0  0  0  0
  6  5  2  0  0  0  0
  7  8  3  0  0  0  0
 10  1  1  0  0  0  0
 12  3  1  0  0  0  0
 14  6  1  0  0  0  0
M  END
