14
title
C 0.04930649 3.5748274 0.6436856
N -0.08489717 2.175617 0.9931747
C 0.05103437 1.3254625 0.06732277
N -0.06856352 -0.030081185 0.3518982
C 0.06044171 -1.0349697 -0.5778942
N 0.30623385 -0.8152515 -1.8118153
C -0.11059637 -2.3656263 -0.016777184
N -0.23944901 -3.441111 0.38753733
H 0.8542621 4.0229974 1.2372262
H 0.26109773 3.7498627 -0.422253
H -0.8719828 4.106323 0.9079362
H 0.26194414 1.5335244 -0.9845074
H -0.26361844 -0.26765338 1.3133249
H 0.36472812 -1.6832196 -2.337339
