12
title
C 1.6556721 3.1712804 -0.08669559
N 1.5404084 1.7371368 -0.26959312
C 0.45347327 1.1995009 0.027271805
O 0.35133475 -0.17696571 -0.15126105
C -0.8175003 -0.76655614 0.16720423
O -1.804856 -0.2406534 0.5952495
C -0.72180814 -2.2055275 -0.09007922
N -0.7062196 -3.345619 -0.27232727
H 2.4865139 3.374432 0.59643155
H 1.9111453 3.6301937 -1.0471145
H 0.74636805 3.6490405 0.3060793
H -0.455445 1.6595685 0.41712192
