title
 OpenBabel02282109583D

 12 11  0  0  0  0  0  0  0  0999 V2000
    1.6557    3.1713   -0.0867 C   0  0  0  0  0  0  0  0  0  0  0  0
    1.5404    1.7371   -0.2696 N   0  0  0  0  0  0  0  0  0  0  0  0
    0.4535    1.1995    0.0273 C   0  0  0  0  0  0  0  0  0  0  0  0
    0.3513   -0.1770   -0.1513 O   0  0  0  0  0  0  0  0  0  0  0  0
   -0.8175   -0.7666    0.1672 C   0  0  0  0  0  0  0  0  0  0  0  0
   -1.8049   -0.2407    0.5952 O   0  0  0  0  0  0  0  0  0  0  0  0
   -0.7218   -2.2055   -0.0901 C   0  0  0  0  0  0  0  0  0  0  0  0
   -0.7062   -3.3456   -0.2723 N   0  0  0  0  0  0  0  0  0  0  0  0
    2.4865    3.3744    0.5964 H   0  0  0  0  0  0  0  0  0  0  0  0
    1.9111    3.6302   -1.0471 H   0  0  0  0  0  0  0  0  0  0  0  0
    0.7464    3.6490    0.3061 H   0  0  0  0  0  0  0  0  0  0  0  0
   -0.4554    1.6596    0.4171 H   0  0  0  0  0  0  0  0  0  0  0  0
  1 11  1  0  0  0  0
  1  9  1  0  0  0  0
  2  1  1  0  0  0  0
  2  3  2  0  0  0  0
  3 12  1  0  0  0  0
  4  3  1  0  0  0  0
  4  5  1  0  0  0  0
  5  6  2  0  0  0  0
  7  5  1  0  0  0  0
  8  7  3  0  0  0  0
 10  1  1  0  0  0  0
M  END
