15
title
C -0.8999732 2.7887747 -1.1023637
N -0.45613968 1.5348612 -0.53327876
C 0.78624016 1.3567734 -0.36684433
N 1.3196652 0.173907 0.11123507
C 0.57904273 -0.9319846 0.5233502
N 1.0478024 -1.7010883 1.4219157
C -0.70219976 -1.2498411 -0.23248397
O -1.5124536 -2.0104616 0.23173384
H -0.079754554 3.4981544 -1.2972028
H -1.4256616 2.6048226 -2.046642
H -1.6183465 3.2645497 -0.42572924
H 1.5552232 2.1078672 -0.59170055
H 2.2458818 0.21575065 0.5134863
H 0.3952534 -2.4776793 1.5529354
H -0.80368686 -0.8091652 -1.236549
