13
title
C 1.8242575 3.191554 -0.1156827
N 1.7140186 1.7540667 -0.27355927
C 0.6081416 1.2284094 -0.016511835
O 0.49208647 -0.14120781 -0.16366605
C -0.7105326 -0.7172216 0.11470941
O -1.6995692 -0.15335965 0.48119396
C -0.58413476 -2.2299783 -0.12309374
O -1.5095177 -2.9687908 0.052019875
H 2.6214554 3.4103887 0.60232764
H 2.125217 3.6328337 -1.0715089
H 0.89825475 3.6788766 0.22369742
H -0.3118233 1.7113395 0.3186368
H 0.41663426 -2.5605237 -0.46219775
