16
title
C 1.6480871 2.941157 0.5620754
N 1.2836797 1.8637552 -0.33482012
C 0.3732908 1.0843323 0.029970912
O -0.011160459 0.0628416 -0.7840435
C -1.046456 -0.78278345 -0.29503897
C -1.5459555 -1.6200234 -1.4698287
C -0.5551469 -1.6369358 0.8070011
N -0.17915758 -2.2998228 1.6751829
H 2.7104592 2.8582947 0.8156057
H 1.5159034 3.9009876 0.05081407
H 1.067819 2.9614224 1.4983695
H -0.17736658 1.1424007 0.9808589
H -1.8696014 -0.17389733 0.10443727
H -1.9206213 -0.9525842 -2.2486136
H -0.7293156 -2.2190409 -1.8777628
H -2.3491955 -2.285644 -1.1458145
