17
title
C -0.71143603 3.3055997 1.5187204
N -0.7363312 1.8579832 1.5064915
C -0.26212314 1.277348 0.50040454
O -0.28423724 -0.07208205 0.40747395
C 0.40625432 -0.6619768 -0.69161594
C 1.8528836 -1.0012534 -0.3533531
C -0.40821636 -1.8892791 -1.0950845
O 0.04622628 -2.8191895 -1.7053176
H -0.25139865 3.7546806 0.6231647
H -1.7339116 3.6893308 1.6086189
H -0.16238116 3.6548333 2.400248
H 0.18294753 1.7819173 -0.37302336
H 0.3714421 0.022506112 -1.5563563
H 2.289454 -1.5785637 -1.1714851
H 2.4399037 -0.09218658 -0.19938442
H 1.8929224 -1.6022949 0.5588136
H -1.4736913 -1.8364844 -0.78419936
