title
 OpenBabel02282109583D

 17 16  0  0  1  0  0  0  0  0999 V2000
   -0.7114    3.3056    1.5187 C   0  0  0  0  0  0  0  0  0  0  0  0
   -0.7363    1.8580    1.5065 N   0  0  0  0  0  0  0  0  0  0  0  0
   -0.2621    1.2773    0.5004 C   0  0  0  0  0  0  0  0  0  0  0  0
   -0.2842   -0.0721    0.4075 O   0  0  0  0  0  0  0  0  0  0  0  0
    0.4063   -0.6620   -0.6916 C   0  0  1  0  0  0  0  0  0  0  0  0
    1.8529   -1.0013   -0.3534 C   0  0  0  0  0  0  0  0  0  0  0  0
   -0.4082   -1.8893   -1.0951 C   0  0  0  0  0  0  0  0  0  0  0  0
    0.0462   -2.8192   -1.7053 O   0  0  0  0  0  0  0  0  0  0  0  0
   -0.2514    3.7547    0.6232 H   0  0  0  0  0  0  0  0  0  0  0  0
   -1.7339    3.6893    1.6086 H   0  0  0  0  0  0  0  0  0  0  0  0
   -0.1624    3.6548    2.4002 H   0  0  0  0  0  0  0  0  0  0  0  0
    0.1829    1.7819   -0.3730 H   0  0  0  0  0  0  0  0  0  0  0  0
    0.3714    0.0225   -1.5564 H   0  0  0  0  0  0  0  0  0  0  0  0
    2.2895   -1.5786   -1.1715 H   0  0  0  0  0  0  0  0  0  0  0  0
    2.4399   -0.0922   -0.1994 H   0  0  0  0  0  0  0  0  0  0  0  0
    1.8929   -1.6023    0.5588 H   0  0  0  0  0  0  0  0  0  0  0  0
   -1.4737   -1.8365   -0.7842 H   0  0  0  0  0  0  0  0  0  0  0  0
  1 10  1  0  0  0  0
  1 11  1  0  0  0  0
  2  1  1  0  0  0  0
  3  2  2  0  0  0  0
  4  3  1  0  0  0  0
  5 13  1  6  0  0  0
  5  6  1  0  0  0  0
  5  4  1  0  0  0  0
  6 15  1  0  0  0  0
  6 16  1  0  0  0  0
  7 17  1  0  0  0  0
  7  5  1  0  0  0  0
  8  7  2  0  0  0  0
  9  1  1  0  0  0  0
 12  3  1  0  0  0  0
 14  6  1  0  0  0  0
M  END
