14
title
C -1.4011503 2.0328996 2.4335353
C -1.3486848 0.49552792 2.3767715
C -0.674275 -0.019469157 1.1946955
C -0.11242005 -0.43524432 0.20956607
C 0.5550052 -0.95079166 -0.9599512
O 0.69575787 -2.1385643 -1.1798174
C 1.0539336 0.06535934 -1.8689926
C 1.4715714 0.89946806 -2.6295369
H -0.39358982 2.4564319 2.4387052
H -1.9341563 2.4359832 1.5686585
H -1.9177806 2.3582814 3.3406796
H -0.8416114 0.102868035 3.2676823
H -2.3653703 0.08266078 2.4070942
H 1.8432033 1.6301694 -3.3060243
