title
 OpenBabel02282109583D

 14 13  0  0  0  0  0  0  0  0999 V2000
   -1.4012    2.0329    2.4335 C   0  0  0  0  0  0  0  0  0  0  0  0
   -1.3487    0.4955    2.3768 C   0  0  0  0  0  0  0  0  0  0  0  0
   -0.6743   -0.0195    1.1947 C   0  0  0  0  0  0  0  0  0  0  0  0
   -0.1124   -0.4352    0.2096 C   0  0  0  0  0  0  0  0  0  0  0  0
    0.5550   -0.9508   -0.9600 C   0  0  0  0  0  0  0  0  0  0  0  0
    0.6958   -2.1386   -1.1798 O   0  0  0  0  0  0  0  0  0  0  0  0
    1.0539    0.0654   -1.8690 C   0  0  0  0  0  0  0  0  0  0  0  0
    1.4716    0.8995   -2.6295 C   0  0  0  0  0  0  0  0  0  0  0  0
   -0.3936    2.4564    2.4387 H   0  0  0  0  0  0  0  0  0  0  0  0
   -1.9342    2.4360    1.5687 H   0  0  0  0  0  0  0  0  0  0  0  0
   -1.9178    2.3583    3.3407 H   0  0  0  0  0  0  0  0  0  0  0  0
   -0.8416    0.1029    3.2677 H   0  0  0  0  0  0  0  0  0  0  0  0
   -2.3654    0.0827    2.4071 H   0  0  0  0  0  0  0  0  0  0  0  0
    1.8432    1.6302   -3.3060 H   0  0  0  0  0  0  0  0  0  0  0  0
  1  9  1  0  0  0  0
  1 11  1  0  0  0  0
  2 13  1  0  0  0  0
  2  1  1  0  0  0  0
  2 12  1  0  0  0  0
  3  2  1  0  0  0  0
  4  3  3  0  0  0  0
  5  4  1  0  0  0  0
  6  5  2  0  0  0  0
  7  5  1  0  0  0  0
  8  7  3  0  0  0  0
 10  1  1  0  0  0  0
 14  8  1  0  0  0  0
M  END
