13
title
C 2.74853 2.1098866 -0.014468128
C 2.730996 0.57033676 -0.023479031
C 1.3916893 0.005643614 -0.013077867
C 0.2732977 -0.45202148 -0.0046132477
C -1.0513059 -0.99318284 0.004947203
O -1.3301681 -2.1707802 0.0016143459
C -2.1166985 0.029960223 0.01992583
N -2.9560044 0.8252272 0.031687524
H 3.7805119 2.4700527 -0.02285992
H 2.2347906 2.510289 -0.8918177
H 2.252882 2.4997063 0.8779255
H 3.259864 0.18876402 -0.906491
H 3.2777784 0.17831312 0.8438843
