title
 OpenBabel02282109583D

 13 12  0  0  0  0  0  0  0  0999 V2000
    2.7485    2.1099   -0.0145 C   0  0  0  0  0  0  0  0  0  0  0  0
    2.7310    0.5703   -0.0235 C   0  0  0  0  0  0  0  0  0  0  0  0
    1.3917    0.0056   -0.0131 C   0  0  0  0  0  0  0  0  0  0  0  0
    0.2733   -0.4520   -0.0046 C   0  0  0  0  0  0  0  0  0  0  0  0
   -1.0513   -0.9932    0.0049 C   0  0  0  0  0  0  0  0  0  0  0  0
   -1.3302   -2.1708    0.0016 O   0  0  0  0  0  0  0  0  0  0  0  0
   -2.1167    0.0300    0.0199 C   0  0  0  0  0  0  0  0  0  0  0  0
   -2.9560    0.8252    0.0317 N   0  0  0  0  0  0  0  0  0  0  0  0
    3.7805    2.4701   -0.0229 H   0  0  0  0  0  0  0  0  0  0  0  0
    2.2348    2.5103   -0.8918 H   0  0  0  0  0  0  0  0  0  0  0  0
    2.2529    2.4997    0.8779 H   0  0  0  0  0  0  0  0  0  0  0  0
    3.2599    0.1888   -0.9065 H   0  0  0  0  0  0  0  0  0  0  0  0
    3.2778    0.1783    0.8439 H   0  0  0  0  0  0  0  0  0  0  0  0
  1 11  1  0  0  0  0
  2  1  1  0  0  0  0
  2  3  1  0  0  0  0
  2 13  1  0  0  0  0
  3  4  3  0  0  0  0
  4  5  1  0  0  0  0
  5  7  1  0  0  0  0
  6  5  2  0  0  0  0
  7  8  3  0  0  0  0
  9  1  1  0  0  0  0
 10  1  1  0  0  0  0
 12  2  1  0  0  0  0
M  END
