12
title
O 2.6536002 1.9678833 -0.014339476
C 2.6714497 0.55050534 -0.022750067
C 1.3103254 0.03744501 -0.012472986
C 0.19518702 -0.42363763 -0.004346395
C -1.1322507 -0.98965824 0.005430782
O -1.3398584 -2.187605 0.0012069884
C -2.204054 -0.013513862 0.020859923
C -3.0990665 0.7907669 0.033734765
H 3.5680764 2.2688606 -0.020486899
H 3.1830072 0.15196827 -0.91448355
H 3.2002892 0.1416764 0.854108
H -3.89265 1.497976 0.045554273
