11
title
O 2.6518154 1.9745303 -0.014299032
C 2.6888323 0.56121 -0.022956744
C 1.3328185 0.03365276 -0.012688561
C 0.22137648 -0.43698815 -0.004527517
C -1.0957544 -0.9998026 0.005133852
O -1.3452525 -2.1836686 0.00094161334
C -2.1799173 0.0004169137 0.020886833
N -3.0400758 0.7728506 0.03327081
H 3.560974 2.2914147 -0.0207446
H 3.2007313 0.16309537 -0.91490775
H 3.218194 0.15270515 0.85396826
