14
title
C -1.633276 2.0732052 2.129155
C -1.5422244 0.538324 2.2032254
C -0.75931644 -0.0478565 1.127086
C -0.10599294 -0.5192022 0.22665039
C 0.6710119 -1.0680182 -0.8458236
O 0.89366317 -2.2499743 -1.0148319
C 1.2626152 -0.06884198 -1.8536574
O 1.1151135 1.1206048 -1.7965552
H -0.6394288 2.5243852 2.1817782
H -2.0992565 2.3900647 1.1929244
H -2.2319481 2.4534988 2.961302
H -1.1029521 0.23032747 3.1610298
H -2.5474024 0.09741451 2.1826005
H 1.8461404 -0.5851003 -2.6450195
