12
title
O 2.7389736 2.1125226 -0.015016102
C 2.8096898 0.6982199 -0.021914843
C 1.46697 0.1382073 -0.012550503
C 0.36830243 -0.3639496 -0.005202776
C -0.968208 -0.90212244 0.004414154
O -1.2361661 -2.0804038 0.0018055348
C -2.081497 0.17775215 0.019395085
O -3.2427971 -0.113888495 0.02858516
H 3.6407516 2.4497325 -0.01917755
H 3.3344147 0.31502324 -0.91273934
H 3.350062 0.30717 0.85602915
H -1.7166282 1.2273948 0.02083108
