title
 OpenBabel02282109583D

 12 11  0  0  0  0  0  0  0  0999 V2000
    2.7390    2.1125   -0.0150 O   0  0  0  0  0  0  0  0  0  0  0  0
    2.8097    0.6982   -0.0219 C   0  0  0  0  0  0  0  0  0  0  0  0
    1.4670    0.1382   -0.0126 C   0  0  0  0  0  0  0  0  0  0  0  0
    0.3683   -0.3639   -0.0052 C   0  0  0  0  0  0  0  0  0  0  0  0
   -0.9682   -0.9021    0.0044 C   0  0  0  0  0  0  0  0  0  0  0  0
   -1.2362   -2.0804    0.0018 O   0  0  0  0  0  0  0  0  0  0  0  0
   -2.0815    0.1778    0.0194 C   0  0  0  0  0  0  0  0  0  0  0  0
   -3.2428   -0.1139    0.0286 O   0  0  0  0  0  0  0  0  0  0  0  0
    3.6408    2.4497   -0.0192 H   0  0  0  0  0  0  0  0  0  0  0  0
    3.3344    0.3150   -0.9127 H   0  0  0  0  0  0  0  0  0  0  0  0
    3.3501    0.3072    0.8560 H   0  0  0  0  0  0  0  0  0  0  0  0
   -1.7166    1.2274    0.0208 H   0  0  0  0  0  0  0  0  0  0  0  0
  2  1  1  0  0  0  0
  2  3  1  0  0  0  0
  2 11  1  0  0  0  0
  3  4  3  0  0  0  0
  4  5  1  0  0  0  0
  5  7  1  0  0  0  0
  6  5  2  0  0  0  0
  7 12  1  0  0  0  0
  7  8  2  0  0  0  0
  9  1  1  0  0  0  0
 10  2  1  0  0  0  0
M  END
