18
title
C -1.4799441 2.2341413 2.5720181
C -1.4301022 0.6963218 2.5323775
C -0.7616546 0.16457187 1.352709
C -0.20734069 -0.2759096 0.37411538
C 0.4593573 -0.7992914 -0.80288464
O 0.5733724 -1.9917306 -0.99823624
C 0.9996143 0.24943791 -1.7644321
C 1.690933 -0.34984672 -2.9859648
H -0.47166488 2.6565037 2.567675
H -2.0161233 2.6286511 1.7048992
H -1.9917861 2.57253 3.4772954
H -0.9204728 0.31532398 3.4268265
H -2.4480035 0.28764158 2.5741277
H 0.16021052 0.89706 -2.0518794
H 1.6768181 0.90085036 -1.1954771
H 1.00265 -0.98074985 -3.5540214
H 2.061005 0.4409723 -3.6443906
H 2.5349493 -0.9772352 -2.6885252
