16
title
C -1.4904888 2.2108111 2.5835798
C -1.4297546 0.6740366 2.5195951
C -0.7532786 0.17013161 1.3327482
C -0.18983144 -0.22613938 0.34351832
C 0.4689663 -0.7849332 -0.8104591
O 0.60703903 -1.9654074 -1.0224397
O 0.91550833 0.18819652 -1.6306331
C 1.5862168 -0.27869263 -2.808397
H -0.48516434 2.6397607 2.588766
H -2.0263076 2.6149883 1.7208858
H -2.0076213 2.5300815 3.492766
H -0.9194985 0.2815551 3.4085712
H -2.4445887 0.2570384 2.5497274
H 2.4655685 -0.87113094 -2.5430143
H 0.91815263 -0.8960949 -3.4143412
H 1.8791183 0.61801755 -3.354236
