16
title
C 1.7698661 3.1523616 -0.00039970526
C 1.5990721 1.6357253 -0.006454462
C 0.1423859 1.1965821 0.0051290593
O -0.78484064 1.9781336 0.018493908
C -0.070238054 -0.23921114 -0.000816107
C -0.23895925 -1.4342521 -0.0057044835
C -0.4196182 -2.878462 -0.011351561
O -1.8019146 -3.1938546 0.00029024924
H 2.830354 3.4187436 -0.008823671
H 1.2915866 3.6024823 -0.8738443
H 1.3077626 3.5936122 0.88617265
H 2.075062 1.1782666 -0.8844815
H 2.091412 1.1695385 0.85787714
H 0.08424252 -3.2881267 -0.90262
H 0.10122329 -3.297242 0.8658245
H -1.8800708 -4.153432 -0.004732909
