title
 OpenBabel02282109583D

 15 14  0  0  0  0  0  0  0  0999 V2000
    1.2468    3.2846   -0.1379 C   0  0  0  0  0  0  0  0  0  0  0  0
    1.1070    1.8431   -0.1804 N   0  0  0  0  0  0  0  0  0  0  0  0
   -0.0760    1.2130    0.0849 C   0  0  0  0  0  0  0  0  0  0  0  0
   -1.1078    1.7906    0.3772 O   0  0  0  0  0  0  0  0  0  0  0  0
    0.0086   -0.2373   -0.0150 C   0  0  0  0  0  0  0  0  0  0  0  0
    0.0280   -1.4402   -0.0849 C   0  0  0  0  0  0  0  0  0  0  0  0
    0.0798   -2.8933   -0.1764 C   0  0  0  0  0  0  0  0  0  0  0  0
   -1.1963   -3.4387    0.1163 O   0  0  0  0  0  0  0  0  0  0  0  0
    1.9843    3.5913    0.6122 H   0  0  0  0  0  0  0  0  0  0  0  0
    1.5496    3.6843   -1.1121 H   0  0  0  0  0  0  0  0  0  0  0  0
    0.2739    3.6980    0.1297 H   0  0  0  0  0  0  0  0  0  0  0  0
    1.9029    1.2723   -0.4126 H   0  0  0  0  0  0  0  0  0  0  0  0
    0.4160   -3.1691   -1.1897 H   0  0  0  0  0  0  0  0  0  0  0  0
    0.8484   -3.2615    0.5234 H   0  0  0  0  0  0  0  0  0  0  0  0
   -1.1243   -4.3962    0.0464 H   0  0  0  0  0  0  0  0  0  0  0  0
  1 11  1  0  0  0  0
  1  9  1  0  0  0  0
  2  1  1  0  0  0  0
  2  3  1  0  0  0  0
  3  4  2  0  0  0  0
  5  3  1  0  0  0  0
  6  5  3  0  0  0  0
  7  6  1  0  0  0  0
  7  8  1  0  0  0  0
  7 14  1  0  0  0  0
 10  1  1  0  0  0  0
 12  2  1  0  0  0  0
 13  7  1  0  0  0  0
 15  8  1  0  0  0  0
M  END
