title
 OpenBabel02282109583D

 14 13  0  0  0  0  0  0  0  0999 V2000
   -0.7190    3.0934    1.2145 C   0  0  0  0  0  0  0  0  0  0  0  0
   -0.6488    1.6640    1.1169 O   0  0  0  0  0  0  0  0  0  0  0  0
   -0.0222    1.2029    0.0170 C   0  0  0  0  0  0  0  0  0  0  0  0
    0.4554    1.9033   -0.8410 O   0  0  0  0  0  0  0  0  0  0  0  0
   -0.0005   -0.2397    0.0058 C   0  0  0  0  0  0  0  0  0  0  0  0
    0.0519   -1.4409   -0.0643 C   0  0  0  0  0  0  0  0  0  0  0  0
    0.0911   -2.8955   -0.1054 C   0  0  0  0  0  0  0  0  0  0  0  0
    0.7569   -3.3271   -1.2803 O   0  0  0  0  0  0  0  0  0  0  0  0
    0.2836    3.5277    1.2382 H   0  0  0  0  0  0  0  0  0  0  0  0
   -1.2630    3.5114    0.3637 H   0  0  0  0  0  0  0  0  0  0  0  0
   -1.2475    3.2977    2.1454 H   0  0  0  0  0  0  0  0  0  0  0  0
    0.5972   -3.2543    0.8060 H   0  0  0  0  0  0  0  0  0  0  0  0
   -0.9444   -3.2713   -0.0613 H   0  0  0  0  0  0  0  0  0  0  0  0
    0.7635   -4.2898   -1.2720 H   0  0  0  0  0  0  0  0  0  0  0  0
  1  9  1  0  0  0  0
  1 11  1  0  0  0  0
  2  1  1  0  0  0  0
  3  2  1  0  0  0  0
  4  3  2  0  0  0  0
  5  3  1  0  0  0  0
  6  5  3  0  0  0  0
  7  6  1  0  0  0  0
  7 13  1  0  0  0  0
  7 12  1  0  0  0  0
  8 14  1  0  0  0  0
  8  7  1  0  0  0  0
 10  1  1  0  0  0  0
M  END
