title
 OpenBabel02282109583D

 16 15  0  0  1  0  0  0  0  0999 V2000
   -1.7046    1.8272    2.3406 C   0  0  0  0  0  0  0  0  0  0  0  0
   -0.4617    0.9521    2.5853 C   0  0  0  0  0  0  0  0  0  0  0  0
    0.0068    0.2751    1.3813 C   0  0  0  0  0  0  0  0  0  0  0  0
    0.3772   -0.2753    0.3776 C   0  0  0  0  0  0  0  0  0  0  0  0
    0.8282   -0.9419   -0.8443 C   0  0  1  0  0  0  0  0  0  0  0  0
    0.1937   -2.2584   -0.9951 N   0  0  0  0  0  0  0  0  0  0  0  0
    0.6160   -0.0528   -2.0180 C   0  0  0  0  0  0  0  0  0  0  0  0
    0.4408    0.5858   -2.9654 N   0  0  0  0  0  0  0  0  0  0  0  0
   -1.4950    2.6017    1.5984 H   0  0  0  0  0  0  0  0  0  0  0  0
   -2.5388    1.2238    1.9731 H   0  0  0  0  0  0  0  0  0  0  0  0
   -2.0135    2.3132    3.2704 H   0  0  0  0  0  0  0  0  0  0  0  0
    0.3517    1.5686    2.9880 H   0  0  0  0  0  0  0  0  0  0  0  0
   -0.6814    0.2018    3.3551 H   0  0  0  0  0  0  0  0  0  0  0  0
    1.9113   -1.1131   -0.7762 H   0  0  0  0  0  0  0  0  0  0  0  0
   -0.8139   -2.1398   -1.0494 H   0  0  0  0  0  0  0  0  0  0  0  0
    0.4908   -2.6769   -1.8727 H   0  0  0  0  0  0  0  0  0  0  0  0
  1  2  1  0  0  0  0
  1 11  1  0  0  0  0
  2 12  1  0  0  0  0
  2 13  1  0  0  0  0
  3  2  1  0  0  0  0
  4  3  3  0  0  0  0
  5 14  1  1  0  0  0
  5  4  1  0  0  0  0
  6  5  1  0  0  0  0
  7  5  1  0  0  0  0
  8  7  3  0  0  0  0
  9  1  1  0  0  0  0
 10  1  1  0  0  0  0
 15  6  1  0  0  0  0
 16  6  1  0  0  0  0
M  END
