16
title
C -1.7046403 1.8272009 2.3405893
C -0.4616924 0.9521336 2.5852537
C 0.0068227123 0.2750728 1.3813045
C 0.3771863 -0.2752641 0.37764183
C 0.82815707 -0.9419096 -0.8442613
N 0.19373322 -2.2583954 -0.9951142
C 0.61603546 -0.0528445 -2.017987
N 0.44083512 0.5858333 -2.9654114
H -1.4949878 2.6017349 1.5983872
H -2.538797 1.2237676 1.9730533
H -2.013515 2.313245 3.2703812
H 0.35174036 1.568642 2.9880233
H -0.6814384 0.2017597 3.3550818
H 1.9113322 -1.1130778 -0.7762064
H -0.8139455 -2.1397538 -1.0494012
H 0.49081528 -2.6768723 -1.8726691
