16
title
C 2.7926211 1.9898938 0.16374199
C 2.414837 1.0145329 -0.9658641
C 1.1509602 0.3249512 -0.73139113
C 0.10277198 -0.23085539 -0.52462155
C -1.1564617 -0.9402888 -0.26182714
O -0.94481254 -2.256845 0.24321817
C -2.0311852 -0.15062152 0.62033767
C -2.7458572 0.47086453 1.3593259
H 3.7437825 2.4813042 -0.060875792
H 2.0258703 2.759591 0.2848765
H 2.893638 1.4619594 1.1157919
H 2.355523 1.5575615 -1.9177434
H 3.2118068 0.27092448 -1.0941256
H -1.6796737 -1.1000382 -1.2136074
H -0.46212697 -2.167265 1.0732276
H -3.380468 1.0239354 2.0069761
