15
title
C 2.7894 1.9997423 0.18900037
C 2.4634783 0.9770438 -0.9148511
C 1.1940824 0.29121864 -0.7041199
C 0.13967812 -0.25936234 -0.5175977
C -1.1231319 -0.95893353 -0.27432674
O -0.96063435 -2.2409928 0.30606914
C -2.0272667 -0.11371564 0.5479389
N -2.7326562 0.5257993 1.2018185
H 3.7466745 2.485897 -0.01863695
H 2.0156646 2.7694874 0.24675685
H 2.8547163 1.5119647 1.1650819
H 2.4385235 1.4782194 -1.8905921
H 3.2651083 0.23057361 -0.97992635
H -1.633763 -1.1431555 -1.2277514
H -0.41229784 -2.13898 1.0931798
