title
 OpenBabel02282109583D

 14 13  0  0  1  0  0  0  0  0999 V2000
    2.8309    1.6061    0.3350 O   0  0  0  0  0  0  0  0  0  0  0  0
    2.3693    1.0559   -0.8914 C   0  0  0  0  0  0  0  0  0  0  0  0
    1.0893    0.3920   -0.6811 C   0  0  0  0  0  0  0  0  0  0  0  0
    0.0306   -0.1606   -0.5352 C   0  0  0  0  0  0  0  0  0  0  0  0
   -1.2412   -0.8690   -0.3364 C   0  0  1  0  0  0  0  0  0  0  0  0
   -1.0531   -2.2327    0.0303 O   0  0  0  0  0  0  0  0  0  0  0  0
   -2.0949   -0.1529    0.6240 C   0  0  0  0  0  0  0  0  0  0  0  0
   -2.7933    0.4058    1.4257 C   0  0  0  0  0  0  0  0  0  0  0  0
    3.6725    2.0383    0.1569 H   0  0  0  0  0  0  0  0  0  0  0  0
    2.2408    1.8361   -1.6593 H   0  0  0  0  0  0  0  0  0  0  0  0
    3.0867    0.3246   -1.2984 H   0  0  0  0  0  0  0  0  0  0  0  0
   -1.7673   -0.9188   -1.2986 H   0  0  0  0  0  0  0  0  0  0  0  0
   -0.5790   -2.2385    0.8702 H   0  0  0  0  0  0  0  0  0  0  0  0
   -3.4109    0.9058    2.1305 H   0  0  0  0  0  0  0  0  0  0  0  0
  2  3  1  0  0  0  0
  2  1  1  0  0  0  0
  3  4  3  0  0  0  0
  4  5  1  0  0  0  0
  5 12  1  6  0  0  0
  5  6  1  0  0  0  0
  5  7  1  0  0  0  0
  6 13  1  0  0  0  0
  7  8  3  0  0  0  0
  8 14  1  0  0  0  0
  9  1  1  0  0  0  0
 10  2  1  0  0  0  0
 11  2  1  0  0  0  0
M  END
