16
title
C 1.2271959 2.3003983 -0.24143855
C 1.1463503 0.76100135 -0.38568118
C 1.9048975 0.12027478 0.78226197
O 2.9797382 -0.40436864 0.67922
C -0.23301746 0.28700042 -0.38801083
C -1.3713839 -0.10605532 -0.332344
C -2.7358088 -0.63497865 -0.31167185
O -2.8090324 -1.9989295 0.07583305
H 2.2695355 2.627901 -0.2825053
H 0.67275715 2.7819223 -1.0501325
H 0.79210794 2.6246345 0.70846176
H 1.6633046 0.45577782 -1.3021649
H 1.377337 0.20240664 1.7585323
H -3.3412118 -0.086030245 0.41805023
H -3.2013288 -0.4697461 -1.2966572
H -2.2059553 -2.4933422 -0.48913464
