title
 OpenBabel02282109583D

 18 17  0  0  1  0  0  0  0  0999 V2000
    2.8145    2.2468   -0.5054 C   0  0  0  0  0  0  0  0  0  0  0  0
    2.7480    0.7321   -0.2368 C   0  0  0  0  0  0  0  0  0  0  0  0
    1.3883    0.2028   -0.2730 C   0  0  0  0  0  0  0  0  0  0  0  0
    0.2571   -0.2099   -0.3269 C   0  0  0  0  0  0  0  0  0  0  0  0
   -1.1137   -0.7114   -0.3290 C   0  0  1  0  0  0  0  0  0  0  0  0
   -1.1706   -2.2528   -0.4543 C   0  0  0  0  0  0  0  0  0  0  0  0
   -1.8047   -0.2989    0.9739 C   0  0  0  0  0  0  0  0  0  0  0  0
   -2.8834    0.2258    1.0327 O   0  0  0  0  0  0  0  0  0  0  0  0
    3.8509    2.5948   -0.4671 H   0  0  0  0  0  0  0  0  0  0  0  0
    2.4066    2.4846   -1.4914 H   0  0  0  0  0  0  0  0  0  0  0  0
    2.2369    2.7993    0.2404 H   0  0  0  0  0  0  0  0  0  0  0  0
    3.3633    0.2006   -0.9741 H   0  0  0  0  0  0  0  0  0  0  0  0
    3.1957    0.5124    0.7409 H   0  0  0  0  0  0  0  0  0  0  0  0
   -1.6888   -0.2606   -1.1455 H   0  0  0  0  0  0  0  0  0  0  0  0
   -2.2093   -2.5926   -0.4930 H   0  0  0  0  0  0  0  0  0  0  0  0
   -0.6594   -2.5726   -1.3653 H   0  0  0  0  0  0  0  0  0  0  0  0
   -0.6751   -2.7297    0.3968 H   0  0  0  0  0  0  0  0  0  0  0  0
   -1.2195   -0.5481    1.8877 H   0  0  0  0  0  0  0  0  0  0  0  0
  1  9  1  0  0  0  0
  1  2  1  0  0  0  0
  1 11  1  0  0  0  0
  2 13  1  0  0  0  0
  3  2  1  0  0  0  0
  4  3  3  0  0  0  0
  5 14  1  6  0  0  0
  5  4  1  0  0  0  0
  5  7  1  0  0  0  0
  6  5  1  0  0  0  0
  6 17  1  0  0  0  0
  7  8  2  0  0  0  0
  7 18  1  0  0  0  0
 10  1  1  0  0  0  0
 12  2  1  0  0  0  0
 15  6  1  0  0  0  0
 16  6  1  0  0  0  0
M  END
