title
 OpenBabel02282109583D

 14 13  0  0  1  0  0  0  0  0999 V2000
    2.6920    1.9834    0.3288 O   0  0  0  0  0  0  0  0  0  0  0  0
    2.5342    1.0769   -0.7542 C   0  0  0  0  0  0  0  0  0  0  0  0
    1.2395    0.4158   -0.6541 C   0  0  0  0  0  0  0  0  0  0  0  0
    0.1815   -0.1550   -0.5928 C   0  0  0  0  0  0  0  0  0  0  0  0
   -1.1245   -0.8122   -0.4911 C   0  0  1  0  0  0  0  0  0  0  0  0
   -1.0633   -2.1309   -0.0222 O   0  0  0  0  0  0  0  0  0  0  0  0
   -2.0072    0.0407    0.4304 C   0  0  0  0  0  0  0  0  0  0  0  0
   -2.5130   -0.4333    1.4142 O   0  0  0  0  0  0  0  0  0  0  0  0
    3.5644    2.3819    0.2456 H   0  0  0  0  0  0  0  0  0  0  0  0
    2.5973    1.5958   -1.7247 H   0  0  0  0  0  0  0  0  0  0  0  0
    3.3216    0.3059   -0.7536 H   0  0  0  0  0  0  0  0  0  0  0  0
   -1.6043   -0.7936   -1.4861 H   0  0  0  0  0  0  0  0  0  0  0  0
   -1.5219   -2.1193    0.8339 H   0  0  0  0  0  0  0  0  0  0  0  0
   -2.1336    1.1005    0.1406 H   0  0  0  0  0  0  0  0  0  0  0  0
  2 11  1  0  0  0  0
  2  3  1  0  0  0  0
  2  1  1  0  0  0  0
  3  4  3  0  0  0  0
  4  5  1  0  0  0  0
  5 12  1  6  0  0  0
  5  6  1  0  0  0  0
  5  7  1  0  0  0  0
  6 13  1  0  0  0  0
  7  8  2  0  0  0  0
  9  1  1  0  0  0  0
 10  2  1  0  0  0  0
 14  7  1  0  0  0  0
M  END
