22
title
C 2.9917872 2.2147205 -0.85059845
C 2.7745674 0.9648 0.021959182
C 1.420082 0.42832553 -0.07365775
C 0.29453948 0.009356926 -0.1765872
C -1.0656865 -0.5236982 -0.27209267
C -1.0413113 -1.9875607 -0.75771576
C -1.8103564 -0.35171032 1.0753909
C -3.3003414 -0.69972026 1.017964
H 4.017736 2.5810597 -0.74701774
H 2.8112922 1.9878811 -1.9049302
H 2.3079379 3.015947 -0.55739176
H 3.496544 0.18951751 -0.26605132
H 2.9988744 1.2077723 1.0688319
H -1.6093743 0.06850607 -1.023618
H -0.54158735 -2.6270792 -0.022953454
H -2.05424 -2.3684652 -0.91495675
H -0.4965 -2.0710127 -1.7016739
H -1.3081558 -0.9664751 1.8325315
H -1.6915843 0.68830305 1.3982077
H -3.782695 -0.49035025 1.977776
H -3.8163197 -0.10844182 0.25265685
H -3.4690945 -1.7567265 0.7913481
