20
title
C 2.9657905 2.2375627 -0.63694525
C 2.815393 0.8148279 -0.06834523
C 1.4479961 0.3099547 -0.13460276
C 0.30933684 -0.077951066 -0.18921292
C -1.0598203 -0.58441216 -0.28018728
C -1.0763646 -2.0912452 -0.5874698
O -1.724559 -0.28542584 0.9460821
C -3.129921 -0.27067274 0.8496282
H 4.0049443 2.5715368 -0.56059325
H 2.6701415 2.2688682 -1.6891928
H 2.3350773 2.9425642 -0.08885083
H 3.482265 0.13051093 -0.60865957
H 3.1531184 0.79936016 0.9758954
H -1.5752116 -0.053062018 -1.099409
H -2.1017103 -2.4580913 -0.688455
H -0.54778606 -2.2913792 -1.5234778
H -0.58191377 -2.6383765 0.2189343
H -3.5109658 0.054930154 1.8207084
H -3.4780989 0.4354153 0.07883262
H -3.5549307 -1.2602547 0.6253494
