title
 OpenBabel02282109583D

 20 19  0  0  1  0  0  0  0  0999 V2000
    2.9658    2.2376   -0.6369 C   0  0  0  0  0  0  0  0  0  0  0  0
    2.8154    0.8148   -0.0683 C   0  0  0  0  0  0  0  0  0  0  0  0
    1.4480    0.3100   -0.1346 C   0  0  0  0  0  0  0  0  0  0  0  0
    0.3093   -0.0780   -0.1892 C   0  0  0  0  0  0  0  0  0  0  0  0
   -1.0598   -0.5844   -0.2802 C   0  0  1  0  0  0  0  0  0  0  0  0
   -1.0764   -2.0912   -0.5875 C   0  0  0  0  0  0  0  0  0  0  0  0
   -1.7246   -0.2854    0.9461 O   0  0  0  0  0  0  0  0  0  0  0  0
   -3.1299   -0.2707    0.8496 C   0  0  0  0  0  0  0  0  0  0  0  0
    4.0049    2.5715   -0.5606 H   0  0  0  0  0  0  0  0  0  0  0  0
    2.6701    2.2689   -1.6892 H   0  0  0  0  0  0  0  0  0  0  0  0
    2.3351    2.9426   -0.0889 H   0  0  0  0  0  0  0  0  0  0  0  0
    3.4823    0.1305   -0.6087 H   0  0  0  0  0  0  0  0  0  0  0  0
    3.1531    0.7994    0.9759 H   0  0  0  0  0  0  0  0  0  0  0  0
   -1.5752   -0.0531   -1.0994 H   0  0  0  0  0  0  0  0  0  0  0  0
   -2.1017   -2.4581   -0.6885 H   0  0  0  0  0  0  0  0  0  0  0  0
   -0.5478   -2.2914   -1.5235 H   0  0  0  0  0  0  0  0  0  0  0  0
   -0.5819   -2.6384    0.2189 H   0  0  0  0  0  0  0  0  0  0  0  0
   -3.5110    0.0549    1.8207 H   0  0  0  0  0  0  0  0  0  0  0  0
   -3.4781    0.4354    0.0788 H   0  0  0  0  0  0  0  0  0  0  0  0
   -3.5549   -1.2603    0.6253 H   0  0  0  0  0  0  0  0  0  0  0  0
  1  9  1  0  0  0  0
  1 11  1  0  0  0  0
  1  2  1  0  0  0  0
  2 13  1  0  0  0  0
  3  2  1  0  0  0  0
  4  3  3  0  0  0  0
  5 14  1  6  0  0  0
  5  4  1  0  0  0  0
  5  7  1  0  0  0  0
  6  5  1  0  0  0  0
  6 17  1  0  0  0  0
  8  7  1  0  0  0  0
  8 18  1  0  0  0  0
 10  1  1  0  0  0  0
 12  2  1  0  0  0  0
 15  6  1  0  0  0  0
 16  6  1  0  0  0  0
 19  8  1  0  0  0  0
 20  8  1  0  0  0  0
M  END
