title
 OpenBabel02282109583D

 20 19  0  0  1  0  0  0  0  0999 V2000
   -0.7631    3.2567    1.3291 C   0  0  0  0  0  0  0  0  0  0  0  0
   -0.6622    1.7380    1.1629 C   0  0  0  0  0  0  0  0  0  0  0  0
   -0.1047    1.2865   -0.2099 C   0  0  1  0  0  0  0  0  0  0  0  0
    1.3541    1.7330   -0.4407 C   0  0  0  0  0  0  0  0  0  0  0  0
   -0.2191   -0.1646   -0.3581 C   0  0  0  0  0  0  0  0  0  0  0  0
   -0.2927   -1.3624   -0.4587 C   0  0  0  0  0  0  0  0  0  0  0  0
   -0.4112   -2.8085   -0.5921 C   0  0  0  0  0  0  0  0  0  0  0  0
    0.8784   -3.4070   -0.5093 O   0  0  0  0  0  0  0  0  0  0  0  0
    0.2179    3.7405    1.3072 H   0  0  0  0  0  0  0  0  0  0  0  0
   -1.3729    3.7029    0.5351 H   0  0  0  0  0  0  0  0  0  0  0  0
   -1.2304    3.5092    2.2859 H   0  0  0  0  0  0  0  0  0  0  0  0
   -0.0311    1.3123    1.9525 H   0  0  0  0  0  0  0  0  0  0  0  0
   -1.6545    1.2917    1.2904 H   0  0  0  0  0  0  0  0  0  0  0  0
   -0.7255    1.7551   -0.9882 H   0  0  0  0  0  0  0  0  0  0  0  0
    2.0089    1.3177    0.3317 H   0  0  0  0  0  0  0  0  0  0  0  0
    1.7152    1.3834   -1.4111 H   0  0  0  0  0  0  0  0  0  0  0  0
    1.4381    2.8229   -0.4174 H   0  0  0  0  0  0  0  0  0  0  0  0
   -1.0765   -3.1914    0.1994 H   0  0  0  0  0  0  0  0  0  0  0  0
   -0.8959   -3.0444   -1.5540 H   0  0  0  0  0  0  0  0  0  0  0  0
    0.7578   -4.3577   -0.6014 H   0  0  0  0  0  0  0  0  0  0  0  0
  1 11  1  0  0  0  0
  2 13  1  0  0  0  0
  2  1  1  0  0  0  0
  2 12  1  0  0  0  0
  3 14  1  6  0  0  0
  3  2  1  0  0  0  0
  4 17  1  0  0  0  0
  4  3  1  0  0  0  0
  4 15  1  0  0  0  0
  5  3  1  0  0  0  0
  6  5  3  0  0  0  0
  7  8  1  0  0  0  0
  7  6  1  0  0  0  0
  7 18  1  0  0  0  0
  9  1  1  0  0  0  0
 10  1  1  0  0  0  0
 16  4  1  0  0  0  0
 19  7  1  0  0  0  0
 20  8  1  0  0  0  0
M  END
