title
 OpenBabel02282109583D

 18 17  0  0  1  0  0  0  0  0999 V2000
   -0.0355    3.0358    1.4965 C   0  0  0  0  0  0  0  0  0  0  0  0
   -0.1410    1.6519    1.2524 O   0  0  0  0  0  0  0  0  0  0  0  0
    0.4096    1.2377    0.0048 C   0  0  1  0  0  0  0  0  0  0  0  0
    1.9438    1.1395    0.0533 C   0  0  0  0  0  0  0  0  0  0  0  0
   -0.1835   -0.0517   -0.3469 C   0  0  0  0  0  0  0  0  0  0  0  0
   -0.6355   -1.1227   -0.6568 C   0  0  0  0  0  0  0  0  0  0  0  0
   -1.2195   -2.4043   -1.0279 C   0  0  0  0  0  0  0  0  0  0  0  0
   -0.2369   -3.4288   -0.9303 O   0  0  0  0  0  0  0  0  0  0  0  0
    1.0049    3.3710    1.6184 H   0  0  0  0  0  0  0  0  0  0  0  0
   -0.4956    3.6278    0.6893 H   0  0  0  0  0  0  0  0  0  0  0  0
   -0.5725    3.2347    2.4271 H   0  0  0  0  0  0  0  0  0  0  0  0
    0.1275    1.9734   -0.7687 H   0  0  0  0  0  0  0  0  0  0  0  0
    2.3878    2.1126    0.2803 H   0  0  0  0  0  0  0  0  0  0  0  0
    2.2443    0.4234    0.8218 H   0  0  0  0  0  0  0  0  0  0  0  0
    2.3314    0.8022   -0.9117 H   0  0  0  0  0  0  0  0  0  0  0  0
   -2.0764   -2.6077   -0.3651 H   0  0  0  0  0  0  0  0  0  0  0  0
   -1.6205   -2.3340   -2.0525 H   0  0  0  0  0  0  0  0  0  0  0  0
   -0.6642   -4.2581   -1.1679 H   0  0  0  0  0  0  0  0  0  0  0  0
  1  9  1  0  0  0  0
  1 11  1  0  0  0  0
  2  1  1  0  0  0  0
  3 12  1  6  0  0  0
  3  4  1  0  0  0  0
  3  2  1  0  0  0  0
  4 13  1  0  0  0  0
  4 14  1  0  0  0  0
  5  3  1  0  0  0  0
  6  5  3  0  0  0  0
  7  8  1  0  0  0  0
  7  6  1  0  0  0  0
  7 16  1  0  0  0  0
 10  1  1  0  0  0  0
 15  4  1  0  0  0  0
 17  7  1  0  0  0  0
 18  8  1  0  0  0  0
M  END
