18
title
C -0.035483308 3.035799 1.4965395
O -0.14100748 1.6518706 1.2524053
C 0.4096435 1.2377391 0.0047502834
C 1.9438219 1.1395093 0.053276926
C -0.18346617 -0.051656675 -0.346899
C -0.63546836 -1.1226954 -0.65683216
C -1.2194647 -2.404316 -1.0278763
O -0.23690946 -3.4287887 -0.93026
H 1.0049467 3.3710155 1.6184098
H -0.4955832 3.627819 0.68930566
H -0.5724851 3.2347283 2.4271178
H 0.12752816 1.9733888 -0.76874334
H 2.387804 2.1126497 0.28034636
H 2.2442737 0.42337948 0.82177156
H 2.331433 0.8022324 -0.91166884
H -2.076365 -2.6077385 -0.36505947
H -1.6204942 -2.333974 -2.0524526
H -0.66417116 -4.2580843 -1.1678618
