title
 OpenBabel02282109583D

 16 15  0  0  1  0  0  0  0  0999 V2000
    3.1484    1.6385    0.3731 O   0  0  0  0  0  0  0  0  0  0  0  0
    2.6976    0.9884   -0.8057 C   0  0  0  0  0  0  0  0  0  0  0  0
    1.3712    0.3858   -0.6731 C   0  0  0  0  0  0  0  0  0  0  0  0
    0.2651   -0.0803   -0.5585 C   0  0  0  0  0  0  0  0  0  0  0  0
   -1.0627   -0.6473   -0.3536 C   0  0  1  0  0  0  0  0  0  0  0  0
   -1.0186   -1.9894    0.1508 O   0  0  0  0  0  0  0  0  0  0  0  0
   -1.9170    0.2138    0.5975 C   0  0  0  0  0  0  0  0  0  0  0  0
   -3.1641   -0.3987    0.8158 O   0  0  0  0  0  0  0  0  0  0  0  0
    2.4789    2.2840    0.6229 H   0  0  0  0  0  0  0  0  0  0  0  0
    2.6968    1.6714   -1.6701 H   0  0  0  0  0  0  0  0  0  0  0  0
    3.4399    0.2117   -1.0201 H   0  0  0  0  0  0  0  0  0  0  0  0
   -1.5949   -0.7262   -1.3089 H   0  0  0  0  0  0  0  0  0  0  0  0
   -0.3212   -2.0238    0.8160 H   0  0  0  0  0  0  0  0  0  0  0  0
   -1.3564    0.3625    1.5363 H   0  0  0  0  0  0  0  0  0  0  0  0
   -2.0971    1.1981    0.1544 H   0  0  0  0  0  0  0  0  0  0  0  0
   -2.9677   -1.3317    0.9752 H   0  0  0  0  0  0  0  0  0  0  0  0
  1  9  1  0  0  0  0
  2  3  1  0  0  0  0
  2  1  1  0  0  0  0
  3  4  3  0  0  0  0
  4  5  1  0  0  0  0
  5 12  1  6  0  0  0
  5  6  1  0  0  0  0
  5  7  1  0  0  0  0
  6 13  1  0  0  0  0
  7  8  1  0  0  0  0
  7 14  1  0  0  0  0
  8 16  1  0  0  0  0
 10  2  1  0  0  0  0
 11  2  1  0  0  0  0
 15  7  1  0  0  0  0
M  END
