16
title
O 3.1484048 1.6385278 0.37308696
C 2.6975784 0.9884224 -0.805706
C 1.3712273 0.38577148 -0.67309356
C 0.26514086 -0.08033008 -0.55846155
C -1.0627052 -0.64726996 -0.35363305
O -1.0185746 -1.9894179 0.15079434
C -1.9169842 0.21377115 0.5974897
O -3.1640556 -0.3987242 0.8158206
H 2.4788594 2.28397 0.62291193
H 2.6968267 1.6714464 -1.6700904
H 3.4399307 0.21174936 -1.0200572
H -1.5948569 -0.7262436 -1.308856
H -0.32119623 -2.0238166 0.81601095
H -1.3563639 0.3624812 1.5363206
H -2.0971134 1.198137 0.15440805
H -2.9677312 -1.3316575 0.9751959
