13
title
C -0.37545502 3.156856 1.0212519
N -0.26646858 1.7153149 0.9129519
C -0.020618707 1.0865221 -0.27198648
O 0.12958643 1.6560192 -1.3385106
C 0.049663812 -0.36349043 -0.15455079
C 0.12125078 -1.572635 -0.13107681
C 0.19946465 -2.9286065 -0.09289038
C 0.26857594 -4.133548 -0.056715313
H 0.38784048 3.5620985 1.6944357
H -0.2282416 3.5717843 0.0238564
H -1.3635708 3.452498 1.390343
H -0.37398735 1.1448753 1.7358443
H 0.32986674 -5.193499 -0.02773893
