title
 OpenBabel02282109583D

 12 11  0  0  0  0  0  0  0  0999 V2000
   -0.5967    3.0107    1.0067 C   0  0  0  0  0  0  0  0  0  0  0  0
   -0.5407    1.5778    0.9356 O   0  0  0  0  0  0  0  0  0  0  0  0
    0.0744    1.0890   -0.1547 C   0  0  0  0  0  0  0  0  0  0  0  0
    0.5580    1.7597   -1.0332 O   0  0  0  0  0  0  0  0  0  0  0  0
    0.0821   -0.3545   -0.1396 C   0  0  0  0  0  0  0  0  0  0  0  0
    0.1348   -1.5621   -0.2097 C   0  0  0  0  0  0  0  0  0  0  0  0
    0.1848   -2.9176   -0.2721 C   0  0  0  0  0  0  0  0  0  0  0  0
    0.2302   -4.1228   -0.3294 C   0  0  0  0  0  0  0  0  0  0  0  0
    0.4108    3.4337    1.0190 H   0  0  0  0  0  0  0  0  0  0  0  0
   -1.1397    3.4164    0.1496 H   0  0  0  0  0  0  0  0  0  0  0  0
   -1.1198    3.2364    1.9353 H   0  0  0  0  0  0  0  0  0  0  0  0
    0.2693   -5.1832   -0.3781 H   0  0  0  0  0  0  0  0  0  0  0  0
  1  9  1  0  0  0  0
  1 11  1  0  0  0  0
  2  1  1  0  0  0  0
  3  5  1  0  0  0  0
  3  2  1  0  0  0  0
  4  3  2  0  0  0  0
  6  5  3  0  0  0  0
  7  6  1  0  0  0  0
  8  7  3  0  0  0  0
 10  1  1  0  0  0  0
 12  8  1  0  0  0  0
M  END
