12
title
C -0.5966623 3.010674 1.0067357
O -0.5407324 1.5778317 0.9356454
C 0.07436041 1.0890148 -0.1547275
O 0.5579846 1.759731 -1.0332083
C 0.082072176 -0.3544906 -0.13959686
C 0.13475959 -1.5620652 -0.20970576
C 0.18479846 -2.9175832 -0.2720906
C 0.23023616 -4.122773 -0.32941836
H 0.4108213 3.433706 1.0189523
H -1.1396998 3.4163525 0.14962716
H -1.1197691 3.2363946 1.9353333
H 0.2692853 -5.1832314 -0.37808305
