title
 OpenBabel02282109583D

 11 10  0  0  0  0  0  0  0  0999 V2000
   -0.6051    3.0325    1.0232 C   0  0  0  0  0  0  0  0  0  0  0  0
   -0.5417    1.5969    0.9391 O   0  0  0  0  0  0  0  0  0  0  0  0
    0.0703    1.1200   -0.1494 C   0  0  0  0  0  0  0  0  0  0  0  0
    0.5555    1.7777   -1.0337 O   0  0  0  0  0  0  0  0  0  0  0  0
    0.0811   -0.3319   -0.1387 C   0  0  0  0  0  0  0  0  0  0  0  0
    0.1352   -1.5361   -0.2109 C   0  0  0  0  0  0  0  0  0  0  0  0
    0.1878   -2.8986   -0.2770 C   0  0  0  0  0  0  0  0  0  0  0  0
    0.2315   -4.0578   -0.3314 N   0  0  0  0  0  0  0  0  0  0  0  0
    0.4014    3.4567    1.0365 H   0  0  0  0  0  0  0  0  0  0  0  0
   -1.1531    3.4387    0.1700 H   0  0  0  0  0  0  0  0  0  0  0  0
   -1.1270    3.2450    1.9549 H   0  0  0  0  0  0  0  0  0  0  0  0
  1  9  1  0  0  0  0
  1 11  1  0  0  0  0
  2  1  1  0  0  0  0
  3  5  1  0  0  0  0
  3  2  1  0  0  0  0
  4  3  2  0  0  0  0
  6  5  3  0  0  0  0
  7  6  1  0  0  0  0
  8  7  3  0  0  0  0
 10  1  1  0  0  0  0
M  END
