11
title
C -0.60511625 3.03254 1.023159
O -0.5416856 1.596924 0.9390653
C 0.070346214 1.1200428 -0.14941132
O 0.5554954 1.7776911 -1.0336646
C 0.08109418 -0.33193153 -0.13865542
C 0.13522401 -1.5360789 -0.2108872
C 0.1877844 -2.8985953 -0.2770189
N 0.2314662 -4.0577564 -0.33141828
H 0.40142927 3.4566588 1.0365498
H -1.1530704 3.4387436 0.16997051
H -1.1269728 3.2450316 1.9549044
