12
title
O 1.4353514 2.9095664 0.0021195933
C 1.3649535 1.5120203 -0.004832117
C -0.094710894 1.0774722 0.0066911327
O -1.0267602 1.8452861 0.019755892
C -0.27961618 -0.3635485 0.00065450266
C -0.46430224 -1.5624408 -0.003912486
C -0.66010505 -2.9058945 -0.009311529
C -0.8348122 -4.100767 -0.014402894
H 2.362989 3.162817 -0.0055835345
H 1.8327768 1.0562701 -0.89528453
H 1.8495909 1.0466411 0.8715398
H -0.9890855 -5.1518497 -0.018636897
