title
 OpenBabel02282109583D

 14 13  0  0  0  0  0  0  0  0999 V2000
   -0.8410    3.1120    1.4032 C   0  0  0  0  0  0  0  0  0  0  0  0
   -0.6573    1.6018    1.2767 C   0  0  0  0  0  0  0  0  0  0  0  0
   -0.2164    1.1689   -0.1085 C   0  0  0  0  0  0  0  0  0  0  0  0
   -0.0205    1.9315   -1.0283 O   0  0  0  0  0  0  0  0  0  0  0  0
   -0.0316   -0.2665   -0.2835 C   0  0  0  0  0  0  0  0  0  0  0  0
    0.1346   -1.4565   -0.4295 C   0  0  0  0  0  0  0  0  0  0  0  0
    0.3023   -2.8775   -0.6227 C   0  0  0  0  0  0  0  0  0  0  0  0
    1.3019   -3.4856   -0.3235 O   0  0  0  0  0  0  0  0  0  0  0  0
    0.0918    3.6386    1.1874 H   0  0  0  0  0  0  0  0  0  0  0  0
   -1.5926    3.4754    0.6981 H   0  0  0  0  0  0  0  0  0  0  0  0
   -1.1602    3.3714    2.4158 H   0  0  0  0  0  0  0  0  0  0  0  0
    0.0852    1.2215    1.9916 H   0  0  0  0  0  0  0  0  0  0  0  0
   -1.5825    1.0587    1.5139 H   0  0  0  0  0  0  0  0  0  0  0  0
   -0.5776   -3.3768   -1.0751 H   0  0  0  0  0  0  0  0  0  0  0  0
  1 11  1  0  0  0  0
  2  1  1  0  0  0  0
  2 13  1  0  0  0  0
  2 12  1  0  0  0  0
  3  2  1  0  0  0  0
  4  3  2  0  0  0  0
  5  3  1  0  0  0  0
  6  5  3  0  0  0  0
  7  6  1  0  0  0  0
  7  8  2  0  0  0  0
  9  1  1  0  0  0  0
 10  1  1  0  0  0  0
 14  7  1  0  0  0  0
M  END
