title
 OpenBabel02282109583D

 16 15  0  0  0  0  0  0  0  0999 V2000
    1.2435    3.8020   -0.2115 C   0  0  0  0  0  0  0  0  0  0  0  0
    1.1817    2.3487   -0.1655 C   0  0  0  0  0  0  0  0  0  0  0  0
    1.1234    1.1482   -0.1248 C   0  0  0  0  0  0  0  0  0  0  0  0
    1.0402   -0.3009   -0.0777 C   0  0  0  0  0  0  0  0  0  0  0  0
   -0.3857   -0.8528    0.1141 C   0  0  0  0  0  0  0  0  0  0  0  0
   -1.3034   -0.1949    0.5196 O   0  0  0  0  0  0  0  0  0  0  0  0
   -0.5203   -2.3297   -0.2503 C   0  0  0  0  0  0  0  0  0  0  0  0
   -1.7757   -2.8046    0.1525 O   0  0  0  0  0  0  0  0  0  0  0  0
    1.9578    4.1944    0.5207 H   0  0  0  0  0  0  0  0  0  0  0  0
    1.5527    4.1579   -1.2004 H   0  0  0  0  0  0  0  0  0  0  0  0
    0.2656    4.2435    0.0095 H   0  0  0  0  0  0  0  0  0  0  0  0
    1.4774   -0.7533   -0.9786 H   0  0  0  0  0  0  0  0  0  0  0  0
    1.6373   -0.6959    0.7587 H   0  0  0  0  0  0  0  0  0  0  0  0
   -0.3659   -2.4038   -1.3421 H   0  0  0  0  0  0  0  0  0  0  0  0
    0.3171   -2.8770    0.2177 H   0  0  0  0  0  0  0  0  0  0  0  0
   -1.8524   -3.7216   -0.1264 H   0  0  0  0  0  0  0  0  0  0  0  0
  1  2  1  0  0  0  0
  1 11  1  0  0  0  0
  1  9  1  0  0  0  0
  2  3  3  0  0  0  0
  3  4  1  0  0  0  0
  4  5  1  0  0  0  0
  4 13  1  0  0  0  0
  5  6  2  0  0  0  0
  7  5  1  0  0  0  0
  7  8  1  0  0  0  0
  7 15  1  0  0  0  0
 10  1  1  0  0  0  0
 12  4  1  0  0  0  0
 14  7  1  0  0  0  0
 16  8  1  0  0  0  0
M  END
