title
 OpenBabel02282109583D

 18 17  0  0  0  0  0  0  0  0999 V2000
   -1.2062    2.3838    2.2886 C   0  0  0  0  0  0  0  0  0  0  0  0
   -1.2507    0.9013    1.9274 C   0  0  0  0  0  0  0  0  0  0  0  0
   -0.3868    0.5452    0.7228 C   0  0  0  0  0  0  0  0  0  0  0  0
    0.1846    1.3779    0.0658 O   0  0  0  0  0  0  0  0  0  0  0  0
   -0.2982   -0.9623    0.4149 C   0  0  0  0  0  0  0  0  0  0  0  0
    0.4052   -1.2956   -0.8113 C   0  0  0  0  0  0  0  0  0  0  0  0
    0.9874   -1.5645   -1.8289 C   0  0  0  0  0  0  0  0  0  0  0  0
    1.6939   -1.8805   -3.0614 C   0  0  0  0  0  0  0  0  0  0  0  0
   -0.1898    2.6925    2.5470 H   0  0  0  0  0  0  0  0  0  0  0  0
   -1.5264    2.9983    1.4440 H   0  0  0  0  0  0  0  0  0  0  0  0
   -1.8587    2.5939    3.1406 H   0  0  0  0  0  0  0  0  0  0  0  0
   -0.9403    0.2730    2.7732 H   0  0  0  0  0  0  0  0  0  0  0  0
   -2.2781    0.5827    1.7000 H   0  0  0  0  0  0  0  0  0  0  0  0
    0.1838   -1.4361    1.2831 H   0  0  0  0  0  0  0  0  0  0  0  0
   -1.3204   -1.3662    0.4071 H   0  0  0  0  0  0  0  0  0  0  0  0
    2.5513   -2.5363   -2.8736 H   0  0  0  0  0  0  0  0  0  0  0  0
    1.0393   -2.3880   -3.7786 H   0  0  0  0  0  0  0  0  0  0  0  0
    2.0709   -0.9713   -3.5422 H   0  0  0  0  0  0  0  0  0  0  0  0
  1  9  1  0  0  0  0
  1 11  1  0  0  0  0
  2  1  1  0  0  0  0
  2 12  1  0  0  0  0
  3  2  1  0  0  0  0
  4  3  2  0  0  0  0
  5  3  1  0  0  0  0
  5 14  1  0  0  0  0
  6  5  1  0  0  0  0
  7  6  3  0  0  0  0
  8 16  1  0  0  0  0
  8  7  1  0  0  0  0
 10  1  1  0  0  0  0
 13  2  1  0  0  0  0
 15  5  1  0  0  0  0
 17  8  1  0  0  0  0
 18  8  1  0  0  0  0
M  END
