title
 OpenBabel02282109583D

 17 16  0  0  0  0  0  0  0  0999 V2000
    0.2159    2.5344    1.1581 C   0  0  0  0  0  0  0  0  0  0  0  0
    0.0824    1.2196    0.5663 N   0  0  0  0  0  0  0  0  0  0  0  0
   -1.0404    0.4715    0.6966 C   0  0  0  0  0  0  0  0  0  0  0  0
   -2.0334    0.8167    1.3106 O   0  0  0  0  0  0  0  0  0  0  0  0
   -1.0079   -0.9060   -0.0001 C   0  0  0  0  0  0  0  0  0  0  0  0
    0.2104   -1.2578   -0.7165 C   0  0  0  0  0  0  0  0  0  0  0  0
    1.2255   -1.5342   -1.3050 C   0  0  0  0  0  0  0  0  0  0  0  0
    2.4408   -1.8933   -2.0234 C   0  0  0  0  0  0  0  0  0  0  0  0
    1.0449    2.5671    1.8739 H   0  0  0  0  0  0  0  0  0  0  0  0
    0.3852    3.3005    0.3931 H   0  0  0  0  0  0  0  0  0  0  0  0
   -0.7158    2.7530    1.6815 H   0  0  0  0  0  0  0  0  0  0  0  0
    0.8426    0.8271    0.0329 H   0  0  0  0  0  0  0  0  0  0  0  0
   -1.2264   -1.6435    0.7810 H   0  0  0  0  0  0  0  0  0  0  0  0
   -1.8733   -0.9234   -0.6727 H   0  0  0  0  0  0  0  0  0  0  0  0
    2.3561   -2.8941   -2.4610 H   0  0  0  0  0  0  0  0  0  0  0  0
    2.6454   -1.1924   -2.8401 H   0  0  0  0  0  0  0  0  0  0  0  0
    3.3125   -1.8961   -1.3599 H   0  0  0  0  0  0  0  0  0  0  0  0
  1 11  1  0  0  0  0
  1  9  1  0  0  0  0
  2  3  1  0  0  0  0
  2  1  1  0  0  0  0
  3  4  2  0  0  0  0
  5  3  1  0  0  0  0
  5 13  1  0  0  0  0
  6  5  1  0  0  0  0
  7  6  3  0  0  0  0
  8 17  1  0  0  0  0
  8  7  1  0  0  0  0
 10  1  1  0  0  0  0
 12  2  1  0  0  0  0
 14  5  1  0  0  0  0
 15  8  1  0  0  0  0
 16  8  1  0  0  0  0
M  END
