title
 OpenBabel02282109583D

 16 15  0  0  0  0  0  0  0  0999 V2000
   -1.0484    2.4458    1.9948 C   0  0  0  0  0  0  0  0  0  0  0  0
   -1.0572    1.0426    1.7035 O   0  0  0  0  0  0  0  0  0  0  0  0
   -0.3395    0.6757    0.6208 C   0  0  0  0  0  0  0  0  0  0  0  0
    0.2742    1.4408   -0.0717 O   0  0  0  0  0  0  0  0  0  0  0  0
   -0.4452   -0.8378    0.4414 C   0  0  0  0  0  0  0  0  0  0  0  0
    0.2908   -1.3549   -0.6997 C   0  0  0  0  0  0  0  0  0  0  0  0
    0.8946   -1.7991   -1.6399 C   0  0  0  0  0  0  0  0  0  0  0  0
    1.6305   -2.3210   -2.7818 C   0  0  0  0  0  0  0  0  0  0  0  0
   -0.0299    2.7938    2.1845 H   0  0  0  0  0  0  0  0  0  0  0  0
   -1.4632    3.0155    1.1593 H   0  0  0  0  0  0  0  0  0  0  0  0
   -1.6660    2.5682    2.8846 H   0  0  0  0  0  0  0  0  0  0  0  0
   -0.1066   -1.3007    1.3772 H   0  0  0  0  0  0  0  0  0  0  0  0
   -1.5127   -1.0833    0.3716 H   0  0  0  0  0  0  0  0  0  0  0  0
    2.3894   -3.0470   -2.4699 H   0  0  0  0  0  0  0  0  0  0  0  0
    0.9634   -2.8221   -3.4917 H   0  0  0  0  0  0  0  0  0  0  0  0
    2.1427   -1.5156   -3.3193 H   0  0  0  0  0  0  0  0  0  0  0  0
  1  9  1  0  0  0  0
  1 11  1  0  0  0  0
  2  1  1  0  0  0  0
  3  2  1  0  0  0  0
  4  3  2  0  0  0  0
  5  3  1  0  0  0  0
  5 12  1  0  0  0  0
  6  5  1  0  0  0  0
  7  6  3  0  0  0  0
  8 14  1  0  0  0  0
  8  7  1  0  0  0  0
 10  1  1  0  0  0  0
 13  5  1  0  0  0  0
 15  8  1  0  0  0  0
 16  8  1  0  0  0  0
M  END
