18
title
C -1.383488 2.1121418 2.4803114
C -1.3294104 0.75062877 1.7921543
C -0.3078241 0.70697594 0.66176724
O 0.38656875 1.649642 0.3433852
N -0.2349464 -0.5157881 0.016708592
C 0.62273103 -0.78541696 -1.0401292
N 0.6372724 -1.927549 -1.5845134
C 1.5608574 -2.130648 -2.6820397
H -0.4113663 2.3718057 2.9058354
H -1.6472785 2.8976326 1.7683185
H -2.1253777 2.1057348 3.283429
H -1.0809703 -0.04227626 2.510131
H -2.310369 0.48064435 1.3789407
H -0.8289544 -1.2782743 0.3094357
H 1.2416879 0.073313236 -1.3154607
H 2.2414114 -2.955819 -2.44163
H 1.0057675 -2.4302647 -3.578669
H 2.164182 -1.2425022 -2.927155
