16
title
C 0.11249286 3.7360852 -0.6862544
N -0.12132702 2.364106 -1.0893052
C 0.056454506 1.4616756 -0.22349074
N -0.15259396 0.12444483 -0.55083174
C 0.017133908 -0.9175273 0.32148945
O 0.36934546 -0.77832997 1.4792091
C -0.26436314 -2.3113377 -0.2387914
O -0.05449322 -3.2754529 0.7464024
H 0.42918137 3.844512 0.3624567
H 0.88096815 4.1791635 -1.3297343
H -0.8020218 4.3210053 -0.8361666
H 0.37254927 1.6041757 0.8135554
H -0.4459852 -0.056015626 -1.501202
H -1.3018218 -2.3384564 -0.6108545
H 0.39040264 -2.4800022 -1.1095732
H 0.21852624 -2.7738578 1.5324535
