title
 OpenBabel02282109583D

 16 15  0  0  0  0  0  0  0  0999 V2000
    0.1125    3.7361   -0.6863 C   0  0  0  0  0  0  0  0  0  0  0  0
   -0.1213    2.3641   -1.0893 N   0  0  0  0  0  0  0  0  0  0  0  0
    0.0565    1.4617   -0.2235 C   0  0  0  0  0  0  0  0  0  0  0  0
   -0.1526    0.1244   -0.5508 N   0  0  0  0  0  0  0  0  0  0  0  0
    0.0171   -0.9175    0.3215 C   0  0  0  0  0  0  0  0  0  0  0  0
    0.3693   -0.7783    1.4792 O   0  0  0  0  0  0  0  0  0  0  0  0
   -0.2644   -2.3113   -0.2388 C   0  0  0  0  0  0  0  0  0  0  0  0
   -0.0545   -3.2755    0.7464 O   0  0  0  0  0  0  0  0  0  0  0  0
    0.4292    3.8445    0.3625 H   0  0  0  0  0  0  0  0  0  0  0  0
    0.8810    4.1792   -1.3297 H   0  0  0  0  0  0  0  0  0  0  0  0
   -0.8020    4.3210   -0.8362 H   0  0  0  0  0  0  0  0  0  0  0  0
    0.3725    1.6042    0.8136 H   0  0  0  0  0  0  0  0  0  0  0  0
   -0.4460   -0.0560   -1.5012 H   0  0  0  0  0  0  0  0  0  0  0  0
   -1.3018   -2.3385   -0.6109 H   0  0  0  0  0  0  0  0  0  0  0  0
    0.3904   -2.4800   -1.1096 H   0  0  0  0  0  0  0  0  0  0  0  0
    0.2185   -2.7739    1.5325 H   0  0  0  0  0  0  0  0  0  0  0  0
  1  9  1  0  0  0  0
  2  1  1  0  0  0  0
  2  3  2  0  0  0  0
  3 12  1  0  0  0  0
  4  3  1  0  0  0  0
  4  5  1  0  0  0  0
  5  6  2  0  0  0  0
  7  5  1  0  0  0  0
  7  8  1  0  0  0  0
  8 16  1  0  0  0  0
 10  1  1  0  0  0  0
 11  1  1  0  0  0  0
 13  4  1  0  0  0  0
 14  7  1  0  0  0  0
 15  7  1  0  0  0  0
M  END
