16
title
C 1.8465416 3.225234 0.010545515
N 1.797422 1.7760202 -0.010577401
C 0.6643853 1.2415957 0.00431406
O 0.58890855 -0.13282014 -0.014055118
C -0.65162134 -0.7136991 0.002529431
O -1.6869352 -0.105831996 0.032222614
C -0.5136578 -2.2300177 -0.022073144
N -1.7620933 -2.9661226 -0.0074238614
H 2.4204128 3.552706 0.88411105
H 2.3846993 3.5794842 -0.87521213
H 0.85793185 3.7085028 0.037968036
H -0.3098652 1.7342474 0.03185944
H 0.072472006 -2.495525 -0.9099943
H 0.107736856 -2.5206232 0.8334159
H -2.299048 -2.7027922 0.813974
H -2.3316617 -2.6795626 -0.79851955
