15
title
C 1.873867 3.2194934 -0.11289983
N 1.7884666 1.7786738 -0.25437704
C 0.67592293 1.2474409 -0.030651808
O 0.5662536 -0.11790319 -0.15725864
C -0.6573666 -0.6906238 0.0893431
O -1.6427337 -0.0939637 0.40749714
C -0.5237432 -2.1868002 -0.113665104
O -1.766337 -2.786597 0.13381337
H 2.6379876 3.4627814 0.63318473
H 2.20505 3.6549084 -1.0618303
H 0.9284052 3.6991904 0.18290499
H -0.25525838 1.7368982 0.26240307
H -0.15888792 -2.3459494 -1.1409032
H 0.2728905 -2.5382354 0.56129855
H -1.6699103 -3.734144 0.0023710588
