title
 OpenBabel02282109583D

 16 15  0  0  0  0  0  0  0  0999 V2000
    1.7740    2.9157    0.0630 C   0  0  0  0  0  0  0  0  0  0  0  0
    1.5450    1.4861    0.0329 N   0  0  0  0  0  0  0  0  0  0  0  0
    0.3040    0.9506    0.0204 C   0  0  0  0  0  0  0  0  0  0  0  0
   -0.7454    1.5489    0.0323 O   0  0  0  0  0  0  0  0  0  0  0  0
    0.4256   -0.4265   -0.0087 O   0  0  0  0  0  0  0  0  0  0  0  0
   -0.7345   -1.1544   -0.0250 C   0  0  0  0  0  0  0  0  0  0  0  0
   -0.6573   -2.4059   -0.0515 N   0  0  0  0  0  0  0  0  0  0  0  0
   -1.9069   -3.1413   -0.0682 C   0  0  0  0  0  0  0  0  0  0  0  0
    2.3312    3.2476   -0.8197 H   0  0  0  0  0  0  0  0  0  0  0  0
    0.8002    3.4060    0.0716 H   0  0  0  0  0  0  0  0  0  0  0  0
    2.3285    3.2105    0.9605 H   0  0  0  0  0  0  0  0  0  0  0  0
    2.3212    0.8454    0.0204 H   0  0  0  0  0  0  0  0  0  0  0  0
   -1.6357   -0.5371   -0.0126 H   0  0  0  0  0  0  0  0  0  0  0  0
   -2.8042   -2.5034   -0.0554 H   0  0  0  0  0  0  0  0  0  0  0  0
   -1.9429   -3.7740   -0.9619 H   0  0  0  0  0  0  0  0  0  0  0  0
   -1.9444   -3.8114    0.7977 H   0  0  0  0  0  0  0  0  0  0  0  0
  1 10  1  0  0  0  0
  1 11  1  0  0  0  0
  2  1  1  0  0  0  0
  3  4  2  0  0  0  0
  3  2  1  0  0  0  0
  5  3  1  0  0  0  0
  6 13  1  0  0  0  0
  6  5  1  0  0  0  0
  7  6  2  0  0  0  0
  8 14  1  0  0  0  0
  8  7  1  0  0  0  0
  8 16  1  0  0  0  0
  9  1  1  0  0  0  0
 12  2  1  0  0  0  0
 15  8  1  0  0  0  0
M  END
