17
title
C 2.0267634 2.9015236 -0.0043616886
C 1.8825102 1.3816328 -0.010611374
C 0.43771347 0.90712404 0.000632467
O -0.49919572 1.6727513 0.013613204
C 0.22322771 -0.6041638 -0.0053264364
C -1.2691752 -0.96957487 0.007216657
C -1.4803602 -2.4143631 0.0014668659
N -1.6298217 -3.5602555 -0.0032818306
H 3.0819986 3.1870656 -0.012745266
H 1.5410599 3.3433661 -0.87787086
H 1.5574105 3.334565 0.8823899
H 2.3736205 0.9384825 -0.88817316
H 2.3899524 0.92980164 0.85312885
H 0.71934825 -1.0310512 -0.88532615
H 0.7363123 -1.0403636 0.8602599
H -1.7531823 -0.5366606 0.8878797
H -1.7701684 -0.527203 -0.8591321
