17
title
C 1.8513739 2.6311312 0.5867276
C 1.6626567 1.4154155 -0.32134834
C 0.23395304 0.878295 -0.27081951
O -0.72952586 1.5872452 -0.039134685
N 0.11390095 -0.4566462 -0.54226273
C -1.1761843 -1.1312265 -0.52303404
C -1.1526879 -2.3504934 0.27917776
C -1.1147555 -3.3668053 0.91888833
H 2.8431914 3.0694826 0.44630995
H 1.0939614 3.385126 0.36418256
H 1.7451358 2.3561456 1.6402581
H 1.8624895 1.6929595 -1.3648922
H 2.376352 0.62099844 -0.07312594
H 0.9403997 -1.0171902 -0.6679448
H -1.8885199 -0.40448976 -0.119211204
H -1.5068556 -1.370012 -1.5434889
H -1.0964609 -4.2583447 1.4956137
