title
 OpenBabel02282109583D

 17 16  0  0  0  0  0  0  0  0999 V2000
    1.8514    2.6311    0.5867 C   0  0  0  0  0  0  0  0  0  0  0  0
    1.6627    1.4154   -0.3213 C   0  0  0  0  0  0  0  0  0  0  0  0
    0.2340    0.8783   -0.2708 C   0  0  0  0  0  0  0  0  0  0  0  0
   -0.7295    1.5872   -0.0391 O   0  0  0  0  0  0  0  0  0  0  0  0
    0.1139   -0.4566   -0.5423 N   0  0  0  0  0  0  0  0  0  0  0  0
   -1.1762   -1.1312   -0.5230 C   0  0  0  0  0  0  0  0  0  0  0  0
   -1.1527   -2.3505    0.2792 C   0  0  0  0  0  0  0  0  0  0  0  0
   -1.1148   -3.3668    0.9189 C   0  0  0  0  0  0  0  0  0  0  0  0
    2.8432    3.0695    0.4463 H   0  0  0  0  0  0  0  0  0  0  0  0
    1.0940    3.3851    0.3642 H   0  0  0  0  0  0  0  0  0  0  0  0
    1.7451    2.3561    1.6403 H   0  0  0  0  0  0  0  0  0  0  0  0
    1.8625    1.6930   -1.3649 H   0  0  0  0  0  0  0  0  0  0  0  0
    2.3764    0.6210   -0.0731 H   0  0  0  0  0  0  0  0  0  0  0  0
    0.9404   -1.0172   -0.6679 H   0  0  0  0  0  0  0  0  0  0  0  0
   -1.8885   -0.4045   -0.1192 H   0  0  0  0  0  0  0  0  0  0  0  0
   -1.5069   -1.3700   -1.5435 H   0  0  0  0  0  0  0  0  0  0  0  0
   -1.0965   -4.2583    1.4956 H   0  0  0  0  0  0  0  0  0  0  0  0
  1 11  1  0  0  0  0
  2  3  1  0  0  0  0
  2 13  1  0  0  0  0
  2  1  1  0  0  0  0
  3  4  2  0  0  0  0
  5  6  1  0  0  0  0
  5  3  1  0  0  0  0
  6 15  1  0  0  0  0
  6  7  1  0  0  0  0
  7  8  3  0  0  0  0
  8 17  1  0  0  0  0
  9  1  1  0  0  0  0
 10  1  1  0  0  0  0
 12  2  1  0  0  0  0
 14  5  1  0  0  0  0
 16  6  1  0  0  0  0
M  END
