title
 OpenBabel02282109583D

 16 15  0  0  0  0  0  0  0  0999 V2000
    1.8151    2.8435   -0.0476 C   0  0  0  0  0  0  0  0  0  0  0  0
    1.7036    1.3279   -0.2076 C   0  0  0  0  0  0  0  0  0  0  0  0
    0.2670    0.8347   -0.0792 C   0  0  0  0  0  0  0  0  0  0  0  0
   -0.6093    1.4600    0.4856 O   0  0  0  0  0  0  0  0  0  0  0  0
    0.0325   -0.3949   -0.6500 N   0  0  0  0  0  0  0  0  0  0  0  0
   -1.2461   -1.0567   -0.4980 C   0  0  0  0  0  0  0  0  0  0  0  0
   -1.1440   -2.3163    0.2509 C   0  0  0  0  0  0  0  0  0  0  0  0
   -1.0459   -3.3185    0.8171 N   0  0  0  0  0  0  0  0  0  0  0  0
    2.8633    3.1539   -0.0513 H   0  0  0  0  0  0  0  0  0  0  0  0
    1.3002    3.3640   -0.8599 H   0  0  0  0  0  0  0  0  0  0  0  0
    1.3552    3.1605    0.8904 H   0  0  0  0  0  0  0  0  0  0  0  0
    2.1241    0.9977   -1.1650 H   0  0  0  0  0  0  0  0  0  0  0  0
    2.2863    0.8196    0.5725 H   0  0  0  0  0  0  0  0  0  0  0  0
    0.7964   -0.9078   -1.0593 H   0  0  0  0  0  0  0  0  0  0  0  0
   -1.8915   -0.3552    0.0401 H   0  0  0  0  0  0  0  0  0  0  0  0
   -1.7099   -1.2654   -1.4696 H   0  0  0  0  0  0  0  0  0  0  0  0
  1 11  1  0  0  0  0
  2  3  1  0  0  0  0
  2  1  1  0  0  0  0
  2 13  1  0  0  0  0
  3  4  2  0  0  0  0
  5  6  1  0  0  0  0
  5  3  1  0  0  0  0
  6 15  1  0  0  0  0
  6  7  1  0  0  0  0
  7  8  3  0  0  0  0
  9  1  1  0  0  0  0
 10  1  1  0  0  0  0
 12  2  1  0  0  0  0
 14  5  1  0  0  0  0
 16  6  1  0  0  0  0
M  END
