15
title
C -0.98956096 2.7603 1.7357575
C -0.8723216 1.2516353 1.532354
C -0.1476499 0.8894928 0.2566366
O 0.3080686 1.6529024 -0.5539912
O -0.06386007 -0.46203744 0.1197053
C 0.6100446 -0.88853526 -1.0675496
C 0.6184511 -2.349915 -1.0824794
N 0.6439661 -3.5030594 -1.1274616
H -0.002825516 3.2275887 1.7820839
H -1.5349493 3.2258809 0.91119456
H -1.5191315 2.9767332 2.667084
H -0.3409668 0.77073514 2.3620548
H -1.8564621 0.7693487 1.5011067
H 0.101132736 -0.5045053 -1.9575738
H 1.6352553 -0.50478804 -1.0866402
