title
 OpenBabel02282109583D

 16 15  0  0  0  0  0  0  0  0999 V2000
    1.5727    3.0678    0.0221 C   0  0  0  0  0  0  0  0  0  0  0  0
    1.4444    1.6225   -0.0066 N   0  0  0  0  0  0  0  0  0  0  0  0
    0.2397    0.9905   -0.0445 C   0  0  0  0  0  0  0  0  0  0  0  0
   -0.8297    1.5752   -0.0254 O   0  0  0  0  0  0  0  0  0  0  0  0
    0.3269   -0.5350   -0.1352 C   0  0  0  0  0  0  0  0  0  0  0  0
   -1.0176   -1.1737    0.2482 C   0  0  0  0  0  0  0  0  0  0  0  0
   -1.0160   -2.6202    0.0503 C   0  0  0  0  0  0  0  0  0  0  0  0
   -0.9979   -3.7644   -0.1105 N   0  0  0  0  0  0  0  0  0  0  0  0
    2.1175    3.3991    0.9125 H   0  0  0  0  0  0  0  0  0  0  0  0
    2.0928    3.4401   -0.8673 H   0  0  0  0  0  0  0  0  0  0  0  0
    0.5648    3.4829    0.0452 H   0  0  0  0  0  0  0  0  0  0  0  0
    2.2820    1.0642   -0.0255 H   0  0  0  0  0  0  0  0  0  0  0  0
    0.5854   -0.8076   -1.1652 H   0  0  0  0  0  0  0  0  0  0  0  0
    1.1319   -0.9174    0.5010 H   0  0  0  0  0  0  0  0  0  0  0  0
   -1.2559   -0.9571    1.2945 H   0  0  0  0  0  0  0  0  0  0  0  0
   -1.8142   -0.7175   -0.3457 H   0  0  0  0  0  0  0  0  0  0  0  0
  1 11  1  0  0  0  0
  1  9  1  0  0  0  0
  2  1  1  0  0  0  0
  3  4  2  0  0  0  0
  3  2  1  0  0  0  0
  5  3  1  0  0  0  0
  5  6  1  0  0  0  0
  5 14  1  0  0  0  0
  6 15  1  0  0  0  0
  7  6  1  0  0  0  0
  8  7  3  0  0  0  0
 10  1  1  0  0  0  0
 12  2  1  0  0  0  0
 13  5  1  0  0  0  0
 16  6  1  0  0  0  0
M  END
