15
title
C 1.4760823 2.951006 0.1016696
N 1.2989868 1.5151259 0.12590338
C 0.08304357 0.930684 -0.019417726
O -0.9739648 1.5012007 -0.18105446
O 0.21820092 -0.42404145 0.043290727
C -1.01943 -1.1388754 -0.10030732
C -0.7457694 -2.564316 -0.01603018
C -0.55605793 -3.7480466 0.04876765
H 2.1327791 3.260388 -0.7193124
H 0.49310088 3.3998952 -0.044716362
H 1.8969808 3.319009 1.0441895
H 2.0902834 0.90682137 0.2522445
H -1.7178282 -0.8252153 0.68328243
H -1.4822158 -0.8830578 -1.0597649
H -0.38678706 -4.7949023 0.106187485
