title
 OpenBabel02282109583D

 15 14  0  0  0  0  0  0  0  0999 V2000
    1.4761    2.9510    0.1017 C   0  0  0  0  0  0  0  0  0  0  0  0
    1.2990    1.5151    0.1259 N   0  0  0  0  0  0  0  0  0  0  0  0
    0.0830    0.9307   -0.0194 C   0  0  0  0  0  0  0  0  0  0  0  0
   -0.9740    1.5012   -0.1811 O   0  0  0  0  0  0  0  0  0  0  0  0
    0.2182   -0.4240    0.0433 O   0  0  0  0  0  0  0  0  0  0  0  0
   -1.0194   -1.1389   -0.1003 C   0  0  0  0  0  0  0  0  0  0  0  0
   -0.7458   -2.5643   -0.0160 C   0  0  0  0  0  0  0  0  0  0  0  0
   -0.5561   -3.7480    0.0488 C   0  0  0  0  0  0  0  0  0  0  0  0
    2.1328    3.2604   -0.7193 H   0  0  0  0  0  0  0  0  0  0  0  0
    0.4931    3.3999   -0.0447 H   0  0  0  0  0  0  0  0  0  0  0  0
    1.8970    3.3190    1.0442 H   0  0  0  0  0  0  0  0  0  0  0  0
    2.0903    0.9068    0.2522 H   0  0  0  0  0  0  0  0  0  0  0  0
   -1.7178   -0.8252    0.6833 H   0  0  0  0  0  0  0  0  0  0  0  0
   -1.4822   -0.8831   -1.0598 H   0  0  0  0  0  0  0  0  0  0  0  0
   -0.3868   -4.7949    0.1062 H   0  0  0  0  0  0  0  0  0  0  0  0
  1  2  1  0  0  0  0
  1 11  1  0  0  0  0
  2 12  1  0  0  0  0
  3  5  1  0  0  0  0
  3  2  1  0  0  0  0
  4  3  2  0  0  0  0
  6  7  1  0  0  0  0
  6  5  1  0  0  0  0
  6 13  1  0  0  0  0
  7  8  3  0  0  0  0
  8 15  1  0  0  0  0
  9  1  1  0  0  0  0
 10  1  1  0  0  0  0
 14  6  1  0  0  0  0
M  END
