15
title
C 1.534717 2.6788273 -0.31473634
O 1.3266195 1.4002458 0.2909272
C 0.09300563 0.8760142 0.0915983
O -0.7850291 1.4064556 -0.5516744
N -0.009542734 -0.31779462 0.74558467
C -1.1556948 -1.1877416 0.54084206
C -0.8166947 -2.431841 -0.14952566
C -0.52145404 -3.462087 -0.69252264
H 2.5614862 2.955115 -0.07313008
H 1.4002805 2.622895 -1.3978708
H 0.837667 3.418314 0.08787649
H 0.83432966 -0.70709866 1.1337351
H -1.6289297 -1.4214483 1.5032914
H -1.8774294 -0.6070036 -0.04166744
H -0.2705212 -4.368251 -1.1862515
