14
title
C -0.84324795 2.6840818 1.3180063
O -0.28541702 1.366082 1.3862134
C 0.10798817 0.8577368 0.20051625
O 0.016096467 1.4195651 -0.866532
N 0.6554752 -0.38501868 0.39210436
C 0.99488693 -1.2147717 -0.7400939
C 0.05977499 -2.334716 -0.93689245
N -0.6650473 -3.2249434 -1.0648582
H -0.10903955 3.394948 0.9311826
H -1.7242471 2.697543 0.67206913
H -1.1170478 2.9390233 2.3417068
H 0.56751865 -0.8002648 1.3056004
H 0.9772704 -0.5680955 -1.6221488
H 2.0073278 -1.6221962 -0.64012486
