14
title
N 1.9781855 2.443272 -0.42024872
C 1.6113647 1.3176197 0.41461378
C 0.23768367 0.7204939 0.13228337
O -0.5399612 1.1044238 -0.69892246
O -0.007915832 -0.3281392 0.9688082
C -1.2648891 -0.98432946 0.7854503
C -1.1744617 -2.0466635 -0.22219206
N -1.1098517 -2.8937523 -1.0041783
H 1.9569647 2.161491 -1.3961389
H 1.2734196 3.1703973 -0.33785608
H 2.349625 0.5140101 0.3105668
H 1.6385375 1.6061602 1.4721346
H -1.5270706 -1.4192255 1.7521945
H -2.027927 -0.26341736 0.48081717
