title
 OpenBabel02282109583D

 16 15  0  0  0  0  0  0  0  0999 V2000
    1.9394    2.6993    0.0360 O   0  0  0  0  0  0  0  0  0  0  0  0
    1.8520    1.3033   -0.0591 C   0  0  0  0  0  0  0  0  0  0  0  0
    0.3897    0.8710    0.0173 C   0  0  0  0  0  0  0  0  0  0  0  0
   -0.5154    1.6647    0.0786 O   0  0  0  0  0  0  0  0  0  0  0  0
    0.1610   -0.6358    0.0095 C   0  0  0  0  0  0  0  0  0  0  0  0
   -1.3313   -1.0010   -0.0468 C   0  0  0  0  0  0  0  0  0  0  0  0
   -1.5491   -2.4415   -0.0291 C   0  0  0  0  0  0  0  0  0  0  0  0
   -1.7016   -3.6338   -0.0134 C   0  0  0  0  0  0  0  0  0  0  0  0
    2.8666    2.9455   -0.0286 H   0  0  0  0  0  0  0  0  0  0  0  0
    2.2584    0.9133   -1.0094 H   0  0  0  0  0  0  0  0  0  0  0  0
    2.3996    0.7832    0.7464 H   0  0  0  0  0  0  0  0  0  0  0  0
    0.7003   -1.0822   -0.8351 H   0  0  0  0  0  0  0  0  0  0  0  0
    0.6222   -1.0639    0.9089 H   0  0  0  0  0  0  0  0  0  0  0  0
   -1.8477   -0.5271    0.7947 H   0  0  0  0  0  0  0  0  0  0  0  0
   -1.7769   -0.5626   -0.9469 H   0  0  0  0  0  0  0  0  0  0  0  0
   -1.8561   -4.6840    0.0004 H   0  0  0  0  0  0  0  0  0  0  0  0
  2  3  1  0  0  0  0
  2  1  1  0  0  0  0
  2 11  1  0  0  0  0
  3  4  2  0  0  0  0
  5  3  1  0  0  0  0
  5 13  1  0  0  0  0
  6  7  1  0  0  0  0
  6  5  1  0  0  0  0
  6 14  1  0  0  0  0
  7  8  3  0  0  0  0
  8 16  1  0  0  0  0
  9  1  1  0  0  0  0
 10  2  1  0  0  0  0
 12  5  1  0  0  0  0
 15  6  1  0  0  0  0
M  END
