15
title
O 1.9293011 2.7275205 -0.0039584213
C 1.8660519 1.32846 -0.010733531
C 0.40765718 0.88288826 0.00075993635
O -0.5115621 1.6617638 0.013545365
C 0.19072273 -0.62802637 -0.0050776233
C -1.3052862 -0.97876155 0.007369382
C -1.5287447 -2.4214938 0.0017945939
N -1.6874065 -3.5660894 -0.00285079
H 2.8555543 2.986418 -0.011516889
H 2.3423584 0.8803684 -0.90073633
H 2.3590925 0.8710618 0.86531556
H 0.68098426 -1.0597495 -0.8860038
H 0.6976813 -1.0689169 0.86174256
H -1.7846999 -0.5407828 0.88816935
H -1.8014183 -0.5314485 -0.85937
