title
 OpenBabel02282109583D

 15 14  0  0  0  0  0  0  0  0999 V2000
    1.7616    2.6603    0.0059 O   0  0  0  0  0  0  0  0  0  0  0  0
    1.6953    1.2590   -0.0664 C   0  0  0  0  0  0  0  0  0  0  0  0
    0.2298    0.8300    0.0720 C   0  0  0  0  0  0  0  0  0  0  0  0
   -0.5862    1.4576    0.7127 O   0  0  0  0  0  0  0  0  0  0  0  0
   -0.0562   -0.3493   -0.5591 N   0  0  0  0  0  0  0  0  0  0  0  0
   -1.3481   -1.0032   -0.4049 C   0  0  0  0  0  0  0  0  0  0  0  0
   -1.2185   -2.4075   -0.0275 C   0  0  0  0  0  0  0  0  0  0  0  0
   -1.0993   -3.5688    0.2564 C   0  0  0  0  0  0  0  0  0  0  0  0
    2.6756    2.9088    0.1692 H   0  0  0  0  0  0  0  0  0  0  0  0
    2.1116    0.8714   -1.0115 H   0  0  0  0  0  0  0  0  0  0  0  0
    2.2455    0.7714    0.7551 H   0  0  0  0  0  0  0  0  0  0  0  0
    0.6616   -0.8337   -1.0730 H   0  0  0  0  0  0  0  0  0  0  0  0
   -1.8839   -0.4331    0.3610 H   0  0  0  0  0  0  0  0  0  0  0  0
   -1.9357   -0.9236   -1.3297 H   0  0  0  0  0  0  0  0  0  0  0  0
   -1.0065   -4.5926    0.5229 H   0  0  0  0  0  0  0  0  0  0  0  0
  1  9  1  0  0  0  0
  2  1  1  0  0  0  0
  2  3  1  0  0  0  0
  2 11  1  0  0  0  0
  3  4  2  0  0  0  0
  5  6  1  0  0  0  0
  5  3  1  0  0  0  0
  6  7  1  0  0  0  0
  6 13  1  0  0  0  0
  7  8  3  0  0  0  0
  8 15  1  0  0  0  0
 10  2  1  0  0  0  0
 12  5  1  0  0  0  0
 14  6  1  0  0  0  0
M  END
