title
 OpenBabel02282109583D

 13 12  0  0  0  0  0  0  0  0999 V2000
    1.8303    2.6376   -0.0049 O   0  0  0  0  0  0  0  0  0  0  0  0
    1.7136    1.2409   -0.0090 C   0  0  0  0  0  0  0  0  0  0  0  0
    0.2394    0.8819    0.0026 C   0  0  0  0  0  0  0  0  0  0  0  0
   -0.6908    1.6357    0.0150 O   0  0  0  0  0  0  0  0  0  0  0  0
    0.1135   -0.4729   -0.0029 O   0  0  0  0  0  0  0  0  0  0  0  0
   -1.2416   -0.9313    0.0076 C   0  0  0  0  0  0  0  0  0  0  0  0
   -1.2243   -2.3925   -0.0010 C   0  0  0  0  0  0  0  0  0  0  0  0
   -1.2475   -3.5465   -0.0075 N   0  0  0  0  0  0  0  0  0  0  0  0
    2.7663    2.8581   -0.0121 H   0  0  0  0  0  0  0  0  0  0  0  0
    2.1600    0.7687   -0.8984 H   0  0  0  0  0  0  0  0  0  0  0  0
    2.1754    0.7622    0.8690 H   0  0  0  0  0  0  0  0  0  0  0  0
   -1.7635   -0.5643    0.8972 H   0  0  0  0  0  0  0  0  0  0  0  0
   -1.7806   -0.5541   -0.8676 H   0  0  0  0  0  0  0  0  0  0  0  0
  2  1  1  0  0  0  0
  2  3  1  0  0  0  0
  2 11  1  0  0  0  0
  3  4  2  0  0  0  0
  5  3  1  0  0  0  0
  5  6  1  0  0  0  0
  6 12  1  0  0  0  0
  7  6  1  0  0  0  0
  8  7  3  0  0  0  0
  9  1  1  0  0  0  0
 10  2  1  0  0  0  0
 13  6  1  0  0  0  0
M  END
