title
 OpenBabel02282109583D

 17 16  0  0  0  0  0  0  0  0999 V2000
    1.9560    2.9301   -0.0044 C   0  0  0  0  0  0  0  0  0  0  0  0
    1.8371    1.4079   -0.0095 C   0  0  0  0  0  0  0  0  0  0  0  0
    0.4041    0.9106    0.0021 C   0  0  0  0  0  0  0  0  0  0  0  0
   -0.5502    1.6572    0.0142 O   0  0  0  0  0  0  0  0  0  0  0  0
    0.2103   -0.6013   -0.0019 C   0  0  0  0  0  0  0  0  0  0  0  0
   -1.1947   -0.9142    0.0107 N   0  0  0  0  0  0  0  0  0  0  0  0
   -1.6532   -2.1881    0.0023 C   0  0  0  0  0  0  0  0  0  0  0  0
   -0.9436   -3.1737   -0.0134 O   0  0  0  0  0  0  0  0  0  0  0  0
    3.0065    3.2322   -0.0134 H   0  0  0  0  0  0  0  0  0  0  0  0
    1.4634    3.3634   -0.8783 H   0  0  0  0  0  0  0  0  0  0  0  0
    1.4807    3.3561    0.8826 H   0  0  0  0  0  0  0  0  0  0  0  0
    2.3345    0.9720   -0.8870 H   0  0  0  0  0  0  0  0  0  0  0  0
    2.3513    0.9648    0.8546 H   0  0  0  0  0  0  0  0  0  0  0  0
    0.7086   -1.0295   -0.8829 H   0  0  0  0  0  0  0  0  0  0  0  0
    0.7261   -1.0361    0.8658 H   0  0  0  0  0  0  0  0  0  0  0  0
   -1.8205   -0.1208    0.0204 H   0  0  0  0  0  0  0  0  0  0  0  0
   -2.7599   -2.2335    0.0120 H   0  0  0  0  0  0  0  0  0  0  0  0
  1 11  1  0  0  0  0
  2  1  1  0  0  0  0
  2  3  1  0  0  0  0
  2 13  1  0  0  0  0
  3  4  2  0  0  0  0
  5  3  1  0  0  0  0
  5  6  1  0  0  0  0
  5 15  1  0  0  0  0
  6 16  1  0  0  0  0
  7  6  1  0  0  0  0
  7 17  1  0  0  0  0
  8  7  2  0  0  0  0
  9  1  1  0  0  0  0
 10  1  1  0  0  0  0
 12  2  1  0  0  0  0
 14  5  1  0  0  0  0
M  END
