title
 OpenBabel02282109583D

 17 16  0  0  0  0  0  0  0  0999 V2000
   -0.4933    2.8479    1.7511 C   0  0  0  0  0  0  0  0  0  0  0  0
   -0.9572    1.3959    1.6597 C   0  0  0  0  0  0  0  0  0  0  0  0
   -0.3332    0.6319    0.5038 C   0  0  0  0  0  0  0  0  0  0  0  0
    0.2929    1.1613   -0.3816 O   0  0  0  0  0  0  0  0  0  0  0  0
   -0.5262   -0.8895    0.5382 C   0  0  0  0  0  0  0  0  0  0  0  0
   -0.2976   -1.5154   -0.7008 O   0  0  0  0  0  0  0  0  0  0  0  0
    0.9872   -1.5868   -1.1240 C   0  0  0  0  0  0  0  0  0  0  0  0
    1.2398   -2.0935   -2.2493 N   0  0  0  0  0  0  0  0  0  0  0  0
    0.5836    2.9042    1.9317 H   0  0  0  0  0  0  0  0  0  0  0  0
   -0.6953    3.3765    0.8169 H   0  0  0  0  0  0  0  0  0  0  0  0
   -1.0064    3.3665    2.5651 H   0  0  0  0  0  0  0  0  0  0  0  0
   -0.7593    0.8471    2.5908 H   0  0  0  0  0  0  0  0  0  0  0  0
   -2.0473    1.3403    1.5243 H   0  0  0  0  0  0  0  0  0  0  0  0
    0.1296   -1.2919    1.3280 H   0  0  0  0  0  0  0  0  0  0  0  0
   -1.5535   -1.1329    0.8251 H   0  0  0  0  0  0  0  0  0  0  0  0
    1.7114   -1.1969   -0.3988 H   0  0  0  0  0  0  0  0  0  0  0  0
    2.2443   -2.0927   -2.4122 H   0  0  0  0  0  0  0  0  0  0  0  0
  1  9  1  0  0  0  0
  1 11  1  0  0  0  0
  2  1  1  0  0  0  0
  2 12  1  0  0  0  0
  3  5  1  0  0  0  0
  3  2  1  0  0  0  0
  4  3  2  0  0  0  0
  5 15  1  0  0  0  0
  5 14  1  0  0  0  0
  6  5  1  0  0  0  0
  7  6  1  0  0  0  0
  7 16  1  0  0  0  0
  8  7  2  0  0  0  0
 10  1  1  0  0  0  0
 13  2  1  0  0  0  0
 17  8  1  0  0  0  0
M  END
