17
title
C -0.4932731 2.8479242 1.7510817
C -0.9572234 1.3959106 1.6596941
C -0.33315417 0.6319082 0.5038457
O 0.29289588 1.161275 -0.3816482
C -0.5261773 -0.889532 0.53821576
O -0.29763523 -1.5153849 -0.7007576
C 0.9872025 -1.5867922 -1.1240159
N 1.2397977 -2.0934637 -2.2493165
H 0.58362913 2.904222 1.9316674
H -0.69528663 3.3764946 0.81686497
H -1.0063848 3.366468 2.5651236
H -0.75928473 0.8471408 2.590836
H -2.0473402 1.3403113 1.5243468
H 0.12963693 -1.2919314 1.3280087
H -1.553479 -1.1328998 0.8250606
H 1.7113627 -1.1968884 -0.39878812
H 2.2443213 -2.0927463 -2.4121735
