title
 OpenBabel02282109583D

 16 15  0  0  0  0  0  0  0  0999 V2000
   -0.6724    2.7846   -1.8106 C   0  0  0  0  0  0  0  0  0  0  0  0
   -1.1039    1.3292   -1.6452 C   0  0  0  0  0  0  0  0  0  0  0  0
   -0.3796    0.6054   -0.5253 C   0  0  0  0  0  0  0  0  0  0  0  0
    0.3206    1.1590    0.2866 O   0  0  0  0  0  0  0  0  0  0  0  0
   -0.5608   -0.9176   -0.4885 C   0  0  0  0  0  0  0  0  0  0  0  0
   -0.2381   -1.4720    0.7709 O   0  0  0  0  0  0  0  0  0  0  0  0
    1.0746   -1.5145    1.1069 C   0  0  0  0  0  0  0  0  0  0  0  0
    1.4421   -1.8911    2.1759 O   0  0  0  0  0  0  0  0  0  0  0  0
    0.3870    2.8514   -2.0721 H   0  0  0  0  0  0  0  0  0  0  0  0
   -1.2533    3.2710   -2.5984 H   0  0  0  0  0  0  0  0  0  0  0  0
   -0.8144    3.3374   -0.8793 H   0  0  0  0  0  0  0  0  0  0  0  0
   -2.1792    1.2598   -1.4242 H   0  0  0  0  0  0  0  0  0  0  0  0
   -0.9692    0.7576   -2.5742 H   0  0  0  0  0  0  0  0  0  0  0  0
   -1.5986   -1.1918   -0.6948 H   0  0  0  0  0  0  0  0  0  0  0  0
    0.0548   -1.3502   -1.2927 H   0  0  0  0  0  0  0  0  0  0  0  0
    1.7414   -1.2024    0.2829 H   0  0  0  0  0  0  0  0  0  0  0  0
  1  2  1  0  0  0  0
  1 11  1  0  0  0  0
  2 12  1  0  0  0  0
  2  3  1  0  0  0  0
  3  5  1  0  0  0  0
  3  4  2  0  0  0  0
  5  6  1  0  0  0  0
  6  7  1  0  0  0  0
  7  8  2  0  0  0  0
  9  1  1  0  0  0  0
 10  1  1  0  0  0  0
 13  2  1  0  0  0  0
 14  5  1  0  0  0  0
 15  5  1  0  0  0  0
 16  7  1  0  0  0  0
M  END
