16
title
C -0.67243606 2.7845972 -1.810582
C -1.1039124 1.3291621 -1.6452298
C -0.37959254 0.6054127 -0.52533984
O 0.32056826 1.1590077 0.28660607
C -0.56083524 -0.9175928 -0.4885236
O -0.2380538 -1.4720256 0.77092576
C 1.0745993 -1.514543 1.1069479
O 1.4421275 -1.8911428 2.1759484
H 0.3869725 2.8514159 -2.072084
H -1.2532791 3.2709615 -2.5984173
H -0.8143846 3.3374097 -0.8793373
H -2.1791897 1.2598479 -1.4241848
H -0.96917623 0.7576189 -2.57417
H -1.5986162 -1.191767 -0.6947727
H 0.05480092 -1.3501794 -1.292675
H 1.7413638 -1.2023909 0.28293157
