17
title
C 1.9073004 2.9480054 -0.059677012
C 1.8437358 1.4211553 -0.10181988
C 0.4107669 0.9013198 -0.029434226
O -0.54895574 1.5468346 -0.40786782
N 0.2842762 -0.37020674 0.47211617
C -0.9983464 -1.0273536 0.5908877
C -1.1358324 -2.208524 -0.35750797
O -1.7255274 -3.2222672 -0.093943305
H 2.9308379 3.296562 -0.22143571
H 1.261224 3.3725064 -0.8304356
H 1.5642946 3.3299627 0.9062219
H 2.2701511 1.0531085 -1.0446519
H 2.4467292 0.9773869 0.699395
H 1.1063015 -0.84493244 0.80768734
H -1.2036527 -1.3610419 1.6131291
H -1.7494484 -0.27767828 0.3102485
H -0.6365529 -2.052704 -1.3416524
