16
title
C -1.4354742 2.732982 -1.5529363
C -0.78572685 1.3556671 -1.6594263
C -0.16040088 0.8979817 -0.36057526
O -0.12990297 1.5222075 0.6672916
O 0.3809451 -0.34243974 -0.50997275
C 1.0182147 -0.919333 0.6307649
C 0.2982614 -2.1958401 1.0253675
O 0.80139685 -3.0616112 1.6886892
H -0.7029679 3.4904099 -1.2634355
H -1.8720618 3.0224884 -2.5124588
H -2.2259243 2.7365434 -0.79830617
H -1.5072663 0.5899175 -1.967672
H -0.0012451523 1.3376728 -2.4254553
H 2.0600808 -1.1396496 0.3833391
H 0.98722506 -0.21253309 1.4678953
H -0.75048554 -2.2558694 0.65624064
