title
 OpenBabel02282109583D

 17 16  0  0  0  0  0  0  0  0999 V2000
    1.5938    3.1432    0.0518 C   0  0  0  0  0  0  0  0  0  0  0  0
    1.4650    1.7026    0.1637 N   0  0  0  0  0  0  0  0  0  0  0  0
    0.3559    1.0281   -0.2479 C   0  0  0  0  0  0  0  0  0  0  0  0
   -0.6248    1.5755   -0.7206 O   0  0  0  0  0  0  0  0  0  0  0  0
    0.4392   -0.4940   -0.1021 C   0  0  0  0  0  0  0  0  0  0  0  0
   -0.9338   -1.0980    0.2205 C   0  0  0  0  0  0  0  0  0  0  0  0
   -0.9880   -2.5766   -0.0730 C   0  0  0  0  0  0  0  0  0  0  0  0
   -1.3558   -3.4267    0.6955 O   0  0  0  0  0  0  0  0  0  0  0  0
    2.4247    3.4202   -0.6066 H   0  0  0  0  0  0  0  0  0  0  0  0
    0.6625    3.5200   -0.3718 H   0  0  0  0  0  0  0  0  0  0  0  0
    1.7544    3.6042    1.0324 H   0  0  0  0  0  0  0  0  0  0  0  0
    2.2316    1.1778    0.5503 H   0  0  0  0  0  0  0  0  0  0  0  0
    0.7954   -0.8846   -1.0657 H   0  0  0  0  0  0  0  0  0  0  0  0
    1.1834   -0.7829    0.6479 H   0  0  0  0  0  0  0  0  0  0  0  0
   -1.2218   -0.9279    1.2611 H   0  0  0  0  0  0  0  0  0  0  0  0
   -1.6652   -0.5907   -0.4234 H   0  0  0  0  0  0  0  0  0  0  0  0
   -0.6525   -2.8447   -1.1046 H   0  0  0  0  0  0  0  0  0  0  0  0
  1  2  1  0  0  0  0
  1 11  1  0  0  0  0
  2 12  1  0  0  0  0
  3  5  1  0  0  0  0
  3  2  1  0  0  0  0
  4  3  2  0  0  0  0
  5  6  1  0  0  0  0
  5 14  1  0  0  0  0
  6 15  1  0  0  0  0
  7  6  1  0  0  0  0
  7  8  2  0  0  0  0
  9  1  1  0  0  0  0
 10  1  1  0  0  0  0
 13  5  1  0  0  0  0
 16  6  1  0  0  0  0
 17  7  1  0  0  0  0
M  END
