title
 OpenBabel02282109583D

 16 15  0  0  0  0  0  0  0  0999 V2000
   -0.5781    3.0596    1.1064 C   0  0  0  0  0  0  0  0  0  0  0  0
   -0.8352    1.6327    1.1806 N   0  0  0  0  0  0  0  0  0  0  0  0
   -0.0957    0.7195    0.4976 C   0  0  0  0  0  0  0  0  0  0  0  0
    0.8353    1.0015   -0.2339 O   0  0  0  0  0  0  0  0  0  0  0  0
   -0.4839   -0.7448    0.7546 C   0  0  0  0  0  0  0  0  0  0  0  0
   -0.4620   -1.5069   -0.4321 O   0  0  0  0  0  0  0  0  0  0  0  0
    0.7570   -1.8451   -0.9220 C   0  0  0  0  0  0  0  0  0  0  0  0
    0.8265   -2.4626   -2.0183 N   0  0  0  0  0  0  0  0  0  0  0  0
    0.3095    3.1976    0.4884 H   0  0  0  0  0  0  0  0  0  0  0  0
   -1.4179    3.5917    0.6467 H   0  0  0  0  0  0  0  0  0  0  0  0
   -0.3962    3.4796    2.1012 H   0  0  0  0  0  0  0  0  0  0  0  0
   -1.6292    1.3140    1.7110 H   0  0  0  0  0  0  0  0  0  0  0  0
    0.2134   -1.1494    1.5030 H   0  0  0  0  0  0  0  0  0  0  0  0
   -1.4971   -0.8387    1.1548 H   0  0  0  0  0  0  0  0  0  0  0  0
    1.5878   -1.5440   -0.2761 H   0  0  0  0  0  0  0  0  0  0  0  0
    1.7994   -2.6660   -2.2372 H   0  0  0  0  0  0  0  0  0  0  0  0
  1  2  1  0  0  0  0
  1 11  1  0  0  0  0
  2 12  1  0  0  0  0
  3  5  1  0  0  0  0
  3  2  1  0  0  0  0
  4  3  2  0  0  0  0
  5 14  1  0  0  0  0
  5 13  1  0  0  0  0
  6  5  1  0  0  0  0
  7  6  1  0  0  0  0
  7 15  1  0  0  0  0
  8  7  2  0  0  0  0
  9  1  1  0  0  0  0
 10  1  1  0  0  0  0
 16  8  1  0  0  0  0
M  END
