15
title
C -0.6265246 2.9931722 1.3064605
N -0.95014256 1.5800918 1.2161511
C -0.19526394 0.7004587 0.5091104
O 0.80449575 0.99700326 -0.117358126
C -0.6589596 -0.7614648 0.5952897
O -0.42832837 -1.435073 -0.62775785
C 0.85341436 -1.7890016 -0.90209204
O 1.1594665 -2.2834966 -1.9423475
H 0.3126499 3.1464062 0.77445304
H -1.4038386 3.608591 0.8413383
H -0.5067246 3.3035684 2.3495505
H -1.7946115 1.2513057 1.6547807
H -0.11586172 -1.2415525 1.4216548
H -1.7291325 -0.8504831 0.79749244
H 1.5420293 -1.5993363 -0.061210077
