15
title
C -0.7479246 2.912966 1.5312861
N -0.17259885 1.590028 1.4059155
C -0.045407843 0.961871 0.21357131
O -0.38303784 1.3933764 -0.86570466
O 0.5354222 -0.2646812 0.41176414
C 0.7468301 -1.0553331 -0.75291
C -0.077923074 -2.326356 -0.67022836
O 0.16964506 -3.3212533 -1.2967595
H -0.02589811 3.62416 1.9474341
H -1.0340832 3.2440877 0.53267986
H -1.6377306 2.9016404 2.1702526
H 0.16586314 1.104501 2.219671
H 0.44309795 -0.4873962 -1.6402947
H 1.8088881 -1.3046346 -0.830629
H -0.9503774 -2.2529838 0.018175721
