16
title
C 1.7128785 2.9516704 -0.1188884
O 1.6023843 1.5282923 0.026405524
C 0.3758498 1.0201957 -0.18968344
O -0.5888405 1.6861787 -0.46997294
C 0.3890756 -0.4921333 -0.05947609
C -1.0099185 -1.0611099 0.20178321
C -1.0781562 -2.545615 -0.06899803
O -1.521203 -3.3693044 0.68741715
H 2.7555144 3.1900485 0.090136535
H 1.4452802 3.2569702 -1.1334811
H 1.0533749 3.4619105 0.5872348
H 0.7915633 -0.8868982 -1.0032061
H 1.1026616 -0.7806589 0.71695995
H -1.3447692 -0.8683309 1.2239478
H -1.7107403 -0.5596699 -0.47931504
H -0.6791856 -2.8426573 -1.0693514
