15
title
C 1.576432 2.9085982 -0.00092716597
O 1.4885246 1.474661 -0.005610373
C 0.24972765 0.9715939 0.003798089
O -0.7599457 1.6336905 0.015546384
C 0.28241366 -0.5435303 -0.002445106
N -1.0705079 -1.0419244 0.008137207
C -1.3471407 -2.367969 -0.0011816545
O -0.5064042 -3.2434855 -0.017014002
H 2.6414087 3.137603 -0.009022776
H 1.0866317 3.3243828 -0.884516
H 1.1015387 3.3176856 0.8938456
H 0.83485234 -0.8896912 -0.884547
H 0.85142183 -0.8962348 0.86645883
H -1.8028637 -0.34676832 0.018720167
H -2.436737 -2.5663457 0.007336323
