title
 OpenBabel02282109583D

 14 13  0  0  0  0  0  0  0  0999 V2000
    1.5169    2.8191   -0.2609 C   0  0  0  0  0  0  0  0  0  0  0  0
    1.6310    1.4377    0.1222 O   0  0  0  0  0  0  0  0  0  0  0  0
    0.5099    0.7133    0.0073 C   0  0  0  0  0  0  0  0  0  0  0  0
   -0.5536    1.1310   -0.3665 O   0  0  0  0  0  0  0  0  0  0  0  0
    0.7853   -0.7404    0.3783 C   0  0  0  0  0  0  0  0  0  0  0  0
   -0.4077   -1.4321    0.6909 O   0  0  0  0  0  0  0  0  0  0  0  0
   -1.2193   -1.7580   -0.3456 C   0  0  0  0  0  0  0  0  0  0  0  0
   -2.2728   -2.2889   -0.1812 O   0  0  0  0  0  0  0  0  0  0  0  0
    2.5083    3.2472   -0.1178 H   0  0  0  0  0  0  0  0  0  0  0  0
    1.2080    2.9012   -1.3056 H   0  0  0  0  0  0  0  0  0  0  0  0
    0.7828    3.3281    0.3677 H   0  0  0  0  0  0  0  0  0  0  0  0
    1.3248   -1.2124   -0.4545 H   0  0  0  0  0  0  0  0  0  0  0  0
    1.4261   -0.7913    1.2593 H   0  0  0  0  0  0  0  0  0  0  0  0
   -0.7849   -1.5050   -1.3298 H   0  0  0  0  0  0  0  0  0  0  0  0
  1  9  1  0  0  0  0
  1  2  1  0  0  0  0
  1 11  1  0  0  0  0
  3  2  1  0  0  0  0
  3  5  1  0  0  0  0
  4  3  2  0  0  0  0
  5  6  1  0  0  0  0
  5 13  1  0  0  0  0
  7  8  2  0  0  0  0
  7  6  1  0  0  0  0
 10  1  1  0  0  0  0
 12  5  1  0  0  0  0
 14  7  1  0  0  0  0
M  END
