16
title
O 2.1094928 2.727934 -0.19674501
C 1.9785572 1.3604535 0.040623534
C 0.5479047 0.8873903 -0.16791563
O -0.31688493 1.7001103 -0.41548622
C 0.27436298 -0.6033742 -0.07174717
C -1.195846 -0.92579955 0.2246645
C -1.5284876 -2.367765 -0.07993647
O -2.0456183 -3.1361237 0.6871915
H 1.2073569 3.0463855 -0.35882986
H 2.6429625 0.7763654 -0.6168769
H 2.2642028 1.0955617 1.0744629
H 0.57010514 -1.0329756 -1.0415064
H 0.9454446 -1.0551852 0.6675606
H -1.4556535 -0.71046823 1.2639688
H -1.8171824 -0.28738967 -0.41733825
H -1.2528964 -2.6876092 -1.1140561
