15
title
O 1.974926 2.6987996 -0.15705779
C 1.8765141 1.319562 0.027950538
C 0.43726805 0.84328824 -0.070024885
O -0.44917104 1.6445247 -0.28591958
C 0.15641287 -0.63417214 0.10762151
N -1.2548792 -0.88954586 -0.018271642
C -1.7679472 -2.1391528 0.10164703
O -1.1038339 -3.1309693 0.31986406
H 1.0682738 3.0086641 -0.30526873
H 2.4712408 0.77089566 -0.7213493
H 2.271589 1.0176326 1.0122937
H 0.7352225 -1.2033299 -0.63354874
H 0.5374816 -0.9590053 1.0861698
H -1.8427434 -0.089005165 -0.19990496
H -2.8679678 -2.1531856 -0.022666266
