15
title
O 1.6060859 2.6878176 -0.63391393
C 1.8239025 1.4478959 -0.021306882
C 0.54028857 0.628546 -0.04859042
O -0.53462887 1.0847784 -0.33406708
C 0.7242429 -0.854142 0.301864
O -0.45450708 -1.4610579 0.7707258
C -1.4270499 -1.7014351 -0.14359394
N -2.5217361 -2.1931605 0.23806196
H 2.4002268 3.2199986 -0.5296425
H 2.6211889 0.8584725 -0.50942415
H 2.1144238 1.5371307 1.0412713
H 1.1186512 -1.3624146 -0.5933879
H 1.4719553 -0.9736293 1.0920119
H -1.1372106 -1.4498944 -1.1703026
H -3.136372 -2.3334398 -0.56077594
