title
 OpenBabel02282109583D

 15 14  0  0  0  0  0  0  0  0999 V2000
    1.6061    2.6878   -0.6339 O   0  0  0  0  0  0  0  0  0  0  0  0
    1.8239    1.4479   -0.0213 C   0  0  0  0  0  0  0  0  0  0  0  0
    0.5403    0.6285   -0.0486 C   0  0  0  0  0  0  0  0  0  0  0  0
   -0.5346    1.0848   -0.3341 O   0  0  0  0  0  0  0  0  0  0  0  0
    0.7242   -0.8541    0.3019 C   0  0  0  0  0  0  0  0  0  0  0  0
   -0.4545   -1.4611    0.7707 O   0  0  0  0  0  0  0  0  0  0  0  0
   -1.4270   -1.7014   -0.1436 C   0  0  0  0  0  0  0  0  0  0  0  0
   -2.5217   -2.1932    0.2381 N   0  0  0  0  0  0  0  0  0  0  0  0
    2.4002    3.2200   -0.5296 H   0  0  0  0  0  0  0  0  0  0  0  0
    2.6212    0.8585   -0.5094 H   0  0  0  0  0  0  0  0  0  0  0  0
    2.1144    1.5371    1.0413 H   0  0  0  0  0  0  0  0  0  0  0  0
    1.1187   -1.3624   -0.5934 H   0  0  0  0  0  0  0  0  0  0  0  0
    1.4720   -0.9736    1.0920 H   0  0  0  0  0  0  0  0  0  0  0  0
   -1.1372   -1.4499   -1.1703 H   0  0  0  0  0  0  0  0  0  0  0  0
   -3.1364   -2.3334   -0.5608 H   0  0  0  0  0  0  0  0  0  0  0  0
  1  9  1  0  0  0  0
  1  2  1  0  0  0  0
  2 11  1  0  0  0  0
  3  2  1  0  0  0  0
  3  5  1  0  0  0  0
  4  3  2  0  0  0  0
  5  6  1  0  0  0  0
  5 13  1  0  0  0  0
  7  8  2  0  0  0  0
  7  6  1  0  0  0  0
 10  2  1  0  0  0  0
 12  5  1  0  0  0  0
 14  7  1  0  0  0  0
 15  8  1  0  0  0  0
M  END
