14
title
O 1.7201889 2.6544833 -0.5043852
C 1.8982939 1.3760085 0.035180215
C 0.58873993 0.60496444 -0.028839746
O -0.47134775 1.104025 -0.29685938
C 0.7117241 -0.898022 0.25614005
O -0.50607723 -1.4516928 0.7106355
C -1.4908187 -1.6143413 -0.20938936
O -2.5769103 -1.9997213 0.091660805
H 2.5350957 3.150693 -0.38379315
H 2.6706114 0.78642064 -0.49172285
H 2.1981897 1.3932974 1.0989292
H 1.0613528 -1.3885624 -0.6655519
H 1.4563558 -1.0967607 1.0317578
H -1.1612387 -1.3874178 -1.2389297
