title
 OpenBabel02282109583D

 14 13  0  0  0  0  0  0  0  0999 V2000
    1.7202    2.6545   -0.5044 O   0  0  0  0  0  0  0  0  0  0  0  0
    1.8983    1.3760    0.0352 C   0  0  0  0  0  0  0  0  0  0  0  0
    0.5887    0.6050   -0.0288 C   0  0  0  0  0  0  0  0  0  0  0  0
   -0.4713    1.1040   -0.2969 O   0  0  0  0  0  0  0  0  0  0  0  0
    0.7117   -0.8980    0.2561 C   0  0  0  0  0  0  0  0  0  0  0  0
   -0.5061   -1.4517    0.7106 O   0  0  0  0  0  0  0  0  0  0  0  0
   -1.4908   -1.6143   -0.2094 C   0  0  0  0  0  0  0  0  0  0  0  0
   -2.5769   -1.9997    0.0917 O   0  0  0  0  0  0  0  0  0  0  0  0
    2.5351    3.1507   -0.3838 H   0  0  0  0  0  0  0  0  0  0  0  0
    2.6706    0.7864   -0.4917 H   0  0  0  0  0  0  0  0  0  0  0  0
    2.1982    1.3933    1.0989 H   0  0  0  0  0  0  0  0  0  0  0  0
    1.0614   -1.3886   -0.6656 H   0  0  0  0  0  0  0  0  0  0  0  0
    1.4564   -1.0968    1.0318 H   0  0  0  0  0  0  0  0  0  0  0  0
   -1.1612   -1.3874   -1.2389 H   0  0  0  0  0  0  0  0  0  0  0  0
  1  9  1  0  0  0  0
  1  2  1  0  0  0  0
  2 11  1  0  0  0  0
  3  2  1  0  0  0  0
  3  5  1  0  0  0  0
  4  3  2  0  0  0  0
  5  6  1  0  0  0  0
  5 13  1  0  0  0  0
  7  8  2  0  0  0  0
  7  6  1  0  0  0  0
 10  2  1  0  0  0  0
 12  5  1  0  0  0  0
 14  7  1  0  0  0  0
M  END
