15
title
O 2.2189977 1.574102 0.75249004
C 1.6059608 1.694148 -0.5233637
C 0.25434282 0.98142415 -0.646007
O -0.47045633 1.1534542 -1.6082163
N -0.02789996 0.1473557 0.39321676
C -1.2389946 -0.6369327 0.44806692
C -0.9805789 -2.1251898 0.25812423
O -1.6105347 -2.9922357 0.8017784
H 1.8632125 2.263339 1.3218571
H 1.4613646 2.7361364 -0.82959634
H 2.2856023 1.2359433 -1.2496952
H 0.6700237 0.08102123 1.1192225
H -1.7902081 -0.48628148 1.3816656
H -1.8651752 -0.29510245 -0.38659573
H -0.14663397 -2.3503816 -0.44557184
