title
 OpenBabel02282109583D

 14 13  0  0  0  0  0  0  0  0999 V2000
    2.0436    2.5059   -0.5476 O   0  0  0  0  0  0  0  0  0  0  0  0
    1.8521    1.2968    0.1272 C   0  0  0  0  0  0  0  0  0  0  0  0
    0.4118    0.8359    0.0207 C   0  0  0  0  0  0  0  0  0  0  0  0
   -0.4382    1.4676   -0.5575 O   0  0  0  0  0  0  0  0  0  0  0  0
    0.2142   -0.3379    0.6476 O   0  0  0  0  0  0  0  0  0  0  0  0
   -1.1104   -0.8850    0.6272 C   0  0  0  0  0  0  0  0  0  0  0  0
   -1.1172   -2.1849   -0.1601 C   0  0  0  0  0  0  0  0  0  0  0  0
   -1.9922   -3.0012   -0.0669 O   0  0  0  0  0  0  0  0  0  0  0  0
    1.1764    2.7610   -0.8937 H   0  0  0  0  0  0  0  0  0  0  0  0
    2.4975    0.5045   -0.2798 H   0  0  0  0  0  0  0  0  0  0  0  0
    2.1006    1.3852    1.1959 H   0  0  0  0  0  0  0  0  0  0  0  0
   -1.4222   -1.0702    1.6578 H   0  0  0  0  0  0  0  0  0  0  0  0
   -1.7989   -0.1732    0.1600 H   0  0  0  0  0  0  0  0  0  0  0  0
   -0.2466   -2.3100   -0.8419 H   0  0  0  0  0  0  0  0  0  0  0  0
  1  2  1  0  0  0  0
  2 11  1  0  0  0  0
  3  2  1  0  0  0  0
  3  5  1  0  0  0  0
  4  3  2  0  0  0  0
  6  5  1  0  0  0  0
  6 12  1  0  0  0  0
  7  8  2  0  0  0  0
  7  6  1  0  0  0  0
  9  1  1  0  0  0  0
 10  2  1  0  0  0  0
 13  6  1  0  0  0  0
 14  7  1  0  0  0  0
M  END
