title
 OpenBabel02282109583D

 16 15  0  0  0  0  0  0  0  0999 V2000
    2.3377    1.3154   -0.9240 C   0  0  0  0  0  0  0  0  0  0  0  0
    2.0086    0.0699   -0.3105 O   0  0  0  0  0  0  0  0  0  0  0  0
    0.6940   -0.2232   -0.2272 C   0  0  0  0  0  0  0  0  0  0  0  0
    0.5211   -1.4957    0.2753 N   0  0  0  0  0  0  0  0  0  0  0  0
   -0.1940    0.6003   -0.6261 N   0  0  0  0  0  0  0  0  0  0  0  0
   -1.5884    0.1777   -0.5798 C   0  0  0  0  0  0  0  0  0  0  0  0
   -2.1145   -0.0857    0.7668 C   0  0  0  0  0  0  0  0  0  0  0  0
   -2.5111   -0.3253    1.8777 C   0  0  0  0  0  0  0  0  0  0  0  0
    3.4278    1.3603   -0.9263 H   0  0  0  0  0  0  0  0  0  0  0  0
    1.9486    1.3611   -1.9445 H   0  0  0  0  0  0  0  0  0  0  0  0
    1.9198    2.1508   -0.3566 H   0  0  0  0  0  0  0  0  0  0  0  0
    1.3465   -1.8823    0.7087 H   0  0  0  0  0  0  0  0  0  0  0  0
   -0.3256   -1.6292    0.8112 H   0  0  0  0  0  0  0  0  0  0  0  0
   -2.1924    0.9695   -1.0367 H   0  0  0  0  0  0  0  0  0  0  0  0
   -1.7502   -0.7243   -1.1929 H   0  0  0  0  0  0  0  0  0  0  0  0
   -2.8819   -0.5079    2.8560 H   0  0  0  0  0  0  0  0  0  0  0  0
  1 11  1  0  0  0  0
  1  2  1  0  0  0  0
  2  3  1  0  0  0  0
  3  4  1  0  0  0  0
  4 12  1  0  0  0  0
  4 13  1  0  0  0  0
  5  6  1  0  0  0  0
  5  3  2  0  0  0  0
  6  7  1  0  0  0  0
  7  8  3  0  0  0  0
  8 16  1  0  0  0  0
  9  1  1  0  0  0  0
 10  1  1  0  0  0  0
 14  6  1  0  0  0  0
 15  6  1  0  0  0  0
M  END
