16
title
C 2.3377044 1.3153677 -0.9240384
O 2.0086286 0.06991734 -0.3104814
C 0.693979 -0.2232481 -0.22720964
N 0.521117 -1.4956686 0.27528918
N -0.19397877 0.60034037 -0.6261066
C -1.5884163 0.17770572 -0.57978815
C -2.1145306 -0.08569434 0.76675653
C -2.5110502 -0.32530868 1.8776891
H 3.4278398 1.3602976 -0.926295
H 1.948619 1.3611335 -1.9445335
H 1.9197745 2.150833 -0.3565927
H 1.3464535 -1.8822651 0.7087494
H -0.32560584 -1.6292089 0.81124413
H -2.1923666 0.9694917 -1.0367341
H -1.7502367 -0.7242749 -1.19289
H -2.881928 -0.50785303 2.8560295
