15
title
C 2.3133125 1.4043827 -0.893868
O 2.0067222 0.12522417 -0.33541557
C 0.7033285 -0.19219737 -0.24137783
N 0.558645 -1.4866201 0.20105803
N -0.20251656 0.64269584 -0.5854039
C -1.586133 0.21173847 -0.5590245
C -2.079528 -0.17393143 0.7779739
N -2.4054787 -0.51258856 1.8350171
H 3.402424 1.4588993 -0.91122323
H 1.9069749 1.4940115 -1.9043499
H 1.8976665 2.205191 -0.27762407
H 1.4032834 -1.8926283 0.5755689
H -0.26636243 -1.683877 0.7492715
H -2.2146204 1.031596 -0.9211889
H -1.7691653 -0.645381 -1.226723
