title
 OpenBabel02282109583D

 15 14  0  0  0  0  0  0  0  0999 V2000
    0.5703    1.5144   -0.1926 N   0  0  0  0  0  0  0  0  0  0  0  0
    0.7192    0.2110    0.1878 C   0  0  0  0  0  0  0  0  0  0  0  0
    2.1519   -0.3023    0.2493 C   0  0  0  0  0  0  0  0  0  0  0  0
    2.2242   -1.5865    0.7862 O   0  0  0  0  0  0  0  0  0  0  0  0
   -0.1913   -0.6224    0.5335 N   0  0  0  0  0  0  0  0  0  0  0  0
   -1.5864   -0.2235    0.5806 C   0  0  0  0  0  0  0  0  0  0  0  0
   -2.1155    0.3298   -0.6796 C   0  0  0  0  0  0  0  0  0  0  0  0
   -2.4746    0.7992   -1.6738 N   0  0  0  0  0  0  0  0  0  0  0  0
    1.3757    1.9742   -0.5888 H   0  0  0  0  0  0  0  0  0  0  0  0
   -0.3108    1.8155   -0.5830 H   0  0  0  0  0  0  0  0  0  0  0  0
    2.5635   -0.2723   -0.7749 H   0  0  0  0  0  0  0  0  0  0  0  0
    2.7470    0.4053    0.8490 H   0  0  0  0  0  0  0  0  0  0  0  0
    1.2949   -1.8529    0.9034 H   0  0  0  0  0  0  0  0  0  0  0  0
   -2.1918   -1.0965    0.8436 H   0  0  0  0  0  0  0  0  0  0  0  0
   -1.7608    0.5296    1.3645 H   0  0  0  0  0  0  0  0  0  0  0  0
  1  2  1  0  0  0  0
  2  3  1  0  0  0  0
  2  5  2  0  0  0  0
  3  4  1  0  0  0  0
  3 12  1  0  0  0  0
  4 13  1  0  0  0  0
  5  6  1  0  0  0  0
  6 14  1  0  0  0  0
  6 15  1  0  0  0  0
  7  6  1  0  0  0  0
  8  7  3  0  0  0  0
  9  1  1  0  0  0  0
 10  1  1  0  0  0  0
 11  3  1  0  0  0  0
M  END
