title
 OpenBabel02282109583D

 17 16  0  0  0  0  0  0  0  0999 V2000
    2.3008    1.5856   -0.1575 C   0  0  0  0  0  0  0  0  0  0  0  0
    2.2375    0.2009   -0.4997 O   0  0  0  0  0  0  0  0  0  0  0  0
    1.0670   -0.4252   -0.2617 C   0  0  0  0  0  0  0  0  0  0  0  0
    1.1423   -1.8766   -0.6661 C   0  0  0  0  0  0  0  0  0  0  0  0
    0.0881    0.2037    0.2436 N   0  0  0  0  0  0  0  0  0  0  0  0
   -1.1607   -0.4760    0.4927 C   0  0  0  0  0  0  0  0  0  0  0  0
   -2.3092    0.5247    0.5064 C   0  0  0  0  0  0  0  0  0  0  0  0
   -3.4670    0.2214    0.3889 O   0  0  0  0  0  0  0  0  0  0  0  0
    3.3084    1.9081   -0.4227 H   0  0  0  0  0  0  0  0  0  0  0  0
    1.5540    2.1583   -0.7144 H   0  0  0  0  0  0  0  0  0  0  0  0
    2.1186    1.7310    0.9109 H   0  0  0  0  0  0  0  0  0  0  0  0
    2.1194   -2.1008   -1.0932 H   0  0  0  0  0  0  0  0  0  0  0  0
    0.9733   -2.5244    0.1997 H   0  0  0  0  0  0  0  0  0  0  0  0
    0.3691   -2.1114   -1.4043 H   0  0  0  0  0  0  0  0  0  0  0  0
   -1.4150   -1.2755   -0.2176 H   0  0  0  0  0  0  0  0  0  0  0  0
   -1.1548   -0.9436    1.4923 H   0  0  0  0  0  0  0  0  0  0  0  0
   -1.9789    1.5774    0.6504 H   0  0  0  0  0  0  0  0  0  0  0  0
  1 11  1  0  0  0  0
  2  3  1  0  0  0  0
  2  1  1  0  0  0  0
  3  5  2  0  0  0  0
  4  3  1  0  0  0  0
  4 13  1  0  0  0  0
  5  6  1  0  0  0  0
  6  7  1  0  0  0  0
  6 16  1  0  0  0  0
  7 17  1  0  0  0  0
  8  7  2  0  0  0  0
  9  1  1  0  0  0  0
 10  1  1  0  0  0  0
 12  4  1  0  0  0  0
 14  4  1  0  0  0  0
 15  6  1  0  0  0  0
M  END
