16
title
C -0.6423699 1.3425574 2.4414377
O -0.746575 0.026660834 1.898112
C -0.09874816 -0.19641405 0.73768985
N -0.16908081 -1.5222967 0.39294538
N 0.51811475 0.75326645 0.13581787
C 1.2659483 0.39715672 -1.0669414
C 0.26889953 0.21064234 -2.1972985
O -0.2105759 -0.86156356 -2.494547
H 0.40291145 1.6101192 2.615854
H -1.0809963 2.0793583 1.7637951
H -1.1933551 1.312646 3.3825428
H -0.8272179 -2.0652163 0.9300736
H -0.14255108 -1.7280933 -0.5982617
H 1.9491435 1.2191929 -1.3046328
H 1.8486146 -0.5289642 -0.9549335
H -0.07257117 1.1394609 -2.7012444
