16
title
C 1.02724 1.9673446 -0.38192245
C 1.0063144 0.42607945 -0.32754105
C 1.7693907 -0.109254174 0.8984707
O 3.116176 0.31466427 0.7744804
C -0.3538596 -0.09722509 -0.33918145
C -1.4854363 -0.52794176 -0.33937886
C -2.7586305 -1.0086668 -0.337676
C -3.8879924 -1.4365861 -0.33623534
H 2.0609279 2.3173616 -0.35960427
H 0.5447986 2.3294713 -1.2928895
H 0.4945132 2.3880327 0.47645217
H 1.5330726 0.042595543 -1.2127217
H 1.3009381 0.28321669 1.8140385
H 1.6909556 -1.20568 0.92400247
H 3.5968602 0.030132482 1.5568724
H -4.8812943 -1.8107898 -0.33525917
