title
 OpenBabel02282109583D

 17 16  0  0  1  0  0  0  0  0999 V2000
   -0.7501    3.2115    1.0250 C   0  0  0  0  0  0  0  0  0  0  0  0
   -0.6297    1.6862    0.9787 C   0  0  0  0  0  0  0  0  0  0  0  0
    0.1289    1.1597   -0.2685 C   0  0  1  0  0  0  0  0  0  0  0  0
    1.6109    1.5913   -0.3071 C   0  0  0  0  0  0  0  0  0  0  0  0
    0.0218   -0.2921   -0.3449 C   0  0  0  0  0  0  0  0  0  0  0  0
   -0.0635   -1.4974   -0.3905 C   0  0  0  0  0  0  0  0  0  0  0  0
   -0.1595   -2.8578   -0.4450 C   0  0  0  0  0  0  0  0  0  0  0  0
   -0.2408   -4.0161   -0.4915 N   0  0  0  0  0  0  0  0  0  0  0  0
    0.2241    3.7005    1.1157 H   0  0  0  0  0  0  0  0  0  0  0  0
   -1.2381    3.5986    0.1237 H   0  0  0  0  0  0  0  0  0  0  0  0
   -1.3517    3.5187    1.8853 H   0  0  0  0  0  0  0  0  0  0  0  0
   -0.1214    1.3177    1.8774 H   0  0  0  0  0  0  0  0  0  0  0  0
   -1.6302    1.2410    0.9846 H   0  0  0  0  0  0  0  0  0  0  0  0
   -0.3693    1.5689   -1.1597 H   0  0  0  0  0  0  0  0  0  0  0  0
    2.1399    1.2308    0.5801 H   0  0  0  0  0  0  0  0  0  0  0  0
    2.1111    1.1865   -1.1901 H   0  0  0  0  0  0  0  0  0  0  0  0
    1.6898    2.6803   -0.3397 H   0  0  0  0  0  0  0  0  0  0  0  0
  1  9  1  0  0  0  0
  1 11  1  0  0  0  0
  2 13  1  0  0  0  0
  2  1  1  0  0  0  0
  2 12  1  0  0  0  0
  3 14  1  6  0  0  0
  3  2  1  0  0  0  0
  4  3  1  0  0  0  0
  4 15  1  0  0  0  0
  5  3  1  0  0  0  0
  6  5  3  0  0  0  0
  7  6  1  0  0  0  0
  8  7  3  0  0  0  0
 10  1  1  0  0  0  0
 16  4  1  0  0  0  0
 17  4  1  0  0  0  0
M  END
