16
title
C -0.66007584 3.1778502 1.0382364
C -0.68151927 1.6508044 0.95812637
C 0.0835847 1.1178485 -0.271248
O 1.4417603 1.5518001 -0.29012278
C -0.015236937 -0.33995497 -0.36637548
C -0.07560899 -1.5487102 -0.40660694
C -0.14523414 -2.9066327 -0.45587078
C -0.2066684 -4.11186 -0.4980605
H 0.36748263 3.5493875 1.0501714
H -1.1671752 3.6252835 0.17619883
H -1.166239 3.527699 1.9424511
H -0.23321381 1.2111334 1.8583217
H -1.7111336 1.278175 0.911639
H -0.35715926 1.5615528 -1.1738455
H 1.9107978 1.0662372 0.39819238
H -0.26132226 -5.1714816 -0.53685725
