16
title
C 0.0023473317 3.001667 1.1415838
O -0.10569483 1.5969105 1.0639886
C 0.5931191 1.0214367 -0.033960342
C 2.0976765 0.87291205 0.25122023
C -0.017372115 -0.2743574 -0.32526994
C -0.49433503 -1.3527194 -0.5948049
C -1.0328865 -2.5674975 -0.8879478
C -1.5097908 -3.6449072 -1.1518924
H 1.0291662 3.3392208 1.3438586
H -0.3462868 3.4870207 0.21671838
H -0.63589305 3.3208551 1.9685881
H 0.46334976 1.6653132 -0.92152023
H 2.5518024 1.8515306 0.42876476
H 2.2473552 0.2464091 1.1336125
H 2.6023676 0.4099727 -0.6009668
H -1.9298339 -4.5931416 -1.3788621
