title
 OpenBabel02282109583D

 15 14  0  0  1  0  0  0  0  0999 V2000
    0.9319    3.0389   -0.5592 C   0  0  0  0  0  0  0  0  0  0  0  0
    0.9399    1.6296   -0.4474 O   0  0  0  0  0  0  0  0  0  0  0  0
   -0.3477    1.0378   -0.5134 C   0  0  1  0  0  0  0  0  0  0  0  0
   -0.8472    0.8734   -1.9591 C   0  0  0  0  0  0  0  0  0  0  0  0
   -0.2708   -0.2582    0.1632 C   0  0  0  0  0  0  0  0  0  0  0  0
   -0.2376   -1.3352    0.7078 C   0  0  0  0  0  0  0  0  0  0  0  0
   -0.1954   -2.5525    1.3251 C   0  0  0  0  0  0  0  0  0  0  0  0
   -0.1632   -3.5884    1.8496 N   0  0  0  0  0  0  0  0  0  0  0  0
    1.9644    3.3678   -0.4260 H   0  0  0  0  0  0  0  0  0  0  0  0
    0.5788    3.3826   -1.5415 H   0  0  0  0  0  0  0  0  0  0  0  0
    0.3070    3.5019    0.2193 H   0  0  0  0  0  0  0  0  0  0  0  0
   -1.0691    1.6592    0.0449 H   0  0  0  0  0  0  0  0  0  0  0  0
   -0.9407    1.8513   -2.4382 H   0  0  0  0  0  0  0  0  0  0  0  0
   -0.1420    0.2643   -2.5289 H   0  0  0  0  0  0  0  0  0  0  0  0
   -1.8274    0.3894   -1.9727 H   0  0  0  0  0  0  0  0  0  0  0  0
  1  2  1  0  0  0  0
  1  9  1  0  0  0  0
  1 11  1  0  0  0  0
  3  2  1  0  0  0  0
  3 12  1  1  0  0  0
  3  5  1  0  0  0  0
  4  3  1  0  0  0  0
  5  6  3  0  0  0  0
  6  7  1  0  0  0  0
  7  8  3  0  0  0  0
 10  1  1  0  0  0  0
 13  4  1  0  0  0  0
 14  4  1  0  0  0  0
 15  4  1  0  0  0  0
M  END
