14
title
O 1.171862 3.007607 -0.024208553
C 1.171974 1.6092961 0.119760714
C -0.27719387 1.079984 0.12049486
O -0.9552876 1.5716467 -1.0425788
C -0.32927057 -0.37219182 0.2241301
C -0.3315855 -1.5819215 0.27755013
C -0.3433368 -2.9405828 0.34199703
C -0.35217175 -4.1466002 0.3980716
H 0.5468875 3.1962101 -0.7367907
H 1.7296886 1.1056983 -0.6880636
H 1.6616867 1.3668497 1.0676512
H -0.80473626 1.5381205 0.96552914
H -0.7083868 1.0068907 -1.7846739
H -0.36252293 -5.2072406 0.44934088
