title
 OpenBabel02282109583D

 13 12  0  0  1  0  0  0  0  0999 V2000
    1.1769    3.0291    0.0131 O   0  0  0  0  0  0  0  0  0  0  0  0
    1.1790    1.6289    0.1086 C   0  0  0  0  0  0  0  0  0  0  0  0
   -0.2726    1.1033    0.1212 C   0  0  1  0  0  0  0  0  0  0  0  0
   -0.9722    1.5973   -1.0212 O   0  0  0  0  0  0  0  0  0  0  0  0
   -0.3244   -0.3518    0.2165 C   0  0  0  0  0  0  0  0  0  0  0  0
   -0.3253   -1.5595    0.2607 C   0  0  0  0  0  0  0  0  0  0  0  0
   -0.3368   -2.9239    0.3158 C   0  0  0  0  0  0  0  0  0  0  0  0
   -0.3443   -4.0845    0.3602 N   0  0  0  0  0  0  0  0  0  0  0  0
    0.5617    3.2502   -0.6982 H   0  0  0  0  0  0  0  0  0  0  0  0
    1.7191    1.1505   -0.7261 H   0  0  0  0  0  0  0  0  0  0  0  0
    1.6866    1.3551    1.0383 H   0  0  0  0  0  0  0  0  0  0  0  0
   -0.7863    1.5467    0.9821 H   0  0  0  0  0  0  0  0  0  0  0  0
   -0.6939    1.0834   -1.7892 H   0  0  0  0  0  0  0  0  0  0  0  0
  1  2  1  0  0  0  0
  2  3  1  0  0  0  0
  2 11  1  0  0  0  0
  3  5  1  0  0  0  0
  3 12  1  1  0  0  0
  4  3  1  0  0  0  0
  5  6  3  0  0  0  0
  6  7  1  0  0  0  0
  7  8  3  0  0  0  0
  9  1  1  0  0  0  0
 10  2  1  0  0  0  0
 13  4  1  0  0  0  0
M  END
