title
 OpenBabel02282109583D

 16 15  0  0  1  0  0  0  0  0999 V2000
   -0.7674    2.1134   -0.7361 C   0  0  0  0  0  0  0  0  0  0  0  0
   -0.8469    0.5726   -0.7201 C   0  0  1  0  0  0  0  0  0  0  0  0
   -0.2130   -0.0467   -1.9786 C   0  0  0  0  0  0  0  0  0  0  0  0
   -0.9502    0.4251   -3.0924 O   0  0  0  0  0  0  0  0  0  0  0  0
   -0.2346    0.0187    0.4808 C   0  0  0  0  0  0  0  0  0  0  0  0
    0.3003   -0.4429    1.4615 C   0  0  0  0  0  0  0  0  0  0  0  0
    0.9050   -0.9706    2.6561 C   0  0  0  0  0  0  0  0  0  0  0  0
    1.8223   -1.7600    2.6718 O   0  0  0  0  0  0  0  0  0  0  0  0
    0.2750    2.4444   -0.7020 H   0  0  0  0  0  0  0  0  0  0  0  0
   -1.2232    2.4867   -1.6546 H   0  0  0  0  0  0  0  0  0  0  0  0
   -1.2900    2.5391    0.1237 H   0  0  0  0  0  0  0  0  0  0  0  0
   -1.9072    0.2839   -0.7256 H   0  0  0  0  0  0  0  0  0  0  0  0
    0.8456    0.2501   -2.0326 H   0  0  0  0  0  0  0  0  0  0  0  0
   -0.2506   -1.1427   -1.9019 H   0  0  0  0  0  0  0  0  0  0  0  0
   -0.5409    0.0864   -3.8936 H   0  0  0  0  0  0  0  0  0  0  0  0
    0.4564   -0.5899    3.5966 H   0  0  0  0  0  0  0  0  0  0  0  0
  1  2  1  0  0  0  0
  1  9  1  0  0  0  0
  1 11  1  0  0  0  0
  2 12  1  1  0  0  0
  2  5  1  0  0  0  0
  3 14  1  0  0  0  0
  3  2  1  0  0  0  0
  4  3  1  0  0  0  0
  5  6  3  0  0  0  0
  6  7  1  0  0  0  0
  7  8  2  0  0  0  0
  7 16  1  0  0  0  0
 10  1  1  0  0  0  0
 13  3  1  0  0  0  0
 15  4  1  0  0  0  0
M  END
