title
 OpenBabel02282109583D

 18 17  0  0  1  0  0  0  0  0999 V2000
   -0.7381    3.2438    1.0923 C   0  0  0  0  0  0  0  0  0  0  0  0
   -0.6196    1.7215    0.9836 C   0  0  0  0  0  0  0  0  0  0  0  0
   -0.0029    1.2370   -0.3554 C   0  0  1  0  0  0  0  0  0  0  0  0
    1.4643    1.6801   -0.5389 C   0  0  0  0  0  0  0  0  0  0  0  0
   -0.1047   -0.2163   -0.4481 C   0  0  0  0  0  0  0  0  0  0  0  0
   -0.1670   -1.4230   -0.4872 C   0  0  0  0  0  0  0  0  0  0  0  0
   -0.2748   -2.8550   -0.5742 C   0  0  0  0  0  0  0  0  0  0  0  0
    0.3351   -3.6362    0.1207 O   0  0  0  0  0  0  0  0  0  0  0  0
    0.2389    3.7355    1.0879 H   0  0  0  0  0  0  0  0  0  0  0  0
   -1.3256    3.6569    0.2646 H   0  0  0  0  0  0  0  0  0  0  0  0
   -1.2394    3.5207    2.0244 H   0  0  0  0  0  0  0  0  0  0  0  0
   -0.0145    1.3272    1.8083 H   0  0  0  0  0  0  0  0  0  0  0  0
   -1.6125    1.2709    1.0867 H   0  0  0  0  0  0  0  0  0  0  0  0
   -0.5966    1.6716   -1.1724 H   0  0  0  0  0  0  0  0  0  0  0  0
    2.0857    1.2976    0.2761 H   0  0  0  0  0  0  0  0  0  0  0  0
    1.8694    1.3019   -1.4808 H   0  0  0  0  0  0  0  0  0  0  0  0
    1.5371    2.7704   -0.5513 H   0  0  0  0  0  0  0  0  0  0  0  0
   -0.9829   -3.2092   -1.3516 H   0  0  0  0  0  0  0  0  0  0  0  0
  1 11  1  0  0  0  0
  2 13  1  0  0  0  0
  2  1  1  0  0  0  0
  2 12  1  0  0  0  0
  3 14  1  6  0  0  0
  3  2  1  0  0  0  0
  4  3  1  0  0  0  0
  4 15  1  0  0  0  0
  5  3  1  0  0  0  0
  6  5  3  0  0  0  0
  7  6  1  0  0  0  0
  7  8  2  0  0  0  0
  9  1  1  0  0  0  0
 10  1  1  0  0  0  0
 16  4  1  0  0  0  0
 17  4  1  0  0  0  0
 18  7  1  0  0  0  0
M  END
