22
title
C 2.2570846 2.7433667 0.08609087
C 2.0975962 1.2212925 0.019051116
C 0.6399624 0.7280322 -0.0070948405
C -0.12239537 1.1999316 -1.2508773
C 0.6125149 -0.81756985 0.10661903
C -0.7253733 -1.3815311 0.25298122
C -1.8368007 -1.8276852 0.3830737
C -3.1749845 -2.380633 0.5411069
H 3.312265 3.021247 0.17233515
H 1.8605547 3.2366643 -0.80630744
H 1.7332041 3.1573098 0.9551794
H 2.6205256 0.8366322 -0.8680501
H 2.6029444 0.7743484 0.88526446
H 0.12967494 1.1263789 0.88082695
H -1.1364335 0.7911353 -1.2602252
H -0.19878826 2.2900083 -1.2899941
H 0.38269058 0.8666382 -2.1662474
H 1.0986156 -1.2469808 -0.7813566
H 1.2289892 -1.1222829 0.9628021
H -3.1846266 -3.200472 1.2682194
H -3.8821135 -1.6210641 0.89304227
H -3.5600324 -2.7754192 -0.40585455
