20
title
C -1.5822903 2.1091363 -0.08113606
O -1.3619229 0.7196321 -0.11071361
C -0.6893648 0.19934179 1.0252097
C -1.6477576 -0.014641924 2.1999664
C -0.04142047 -1.1243414 0.5806185
C 1.0161048 -0.9522572 -0.4083109
C 1.8997992 -0.8028417 -1.211959
C 2.9620721 -0.6262583 -2.1920643
H -0.6392282 2.667387 0.026505426
H -2.0439866 2.3811326 -1.0337876
H -2.258427 2.417084 0.7307827
H 0.11052894 0.8950033 1.3258544
H -2.428093 -0.7327785 1.9280577
H -1.1118019 -0.3965409 3.0748215
H -2.1328533 0.92117804 2.491015
H 0.35461426 -1.6356895 1.4670597
H -0.8363686 -1.7654238 0.17794508
H 2.9357245 -1.413171 -2.9542773
H 2.8705018 0.33532476 -2.709592
H 3.9518063 -0.655366 -1.722422
