title
 OpenBabel02282109583D

 21 20  0  0  1  0  0  0  0  0999 V2000
    2.2231    1.5827   -0.9528 C   0  0  0  0  0  0  0  0  0  0  0  0
    2.2047    0.0548   -0.8738 C   0  0  0  0  0  0  0  0  0  0  0  0
    0.7971   -0.5365   -0.8186 C   0  0  1  0  0  0  0  0  0  0  0  0
    0.7900   -2.0631   -0.8149 C   0  0  0  0  0  0  0  0  0  0  0  0
    0.1827   -0.0441    0.3867 O   0  0  0  0  0  0  0  0  0  0  0  0
   -1.1565    0.0899    0.3840 C   0  0  0  0  0  0  0  0  0  0  0  0
   -1.7817    0.3728    1.4384 N   0  0  0  0  0  0  0  0  0  0  0  0
   -3.2155    0.5403    1.3351 C   0  0  0  0  0  0  0  0  0  0  0  0
    3.2492    1.9609   -0.9770 H   0  0  0  0  0  0  0  0  0  0  0  0
    1.7157    1.9394   -1.8564 H   0  0  0  0  0  0  0  0  0  0  0  0
    1.7185    2.0205   -0.0878 H   0  0  0  0  0  0  0  0  0  0  0  0
    2.7168   -0.3762   -1.7422 H   0  0  0  0  0  0  0  0  0  0  0  0
    2.7523   -0.2831    0.0143 H   0  0  0  0  0  0  0  0  0  0  0  0
    0.2180   -0.1669   -1.6788 H   0  0  0  0  0  0  0  0  0  0  0  0
   -0.2318   -2.4504   -0.7600 H   0  0  0  0  0  0  0  0  0  0  0  0
    1.2534   -2.4516   -1.7272 H   0  0  0  0  0  0  0  0  0  0  0  0
    1.3453   -2.4433    0.0479 H   0  0  0  0  0  0  0  0  0  0  0  0
   -1.6258   -0.0495   -0.6042 H   0  0  0  0  0  0  0  0  0  0  0  0
   -3.4944    1.5505    1.6569 H   0  0  0  0  0  0  0  0  0  0  0  0
   -3.6156    0.3811    0.3195 H   0  0  0  0  0  0  0  0  0  0  0  0
   -3.7183   -0.1580    2.0143 H   0  0  0  0  0  0  0  0  0  0  0  0
  1  2  1  0  0  0  0
  1 11  1  0  0  0  0
  2  3  1  0  0  0  0
  2 13  1  0  0  0  0
  3 14  1  6  0  0  0
  3  4  1  0  0  0  0
  3  5  1  0  0  0  0
  4 15  1  0  0  0  0
  4 17  1  0  0  0  0
  6  5  1  0  0  0  0
  6  7  2  0  0  0  0
  8  7  1  0  0  0  0
  8 19  1  0  0  0  0
  8 21  1  0  0  0  0
  9  1  1  0  0  0  0
 10  1  1  0  0  0  0
 12  2  1  0  0  0  0
 16  4  1  0  0  0  0
 18  6  1  0  0  0  0
 20  8  1  0  0  0  0
M  END
