19
title
C -0.7509489 3.3414104 -1.2045873
N -0.67248476 1.896751 -1.2575887
C -0.10809687 1.3126075 -0.29845455
O 0.034651667 -0.027726851 -0.29411772
C 0.56262976 -0.63813704 0.90002066
C -0.54917747 -0.857402 1.9204566
C 1.2022804 -1.9403856 0.4151266
O 0.26336637 -2.7882462 -0.21281298
H -0.24621913 3.770387 -2.0778372
H -1.7997006 3.6548638 -1.2590374
H -0.3049446 3.7827582 -0.29784217
H 0.3222411 1.8163466 0.5821151
H 1.3477837 0.009314098 1.3165228
H -1.2892138 -1.5528371 1.5186431
H -0.13802752 -1.2807376 2.842396
H -1.045227 0.085033216 2.1694
H 2.0379758 -1.6941924 -0.2573006
H 1.6069602 -2.490354 1.2710283
H -0.12720653 -2.2767277 -0.9314739
