20
title
C -0.4755673 1.7257396 -0.9766445
C -0.37061846 0.19634272 -0.90042096
C 0.32771558 -0.35872465 -2.144151
O -0.44285032 -0.012651741 -3.2861874
C 0.35190624 -0.29809627 0.36293313
C -0.38772553 0.034618527 1.6757598
C 0.27826005 -0.51612914 2.8499327
C 0.8478263 -0.9819685 3.8006043
H 0.51699394 2.1873624 -0.90098995
H -0.9151473 2.0246043 -1.9305656
H -1.0965211 2.1353688 -0.17481957
H -1.3877686 -0.22131924 -0.9036253
H 1.3464783 0.059297018 -2.2104146
H 0.4265523 -1.4522918 -2.0538523
H 0.035950772 -0.29497868 -4.0703964
H 0.48061585 -1.3856224 0.3105273
H 1.3609936 0.13083765 0.4076595
H -0.47968924 1.1209307 1.7912278
H -1.4138039 -0.3533846 1.6227188
H 1.340931 -1.3880979 4.6484485
