title
 OpenBabel02282109583D

 18 17  0  0  1  0  0  0  0  0999 V2000
   -0.4457    1.8090    1.2433 C   0  0  0  0  0  0  0  0  0  0  0  0
   -0.4928    0.2854    1.1223 C   0  0  1  0  0  0  0  0  0  0  0  0
   -1.9244   -0.2461    1.0126 C   0  0  0  0  0  0  0  0  0  0  0  0
   -2.5698    0.2290   -0.1522 O   0  0  0  0  0  0  0  0  0  0  0  0
    0.1435   -0.1861   -0.0689 O   0  0  0  0  0  0  0  0  0  0  0  0
    1.5566   -0.1184   -0.0666 C   0  0  0  0  0  0  0  0  0  0  0  0
    2.0804   -0.7797   -1.2551 C   0  0  0  0  0  0  0  0  0  0  0  0
    2.5358   -1.3157   -2.2283 C   0  0  0  0  0  0  0  0  0  0  0  0
    0.5793    2.1897    1.2453 H   0  0  0  0  0  0  0  0  0  0  0  0
   -0.9933    2.2630    0.4142 H   0  0  0  0  0  0  0  0  0  0  0  0
   -0.9148    2.1232    2.1812 H   0  0  0  0  0  0  0  0  0  0  0  0
   -0.0093   -0.1780    1.9988 H   0  0  0  0  0  0  0  0  0  0  0  0
   -1.8936   -1.3461    1.0338 H   0  0  0  0  0  0  0  0  0  0  0  0
   -2.5158    0.0946    1.8688 H   0  0  0  0  0  0  0  0  0  0  0  0
   -1.9851    0.0045   -0.8862 H   0  0  0  0  0  0  0  0  0  0  0  0
    1.9087    0.9246   -0.0478 H   0  0  0  0  0  0  0  0  0  0  0  0
    1.9597   -0.6062    0.8371 H   0  0  0  0  0  0  0  0  0  0  0  0
    2.9347   -1.7922   -3.0895 H   0  0  0  0  0  0  0  0  0  0  0  0
  1  9  1  0  0  0  0
  1 11  1  0  0  0  0
  2  1  1  0  0  0  0
  2 12  1  1  0  0  0
  3 13  1  0  0  0  0
  3  2  1  0  0  0  0
  3 14  1  0  0  0  0
  4  3  1  0  0  0  0
  5  6  1  0  0  0  0
  5  2  1  0  0  0  0
  6 16  1  0  0  0  0
  6 17  1  0  0  0  0
  7  6  1  0  0  0  0
  8  7  3  0  0  0  0
 10  1  1  0  0  0  0
 15  4  1  0  0  0  0
 18  8  1  0  0  0  0
M  END
