22
title
C -1.0296379 3.0212433 1.5170863
C -0.8488131 1.5024818 1.4259343
C -0.06514032 1.0129505 0.19188131
C 1.3851405 1.5192266 0.19859327
C -0.14063556 -0.52225286 0.10460509
C 0.4134161 -1.1164216 -1.2080699
C 0.23156469 -2.5607038 -1.2908281
C 0.06862609 -3.751071 -1.332868
H -0.07639964 3.5446053 1.63755
H -1.5139341 3.4160957 0.61661255
H -1.6573498 3.2869573 2.3734422
H -0.3482979 1.1370827 2.33356
H -1.8392892 1.0300683 1.4170797
H -0.5645843 1.4228864 -0.69994414
H 1.931692 1.2088706 -0.6967155
H 1.4303392 2.611042 0.23723544
H 1.9269933 1.1321077 1.0703543
H 0.39702946 -0.96810275 0.95113486
H -1.1853961 -0.83776003 0.20486583
H -0.084591284 -0.6375268 -2.0620656
H 1.4801313 -0.88471085 -1.3105577
H -0.06936397 -4.8024826 -1.3817593
