21
title
C 1.7486448 3.0914977 0.10402225
C 1.6259491 1.5675098 0.0066678124
C 0.18003751 1.0352638 -0.050056152
C -0.5538286 1.5029268 -1.3157042
C 0.19301094 -0.49917406 0.076963544
C -1.2076064 -1.1253898 0.24361525
C -1.1466912 -2.5692036 0.4605957
N -1.0795325 -3.710282 0.63111955
H 2.7957573 3.3886416 0.21670052
H 1.3614942 3.5955217 -0.78645307
H 1.199908 3.4777315 0.9704826
H 2.1717436 1.2101067 -0.8775083
H 2.1273413 1.1180309 0.87308764
H -0.3550018 1.4378603 0.8240527
H -1.5954503 1.1684685 -1.3362633
H -0.57018864 2.59344 -1.3884795
H -0.06111907 1.1160417 -2.2160237
H 0.6780946 -0.9407951 -0.8021702
H 0.80090016 -0.78544444 0.94214284
H -1.7264658 -0.6694986 1.0955946
H -1.829414 -0.94054264 -0.6383073
