title
 OpenBabel02282109583D

 20 19  0  0  1  0  0  0  0  0999 V2000
    2.1936    1.6197   -0.9308 C   0  0  0  0  0  0  0  0  0  0  0  0
    2.1127    0.0919   -0.9313 C   0  0  0  0  0  0  0  0  0  0  0  0
    0.6776   -0.4573   -0.9624 C   0  0  1  0  0  0  0  0  0  0  0  0
    0.6701   -1.9803   -1.1764 C   0  0  0  0  0  0  0  0  0  0  0  0
   -0.0241   -0.0180    0.2523 N   0  0  0  0  0  0  0  0  0  0  0  0
   -1.4665   -0.2147    0.2394 C   0  0  0  0  0  0  0  0  0  0  0  0
   -2.0782    0.3416    1.4512 C   0  0  0  0  0  0  0  0  0  0  0  0
   -2.5603    0.7559    2.4156 N   0  0  0  0  0  0  0  0  0  0  0  0
    3.2320    1.9581   -0.8652 H   0  0  0  0  0  0  0  0  0  0  0  0
    1.7663    2.0361   -1.8501 H   0  0  0  0  0  0  0  0  0  0  0  0
    1.6386    2.0359   -0.0869 H   0  0  0  0  0  0  0  0  0  0  0  0
    2.6547   -0.3131   -1.7943 H   0  0  0  0  0  0  0  0  0  0  0  0
    2.6194   -0.3101   -0.0422 H   0  0  0  0  0  0  0  0  0  0  0  0
    0.1507    0.0150   -1.8044 H   0  0  0  0  0  0  0  0  0  0  0  0
    1.2094   -2.4865   -0.3667 H   0  0  0  0  0  0  0  0  0  0  0  0
   -0.3454   -2.3870   -1.2105 H   0  0  0  0  0  0  0  0  0  0  0  0
    1.1601   -2.2443   -2.1191 H   0  0  0  0  0  0  0  0  0  0  0  0
    0.3780   -0.4694    1.0688 H   0  0  0  0  0  0  0  0  0  0  0  0
   -1.8831    0.3139   -0.6273 H   0  0  0  0  0  0  0  0  0  0  0  0
   -1.8010   -1.2635    0.1535 H   0  0  0  0  0  0  0  0  0  0  0  0
  1  9  1  0  0  0  0
  1 11  1  0  0  0  0
  2  1  1  0  0  0  0
  2 13  1  0  0  0  0
  3 14  1  6  0  0  0
  3  2  1  0  0  0  0
  3  5  1  0  0  0  0
  4  3  1  0  0  0  0
  4 15  1  0  0  0  0
  5 18  1  0  0  0  0
  6  5  1  0  0  0  0
  6  7  1  0  0  0  0
  7  8  3  0  0  0  0
 10  1  1  0  0  0  0
 12  2  1  0  0  0  0
 16  4  1  0  0  0  0
 17  4  1  0  0  0  0
 19  6  1  0  0  0  0
 20  6  1  0  0  0  0
M  END
