title
 OpenBabel02282109583D

 20 19  0  0  1  0  0  0  0  0999 V2000
   -0.3301    1.5401    2.2428 C   0  0  0  0  0  0  0  0  0  0  0  0
   -0.1956    0.0161    2.2200 C   0  0  0  0  0  0  0  0  0  0  0  0
    0.5576   -0.5093    0.9967 C   0  0  1  0  0  0  0  0  0  0  0  0
    0.7607   -2.0258    1.0499 C   0  0  0  0  0  0  0  0  0  0  0  0
   -0.2046   -0.1205   -0.1463 O   0  0  0  0  0  0  0  0  0  0  0  0
    0.5148   -0.1206   -1.3625 C   0  0  0  0  0  0  0  0  0  0  0  0
   -0.3052    0.4600   -2.4191 C   0  0  0  0  0  0  0  0  0  0  0  0
   -0.9598    0.9318   -3.3085 C   0  0  0  0  0  0  0  0  0  0  0  0
    0.6528    2.0237    2.2828 H   0  0  0  0  0  0  0  0  0  0  0  0
   -0.8420    1.8924    1.3442 H   0  0  0  0  0  0  0  0  0  0  0  0
   -0.8990    1.8720    3.1165 H   0  0  0  0  0  0  0  0  0  0  0  0
    0.3260   -0.3328    3.1191 H   0  0  0  0  0  0  0  0  0  0  0  0
   -1.1894   -0.4487    2.2318 H   0  0  0  0  0  0  0  0  0  0  0  0
    1.5441   -0.0146    0.9472 H   0  0  0  0  0  0  0  0  0  0  0  0
    1.3055   -2.3965    0.1766 H   0  0  0  0  0  0  0  0  0  0  0  0
    1.3369   -2.3030    1.9384 H   0  0  0  0  0  0  0  0  0  0  0  0
   -0.2070   -2.5357    1.0908 H   0  0  0  0  0  0  0  0  0  0  0  0
    1.4470    0.4611   -1.2582 H   0  0  0  0  0  0  0  0  0  0  0  0
    0.8119   -1.1400   -1.6567 H   0  0  0  0  0  0  0  0  0  0  0  0
   -1.5434    1.3512   -4.0902 H   0  0  0  0  0  0  0  0  0  0  0  0
  1  9  1  0  0  0  0
  1 11  1  0  0  0  0
  2 13  1  0  0  0  0
  2  1  1  0  0  0  0
  2 12  1  0  0  0  0
  3 14  1  6  0  0  0
  3  4  1  0  0  0  0
  3  2  1  0  0  0  0
  4 17  1  0  0  0  0
  4 16  1  0  0  0  0
  5  3  1  0  0  0  0
  6 18  1  0  0  0  0
  6  5  1  0  0  0  0
  7  6  1  0  0  0  0
  8  7  3  0  0  0  0
 10  1  1  0  0  0  0
 15  4  1  0  0  0  0
 19  6  1  0  0  0  0
 20  8  1  0  0  0  0
M  END
