title
 OpenBabel02282109583D

 20 19  0  0  1  0  0  0  0  0999 V2000
   -0.8474    3.0431    1.5353 C   0  0  0  0  0  0  0  0  0  0  0  0
   -0.8864    1.5162    1.4387 C   0  0  0  0  0  0  0  0  0  0  0  0
   -0.1830    0.9713    0.1896 C   0  0  1  0  0  0  0  0  0  0  0  0
    1.1823    1.3886    0.1324 O   0  0  0  0  0  0  0  0  0  0  0  0
   -0.3033   -0.5528    0.0745 C   0  0  0  0  0  0  0  0  0  0  0  0
    0.3601   -1.1002   -1.2046 C   0  0  0  0  0  0  0  0  0  0  0  0
    0.3165   -2.5539   -1.2914 C   0  0  0  0  0  0  0  0  0  0  0  0
    0.2679   -3.7544   -1.3367 C   0  0  0  0  0  0  0  0  0  0  0  0
    0.1831    3.4056    1.4971 H   0  0  0  0  0  0  0  0  0  0  0  0
   -1.3905    3.5031    0.7023 H   0  0  0  0  0  0  0  0  0  0  0  0
   -1.3039    3.3934    2.4657 H   0  0  0  0  0  0  0  0  0  0  0  0
   -0.4128    1.0712    2.3266 H   0  0  0  0  0  0  0  0  0  0  0  0
   -1.9250    1.1628    1.4414 H   0  0  0  0  0  0  0  0  0  0  0  0
   -0.6371    1.4305   -0.6995 H   0  0  0  0  0  0  0  0  0  0  0  0
    1.6224    1.0475    0.9198 H   0  0  0  0  0  0  0  0  0  0  0  0
    0.1616   -1.0219    0.9521 H   0  0  0  0  0  0  0  0  0  0  0  0
   -1.3603   -0.8409    0.0932 H   0  0  0  0  0  0  0  0  0  0  0  0
   -0.1336   -0.6655   -2.0840 H   0  0  0  0  0  0  0  0  0  0  0  0
    1.3977   -0.7500   -1.2386 H   0  0  0  0  0  0  0  0  0  0  0  0
    0.2323   -4.8140   -1.3908 H   0  0  0  0  0  0  0  0  0  0  0  0
  1 11  1  0  0  0  0
  2 13  1  0  0  0  0
  2  1  1  0  0  0  0
  2 12  1  0  0  0  0
  3 14  1  6  0  0  0
  3  2  1  0  0  0  0
  4  3  1  0  0  0  0
  4 15  1  0  0  0  0
  5 17  1  0  0  0  0
  5  3  1  0  0  0  0
  5 16  1  0  0  0  0
  6  5  1  0  0  0  0
  7  6  1  0  0  0  0
  8  7  3  0  0  0  0
  9  1  1  0  0  0  0
 10  1  1  0  0  0  0
 18  6  1  0  0  0  0
 19  6  1  0  0  0  0
 20  8  1  0  0  0  0
M  END
