20
title
C 1.6368167 2.999115 0.0467491
C 1.5969495 1.4788841 -0.10872254
N 0.23799144 0.94019926 -0.21665078
C -0.42213944 1.3506229 -1.449841
C 0.2092155 -0.50524956 -0.04022292
C -1.1740913 -0.9864697 0.45111293
C -1.1952202 -2.4259942 0.69434416
N -1.1895645 -3.566208 0.8824782
H 2.6596427 3.3211868 0.26432177
H 1.3186808 3.521698 -0.8595691
H 0.9905157 3.316058 0.870581
H 2.2212083 1.1791 -0.97346026
H 2.0548055 1.0265917 0.77749556
H 0.10784267 0.99683744 -2.3549073
H -1.443054 0.961331 -1.4857131
H -0.49343708 2.438963 -1.4996978
H 0.4798065 -1.0546584 -0.9604205
H 0.94841737 -0.7785222 0.71782225
H -1.4298596 -0.45733303 1.3746848
H -1.9550946 -0.75043696 -0.2786861
