title
 OpenBabel02282109583D

 20 19  0  0  1  0  0  0  0  0999 V2000
   -1.3393    2.6192   -0.2288 C   0  0  0  0  0  0  0  0  0  0  0  0
   -1.0845    1.2369   -0.3134 O   0  0  0  0  0  0  0  0  0  0  0  0
   -0.5292    0.6523    0.8601 C   0  0  1  0  0  0  0  0  0  0  0  0
   -1.5786    0.4699    1.9601 C   0  0  0  0  0  0  0  0  0  0  0  0
    0.0834   -0.6826    0.4356 C   0  0  0  0  0  0  0  0  0  0  0  0
    1.1848   -0.5187   -0.6300 C   0  0  0  0  0  0  0  0  0  0  0  0
    1.7634   -1.7896   -1.0463 C   0  0  0  0  0  0  0  0  0  0  0  0
    2.2233   -2.8514   -1.3726 C   0  0  0  0  0  0  0  0  0  0  0  0
   -0.4362    3.1829    0.0543 H   0  0  0  0  0  0  0  0  0  0  0  0
   -1.6612    2.9477   -1.2203 H   0  0  0  0  0  0  0  0  0  0  0  0
   -2.1344    2.8619    0.4909 H   0  0  0  0  0  0  0  0  0  0  0  0
    0.2743    1.3105    1.2372 H   0  0  0  0  0  0  0  0  0  0  0  0
   -2.3924   -0.1699    1.6043 H   0  0  0  0  0  0  0  0  0  0  0  0
   -1.1305    0.0032    2.8429 H   0  0  0  0  0  0  0  0  0  0  0  0
   -2.0062    1.4264    2.2733 H   0  0  0  0  0  0  0  0  0  0  0  0
    0.4951   -1.1848    1.3172 H   0  0  0  0  0  0  0  0  0  0  0  0
   -0.7095   -1.3269    0.0396 H   0  0  0  0  0  0  0  0  0  0  0  0
    0.7594    0.0022   -1.4941 H   0  0  0  0  0  0  0  0  0  0  0  0
    1.9783    0.1321   -0.2383 H   0  0  0  0  0  0  0  0  0  0  0  0
    2.6368   -3.7823   -1.6714 H   0  0  0  0  0  0  0  0  0  0  0  0
  1  9  1  0  0  0  0
  1 11  1  0  0  0  0
  2  1  1  0  0  0  0
  2  3  1  0  0  0  0
  3 12  1  1  0  0  0
  3  4  1  0  0  0  0
  4 15  1  0  0  0  0
  4 14  1  0  0  0  0
  5  3  1  0  0  0  0
  5 16  1  0  0  0  0
  6 19  1  0  0  0  0
  6  5  1  0  0  0  0
  7  6  1  0  0  0  0
  8  7  3  0  0  0  0
 10  1  1  0  0  0  0
 13  4  1  0  0  0  0
 17  5  1  0  0  0  0
 18  6  1  0  0  0  0
 20  8  1  0  0  0  0
M  END
