19
title
C 0.4094912 2.636135 1.2794325
O 0.23892787 1.2503924 1.0832692
C 1.0111969 0.68945384 0.028872225
C 2.4879985 0.5460935 0.40479806
C 0.3798992 -0.66612464 -0.29346588
C -1.1012158 -0.5305409 -0.6951628
C -1.724621 -1.8191328 -0.9827746
N -2.202891 -2.846715 -1.208778
H 1.4158616 2.8918512 1.6392323
H 0.21894732 3.203187 0.35478988
H -0.31595632 2.9436388 2.036482
H 0.9284232 1.3421928 -0.85896623
H 3.0488563 0.086324774 -0.41484085
H 2.9454823 1.5167835 0.61401635
H 2.5932744 -0.08266429 1.2943721
H 0.94292635 -1.144851 -1.1005262
H 0.45843866 -1.3137438 0.5862218
H -1.6487586 -0.036883514 0.11263046
H -1.1983931 0.106947266 -1.5822834
