title
 OpenBabel02282109583D

 19 18  0  0  1  0  0  0  0  0999 V2000
    0.4095    2.6361    1.2794 C   0  0  0  0  0  0  0  0  0  0  0  0
    0.2389    1.2504    1.0833 O   0  0  0  0  0  0  0  0  0  0  0  0
    1.0112    0.6895    0.0289 C   0  0  1  0  0  0  0  0  0  0  0  0
    2.4880    0.5461    0.4048 C   0  0  0  0  0  0  0  0  0  0  0  0
    0.3799   -0.6661   -0.2935 C   0  0  0  0  0  0  0  0  0  0  0  0
   -1.1012   -0.5305   -0.6952 C   0  0  0  0  0  0  0  0  0  0  0  0
   -1.7246   -1.8191   -0.9828 C   0  0  0  0  0  0  0  0  0  0  0  0
   -2.2029   -2.8467   -1.2088 N   0  0  0  0  0  0  0  0  0  0  0  0
    1.4159    2.8919    1.6392 H   0  0  0  0  0  0  0  0  0  0  0  0
    0.2189    3.2032    0.3548 H   0  0  0  0  0  0  0  0  0  0  0  0
   -0.3160    2.9436    2.0365 H   0  0  0  0  0  0  0  0  0  0  0  0
    0.9284    1.3422   -0.8590 H   0  0  0  0  0  0  0  0  0  0  0  0
    3.0489    0.0863   -0.4148 H   0  0  0  0  0  0  0  0  0  0  0  0
    2.9455    1.5168    0.6140 H   0  0  0  0  0  0  0  0  0  0  0  0
    2.5933   -0.0827    1.2944 H   0  0  0  0  0  0  0  0  0  0  0  0
    0.9429   -1.1449   -1.1005 H   0  0  0  0  0  0  0  0  0  0  0  0
    0.4584   -1.3137    0.5862 H   0  0  0  0  0  0  0  0  0  0  0  0
   -1.6488   -0.0369    0.1126 H   0  0  0  0  0  0  0  0  0  0  0  0
   -1.1984    0.1069   -1.5823 H   0  0  0  0  0  0  0  0  0  0  0  0
  1  9  1  0  0  0  0
  1 11  1  0  0  0  0
  2  1  1  0  0  0  0
  3 12  1  6  0  0  0
  3  4  1  0  0  0  0
  3  2  1  0  0  0  0
  4 14  1  0  0  0  0
  4 15  1  0  0  0  0
  5  3  1  0  0  0  0
  5 17  1  0  0  0  0
  6  5  1  0  0  0  0
  6 18  1  0  0  0  0
  7  6  1  0  0  0  0
  8  7  3  0  0  0  0
 10  1  1  0  0  0  0
 13  4  1  0  0  0  0
 16  5  1  0  0  0  0
 19  6  1  0  0  0  0
M  END
