19
title
C -0.31557924 1.4772041 -0.67070365
C -0.44122106 -0.03784478 -0.86082095
C 0.23064977 -0.49563432 -2.1564753
O -0.44464526 0.11548296 -3.2452705
C 0.13774014 -0.8292615 0.32418483
N -0.5387538 -0.5570104 1.5818518
C 0.08181835 -0.020658152 2.6671145
O 1.2534502 0.2861241 2.728607
H 0.73408383 1.7660937 -0.5425006
H -0.71134937 2.0004866 -1.5434581
H -0.86147183 1.8126053 0.21513611
H -1.5070202 -0.29315174 -0.9577856
H 1.2959776 -0.21168259 -2.136744
H 0.18518096 -1.5946246 -2.2320702
H 0.03147874 -0.095963806 -4.053182
H 0.09029276 -1.9055928 0.11093873
H 1.187264 -0.56926644 0.4877798
H -1.521456 -0.7679389 1.6577648
H -0.62066704 0.10708869 3.5151238
