19
title
C 0.88456714 1.6066239 0.27962646
C 0.94328547 0.0758676 0.31634638
C 1.6967473 -0.43524617 1.5458289
O 3.0281446 0.04820457 1.4749624
C -0.4485579 -0.5489177 0.2702519
O -1.0657632 -0.18125282 -0.9650315
C -2.3908849 -0.39074004 -1.0646228
N -2.9859972 -0.17716499 -2.157205
H 1.8930634 2.0233305 0.30648696
H 0.3801173 1.9528475 -0.62497777
H 0.3343925 1.9949461 1.1462493
H 1.4899725 -0.2785427 -0.5667109
H 1.1935447 -0.08228795 2.4622378
H 1.6777833 -1.5374109 1.5642375
H 3.4905355 -0.22022721 2.2738445
H -0.38584858 -1.6442466 0.33376962
H -1.0593565 -0.19304317 1.1132321
H -2.8520434 -0.7391745 -0.12916663
H -3.9803092 -0.36770415 -2.0522215
