title
 OpenBabel02282109583D

 18 17  0  0  1  0  0  0  0  0999 V2000
    0.8133    1.4681    0.1286 C   0  0  0  0  0  0  0  0  0  0  0  0
    0.9533   -0.0512    0.2681 C   0  0  1  0  0  0  0  0  0  0  0  0
    1.7550   -0.4328    1.5149 C   0  0  0  0  0  0  0  0  0  0  0  0
    3.0584    0.1077    1.3775 O   0  0  0  0  0  0  0  0  0  0  0  0
   -0.4025   -0.7570    0.2993 C   0  0  0  0  0  0  0  0  0  0  0  0
   -1.0957   -0.5566   -0.9387 O   0  0  0  0  0  0  0  0  0  0  0  0
   -2.3214   -0.0026   -0.9095 C   0  0  0  0  0  0  0  0  0  0  0  0
   -2.9706    0.1854   -1.8936 O   0  0  0  0  0  0  0  0  0  0  0  0
    1.7990    1.9369    0.1344 H   0  0  0  0  0  0  0  0  0  0  0  0
    0.3073    1.7342   -0.8027 H   0  0  0  0  0  0  0  0  0  0  0  0
    0.2360    1.8866    0.9631 H   0  0  0  0  0  0  0  0  0  0  0  0
    1.5054   -0.4367   -0.5983 H   0  0  0  0  0  0  0  0  0  0  0  0
    1.2522   -0.0371    2.4139 H   0  0  0  0  0  0  0  0  0  0  0  0
    1.7905   -1.5301    1.6145 H   0  0  0  0  0  0  0  0  0  0  0  0
    3.5500   -0.0768    2.1828 H   0  0  0  0  0  0  0  0  0  0  0  0
   -0.2783   -1.8382    0.4249 H   0  0  0  0  0  0  0  0  0  0  0  0
   -1.0165   -0.3858    1.1324 H   0  0  0  0  0  0  0  0  0  0  0  0
   -2.6514    0.2537    0.1169 H   0  0  0  0  0  0  0  0  0  0  0  0
  1  9  1  0  0  0  0
  1  2  1  0  0  0  0
  1 11  1  0  0  0  0
  2 12  1  6  0  0  0
  2  5  1  0  0  0  0
  2  3  1  0  0  0  0
  3 14  1  0  0  0  0
  3 13  1  0  0  0  0
  4  3  1  0  0  0  0
  4 15  1  0  0  0  0
  5 16  1  0  0  0  0
  5 17  1  0  0  0  0
  6  7  1  0  0  0  0
  6  5  1  0  0  0  0
  7 18  1  0  0  0  0
  8  7  2  0  0  0  0
 10  1  1  0  0  0  0
M  END
