18
title
C 0.8132671 1.4680994 0.1286416
C 0.95329463 -0.051199246 0.26808536
C 1.7549802 -0.4328056 1.5149366
O 3.0583916 0.107679345 1.3774734
C -0.40247074 -0.75695235 0.29933542
O -1.0957335 -0.5566135 -0.9386689
C -2.3214462 -0.002567658 -0.9095138
O -2.9706166 0.18541214 -1.8935503
H 1.7989509 1.9368731 0.1343591
H 0.3072962 1.7342265 -0.8027422
H 0.23603617 1.8866327 0.9630707
H 1.505361 -0.43674743 -0.5983096
H 1.2522389 -0.037067752 2.4139218
H 1.7904763 -1.5301441 1.6144515
H 3.5499573 -0.07684103 2.182811
H -0.27825335 -1.8381758 0.42488444
H -1.0165335 -0.38579437 1.1323552
H -2.6514342 0.25370938 0.11688511
