title
 OpenBabel02282109583D

 22 21  0  0  1  0  0  0  0  0999 V2000
   -0.8383    3.0747    1.7408 C   0  0  0  0  0  0  0  0  0  0  0  0
   -0.7367    1.5523    1.6009 C   0  0  0  0  0  0  0  0  0  0  0  0
    0.0217    1.0641    0.3506 C   0  0  1  0  0  0  0  0  0  0  0  0
    1.4961    1.4913    0.3715 C   0  0  0  0  0  0  0  0  0  0  0  0
   -0.1336   -0.4637    0.2139 C   0  0  0  0  0  0  0  0  0  0  0  0
    0.3817   -1.0480   -1.1144 C   0  0  0  0  0  0  0  0  0  0  0  0
    0.2081   -2.5478   -1.1611 C   0  0  0  0  0  0  0  0  0  0  0  0
   -0.4117   -3.1505   -1.9992 O   0  0  0  0  0  0  0  0  0  0  0  0
    0.1410    3.5430    1.8769 H   0  0  0  0  0  0  0  0  0  0  0  0
   -1.3014    3.5226    0.8542 H   0  0  0  0  0  0  0  0  0  0  0  0
   -1.4517    3.3448    2.6060 H   0  0  0  0  0  0  0  0  0  0  0  0
   -0.2568    1.1323    2.4960 H   0  0  0  0  0  0  0  0  0  0  0  0
   -1.7505    1.1329    1.5772 H   0  0  0  0  0  0  0  0  0  0  0  0
   -0.4552    1.5257   -0.5272 H   0  0  0  0  0  0  0  0  0  0  0  0
    2.0246    1.1846   -0.5359 H   0  0  0  0  0  0  0  0  0  0  0  0
    1.5979    2.5772    0.4473 H   0  0  0  0  0  0  0  0  0  0  0  0
    2.0173    1.0469    1.2286 H   0  0  0  0  0  0  0  0  0  0  0  0
    0.3812   -0.9544    1.0522 H   0  0  0  0  0  0  0  0  0  0  0  0
   -1.1957   -0.7196    0.3156 H   0  0  0  0  0  0  0  0  0  0  0  0
   -0.1357   -0.6095   -1.9731 H   0  0  0  0  0  0  0  0  0  0  0  0
    1.4560   -0.8441   -1.2201 H   0  0  0  0  0  0  0  0  0  0  0  0
    0.7089   -3.0894   -0.3228 H   0  0  0  0  0  0  0  0  0  0  0  0
  1  9  1  0  0  0  0
  1 11  1  0  0  0  0
  2  1  1  0  0  0  0
  2 12  1  0  0  0  0
  3 14  1  6  0  0  0
  3  4  1  0  0  0  0
  3  2  1  0  0  0  0
  4 16  1  0  0  0  0
  4 17  1  0  0  0  0
  5 19  1  0  0  0  0
  5  3  1  0  0  0  0
  5 18  1  0  0  0  0
  6  5  1  0  0  0  0
  7  6  1  0  0  0  0
  7 22  1  0  0  0  0
  8  7  2  0  0  0  0
 10  1  1  0  0  0  0
 13  2  1  0  0  0  0
 15  4  1  0  0  0  0
 20  6  1  0  0  0  0
 21  6  1  0  0  0  0
M  END
