21
title
C -0.7357363 3.06713 1.515498
C -0.9693436 1.566302 1.3173453
C -0.25257507 0.9600023 0.09668266
C 1.274898 1.0261823 0.2140181
C -0.7372291 -0.48793474 -0.10837174
N -0.24220712 -1.106617 -1.3281872
C 0.572379 -2.1958153 -1.3435276
O 0.98857546 -2.778751 -0.36484325
H 0.31483814 3.2948914 1.7180471
H -1.0338978 3.6345077 0.6264422
H -1.3209383 3.443683 2.3601332
H -0.65467596 1.023325 2.2191327
H -2.0479517 1.386577 1.2171004
H -0.55666864 1.5397894 -0.78961515
H 1.7566211 0.55683804 -0.6481793
H 1.6301317 2.0587292 0.2702031
H 1.6185248 0.49991265 1.1119133
H -0.39673147 -1.1258373 0.71192545
H -1.834768 -0.5089419 -0.112536795
H -0.5210711 -0.7173085 -2.2151017
H 0.821375 -2.5029056 -2.3794837
