title
 OpenBabel02282109583D

 21 20  0  0  1  0  0  0  0  0999 V2000
   -0.7357    3.0671    1.5155 C   0  0  0  0  0  0  0  0  0  0  0  0
   -0.9693    1.5663    1.3173 C   0  0  0  0  0  0  0  0  0  0  0  0
   -0.2526    0.9600    0.0967 C   0  0  1  0  0  0  0  0  0  0  0  0
    1.2749    1.0262    0.2140 C   0  0  0  0  0  0  0  0  0  0  0  0
   -0.7372   -0.4879   -0.1084 C   0  0  0  0  0  0  0  0  0  0  0  0
   -0.2422   -1.1066   -1.3282 N   0  0  0  0  0  0  0  0  0  0  0  0
    0.5724   -2.1958   -1.3435 C   0  0  0  0  0  0  0  0  0  0  0  0
    0.9886   -2.7788   -0.3648 O   0  0  0  0  0  0  0  0  0  0  0  0
    0.3148    3.2949    1.7180 H   0  0  0  0  0  0  0  0  0  0  0  0
   -1.0339    3.6345    0.6264 H   0  0  0  0  0  0  0  0  0  0  0  0
   -1.3209    3.4437    2.3601 H   0  0  0  0  0  0  0  0  0  0  0  0
   -0.6547    1.0233    2.2191 H   0  0  0  0  0  0  0  0  0  0  0  0
   -2.0480    1.3866    1.2171 H   0  0  0  0  0  0  0  0  0  0  0  0
   -0.5567    1.5398   -0.7896 H   0  0  0  0  0  0  0  0  0  0  0  0
    1.7566    0.5568   -0.6482 H   0  0  0  0  0  0  0  0  0  0  0  0
    1.6301    2.0587    0.2702 H   0  0  0  0  0  0  0  0  0  0  0  0
    1.6185    0.4999    1.1119 H   0  0  0  0  0  0  0  0  0  0  0  0
   -0.3967   -1.1258    0.7119 H   0  0  0  0  0  0  0  0  0  0  0  0
   -1.8348   -0.5089   -0.1125 H   0  0  0  0  0  0  0  0  0  0  0  0
   -0.5211   -0.7173   -2.2151 H   0  0  0  0  0  0  0  0  0  0  0  0
    0.8214   -2.5029   -2.3795 H   0  0  0  0  0  0  0  0  0  0  0  0
  1  9  1  0  0  0  0
  1 11  1  0  0  0  0
  2  1  1  0  0  0  0
  2 12  1  0  0  0  0
  3 14  1  6  0  0  0
  3  4  1  0  0  0  0
  3  2  1  0  0  0  0
  4 16  1  0  0  0  0
  4 17  1  0  0  0  0
  5  3  1  0  0  0  0
  5 18  1  0  0  0  0
  6  5  1  0  0  0  0
  7  6  1  0  0  0  0
  7  8  2  0  0  0  0
 10  1  1  0  0  0  0
 13  2  1  0  0  0  0
 15  4  1  0  0  0  0
 19  5  1  0  0  0  0
 20  6  1  0  0  0  0
 21  7  1  0  0  0  0
M  END
