20
title
C 1.8565019 3.0826306 -0.06729076
C 1.8265814 1.5543491 0.032014463
C 0.411454 0.9489172 0.0898475
C -0.3920786 1.1783966 -1.1960096
C 0.5197766 -0.54223704 0.41505724
O -0.78046775 -1.1020694 0.6472503
C -1.1312404 -2.2172887 -0.016997501
O -2.1832502 -2.7606359 0.13817814
H 2.886015 3.4524217 -0.043717604
H 1.4006655 3.44184 -0.9945252
H 1.3185204 3.5426457 0.76887536
H 2.36833 1.1214424 -0.82053953
H 2.3790643 1.2482744 0.93012094
H -0.12757191 1.4173932 0.92484444
H 0.12609294 0.750411 -2.0634136
H -1.3797839 0.7152453 -1.1276169
H -0.54085207 2.243564 -1.3903736
H 1.0157509 -1.0823033 -0.4040576
H 1.1069314 -0.69570947 1.327128
H -0.34425828 -2.5657816 -0.7152041
