20
title
C 2.3474627 1.4251189 -0.85604876
C 2.1960638 -0.09721168 -0.88950264
C 0.74138266 -0.56618416 -0.94152635
C 0.6276348 -2.086245 -1.0747874
O 0.11550859 -0.096563764 0.25335786
C -1.2863216 -0.07832285 0.24120899
C -1.7593455 0.69454426 1.4615378
O -2.9130714 0.7921619 1.7841873
H 3.400893 1.7140564 -0.79608285
H 1.9273977 1.8850039 -1.7578423
H 1.8276795 1.8450536 0.00839176
H 2.7183557 -0.50981194 -1.7607526
H 2.6651032 -0.541236 -0.002620079
H 0.24305227 -0.09010384 -1.8044285
H 1.1063648 -2.578974 -0.22253273
H -0.41500852 -2.414133 -1.1190441
H 1.1190404 -2.4256847 -1.9918244
H -1.6824551 0.42454925 -0.65877235
H -1.7357938 -1.0829756 0.27023098
H -0.9324202 1.1735846 2.0310981
