title
 OpenBabel02282109583D

 20 19  0  0  1  0  0  0  0  0999 V2000
   -0.6753    3.1110    1.7262 C   0  0  0  0  0  0  0  0  0  0  0  0
   -0.7841    1.5892    1.6022 C   0  0  0  0  0  0  0  0  0  0  0  0
   -0.1275    1.0375    0.3312 C   0  0  1  0  0  0  0  0  0  0  0  0
    1.2525    1.3930    0.2546 O   0  0  0  0  0  0  0  0  0  0  0  0
   -0.3148   -0.4811    0.1934 C   0  0  0  0  0  0  0  0  0  0  0  0
    0.2871   -1.0340   -1.1086 C   0  0  0  0  0  0  0  0  0  0  0  0
    0.3352   -2.5416   -1.1180 C   0  0  0  0  0  0  0  0  0  0  0  0
   -0.1473   -3.2502   -1.9634 O   0  0  0  0  0  0  0  0  0  0  0  0
    0.3695    3.4289    1.6812 H   0  0  0  0  0  0  0  0  0  0  0  0
   -1.2079    3.6102    0.9095 H   0  0  0  0  0  0  0  0  0  0  0  0
   -1.1040    3.4627    2.6691 H   0  0  0  0  0  0  0  0  0  0  0  0
   -0.3169    1.1066    2.4739 H   0  0  0  0  0  0  0  0  0  0  0  0
   -1.8374    1.2833    1.6162 H   0  0  0  0  0  0  0  0  0  0  0  0
   -0.5780    1.5280   -0.5420 H   0  0  0  0  0  0  0  0  0  0  0  0
    1.6844    1.0574    1.0491 H   0  0  0  0  0  0  0  0  0  0  0  0
    0.1561   -0.9724    1.0584 H   0  0  0  0  0  0  0  0  0  0  0  0
   -1.3832   -0.7220    0.2453 H   0  0  0  0  0  0  0  0  0  0  0  0
   -0.2686   -0.6932   -1.9871 H   0  0  0  0  0  0  0  0  0  0  0  0
    1.3169   -0.6595   -1.1879 H   0  0  0  0  0  0  0  0  0  0  0  0
    0.8727   -2.9831   -0.2436 H   0  0  0  0  0  0  0  0  0  0  0  0
  1 11  1  0  0  0  0
  2 13  1  0  0  0  0
  2  1  1  0  0  0  0
  2 12  1  0  0  0  0
  3 14  1  6  0  0  0
  3  2  1  0  0  0  0
  4  3  1  0  0  0  0
  4 15  1  0  0  0  0
  5 17  1  0  0  0  0
  5  3  1  0  0  0  0
  5 16  1  0  0  0  0
  6  5  1  0  0  0  0
  7  6  1  0  0  0  0
  7 20  1  0  0  0  0
  8  7  2  0  0  0  0
  9  1  1  0  0  0  0
 10  1  1  0  0  0  0
 18  6  1  0  0  0  0
 19  6  1  0  0  0  0
M  END
