19
title
C -1.080861 3.0165253 1.2803286
C -0.8181765 1.5168184 1.4383367
C -0.12308482 0.8954096 0.22546816
O 1.1399623 1.5131062 -0.047849055
C 0.05692502 -0.61901057 0.3696041
N 0.7686701 -1.1531428 -0.7747154
C 0.40555838 -2.2934768 -1.4139483
O -0.5028004 -3.0260556 -1.0795002
H -0.15142034 3.5544102 1.0753468
H -1.7650142 3.2089684 0.4470085
H -1.5295168 3.4357815 2.1853826
H -0.19884865 1.3349239 2.329433
H -1.7606765 0.98313195 1.6119831
H -0.7159344 1.0895683 -0.6768892
H 1.6599821 1.4835874 0.76433486
H 0.60237 -0.8337797 1.302251
H -0.9054345 -1.1330858 0.43012547
H 1.5073608 -0.5787698 -1.1514418
H 1.0469208 -2.4902878 -2.2961733
