20
title
C 0.5469274 2.621642 1.3731283
O 0.43112797 1.2306882 1.1808764
C 1.072536 0.7276202 0.01493323
C 2.5889804 0.62553036 0.19763923
C 0.44266886 -0.6385166 -0.27125096
C -1.0686915 -0.5543216 -0.53768003
C -1.7132931 -1.9170921 -0.59003973
O -2.3838913 -2.3364544 -1.4982872
H 1.5807157 2.9376626 1.5737897
H 0.17807281 3.1841643 0.501196
H -0.06580608 2.877612 2.2411463
H 0.8562776 1.4037033 -0.83079815
H 3.058887 0.22820094 -0.7075056
H 3.0361426 1.6026686 0.40026706
H 2.8263662 -0.039856523 1.0338206
H 0.95218134 -1.0917823 -1.1288514
H 0.63111484 -1.287776 0.5936542
H -1.5233063 0.0011712614 0.29330474
H -1.2892909 -0.02518031 -1.469665
H -1.5189673 -2.5452626 0.3125795
