19
title
C 0.54885966 2.7650223 -0.7643638
O 0.79034716 1.3762449 -0.7199187
C -0.3708264 0.5578282 -0.8457031
C -0.8886979 0.49597496 -2.282516
C 0.043900874 -0.8230944 -0.33746383
N 0.5659907 -0.75311977 1.0126661
C 0.08284381 -1.4957744 2.0407698
O -0.79181486 -2.3332555 1.9545094
H 1.498177 3.2631426 -0.55193335
H 0.19500032 3.1002839 -1.7492642
H -0.19047311 3.0722024 -0.008563431
H -1.1582918 0.95347786 -0.18302181
H -1.1997795 1.4807051 -2.64095
H -0.11096558 0.11673516 -2.9527898
H -1.7564397 -0.16815227 -2.3451276
H -0.81041473 -1.5022722 -0.31866464
H 0.7989294 -1.2385136 -1.0181646
H 1.2587681 -0.04376394 1.1930627
H 0.5916731 -1.2519137 2.9948356
