title
 OpenBabel02282109583D

 19 18  0  0  1  0  0  0  0  0999 V2000
    0.5489    2.7650   -0.7644 C   0  0  0  0  0  0  0  0  0  0  0  0
    0.7903    1.3762   -0.7199 O   0  0  0  0  0  0  0  0  0  0  0  0
   -0.3708    0.5578   -0.8457 C   0  0  1  0  0  0  0  0  0  0  0  0
   -0.8887    0.4960   -2.2825 C   0  0  0  0  0  0  0  0  0  0  0  0
    0.0439   -0.8231   -0.3375 C   0  0  0  0  0  0  0  0  0  0  0  0
    0.5660   -0.7531    1.0127 N   0  0  0  0  0  0  0  0  0  0  0  0
    0.0828   -1.4958    2.0408 C   0  0  0  0  0  0  0  0  0  0  0  0
   -0.7918   -2.3333    1.9545 O   0  0  0  0  0  0  0  0  0  0  0  0
    1.4982    3.2631   -0.5519 H   0  0  0  0  0  0  0  0  0  0  0  0
    0.1950    3.1003   -1.7493 H   0  0  0  0  0  0  0  0  0  0  0  0
   -0.1905    3.0722   -0.0086 H   0  0  0  0  0  0  0  0  0  0  0  0
   -1.1583    0.9535   -0.1830 H   0  0  0  0  0  0  0  0  0  0  0  0
   -1.1998    1.4807   -2.6410 H   0  0  0  0  0  0  0  0  0  0  0  0
   -0.1110    0.1167   -2.9528 H   0  0  0  0  0  0  0  0  0  0  0  0
   -1.7564   -0.1682   -2.3451 H   0  0  0  0  0  0  0  0  0  0  0  0
   -0.8104   -1.5023   -0.3187 H   0  0  0  0  0  0  0  0  0  0  0  0
    0.7989   -1.2385   -1.0182 H   0  0  0  0  0  0  0  0  0  0  0  0
    1.2588   -0.0438    1.1931 H   0  0  0  0  0  0  0  0  0  0  0  0
    0.5917   -1.2519    2.9948 H   0  0  0  0  0  0  0  0  0  0  0  0
  1  2  1  0  0  0  0
  1  9  1  0  0  0  0
  1 11  1  0  0  0  0
  3  2  1  0  0  0  0
  3  5  1  0  0  0  0
  3 12  1  1  0  0  0
  4  3  1  0  0  0  0
  5 16  1  0  0  0  0
  5  6  1  0  0  0  0
  6 18  1  0  0  0  0
  6  7  1  0  0  0  0
  7 19  1  0  0  0  0
  8  7  2  0  0  0  0
 10  1  1  0  0  0  0
 13  4  1  0  0  0  0
 14  4  1  0  0  0  0
 15  4  1  0  0  0  0
 17  5  1  0  0  0  0
M  END
