title
 OpenBabel02282109583D

 19 18  0  0  1  0  0  0  0  0999 V2000
    0.9692    2.5679   -0.1765 C   0  0  0  0  0  0  0  0  0  0  0  0
    0.5577    1.2802    0.2231 O   0  0  0  0  0  0  0  0  0  0  0  0
   -0.8310    1.0145    0.0875 C   0  0  1  0  0  0  0  0  0  0  0  0
   -1.2916    0.9416   -1.3701 C   0  0  0  0  0  0  0  0  0  0  0  0
   -1.0812   -0.2917    0.8417 C   0  0  0  0  0  0  0  0  0  0  0  0
   -0.5254   -1.4224    0.1801 O   0  0  0  0  0  0  0  0  0  0  0  0
    0.7688   -1.7127    0.4369 C   0  0  0  0  0  0  0  0  0  0  0  0
    1.3415   -2.6305   -0.2129 N   0  0  0  0  0  0  0  0  0  0  0  0
    2.0162    2.6737    0.1179 H   0  0  0  0  0  0  0  0  0  0  0  0
    0.8969    2.7180   -1.2622 H   0  0  0  0  0  0  0  0  0  0  0  0
    0.3802    3.3532    0.3229 H   0  0  0  0  0  0  0  0  0  0  0  0
   -1.4029    1.8009    0.6128 H   0  0  0  0  0  0  0  0  0  0  0  0
   -2.3614    0.7142   -1.4146 H   0  0  0  0  0  0  0  0  0  0  0  0
   -1.1347    1.8922   -1.8858 H   0  0  0  0  0  0  0  0  0  0  0  0
   -0.7497    0.1556   -1.9005 H   0  0  0  0  0  0  0  0  0  0  0  0
   -0.6783   -0.2037    1.8584 H   0  0  0  0  0  0  0  0  0  0  0  0
   -2.1560   -0.4811    0.9072 H   0  0  0  0  0  0  0  0  0  0  0  0
    1.2050   -1.0968    1.2317 H   0  0  0  0  0  0  0  0  0  0  0  0
    2.2969   -2.7406    0.1207 H   0  0  0  0  0  0  0  0  0  0  0  0
  1  9  1  0  0  0  0
  1  2  1  0  0  0  0
  1 11  1  0  0  0  0
  3  2  1  0  0  0  0
  3 12  1  1  0  0  0
  3  5  1  0  0  0  0
  4  3  1  0  0  0  0
  5 17  1  0  0  0  0
  5 16  1  0  0  0  0
  6  7  1  0  0  0  0
  6  5  1  0  0  0  0
  7 18  1  0  0  0  0
  8 19  1  0  0  0  0
  8  7  2  0  0  0  0
 10  1  1  0  0  0  0
 13  4  1  0  0  0  0
 14  4  1  0  0  0  0
 15  4  1  0  0  0  0
M  END
