19
title
C 0.96919245 2.5679262 -0.17647485
O 0.55767053 1.2801886 0.22312078
C -0.8310194 1.0144706 0.08747495
C -1.2915562 0.9416304 -1.3701144
C -1.0811739 -0.2916708 0.84172416
O -0.52541816 -1.4223838 0.18007384
C 0.7688127 -1.7126687 0.43694517
N 1.3414961 -2.6304576 -0.21286565
H 2.0162299 2.6737483 0.11793176
H 0.8969131 2.7179668 -1.2621526
H 0.38015383 3.3531828 0.3229473
H -1.4028591 1.800908 0.6128186
H -2.3613756 0.7142141 -1.414634
H -1.1346833 1.8921754 -1.8857522
H -0.74969995 0.1555563 -1.9005426
H -0.67828834 -0.20368494 1.8584408
H -2.1560478 -0.48112702 0.9071734
H 1.2049729 -1.0968075 1.2316531
H 2.2969015 -2.7405803 0.12067285
