title
 OpenBabel02282109583D

 18 17  0  0  1  0  0  0  0  0999 V2000
    0.8726    2.5943   -0.1834 C   0  0  0  0  0  0  0  0  0  0  0  0
    0.4873    1.2914    0.1958 O   0  0  0  0  0  0  0  0  0  0  0  0
   -0.8938    0.9968    0.0572 C   0  0  1  0  0  0  0  0  0  0  0  0
   -1.3530    0.9255   -1.4010 C   0  0  0  0  0  0  0  0  0  0  0  0
   -1.1012   -0.3222    0.7997 C   0  0  0  0  0  0  0  0  0  0  0  0
   -0.4466   -1.4076    0.1388 O   0  0  0  0  0  0  0  0  0  0  0  0
    0.8301   -1.6724    0.4940 C   0  0  0  0  0  0  0  0  0  0  0  0
    1.4876   -2.4983   -0.0633 O   0  0  0  0  0  0  0  0  0  0  0  0
    1.9203    2.7115    0.1031 H   0  0  0  0  0  0  0  0  0  0  0  0
    0.7868    2.7622   -1.2653 H   0  0  0  0  0  0  0  0  0  0  0  0
    0.2749    3.3589    0.3368 H   0  0  0  0  0  0  0  0  0  0  0  0
   -1.4865    1.7617    0.5903 H   0  0  0  0  0  0  0  0  0  0  0  0
   -1.2166    1.8838   -1.9080 H   0  0  0  0  0  0  0  0  0  0  0  0
   -0.7923    0.1577   -1.9387 H   0  0  0  0  0  0  0  0  0  0  0  0
   -2.4176    0.6755   -1.4486 H   0  0  0  0  0  0  0  0  0  0  0  0
   -0.7301   -0.2235    1.8265 H   0  0  0  0  0  0  0  0  0  0  0  0
   -2.1625   -0.5803    0.8316 H   0  0  0  0  0  0  0  0  0  0  0  0
    1.1732   -1.0622    1.3481 H   0  0  0  0  0  0  0  0  0  0  0  0
  1  9  1  0  0  0  0
  1  2  1  0  0  0  0
  1 11  1  0  0  0  0
  3  2  1  0  0  0  0
  3 12  1  1  0  0  0
  3  5  1  0  0  0  0
  4  3  1  0  0  0  0
  5 17  1  0  0  0  0
  5 16  1  0  0  0  0
  6  7  1  0  0  0  0
  6  5  1  0  0  0  0
  7 18  1  0  0  0  0
  8  7  2  0  0  0  0
 10  1  1  0  0  0  0
 13  4  1  0  0  0  0
 14  4  1  0  0  0  0
 15  4  1  0  0  0  0
M  END
