18
title
C 0.8725865 2.594272 -0.18335894
O 0.4872747 1.291408 0.19578326
C -0.8937937 0.9967792 0.057208333
C -1.3530143 0.92554706 -1.4010025
C -1.1012316 -0.32219228 0.7996671
O -0.4466012 -1.4075814 0.13881314
C 0.8300655 -1.6723937 0.49395278
O 1.487578 -2.4982743 -0.06325408
H 1.9203174 2.711468 0.10312463
H 0.78684163 2.7621734 -1.2652638
H 0.27486315 3.3588572 0.3368294
H -1.4864897 1.7617016 0.5903201
H -1.2166307 1.8837718 -1.9079823
H -0.7923138 0.15770902 -1.9386653
H -2.4176447 0.67552197 -1.4486061
H -0.7301254 -0.22352432 1.8265293
H -2.1625323 -0.58033574 0.83160377
H 1.1731738 -1.0622405 1.3480642
