18
title
O 2.01945 2.0492911 0.71853906
C 1.5033398 1.844333 -0.5852955
C 0.15056592 1.1167321 -0.5928229
O -0.35580045 1.034987 -1.9201851
C 0.22686404 -0.25431526 0.08583722
C -1.1457099 -0.93616676 0.19589368
C -1.0335902 -2.3746908 0.6383224
O -1.6055986 -2.8602378 1.57976
H 1.4791998 2.7184157 1.1509448
H 1.399125 2.7849472 -1.1443504
H 2.248462 1.231363 -1.1097486
H -0.5799406 1.7397118 -0.057868622
H 0.2646578 0.51163125 -2.4409316
H 0.9137381 -0.8902159 -0.49388856
H 0.68142796 -0.12997925 1.0738086
H -1.8064905 -0.4067136 0.8886713
H -1.6135005 -0.92450047 -0.7986459
H -0.3508765 -2.9922836 0.005596943
