17
title
O 1.615118 2.854441 0.2293345
C 1.6566709 1.4695137 -0.031425152
C 0.25952294 0.8557885 0.041935153
O -0.6243229 1.5716223 -0.83680385
C 0.23369113 -0.6395341 -0.26286876
N -1.1239989 -1.1453367 -0.20697078
C -1.4474046 -2.3337264 0.3662506
O -0.6529336 -3.1163194 0.84357053
H 0.8321423 3.1860793 -0.22838612
H 2.0926344 1.2565622 -1.0258008
H 2.3134308 1.0113435 0.71581125
H -0.15388772 1.0333362 1.0405124
H -0.3080822 1.437938 -1.7398655
H 0.67836803 -0.8213185 -1.2543515
H 0.82556015 -1.2032276 0.46305266
H -1.8539422 -0.53892505 -0.54804856
H -2.540399 -2.5138118 0.3486058
