title
 OpenBabel02282109583D

 17 16  0  0  1  0  0  0  0  0999 V2000
    1.0020    2.6599    0.6073 O   0  0  0  0  0  0  0  0  0  0  0  0
    1.0985    1.2577    0.4938 C   0  0  0  0  0  0  0  0  0  0  0  0
    0.1923    0.7388   -0.6218 C   0  0  1  0  0  0  0  0  0  0  0  0
    0.5052    1.3970   -1.8507 O   0  0  0  0  0  0  0  0  0  0  0  0
    0.2578   -0.7787   -0.8086 C   0  0  0  0  0  0  0  0  0  0  0  0
   -0.1068   -1.4666    0.3822 O   0  0  0  0  0  0  0  0  0  0  0  0
   -1.3841   -1.8935    0.4866 C   0  0  0  0  0  0  0  0  0  0  0  0
   -1.7905   -2.4032    1.5649 N   0  0  0  0  0  0  0  0  0  0  0  0
    1.0022    2.9998   -0.2964 H   0  0  0  0  0  0  0  0  0  0  0  0
    2.1371    0.9360    0.2839 H   0  0  0  0  0  0  0  0  0  0  0  0
    0.8102    0.8208    1.4536 H   0  0  0  0  0  0  0  0  0  0  0  0
   -0.8397    1.0341   -0.3996 H   0  0  0  0  0  0  0  0  0  0  0  0
    1.4056    1.1511   -2.0981 H   0  0  0  0  0  0  0  0  0  0  0  0
   -0.3833   -1.0707   -1.6496 H   0  0  0  0  0  0  0  0  0  0  0  0
    1.2840   -1.0884   -1.0414 H   0  0  0  0  0  0  0  0  0  0  0  0
   -1.9641   -1.7571   -0.4374 H   0  0  0  0  0  0  0  0  0  0  0  0
   -2.7614   -2.6931    1.4700 H   0  0  0  0  0  0  0  0  0  0  0  0
  2  1  1  0  0  0  0
  2 11  1  0  0  0  0
  3 12  1  1  0  0  0
  3  2  1  0  0  0  0
  4  3  1  0  0  0  0
  5  3  1  0  0  0  0
  5  6  1  0  0  0  0
  6  7  1  0  0  0  0
  7  8  2  0  0  0  0
  9  1  1  0  0  0  0
 10  2  1  0  0  0  0
 13  4  1  0  0  0  0
 14  5  1  0  0  0  0
 15  5  1  0  0  0  0
 16  7  1  0  0  0  0
 17  8  1  0  0  0  0
M  END
