16
title
O 1.5720115 2.869716 -0.13200046
C 1.8155794 1.4828686 -0.09664386
C 0.5306975 0.7119401 0.21470203
O -0.49245888 1.0856827 -0.7096588
C 0.735241 -0.79978234 0.24234778
O -0.43048602 -1.4640803 0.72556955
C -1.346459 -1.867037 -0.17990135
O -2.3930314 -2.3446515 0.13250874
H 0.717079 2.9788008 -0.5682537
H 2.2328458 1.1199901 -1.0556666
H 2.570268 1.2987466 0.6757741
H 0.15033275 1.0321249 1.1902229
H -0.20407134 0.834067 -1.5963006
H 1.000205 -1.170594 -0.75889874
H 1.5455692 -1.0673616 0.9260813
H -1.0063766 -1.7293482 -1.2243962
