title
 OpenBabel02282109583D

 16 15  0  0  1  0  0  0  0  0999 V2000
    1.5720    2.8697   -0.1320 O   0  0  0  0  0  0  0  0  0  0  0  0
    1.8156    1.4829   -0.0966 C   0  0  0  0  0  0  0  0  0  0  0  0
    0.5307    0.7119    0.2147 C   0  0  1  0  0  0  0  0  0  0  0  0
   -0.4925    1.0857   -0.7097 O   0  0  0  0  0  0  0  0  0  0  0  0
    0.7352   -0.7998    0.2423 C   0  0  0  0  0  0  0  0  0  0  0  0
   -0.4305   -1.4641    0.7256 O   0  0  0  0  0  0  0  0  0  0  0  0
   -1.3465   -1.8670   -0.1799 C   0  0  0  0  0  0  0  0  0  0  0  0
   -2.3930   -2.3447    0.1325 O   0  0  0  0  0  0  0  0  0  0  0  0
    0.7171    2.9788   -0.5683 H   0  0  0  0  0  0  0  0  0  0  0  0
    2.2328    1.1200   -1.0557 H   0  0  0  0  0  0  0  0  0  0  0  0
    2.5703    1.2987    0.6758 H   0  0  0  0  0  0  0  0  0  0  0  0
    0.1503    1.0321    1.1902 H   0  0  0  0  0  0  0  0  0  0  0  0
   -0.2041    0.8341   -1.5963 H   0  0  0  0  0  0  0  0  0  0  0  0
    1.0002   -1.1706   -0.7589 H   0  0  0  0  0  0  0  0  0  0  0  0
    1.5456   -1.0674    0.9261 H   0  0  0  0  0  0  0  0  0  0  0  0
   -1.0064   -1.7293   -1.2244 H   0  0  0  0  0  0  0  0  0  0  0  0
  1  2  1  0  0  0  0
  2  3  1  0  0  0  0
  2 11  1  0  0  0  0
  3  5  1  0  0  0  0
  3 12  1  1  0  0  0
  4  3  1  0  0  0  0
  5  6  1  0  0  0  0
  5 15  1  0  0  0  0
  7  8  2  0  0  0  0
  7  6  1  0  0  0  0
  9  1  1  0  0  0  0
 10  2  1  0  0  0  0
 13  4  1  0  0  0  0
 14  5  1  0  0  0  0
 16  7  1  0  0  0  0
M  END
