title
 OpenBabel02282109583D

 17 16  0  0  1  0  0  0  0  0999 V2000
   -0.5930    2.5755   -1.8222 C   0  0  0  0  0  0  0  0  0  0  0  0
   -1.0762    1.8656   -0.6877 O   0  0  0  0  0  0  0  0  0  0  0  0
   -0.3163    0.8268   -0.2904 C   0  0  0  0  0  0  0  0  0  0  0  0
   -0.6680    0.1406    0.7051 N   0  0  0  0  0  0  0  0  0  0  0  0
    0.1432   -0.9957    1.1372 C   0  0  1  0  0  0  0  0  0  0  0  0
   -0.7493   -2.2514    1.1746 C   0  0  0  0  0  0  0  0  0  0  0  0
    1.3695   -1.2513    0.3670 C   0  0  0  0  0  0  0  0  0  0  0  0
    2.3654   -1.4595   -0.2752 C   0  0  0  0  0  0  0  0  0  0  0  0
   -0.5341    1.9287   -2.7060 H   0  0  0  0  0  0  0  0  0  0  0  0
   -1.3103    3.3748   -2.0122 H   0  0  0  0  0  0  0  0  0  0  0  0
    0.3929    3.0161   -1.6310 H   0  0  0  0  0  0  0  0  0  0  0  0
    0.5864    0.6569   -0.8906 H   0  0  0  0  0  0  0  0  0  0  0  0
    0.4439   -0.7782    2.1719 H   0  0  0  0  0  0  0  0  0  0  0  0
   -1.0645   -2.5202    0.1629 H   0  0  0  0  0  0  0  0  0  0  0  0
   -0.2086   -3.0961    1.6094 H   0  0  0  0  0  0  0  0  0  0  0  0
   -1.6387   -2.0409    1.7729 H   0  0  0  0  0  0  0  0  0  0  0  0
    3.2521   -1.6546   -0.8265 H   0  0  0  0  0  0  0  0  0  0  0  0
  1 11  1  0  0  0  0
  1  2  1  0  0  0  0
  2  3  1  0  0  0  0
  3  4  2  0  0  0  0
  4  5  1  0  0  0  0
  5  6  1  0  0  0  0
  5 13  1  1  0  0  0
  6 15  1  0  0  0  0
  6 16  1  0  0  0  0
  7  5  1  0  0  0  0
  8  7  3  0  0  0  0
  9  1  1  0  0  0  0
 10  1  1  0  0  0  0
 12  3  1  0  0  0  0
 14  6  1  0  0  0  0
 17  8  1  0  0  0  0
M  END
