16
title
C 1.8305695 2.6120846 0.37707567
O 1.0924983 1.8821446 -0.60144013
C 0.39555764 0.83492786 -0.13790952
N -0.28364313 0.1331577 -0.9372513
C -1.0348877 -1.0135925 -0.45622075
C -0.59753025 -2.277922 -1.218385
C -0.95881665 -1.2441001 1.0039005
N -0.86690986 -1.3885164 2.1475286
H 2.3308718 3.4186249 -0.15919791
H 1.1684493 3.040345 1.1381522
H 2.5826766 1.9796865 0.86235464
H 0.4741335 0.66749203 0.94454616
H -2.0923257 -0.82856584 -0.68782544
H -0.6890024 -2.0881026 -2.2896795
H 0.44519293 -2.5148458 -0.99307704
H -1.2217599 -3.1323943 -0.9449317
