title
 OpenBabel02282109583D

 18 17  0  0  0  0  0  0  0  0999 V2000
    2.5822    2.0056   -0.0759 C   0  0  0  0  0  0  0  0  0  0  0  0
    2.0435    1.3375    1.1926 C   0  0  0  0  0  0  0  0  0  0  0  0
    0.8842    0.4647    1.0888 N   0  0  0  0  0  0  0  0  0  0  0  0
    0.3309    0.2609   -0.0294 C   0  0  0  0  0  0  0  0  0  0  0  0
   -0.7781   -0.5704   -0.1476 N   0  0  0  0  0  0  0  0  0  0  0  0
   -1.3187   -1.2235    1.0389 C   0  0  0  0  0  0  0  0  0  0  0  0
   -1.3613   -0.7745   -1.3796 C   0  0  0  0  0  0  0  0  0  0  0  0
   -2.3237   -1.4747   -1.5881 O   0  0  0  0  0  0  0  0  0  0  0  0
    3.4488    2.6232    0.1774 H   0  0  0  0  0  0  0  0  0  0  0  0
    2.9070    1.2702   -0.8199 H   0  0  0  0  0  0  0  0  0  0  0  0
    1.8369    2.6583   -0.5433 H   0  0  0  0  0  0  0  0  0  0  0  0
    2.8432    0.7472    1.6596 H   0  0  0  0  0  0  0  0  0  0  0  0
    1.7923    2.1105    1.9313 H   0  0  0  0  0  0  0  0  0  0  0  0
    0.6419    0.6911   -0.9864 H   0  0  0  0  0  0  0  0  0  0  0  0
   -1.6220   -0.4728    1.7725 H   0  0  0  0  0  0  0  0  0  0  0  0
   -2.1729   -1.8200    0.7229 H   0  0  0  0  0  0  0  0  0  0  0  0
   -0.5547   -1.8555    1.4977 H   0  0  0  0  0  0  0  0  0  0  0  0
   -0.8400   -0.2136   -2.1778 H   0  0  0  0  0  0  0  0  0  0  0  0
  1  9  1  0  0  0  0
  1  2  1  0  0  0  0
  2 12  1  0  0  0  0
  2 13  1  0  0  0  0
  3  2  1  0  0  0  0
  4  3  2  0  0  0  0
  5  4  1  0  0  0  0
  5  6  1  0  0  0  0
  6 17  1  0  0  0  0
  6 15  1  0  0  0  0
  7  5  1  0  0  0  0
  8  7  2  0  0  0  0
 10  1  1  0  0  0  0
 11  1  1  0  0  0  0
 14  4  1  0  0  0  0
 16  6  1  0  0  0  0
 18  7  1  0  0  0  0
M  END
