title
 OpenBabel02282109583D

 17 16  0  0  1  0  0  0  0  0999 V2000
   -0.3481    2.7221    2.2222 C   0  0  0  0  0  0  0  0  0  0  0  0
   -0.8871    2.0038    1.1181 O   0  0  0  0  0  0  0  0  0  0  0  0
   -0.0669    1.0915    0.5611 C   0  0  0  0  0  0  0  0  0  0  0  0
   -0.4713    0.3944   -0.4048 N   0  0  0  0  0  0  0  0  0  0  0  0
    0.3933   -0.5991   -1.0172 C   0  0  1  0  0  0  0  0  0  0  0  0
    1.7497   -0.9109   -0.3816 C   0  0  0  0  0  0  0  0  0  0  0  0
   -0.4505   -1.8660   -1.1962 C   0  0  0  0  0  0  0  0  0  0  0  0
   -0.0092   -2.9851   -1.1864 O   0  0  0  0  0  0  0  0  0  0  0  0
   -0.1190    2.0550    3.0619 H   0  0  0  0  0  0  0  0  0  0  0  0
    0.5570    3.2737    1.9404 H   0  0  0  0  0  0  0  0  0  0  0  0
   -1.1165    3.4319    2.5302 H   0  0  0  0  0  0  0  0  0  0  0  0
    0.9279    1.0424    1.0215 H   0  0  0  0  0  0  0  0  0  0  0  0
    0.5649   -0.2593   -2.0549 H   0  0  0  0  0  0  0  0  0  0  0  0
    2.4227   -0.0498   -0.4227 H   0  0  0  0  0  0  0  0  0  0  0  0
    1.6359   -1.2197    0.6625 H   0  0  0  0  0  0  0  0  0  0  0  0
    2.2114   -1.7412   -0.9191 H   0  0  0  0  0  0  0  0  0  0  0  0
   -1.5293   -1.6535   -1.3534 H   0  0  0  0  0  0  0  0  0  0  0  0
  1 11  1  0  0  0  0
  1  9  1  0  0  0  0
  2  1  1  0  0  0  0
  3 12  1  0  0  0  0
  3  2  1  0  0  0  0
  4  3  2  0  0  0  0
  5 13  1  6  0  0  0
  5  4  1  0  0  0  0
  5  6  1  0  0  0  0
  6 15  1  0  0  0  0
  7  8  2  0  0  0  0
  7  5  1  0  0  0  0
 10  1  1  0  0  0  0
 14  6  1  0  0  0  0
 16  6  1  0  0  0  0
 17  7  1  0  0  0  0
M  END
