title
 OpenBabel02282109583D

 21 20  0  0  1  0  0  0  0  0999 V2000
    2.2065    1.2727   -0.9159 C   0  0  0  0  0  0  0  0  0  0  0  0
    2.1107   -0.2538   -0.9312 C   0  0  0  0  0  0  0  0  0  0  0  0
    0.6687   -0.7861   -0.8671 C   0  0  1  0  0  0  0  0  0  0  0  0
    0.6361   -2.3141   -0.9923 C   0  0  0  0  0  0  0  0  0  0  0  0
    0.0644   -0.4054    0.4023 N   0  0  0  0  0  0  0  0  0  0  0  0
   -1.0010    0.2612    0.3726 C   0  0  0  0  0  0  0  0  0  0  0  0
   -1.6190    0.6272    1.5145 O   0  0  0  0  0  0  0  0  0  0  0  0
   -2.7987    1.4035    1.3511 C   0  0  0  0  0  0  0  0  0  0  0  0
    3.2480    1.6032   -0.9771 H   0  0  0  0  0  0  0  0  0  0  0  0
    1.6691    1.7128   -1.7645 H   0  0  0  0  0  0  0  0  0  0  0  0
    1.7766    1.6827    0.0025 H   0  0  0  0  0  0  0  0  0  0  0  0
    2.5796   -0.6463   -1.8422 H   0  0  0  0  0  0  0  0  0  0  0  0
    2.6661   -0.6703   -0.0823 H   0  0  0  0  0  0  0  0  0  0  0  0
    0.1069   -0.3547   -1.7179 H   0  0  0  0  0  0  0  0  0  0  0  0
   -0.3932   -2.6845   -0.9701 H   0  0  0  0  0  0  0  0  0  0  0  0
    1.0987   -2.6362   -1.9310 H   0  0  0  0  0  0  0  0  0  0  0  0
    1.1771   -2.7748   -0.1600 H   0  0  0  0  0  0  0  0  0  0  0  0
   -1.5114    0.5912   -0.5469 H   0  0  0  0  0  0  0  0  0  0  0  0
   -2.5848    2.3642    0.8667 H   0  0  0  0  0  0  0  0  0  0  0  0
   -3.5574    0.8670    0.7679 H   0  0  0  0  0  0  0  0  0  0  0  0
   -3.1863    1.5889    2.3535 H   0  0  0  0  0  0  0  0  0  0  0  0
  1 11  1  0  0  0  0
  2  1  1  0  0  0  0
  2  3  1  0  0  0  0
  2 13  1  0  0  0  0
  3 14  1  6  0  0  0
  3  5  1  0  0  0  0
  4 15  1  0  0  0  0
  4  3  1  0  0  0  0
  4 17  1  0  0  0  0
  6  5  2  0  0  0  0
  6  7  1  0  0  0  0
  8  7  1  0  0  0  0
  8 21  1  0  0  0  0
  9  1  1  0  0  0  0
 10  1  1  0  0  0  0
 12  2  1  0  0  0  0
 16  4  1  0  0  0  0
 18  6  1  0  0  0  0
 19  8  1  0  0  0  0
 20  8  1  0  0  0  0
M  END
