21
title
C 2.206508 1.272712 -0.9158937
C 2.1106997 -0.25381702 -0.931215
C 0.6686872 -0.7860855 -0.8670967
C 0.6360545 -2.3141277 -0.9923241
N 0.06437993 -0.40540248 0.40229723
C -1.0010266 0.2611651 0.372624
O -1.6189935 0.627195 1.5144646
C -2.7986958 1.4035012 1.351093
H 3.2480183 1.6031977 -0.9770673
H 1.6690544 1.7127873 -1.7644701
H 1.7765867 1.6826674 0.0025000144
H 2.579584 -0.6462562 -1.8421668
H 2.6661425 -0.6703276 -0.08234958
H 0.106949806 -0.3546644 -1.7178994
H -0.39318776 -2.6845136 -0.9700929
H 1.0986574 -2.6362188 -1.9309584
H 1.1770818 -2.7747855 -0.16003685
H -1.511374 0.59123474 -0.5468969
H -2.5848343 2.3642411 0.8666765
H -3.5573928 0.8670052 0.7678904
H -3.1862562 1.5888717 2.353549
