18
title
C 1.533346 3.289745 -0.58466756
C 1.3040459 1.7786529 -0.6605805
C -0.18931082 1.4053413 -0.65571356
N -0.38387552 -0.022858499 -0.8312714
C -0.4832082 -0.7722213 0.20251293
N -0.4870526 -0.4573021 1.5355294
C -0.66511226 -2.236088 -0.070232265
O -0.7261034 -3.0682867 0.80329305
H 2.6010056 3.528609 -0.5986625
H 1.0662321 3.8032372 -1.4320637
H 1.1097119 3.7146277 0.3323716
H 1.7560219 1.3706038 -1.5712955
H 1.8057718 1.2798319 0.17863066
H -0.66530037 1.7924253 0.26132947
H -0.677075 1.9127812 -1.496627
H -0.073484324 0.40018988 1.8560927
H -0.4374844 -1.2510386 2.1575534
H -0.72905767 -2.4720504 -1.14844
