title
 OpenBabel02282109583D

 16 15  0  0  0  0  0  0  0  0999 V2000
    1.2611    1.5776    0.3240 N   0  0  0  0  0  0  0  0  0  0  0  0
    0.8968    0.2974    0.0342 C   0  0  0  0  0  0  0  0  0  0  0  0
    2.0476   -0.6589   -0.0733 C   0  0  0  0  0  0  0  0  0  0  0  0
    3.1906   -0.3387    0.1457 O   0  0  0  0  0  0  0  0  0  0  0  0
   -0.2695   -0.1881   -0.1773 N   0  0  0  0  0  0  0  0  0  0  0  0
   -1.4216    0.6925   -0.0820 C   0  0  0  0  0  0  0  0  0  0  0  0
   -2.6631   -0.0896   -0.5142 C   0  0  0  0  0  0  0  0  0  0  0  0
   -2.8003   -1.2735    0.2406 O   0  0  0  0  0  0  0  0  0  0  0  0
    2.2269    1.7119    0.5846 H   0  0  0  0  0  0  0  0  0  0  0  0
    0.5850    2.2390    0.6632 H   0  0  0  0  0  0  0  0  0  0  0  0
    1.7410   -1.6807   -0.3639 H   0  0  0  0  0  0  0  0  0  0  0  0
   -1.5557    1.0306    0.9591 H   0  0  0  0  0  0  0  0  0  0  0  0
   -1.2990    1.5928   -0.7069 H   0  0  0  0  0  0  0  0  0  0  0  0
   -3.5661    0.5082   -0.3523 H   0  0  0  0  0  0  0  0  0  0  0  0
   -2.5896   -0.3044   -1.5929 H   0  0  0  0  0  0  0  0  0  0  0  0
   -1.9298   -1.6926    0.2087 H   0  0  0  0  0  0  0  0  0  0  0  0
  1  9  1  0  0  0  0
  1 10  1  0  0  0  0
  2  1  1  0  0  0  0
  3  2  1  0  0  0  0
  3  4  2  0  0  0  0
  5  6  1  0  0  0  0
  5  2  2  0  0  0  0
  6 12  1  0  0  0  0
  7 14  1  0  0  0  0
  7  6  1  0  0  0  0
  7  8  1  0  0  0  0
 11  3  1  0  0  0  0
 13  6  1  0  0  0  0
 15  7  1  0  0  0  0
 16  8  1  0  0  0  0
M  END
