16
title
N 1.261149 1.577638 0.32399303
C 0.89675885 0.29737654 0.034220688
C 2.0475824 -0.65890294 -0.07330618
O 3.1905773 -0.33868906 0.14568827
N -0.26945028 -0.18812725 -0.17726743
C -1.4215999 0.69246745 -0.082010545
C -2.6630828 -0.08956955 -0.5142231
O -2.8002775 -1.2735413 0.2406425
H 2.226862 1.7119272 0.58456045
H 0.5849834 2.2390118 0.6631904
H 1.7409744 -1.6807156 -0.36388505
H -1.5556736 1.0306197 0.95906955
H -1.29901 1.5927936 -0.70692813
H -3.5661259 0.50820106 -0.3523243
H -2.589571 -0.30441472 -1.5928538
H -1.9298322 -1.6925774 0.2087021
