19
title
C 2.0961943 1.4868722 -0.1836282
O 2.1239226 0.09286388 -0.4840856
C 0.96388435 -0.58145535 -0.3357887
C 1.1389945 -2.038702 -0.6793263
N -0.09193563 0.0069125355 0.04613907
C -1.3313644 -0.73999137 0.20246977
C -2.3052623 0.12568308 1.0046989
O -2.4700334 1.3909574 0.4012968
H 3.1173635 1.8408208 -0.33138964
H 1.409899 2.0162265 -0.8512893
H 1.7757794 1.6572171 0.8480993
H 2.1574748 -2.2321725 -1.0153599
H 0.9271363 -2.6650796 0.19313413
H 0.43690932 -2.3310018 -1.4662219
H -1.7727408 -0.9449943 -0.7841233
H -1.189002 -1.7073512 0.7076052
H -3.290921 -0.35033178 1.0469937
H -1.932101 0.21894355 2.0384884
H -1.5707266 1.6741778 0.18655407
