18
title
C 2.038642 3.261985 -0.0022371693
C 1.953976 1.7333611 -0.009357774
C 0.5113696 1.217379 0.0015202265
C 0.42829216 -0.3082483 -0.0056106034
C -0.99278164 -0.8430949 0.0050696996
O -1.97528 -0.1337711 0.018476527
C -1.1080527 -2.295155 -0.0017969862
C -1.1828868 -3.4966102 -0.0076219277
H 3.0781639 3.604015 -0.010223539
H 1.5396658 3.6895387 -0.87881345
H 1.5562481 3.68039 0.88793045
H 2.4752269 1.3413368 -0.8930772
H 2.4916928 1.3322557 0.8603096
H -0.01726509 1.6015652 0.88162804
H -0.03365935 1.6106267 -0.86447775
H 0.935205 -0.73418194 -0.88338006
H 0.951584 -0.743167 0.85804
H -1.2688577 -4.5561547 -0.012471179
