17
title
C 2.0312262 3.2930543 -0.0023013204
C 1.950957 1.7643526 -0.009391714
C 0.50856566 1.2470504 0.0015995735
C 0.43307796 -0.27932173 -0.0055031856
C -0.9778764 -0.8161388 0.005142322
O -1.9817841 -0.1504956 0.018398192
C -1.0729885 -2.29652 -0.0019085165
N -1.1318524 -3.4513433 -0.0073886723
H 3.0702312 3.6355762 -0.010368196
H 1.5320045 3.7194629 -0.87912077
H 1.5487165 3.710388 0.8881346
H 2.4717555 1.3729756 -0.89336836
H 2.4883492 1.3639674 0.86050725
H -0.020261617 1.628418 0.8826899
H -0.036789745 1.6373754 -0.8653837
H 0.9396206 -0.707727 -0.8829847
H 0.9560508 -0.7165986 0.85786086
