title
 OpenBabel02282109583D

 17 16  0  0  0  0  0  0  0  0999 V2000
    2.0312    3.2931   -0.0023 C   0  0  0  0  0  0  0  0  0  0  0  0
    1.9510    1.7644   -0.0094 C   0  0  0  0  0  0  0  0  0  0  0  0
    0.5086    1.2471    0.0016 C   0  0  0  0  0  0  0  0  0  0  0  0
    0.4331   -0.2793   -0.0055 C   0  0  0  0  0  0  0  0  0  0  0  0
   -0.9779   -0.8161    0.0051 C   0  0  0  0  0  0  0  0  0  0  0  0
   -1.9818   -0.1505    0.0184 O   0  0  0  0  0  0  0  0  0  0  0  0
   -1.0730   -2.2965   -0.0019 C   0  0  0  0  0  0  0  0  0  0  0  0
   -1.1319   -3.4513   -0.0074 N   0  0  0  0  0  0  0  0  0  0  0  0
    3.0702    3.6356   -0.0104 H   0  0  0  0  0  0  0  0  0  0  0  0
    1.5320    3.7195   -0.8791 H   0  0  0  0  0  0  0  0  0  0  0  0
    1.5487    3.7104    0.8881 H   0  0  0  0  0  0  0  0  0  0  0  0
    2.4718    1.3730   -0.8934 H   0  0  0  0  0  0  0  0  0  0  0  0
    2.4883    1.3640    0.8605 H   0  0  0  0  0  0  0  0  0  0  0  0
   -0.0203    1.6284    0.8827 H   0  0  0  0  0  0  0  0  0  0  0  0
   -0.0368    1.6374   -0.8654 H   0  0  0  0  0  0  0  0  0  0  0  0
    0.9396   -0.7077   -0.8830 H   0  0  0  0  0  0  0  0  0  0  0  0
    0.9561   -0.7166    0.8579 H   0  0  0  0  0  0  0  0  0  0  0  0
  1 11  1  0  0  0  0
  2  1  1  0  0  0  0
  2  3  1  0  0  0  0
  2 13  1  0  0  0  0
  3 14  1  0  0  0  0
  4  3  1  0  0  0  0
  4  5  1  0  0  0  0
  4 17  1  0  0  0  0
  5  6  2  0  0  0  0
  7  5  1  0  0  0  0
  8  7  3  0  0  0  0
  9  1  1  0  0  0  0
 10  1  1  0  0  0  0
 12  2  1  0  0  0  0
 15  3  1  0  0  0  0
 16  4  1  0  0  0  0
M  END
