16
title
C -1.0064524 3.1768832 -1.6167735
C -0.91907716 1.6513472 -1.5176065
C -0.17699608 1.2100897 -0.26762444
O -0.14527598 -0.23345096 -0.2617324
C 0.47561207 -0.79364175 0.7883586
O 0.98994285 -0.18514688 1.693585
C 0.44774094 -2.2386317 0.6930248
C 0.45508912 -3.4397418 0.6672756
H -0.011174105 3.6328466 -1.6528112
H -1.5426519 3.4773161 -2.52099
H -1.5360868 3.6036828 -0.7582253
H -1.9236194 1.2136372 -1.5067884
H -0.40786508 1.2426358 -2.39649
H 0.85136265 1.586817 -0.24685319
H -0.67062664 1.5571609 0.64650387
H 0.46203354 -4.5023317 0.6437096
