title
 OpenBabel02282109583D

 16 15  0  0  0  0  0  0  0  0999 V2000
   -1.0065    3.1769   -1.6168 C   0  0  0  0  0  0  0  0  0  0  0  0
   -0.9191    1.6513   -1.5176 C   0  0  0  0  0  0  0  0  0  0  0  0
   -0.1770    1.2101   -0.2676 C   0  0  0  0  0  0  0  0  0  0  0  0
   -0.1453   -0.2335   -0.2617 O   0  0  0  0  0  0  0  0  0  0  0  0
    0.4756   -0.7936    0.7884 C   0  0  0  0  0  0  0  0  0  0  0  0
    0.9899   -0.1851    1.6936 O   0  0  0  0  0  0  0  0  0  0  0  0
    0.4477   -2.2386    0.6930 C   0  0  0  0  0  0  0  0  0  0  0  0
    0.4551   -3.4397    0.6673 C   0  0  0  0  0  0  0  0  0  0  0  0
   -0.0112    3.6328   -1.6528 H   0  0  0  0  0  0  0  0  0  0  0  0
   -1.5427    3.4773   -2.5210 H   0  0  0  0  0  0  0  0  0  0  0  0
   -1.5361    3.6037   -0.7582 H   0  0  0  0  0  0  0  0  0  0  0  0
   -1.9236    1.2136   -1.5068 H   0  0  0  0  0  0  0  0  0  0  0  0
   -0.4079    1.2426   -2.3965 H   0  0  0  0  0  0  0  0  0  0  0  0
    0.8514    1.5868   -0.2469 H   0  0  0  0  0  0  0  0  0  0  0  0
   -0.6706    1.5572    0.6465 H   0  0  0  0  0  0  0  0  0  0  0  0
    0.4620   -4.5023    0.6437 H   0  0  0  0  0  0  0  0  0  0  0  0
  1  2  1  0  0  0  0
  1 11  1  0  0  0  0
  2 12  1  0  0  0  0
  2  3  1  0  0  0  0
  3  4  1  0  0  0  0
  3 14  1  0  0  0  0
  3 15  1  0  0  0  0
  4  5  1  0  0  0  0
  5  6  2  0  0  0  0
  7  5  1  0  0  0  0
  8  7  3  0  0  0  0
  9  1  1  0  0  0  0
 10  1  1  0  0  0  0
 13  2  1  0  0  0  0
 16  8  1  0  0  0  0
M  END
