title
 OpenBabel02282109583D

 15 14  0  0  0  0  0  0  0  0999 V2000
    1.8741    3.2186   -0.0014 C   0  0  0  0  0  0  0  0  0  0  0  0
    1.7577    1.6914   -0.0081 C   0  0  0  0  0  0  0  0  0  0  0  0
    0.3074    1.2432    0.0035 C   0  0  0  0  0  0  0  0  0  0  0  0
    0.2952   -0.2090   -0.0039 O   0  0  0  0  0  0  0  0  0  0  0  0
   -0.9071   -0.7755    0.0046 C   0  0  0  0  0  0  0  0  0  0  0  0
   -1.9714   -0.2199    0.0176 O   0  0  0  0  0  0  0  0  0  0  0  0
   -0.7722   -2.2395   -0.0043 C   0  0  0  0  0  0  0  0  0  0  0  0
   -0.7265   -3.3933   -0.0102 N   0  0  0  0  0  0  0  0  0  0  0  0
    2.9233    3.5250   -0.0097 H   0  0  0  0  0  0  0  0  0  0  0  0
    1.3909    3.6608   -0.8791 H   0  0  0  0  0  0  0  0  0  0  0  0
    1.4077    3.6517    0.8898 H   0  0  0  0  0  0  0  0  0  0  0  0
    2.2504    1.2765   -0.8943 H   0  0  0  0  0  0  0  0  0  0  0  0
    2.2672    1.2675    0.8642 H   0  0  0  0  0  0  0  0  0  0  0  0
   -0.2264    1.5883    0.8947 H   0  0  0  0  0  0  0  0  0  0  0  0
   -0.2434    1.5975   -0.8737 H   0  0  0  0  0  0  0  0  0  0  0  0
  1 11  1  0  0  0  0
  2  1  1  0  0  0  0
  2  3  1  0  0  0  0
  2 13  1  0  0  0  0
  3 14  1  0  0  0  0
  4  3  1  0  0  0  0
  4  5  1  0  0  0  0
  5  6  2  0  0  0  0
  7  5  1  0  0  0  0
  8  7  3  0  0  0  0
  9  1  1  0  0  0  0
 10  1  1  0  0  0  0
 12  2  1  0  0  0  0
 15  3  1  0  0  0  0
M  END
