title
 OpenBabel02282109583D

 16 15  0  0  0  0  0  0  0  0999 V2000
    1.9675    3.0102   -0.0026 C   0  0  0  0  0  0  0  0  0  0  0  0
    1.9545    1.4920   -0.0103 C   0  0  0  0  0  0  0  0  0  0  0  0
    0.6055    1.0577   -0.0002 O   0  0  0  0  0  0  0  0  0  0  0  0
    0.4738   -0.3260   -0.0062 C   0  0  0  0  0  0  0  0  0  0  0  0
   -0.9980   -0.7165    0.0057 C   0  0  0  0  0  0  0  0  0  0  0  0
   -1.9078    0.0758    0.0184 O   0  0  0  0  0  0  0  0  0  0  0  0
   -1.2168   -2.1567    0.0001 C   0  0  0  0  0  0  0  0  0  0  0  0
   -1.3869   -3.3482   -0.0048 C   0  0  0  0  0  0  0  0  0  0  0  0
    2.9969    3.3807   -0.0100 H   0  0  0  0  0  0  0  0  0  0  0  0
    1.4489    3.4017   -0.8819 H   0  0  0  0  0  0  0  0  0  0  0  0
    1.4649    3.3925    0.8900 H   0  0  0  0  0  0  0  0  0  0  0  0
    2.4702    1.1017   -0.9038 H   0  0  0  0  0  0  0  0  0  0  0  0
    2.4864    1.0925    0.8695 H   0  0  0  0  0  0  0  0  0  0  0  0
    0.9389   -0.7916   -0.8955 H   0  0  0  0  0  0  0  0  0  0  0  0
    0.9555   -0.8007    0.8694 H   0  0  0  0  0  0  0  0  0  0  0  0
   -1.5539   -4.3982   -0.0095 H   0  0  0  0  0  0  0  0  0  0  0  0
  1 11  1  0  0  0  0
  2  1  1  0  0  0  0
  2  3  1  0  0  0  0
  2 13  1  0  0  0  0
  4  3  1  0  0  0  0
  4  5  1  0  0  0  0
  4 15  1  0  0  0  0
  5  6  2  0  0  0  0
  7  5  1  0  0  0  0
  8  7  3  0  0  0  0
  9  1  1  0  0  0  0
 10  1  1  0  0  0  0
 12  2  1  0  0  0  0
 14  4  1  0  0  0  0
 16  8  1  0  0  0  0
M  END
