title
 OpenBabel02282109583D

 15 14  0  0  0  0  0  0  0  0999 V2000
    1.9423    3.0503   -0.0021 C   0  0  0  0  0  0  0  0  0  0  0  0
    1.9496    1.5329   -0.0106 C   0  0  0  0  0  0  0  0  0  0  0  0
    0.6016    1.0812    0.0002 O   0  0  0  0  0  0  0  0  0  0  0  0
    0.4852   -0.2994   -0.0063 C   0  0  0  0  0  0  0  0  0  0  0  0
   -0.9776   -0.6957    0.0057 C   0  0  0  0  0  0  0  0  0  0  0  0
   -1.9128    0.0556    0.0189 O   0  0  0  0  0  0  0  0  0  0  0  0
   -1.1771   -2.1654   -0.0005 C   0  0  0  0  0  0  0  0  0  0  0  0
   -1.3210   -3.3125   -0.0055 N   0  0  0  0  0  0  0  0  0  0  0  0
    2.9673    3.4320   -0.0102 H   0  0  0  0  0  0  0  0  0  0  0  0
    1.4192    3.4360   -0.8812 H   0  0  0  0  0  0  0  0  0  0  0  0
    1.4368    3.4262    0.8914 H   0  0  0  0  0  0  0  0  0  0  0  0
    2.4655    1.1477   -0.9052 H   0  0  0  0  0  0  0  0  0  0  0  0
    2.4830    1.1379    0.8693 H   0  0  0  0  0  0  0  0  0  0  0  0
    0.9492   -0.7683   -0.8956 H   0  0  0  0  0  0  0  0  0  0  0  0
    0.9663   -0.7780    0.8687 H   0  0  0  0  0  0  0  0  0  0  0  0
  1 11  1  0  0  0  0
  2  1  1  0  0  0  0
  2  3  1  0  0  0  0
  2 13  1  0  0  0  0
  4  3  1  0  0  0  0
  4  5  1  0  0  0  0
  4 15  1  0  0  0  0
  5  6  2  0  0  0  0
  7  5  1  0  0  0  0
  8  7  3  0  0  0  0
  9  1  1  0  0  0  0
 10  1  1  0  0  0  0
 12  2  1  0  0  0  0
 14  4  1  0  0  0  0
M  END
