16
title
C 1.7722973 3.1548097 -0.00020686262
O 1.7033697 1.7486234 -0.0066859843
C 0.37725982 1.2685313 0.0030140793
C 0.44071636 -0.25194368 -0.0052506174
C -0.9278873 -0.90048295 0.004085807
O -1.9633204 -0.2688907 0.017459447
C -0.9267136 -2.3555222 -0.00398241
C -0.9063245 -3.5589685 -0.010674754
H 2.829601 3.4302886 -0.008470762
H 1.2833128 3.592174 -0.8850323
H 1.2995961 3.583165 0.89777654
H -0.16535631 1.6229717 0.893341
H -0.18150511 1.6319128 -0.873625
H 0.99241084 -0.6080068 -0.8846952
H 1.008321 -0.61675483 0.860395
H -0.9070016 -4.6221046 -0.01560634
