title
 OpenBabel02282109583D

 15 14  0  0  0  0  0  0  0  0999 V2000
    1.7774    3.1805   -0.0006 C   0  0  0  0  0  0  0  0  0  0  0  0
    1.6992    1.7725   -0.0068 O   0  0  0  0  0  0  0  0  0  0  0  0
    0.3735    1.2997    0.0034 C   0  0  0  0  0  0  0  0  0  0  0  0
    0.4412   -0.2219   -0.0051 C   0  0  0  0  0  0  0  0  0  0  0  0
   -0.9171   -0.8713    0.0045 C   0  0  0  0  0  0  0  0  0  0  0  0
   -1.9703   -0.2849    0.0175 O   0  0  0  0  0  0  0  0  0  0  0  0
   -0.8953   -2.3528   -0.0039 C   0  0  0  0  0  0  0  0  0  0  0  0
   -0.8686   -3.5086   -0.0105 N   0  0  0  0  0  0  0  0  0  0  0  0
    2.8366    3.4466   -0.0094 H   0  0  0  0  0  0  0  0  0  0  0  0
    1.2912    3.6188   -0.8859 H   0  0  0  0  0  0  0  0  0  0  0  0
    1.3082    3.6100    0.8980 H   0  0  0  0  0  0  0  0  0  0  0  0
   -0.1691    1.6520    0.8948 H   0  0  0  0  0  0  0  0  0  0  0  0
   -0.1860    1.6611   -0.8738 H   0  0  0  0  0  0  0  0  0  0  0  0
    0.9931   -0.5798   -0.8846 H   0  0  0  0  0  0  0  0  0  0  0  0
    1.0097   -0.5888    0.8600 H   0  0  0  0  0  0  0  0  0  0  0  0
  1 11  1  0  0  0  0
  2  1  1  0  0  0  0
  2  3  1  0  0  0  0
  3 12  1  0  0  0  0
  4  3  1  0  0  0  0
  4  5  1  0  0  0  0
  4 15  1  0  0  0  0
  5  6  2  0  0  0  0
  7  5  1  0  0  0  0
  8  7  3  0  0  0  0
  9  1  1  0  0  0  0
 10  1  1  0  0  0  0
 13  3  1  0  0  0  0
 14  4  1  0  0  0  0
M  END
