15
title
O 2.3444843 1.4577879 0.8082771
C 2.318886 0.07134038 1.1290339
C 0.8582511 -0.3286744 1.2586428
N 0.16290176 0.0043624407 0.029183315
C -1.0618743 -0.5143826 -0.26033694
N -1.6202193 -1.4257541 0.4474241
C -1.664447 0.039585266 -1.4660002
N -2.1820815 0.45762065 -2.4117248
H 3.2450826 1.706206 0.5818525
H 2.796761 -0.5257977 0.3389333
H 2.8359978 -0.13404794 2.0772924
H 0.7670684 -1.4029986 1.4356382
H 0.40461802 0.18409342 2.118595
H 0.44263256 0.86866546 -0.40873474
H -2.5031617 -1.7179235 0.0371943
