15
title
O 2.4791164 1.33386 0.68556625
C 2.2066665 0.005617457 1.1181962
C 0.71357566 -0.06948436 1.4014664
N -0.050736822 0.26974776 0.21731052
C -1.0504421 -0.515899 -0.2690707
O -1.4274791 -1.5518506 0.25088814
C -1.6471025 0.0029795119 -1.4957192
C -2.161542 0.40263662 -2.5061975
H 3.387732 1.3757724 0.3746834
H 2.472854 -0.72782135 0.34321025
H 2.764369 -0.24246232 2.0337493
H 0.42261514 -1.0776428 1.7024943
H 0.46962067 0.618658 2.2213366
H 0.22427449 1.0952026 -0.29150888
H -2.6254082 0.7449842 -3.3988864
