title
 OpenBabel02282109583D

 15 14  0  0  0  0  0  0  0  0999 V2000
    2.4791    1.3339    0.6856 O   0  0  0  0  0  0  0  0  0  0  0  0
    2.2067    0.0056    1.1182 C   0  0  0  0  0  0  0  0  0  0  0  0
    0.7136   -0.0695    1.4015 C   0  0  0  0  0  0  0  0  0  0  0  0
   -0.0507    0.2697    0.2173 N   0  0  0  0  0  0  0  0  0  0  0  0
   -1.0504   -0.5159   -0.2691 C   0  0  0  0  0  0  0  0  0  0  0  0
   -1.4275   -1.5519    0.2509 O   0  0  0  0  0  0  0  0  0  0  0  0
   -1.6471    0.0030   -1.4957 C   0  0  0  0  0  0  0  0  0  0  0  0
   -2.1615    0.4026   -2.5062 C   0  0  0  0  0  0  0  0  0  0  0  0
    3.3877    1.3758    0.3747 H   0  0  0  0  0  0  0  0  0  0  0  0
    2.4729   -0.7278    0.3432 H   0  0  0  0  0  0  0  0  0  0  0  0
    2.7644   -0.2425    2.0337 H   0  0  0  0  0  0  0  0  0  0  0  0
    0.4226   -1.0776    1.7025 H   0  0  0  0  0  0  0  0  0  0  0  0
    0.4696    0.6187    2.2213 H   0  0  0  0  0  0  0  0  0  0  0  0
    0.2243    1.0952   -0.2915 H   0  0  0  0  0  0  0  0  0  0  0  0
   -2.6254    0.7450   -3.3989 H   0  0  0  0  0  0  0  0  0  0  0  0
  1  2  1  0  0  0  0
  2  3  1  0  0  0  0
  2 11  1  0  0  0  0
  3 12  1  0  0  0  0
  3 13  1  0  0  0  0
  4  3  1  0  0  0  0
  5  4  1  0  0  0  0
  5  6  2  0  0  0  0
  7  5  1  0  0  0  0
  8  7  3  0  0  0  0
  9  1  1  0  0  0  0
 10  2  1  0  0  0  0
 14  4  1  0  0  0  0
 15  8  1  0  0  0  0
M  END
