14
title
O 2.2865589 1.5395751 0.94371325
C 2.3023365 0.12826693 0.9971143
C 0.9060834 -0.45843834 1.0972804
O 0.2186887 -0.06351891 -0.112074934
C -1.056395 -0.48002404 -0.22436532
O -1.6312747 -1.156606 0.58966064
C -1.644151 -0.007812898 -1.4590561
C -2.1808221 0.35888335 -2.469362
H 1.7477094 1.7839227 0.18317524
H 2.8181183 -0.30733097 0.12718454
H 2.8666654 -0.15038085 1.8929718
H 0.9222241 -1.5504766 1.1685241
H 0.36531624 -0.05734617 1.9592258
H -2.6574438 0.68207294 -3.362883
