title
 OpenBabel02282109583D

 14 13  0  0  0  0  0  0  0  0999 V2000
    2.2866    1.5396    0.9437 O   0  0  0  0  0  0  0  0  0  0  0  0
    2.3023    0.1283    0.9971 C   0  0  0  0  0  0  0  0  0  0  0  0
    0.9061   -0.4584    1.0973 C   0  0  0  0  0  0  0  0  0  0  0  0
    0.2187   -0.0635   -0.1121 O   0  0  0  0  0  0  0  0  0  0  0  0
   -1.0564   -0.4800   -0.2244 C   0  0  0  0  0  0  0  0  0  0  0  0
   -1.6313   -1.1566    0.5897 O   0  0  0  0  0  0  0  0  0  0  0  0
   -1.6442   -0.0078   -1.4591 C   0  0  0  0  0  0  0  0  0  0  0  0
   -2.1808    0.3589   -2.4694 C   0  0  0  0  0  0  0  0  0  0  0  0
    1.7477    1.7839    0.1832 H   0  0  0  0  0  0  0  0  0  0  0  0
    2.8181   -0.3073    0.1272 H   0  0  0  0  0  0  0  0  0  0  0  0
    2.8667   -0.1504    1.8930 H   0  0  0  0  0  0  0  0  0  0  0  0
    0.9222   -1.5505    1.1685 H   0  0  0  0  0  0  0  0  0  0  0  0
    0.3653   -0.0573    1.9592 H   0  0  0  0  0  0  0  0  0  0  0  0
   -2.6574    0.6821   -3.3629 H   0  0  0  0  0  0  0  0  0  0  0  0
  1  2  1  0  0  0  0
  2  3  1  0  0  0  0
  2 11  1  0  0  0  0
  3 12  1  0  0  0  0
  3 13  1  0  0  0  0
  4  3  1  0  0  0  0
  5  4  1  0  0  0  0
  5  6  2  0  0  0  0
  7  5  1  0  0  0  0
  8  7  3  0  0  0  0
  9  1  1  0  0  0  0
 10  2  1  0  0  0  0
 14  8  1  0  0  0  0
M  END
