title
 OpenBabel02282109583D

 18 17  0  0  0  0  0  0  0  0999 V2000
    1.9954    3.3481   -0.0112 C   0  0  0  0  0  0  0  0  0  0  0  0
    1.9057    1.8217    0.0523 C   0  0  0  0  0  0  0  0  0  0  0  0
    0.4752    1.3167   -0.1258 C   0  0  0  0  0  0  0  0  0  0  0  0
    0.4199   -0.1346   -0.0732 N   0  0  0  0  0  0  0  0  0  0  0  0
   -0.7674   -0.8034    0.0204 C   0  0  0  0  0  0  0  0  0  0  0  0
   -1.8915   -0.2183    0.1965 N   0  0  0  0  0  0  0  0  0  0  0  0
   -0.6276   -2.3085   -0.0620 C   0  0  0  0  0  0  0  0  0  0  0  0
   -1.5657   -3.0555    0.0229 O   0  0  0  0  0  0  0  0  0  0  0  0
    3.0274    3.6875    0.1145 H   0  0  0  0  0  0  0  0  0  0  0  0
    1.6333    3.7273   -0.9727 H   0  0  0  0  0  0  0  0  0  0  0  0
    1.3926    3.8123    0.7765 H   0  0  0  0  0  0  0  0  0  0  0  0
    2.5454    1.3855   -0.7282 H   0  0  0  0  0  0  0  0  0  0  0  0
    2.2956    1.4603    1.0115 H   0  0  0  0  0  0  0  0  0  0  0  0
   -0.1768    1.6980    0.6665 H   0  0  0  0  0  0  0  0  0  0  0  0
    0.0519    1.6874   -1.0722 H   0  0  0  0  0  0  0  0  0  0  0  0
    1.2085   -0.6379   -0.4489 H   0  0  0  0  0  0  0  0  0  0  0  0
   -2.6123   -0.9369    0.2877 H   0  0  0  0  0  0  0  0  0  0  0  0
    0.4083   -2.6938   -0.2074 H   0  0  0  0  0  0  0  0  0  0  0  0
  1  2  1  0  0  0  0
  1  9  1  0  0  0  0
  1 11  1  0  0  0  0
  2 13  1  0  0  0  0
  3  4  1  0  0  0  0
  3  2  1  0  0  0  0
  3 14  1  0  0  0  0
  4  5  1  0  0  0  0
  5  6  2  0  0  0  0
  6 17  1  0  0  0  0
  7  5  1  0  0  0  0
  7  8  2  0  0  0  0
 10  1  1  0  0  0  0
 12  2  1  0  0  0  0
 15  3  1  0  0  0  0
 16  4  1  0  0  0  0
 18  7  1  0  0  0  0
M  END
