18
title
C 1.9953973 3.3481276 -0.011151553
C 1.9057456 1.8216897 0.052349534
C 0.47524658 1.3167005 -0.12580949
N 0.41993347 -0.13457277 -0.07323506
C -0.7674313 -0.80336326 0.020380864
N -1.8914994 -0.21833816 0.19652815
C -0.6275931 -2.3085296 -0.06195916
O -1.5656713 -3.0554779 0.022877557
H 3.027438 3.6875234 0.1144512
H 1.6333412 3.727346 -0.9726978
H 1.3925992 3.8123188 0.77652115
H 2.5453734 1.3854886 -0.72821295
H 2.2956111 1.4602702 1.0114975
H -0.17682466 1.697992 0.6665481
H 0.05191115 1.6874183 -1.072182
H 1.2085476 -0.6379401 -0.44892237
H -2.6122782 -0.9369387 0.28769925
H 0.40831307 -2.693806 -0.2074387
