title
 OpenBabel02282109583D

 16 15  0  0  0  0  0  0  0  0999 V2000
   -0.7833    3.1341   -1.8081 C   0  0  0  0  0  0  0  0  0  0  0  0
   -0.6164    1.6201   -1.6493 C   0  0  0  0  0  0  0  0  0  0  0  0
   -0.1715    1.2482   -0.2458 C   0  0  0  0  0  0  0  0  0  0  0  0
   -0.0408   -0.1911   -0.1890 O   0  0  0  0  0  0  0  0  0  0  0  0
    0.3446   -0.6939    0.9789 C   0  0  0  0  0  0  0  0  0  0  0  0
    0.5922   -0.0703    1.9820 O   0  0  0  0  0  0  0  0  0  0  0  0
    0.4581   -2.2230    0.9531 C   0  0  0  0  0  0  0  0  0  0  0  0
    0.2298   -2.9098   -0.0018 O   0  0  0  0  0  0  0  0  0  0  0  0
    0.1567    3.6625   -1.6158 H   0  0  0  0  0  0  0  0  0  0  0  0
   -1.1035    3.3844   -2.8230 H   0  0  0  0  0  0  0  0  0  0  0  0
   -1.5342    3.5287   -1.1153 H   0  0  0  0  0  0  0  0  0  0  0  0
   -1.5599    1.1083   -1.8689 H   0  0  0  0  0  0  0  0  0  0  0  0
    0.1204    1.2413   -2.3663 H   0  0  0  0  0  0  0  0  0  0  0  0
    0.7933    1.6973    0.0134 H   0  0  0  0  0  0  0  0  0  0  0  0
   -0.8955    1.5637    0.5133 H   0  0  0  0  0  0  0  0  0  0  0  0
    0.7807   -2.6170    1.9379 H   0  0  0  0  0  0  0  0  0  0  0  0
  1  2  1  0  0  0  0
  1  9  1  0  0  0  0
  1 11  1  0  0  0  0
  2  3  1  0  0  0  0
  3  4  1  0  0  0  0
  3 14  1  0  0  0  0
  3 15  1  0  0  0  0
  4  5  1  0  0  0  0
  5  6  2  0  0  0  0
  7  5  1  0  0  0  0
  7 16  1  0  0  0  0
  8  7  2  0  0  0  0
 10  1  1  0  0  0  0
 12  2  1  0  0  0  0
 13  2  1  0  0  0  0
M  END
