16
title
C -1.1950761 2.9267023 -1.7531663
C -1.340471 1.4473069 -1.4444767
O -0.30896264 1.075792 -0.54487854
C -0.34867084 -0.26928064 -0.191734
C 0.7789984 -0.58823425 0.76703423
O 1.5963328 0.19958153 1.1714306
C 0.856992 -2.044986 1.2423975
O 0.08596812 -2.9003 0.8933622
H -0.22126825 3.129186 -2.2072213
H -1.9775152 3.2476454 -2.4470332
H -1.2761157 3.5187109 -0.8375118
H -2.3255198 1.2365376 -0.99583554
H -1.2703319 0.8467957 -2.3667052
H -1.2994819 -0.55555946 0.2944599
H -0.25456548 -0.9429191 -1.0633749
H 1.7006166 -2.2235365 1.942085
