title
 OpenBabel02282109583D

 16 15  0  0  0  0  0  0  0  0999 V2000
   -0.7571    3.1000   -1.7355 C   0  0  0  0  0  0  0  0  0  0  0  0
   -0.5774    1.7074   -1.6277 O   0  0  0  0  0  0  0  0  0  0  0  0
   -0.2216    1.3022   -0.3261 C   0  0  0  0  0  0  0  0  0  0  0  0
   -0.0588   -0.2098   -0.3429 C   0  0  0  0  0  0  0  0  0  0  0  0
    0.3243   -0.7776    0.9976 C   0  0  0  0  0  0  0  0  0  0  0  0
    0.4937   -0.1282    2.0050 O   0  0  0  0  0  0  0  0  0  0  0  0
    0.5133   -2.2997    1.0860 C   0  0  0  0  0  0  0  0  0  0  0  0
    0.3721   -3.0437    0.1525 O   0  0  0  0  0  0  0  0  0  0  0  0
    0.1635    3.6510   -1.4865 H   0  0  0  0  0  0  0  0  0  0  0  0
   -1.0285    3.3148   -2.7717 H   0  0  0  0  0  0  0  0  0  0  0  0
   -1.5609    3.4604   -1.0744 H   0  0  0  0  0  0  0  0  0  0  0  0
    0.7160    1.7835   -0.0044 H   0  0  0  0  0  0  0  0  0  0  0  0
   -0.9930    1.5950    0.4041 H   0  0  0  0  0  0  0  0  0  0  0  0
   -0.9828   -0.6980   -0.6784 H   0  0  0  0  0  0  0  0  0  0  0  0
    0.6959   -0.5129   -1.0798 H   0  0  0  0  0  0  0  0  0  0  0  0
    0.7944   -2.6362    2.1064 H   0  0  0  0  0  0  0  0  0  0  0  0
  1  2  1  0  0  0  0
  1  9  1  0  0  0  0
  1 11  1  0  0  0  0
  2  3  1  0  0  0  0
  3 12  1  0  0  0  0
  3 13  1  0  0  0  0
  4  3  1  0  0  0  0
  4  5  1  0  0  0  0
  5  7  1  0  0  0  0
  5  6  2  0  0  0  0
  7 16  1  0  0  0  0
  8  7  2  0  0  0  0
 10  1  1  0  0  0  0
 14  4  1  0  0  0  0
 15  4  1  0  0  0  0
M  END
