title
 OpenBabel02282109583D

 20 19  0  0  0  0  0  0  0  0999 V2000
   -1.2270    2.8803   -2.0064 C   0  0  0  0  0  0  0  0  0  0  0  0
   -1.1153    1.3664   -1.8442 C   0  0  0  0  0  0  0  0  0  0  0  0
   -0.3611    0.9412   -0.5889 C   0  0  0  0  0  0  0  0  0  0  0  0
    0.0907    1.7493    0.1899 O   0  0  0  0  0  0  0  0  0  0  0  0
   -0.2095   -0.5612   -0.3725 C   0  0  0  0  0  0  0  0  0  0  0  0
    0.5452   -0.9253    0.9041 C   0  0  0  0  0  0  0  0  0  0  0  0
    0.6820   -2.4304    1.0891 C   0  0  0  0  0  0  0  0  0  0  0  0
    1.3926   -2.6577    2.2958 O   0  0  0  0  0  0  0  0  0  0  0  0
   -0.2373    3.3407   -2.0589 H   0  0  0  0  0  0  0  0  0  0  0  0
   -1.7762    3.1325   -2.9179 H   0  0  0  0  0  0  0  0  0  0  0  0
   -1.7456    3.3261   -1.1540 H   0  0  0  0  0  0  0  0  0  0  0  0
   -2.1082    0.8963   -1.8148 H   0  0  0  0  0  0  0  0  0  0  0  0
   -0.6135    0.9104   -2.7090 H   0  0  0  0  0  0  0  0  0  0  0  0
   -1.2153   -1.0057   -0.3789 H   0  0  0  0  0  0  0  0  0  0  0  0
    0.2885   -0.9793   -1.2596 H   0  0  0  0  0  0  0  0  0  0  0  0
    1.5418   -0.4735    0.8897 H   0  0  0  0  0  0  0  0  0  0  0  0
    0.0329   -0.5022    1.7737 H   0  0  0  0  0  0  0  0  0  0  0  0
   -0.3178   -2.8959    1.1213 H   0  0  0  0  0  0  0  0  0  0  0  0
    1.2123   -2.8669    0.2257 H   0  0  0  0  0  0  0  0  0  0  0  0
    1.4825   -3.6071    2.4188 H   0  0  0  0  0  0  0  0  0  0  0  0
  1  2  1  0  0  0  0
  1 11  1  0  0  0  0
  2 12  1  0  0  0  0
  2  3  1  0  0  0  0
  3  5  1  0  0  0  0
  3  4  2  0  0  0  0
  5  6  1  0  0  0  0
  6  7  1  0  0  0  0
  6 17  1  0  0  0  0
  7 18  1  0  0  0  0
  7  8  1  0  0  0  0
  8 20  1  0  0  0  0
  9  1  1  0  0  0  0
 10  1  1  0  0  0  0
 13  2  1  0  0  0  0
 14  5  1  0  0  0  0
 15  5  1  0  0  0  0
 16  6  1  0  0  0  0
 19  7  1  0  0  0  0
M  END
