20
title
C 2.2983859 2.8615775 -0.0074178013
C 2.1061523 1.3471622 -0.012928339
C 0.6443524 0.91789514 -0.0011054965
O -0.2604956 1.7234312 0.0120864725
C 0.3814221 -0.5799551 -0.00663554
C -1.0989149 -0.9296745 0.005558095
O -1.2094014 -2.337144 -0.0008522727
C -2.5458655 -2.77718 0.009490381
H 3.361795 3.1162546 -0.015836796
H 1.8254348 3.3178363 -0.88067025
H 1.8413352 3.3093753 0.87857795
H 2.5830412 0.8886444 -0.8903222
H 2.5993807 0.8803128 0.8509552
H 0.8644697 -1.0252322 -0.8861389
H 0.8809902 -1.0344771 0.85880965
H -1.5851121 -0.50061405 0.8955012
H -1.6018689 -0.49126437 -0.87041247
H -3.0832329 -2.4333043 0.9076907
H -3.1001382 -2.423848 -0.8746569
H -2.5316758 -3.8699133 0.003558188
