22
title
C 2.3021486 3.2634635 -0.004618989
C 2.202743 1.7356211 -0.011664428
C 0.7555698 1.2327124 -0.0007376003
C 0.65198386 -0.29224652 -0.007727083
C -0.7789116 -0.8178224 0.003166328
O -1.7346756 -0.07505198 0.01679186
C -0.94018817 -2.3343775 -0.0037967118
C -2.3957574 -2.7948434 0.0075098933
H 3.3444295 3.5974057 -0.012556496
H 1.8064779 3.695233 -0.8810734
H 1.8228837 3.6860113 0.88534975
H 2.720779 1.3386688 -0.8952701
H 2.7371767 1.3295181 0.85790694
H 0.23070274 1.6233196 0.8788122
H 0.21435915 1.6324507 -0.8661738
H 1.1611793 -0.7155251 -0.88579977
H 1.1776028 -0.7245571 0.85616964
H -0.4073727 -2.7249749 -0.8818874
H -0.3908291 -2.7346327 0.85964084
H -2.9154208 -2.4225194 0.8939493
H -2.932079 -2.4131162 -0.86490273
H -2.4565504 -3.886778 0.0022303823
