20
title
C -1.1792681 3.313572 1.9615805
C -1.1113564 1.7851043 1.9081223
C -0.39811596 1.2651678 0.65584934
C -0.3296331 -0.2614807 0.60131276
C 0.36998108 -0.80764115 -0.6255888
O 0.83813417 -0.10120642 -1.4944736
C 0.4887326 -2.3224761 -0.77043045
O 1.1546736 -2.6693952 -1.9468614
H -0.1761168 3.7537837 1.9588084
H -1.7176601 3.715459 1.0962918
H -1.6927967 3.6589928 2.864029
H -0.59773403 1.4088243 2.8031473
H -2.1278546 1.3707986 1.9473855
H -0.9051221 1.6337179 -0.24338903
H 0.6187898 1.6716299 0.6087587
H 0.18371418 -0.6643163 1.4864372
H -1.3365109 -0.70218694 0.6363026
H 1.0122471 -2.7140944 0.11796246
H -0.5265138 -2.7526758 -0.7417475
H 1.369468 -1.8211895 -2.3685775
