title
 OpenBabel02282109583D

 21 20  0  0  0  0  0  0  0  0999 V2000
    1.9146    3.2042   -0.4351 C   0  0  0  0  0  0  0  0  0  0  0  0
    1.6708    1.6932   -0.4503 C   0  0  0  0  0  0  0  0  0  0  0  0
    0.6986    1.2503    0.6499 C   0  0  0  0  0  0  0  0  0  0  0  0
    0.4635   -0.1836    0.6649 N   0  0  0  0  0  0  0  0  0  0  0  0
   -0.6988   -0.7517    0.2260 C   0  0  0  0  0  0  0  0  0  0  0  0
   -1.6373   -0.0965   -0.1942 O   0  0  0  0  0  0  0  0  0  0  0  0
   -0.7520   -2.2756    0.3403 C   0  0  0  0  0  0  0  0  0  0  0  0
   -1.6409   -2.9007   -0.7356 C   0  0  0  0  0  0  0  0  0  0  0  0
    2.6095    3.5017   -1.2257 H   0  0  0  0  0  0  0  0  0  0  0  0
    0.9807    3.7561   -0.5867 H   0  0  0  0  0  0  0  0  0  0  0  0
    2.3396    3.5298    0.5211 H   0  0  0  0  0  0  0  0  0  0  0  0
    1.2636    1.3847   -1.4200 H   0  0  0  0  0  0  0  0  0  0  0  0
    2.6244    1.1618   -0.3291 H   0  0  0  0  0  0  0  0  0  0  0  0
    1.0756    1.5658    1.6318 H   0  0  0  0  0  0  0  0  0  0  0  0
   -0.2782    1.7170    0.5016 H   0  0  0  0  0  0  0  0  0  0  0  0
    1.2146   -0.7892    0.9529 H   0  0  0  0  0  0  0  0  0  0  0  0
    0.2594   -2.6985    0.3116 H   0  0  0  0  0  0  0  0  0  0  0  0
   -1.1539   -2.5066    1.3358 H   0  0  0  0  0  0  0  0  0  0  0  0
   -2.6202   -2.4182   -0.7341 H   0  0  0  0  0  0  0  0  0  0  0  0
   -1.2078   -2.7673   -1.7317 H   0  0  0  0  0  0  0  0  0  0  0  0
   -1.7701   -3.9724   -0.5608 H   0  0  0  0  0  0  0  0  0  0  0  0
  1 11  1  0  0  0  0
  2  1  1  0  0  0  0
  2 13  1  0  0  0  0
  2  3  1  0  0  0  0
  3  4  1  0  0  0  0
  3 14  1  0  0  0  0
  4 16  1  0  0  0  0
  5  7  1  0  0  0  0
  5  4  1  0  0  0  0
  6  5  2  0  0  0  0
  7 18  1  0  0  0  0
  8 19  1  0  0  0  0
  8 21  1  0  0  0  0
  8  7  1  0  0  0  0
  9  1  1  0  0  0  0
 10  1  1  0  0  0  0
 12  2  1  0  0  0  0
 15  3  1  0  0  0  0
 17  7  1  0  0  0  0
 20  8  1  0  0  0  0
M  END
