title
 OpenBabel02282109583D

 19 18  0  0  0  0  0  0  0  0999 V2000
    1.9683    3.3052   -0.0816 C   0  0  0  0  0  0  0  0  0  0  0  0
    1.7966    1.7856   -0.0155 C   0  0  0  0  0  0  0  0  0  0  0  0
    0.4500    1.3800    0.5954 C   0  0  0  0  0  0  0  0  0  0  0  0
    0.2705   -0.0595    0.6826 N   0  0  0  0  0  0  0  0  0  0  0  0
   -0.6123   -0.7455   -0.1033 C   0  0  0  0  0  0  0  0  0  0  0  0
   -1.3691   -0.2158   -0.8898 O   0  0  0  0  0  0  0  0  0  0  0  0
   -0.5247   -2.2694    0.0623 C   0  0  0  0  0  0  0  0  0  0  0  0
   -1.7914   -2.8229   -0.1929 O   0  0  0  0  0  0  0  0  0  0  0  0
    2.9337    3.5763   -0.5184 H   0  0  0  0  0  0  0  0  0  0  0  0
    1.1843    3.7646   -0.6931 H   0  0  0  0  0  0  0  0  0  0  0  0
    1.9161    3.7556    0.9160 H   0  0  0  0  0  0  0  0  0  0  0  0
    1.8709    1.3521   -1.0196 H   0  0  0  0  0  0  0  0  0  0  0  0
    2.6118    1.3456    0.5747 H   0  0  0  0  0  0  0  0  0  0  0  0
    0.3449    1.8211    1.5954 H   0  0  0  0  0  0  0  0  0  0  0  0
   -0.3752    1.7500   -0.0180 H   0  0  0  0  0  0  0  0  0  0  0  0
    0.8498   -0.5759    1.3246 H   0  0  0  0  0  0  0  0  0  0  0  0
    0.2355   -2.6239   -0.6532 H   0  0  0  0  0  0  0  0  0  0  0  0
   -0.1604   -2.5191    1.0734 H   0  0  0  0  0  0  0  0  0  0  0  0
   -1.6823   -3.7678   -0.3301 H   0  0  0  0  0  0  0  0  0  0  0  0
  1  2  1  0  0  0  0
  1 11  1  0  0  0  0
  2 13  1  0  0  0  0
  2  3  1  0  0  0  0
  3  4  1  0  0  0  0
  3 14  1  0  0  0  0
  4 16  1  0  0  0  0
  5  7  1  0  0  0  0
  5  4  1  0  0  0  0
  6  5  2  0  0  0  0
  7 18  1  0  0  0  0
  8  7  1  0  0  0  0
  9  1  1  0  0  0  0
 10  1  1  0  0  0  0
 12  2  1  0  0  0  0
 15  3  1  0  0  0  0
 17  7  1  0  0  0  0
 19  8  1  0  0  0  0
M  END
