title
 OpenBabel02282109583D

 20 19  0  0  0  0  0  0  0  0999 V2000
   -1.1724    3.2732    1.6755 C   0  0  0  0  0  0  0  0  0  0  0  0
   -1.1630    1.7521    1.5049 C   0  0  0  0  0  0  0  0  0  0  0  0
    0.0869    1.2578    0.7708 C   0  0  0  0  0  0  0  0  0  0  0  0
    0.1080   -0.1879    0.6208 N   0  0  0  0  0  0  0  0  0  0  0  0
    0.4019   -0.7784   -0.5922 C   0  0  0  0  0  0  0  0  0  0  0  0
    0.5212   -0.1520   -1.6322 O   0  0  0  0  0  0  0  0  0  0  0  0
    0.5571   -2.1515   -0.5188 N   0  0  0  0  0  0  0  0  0  0  0  0
    0.6464   -2.9311   -1.7400 C   0  0  0  0  0  0  0  0  0  0  0  0
   -0.3029    3.6150    2.2482 H   0  0  0  0  0  0  0  0  0  0  0  0
   -1.1473    3.7795    0.7045 H   0  0  0  0  0  0  0  0  0  0  0  0
   -2.0702    3.6081    2.2032 H   0  0  0  0  0  0  0  0  0  0  0  0
   -1.2224    1.2704    2.4906 H   0  0  0  0  0  0  0  0  0  0  0  0
   -2.0492    1.4255    0.9487 H   0  0  0  0  0  0  0  0  0  0  0  0
    0.1298    1.6670   -0.2412 H   0  0  0  0  0  0  0  0  0  0  0  0
    0.9880    1.6058    1.2983 H   0  0  0  0  0  0  0  0  0  0  0  0
    0.2662   -0.7306    1.4551 H   0  0  0  0  0  0  0  0  0  0  0  0
    0.1539   -2.6151    0.2802 H   0  0  0  0  0  0  0  0  0  0  0  0
   -0.3351   -3.2501   -2.1170 H   0  0  0  0  0  0  0  0  0  0  0  0
    1.1138   -2.3050   -2.5000 H   0  0  0  0  0  0  0  0  0  0  0  0
    1.2631   -3.8190   -1.5725 H   0  0  0  0  0  0  0  0  0  0  0  0
  1 11  1  0  0  0  0
  1  9  1  0  0  0  0
  2  1  1  0  0  0  0
  2 12  1  0  0  0  0
  3 15  1  0  0  0  0
  3  2  1  0  0  0  0
  4  3  1  0  0  0  0
  4 16  1  0  0  0  0
  5  7  1  0  0  0  0
  5  4  1  0  0  0  0
  6  5  2  0  0  0  0
  7 17  1  0  0  0  0
  8 20  1  0  0  0  0
  8  7  1  0  0  0  0
 10  1  1  0  0  0  0
 13  2  1  0  0  0  0
 14  3  1  0  0  0  0
 18  8  1  0  0  0  0
 19  8  1  0  0  0  0
M  END
