20
title
C -1.1723746 3.27321 1.6755005
C -1.1629577 1.7520882 1.5049108
C 0.08685584 1.2577909 0.7707787
N 0.107987836 -0.18785839 0.62075824
C 0.40190417 -0.7783734 -0.59215134
O 0.5211602 -0.15196018 -1.6321822
N 0.557079 -2.15146 -0.5188491
C 0.6463544 -2.9310536 -1.740002
H -0.302904 3.6150365 2.248232
H -1.1472934 3.7795064 0.7044745
H -2.0701563 3.6081402 2.203215
H -1.2223874 1.2704331 2.4905918
H -2.0492206 1.4254955 0.94867045
H 0.12980755 1.6670301 -0.24119143
H 0.9880381 1.605761 1.2982814
H 0.26623613 -0.7305562 1.4550503
H 0.1539206 -2.6150537 0.28020543
H -0.33508456 -3.250094 -2.117026
H 1.113786 -2.3049688 -2.5000036
H 1.2631385 -3.8189602 -1.572492
