19
title
C -1.3598005 3.1190217 1.5519654
C -1.1494068 1.6180046 1.3393185
C 0.27088463 1.2926885 0.8597983
N 0.5102924 -0.12550646 0.66683173
C 0.41551256 -0.7154227 -0.5554583
O 0.252612 -0.14358455 -1.6112969
O 0.54870737 -2.062856 -0.42641568
C 0.49434495 -2.7846258 -1.6575465
H -0.66744316 3.5160732 2.3030093
H -1.1953453 3.6764693 0.62341464
H -2.3770366 3.3328388 1.8925266
H -1.3485976 1.0770817 2.2738783
H -1.8623967 1.2364991 0.5993433
H 0.46153533 1.7740958 -0.10273899
H 1.0066155 1.6810577 1.575287
H 0.55522573 -0.7366782 1.4657605
H -0.4601363 -2.6218407 -2.165118
H 1.302147 -2.4777 -2.3272703
H 0.60549474 -3.8358848 -1.3888824
