20
title
C 2.124872 3.2172353 -0.0032701062
C 1.9850527 1.692415 -0.010260693
C 0.5288341 1.2570587 0.0016499388
O 0.49801314 -0.18235667 -0.0059815794
C -0.7269645 -0.746705 0.0033822919
O -1.7539742 -0.11483009 0.017168432
C -0.62220716 -2.2590988 -0.005627128
C -1.9852037 -2.9465377 0.0020416325
H 3.177571 3.5131254 -0.011951774
H 1.6456697 3.6660514 -0.88011
H 1.6629723 3.6563601 0.88764954
H 2.4743063 1.2712042 -0.8960635
H 2.491557 1.2615635 0.8610914
H 0.0029509102 1.6221166 0.89075047
H -0.0143578015 1.631823 -0.87289107
H -0.03157639 -2.5464709 -0.8836336
H -0.017330643 -2.5556605 0.8595633
H -1.8659 -4.0335326 -0.0043719327
H -2.5597246 -2.6663535 0.88849413
H -2.5741022 -2.6576045 -0.8720952
