title
 OpenBabel02282109583D

 20 19  0  0  0  0  0  0  0  0999 V2000
    2.1249    3.2172   -0.0033 C   0  0  0  0  0  0  0  0  0  0  0  0
    1.9851    1.6924   -0.0103 C   0  0  0  0  0  0  0  0  0  0  0  0
    0.5288    1.2571    0.0016 C   0  0  0  0  0  0  0  0  0  0  0  0
    0.4980   -0.1824   -0.0060 O   0  0  0  0  0  0  0  0  0  0  0  0
   -0.7270   -0.7467    0.0034 C   0  0  0  0  0  0  0  0  0  0  0  0
   -1.7540   -0.1148    0.0172 O   0  0  0  0  0  0  0  0  0  0  0  0
   -0.6222   -2.2591   -0.0056 C   0  0  0  0  0  0  0  0  0  0  0  0
   -1.9852   -2.9465    0.0020 C   0  0  0  0  0  0  0  0  0  0  0  0
    3.1776    3.5131   -0.0120 H   0  0  0  0  0  0  0  0  0  0  0  0
    1.6457    3.6661   -0.8801 H   0  0  0  0  0  0  0  0  0  0  0  0
    1.6630    3.6564    0.8876 H   0  0  0  0  0  0  0  0  0  0  0  0
    2.4743    1.2712   -0.8961 H   0  0  0  0  0  0  0  0  0  0  0  0
    2.4916    1.2616    0.8611 H   0  0  0  0  0  0  0  0  0  0  0  0
    0.0030    1.6221    0.8908 H   0  0  0  0  0  0  0  0  0  0  0  0
   -0.0144    1.6318   -0.8729 H   0  0  0  0  0  0  0  0  0  0  0  0
   -0.0316   -2.5465   -0.8836 H   0  0  0  0  0  0  0  0  0  0  0  0
   -0.0173   -2.5557    0.8596 H   0  0  0  0  0  0  0  0  0  0  0  0
   -1.8659   -4.0335   -0.0044 H   0  0  0  0  0  0  0  0  0  0  0  0
   -2.5597   -2.6664    0.8885 H   0  0  0  0  0  0  0  0  0  0  0  0
   -2.5741   -2.6576   -0.8721 H   0  0  0  0  0  0  0  0  0  0  0  0
  1 11  1  0  0  0  0
  2  1  1  0  0  0  0
  2  3  1  0  0  0  0
  2 13  1  0  0  0  0
  3 14  1  0  0  0  0
  4  3  1  0  0  0  0
  4  5  1  0  0  0  0
  5  6  2  0  0  0  0
  7  8  1  0  0  0  0
  7  5  1  0  0  0  0
  7 17  1  0  0  0  0
  8 19  1  0  0  0  0
  9  1  1  0  0  0  0
 10  1  1  0  0  0  0
 12  2  1  0  0  0  0
 15  3  1  0  0  0  0
 16  7  1  0  0  0  0
 18  8  1  0  0  0  0
 20  8  1  0  0  0  0
M  END
