title
 OpenBabel02282109583D

 19 18  0  0  0  0  0  0  0  0999 V2000
   -1.0976    3.2226    1.8569 C   0  0  0  0  0  0  0  0  0  0  0  0
   -1.0543    1.6996    1.7038 C   0  0  0  0  0  0  0  0  0  0  0  0
   -0.2646    1.2768    0.4762 C   0  0  0  0  0  0  0  0  0  0  0  0
   -0.2784   -0.1636    0.4149 O   0  0  0  0  0  0  0  0  0  0  0  0
    0.3789   -0.7193   -0.6186 C   0  0  0  0  0  0  0  0  0  0  0  0
    0.9606   -0.0926   -1.4693 O   0  0  0  0  0  0  0  0  0  0  0  0
    0.2884   -2.2433   -0.5683 C   0  0  0  0  0  0  0  0  0  0  0  0
    0.9700   -2.9384   -1.6456 N   0  0  0  0  0  0  0  0  0  0  0  0
   -0.0910    3.6425    1.9589 H   0  0  0  0  0  0  0  0  0  0  0  0
   -1.5686    3.6979    0.9896 H   0  0  0  0  0  0  0  0  0  0  0  0
   -1.6688    3.5096    2.7440 H   0  0  0  0  0  0  0  0  0  0  0  0
   -0.6024    1.2422    2.5915 H   0  0  0  0  0  0  0  0  0  0  0  0
   -2.0710    1.2973    1.6278 H   0  0  0  0  0  0  0  0  0  0  0  0
   -0.7004    1.6769   -0.4458 H   0  0  0  0  0  0  0  0  0  0  0  0
    0.7742    1.6216    0.5218 H   0  0  0  0  0  0  0  0  0  0  0  0
    0.6850   -2.5726    0.3993 H   0  0  0  0  0  0  0  0  0  0  0  0
   -0.7731   -2.5174   -0.5589 H   0  0  0  0  0  0  0  0  0  0  0  0
    0.6053   -2.6055   -2.5342 H   0  0  0  0  0  0  0  0  0  0  0  0
    1.9473   -2.6588   -1.6507 H   0  0  0  0  0  0  0  0  0  0  0  0
  1  9  1  0  0  0  0
  1 11  1  0  0  0  0
  2  1  1  0  0  0  0
  2 12  1  0  0  0  0
  3 15  1  0  0  0  0
  3  2  1  0  0  0  0
  4  3  1  0  0  0  0
  5  7  1  0  0  0  0
  5  4  1  0  0  0  0
  6  5  2  0  0  0  0
  7 17  1  0  0  0  0
  7 16  1  0  0  0  0
  8  7  1  0  0  0  0
 10  1  1  0  0  0  0
 13  2  1  0  0  0  0
 14  3  1  0  0  0  0
 18  8  1  0  0  0  0
 19  8  1  0  0  0  0
M  END
