18
title
C 2.1183248 3.2611804 -0.0028939971
C 1.9832658 1.7357696 -0.0097632455
C 0.52838784 1.296925 0.0018013698
O 0.50009984 -0.14335278 -0.0055532428
C -0.7251484 -0.70678467 0.002702269
O -1.7587711 -0.097436346 0.015736831
C -0.57541317 -2.2203612 -0.0063426187
O -1.8530122 -2.8017778 0.0042416016
H 3.17021 3.5597994 -0.011287505
H 1.6381352 3.70843 -0.8799252
H 1.6549312 3.6989756 0.8878373
H 2.473906 1.3162243 -0.89559597
H 2.490722 1.306816 0.86197567
H 0.0010822454 1.6596881 0.8909079
H -0.015776332 1.6690446 -0.8731636
H 0.013527457 -2.4892879 -0.89762086
H 0.032074515 -2.4981089 0.8697171
H -1.7423409 -3.756734 -0.009069653
