title
 OpenBabel02282109583D

 18 17  0  0  0  0  0  0  0  0999 V2000
    2.1183    3.2612   -0.0029 C   0  0  0  0  0  0  0  0  0  0  0  0
    1.9833    1.7358   -0.0098 C   0  0  0  0  0  0  0  0  0  0  0  0
    0.5284    1.2969    0.0018 C   0  0  0  0  0  0  0  0  0  0  0  0
    0.5001   -0.1434   -0.0056 O   0  0  0  0  0  0  0  0  0  0  0  0
   -0.7251   -0.7068    0.0027 C   0  0  0  0  0  0  0  0  0  0  0  0
   -1.7588   -0.0974    0.0157 O   0  0  0  0  0  0  0  0  0  0  0  0
   -0.5754   -2.2204   -0.0063 C   0  0  0  0  0  0  0  0  0  0  0  0
   -1.8530   -2.8018    0.0042 O   0  0  0  0  0  0  0  0  0  0  0  0
    3.1702    3.5598   -0.0113 H   0  0  0  0  0  0  0  0  0  0  0  0
    1.6381    3.7084   -0.8799 H   0  0  0  0  0  0  0  0  0  0  0  0
    1.6549    3.6990    0.8878 H   0  0  0  0  0  0  0  0  0  0  0  0
    2.4739    1.3162   -0.8956 H   0  0  0  0  0  0  0  0  0  0  0  0
    2.4907    1.3068    0.8620 H   0  0  0  0  0  0  0  0  0  0  0  0
    0.0011    1.6597    0.8909 H   0  0  0  0  0  0  0  0  0  0  0  0
   -0.0158    1.6690   -0.8732 H   0  0  0  0  0  0  0  0  0  0  0  0
    0.0135   -2.4893   -0.8976 H   0  0  0  0  0  0  0  0  0  0  0  0
    0.0321   -2.4981    0.8697 H   0  0  0  0  0  0  0  0  0  0  0  0
   -1.7423   -3.7567   -0.0091 H   0  0  0  0  0  0  0  0  0  0  0  0
  1 11  1  0  0  0  0
  2  1  1  0  0  0  0
  2  3  1  0  0  0  0
  2 13  1  0  0  0  0
  3 14  1  0  0  0  0
  4  3  1  0  0  0  0
  4  5  1  0  0  0  0
  5  6  2  0  0  0  0
  7  5  1  0  0  0  0
  7  8  1  0  0  0  0
  7 17  1  0  0  0  0
  9  1  1  0  0  0  0
 10  1  1  0  0  0  0
 12  2  1  0  0  0  0
 15  3  1  0  0  0  0
 16  7  1  0  0  0  0
 18  8  1  0  0  0  0
M  END
