19
title
C -1.138713 3.1640751 1.859797
C -0.94226515 1.6484551 1.7674277
C -0.3230472 1.2369096 0.44124782
O -0.18040402 -0.1914252 0.45018423
C 0.3686925 -0.7236836 -0.6727418
O 0.72611356 -0.07831335 -1.634307
N 0.45020065 -2.0753589 -0.54386556
C 0.9955305 -2.9213016 -1.5820059
H -0.1856456 3.6962185 1.7681453
H -1.7995746 3.529801 1.0664324
H -1.5844023 3.4432576 2.8186374
H -0.2985331 1.2996392 2.583317
H -1.9031628 1.134188 1.8855004
H -0.95131505 1.5337238 -0.405892
H 0.6594267 1.6990114 0.29460096
H 0.114287004 -2.4768074 0.31496346
H 1.2919356 -2.2740748 -2.4083016
H 1.8755068 -3.473317 -1.2317034
H 0.25399765 -3.6422026 -1.9455634
