title
 OpenBabel02282109583D

 20 19  0  0  0  0  0  0  0  0999 V2000
    2.2319    2.9870    0.0275 C   0  0  0  0  0  0  0  0  0  0  0  0
    2.1902    1.4726   -0.0795 C   0  0  0  0  0  0  0  0  0  0  0  0
    0.8428    1.0543    0.0250 O   0  0  0  0  0  0  0  0  0  0  0  0
    0.6864   -0.3273   -0.0620 C   0  0  0  0  0  0  0  0  0  0  0  0
   -0.7904   -0.7089    0.0248 C   0  0  0  0  0  0  0  0  0  0  0  0
   -1.6698    0.1153    0.0379 O   0  0  0  0  0  0  0  0  0  0  0  0
   -1.0616   -2.2080    0.0928 C   0  0  0  0  0  0  0  0  0  0  0  0
   -2.5397   -2.5599   -0.0589 C   0  0  0  0  0  0  0  0  0  0  0  0
    3.2625    3.3459   -0.0505 H   0  0  0  0  0  0  0  0  0  0  0  0
    1.6413    3.4429   -0.7718 H   0  0  0  0  0  0  0  0  0  0  0  0
    1.8198    3.3141    0.9861 H   0  0  0  0  0  0  0  0  0  0  0  0
    2.6178    1.1384   -1.0405 H   0  0  0  0  0  0  0  0  0  0  0  0
    2.7955    1.0094    0.7188 H   0  0  0  0  0  0  0  0  0  0  0  0
    1.0816   -0.7268   -1.0159 H   0  0  0  0  0  0  0  0  0  0  0  0
    1.2375   -0.8578    0.7370 H   0  0  0  0  0  0  0  0  0  0  0  0
   -0.4484   -2.7129   -0.6658 H   0  0  0  0  0  0  0  0  0  0  0  0
   -0.6735   -2.5652    1.0576 H   0  0  0  0  0  0  0  0  0  0  0  0
   -2.6935   -3.6379    0.0400 H   0  0  0  0  0  0  0  0  0  0  0  0
   -3.1373   -2.0497    0.6998 H   0  0  0  0  0  0  0  0  0  0  0  0
   -2.9184   -2.2456   -1.0353 H   0  0  0  0  0  0  0  0  0  0  0  0
  1 11  1  0  0  0  0
  2  3  1  0  0  0  0
  2  1  1  0  0  0  0
  2 13  1  0  0  0  0
  4  5  1  0  0  0  0
  4  3  1  0  0  0  0
  4 15  1  0  0  0  0
  5  6  2  0  0  0  0
  5  7  1  0  0  0  0
  7 17  1  0  0  0  0
  8 18  1  0  0  0  0
  8  7  1  0  0  0  0
  8 19  1  0  0  0  0
  9  1  1  0  0  0  0
 10  1  1  0  0  0  0
 12  2  1  0  0  0  0
 14  4  1  0  0  0  0
 16  7  1  0  0  0  0
 20  8  1  0  0  0  0
M  END
