18
title
C 2.2103555 3.0425718 0.14057748
C 2.1887283 1.5309516 -0.0033870493
O 0.8444714 1.0946587 0.07277466
C 0.70487756 -0.28517038 -0.054199547
C -0.7740076 -0.6708389 -0.036571287
O -1.663073 0.12414748 -0.17211138
C -1.0159231 -2.1662965 0.16673626
O -2.355087 -2.468535 -0.118931405
H 3.2374024 3.4152563 0.08394876
H 1.6240036 3.5102386 -0.6549176
H 1.7829374 3.3415756 1.1015626
H 2.6315026 1.224681 -0.96656334
H 2.7886748 1.0555178 0.7915378
H 1.132497 -0.6554187 -1.0061911
H 1.2354596 -0.83168536 0.74829555
H -0.30530176 -2.7257586 -0.4672819
H -0.74232274 -2.393328 1.2129413
H -2.5009067 -3.3975906 0.08112901
