title
 OpenBabel02282109583D

 18 17  0  0  0  0  0  0  0  0999 V2000
    2.2104    3.0426    0.1406 C   0  0  0  0  0  0  0  0  0  0  0  0
    2.1887    1.5310   -0.0034 C   0  0  0  0  0  0  0  0  0  0  0  0
    0.8445    1.0947    0.0728 O   0  0  0  0  0  0  0  0  0  0  0  0
    0.7049   -0.2852   -0.0542 C   0  0  0  0  0  0  0  0  0  0  0  0
   -0.7740   -0.6708   -0.0366 C   0  0  0  0  0  0  0  0  0  0  0  0
   -1.6631    0.1241   -0.1721 O   0  0  0  0  0  0  0  0  0  0  0  0
   -1.0159   -2.1663    0.1667 C   0  0  0  0  0  0  0  0  0  0  0  0
   -2.3551   -2.4685   -0.1189 O   0  0  0  0  0  0  0  0  0  0  0  0
    3.2374    3.4153    0.0839 H   0  0  0  0  0  0  0  0  0  0  0  0
    1.6240    3.5102   -0.6549 H   0  0  0  0  0  0  0  0  0  0  0  0
    1.7829    3.3416    1.1016 H   0  0  0  0  0  0  0  0  0  0  0  0
    2.6315    1.2247   -0.9666 H   0  0  0  0  0  0  0  0  0  0  0  0
    2.7887    1.0555    0.7915 H   0  0  0  0  0  0  0  0  0  0  0  0
    1.1325   -0.6554   -1.0062 H   0  0  0  0  0  0  0  0  0  0  0  0
    1.2355   -0.8317    0.7483 H   0  0  0  0  0  0  0  0  0  0  0  0
   -0.3053   -2.7258   -0.4673 H   0  0  0  0  0  0  0  0  0  0  0  0
   -0.7423   -2.3933    1.2129 H   0  0  0  0  0  0  0  0  0  0  0  0
   -2.5009   -3.3976    0.0811 H   0  0  0  0  0  0  0  0  0  0  0  0
  1 11  1  0  0  0  0
  2  3  1  0  0  0  0
  2  1  1  0  0  0  0
  2 13  1  0  0  0  0
  4  5  1  0  0  0  0
  4  3  1  0  0  0  0
  4 15  1  0  0  0  0
  5  7  1  0  0  0  0
  6  5  2  0  0  0  0
  7 17  1  0  0  0  0
  8 18  1  0  0  0  0
  8  7  1  0  0  0  0
  9  1  1  0  0  0  0
 10  1  1  0  0  0  0
 12  2  1  0  0  0  0
 14  4  1  0  0  0  0
 16  7  1  0  0  0  0
M  END
