title
 OpenBabel02282109583D

 19 18  0  0  0  0  0  0  0  0999 V2000
    1.7097    3.1451   -0.2546 C   0  0  0  0  0  0  0  0  0  0  0  0
    1.5548    1.7079   -0.3621 N   0  0  0  0  0  0  0  0  0  0  0  0
    0.5413    1.0285    0.2513 C   0  0  0  0  0  0  0  0  0  0  0  0
   -0.3168    1.5791    0.9187 O   0  0  0  0  0  0  0  0  0  0  0  0
    0.5753   -0.4872    0.0601 C   0  0  0  0  0  0  0  0  0  0  0  0
   -0.8286   -1.0677   -0.1305 C   0  0  0  0  0  0  0  0  0  0  0  0
   -0.8397   -2.5897   -0.1130 C   0  0  0  0  0  0  0  0  0  0  0  0
   -2.1754   -3.0169   -0.3274 O   0  0  0  0  0  0  0  0  0  0  0  0
    2.6603    3.4120    0.2213 H   0  0  0  0  0  0  0  0  0  0  0  0
    1.6637    3.6268   -1.2378 H   0  0  0  0  0  0  0  0  0  0  0  0
    0.8876    3.5122    0.3607 H   0  0  0  0  0  0  0  0  0  0  0  0
    2.2245    1.1880   -0.9034 H   0  0  0  0  0  0  0  0  0  0  0  0
    1.2315   -0.7636   -0.7744 H   0  0  0  0  0  0  0  0  0  0  0  0
    1.0289   -0.9098    0.9674 H   0  0  0  0  0  0  0  0  0  0  0  0
   -1.4784   -0.6859    0.6613 H   0  0  0  0  0  0  0  0  0  0  0  0
   -1.2535   -0.7241   -1.0806 H   0  0  0  0  0  0  0  0  0  0  0  0
   -0.1668   -2.9816   -0.8950 H   0  0  0  0  0  0  0  0  0  0  0  0
   -0.4538   -2.9515    0.8550 H   0  0  0  0  0  0  0  0  0  0  0  0
   -2.1921   -3.9779   -0.3035 H   0  0  0  0  0  0  0  0  0  0  0  0
  1  9  1  0  0  0  0
  1 11  1  0  0  0  0
  2  1  1  0  0  0  0
  2  3  1  0  0  0  0
  3  4  2  0  0  0  0
  5  3  1  0  0  0  0
  5 14  1  0  0  0  0
  6  7  1  0  0  0  0
  6  5  1  0  0  0  0
  6 15  1  0  0  0  0
  7 18  1  0  0  0  0
  8 19  1  0  0  0  0
  8  7  1  0  0  0  0
 10  1  1  0  0  0  0
 12  2  1  0  0  0  0
 13  5  1  0  0  0  0
 16  6  1  0  0  0  0
 17  7  1  0  0  0  0
M  END
