19
title
C -0.7223329 3.0345993 1.7188244
N -0.548807 1.6035937 1.5661161
C -0.40424535 1.0044426 0.34829274
O -0.37658116 1.6280105 -0.6997176
C -0.30001912 -0.5163818 0.39550534
C 0.5344134 -1.0576067 -0.7581015
O 0.49261683 -2.4673903 -0.698664
C 1.2190634 -3.075225 -1.7389816
H 0.07151997 3.4689913 2.3365765
H -0.6778705 3.4728158 0.7212091
H -1.6903523 3.2757323 2.172715
H -0.56128985 1.0232186 2.387956
H 0.11254811 -0.86004645 1.3503214
H -1.3118517 -0.93366534 0.31944743
H 0.13198328 -0.6838642 -1.7099856
H 1.5741628 -0.6969417 -0.6837314
H 0.82868654 -2.7934177 -2.7297177
H 2.2869663 -2.8056724 -1.7048506
H 1.1249168 -4.157153 -1.6166652
