title
 OpenBabel02282109583D

 19 18  0  0  0  0  0  0  0  0999 V2000
   -0.7223    3.0346    1.7188 C   0  0  0  0  0  0  0  0  0  0  0  0
   -0.5488    1.6036    1.5661 N   0  0  0  0  0  0  0  0  0  0  0  0
   -0.4042    1.0044    0.3483 C   0  0  0  0  0  0  0  0  0  0  0  0
   -0.3766    1.6280   -0.6997 O   0  0  0  0  0  0  0  0  0  0  0  0
   -0.3000   -0.5164    0.3955 C   0  0  0  0  0  0  0  0  0  0  0  0
    0.5344   -1.0576   -0.7581 C   0  0  0  0  0  0  0  0  0  0  0  0
    0.4926   -2.4674   -0.6987 O   0  0  0  0  0  0  0  0  0  0  0  0
    1.2191   -3.0752   -1.7390 C   0  0  0  0  0  0  0  0  0  0  0  0
    0.0715    3.4690    2.3366 H   0  0  0  0  0  0  0  0  0  0  0  0
   -0.6779    3.4728    0.7212 H   0  0  0  0  0  0  0  0  0  0  0  0
   -1.6904    3.2757    2.1727 H   0  0  0  0  0  0  0  0  0  0  0  0
   -0.5613    1.0232    2.3880 H   0  0  0  0  0  0  0  0  0  0  0  0
    0.1125   -0.8600    1.3503 H   0  0  0  0  0  0  0  0  0  0  0  0
   -1.3119   -0.9337    0.3194 H   0  0  0  0  0  0  0  0  0  0  0  0
    0.1320   -0.6839   -1.7100 H   0  0  0  0  0  0  0  0  0  0  0  0
    1.5742   -0.6969   -0.6837 H   0  0  0  0  0  0  0  0  0  0  0  0
    0.8287   -2.7934   -2.7297 H   0  0  0  0  0  0  0  0  0  0  0  0
    2.2870   -2.8057   -1.7049 H   0  0  0  0  0  0  0  0  0  0  0  0
    1.1249   -4.1572   -1.6167 H   0  0  0  0  0  0  0  0  0  0  0  0
  1 11  1  0  0  0  0
  1  9  1  0  0  0  0
  2  1  1  0  0  0  0
  2 12  1  0  0  0  0
  3  5  1  0  0  0  0
  3  2  1  0  0  0  0
  4  3  2  0  0  0  0
  5 13  1  0  0  0  0
  6  7  1  0  0  0  0
  6 16  1  0  0  0  0
  6  5  1  0  0  0  0
  8 18  1  0  0  0  0
  8 19  1  0  0  0  0
  8  7  1  0  0  0  0
 10  1  1  0  0  0  0
 14  5  1  0  0  0  0
 15  6  1  0  0  0  0
 17  8  1  0  0  0  0
M  END
