title
 OpenBabel02282109583D

 18 17  0  0  0  0  0  0  0  0999 V2000
    1.3699    3.0697   -0.3278 C   0  0  0  0  0  0  0  0  0  0  0  0
    1.2360    1.6745    0.0459 N   0  0  0  0  0  0  0  0  0  0  0  0
    0.0246    1.0290   -0.1172 C   0  0  0  0  0  0  0  0  0  0  0  0
   -1.0120    1.6128   -0.3894 O   0  0  0  0  0  0  0  0  0  0  0  0
    0.0944   -0.3383    0.0543 N   0  0  0  0  0  0  0  0  0  0  0  0
   -1.1225   -1.1214    0.1590 C   0  0  0  0  0  0  0  0  0  0  0  0
   -0.8359   -2.5703   -0.1940 C   0  0  0  0  0  0  0  0  0  0  0  0
    0.1505   -3.0386    0.7222 O   0  0  0  0  0  0  0  0  0  0  0  0
    2.0950    3.5660    0.3243 H   0  0  0  0  0  0  0  0  0  0  0  0
    1.6857    3.2042   -1.3715 H   0  0  0  0  0  0  0  0  0  0  0  0
    0.3938    3.5395   -0.2053 H   0  0  0  0  0  0  0  0  0  0  0  0
    2.0680    1.1084   -0.0050 H   0  0  0  0  0  0  0  0  0  0  0  0
    0.8820   -0.7257    0.5513 H   0  0  0  0  0  0  0  0  0  0  0  0
   -1.5498   -1.0772    1.1720 H   0  0  0  0  0  0  0  0  0  0  0  0
   -1.8582   -0.6954   -0.5256 H   0  0  0  0  0  0  0  0  0  0  0  0
   -1.7636   -3.1566   -0.1163 H   0  0  0  0  0  0  0  0  0  0  0  0
   -0.4725   -2.6324   -1.2302 H   0  0  0  0  0  0  0  0  0  0  0  0
    0.4249   -3.9193    0.4520 H   0  0  0  0  0  0  0  0  0  0  0  0
  1 11  1  0  0  0  0
  1  2  1  0  0  0  0
  1  9  1  0  0  0  0
  3  2  1  0  0  0  0
  3  5  1  0  0  0  0
  4  3  2  0  0  0  0
  5  6  1  0  0  0  0
  5 13  1  0  0  0  0
  6 14  1  0  0  0  0
  7 16  1  0  0  0  0
  7  6  1  0  0  0  0
  7  8  1  0  0  0  0
 10  1  1  0  0  0  0
 12  2  1  0  0  0  0
 15  6  1  0  0  0  0
 17  7  1  0  0  0  0
 18  8  1  0  0  0  0
M  END
