title
 OpenBabel02282109583D

 17 16  0  0  0  0  0  0  0  0999 V2000
   -0.7566    2.9431    1.3539 C   0  0  0  0  0  0  0  0  0  0  0  0
   -0.6412    1.5158    1.1440 N   0  0  0  0  0  0  0  0  0  0  0  0
    0.1112    0.9879    0.1436 C   0  0  0  0  0  0  0  0  0  0  0  0
    0.7264    1.6096   -0.6930 O   0  0  0  0  0  0  0  0  0  0  0  0
    0.0755   -0.3735    0.2123 O   0  0  0  0  0  0  0  0  0  0  0  0
    0.8249   -1.0588   -0.8064 C   0  0  0  0  0  0  0  0  0  0  0  0
    0.5736   -2.5398   -0.5901 C   0  0  0  0  0  0  0  0  0  0  0  0
   -0.7906   -2.8786   -0.7458 O   0  0  0  0  0  0  0  0  0  0  0  0
   -0.2323    3.4377    0.5357 H   0  0  0  0  0  0  0  0  0  0  0  0
   -1.8048    3.2614    1.3487 H   0  0  0  0  0  0  0  0  0  0  0  0
   -0.3017    3.2518    2.3025 H   0  0  0  0  0  0  0  0  0  0  0  0
   -1.0653    0.8741    1.7921 H   0  0  0  0  0  0  0  0  0  0  0  0
    0.4753   -0.7382   -1.7919 H   0  0  0  0  0  0  0  0  0  0  0  0
    1.8880   -0.8122   -0.7162 H   0  0  0  0  0  0  0  0  0  0  0  0
    1.1314   -3.1095   -1.3404 H   0  0  0  0  0  0  0  0  0  0  0  0
    0.9523   -2.8322    0.4024 H   0  0  0  0  0  0  0  0  0  0  0  0
   -1.2846   -2.2874   -0.1672 H   0  0  0  0  0  0  0  0  0  0  0  0
  1 11  1  0  0  0  0
  2  1  1  0  0  0  0
  2 12  1  0  0  0  0
  3  5  1  0  0  0  0
  3  2  1  0  0  0  0
  4  3  2  0  0  0  0
  6 14  1  0  0  0  0
  6  7  1  0  0  0  0
  6  5  1  0  0  0  0
  7 16  1  0  0  0  0
  8  7  1  0  0  0  0
  8 17  1  0  0  0  0
  9  1  1  0  0  0  0
 10  1  1  0  0  0  0
 13  6  1  0  0  0  0
 15  7  1  0  0  0  0
M  END
