18
title
C 1.9137229 2.933635 -0.0032941678
O 1.7804124 1.5073364 -0.009999954
C 0.51121664 1.0467368 0.001156818
O -0.45681974 1.7639111 0.015650418
C 0.4945852 -0.46836516 -0.0069835237
C -0.918741 -1.0469198 0.0028720328
C -0.91667104 -2.5695813 -0.0049298825
O -2.2663183 -3.0050256 0.005093908
H 2.9855733 3.132254 -0.013565951
H 1.4354336 3.3711052 -0.88344806
H 1.4543042 3.361005 0.8917468
H 1.0596683 -0.80266285 -0.8862279
H 1.0754957 -0.8120196 0.8582601
H -1.4617374 -0.69374585 0.88495535
H -1.477639 -0.68483734 -0.8655752
H -0.3844249 -2.937981 -0.89826614
H -0.36833832 -2.9470217 0.8748042
H -2.2733064 -3.9664605 -1.5874553e-05
