title
 OpenBabel02282109583D

 18 17  0  0  0  0  0  0  0  0999 V2000
    2.0129    3.2265   -0.0024 C   0  0  0  0  0  0  0  0  0  0  0  0
    1.9425    1.8208   -0.0089 O   0  0  0  0  0  0  0  0  0  0  0  0
    0.6148    1.3421    0.0012 C   0  0  0  0  0  0  0  0  0  0  0  0
    0.6709   -0.1783   -0.0072 C   0  0  0  0  0  0  0  0  0  0  0  0
   -0.7079   -0.8199    0.0026 C   0  0  0  0  0  0  0  0  0  0  0  0
   -1.7269   -0.1745    0.0162 O   0  0  0  0  0  0  0  0  0  0  0  0
   -0.7119   -2.3472   -0.0060 C   0  0  0  0  0  0  0  0  0  0  0  0
   -2.0328   -2.8182    0.0044 O   0  0  0  0  0  0  0  0  0  0  0  0
    3.0705    3.5017   -0.0111 H   0  0  0  0  0  0  0  0  0  0  0  0
    1.5239    3.6647   -0.8869 H   0  0  0  0  0  0  0  0  0  0  0  0
    1.5408    3.6557    0.8955 H   0  0  0  0  0  0  0  0  0  0  0  0
    0.0737    1.6984    0.8913 H   0  0  0  0  0  0  0  0  0  0  0  0
    0.0570    1.7075   -0.8748 H   0  0  0  0  0  0  0  0  0  0  0  0
    1.2266   -0.5258   -0.8879 H   0  0  0  0  0  0  0  0  0  0  0  0
    1.2430   -0.5348    0.8593 H   0  0  0  0  0  0  0  0  0  0  0  0
   -0.1476   -2.6757   -0.8967 H   0  0  0  0  0  0  0  0  0  0  0  0
   -0.1301   -2.6857    0.8694 H   0  0  0  0  0  0  0  0  0  0  0  0
   -2.0063   -3.7793   -0.0013 H   0  0  0  0  0  0  0  0  0  0  0  0
  1 11  1  0  0  0  0
  2  1  1  0  0  0  0
  2  3  1  0  0  0  0
  3 12  1  0  0  0  0
  4  3  1  0  0  0  0
  4  5  1  0  0  0  0
  4 15  1  0  0  0  0
  5  6  2  0  0  0  0
  7  5  1  0  0  0  0
  7  8  1  0  0  0  0
  7 17  1  0  0  0  0
  9  1  1  0  0  0  0
 10  1  1  0  0  0  0
 13  3  1  0  0  0  0
 14  4  1  0  0  0  0
 16  7  1  0  0  0  0
 18  8  1  0  0  0  0
M  END
