17
title
O 2.7302794 1.3538933 0.71655303
C 2.432505 0.011059647 1.0832703
C 0.94636625 -0.036638405 1.4049462
N 0.16309746 0.4063258 0.2656288
C -0.887144 -0.28082398 -0.23455149
O -1.3077561 -1.3309813 0.23344606
C -1.5737671 0.32519314 -1.4647915
O -2.618279 -0.50344115 -1.8788416
H 3.6360478 1.3927963 0.39697784
H 2.655969 -0.6843649 0.26099485
H 3.0083077 -0.30314952 1.9664509
H 0.6308004 -1.0530132 1.6474698
H 0.7474596 0.60236156 2.274975
H 0.47612366 1.2489367 -0.19169134
H -1.9401163 1.3319967 -1.205704
H -0.8265907 0.45293048 -2.2647312
H -2.613432 -1.2316623 -1.233227
