title
 OpenBabel02282109583D

 17 16  0  0  0  0  0  0  0  0999 V2000
    2.7303    1.3539    0.7166 O   0  0  0  0  0  0  0  0  0  0  0  0
    2.4325    0.0111    1.0833 C   0  0  0  0  0  0  0  0  0  0  0  0
    0.9464   -0.0366    1.4049 C   0  0  0  0  0  0  0  0  0  0  0  0
    0.1631    0.4063    0.2656 N   0  0  0  0  0  0  0  0  0  0  0  0
   -0.8871   -0.2808   -0.2346 C   0  0  0  0  0  0  0  0  0  0  0  0
   -1.3078   -1.3310    0.2334 O   0  0  0  0  0  0  0  0  0  0  0  0
   -1.5738    0.3252   -1.4648 C   0  0  0  0  0  0  0  0  0  0  0  0
   -2.6183   -0.5034   -1.8788 O   0  0  0  0  0  0  0  0  0  0  0  0
    3.6360    1.3928    0.3970 H   0  0  0  0  0  0  0  0  0  0  0  0
    2.6560   -0.6844    0.2610 H   0  0  0  0  0  0  0  0  0  0  0  0
    3.0083   -0.3031    1.9665 H   0  0  0  0  0  0  0  0  0  0  0  0
    0.6308   -1.0530    1.6475 H   0  0  0  0  0  0  0  0  0  0  0  0
    0.7475    0.6024    2.2750 H   0  0  0  0  0  0  0  0  0  0  0  0
    0.4761    1.2489   -0.1917 H   0  0  0  0  0  0  0  0  0  0  0  0
   -1.9401    1.3320   -1.2057 H   0  0  0  0  0  0  0  0  0  0  0  0
   -0.8266    0.4529   -2.2647 H   0  0  0  0  0  0  0  0  0  0  0  0
   -2.6134   -1.2317   -1.2332 H   0  0  0  0  0  0  0  0  0  0  0  0
  1  2  1  0  0  0  0
  2  3  1  0  0  0  0
  2 11  1  0  0  0  0
  3 12  1  0  0  0  0
  3 13  1  0  0  0  0
  4  3  1  0  0  0  0
  5  6  2  0  0  0  0
  5  4  1  0  0  0  0
  7 15  1  0  0  0  0
  7  5  1  0  0  0  0
  8  7  1  0  0  0  0
  8 17  1  0  0  0  0
  9  1  1  0  0  0  0
 10  2  1  0  0  0  0
 14  4  1  0  0  0  0
 16  7  1  0  0  0  0
M  END
