title
 OpenBabel02282109583D

 19 18  0  0  0  0  0  0  0  0999 V2000
    0.6663    3.0767    0.0831 C   0  0  0  0  0  0  0  0  0  0  0  0
    0.6789    1.6304    0.1198 N   0  0  0  0  0  0  0  0  0  0  0  0
   -0.4022    0.9773    0.1773 C   0  0  0  0  0  0  0  0  0  0  0  0
   -1.8281    1.4798    0.2232 C   0  0  0  0  0  0  0  0  0  0  0  0
   -0.3815   -0.3802    0.2082 O   0  0  0  0  0  0  0  0  0  0  0  0
    0.9029   -1.0166    0.1417 C   0  0  0  0  0  0  0  0  0  0  0  0
    0.6291   -2.5100    0.1430 C   0  0  0  0  0  0  0  0  0  0  0  0
   -0.1421   -2.9109   -0.9735 O   0  0  0  0  0  0  0  0  0  0  0  0
    1.2402    3.4672    0.9320 H   0  0  0  0  0  0  0  0  0  0  0  0
    1.1772    3.4210   -0.8240 H   0  0  0  0  0  0  0  0  0  0  0  0
   -0.3292    3.5409    0.1056 H   0  0  0  0  0  0  0  0  0  0  0  0
   -2.0793    2.0194   -0.6949 H   0  0  0  0  0  0  0  0  0  0  0  0
   -2.5158    0.6417    0.3356 H   0  0  0  0  0  0  0  0  0  0  0  0
   -1.9726    2.1683    1.0603 H   0  0  0  0  0  0  0  0  0  0  0  0
    1.4156   -0.7054   -0.7738 H   0  0  0  0  0  0  0  0  0  0  0  0
    1.5164   -0.7117    0.9964 H   0  0  0  0  0  0  0  0  0  0  0  0
    1.5801   -3.0496    0.0847 H   0  0  0  0  0  0  0  0  0  0  0  0
    0.1420   -2.7905    1.0907 H   0  0  0  0  0  0  0  0  0  0  0  0
   -0.9173   -2.3386   -0.9824 H   0  0  0  0  0  0  0  0  0  0  0  0
  1 11  1  0  0  0  0
  1  2  1  0  0  0  0
  1  9  1  0  0  0  0
  2  3  2  0  0  0  0
  3  5  1  0  0  0  0
  3  4  1  0  0  0  0
  4 13  1  0  0  0  0
  4 14  1  0  0  0  0
  6  7  1  0  0  0  0
  6  5  1  0  0  0  0
  6 16  1  0  0  0  0
  7 18  1  0  0  0  0
  8  7  1  0  0  0  0
 10  1  1  0  0  0  0
 12  4  1  0  0  0  0
 15  6  1  0  0  0  0
 17  7  1  0  0  0  0
 19  8  1  0  0  0  0
M  END
