title
 OpenBabel02282109583D

 18 17  0  0  1  0  0  0  0  0999 V2000
   -0.6379    2.0091   -1.2133 C   0  0  0  0  0  0  0  0  0  0  0  0
   -0.6265    0.4988   -0.8963 C   0  0  1  0  0  0  0  0  0  0  0  0
    0.0943    0.1045    0.3140 N   0  0  0  0  0  0  0  0  0  0  0  0
    1.5454    0.3070    0.2879 C   0  0  0  0  0  0  0  0  0  0  0  0
    2.1690   -0.5295    1.4062 C   0  0  0  0  0  0  0  0  0  0  0  0
    1.8366   -1.8917    1.2719 O   0  0  0  0  0  0  0  0  0  0  0  0
   -2.0088   -0.0037   -0.8025 C   0  0  0  0  0  0  0  0  0  0  0  0
   -3.1019   -0.3687   -0.7240 N   0  0  0  0  0  0  0  0  0  0  0  0
    0.3852    2.3717   -1.3399 H   0  0  0  0  0  0  0  0  0  0  0  0
   -1.1917    2.2088   -2.1347 H   0  0  0  0  0  0  0  0  0  0  0  0
   -1.1116    2.5687   -0.4010 H   0  0  0  0  0  0  0  0  0  0  0  0
   -0.1521   -0.0297   -1.7332 H   0  0  0  0  0  0  0  0  0  0  0  0
   -0.3145    0.5661    1.1217 H   0  0  0  0  0  0  0  0  0  0  0  0
    1.9147   -0.0631   -0.6759 H   0  0  0  0  0  0  0  0  0  0  0  0
    1.8547    1.3603    0.3834 H   0  0  0  0  0  0  0  0  0  0  0  0
    3.2603   -0.4472    1.3675 H   0  0  0  0  0  0  0  0  0  0  0  0
    1.8465   -0.1265    2.3834 H   0  0  0  0  0  0  0  0  0  0  0  0
    0.8951   -1.9011    1.0503 H   0  0  0  0  0  0  0  0  0  0  0  0
  1  2  1  0  0  0  0
  1 11  1  0  0  0  0
  2 12  1  6  0  0  0
  2  7  1  0  0  0  0
  2  3  1  0  0  0  0
  3 13  1  0  0  0  0
  4  3  1  0  0  0  0
  4 15  1  0  0  0  0
  4  5  1  0  0  0  0
  5 17  1  0  0  0  0
  6  5  1  0  0  0  0
  7  8  3  0  0  0  0
  9  1  1  0  0  0  0
 10  1  1  0  0  0  0
 14  4  1  0  0  0  0
 16  5  1  0  0  0  0
 18  6  1  0  0  0  0
M  END
