title
 OpenBabel02282109583D

 18 17  0  0  1  0  0  0  0  0999 V2000
    1.2310    2.0892    0.1128 C   0  0  0  0  0  0  0  0  0  0  0  0
    1.0698    0.5685   -0.0331 C   0  0  1  0  0  0  0  0  0  0  0  0
   -0.2997    0.1733   -0.0201 O   0  0  0  0  0  0  0  0  0  0  0  0
   -0.9131    0.1473    1.2604 C   0  0  0  0  0  0  0  0  0  0  0  0
   -2.2000   -0.6486    1.0963 C   0  0  0  0  0  0  0  0  0  0  0  0
   -1.9393   -1.9570    0.6348 O   0  0  0  0  0  0  0  0  0  0  0  0
    1.6577    0.0885   -1.2838 C   0  0  0  0  0  0  0  0  0  0  0  0
    2.1622   -0.2850   -2.3077 C   0  0  0  0  0  0  0  0  0  0  0  0
    2.2885    2.3627    0.0671 H   0  0  0  0  0  0  0  0  0  0  0  0
    0.7005    2.5984   -0.6954 H   0  0  0  0  0  0  0  0  0  0  0  0
    0.8297    2.4286    1.0716 H   0  0  0  0  0  0  0  0  0  0  0  0
    1.5890    0.0747    0.8055 H   0  0  0  0  0  0  0  0  0  0  0  0
   -0.2532   -0.3535    1.9860 H   0  0  0  0  0  0  0  0  0  0  0  0
   -1.1305    1.1613    1.6288 H   0  0  0  0  0  0  0  0  0  0  0  0
   -2.7041   -0.7359    2.0645 H   0  0  0  0  0  0  0  0  0  0  0  0
   -2.8719   -0.1040    0.4137 H   0  0  0  0  0  0  0  0  0  0  0  0
   -1.3534   -1.8506   -0.1246 H   0  0  0  0  0  0  0  0  0  0  0  0
    2.6042   -0.6241   -3.2120 H   0  0  0  0  0  0  0  0  0  0  0  0
  1 11  1  0  0  0  0
  2  3  1  0  0  0  0
  2  1  1  0  0  0  0
  2 12  1  1  0  0  0
  3  4  1  0  0  0  0
  4 14  1  0  0  0  0
  4 13  1  0  0  0  0
  5  4  1  0  0  0  0
  5 15  1  0  0  0  0
  6  5  1  0  0  0  0
  7  2  1  0  0  0  0
  8  7  3  0  0  0  0
  9  1  1  0  0  0  0
 10  1  1  0  0  0  0
 16  5  1  0  0  0  0
 17  6  1  0  0  0  0
 18  8  1  0  0  0  0
M  END
