title
 OpenBabel02282109583D

 22 21  0  0  1  0  0  0  0  0999 V2000
   -0.8568    3.3382   -1.7749 C   0  0  0  0  0  0  0  0  0  0  0  0
   -0.8183    1.8094   -1.7018 C   0  0  0  0  0  0  0  0  0  0  0  0
   -0.1574    1.2834   -0.4221 C   0  0  0  0  0  0  0  0  0  0  0  0
   -0.1241   -0.2473   -0.3567 C   0  0  0  0  0  0  0  0  0  0  0  0
    0.6279   -0.8210    0.8700 C   0  0  1  0  0  0  0  0  0  0  0  0
   -0.0509   -0.4738    2.2110 C   0  0  0  0  0  0  0  0  0  0  0  0
    0.7809   -2.2698    0.7366 C   0  0  0  0  0  0  0  0  0  0  0  0
    0.8822   -3.4627    0.6233 C   0  0  0  0  0  0  0  0  0  0  0  0
    0.1533    3.7619   -1.7452 H   0  0  0  0  0  0  0  0  0  0  0  0
   -1.3344    3.6822   -2.6976 H   0  0  0  0  0  0  0  0  0  0  0  0
   -1.4161    3.7616   -0.9331 H   0  0  0  0  0  0  0  0  0  0  0  0
   -1.8400    1.4130   -1.7691 H   0  0  0  0  0  0  0  0  0  0  0  0
   -0.2827    1.4132   -2.5745 H   0  0  0  0  0  0  0  0  0  0  0  0
    0.8687    1.6733   -0.3582 H   0  0  0  0  0  0  0  0  0  0  0  0
   -0.6918    1.6897    0.4458 H   0  0  0  0  0  0  0  0  0  0  0  0
   -1.1471   -0.6453   -0.3583 H   0  0  0  0  0  0  0  0  0  0  0  0
    0.3556   -0.6356   -1.2628 H   0  0  0  0  0  0  0  0  0  0  0  0
    1.6348   -0.3783    0.8772 H   0  0  0  0  0  0  0  0  0  0  0  0
    0.4964   -0.9184    3.0461 H   0  0  0  0  0  0  0  0  0  0  0  0
   -0.0859    0.6081    2.3640 H   0  0  0  0  0  0  0  0  0  0  0  0
   -1.0746   -0.8605    2.2340 H   0  0  0  0  0  0  0  0  0  0  0  0
    0.9841   -4.5147    0.5238 H   0  0  0  0  0  0  0  0  0  0  0  0
  1  9  1  0  0  0  0
  1  2  1  0  0  0  0
  1 11  1  0  0  0  0
  2  3  1  0  0  0  0
  3 14  1  0  0  0  0
  3  4  1  0  0  0  0
  3 15  1  0  0  0  0
  4  5  1  0  0  0  0
  5 18  1  1  0  0  0
  5  6  1  0  0  0  0
  6 21  1  0  0  0  0
  6 20  1  0  0  0  0
  6 19  1  0  0  0  0
  7  5  1  0  0  0  0
  8  7  3  0  0  0  0
 10  1  1  0  0  0  0
 12  2  1  0  0  0  0
 13  2  1  0  0  0  0
 16  4  1  0  0  0  0
 17  4  1  0  0  0  0
 22  8  1  0  0  0  0
M  END
