21
title
C 1.9067724 3.3853455 0.22598568
C 1.8564949 1.8560481 0.17949516
C 0.42774916 1.3039805 0.105687596
C 0.38921523 -0.22716619 0.05861171
C -1.0411898 -0.8199253 0.08261432
C -1.8771502 -0.47608593 -1.1663048
C -0.9710022 -2.2761204 0.2517456
N -0.9060339 -3.423608 0.37582996
H 2.9378586 3.748008 0.27769813
H 1.4438452 3.825026 -0.6644774
H 1.3733106 3.7732217 1.1008976
H 2.4273362 1.4955908 -0.6862352
H 2.3576055 1.444205 1.0651554
H -0.14286351 1.6563188 0.97665095
H -0.07073605 1.7240101 -0.77672285
H 0.9052487 -0.58981466 -0.8390734
H 0.9434244 -0.62814856 0.91491705
H -1.5594081 -0.42602876 0.9673601
H -2.0169547 0.6042706 -1.2455602
H -1.3780845 -0.8293083 -2.0734577
H -2.862902 -0.944808 -1.115753
