title
 OpenBabel02282109583D

 20 19  0  0  1  0  0  0  0  0999 V2000
    1.9038    3.3911    0.1870 C   0  0  0  0  0  0  0  0  0  0  0  0
    1.8649    1.8607    0.1803 C   0  0  0  0  0  0  0  0  0  0  0  0
    0.4402    1.2969    0.1226 C   0  0  0  0  0  0  0  0  0  0  0  0
    0.4028   -0.2339    0.1111 C   0  0  0  0  0  0  0  0  0  0  0  0
   -1.0360   -0.8094    0.0900 C   0  0  1  0  0  0  0  0  0  0  0  0
   -1.8624   -0.4825   -1.0754 N   0  0  0  0  0  0  0  0  0  0  0  0
   -0.9767   -2.2751    0.2287 C   0  0  0  0  0  0  0  0  0  0  0  0
   -0.8884   -3.4222    0.3347 N   0  0  0  0  0  0  0  0  0  0  0  0
    2.9323    3.7623    0.2264 H   0  0  0  0  0  0  0  0  0  0  0  0
    1.4354    3.8039   -0.7134 H   0  0  0  0  0  0  0  0  0  0  0  0
    1.3699    3.7976    1.0531 H   0  0  0  0  0  0  0  0  0  0  0  0
    2.4371    1.4816   -0.6764 H   0  0  0  0  0  0  0  0  0  0  0  0
    2.3694    1.4754    1.0757 H   0  0  0  0  0  0  0  0  0  0  0  0
   -0.1332    1.6695    0.9835 H   0  0  0  0  0  0  0  0  0  0  0  0
   -0.0612    1.6881   -0.7727 H   0  0  0  0  0  0  0  0  0  0  0  0
    0.9460   -0.6206   -0.7609 H   0  0  0  0  0  0  0  0  0  0  0  0
    0.9200   -0.6231    0.9965 H   0  0  0  0  0  0  0  0  0  0  0  0
   -1.5692   -0.4312    0.9726 H   0  0  0  0  0  0  0  0  0  0  0  0
   -2.0063    0.5208   -1.1190 H   0  0  0  0  0  0  0  0  0  0  0  0
   -1.3836   -0.7547   -1.9296 H   0  0  0  0  0  0  0  0  0  0  0  0
  1  9  1  0  0  0  0
  1 11  1  0  0  0  0
  2  1  1  0  0  0  0
  2 13  1  0  0  0  0
  3  2  1  0  0  0  0
  3 14  1  0  0  0  0
  4  3  1  0  0  0  0
  4 17  1  0  0  0  0
  5  4  1  0  0  0  0
  5  7  1  0  0  0  0
  5 18  1  1  0  0  0
  6  5  1  0  0  0  0
  7  8  3  0  0  0  0
 10  1  1  0  0  0  0
 12  2  1  0  0  0  0
 15  3  1  0  0  0  0
 16  4  1  0  0  0  0
 19  6  1  0  0  0  0
 20  6  1  0  0  0  0
M  END
