title
 OpenBabel02282109583D

 20 19  0  0  1  0  0  0  0  0999 V2000
   -1.0969    3.3379    1.6344 C   0  0  0  0  0  0  0  0  0  0  0  0
   -1.0887    1.8081    1.5706 C   0  0  0  0  0  0  0  0  0  0  0  0
   -0.3746    1.2643    0.3287 C   0  0  0  0  0  0  0  0  0  0  0  0
   -0.3658   -0.2651    0.2605 C   0  0  0  0  0  0  0  0  0  0  0  0
    0.4019   -0.8032   -0.9628 C   0  0  1  0  0  0  0  0  0  0  0  0
    1.7553   -0.3516   -0.9896 O   0  0  0  0  0  0  0  0  0  0  0  0
    0.3252   -2.2657   -1.0371 C   0  0  0  0  0  0  0  0  0  0  0  0
    0.2869   -3.4674   -1.0512 C   0  0  0  0  0  0  0  0  0  0  0  0
   -0.0772    3.7382    1.6479 H   0  0  0  0  0  0  0  0  0  0  0  0
   -1.6075    3.7676    0.7653 H   0  0  0  0  0  0  0  0  0  0  0  0
   -1.6086    3.6981    2.5324 H   0  0  0  0  0  0  0  0  0  0  0  0
   -0.6048    1.4063    2.4709 H   0  0  0  0  0  0  0  0  0  0  0  0
   -2.1211    1.4343    1.5911 H   0  0  0  0  0  0  0  0  0  0  0  0
   -0.8590    1.6640   -0.5735 H   0  0  0  0  0  0  0  0  0  0  0  0
    0.6595    1.6261    0.3035 H   0  0  0  0  0  0  0  0  0  0  0  0
    0.0916   -0.6845    1.1669 H   0  0  0  0  0  0  0  0  0  0  0  0
   -1.3907   -0.6543    0.2241 H   0  0  0  0  0  0  0  0  0  0  0  0
   -0.0458   -0.3775   -1.8700 H   0  0  0  0  0  0  0  0  0  0  0  0
    2.2369   -0.8484   -0.3186 H   0  0  0  0  0  0  0  0  0  0  0  0
    0.2489   -4.5283   -1.0860 H   0  0  0  0  0  0  0  0  0  0  0  0
  1  9  1  0  0  0  0
  1 11  1  0  0  0  0
  2 13  1  0  0  0  0
  2  1  1  0  0  0  0
  2 12  1  0  0  0  0
  3  2  1  0  0  0  0
  4  3  1  0  0  0  0
  4 16  1  0  0  0  0
  5 18  1  6  0  0  0
  5  4  1  0  0  0  0
  6  5  1  0  0  0  0
  6 19  1  0  0  0  0
  7  5  1  0  0  0  0
  8  7  3  0  0  0  0
 10  1  1  0  0  0  0
 14  3  1  0  0  0  0
 15  3  1  0  0  0  0
 17  4  1  0  0  0  0
 20  8  1  0  0  0  0
M  END
