title
 OpenBabel02282109583D

 20 19  0  0  1  0  0  0  0  0999 V2000
   -0.9441    3.3113    1.6608 C   0  0  0  0  0  0  0  0  0  0  0  0
   -1.0125    1.7917    1.4923 C   0  0  0  0  0  0  0  0  0  0  0  0
   -0.1203    1.2823    0.3597 C   0  0  0  0  0  0  0  0  0  0  0  0
   -0.2482   -0.1656    0.2162 N   0  0  0  0  0  0  0  0  0  0  0  0
    0.4812   -0.7507   -0.9054 C   0  0  1  0  0  0  0  0  0  0  0  0
    2.0231   -0.7233   -0.8118 C   0  0  0  0  0  0  0  0  0  0  0  0
    0.0224   -2.1397   -1.0920 C   0  0  0  0  0  0  0  0  0  0  0  0
   -0.3067   -3.2385   -1.2295 N   0  0  0  0  0  0  0  0  0  0  0  0
    0.0760    3.6443    1.8818 H   0  0  0  0  0  0  0  0  0  0  0  0
   -1.2709    3.8268    0.7510 H   0  0  0  0  0  0  0  0  0  0  0  0
   -1.5868    3.6459    2.4802 H   0  0  0  0  0  0  0  0  0  0  0  0
   -0.7127    1.3047    2.4303 H   0  0  0  0  0  0  0  0  0  0  0  0
   -2.0419    1.4729    1.2952 H   0  0  0  0  0  0  0  0  0  0  0  0
   -0.4369    1.7382   -0.5882 H   0  0  0  0  0  0  0  0  0  0  0  0
    0.9165    1.6209    0.5370 H   0  0  0  0  0  0  0  0  0  0  0  0
    0.0140   -0.6335    1.0786 H   0  0  0  0  0  0  0  0  0  0  0  0
    0.1788   -0.1959   -1.8038 H   0  0  0  0  0  0  0  0  0  0  0  0
    2.4761   -1.1733   -1.6998 H   0  0  0  0  0  0  0  0  0  0  0  0
    2.3765    0.3074   -0.7301 H   0  0  0  0  0  0  0  0  0  0  0  0
    2.3629   -1.2819    0.0656 H   0  0  0  0  0  0  0  0  0  0  0  0
  1  9  1  0  0  0  0
  1 11  1  0  0  0  0
  2  1  1  0  0  0  0
  2 12  1  0  0  0  0
  3 15  1  0  0  0  0
  3  2  1  0  0  0  0
  4  3  1  0  0  0  0
  4 16  1  0  0  0  0
  5 17  1  6  0  0  0
  5  6  1  0  0  0  0
  5  4  1  0  0  0  0
  6 19  1  0  0  0  0
  6 20  1  0  0  0  0
  7  5  1  0  0  0  0
  8  7  3  0  0  0  0
 10  1  1  0  0  0  0
 13  2  1  0  0  0  0
 14  3  1  0  0  0  0
 18  6  1  0  0  0  0
M  END
