19
title
C -0.9205361 3.2718418 1.5918499
C -0.8981841 1.7458358 1.4752179
C -0.083773375 1.2704093 0.28067687
O -0.12307751 -0.14959162 0.2545958
C 0.5332575 -0.73368376 -0.85232764
C 2.0448756 -0.89511603 -0.6320906
C -0.096399546 -2.0457175 -1.0913004
N -0.56366074 -3.0805748 -1.3015121
H 0.08923167 3.6793833 1.7126893
H -1.361411 3.7352328 0.70238024
H -1.5105855 3.587935 2.4564197
H -0.4758835 1.3000876 2.3827186
H -1.9166262 1.3538883 1.3785323
H -0.50121063 1.6740717 -0.6569672
H 0.9531734 1.6333884 0.3599955
H 0.36027706 -0.12750691 -1.7565562
H 2.5088007 -1.3812557 -1.494588
H 2.5093 0.084769785 -0.49714455
H 2.228928 -1.5009674 0.25795344
