18
title
C -1.0146029 3.2134478 -1.4920452
C -0.8763632 1.700328 -1.6224965
N -0.036883738 1.1584334 -0.5505801
C 0.16268972 -0.28520617 -0.600321
C 0.6735186 -0.736136 0.78778845
O -0.15269503 -0.22158916 1.8031495
C 0.7043635 -2.2042665 0.87062746
N 0.7506401 -3.3579185 0.896833
H -0.04242095 3.7098708 -1.5914979
H -1.6684635 3.6085541 -2.2744246
H -1.4339466 3.4822285 -0.5183124
H -1.8615017 1.2258905 -1.5414039
H -0.48636523 1.4452684 -2.6229513
H 0.86367494 1.630431 -0.5611394
H -0.80879617 -0.75708205 -0.7792577
H 0.8513896 -0.62611586 -1.3885226
H 1.714147 -0.38583288 0.910466
H -0.4471919 0.6318895 1.4398897
