20
title
C -0.84037465 3.1034627 -1.624778
C -0.83804214 1.584988 -1.6716155
O -0.16446653 1.0994343 -0.52734464
C -0.10297212 -0.3065746 -0.46834
C 0.6231758 -0.70109344 0.8289992
C -0.13617417 -0.21045676 2.0767477
C 0.8354204 -2.1461487 0.858694
C 0.98444444 -3.338973 0.87792104
H 0.18326166 3.4883509 -1.6126292
H -1.3547971 3.510987 -2.5001123
H -1.3507016 3.4588723 -0.7250782
H -1.8699057 1.1957276 -1.6974814
H -0.33707497 1.2260573 -2.5865986
H -1.1147219 -0.74595404 -0.47659132
H 0.4386237 -0.7113869 -1.3378892
H 1.6023494 -0.20423558 0.803435
H -0.2906275 0.8683522 2.0113845
H -1.1120486 -0.7008722 2.148263
H 0.4252092 -0.4379156 2.9862976
H 1.1294303 -4.390572 0.8994948
