title
 OpenBabel02282109583D

 18 17  0  0  1  0  0  0  0  0999 V2000
    1.8509    2.5887    1.2721 C   0  0  0  0  0  0  0  0  0  0  0  0
    1.7309    1.6380    0.0936 C   0  0  0  0  0  0  0  0  0  0  0  0
    0.4890    0.9666    0.1815 O   0  0  0  0  0  0  0  0  0  0  0  0
    0.2680    0.0586   -0.8655 C   0  0  0  0  0  0  0  0  0  0  0  0
   -1.0819   -0.6392   -0.6315 C   0  0  1  0  0  0  0  0  0  0  0  0
   -1.4388   -1.4075   -1.7763 O   0  0  0  0  0  0  0  0  0  0  0  0
   -1.0764   -1.4468    0.5888 C   0  0  0  0  0  0  0  0  0  0  0  0
   -1.0497   -2.1627    1.5541 C   0  0  0  0  0  0  0  0  0  0  0  0
    2.8057    3.1217    1.2356 H   0  0  0  0  0  0  0  0  0  0  0  0
    1.0413    3.3237    1.2562 H   0  0  0  0  0  0  0  0  0  0  0  0
    1.7949    2.0378    2.2151 H   0  0  0  0  0  0  0  0  0  0  0  0
    1.7964    2.1900   -0.8592 H   0  0  0  0  0  0  0  0  0  0  0  0
    2.5563    0.9063    0.0989 H   0  0  0  0  0  0  0  0  0  0  0  0
    0.2206    0.5664   -1.8418 H   0  0  0  0  0  0  0  0  0  0  0  0
    1.0696   -0.6981   -0.9171 H   0  0  0  0  0  0  0  0  0  0  0  0
   -1.8462    0.1417   -0.5458 H   0  0  0  0  0  0  0  0  0  0  0  0
   -0.9714   -2.2479   -1.7183 H   0  0  0  0  0  0  0  0  0  0  0  0
   -1.0396   -2.7790    2.4190 H   0  0  0  0  0  0  0  0  0  0  0  0
  1 11  1  0  0  0  0
  2 13  1  0  0  0  0
  2  3  1  0  0  0  0
  2  1  1  0  0  0  0
  4  5  1  0  0  0  0
  4  3  1  0  0  0  0
  5 16  1  1  0  0  0
  5  7  1  0  0  0  0
  6 17  1  0  0  0  0
  6  5  1  0  0  0  0
  7  8  3  0  0  0  0
  8 18  1  0  0  0  0
  9  1  1  0  0  0  0
 10  1  1  0  0  0  0
 12  2  1  0  0  0  0
 14  4  1  0  0  0  0
 15  4  1  0  0  0  0
M  END
