18
title
C 1.850943 2.588656 1.2721128
C 1.7308927 1.6379918 0.093612835
O 0.48898673 0.9666225 0.18154953
C 0.2679578 0.058563624 -0.8654611
C -1.0818629 -0.63915724 -0.63151395
O -1.4387922 -1.407531 -1.7763469
C -1.0764024 -1.4468403 0.5888265
C -1.0497067 -2.162674 1.5540763
H 2.8056529 3.1217272 1.2355579
H 1.0413442 3.3237312 1.256163
H 1.794921 2.037817 2.215118
H 1.7964474 2.1900423 -0.8592447
H 2.5562828 0.90626675 0.098862015
H 0.22059439 0.5664138 -1.8418286
H 1.0696253 -0.69809407 -0.9170612
H -1.8462403 0.14172354 -0.54581845
H -0.97144413 -2.2479136 -1.7182858
H -1.0395851 -2.7789996 2.4189942
