title
 OpenBabel02282109583D

 17 16  0  0  1  0  0  0  0  0999 V2000
   -2.3619    1.2909    1.4868 C   0  0  0  0  0  0  0  0  0  0  0  0
   -0.9047    1.7455    1.5084 C   0  0  0  0  0  0  0  0  0  0  0  0
   -0.1023    1.1298    0.5089 O   0  0  0  0  0  0  0  0  0  0  0  0
    0.2689   -0.1947    0.7777 C   0  0  0  0  0  0  0  0  0  0  0  0
    1.1590   -0.6691   -0.3816 C   0  0  1  0  0  0  0  0  0  0  0  0
    1.7125   -1.9447   -0.1297 O   0  0  0  0  0  0  0  0  0  0  0  0
    0.4185   -0.6435   -1.6590 C   0  0  0  0  0  0  0  0  0  0  0  0
   -0.1724   -0.6843   -2.6509 N   0  0  0  0  0  0  0  0  0  0  0  0
   -2.7935    1.4441    0.4937 H   0  0  0  0  0  0  0  0  0  0  0  0
   -2.4692    0.2345    1.7504 H   0  0  0  0  0  0  0  0  0  0  0  0
   -2.9423    1.8716    2.2109 H   0  0  0  0  0  0  0  0  0  0  0  0
   -0.8443    2.8179    1.3001 H   0  0  0  0  0  0  0  0  0  0  0  0
   -0.4598    1.5752    2.5016 H   0  0  0  0  0  0  0  0  0  0  0  0
    0.8567   -0.2763    1.7053 H   0  0  0  0  0  0  0  0  0  0  0  0
   -0.5996   -0.8668    0.8654 H   0  0  0  0  0  0  0  0  0  0  0  0
    2.0044    0.0212   -0.4651 H   0  0  0  0  0  0  0  0  0  0  0  0
    1.0075   -2.6001   -0.1847 H   0  0  0  0  0  0  0  0  0  0  0  0
  1  2  1  0  0  0  0
  1 10  1  0  0  0  0
  1 11  1  0  0  0  0
  2 13  1  0  0  0  0
  3  4  1  0  0  0  0
  3  2  1  0  0  0  0
  4 15  1  0  0  0  0
  4 14  1  0  0  0  0
  5 16  1  6  0  0  0
  5  6  1  0  0  0  0
  5  4  1  0  0  0  0
  7  5  1  0  0  0  0
  8  7  3  0  0  0  0
  9  1  1  0  0  0  0
 12  2  1  0  0  0  0
 17  6  1  0  0  0  0
M  END
