title
 OpenBabel02282109583D

 19 18  0  0  1  0  0  0  0  0999 V2000
   -0.7103    3.2430   -1.5453 C   0  0  0  0  0  0  0  0  0  0  0  0
   -0.6757    1.8365   -1.4922 O   0  0  0  0  0  0  0  0  0  0  0  0
   -0.0999    1.3440   -0.3053 C   0  0  0  0  0  0  0  0  0  0  0  0
   -0.1462   -0.1793   -0.3676 C   0  0  0  0  0  0  0  0  0  0  0  0
    0.5771   -0.8625    0.8154 C   0  0  1  0  0  0  0  0  0  0  0  0
   -0.0880   -0.6065    2.1835 C   0  0  0  0  0  0  0  0  0  0  0  0
    0.6707   -2.3060    0.5685 C   0  0  0  0  0  0  0  0  0  0  0  0
    0.7345   -3.4440    0.3769 N   0  0  0  0  0  0  0  0  0  0  0  0
    0.3004    3.6788   -1.5005 H   0  0  0  0  0  0  0  0  0  0  0  0
   -1.1732    3.5222   -2.4946 H   0  0  0  0  0  0  0  0  0  0  0  0
   -1.3039    3.6691   -0.7209 H   0  0  0  0  0  0  0  0  0  0  0  0
    0.9450    1.6913   -0.2075 H   0  0  0  0  0  0  0  0  0  0  0  0
   -0.6485    1.7263    0.5715 H   0  0  0  0  0  0  0  0  0  0  0  0
   -1.1894   -0.5111   -0.4019 H   0  0  0  0  0  0  0  0  0  0  0  0
    0.3179   -0.4937   -1.3072 H   0  0  0  0  0  0  0  0  0  0  0  0
    1.6081   -0.4854    0.8541 H   0  0  0  0  0  0  0  0  0  0  0  0
   -0.0658    0.4583    2.4272 H   0  0  0  0  0  0  0  0  0  0  0  0
   -1.1303   -0.9381    2.1731 H   0  0  0  0  0  0  0  0  0  0  0  0
    0.4340   -1.1479    2.9761 H   0  0  0  0  0  0  0  0  0  0  0  0
  1  9  1  0  0  0  0
  1  2  1  0  0  0  0
  1 11  1  0  0  0  0
  2  3  1  0  0  0  0
  3 12  1  0  0  0  0
  3 13  1  0  0  0  0
  4  3  1  0  0  0  0
  4  5  1  0  0  0  0
  5 16  1  1  0  0  0
  5  6  1  0  0  0  0
  6 17  1  0  0  0  0
  6 19  1  0  0  0  0
  7  5  1  0  0  0  0
  8  7  3  0  0  0  0
 10  1  1  0  0  0  0
 14  4  1  0  0  0  0
 15  4  1  0  0  0  0
 18  6  1  0  0  0  0
M  END
