title
 OpenBabel02282109583D

 18 17  0  0  1  0  0  0  0  0999 V2000
    1.6258    3.2795    0.1557 C   0  0  0  0  0  0  0  0  0  0  0  0
    1.6018    1.8722    0.1730 O   0  0  0  0  0  0  0  0  0  0  0  0
    0.2959    1.3455    0.1070 C   0  0  0  0  0  0  0  0  0  0  0  0
    0.4133   -0.1748    0.1053 C   0  0  0  0  0  0  0  0  0  0  0  0
   -0.9588   -0.8703    0.0965 C   0  0  1  0  0  0  0  0  0  0  0  0
   -1.7138   -0.5233   -1.1111 N   0  0  0  0  0  0  0  0  0  0  0  0
   -0.7920   -2.3307    0.2725 C   0  0  0  0  0  0  0  0  0  0  0  0
   -0.6858   -3.4782    0.3679 N   0  0  0  0  0  0  0  0  0  0  0  0
    2.6725    3.5892    0.2026 H   0  0  0  0  0  0  0  0  0  0  0  0
    1.1749    3.6853   -0.7637 H   0  0  0  0  0  0  0  0  0  0  0  0
    1.0894    3.7083    1.0172 H   0  0  0  0  0  0  0  0  0  0  0  0
   -0.3013    1.6800    0.9746 H   0  0  0  0  0  0  0  0  0  0  0  0
   -0.2262    1.6937   -0.7961 H   0  0  0  0  0  0  0  0  0  0  0  0
    0.9922   -0.4955   -0.7685 H   0  0  0  0  0  0  0  0  0  0  0  0
    0.9740   -0.4923    0.9895 H   0  0  0  0  0  0  0  0  0  0  0  0
   -1.5376   -0.5102    0.9565 H   0  0  0  0  0  0  0  0  0  0  0  0
   -1.2439   -0.9045   -1.9282 H   0  0  0  0  0  0  0  0  0  0  0  0
   -2.6348   -0.9505   -1.0837 H   0  0  0  0  0  0  0  0  0  0  0  0
  1  2  1  0  0  0  0
  1  9  1  0  0  0  0
  1 11  1  0  0  0  0
  3  2  1  0  0  0  0
  3 12  1  0  0  0  0
  4  3  1  0  0  0  0
  4 15  1  0  0  0  0
  5  4  1  0  0  0  0
  5  7  1  0  0  0  0
  5 16  1  1  0  0  0
  6 18  1  0  0  0  0
  6  5  1  0  0  0  0
  7  8  3  0  0  0  0
 10  1  1  0  0  0  0
 13  3  1  0  0  0  0
 14  4  1  0  0  0  0
 17  6  1  0  0  0  0
M  END
