18
title
C 1.6065704 3.2708168 0.11648466
O 1.6011431 1.8653883 0.17728832
C 0.30053192 1.3207674 0.12877792
C 0.42045277 -0.19707814 0.17935589
C -0.9523404 -0.8907827 0.12993023
O -1.6959398 -0.52784216 -1.0333681
C -0.8138221 -2.3453512 0.24712984
C -0.67691 -3.538538 0.2991162
H 2.648947 3.5968533 0.15427646
H 1.1508946 3.642589 -0.81520504
H 1.0633551 3.7198327 0.9635832
H -0.30225116 1.6850839 0.98024017
H -0.22134845 1.6296309 -0.78962594
H 1.0328693 -0.54344094 -0.6613644
H 0.94122905 -0.49324384 1.0960366
H -1.5618873 -0.52535856 0.96654767
H -1.2993922 -0.98650086 -1.7827903
H -0.5713344 -4.593733 0.35930768
