title
 OpenBabel02282109583D

 17 16  0  0  1  0  0  0  0  0999 V2000
   -0.9596    3.2444    1.4121 C   0  0  0  0  0  0  0  0  0  0  0  0
   -0.9687    1.8373    1.3487 O   0  0  0  0  0  0  0  0  0  0  0  0
   -0.2784    1.3347    0.2292 C   0  0  0  0  0  0  0  0  0  0  0  0
   -0.3494   -0.1874    0.2852 C   0  0  0  0  0  0  0  0  0  0  0  0
    0.3841   -0.8399   -0.8965 C   0  0  1  0  0  0  0  0  0  0  0  0
    1.7566   -0.4932   -0.9661 O   0  0  0  0  0  0  0  0  0  0  0  0
    0.2108   -2.3077   -0.8668 C   0  0  0  0  0  0  0  0  0  0  0  0
    0.0963   -3.4564   -0.8163 N   0  0  0  0  0  0  0  0  0  0  0  0
    0.0648    3.6436    1.4778 H   0  0  0  0  0  0  0  0  0  0  0  0
   -1.4476    3.6958    0.5339 H   0  0  0  0  0  0  0  0  0  0  0  0
   -1.5105    3.5338    2.3099 H   0  0  0  0  0  0  0  0  0  0  0  0
   -0.7341    1.7027   -0.7077 H   0  0  0  0  0  0  0  0  0  0  0  0
    0.7708    1.6682    0.2286 H   0  0  0  0  0  0  0  0  0  0  0  0
    0.0864   -0.5403    1.2272 H   0  0  0  0  0  0  0  0  0  0  0  0
   -1.3972   -0.5054    0.2815 H   0  0  0  0  0  0  0  0  0  0  0  0
   -0.0465   -0.4760   -1.8370 H   0  0  0  0  0  0  0  0  0  0  0  0
    2.1971   -0.8488   -0.1851 H   0  0  0  0  0  0  0  0  0  0  0  0
  1  9  1  0  0  0  0
  1 11  1  0  0  0  0
  2  1  1  0  0  0  0
  3  4  1  0  0  0  0
  3  2  1  0  0  0  0
  4 14  1  0  0  0  0
  5 16  1  6  0  0  0
  5  7  1  0  0  0  0
  5  4  1  0  0  0  0
  6  5  1  0  0  0  0
  6 17  1  0  0  0  0
  7  8  3  0  0  0  0
 10  1  1  0  0  0  0
 12  3  1  0  0  0  0
 13  3  1  0  0  0  0
 15  4  1  0  0  0  0
M  END
