title
 OpenBabel02282109583D

 18 17  0  0  1  0  0  0  0  0999 V2000
   -0.4866    1.6242    1.4331 N   0  0  0  0  0  0  0  0  0  0  0  0
   -0.3486    0.1731    1.2930 C   0  0  1  0  0  0  0  0  0  0  0  0
    0.3447   -0.3432    0.0062 C   0  0  0  0  0  0  0  0  0  0  0  0
   -0.4091    0.0419   -1.2680 C   0  0  0  0  0  0  0  0  0  0  0  0
    0.2469   -0.5099   -2.5280 C   0  0  0  0  0  0  0  0  0  0  0  0
   -0.5168   -0.0672   -3.6377 O   0  0  0  0  0  0  0  0  0  0  0  0
    0.3653   -0.3498    2.4711 C   0  0  0  0  0  0  0  0  0  0  0  0
    0.9544   -0.7758    3.3689 N   0  0  0  0  0  0  0  0  0  0  0  0
    0.4206    2.0732    1.3431 H   0  0  0  0  0  0  0  0  0  0  0  0
   -1.0763    1.9844    0.6904 H   0  0  0  0  0  0  0  0  0  0  0  0
   -1.3628   -0.2469    1.3265 H   0  0  0  0  0  0  0  0  0  0  0  0
    1.3685    0.0516   -0.0196 H   0  0  0  0  0  0  0  0  0  0  0  0
    0.4332   -1.4345    0.0747 H   0  0  0  0  0  0  0  0  0  0  0  0
   -1.4417   -0.3273   -1.2247 H   0  0  0  0  0  0  0  0  0  0  0  0
   -0.4667    1.1319   -1.3678 H   0  0  0  0  0  0  0  0  0  0  0  0
    1.2886   -0.1543   -2.5901 H   0  0  0  0  0  0  0  0  0  0  0  0
    0.2820   -1.6103   -2.4777 H   0  0  0  0  0  0  0  0  0  0  0  0
   -0.1184   -0.4185   -4.4392 H   0  0  0  0  0  0  0  0  0  0  0  0
  2 11  1  1  0  0  0
  2  1  1  0  0  0  0
  2  7  1  0  0  0  0
  3 13  1  0  0  0  0
  3  2  1  0  0  0  0
  4 14  1  0  0  0  0
  4  3  1  0  0  0  0
  5 17  1  0  0  0  0
  5  4  1  0  0  0  0
  6  5  1  0  0  0  0
  7  8  3  0  0  0  0
  9  1  1  0  0  0  0
 10  1  1  0  0  0  0
 12  3  1  0  0  0  0
 15  4  1  0  0  0  0
 16  5  1  0  0  0  0
 18  6  1  0  0  0  0
M  END
