title
 OpenBabel02282109583D

 17 16  0  0  1  0  0  0  0  0999 V2000
    1.7545    3.2307    0.1201 O   0  0  0  0  0  0  0  0  0  0  0  0
    1.8498    1.8164    0.1384 C   0  0  0  0  0  0  0  0  0  0  0  0
    0.4321    1.2586    0.1424 C   0  0  0  0  0  0  0  0  0  0  0  0
    0.4045   -0.2709    0.1665 C   0  0  0  0  0  0  0  0  0  0  0  0
   -1.0307   -0.8256    0.1229 C   0  0  1  0  0  0  0  0  0  0  0  0
   -1.7558   -0.4220   -1.0242 O   0  0  0  0  0  0  0  0  0  0  0  0
   -1.0185   -2.2991    0.2478 C   0  0  0  0  0  0  0  0  0  0  0  0
   -0.9887   -3.4525    0.3139 N   0  0  0  0  0  0  0  0  0  0  0  0
    2.6447    3.5942    0.1224 H   0  0  0  0  0  0  0  0  0  0  0  0
    2.3952    1.4395   -0.7429 H   0  0  0  0  0  0  0  0  0  0  0  0
    2.3931    1.4627    1.0304 H   0  0  0  0  0  0  0  0  0  0  0  0
   -0.0964    1.6579    1.0167 H   0  0  0  0  0  0  0  0  0  0  0  0
   -0.0992    1.6270   -0.7403 H   0  0  0  0  0  0  0  0  0  0  0  0
    0.9616   -0.6821   -0.6863 H   0  0  0  0  0  0  0  0  0  0  0  0
    0.8952   -0.6545    1.0692 H   0  0  0  0  0  0  0  0  0  0  0  0
   -1.5962   -0.4242    0.9717 H   0  0  0  0  0  0  0  0  0  0  0  0
   -1.3318   -0.8061   -1.8007 H   0  0  0  0  0  0  0  0  0  0  0  0
  1  9  1  0  0  0  0
  1  2  1  0  0  0  0
  2  3  1  0  0  0  0
  2 11  1  0  0  0  0
  3  4  1  0  0  0  0
  3 12  1  0  0  0  0
  4 15  1  0  0  0  0
  5  4  1  0  0  0  0
  5  7  1  0  0  0  0
  5 16  1  1  0  0  0
  6  5  1  0  0  0  0
  7  8  3  0  0  0  0
 10  2  1  0  0  0  0
 13  3  1  0  0  0  0
 14  4  1  0  0  0  0
 17  6  1  0  0  0  0
M  END
