17
title
O 1.7544572 3.2307339 0.12012606
C 1.84984 1.8163868 0.13842946
C 0.4320861 1.2586496 0.14241286
C 0.40454078 -0.27087018 0.16647632
C -1.0307124 -0.8255915 0.122856215
O -1.755764 -0.42200086 -1.0241758
C -1.0185342 -2.2991402 0.24782322
N -0.9886577 -3.4524658 0.31389153
H 2.6446643 3.5942073 0.1224221
H 2.3951938 1.439516 -0.74291754
H 2.393081 1.4627168 1.03042
H -0.096422665 1.6578901 1.0167426
H -0.09917342 1.6269876 -0.7402832
H 0.9615609 -0.6821317 -0.6863103
H 0.8951863 -0.65452594 1.0691973
H -1.5962498 -0.42416188 0.9717173
H -1.3317845 -0.806137 -1.8006729
