title
 OpenBabel02282109583D

 20 19  0  0  1  0  0  0  0  0999 V2000
   -0.3455    1.7784    1.3458 C   0  0  0  0  0  0  0  0  0  0  0  0
   -0.2793    0.2454    1.2392 C   0  0  1  0  0  0  0  0  0  0  0  0
    0.4203   -0.2442   -0.0494 C   0  0  0  0  0  0  0  0  0  0  0  0
   -0.3058    0.1408   -1.3427 C   0  0  0  0  0  0  0  0  0  0  0  0
    0.3523   -0.4595   -2.5792 C   0  0  0  0  0  0  0  0  0  0  0  0
   -0.3763   -0.0195   -3.7144 O   0  0  0  0  0  0  0  0  0  0  0  0
    0.4798   -0.3029    2.4317 C   0  0  0  0  0  0  0  0  0  0  0  0
    0.0594   -1.1135    3.2157 O   0  0  0  0  0  0  0  0  0  0  0  0
    0.6587    2.2178    1.3291 H   0  0  0  0  0  0  0  0  0  0  0  0
   -0.9123    2.2078    0.5164 H   0  0  0  0  0  0  0  0  0  0  0  0
   -0.8325    2.0866    2.2761 H   0  0  0  0  0  0  0  0  0  0  0  0
   -1.2890   -0.1777    1.2847 H   0  0  0  0  0  0  0  0  0  0  0  0
    1.4474    0.1468   -0.0721 H   0  0  0  0  0  0  0  0  0  0  0  0
    0.5087   -1.3375   -0.0009 H   0  0  0  0  0  0  0  0  0  0  0  0
   -1.3484   -0.1972   -1.3049 H   0  0  0  0  0  0  0  0  0  0  0  0
   -0.3317    1.2284   -1.4690 H   0  0  0  0  0  0  0  0  0  0  0  0
    1.4062   -0.1389   -2.6321 H   0  0  0  0  0  0  0  0  0  0  0  0
    0.3514   -1.5594   -2.5046 H   0  0  0  0  0  0  0  0  0  0  0  0
    0.0257   -0.4037   -4.4988 H   0  0  0  0  0  0  0  0  0  0  0  0
    1.5130    0.1114    2.5360 H   0  0  0  0  0  0  0  0  0  0  0  0
  1 11  1  0  0  0  0
  2 12  1  1  0  0  0
  2  1  1  0  0  0  0
  2  7  1  0  0  0  0
  3 14  1  0  0  0  0
  3  2  1  0  0  0  0
  4 15  1  0  0  0  0
  4  3  1  0  0  0  0
  5 18  1  0  0  0  0
  5  4  1  0  0  0  0
  6  5  1  0  0  0  0
  7 20  1  0  0  0  0
  7  8  2  0  0  0  0
  9  1  1  0  0  0  0
 10  1  1  0  0  0  0
 13  3  1  0  0  0  0
 16  4  1  0  0  0  0
 17  5  1  0  0  0  0
 19  6  1  0  0  0  0
M  END
