20
title
C -1.3003175 3.3561146 1.6810839
C -1.2823738 1.82735 1.5980198
C -0.5353184 1.3049704 0.36668238
C -0.51366526 -0.22406517 0.27931878
C 0.2938 -0.72907555 -0.93080425
O 1.6306108 -0.31023535 -0.872298
C 0.22043382 -2.238241 -1.022219
O 1.2120696 -2.9277203 -1.0235403
H -0.28319722 3.7606378 1.7252228
H -1.7914819 3.7946274 0.80524206
H -1.8358144 3.7017612 2.5707517
H -0.81693274 1.4164935 2.503686
H -2.3130646 1.4477922 1.5887905
H -0.99858886 1.7121156 -0.54318523
H 0.49805975 1.6692355 0.37583587
H -0.06753196 -0.6435503 1.1901671
H -1.5393816 -0.61215484 0.21288916
H -0.1883383 -0.33921084 -1.8480289
H 2.1598248 -1.1227883 -0.9072132
H -0.7962302 -2.678661 -1.0820501
