21
title
C 2.2156966 3.1700816 -0.2549764
C 2.15256 1.6467289 -0.115347326
C 0.7235176 1.0978144 -0.18505545
C 0.67472225 -0.42992622 -0.041837376
N -0.6638126 -0.99307305 -0.09338342
C -1.3654177 -1.0315921 -1.3648396
C -1.2641544 -1.4984653 1.0218252
O -2.3780725 -1.9773071 1.0736686
H 3.2465224 3.532646 -0.19774887
H 1.7999308 3.4973698 -1.2142844
H 1.6437707 3.6636312 0.53826874
H 2.7593687 1.1806931 -0.9030239
H 2.6107717 1.3469528 0.8366197
H 0.11002877 1.546405 0.6066524
H 0.26667145 1.3952415 -1.1371754
H 1.2861236 -0.89445096 -0.82851225
H 1.1214085 -0.719781 0.9161449
H -0.75263757 -1.5324295 -2.1240075
H -2.2911398 -1.5873668 -1.2149694
H -1.6088347 -0.02575057 -1.7253945
H -0.6015002 -1.4262543 1.9072609
