20
title
C 1.9456463 3.3415973 -0.17708768
C 1.8313441 1.8302383 0.035345893
C 0.40774304 1.323389 -0.15167631
O 0.39846212 -0.07684797 0.059842896
C -0.87921673 -0.67682546 0.08956785
C -1.5441844 -0.82816356 -1.2790543
C -0.68511134 -2.0248945 0.7791738
O -1.4534733 -2.946195 0.6963997
H 2.9762444 3.6797526 -0.03764259
H 1.636809 3.6280935 -1.1884583
H 1.3170183 3.8939326 0.53014445
H 2.484082 1.2971674 -0.66533107
H 2.1673353 1.5594873 1.0427614
H -0.2736166 1.8158042 0.5637653
H 0.048374962 1.5703403 -1.1630311
H -1.5473807 -0.0959447 0.75534785
H -2.4291182 -1.4609401 -1.1778116
H -1.8472571 0.13825172 -1.6888969
H -0.85338765 -1.3063462 -1.9795977
H 0.24216242 -2.071834 1.3910773
