title
 OpenBabel02282109583D

 20 19  0  0  1  0  0  0  0  0999 V2000
    1.9456    3.3416   -0.1771 C   0  0  0  0  0  0  0  0  0  0  0  0
    1.8313    1.8302    0.0353 C   0  0  0  0  0  0  0  0  0  0  0  0
    0.4077    1.3234   -0.1517 C   0  0  0  0  0  0  0  0  0  0  0  0
    0.3985   -0.0768    0.0598 O   0  0  0  0  0  0  0  0  0  0  0  0
   -0.8792   -0.6768    0.0896 C   0  0  1  0  0  0  0  0  0  0  0  0
   -1.5442   -0.8282   -1.2791 C   0  0  0  0  0  0  0  0  0  0  0  0
   -0.6851   -2.0249    0.7792 C   0  0  0  0  0  0  0  0  0  0  0  0
   -1.4535   -2.9462    0.6964 O   0  0  0  0  0  0  0  0  0  0  0  0
    2.9762    3.6798   -0.0376 H   0  0  0  0  0  0  0  0  0  0  0  0
    1.6368    3.6281   -1.1885 H   0  0  0  0  0  0  0  0  0  0  0  0
    1.3170    3.8939    0.5301 H   0  0  0  0  0  0  0  0  0  0  0  0
    2.4841    1.2972   -0.6653 H   0  0  0  0  0  0  0  0  0  0  0  0
    2.1673    1.5595    1.0428 H   0  0  0  0  0  0  0  0  0  0  0  0
   -0.2736    1.8158    0.5638 H   0  0  0  0  0  0  0  0  0  0  0  0
    0.0484    1.5703   -1.1630 H   0  0  0  0  0  0  0  0  0  0  0  0
   -1.5474   -0.0959    0.7553 H   0  0  0  0  0  0  0  0  0  0  0  0
   -2.4291   -1.4609   -1.1778 H   0  0  0  0  0  0  0  0  0  0  0  0
   -1.8473    0.1383   -1.6889 H   0  0  0  0  0  0  0  0  0  0  0  0
   -0.8534   -1.3063   -1.9796 H   0  0  0  0  0  0  0  0  0  0  0  0
    0.2422   -2.0718    1.3911 H   0  0  0  0  0  0  0  0  0  0  0  0
  1  9  1  0  0  0  0
  1  2  1  0  0  0  0
  1 11  1  0  0  0  0
  2 13  1  0  0  0  0
  3  2  1  0  0  0  0
  3  4  1  0  0  0  0
  3 14  1  0  0  0  0
  4  5  1  0  0  0  0
  5 16  1  1  0  0  0
  5  7  1  0  0  0  0
  6 17  1  0  0  0  0
  6  5  1  0  0  0  0
  7 20  1  0  0  0  0
  8  7  2  0  0  0  0
 10  1  1  0  0  0  0
 12  2  1  0  0  0  0
 15  3  1  0  0  0  0
 18  6  1  0  0  0  0
 19  6  1  0  0  0  0
M  END
