19
title
C 0.47690076 2.0068076 -0.7661024
N 0.68688726 0.57130754 -0.84395915
C 0.6671124 -0.21204874 0.378627
C -0.7262419 -0.3535082 1.0054772
C -0.7060786 -1.2055721 2.2684546
O -2.0254605 -1.2392896 2.7859604
C 0.9222991 -0.010794843 -2.055042
O 0.95560545 0.5630212 -3.123382
H 1.1821455 2.4584575 -0.05799728
H 0.64231926 2.4188647 -1.7616267
H -0.54153305 2.2508705 -0.4439819
H 1.0671389 -1.2048362 0.14240855
H 1.3571407 0.24267069 1.1039525
H -1.133455 0.6302428 1.2623818
H -1.4117153 -0.8033925 0.27885157
H -0.34327278 -2.2192137 2.0296154
H -0.0009671089 -0.77394223 2.9986253
H -2.0254433 -1.7824867 3.5794675
H 1.0890957 -1.10192 -1.9554727
