title
 OpenBabel02282109583D

 19 18  0  0  0  0  0  0  0  0999 V2000
    0.4769    2.0068   -0.7661 C   0  0  0  0  0  0  0  0  0  0  0  0
    0.6869    0.5713   -0.8440 N   0  0  0  0  0  0  0  0  0  0  0  0
    0.6671   -0.2120    0.3786 C   0  0  0  0  0  0  0  0  0  0  0  0
   -0.7262   -0.3535    1.0055 C   0  0  0  0  0  0  0  0  0  0  0  0
   -0.7061   -1.2056    2.2685 C   0  0  0  0  0  0  0  0  0  0  0  0
   -2.0255   -1.2393    2.7860 O   0  0  0  0  0  0  0  0  0  0  0  0
    0.9223   -0.0108   -2.0550 C   0  0  0  0  0  0  0  0  0  0  0  0
    0.9556    0.5630   -3.1234 O   0  0  0  0  0  0  0  0  0  0  0  0
    1.1821    2.4585   -0.0580 H   0  0  0  0  0  0  0  0  0  0  0  0
    0.6423    2.4189   -1.7616 H   0  0  0  0  0  0  0  0  0  0  0  0
   -0.5415    2.2509   -0.4440 H   0  0  0  0  0  0  0  0  0  0  0  0
    1.0671   -1.2048    0.1424 H   0  0  0  0  0  0  0  0  0  0  0  0
    1.3571    0.2427    1.1040 H   0  0  0  0  0  0  0  0  0  0  0  0
   -1.1335    0.6302    1.2624 H   0  0  0  0  0  0  0  0  0  0  0  0
   -1.4117   -0.8034    0.2789 H   0  0  0  0  0  0  0  0  0  0  0  0
   -0.3433   -2.2192    2.0296 H   0  0  0  0  0  0  0  0  0  0  0  0
   -0.0010   -0.7739    2.9986 H   0  0  0  0  0  0  0  0  0  0  0  0
   -2.0254   -1.7825    3.5795 H   0  0  0  0  0  0  0  0  0  0  0  0
    1.0891   -1.1019   -1.9555 H   0  0  0  0  0  0  0  0  0  0  0  0
  1 11  1  0  0  0  0
  1  9  1  0  0  0  0
  2  1  1  0  0  0  0
  2  3  1  0  0  0  0
  3  4  1  0  0  0  0
  3 13  1  0  0  0  0
  4 14  1  0  0  0  0
  4  5  1  0  0  0  0
  5  6  1  0  0  0  0
  5 17  1  0  0  0  0
  6 18  1  0  0  0  0
  7 19  1  0  0  0  0
  7  2  1  0  0  0  0
  8  7  2  0  0  0  0
 10  1  1  0  0  0  0
 12  3  1  0  0  0  0
 15  4  1  0  0  0  0
 16  5  1  0  0  0  0
M  END
