title
 OpenBabel02282109583D

 18 17  0  0  1  0  0  0  0  0999 V2000
   -1.1385    3.2628    1.4432 C   0  0  0  0  0  0  0  0  0  0  0  0
   -1.1863    1.8598    1.3414 O   0  0  0  0  0  0  0  0  0  0  0  0
   -0.4293    1.3640    0.2600 C   0  0  0  0  0  0  0  0  0  0  0  0
   -0.5052   -0.1572    0.2878 C   0  0  0  0  0  0  0  0  0  0  0  0
    0.2762   -0.7873   -0.8763 C   0  0  1  0  0  0  0  0  0  0  0  0
    1.6334   -0.4370   -0.8408 O   0  0  0  0  0  0  0  0  0  0  0  0
    0.1216   -2.2941   -0.8588 C   0  0  0  0  0  0  0  0  0  0  0  0
    1.0774   -3.0305   -0.8202 O   0  0  0  0  0  0  0  0  0  0  0  0
   -0.1096    3.6269    1.5918 H   0  0  0  0  0  0  0  0  0  0  0  0
   -1.5474    3.7529    0.5450 H   0  0  0  0  0  0  0  0  0  0  0  0
   -1.7433    3.5494    2.3070 H   0  0  0  0  0  0  0  0  0  0  0  0
   -0.8247    1.7478   -0.6980 H   0  0  0  0  0  0  0  0  0  0  0  0
    0.6200    1.6874    0.3324 H   0  0  0  0  0  0  0  0  0  0  0  0
   -0.0969   -0.5198    1.2376 H   0  0  0  0  0  0  0  0  0  0  0  0
   -1.5569   -0.4642    0.2379 H   0  0  0  0  0  0  0  0  0  0  0  0
   -0.1817   -0.4426   -1.8239 H   0  0  0  0  0  0  0  0  0  0  0  0
    2.1196   -1.2769   -0.8255 H   0  0  0  0  0  0  0  0  0  0  0  0
   -0.9167   -2.6834   -0.8814 H   0  0  0  0  0  0  0  0  0  0  0  0
  1  9  1  0  0  0  0
  1 11  1  0  0  0  0
  2  1  1  0  0  0  0
  3  4  1  0  0  0  0
  3 13  1  0  0  0  0
  3  2  1  0  0  0  0
  4 14  1  0  0  0  0
  5 16  1  6  0  0  0
  5  7  1  0  0  0  0
  5  6  1  0  0  0  0
  5  4  1  0  0  0  0
  6 17  1  0  0  0  0
  7  8  2  0  0  0  0
 10  1  1  0  0  0  0
 12  3  1  0  0  0  0
 15  4  1  0  0  0  0
 18  7  1  0  0  0  0
M  END
