title
 OpenBabel02282109583D

 19 18  0  0  0  0  0  0  0  0999 V2000
    0.2037    2.9657   -0.7931 C   0  0  0  0  0  0  0  0  0  0  0  0
    0.2300    1.5617   -0.9027 O   0  0  0  0  0  0  0  0  0  0  0  0
   -1.0488    0.9763   -0.8942 C   0  0  0  0  0  0  0  0  0  0  0  0
   -0.8686   -0.5411   -0.9081 C   0  0  0  0  0  0  0  0  0  0  0  0
   -0.2551   -1.0708    0.2938 N   0  0  0  0  0  0  0  0  0  0  0  0
   -1.0728   -1.2617    1.4782 C   0  0  0  0  0  0  0  0  0  0  0  0
    1.0943   -1.2728    0.3624 C   0  0  0  0  0  0  0  0  0  0  0  0
    1.7013   -1.6380    1.3473 O   0  0  0  0  0  0  0  0  0  0  0  0
    1.2395    3.3123   -0.8012 H   0  0  0  0  0  0  0  0  0  0  0  0
   -0.3347    3.4311   -1.6336 H   0  0  0  0  0  0  0  0  0  0  0  0
   -0.2737    3.2918    0.1440 H   0  0  0  0  0  0  0  0  0  0  0  0
   -1.6187    1.2929   -0.0044 H   0  0  0  0  0  0  0  0  0  0  0  0
   -1.6320    1.2829   -1.7798 H   0  0  0  0  0  0  0  0  0  0  0  0
   -1.8435   -1.0207   -1.0574 H   0  0  0  0  0  0  0  0  0  0  0  0
   -0.2390   -0.8013   -1.7653 H   0  0  0  0  0  0  0  0  0  0  0  0
   -1.9017   -1.9478    1.2672 H   0  0  0  0  0  0  0  0  0  0  0  0
   -0.4343   -1.6847    2.2538 H   0  0  0  0  0  0  0  0  0  0  0  0
   -1.4913   -0.3152    1.8418 H   0  0  0  0  0  0  0  0  0  0  0  0
    1.5846   -1.0752   -0.6089 H   0  0  0  0  0  0  0  0  0  0  0  0
  1 11  1  0  0  0  0
  2  3  1  0  0  0  0
  2  1  1  0  0  0  0
  3 12  1  0  0  0  0
  4  3  1  0  0  0  0
  4  5  1  0  0  0  0
  5  7  1  0  0  0  0
  5  6  1  0  0  0  0
  6 18  1  0  0  0  0
  6 17  1  0  0  0  0
  7  8  2  0  0  0  0
  9  1  1  0  0  0  0
 10  1  1  0  0  0  0
 13  3  1  0  0  0  0
 14  4  1  0  0  0  0
 15  4  1  0  0  0  0
 16  6  1  0  0  0  0
 19  7  1  0  0  0  0
M  END
