18
title
O 1.8949672 3.2379034 0.26627946
C 1.9639618 1.8208758 0.27294403
C 0.5383455 1.2852693 0.26395178
C 0.4827885 -0.24376896 0.29908744
C -0.96152145 -0.7707518 0.20981137
O -1.5814635 -0.37812522 -0.9839538
C -0.98187023 -2.2791424 0.34138808
O -1.4682487 -2.9879065 -0.50664693
H 2.7919595 3.583494 0.24546
H 2.5076718 1.4422601 -0.60839224
H 2.4976554 1.4519308 1.1653277
H 0.0037482346 1.7001858 1.1274978
H 0.025859531 1.6477482 -0.6320806
H 1.0516856 -0.6620107 -0.5412972
H 0.94416195 -0.6197284 1.2226003
H -1.5215591 -0.3761213 1.079307
H -1.8647796 -1.2003427 -1.4142746
H -0.52087575 -2.6993566 1.25909
