title
 OpenBabel02282109583D

 22 21  0  0  1  0  0  0  0  0999 V2000
   -0.3281    1.6615   -1.1957 C   0  0  0  0  0  0  0  0  0  0  0  0
   -0.2337    0.1321   -1.1195 C   0  0  1  0  0  0  0  0  0  0  0  0
    0.4657   -0.4285   -2.3596 C   0  0  0  0  0  0  0  0  0  0  0  0
   -0.2972   -0.0824   -3.5072 O   0  0  0  0  0  0  0  0  0  0  0  0
    0.4776   -0.3645    0.1513 C   0  0  0  0  0  0  0  0  0  0  0  0
   -0.2451   -0.0216    1.4582 C   0  0  0  0  0  0  0  0  0  0  0  0
    0.4400   -0.6188    2.6804 C   0  0  0  0  0  0  0  0  0  0  0  0
   -0.2957   -0.2291    3.8308 O   0  0  0  0  0  0  0  0  0  0  0  0
    0.6681    2.1162   -1.1219 H   0  0  0  0  0  0  0  0  0  0  0  0
   -0.7673    1.9648   -2.1485 H   0  0  0  0  0  0  0  0  0  0  0  0
   -0.9425    2.0715   -0.3896 H   0  0  0  0  0  0  0  0  0  0  0  0
   -1.2537   -0.2777   -1.1252 H   0  0  0  0  0  0  0  0  0  0  0  0
    1.4871   -0.0158   -2.4230 H   0  0  0  0  0  0  0  0  0  0  0  0
    0.5594   -1.5227   -2.2667 H   0  0  0  0  0  0  0  0  0  0  0  0
    0.1854   -0.3684   -4.2877 H   0  0  0  0  0  0  0  0  0  0  0  0
    0.5949   -1.4555    0.0874 H   0  0  0  0  0  0  0  0  0  0  0  0
    1.4962    0.0496    0.1778 H   0  0  0  0  0  0  0  0  0  0  0  0
   -0.3039    1.0630    1.5985 H   0  0  0  0  0  0  0  0  0  0  0  0
   -1.2782   -0.3897    1.4252 H   0  0  0  0  0  0  0  0  0  0  0  0
    0.4794   -1.7168    2.5858 H   0  0  0  0  0  0  0  0  0  0  0  0
    1.4820   -0.2614    2.7341 H   0  0  0  0  0  0  0  0  0  0  0  0
    0.1343   -0.6045    4.6044 H   0  0  0  0  0  0  0  0  0  0  0  0
  1  9  1  0  0  0  0
  1  2  1  0  0  0  0
  1 11  1  0  0  0  0
  2 12  1  1  0  0  0
  2  5  1  0  0  0  0
  3 14  1  0  0  0  0
  3  2  1  0  0  0  0
  4  3  1  0  0  0  0
  5 17  1  0  0  0  0
  5  6  1  0  0  0  0
  6 18  1  0  0  0  0
  6  7  1  0  0  0  0
  7 21  1  0  0  0  0
  7  8  1  0  0  0  0
  8 22  1  0  0  0  0
 10  1  1  0  0  0  0
 13  3  1  0  0  0  0
 15  4  1  0  0  0  0
 16  5  1  0  0  0  0
 19  6  1  0  0  0  0
 20  7  1  0  0  0  0
M  END
