title
 OpenBabel02282109583D

 20 19  0  0  1  0  0  0  0  0999 V2000
   -0.7517    1.7554   -0.9441 C   0  0  0  0  0  0  0  0  0  0  0  0
   -0.7611    0.2311   -1.0477 C   0  0  1  0  0  0  0  0  0  0  0  0
    0.0127   -0.2836   -2.2643 C   0  0  0  0  0  0  0  0  0  0  0  0
    1.3886    0.0363   -2.1858 O   0  0  0  0  0  0  0  0  0  0  0  0
   -0.1178   -0.3652    0.0851 O   0  0  0  0  0  0  0  0  0  0  0  0
   -0.9415   -0.5727    1.2209 C   0  0  0  0  0  0  0  0  0  0  0  0
   -0.0191   -0.9362    2.3734 C   0  0  0  0  0  0  0  0  0  0  0  0
    0.8828    0.1131    2.6628 O   0  0  0  0  0  0  0  0  0  0  0  0
    0.2766    2.1216   -0.9958 H   0  0  0  0  0  0  0  0  0  0  0  0
   -1.3180    2.1978   -1.7701 H   0  0  0  0  0  0  0  0  0  0  0  0
   -1.2028    2.0957   -0.0079 H   0  0  0  0  0  0  0  0  0  0  0  0
   -1.7953   -0.1405   -1.1123 H   0  0  0  0  0  0  0  0  0  0  0  0
   -0.1403   -1.3705   -2.3477 H   0  0  0  0  0  0  0  0  0  0  0  0
   -0.3714    0.1836   -3.1770 H   0  0  0  0  0  0  0  0  0  0  0  0
    1.6947   -0.3280   -1.3472 H   0  0  0  0  0  0  0  0  0  0  0  0
   -1.4969    0.3424    1.4721 H   0  0  0  0  0  0  0  0  0  0  0  0
   -1.6684   -1.3786    1.0311 H   0  0  0  0  0  0  0  0  0  0  0  0
   -0.6106   -1.1152    3.2773 H   0  0  0  0  0  0  0  0  0  0  0  0
    0.5118   -1.8699    2.1267 H   0  0  0  0  0  0  0  0  0  0  0  0
    1.2595    0.3755    1.8149 H   0  0  0  0  0  0  0  0  0  0  0  0
  1 11  1  0  0  0  0
  2 12  1  6  0  0  0
  2  1  1  0  0  0  0
  2  5  1  0  0  0  0
  3  4  1  0  0  0  0
  3  2  1  0  0  0  0
  4 15  1  0  0  0  0
  5  6  1  0  0  0  0
  6 16  1  0  0  0  0
  6  7  1  0  0  0  0
  7  8  1  0  0  0  0
  7 18  1  0  0  0  0
  9  1  1  0  0  0  0
 10  1  1  0  0  0  0
 13  3  1  0  0  0  0
 14  3  1  0  0  0  0
 17  6  1  0  0  0  0
 19  7  1  0  0  0  0
 20  8  1  0  0  0  0
M  END
