title
 OpenBabel02282109583D

 24 23  0  0  1  0  0  0  0  0999 V2000
   -1.1440    3.0417    1.7571 C   0  0  0  0  0  0  0  0  0  0  0  0
   -0.9449    1.5273    1.6391 C   0  0  0  0  0  0  0  0  0  0  0  0
   -0.1478    1.0687    0.4020 C   0  0  1  0  0  0  0  0  0  0  0  0
    1.3015    1.5790    0.4336 C   0  0  0  0  0  0  0  0  0  0  0  0
   -0.2167   -0.4641    0.2778 C   0  0  0  0  0  0  0  0  0  0  0  0
    0.3542   -1.0275   -1.0184 C   0  0  0  0  0  0  0  0  0  0  0  0
    0.0898   -2.4150   -1.0511 O   0  0  0  0  0  0  0  0  0  0  0  0
    0.5962   -3.0419   -2.2025 C   0  0  0  0  0  0  0  0  0  0  0  0
   -0.1978    3.5747    1.8914 H   0  0  0  0  0  0  0  0  0  0  0  0
   -1.6293    3.4473    0.8619 H   0  0  0  0  0  0  0  0  0  0  0  0
   -1.7784    3.2848    2.6154 H   0  0  0  0  0  0  0  0  0  0  0  0
   -0.4472    1.1504    2.5435 H   0  0  0  0  0  0  0  0  0  0  0  0
   -1.9297    1.0438    1.6140 H   0  0  0  0  0  0  0  0  0  0  0  0
   -0.6398    1.4994   -0.4839 H   0  0  0  0  0  0  0  0  0  0  0  0
    1.8519    1.3005   -0.4698 H   0  0  0  0  0  0  0  0  0  0  0  0
    1.3443    2.6688    0.5125 H   0  0  0  0  0  0  0  0  0  0  0  0
    1.8404    1.1611    1.2929 H   0  0  0  0  0  0  0  0  0  0  0  0
    0.3038   -0.9303    1.1245 H   0  0  0  0  0  0  0  0  0  0  0  0
   -1.2626   -0.7874    0.3412 H   0  0  0  0  0  0  0  0  0  0  0  0
   -0.1095   -0.5299   -1.8894 H   0  0  0  0  0  0  0  0  0  0  0  0
    1.4402   -0.8511   -1.0900 H   0  0  0  0  0  0  0  0  0  0  0  0
    0.1559   -2.6270   -3.1239 H   0  0  0  0  0  0  0  0  0  0  0  0
    1.6916   -2.9440   -2.2762 H   0  0  0  0  0  0  0  0  0  0  0  0
    0.3418   -4.1030   -2.1386 H   0  0  0  0  0  0  0  0  0  0  0  0
  1  9  1  0  0  0  0
  1 11  1  0  0  0  0
  2  1  1  0  0  0  0
  2 12  1  0  0  0  0
  3 14  1  6  0  0  0
  3  4  1  0  0  0  0
  3  2  1  0  0  0  0
  4 16  1  0  0  0  0
  4 17  1  0  0  0  0
  5 19  1  0  0  0  0
  5  3  1  0  0  0  0
  5 18  1  0  0  0  0
  6  5  1  0  0  0  0
  7  6  1  0  0  0  0
  8 24  1  0  0  0  0
  8  7  1  0  0  0  0
 10  1  1  0  0  0  0
 13  2  1  0  0  0  0
 15  4  1  0  0  0  0
 20  6  1  0  0  0  0
 21  6  1  0  0  0  0
 22  8  1  0  0  0  0
 23  8  1  0  0  0  0
M  END
