title
 OpenBabel02282109583D

 22 21  0  0  1  0  0  0  0  0999 V2000
    2.0513    1.4407   -0.8904 C   0  0  0  0  0  0  0  0  0  0  0  0
    1.9922   -0.0880   -0.9170 C   0  0  0  0  0  0  0  0  0  0  0  0
    0.5700   -0.6480   -0.9840 C   0  0  1  0  0  0  0  0  0  0  0  0
    0.5578   -2.1642   -1.1926 C   0  0  0  0  0  0  0  0  0  0  0  0
   -0.0791   -0.2909    0.2360 O   0  0  0  0  0  0  0  0  0  0  0  0
   -1.4943   -0.2824    0.2005 C   0  0  0  0  0  0  0  0  0  0  0  0
   -1.9626    0.2712    1.5383 C   0  0  0  0  0  0  0  0  0  0  0  0
   -1.4570    1.5702    1.7708 O   0  0  0  0  0  0  0  0  0  0  0  0
    3.0835    1.7944   -0.8108 H   0  0  0  0  0  0  0  0  0  0  0  0
    1.6219    1.8692   -1.8029 H   0  0  0  0  0  0  0  0  0  0  0  0
    1.4913    1.8410   -0.0412 H   0  0  0  0  0  0  0  0  0  0  0  0
    2.5514   -0.4674   -1.7805 H   0  0  0  0  0  0  0  0  0  0  0  0
    2.4768   -0.5011   -0.0235 H   0  0  0  0  0  0  0  0  0  0  0  0
    0.0361   -0.1643   -1.8201 H   0  0  0  0  0  0  0  0  0  0  0  0
   -0.4615   -2.5599   -1.2210 H   0  0  0  0  0  0  0  0  0  0  0  0
    1.0406   -2.4243   -2.1399 H   0  0  0  0  0  0  0  0  0  0  0  0
    1.0960   -2.6637   -0.3806 H   0  0  0  0  0  0  0  0  0  0  0  0
   -1.8491    0.3625   -0.6192 H   0  0  0  0  0  0  0  0  0  0  0  0
   -1.9065   -1.2918    0.0467 H   0  0  0  0  0  0  0  0  0  0  0  0
   -3.0554    0.3412    1.5452 H   0  0  0  0  0  0  0  0  0  0  0  0
   -1.6641   -0.4261    2.3377 H   0  0  0  0  0  0  0  0  0  0  0  0
   -0.5080    1.5088    1.6115 H   0  0  0  0  0  0  0  0  0  0  0  0
  1  9  1  0  0  0  0
  1 11  1  0  0  0  0
  2  1  1  0  0  0  0
  2 13  1  0  0  0  0
  3 14  1  6  0  0  0
  3  2  1  0  0  0  0
  3  5  1  0  0  0  0
  4  3  1  0  0  0  0
  4 17  1  0  0  0  0
  6  5  1  0  0  0  0
  6  7  1  0  0  0  0
  7 20  1  0  0  0  0
  7  8  1  0  0  0  0
  7 21  1  0  0  0  0
 10  1  1  0  0  0  0
 12  2  1  0  0  0  0
 15  4  1  0  0  0  0
 16  4  1  0  0  0  0
 18  6  1  0  0  0  0
 19  6  1  0  0  0  0
 22  8  1  0  0  0  0
M  END
