title
 OpenBabel02282109583D

 24 23  0  0  1  0  0  0  0  0999 V2000
    2.2396    3.0775   -0.2874 C   0  0  0  0  0  0  0  0  0  0  0  0
    2.1840    1.5476   -0.2651 C   0  0  0  0  0  0  0  0  0  0  0  0
    0.7547    0.9975   -0.3114 C   0  0  0  0  0  0  0  0  0  0  0  0
    0.6937   -0.5327   -0.2921 C   0  0  0  0  0  0  0  0  0  0  0  0
   -0.7296   -1.0933   -0.3031 C   0  0  1  0  0  0  0  0  0  0  0  0
   -0.7438   -2.6216   -0.4038 C   0  0  0  0  0  0  0  0  0  0  0  0
   -1.3592   -0.6403    0.8920 O   0  0  0  0  0  0  0  0  0  0  0  0
   -2.7652   -0.6817    0.8753 C   0  0  0  0  0  0  0  0  0  0  0  0
    3.2710    3.4426   -0.2506 H   0  0  0  0  0  0  0  0  0  0  0  0
    1.7775    3.4771   -1.1973 H   0  0  0  0  0  0  0  0  0  0  0  0
    1.7040    3.5045    0.5678 H   0  0  0  0  0  0  0  0  0  0  0  0
    2.7570    1.1480   -1.1129 H   0  0  0  0  0  0  0  0  0  0  0  0
    2.6849    1.1762    0.6389 H   0  0  0  0  0  0  0  0  0  0  0  0
    0.1808    1.3837    0.5382 H   0  0  0  0  0  0  0  0  0  0  0  0
    0.2531    1.3697   -1.2164 H   0  0  0  0  0  0  0  0  0  0  0  0
    1.2333   -0.9396   -1.1569 H   0  0  0  0  0  0  0  0  0  0  0  0
    1.2029   -0.9135    0.6032 H   0  0  0  0  0  0  0  0  0  0  0  0
   -1.2711   -0.6723   -1.1692 H   0  0  0  0  0  0  0  0  0  0  0  0
   -1.7632   -3.0184   -0.4075 H   0  0  0  0  0  0  0  0  0  0  0  0
   -0.2583   -2.9494   -1.3286 H   0  0  0  0  0  0  0  0  0  0  0  0
   -0.2086   -3.0619    0.4436 H   0  0  0  0  0  0  0  0  0  0  0  0
   -3.1124   -0.2246    1.8057 H   0  0  0  0  0  0  0  0  0  0  0  0
   -3.1796   -0.1133    0.0272 H   0  0  0  0  0  0  0  0  0  0  0  0
   -3.1622   -1.7064    0.8256 H   0  0  0  0  0  0  0  0  0  0  0  0
  1  2  1  0  0  0  0
  1  9  1  0  0  0  0
  1 11  1  0  0  0  0
  2 13  1  0  0  0  0
  3  4  1  0  0  0  0
  3  2  1  0  0  0  0
  3 14  1  0  0  0  0
  4 17  1  0  0  0  0
  5 18  1  6  0  0  0
  5  4  1  0  0  0  0
  5  7  1  0  0  0  0
  6  5  1  0  0  0  0
  6 21  1  0  0  0  0
  8  7  1  0  0  0  0
  8 22  1  0  0  0  0
 10  1  1  0  0  0  0
 12  2  1  0  0  0  0
 15  3  1  0  0  0  0
 16  4  1  0  0  0  0
 19  6  1  0  0  0  0
 20  6  1  0  0  0  0
 23  8  1  0  0  0  0
 24  8  1  0  0  0  0
M  END
