title
 OpenBabel02282109583D

 22 21  0  0  1  0  0  0  0  0999 V2000
    2.0585    3.5014    0.0598 C   0  0  0  0  0  0  0  0  0  0  0  0
    2.0683    1.9703    0.0588 C   0  0  0  0  0  0  0  0  0  0  0  0
    0.6657    1.3621    0.1577 C   0  0  0  0  0  0  0  0  0  0  0  0
    0.6651   -0.1706    0.1599 C   0  0  0  0  0  0  0  0  0  0  0  0
   -0.7340   -0.7839    0.1921 C   0  0  1  0  0  0  0  0  0  0  0  0
   -1.5267   -0.3912   -0.9389 O   0  0  0  0  0  0  0  0  0  0  0  0
   -0.7237   -2.3125    0.2736 C   0  0  0  0  0  0  0  0  0  0  0  0
   -2.0350   -2.8305    0.2318 O   0  0  0  0  0  0  0  0  0  0  0  0
    3.0716    3.9084   -0.0154 H   0  0  0  0  0  0  0  0  0  0  0  0
    1.4779    3.8933   -0.7827 H   0  0  0  0  0  0  0  0  0  0  0  0
    1.6094    3.8934    0.9791 H   0  0  0  0  0  0  0  0  0  0  0  0
    2.5572    1.6076   -0.8555 H   0  0  0  0  0  0  0  0  0  0  0  0
    2.6829    1.6067    0.8932 H   0  0  0  0  0  0  0  0  0  0  0  0
    0.1755    1.7228    1.0724 H   0  0  0  0  0  0  0  0  0  0  0  0
    0.0469    1.7179   -0.6747 H   0  0  0  0  0  0  0  0  0  0  0  0
    1.1953   -0.5439   -0.7301 H   0  0  0  0  0  0  0  0  0  0  0  0
    1.2308   -0.5434    1.0243 H   0  0  0  0  0  0  0  0  0  0  0  0
   -1.2922   -0.3980    1.0540 H   0  0  0  0  0  0  0  0  0  0  0  0
   -1.0166   -0.5927   -1.7330 H   0  0  0  0  0  0  0  0  0  0  0  0
   -0.1052   -2.7111   -0.5530 H   0  0  0  0  0  0  0  0  0  0  0  0
   -0.2646   -2.6431    1.2121 H   0  0  0  0  0  0  0  0  0  0  0  0
   -2.4993   -2.2847   -0.4168 H   0  0  0  0  0  0  0  0  0  0  0  0
  1 11  1  0  0  0  0
  2  1  1  0  0  0  0
  2  3  1  0  0  0  0
  2 13  1  0  0  0  0
  3  4  1  0  0  0  0
  3 14  1  0  0  0  0
  4  5  1  0  0  0  0
  4 17  1  0  0  0  0
  5  7  1  0  0  0  0
  5 18  1  1  0  0  0
  6  5  1  0  0  0  0
  7 21  1  0  0  0  0
  8  7  1  0  0  0  0
  9  1  1  0  0  0  0
 10  1  1  0  0  0  0
 12  2  1  0  0  0  0
 15  3  1  0  0  0  0
 16  4  1  0  0  0  0
 19  6  1  0  0  0  0
 20  7  1  0  0  0  0
 22  8  1  0  0  0  0
M  END
