title
 OpenBabel02282109583D

 24 23  0  0  1  0  0  0  0  0999 V2000
   -0.7222    3.1982    1.7010 C   0  0  0  0  0  0  0  0  0  0  0  0
   -0.7916    1.6821    1.5037 C   0  0  0  0  0  0  0  0  0  0  0  0
    0.1197    1.1972    0.3831 C   0  0  0  0  0  0  0  0  0  0  0  0
   -0.0117   -0.2040    0.2725 O   0  0  0  0  0  0  0  0  0  0  0  0
    0.6772   -0.8031   -0.8198 C   0  0  1  0  0  0  0  0  0  0  0  0
    2.1763   -0.9380   -0.5366 C   0  0  0  0  0  0  0  0  0  0  0  0
    0.0174   -2.1615   -1.0684 C   0  0  0  0  0  0  0  0  0  0  0  0
   -1.4586   -2.0586   -1.4583 C   0  0  0  0  0  0  0  0  0  0  0  0
    0.2930    3.5226    1.9556 H   0  0  0  0  0  0  0  0  0  0  0  0
   -1.0222    3.7336    0.7933 H   0  0  0  0  0  0  0  0  0  0  0  0
   -1.3848    3.5206    2.5094 H   0  0  0  0  0  0  0  0  0  0  0  0
   -0.5104    1.1649    2.4283 H   0  0  0  0  0  0  0  0  0  0  0  0
   -1.8182    1.3740    1.2745 H   0  0  0  0  0  0  0  0  0  0  0  0
   -0.1559    1.6826   -0.5697 H   0  0  0  0  0  0  0  0  0  0  0  0
    1.1615    1.4864    0.5991 H   0  0  0  0  0  0  0  0  0  0  0  0
    0.5373   -0.1724   -1.7160 H   0  0  0  0  0  0  0  0  0  0  0  0
    2.6880   -1.3984   -1.3879 H   0  0  0  0  0  0  0  0  0  0  0  0
    2.6435    0.0343   -0.3562 H   0  0  0  0  0  0  0  0  0  0  0  0
    2.3399   -1.5649    0.3460 H   0  0  0  0  0  0  0  0  0  0  0  0
    0.5810   -2.6808   -1.8528 H   0  0  0  0  0  0  0  0  0  0  0  0
    0.1223   -2.7613   -0.1556 H   0  0  0  0  0  0  0  0  0  0  0  0
   -2.0214   -1.5312   -0.6845 H   0  0  0  0  0  0  0  0  0  0  0  0
   -1.5823   -1.5090   -2.3986 H   0  0  0  0  0  0  0  0  0  0  0  0
   -1.9023   -3.0498   -1.5924 H   0  0  0  0  0  0  0  0  0  0  0  0
  1  9  1  0  0  0  0
  1 11  1  0  0  0  0
  2  1  1  0  0  0  0
  2 12  1  0  0  0  0
  3 15  1  0  0  0  0
  3  2  1  0  0  0  0
  4  3  1  0  0  0  0
  5 16  1  6  0  0  0
  5  6  1  0  0  0  0
  5  4  1  0  0  0  0
  6 18  1  0  0  0  0
  6 19  1  0  0  0  0
  7  5  1  0  0  0  0
  7 21  1  0  0  0  0
  8  7  1  0  0  0  0
  8 22  1  0  0  0  0
 10  1  1  0  0  0  0
 13  2  1  0  0  0  0
 14  3  1  0  0  0  0
 17  6  1  0  0  0  0
 20  7  1  0  0  0  0
 23  8  1  0  0  0  0
 24  8  1  0  0  0  0
M  END
