24
title
C 2.0488718 3.1300461 0.099356994
C 2.0758622 1.6107504 0.11357254
O 0.74704885 1.1355131 0.12446787
C 0.6526805 -0.27290577 0.13277365
C -0.82026815 -0.6838117 0.09357416
C -1.4965208 -0.15754704 -1.1792706
C -0.9395623 -2.2103455 0.2496764
C -2.3752875 -2.7234163 0.40013632
H 3.0670202 3.5306356 0.09140633
H 1.5244915 3.4958007 -0.7881423
H 1.5315045 3.512647 0.9837843
H 2.6113315 1.2251637 -0.77117765
H 2.6198611 1.2423339 1.0005538
H 1.187177 -0.6967295 -0.737155
H 1.1373539 -0.6802133 1.0371567
H -1.3022892 -0.21088438 0.96108884
H -1.3214886 0.915327 -1.284723
H -1.0909152 -0.65544826 -2.0691824
H -2.5764675 -0.32795924 -1.1644406
H -0.46759844 -2.6974196 -0.6151981
H -0.35867095 -2.5222573 1.1276014
H -2.3877373 -3.8054204 0.5646786
H -2.8755126 -2.2519166 1.2536287
H -2.9765801 -2.5200243 -0.4908747
