22
title
C 2.0264049 3.1784925 0.13304715
C 2.0792763 1.6599505 0.12878884
O 0.7580721 1.162771 0.13196963
C 0.68834203 -0.24598685 0.12804352
C -0.7796022 -0.6692972 0.08587537
C -1.4782896 -0.17009631 -1.1834348
C -0.8915877 -2.1866963 0.2336937
O -2.2677708 -2.522527 0.33507782
H 3.0376825 3.5961294 0.13047957
H 1.4961134 3.54586 -0.75018066
H 1.5023919 3.5412984 1.0218352
H 2.6217659 1.2939138 -0.7599368
H 2.6278284 1.2896357 1.0121559
H 1.2282945 -0.65230656 -0.74684197
H 1.181669 -0.6532018 1.0283283
H -1.2728918 -0.22226074 0.9587529
H -1.0074389 -0.5982106 -2.0776923
H -2.5295682 -0.46498778 -1.1820583
H -1.4103067 0.917384 -1.2551653
H -0.42722577 -2.6786945 -0.6379339
H -0.3399822 -2.5163586 1.1293943
H -2.3422089 -3.480436 0.36374074
