22
title
C -1.2871298 2.9612358 -1.5987434
O -1.2771603 1.557074 -1.5413045
C -0.574709 1.0600412 -0.4207852
C -0.59171355 -0.46161008 -0.48234987
C 0.08968933 -1.1198454 0.7164477
C -0.014977258 -2.6466327 0.66061413
O 1.4442823 -0.6783962 0.7119385
C 2.1332262 -0.85744834 1.9261798
H -0.26851824 3.376916 -1.6629233
H -1.8427092 3.2506938 -2.4944792
H -1.7795168 3.4052477 -0.7179826
H 0.46212396 1.4274274 -0.41588545
H -1.049299 1.4115881 0.51349795
H -1.6311443 -0.8031213 -0.5373904
H -0.09425692 -0.7885003 -1.402619
H -0.39349023 -0.7633109 1.6440986
H -1.0643787 -2.9574127 0.65116656
H 0.4673222 -3.0260215 -0.2457844
H 0.46117076 -3.1171885 1.5253776
H 3.109676 -0.37861812 1.8154758
H 1.6026409 -0.3858875 2.7688413
H 2.2944725 -1.9168339 2.1735396
