20
title
O 1.9212891 3.3306794 0.046070624
C 2.0443594 1.9171064 0.05356988
C 0.64437455 1.3263532 0.14945088
C 0.64365214 -0.20501685 0.16154942
C -0.7593661 -0.8105223 0.19468306
O -1.5507915 -0.41474748 -0.93438685
C -0.75423676 -2.3391411 0.27774867
O -2.0673444 -2.8521087 0.2412295
H 2.8033075 3.7101905 -0.0038364364
H 2.5396078 1.5546924 -0.86318165
H 2.654186 1.5740794 0.9061557
H 0.16622336 1.707859 1.0596188
H 0.045911625 1.6911417 -0.6914827
H 1.1727918 -0.5883424 -0.7248774
H 1.2034649 -0.57641125 1.030365
H -1.3133659 -0.42107105 1.0573938
H -1.0460289 -0.62218 -1.7304391
H -0.14001326 -2.7407143 -0.5507448
H -0.293119 -2.6707065 1.2148699
H -2.5325987 -2.3062723 -0.40670753
