title
 OpenBabel02282109583D

 20 19  0  0  1  0  0  0  0  0999 V2000
    1.9213    3.3307    0.0461 O   0  0  0  0  0  0  0  0  0  0  0  0
    2.0444    1.9171    0.0536 C   0  0  0  0  0  0  0  0  0  0  0  0
    0.6444    1.3264    0.1495 C   0  0  0  0  0  0  0  0  0  0  0  0
    0.6437   -0.2050    0.1615 C   0  0  0  0  0  0  0  0  0  0  0  0
   -0.7594   -0.8105    0.1947 C   0  0  1  0  0  0  0  0  0  0  0  0
   -1.5508   -0.4147   -0.9344 O   0  0  0  0  0  0  0  0  0  0  0  0
   -0.7542   -2.3391    0.2777 C   0  0  0  0  0  0  0  0  0  0  0  0
   -2.0673   -2.8521    0.2412 O   0  0  0  0  0  0  0  0  0  0  0  0
    2.8033    3.7102   -0.0038 H   0  0  0  0  0  0  0  0  0  0  0  0
    2.5396    1.5547   -0.8632 H   0  0  0  0  0  0  0  0  0  0  0  0
    2.6542    1.5741    0.9062 H   0  0  0  0  0  0  0  0  0  0  0  0
    0.1662    1.7079    1.0596 H   0  0  0  0  0  0  0  0  0  0  0  0
    0.0459    1.6911   -0.6915 H   0  0  0  0  0  0  0  0  0  0  0  0
    1.1728   -0.5883   -0.7249 H   0  0  0  0  0  0  0  0  0  0  0  0
    1.2035   -0.5764    1.0304 H   0  0  0  0  0  0  0  0  0  0  0  0
   -1.3134   -0.4211    1.0574 H   0  0  0  0  0  0  0  0  0  0  0  0
   -1.0460   -0.6222   -1.7304 H   0  0  0  0  0  0  0  0  0  0  0  0
   -0.1400   -2.7407   -0.5507 H   0  0  0  0  0  0  0  0  0  0  0  0
   -0.2931   -2.6707    1.2149 H   0  0  0  0  0  0  0  0  0  0  0  0
   -2.5326   -2.3063   -0.4067 H   0  0  0  0  0  0  0  0  0  0  0  0
  1  2  1  0  0  0  0
  2  3  1  0  0  0  0
  2 11  1  0  0  0  0
  3  4  1  0  0  0  0
  3 12  1  0  0  0  0
  4  5  1  0  0  0  0
  4 15  1  0  0  0  0
  5  7  1  0  0  0  0
  5 16  1  1  0  0  0
  6  5  1  0  0  0  0
  7 19  1  0  0  0  0
  8  7  1  0  0  0  0
  9  1  1  0  0  0  0
 10  2  1  0  0  0  0
 13  3  1  0  0  0  0
 14  4  1  0  0  0  0
 17  6  1  0  0  0  0
 18  7  1  0  0  0  0
 20  8  1  0  0  0  0
M  END
