title
 OpenBabel02282109583D

 16 16  0  0  1  0  0  0  0  0999 V2000
   -0.5149    1.8959   -0.1306 C   0  0  0  0  0  0  0  0  0  0  0  0
   -0.2581    0.3921   -0.2765 C   0  0  1  0  0  0  0  0  0  0  0  0
    0.6123   -0.0823   -1.5039 C   0  0  0  0  0  0  0  0  0  0  0  0
    1.5850   -0.8455   -0.5581 C   0  0  0  0  0  0  0  0  0  0  0  0
    0.9043   -0.1551    0.6270 C   0  0  0  0  0  0  0  0  0  0  0  0
    1.1847    0.0252    1.7722 O   0  0  0  0  0  0  0  0  0  0  0  0
   -1.4660   -0.3962   -0.1031 C   0  0  0  0  0  0  0  0  0  0  0  0
   -2.4548   -1.0644    0.0487 C   0  0  0  0  0  0  0  0  0  0  0  0
    0.4156    2.4580   -0.2558 H   0  0  0  0  0  0  0  0  0  0  0  0
   -1.2342    2.2384   -0.8799 H   0  0  0  0  0  0  0  0  0  0  0  0
   -0.9170    2.1142    0.8619 H   0  0  0  0  0  0  0  0  0  0  0  0
    0.0832   -0.6881   -2.2381 H   0  0  0  0  0  0  0  0  0  0  0  0
    1.0863    0.7644   -2.0048 H   0  0  0  0  0  0  0  0  0  0  0  0
    1.4096   -1.9258   -0.5395 H   0  0  0  0  0  0  0  0  0  0  0  0
    2.6582   -0.6692   -0.6608 H   0  0  0  0  0  0  0  0  0  0  0  0
   -3.3316   -1.6477    0.1856 H   0  0  0  0  0  0  0  0  0  0  0  0
  1 11  1  0  0  0  0
  2  1  1  0  0  0  0
  2  7  1  1  0  0  0
  2  5  1  0  0  0  0
  3  4  1  0  0  0  0
  3  2  1  0  0  0  0
  4 14  1  0  0  0  0
  4  5  1  0  0  0  0
  5  6  2  0  0  0  0
  7  8  3  0  0  0  0
  8 16  1  0  0  0  0
  9  1  1  0  0  0  0
 10  1  1  0  0  0  0
 12  3  1  0  0  0  0
 13  3  1  0  0  0  0
 15  4  1  0  0  0  0
M  END
