15
title
C -0.5544265 1.8803211 -0.113882065
C -0.25535104 0.3857578 -0.27134523
C 0.61625034 -0.07002365 -1.502339
C 1.6308825 -0.78503025 -0.562144
C 0.92640835 -0.13900909 0.63096297
O 1.1897421 0.041399054 1.7777659
C -1.451524 -0.42773852 -0.10442267
N -2.3916874 -1.0890163 0.026941922
H 0.36523443 2.459899 -0.23361869
H -1.2782956 2.2130108 -0.8625938
H -0.96084267 2.082305 0.8800012
H 0.104153536 -0.70568484 -2.2231128
H 1.0433712 0.7911581 -2.0190885
H 1.5148574 -1.8735934 -0.5468292
H 2.692442 -0.55152506 -0.67001325
