title
 OpenBabel02282109583D

 15 15  0  0  1  0  0  0  0  0999 V2000
   -0.2407    1.9049   -0.2623 C   0  0  0  0  0  0  0  0  0  0  0  0
   -0.2375    0.3718   -0.2937 C   0  0  1  0  0  0  0  0  0  0  0  0
    0.5660   -0.2776   -1.4804 C   0  0  0  0  0  0  0  0  0  0  0  0
    1.5262   -0.7575   -0.4871 N   0  0  0  0  0  0  0  0  0  0  0  0
    0.8942   -0.2481    0.6142 C   0  0  0  0  0  0  0  0  0  0  0  0
    1.1376   -0.2539    1.7875 O   0  0  0  0  0  0  0  0  0  0  0  0
   -1.5532   -0.1942   -0.0706 C   0  0  0  0  0  0  0  0  0  0  0  0
   -2.6450   -0.6606    0.1190 C   0  0  0  0  0  0  0  0  0  0  0  0
    0.7640    2.2940   -0.4539 H   0  0  0  0  0  0  0  0  0  0  0  0
   -0.9248    2.3072   -1.0146 H   0  0  0  0  0  0  0  0  0  0  0  0
   -0.5633    2.2548    0.7213 H   0  0  0  0  0  0  0  0  0  0  0  0
    0.0314   -1.0691   -2.0114 H   0  0  0  0  0  0  0  0  0  0  0  0
    0.9766    0.4450   -2.1929 H   0  0  0  0  0  0  0  0  0  0  0  0
    2.3841   -1.2811   -0.5761 H   0  0  0  0  0  0  0  0  0  0  0  0
   -3.6072   -1.0736    0.2957 H   0  0  0  0  0  0  0  0  0  0  0  0
  1 11  1  0  0  0  0
  2  1  1  0  0  0  0
  2  7  1  1  0  0  0
  2  5  1  0  0  0  0
  3  4  1  0  0  0  0
  3  2  1  0  0  0  0
  4  5  1  0  0  0  0
  5  6  2  0  0  0  0
  7  8  3  0  0  0  0
  8 15  1  0  0  0  0
  9  1  1  0  0  0  0
 10  1  1  0  0  0  0
 12  3  1  0  0  0  0
 13  3  1  0  0  0  0
 14  4  1  0  0  0  0
M  END
