14
title
C -0.2384382 1.9116799 -0.25235182
C -0.21904525 0.380477 -0.29140005
C 0.5719775 -0.28062066 -1.4759591
N 1.5236795 -0.77695024 -0.48184514
C 0.9077935 -0.2526119 0.61965585
O 1.1508439 -0.24349037 1.7905554
C -1.5383759 -0.19200638 -0.07315431
N -2.5888722 -0.6449523 0.094363414
H 0.7656592 2.3024843 -0.43949968
H -0.92088646 2.3148851 -1.0050639
H -0.56306916 2.2550278 0.73267984
H 0.030256037 -1.0628934 -2.0130358
H 0.9908693 0.442112 -2.182503
H 2.3822327 -1.2992939 -0.57365024
