15
title
C -0.31106266 1.9080615 -0.16476512
C -0.24588923 0.37668017 -0.25617456
C 0.6259427 -0.19153659 -1.4181478
O 1.6061035 -0.68400013 -0.4567052
C 0.86285263 -0.2360966 0.61133
N 1.0647144 -0.29454377 1.8435564
C -1.5537918 -0.23822705 -0.11036244
C -2.6420636 -0.7371348 -0.008596676
H 0.68407565 2.3423104 -0.29767787
H -0.9793066 2.3084981 -0.93199086
H -0.6886556 2.2038617 0.81643003
H 0.18151093 -1.0116057 -1.9839945
H 1.0671921 0.55384696 -2.0842283
H 1.9410386 -0.77091515 2.062649
H -3.6001573 -1.1832051 0.09693067
