title
 OpenBabel02282109583D

 14 14  0  0  1  0  0  0  0  0999 V2000
   -0.3109    1.9149   -0.1541 C   0  0  0  0  0  0  0  0  0  0  0  0
   -0.2250    0.3867   -0.2541 C   0  0  1  0  0  0  0  0  0  0  0  0
    0.6416   -0.1887   -1.4145 C   0  0  0  0  0  0  0  0  0  0  0  0
    1.6111   -0.6942   -0.4504 O   0  0  0  0  0  0  0  0  0  0  0  0
    0.8726   -0.2404    0.6173 C   0  0  0  0  0  0  0  0  0  0  0  0
    1.0590   -0.2926    1.8500 N   0  0  0  0  0  0  0  0  0  0  0  0
   -1.5359   -0.2375   -0.1172 C   0  0  0  0  0  0  0  0  0  0  0  0
   -2.5808   -0.7236   -0.0328 N   0  0  0  0  0  0  0  0  0  0  0  0
    0.6827    2.3530   -0.2800 H   0  0  0  0  0  0  0  0  0  0  0  0
   -0.9769    2.3153   -0.9229 H   0  0  0  0  0  0  0  0  0  0  0  0
   -0.6937    2.2024    0.8274 H   0  0  0  0  0  0  0  0  0  0  0  0
    0.1934   -1.0004   -1.9891 H   0  0  0  0  0  0  0  0  0  0  0  0
    1.0891    0.5601   -2.0714 H   0  0  0  0  0  0  0  0  0  0  0  0
    1.9259   -0.7741    2.0922 H   0  0  0  0  0  0  0  0  0  0  0  0
  1 11  1  0  0  0  0
  2  1  1  0  0  0  0
  2  7  1  1  0  0  0
  2  5  1  0  0  0  0
  3  4  1  0  0  0  0
  3  2  1  0  0  0  0
  4  5  1  0  0  0  0
  5  6  2  0  0  0  0
  6 14  1  0  0  0  0
  7  8  3  0  0  0  0
  9  1  1  0  0  0  0
 10  1  1  0  0  0  0
 12  3  1  0  0  0  0
 13  3  1  0  0  0  0
M  END
