title
 OpenBabel02282109583D

 14 14  0  0  1  0  0  0  0  0999 V2000
   -0.3263    1.9129   -0.1860 C   0  0  0  0  0  0  0  0  0  0  0  0
   -0.2640    0.3810   -0.2781 C   0  0  1  0  0  0  0  0  0  0  0  0
    0.6131   -0.1940   -1.4255 C   0  0  0  0  0  0  0  0  0  0  0  0
    1.5948   -0.6765   -0.4563 O   0  0  0  0  0  0  0  0  0  0  0  0
    0.8611   -0.2285    0.6074 C   0  0  0  0  0  0  0  0  0  0  0  0
    1.1129   -0.3085    1.7628 O   0  0  0  0  0  0  0  0  0  0  0  0
   -1.5639   -0.2408   -0.1116 C   0  0  0  0  0  0  0  0  0  0  0  0
   -2.6422   -0.7537    0.0234 C   0  0  0  0  0  0  0  0  0  0  0  0
    0.6676    2.3486   -0.3238 H   0  0  0  0  0  0  0  0  0  0  0  0
   -0.9971    2.3121   -0.9513 H   0  0  0  0  0  0  0  0  0  0  0  0
   -0.7029    2.2112    0.7950 H   0  0  0  0  0  0  0  0  0  0  0  0
    0.1776   -1.0228   -1.9839 H   0  0  0  0  0  0  0  0  0  0  0  0
    1.0588    0.5452   -2.0940 H   0  0  0  0  0  0  0  0  0  0  0  0
   -3.5929   -1.2100    0.1511 H   0  0  0  0  0  0  0  0  0  0  0  0
  1 11  1  0  0  0  0
  2  1  1  0  0  0  0
  2  7  1  1  0  0  0
  2  5  1  0  0  0  0
  3  4  1  0  0  0  0
  3  2  1  0  0  0  0
  4  5  1  0  0  0  0
  5  6  2  0  0  0  0
  7  8  3  0  0  0  0
  8 14  1  0  0  0  0
  9  1  1  0  0  0  0
 10  1  1  0  0  0  0
 12  3  1  0  0  0  0
 13  3  1  0  0  0  0
M  END
