title
 OpenBabel02282109583D

 13 13  0  0  1  0  0  0  0  0999 V2000
   -0.3274    1.9157   -0.1746 C   0  0  0  0  0  0  0  0  0  0  0  0
   -0.2464    0.3865   -0.2756 C   0  0  1  0  0  0  0  0  0  0  0  0
    0.6253   -0.1958   -1.4211 C   0  0  0  0  0  0  0  0  0  0  0  0
    1.6030   -0.6804   -0.4490 O   0  0  0  0  0  0  0  0  0  0  0  0
    0.8742   -0.2323    0.6142 C   0  0  0  0  0  0  0  0  0  0  0  0
    1.1180   -0.3035    1.7699 O   0  0  0  0  0  0  0  0  0  0  0  0
   -1.5501   -0.2418   -0.1182 C   0  0  0  0  0  0  0  0  0  0  0  0
   -2.5885   -0.7363   -0.0051 N   0  0  0  0  0  0  0  0  0  0  0  0
    0.6654    2.3542   -0.3065 H   0  0  0  0  0  0  0  0  0  0  0  0
   -0.9969    2.3161   -0.9399 H   0  0  0  0  0  0  0  0  0  0  0  0
   -0.7070    2.2051    0.8077 H   0  0  0  0  0  0  0  0  0  0  0  0
    0.1894   -1.0230   -1.9814 H   0  0  0  0  0  0  0  0  0  0  0  0
    1.0715    0.5447   -2.0868 H   0  0  0  0  0  0  0  0  0  0  0  0
  1 11  1  0  0  0  0
  2  1  1  0  0  0  0
  2  7  1  1  0  0  0
  2  5  1  0  0  0  0
  3  4  1  0  0  0  0
  3  2  1  0  0  0  0
  4  5  1  0  0  0  0
  5  6  2  0  0  0  0
  7  8  3  0  0  0  0
  9  1  1  0  0  0  0
 10  1  1  0  0  0  0
 12  3  1  0  0  0  0
 13  3  1  0  0  0  0
M  END
