title
 OpenBabel02282109583D

 15 15  0  0  1  0  0  0  0  0999 V2000
   -0.3922    1.9140   -0.2636 C   0  0  0  0  0  0  0  0  0  0  0  0
   -0.1417    0.4070   -0.3117 C   0  0  1  0  0  0  0  0  0  0  0  0
    1.0473    0.0022   -1.1410 N   0  0  0  0  0  0  0  0  0  0  0  0
    1.6629   -0.7889   -0.0422 C   0  0  0  0  0  0  0  0  0  0  0  0
    0.6319   -0.1866    0.9162 C   0  0  0  0  0  0  0  0  0  0  0  0
    0.4859   -0.1266    2.0954 O   0  0  0  0  0  0  0  0  0  0  0  0
   -1.3471   -0.3578   -0.5976 C   0  0  0  0  0  0  0  0  0  0  0  0
   -2.3246   -1.0131   -0.8487 C   0  0  0  0  0  0  0  0  0  0  0  0
    0.5445    2.4382   -0.0593 H   0  0  0  0  0  0  0  0  0  0  0  0
   -0.7876    2.2636   -1.2213 H   0  0  0  0  0  0  0  0  0  0  0  0
   -1.1157    2.1489    0.5216 H   0  0  0  0  0  0  0  0  0  0  0  0
    0.7884   -0.5539   -1.9479 H   0  0  0  0  0  0  0  0  0  0  0  0
    1.5552   -1.8795   -0.1192 H   0  0  0  0  0  0  0  0  0  0  0  0
    2.7119   -0.5511    0.1620 H   0  0  0  0  0  0  0  0  0  0  0  0
   -3.1936   -1.5845   -1.0646 H   0  0  0  0  0  0  0  0  0  0  0  0
  1  9  1  0  0  0  0
  1 11  1  0  0  0  0
  2  7  1  6  0  0  0
  2  1  1  0  0  0  0
  2  5  1  0  0  0  0
  3  2  1  0  0  0  0
  3  4  1  0  0  0  0
  4 14  1  0  0  0  0
  4  5  1  0  0  0  0
  5  6  2  0  0  0  0
  8  7  3  0  0  0  0
 10  1  1  0  0  0  0
 12  3  1  0  0  0  0
 13  4  1  0  0  0  0
 15  8  1  0  0  0  0
M  END
