title
 OpenBabel02282109583D

 14 14  0  0  1  0  0  0  0  0999 V2000
   -0.4495    1.9047   -0.2675 C   0  0  0  0  0  0  0  0  0  0  0  0
   -0.1362    0.4108   -0.3079 C   0  0  1  0  0  0  0  0  0  0  0  0
    1.0570    0.0282   -1.1230 N   0  0  0  0  0  0  0  0  0  0  0  0
    1.6835   -0.7572   -0.0260 C   0  0  0  0  0  0  0  0  0  0  0  0
    0.6445   -0.1686    0.9304 C   0  0  0  0  0  0  0  0  0  0  0  0
    0.4919   -0.0939    2.1055 O   0  0  0  0  0  0  0  0  0  0  0  0
   -1.3227   -0.3958   -0.6011 C   0  0  0  0  0  0  0  0  0  0  0  0
   -2.2366   -1.0574   -0.8578 N   0  0  0  0  0  0  0  0  0  0  0  0
    0.4655    2.4589   -0.0478 H   0  0  0  0  0  0  0  0  0  0  0  0
   -0.8409    2.2409   -1.2312 H   0  0  0  0  0  0  0  0  0  0  0  0
   -1.1925    2.1126    0.5070 H   0  0  0  0  0  0  0  0  0  0  0  0
    0.8352   -0.5078   -1.9541 H   0  0  0  0  0  0  0  0  0  0  0  0
    1.5856   -1.8488   -0.1027 H   0  0  0  0  0  0  0  0  0  0  0  0
    2.7295   -0.5072    0.1765 H   0  0  0  0  0  0  0  0  0  0  0  0
  1  9  1  0  0  0  0
  1 11  1  0  0  0  0
  2  7  1  6  0  0  0
  2  1  1  0  0  0  0
  2  5  1  0  0  0  0
  3  2  1  0  0  0  0
  3  4  1  0  0  0  0
  4 14  1  0  0  0  0
  4  5  1  0  0  0  0
  5  6  2  0  0  0  0
  8  7  3  0  0  0  0
 10  1  1  0  0  0  0
 12  3  1  0  0  0  0
 13  4  1  0  0  0  0
M  END
