14
title
C -0.32453004 1.8981261 -0.20801736
C -0.14914003 0.38421607 -0.2764752
O 0.9723757 -0.004737296 -1.1306745
C 1.7067345 -0.6539231 -0.0754672
C 0.625505 -0.24756764 0.9254479
O 0.449183 -0.32508156 2.09812
C -1.3741741 -0.31820825 -0.62023646
C -2.387381 -0.91018665 -0.8805262
H 0.61813354 2.376127 0.07090777
H -0.63935953 2.2778544 -1.1833959
H -1.0879782 2.1507869 0.53238356
H 1.8049706 -1.7370481 -0.2237176
H 2.6988409 -0.21784596 0.09318781
H -3.2822628 -1.4316056 -1.11712
