title
 OpenBabel02282109583D

 14 14  0  0  1  0  0  0  0  0999 V2000
   -0.3245    1.8981   -0.2080 C   0  0  0  0  0  0  0  0  0  0  0  0
   -0.1491    0.3842   -0.2765 C   0  0  1  0  0  0  0  0  0  0  0  0
    0.9724   -0.0047   -1.1307 O   0  0  0  0  0  0  0  0  0  0  0  0
    1.7067   -0.6539   -0.0755 C   0  0  0  0  0  0  0  0  0  0  0  0
    0.6255   -0.2476    0.9254 C   0  0  0  0  0  0  0  0  0  0  0  0
    0.4492   -0.3251    2.0981 O   0  0  0  0  0  0  0  0  0  0  0  0
   -1.3742   -0.3182   -0.6202 C   0  0  0  0  0  0  0  0  0  0  0  0
   -2.3874   -0.9102   -0.8805 C   0  0  0  0  0  0  0  0  0  0  0  0
    0.6181    2.3761    0.0709 H   0  0  0  0  0  0  0  0  0  0  0  0
   -0.6394    2.2779   -1.1834 H   0  0  0  0  0  0  0  0  0  0  0  0
   -1.0880    2.1508    0.5324 H   0  0  0  0  0  0  0  0  0  0  0  0
    1.8050   -1.7370   -0.2237 H   0  0  0  0  0  0  0  0  0  0  0  0
    2.6988   -0.2178    0.0932 H   0  0  0  0  0  0  0  0  0  0  0  0
   -3.2823   -1.4316   -1.1171 H   0  0  0  0  0  0  0  0  0  0  0  0
  1  9  1  0  0  0  0
  1 11  1  0  0  0  0
  2  7  1  6  0  0  0
  2  1  1  0  0  0  0
  2  5  1  0  0  0  0
  3  2  1  0  0  0  0
  3  4  1  0  0  0  0
  4 13  1  0  0  0  0
  4  5  1  0  0  0  0
  5  6  2  0  0  0  0
  8  7  3  0  0  0  0
 10  1  1  0  0  0  0
 12  4  1  0  0  0  0
 14  8  1  0  0  0  0
M  END
