title
 OpenBabel02282109583D

 14 14  0  0  1  0  0  0  0  0999 V2000
   -0.0754    1.8556    0.4103 N   0  0  0  0  0  0  0  0  0  0  0  0
   -0.1131    0.4031    0.3262 C   0  0  1  0  0  0  0  0  0  0  0  0
   -1.5400   -0.2049    0.1621 C   0  0  0  0  0  0  0  0  0  0  0  0
   -1.1509   -0.8140   -1.1053 O   0  0  0  0  0  0  0  0  0  0  0  0
    0.1081   -0.2598   -1.0535 C   0  0  0  0  0  0  0  0  0  0  0  0
    1.0489   -0.2566   -1.8776 N   0  0  0  0  0  0  0  0  0  0  0  0
    0.6820   -0.1959    1.3868 C   0  0  0  0  0  0  0  0  0  0  0  0
    1.3405   -0.6980    2.2565 C   0  0  0  0  0  0  0  0  0  0  0  0
    0.8892    2.1599    0.5024 H   0  0  0  0  0  0  0  0  0  0  0  0
   -0.4245    2.2575   -0.4561 H   0  0  0  0  0  0  0  0  0  0  0  0
   -1.8364   -0.9567    0.8941 H   0  0  0  0  0  0  0  0  0  0  0  0
   -2.3244    0.5425    0.0201 H   0  0  0  0  0  0  0  0  0  0  0  0
    0.8149   -0.7744   -2.7265 H   0  0  0  0  0  0  0  0  0  0  0  0
    1.9283   -1.1413    3.0224 H   0  0  0  0  0  0  0  0  0  0  0  0
  1  9  1  0  0  0  0
  2  1  1  0  0  0  0
  2  7  1  1  0  0  0
  3  2  1  0  0  0  0
  3 11  1  0  0  0  0
  4  5  1  0  0  0  0
  4  3  1  0  0  0  0
  5  2  1  0  0  0  0
  6  5  2  0  0  0  0
  7  8  3  0  0  0  0
  8 14  1  0  0  0  0
 10  1  1  0  0  0  0
 12  3  1  0  0  0  0
 13  6  1  0  0  0  0
M  END
