14
title
N -0.07539064 1.8555627 0.41031376
C -0.11306763 0.40308085 0.32617238
C -1.5399667 -0.20492019 0.16207029
O -1.1508585 -0.81396395 -1.1053278
C 0.108142786 -0.25984627 -1.0534984
N 1.0489268 -0.25663447 -1.877649
C 0.6820334 -0.19592096 1.3867909
C 1.3404903 -0.69800156 2.2565384
H 0.8891866 2.1598823 0.5023555
H -0.4245081 2.2575097 -0.45606875
H -1.8363929 -0.9566631 0.89405054
H -2.3243797 0.54246175 0.020146333
H 0.8148877 -0.77438563 -2.7265382
H 1.9282526 -1.1412745 3.0223675
