title
 OpenBabel02282109583D

 13 13  0  0  1  0  0  0  0  0999 V2000
   -0.0889    1.8579    0.4429 N   0  0  0  0  0  0  0  0  0  0  0  0
   -0.1228    0.4077    0.3553 C   0  0  1  0  0  0  0  0  0  0  0  0
   -1.5402   -0.2068    0.1741 C   0  0  0  0  0  0  0  0  0  0  0  0
   -1.1499   -0.7867   -1.1085 O   0  0  0  0  0  0  0  0  0  0  0  0
    0.1089   -0.2507   -1.0516 C   0  0  0  0  0  0  0  0  0  0  0  0
    0.9646   -0.2906   -1.8719 O   0  0  0  0  0  0  0  0  0  0  0  0
    0.6857   -0.2008    1.3970 C   0  0  0  0  0  0  0  0  0  0  0  0
    1.3681   -0.7182    2.2391 C   0  0  0  0  0  0  0  0  0  0  0  0
    0.8716    2.1728    0.5362 H   0  0  0  0  0  0  0  0  0  0  0  0
   -0.4583    2.2723   -0.4087 H   0  0  0  0  0  0  0  0  0  0  0  0
   -1.8284   -0.9797    0.8861 H   0  0  0  0  0  0  0  0  0  0  0  0
   -2.3319    0.5342    0.0464 H   0  0  0  0  0  0  0  0  0  0  0  0
    1.9719   -1.1742    2.9851 H   0  0  0  0  0  0  0  0  0  0  0  0
  1  9  1  0  0  0  0
  2  1  1  0  0  0  0
  2  7  1  1  0  0  0
  3  2  1  0  0  0  0
  3 11  1  0  0  0  0
  4  5  1  0  0  0  0
  4  3  1  0  0  0  0
  5  2  1  0  0  0  0
  6  5  2  0  0  0  0
  7  8  3  0  0  0  0
  8 13  1  0  0  0  0
 10  1  1  0  0  0  0
 12  3  1  0  0  0  0
M  END
