14
title
O 0.044436574 1.7454357 0.54617405
C -0.10798245 0.35771582 0.3642237
C -1.6018018 -0.070915505 0.19630794
C -1.2644416 -0.8538732 -1.1084882
C 0.096065 -0.1500559 -1.1128508
O 0.928255 0.09281626 -1.9322449
C 0.64729315 -0.44235843 1.3192892
C 1.3054721 -1.1054895 2.0770924
H 0.9843263 1.9499062 0.47224146
H -2.0225363 -0.6445134 1.0204042
H -2.2085407 0.8162157 0.008015129
H -1.154407 -1.9310371 -0.9488216
H -1.8917463 -0.6914018 -1.9871877
H 1.881033 -1.6872222 2.7545624
