title
 OpenBabel02282109583D

 14 14  0  0  1  0  0  0  0  0999 V2000
    0.0444    1.7454    0.5462 O   0  0  0  0  0  0  0  0  0  0  0  0
   -0.1080    0.3577    0.3642 C   0  0  1  0  0  0  0  0  0  0  0  0
   -1.6018   -0.0709    0.1963 C   0  0  0  0  0  0  0  0  0  0  0  0
   -1.2644   -0.8539   -1.1085 C   0  0  0  0  0  0  0  0  0  0  0  0
    0.0961   -0.1501   -1.1129 C   0  0  0  0  0  0  0  0  0  0  0  0
    0.9283    0.0928   -1.9322 O   0  0  0  0  0  0  0  0  0  0  0  0
    0.6473   -0.4424    1.3193 C   0  0  0  0  0  0  0  0  0  0  0  0
    1.3055   -1.1055    2.0771 C   0  0  0  0  0  0  0  0  0  0  0  0
    0.9843    1.9499    0.4722 H   0  0  0  0  0  0  0  0  0  0  0  0
   -2.0225   -0.6445    1.0204 H   0  0  0  0  0  0  0  0  0  0  0  0
   -2.2085    0.8162    0.0080 H   0  0  0  0  0  0  0  0  0  0  0  0
   -1.1544   -1.9310   -0.9488 H   0  0  0  0  0  0  0  0  0  0  0  0
   -1.8917   -0.6914   -1.9872 H   0  0  0  0  0  0  0  0  0  0  0  0
    1.8810   -1.6872    2.7546 H   0  0  0  0  0  0  0  0  0  0  0  0
  2  1  1  0  0  0  0
  2  7  1  1  0  0  0
  3  2  1  0  0  0  0
  3 10  1  0  0  0  0
  4 12  1  0  0  0  0
  4  3  1  0  0  0  0
  5  4  1  0  0  0  0
  5  2  1  0  0  0  0
  6  5  2  0  0  0  0
  7  8  3  0  0  0  0
  8 14  1  0  0  0  0
  9  1  1  0  0  0  0
 11  3  1  0  0  0  0
 13  4  1  0  0  0  0
M  END
