14
title
O 0.0017104421 1.7431315 0.3612068
C -0.1041158 0.33758092 0.32930672
C -1.5914685 -0.12645113 0.1737419
N -1.1905614 -0.77380824 -1.0878196
C 0.08578749 -0.24155179 -1.0942409
N 1.0640173 -0.122934036 -1.8824528
C 0.659023 -0.3174756 1.383333
C 1.297149 -0.8508384 2.2506611
H 0.85856986 1.9614742 -0.027547197
H -1.9662668 -0.81554866 0.9329841
H -2.257685 0.7331535 0.05886741
H -1.7756611 -0.9647945 -1.8882436
H 0.87713325 -0.51673836 -2.8056238
H 1.8679038 -1.3198403 3.0138555
