13
title
O 0.05337862 1.7399546 0.37866172
C -0.10759584 0.35111347 0.31114268
C -1.5975618 -0.09967408 0.15146245
N -1.1929301 -0.75136185 -1.106569
C 0.085492365 -0.22966951 -1.109076
N 1.073819 -0.0996472 -1.879768
C 0.6302687 -0.3478006 1.3724933
N 1.2109376 -0.89215493 2.2099922
H 0.8678669 1.9492894 -0.09874828
H -1.9858254 -0.7827792 0.90921867
H -2.2504787 0.7693158 0.032992605
H -1.7737961 -0.96502185 -1.9040736
H 0.9124961 -0.47981256 -2.812602
