title
 OpenBabel02282109583D

 13 13  0  0  1  0  0  0  0  0999 V2000
   -0.1962    1.7474    0.3842 O   0  0  0  0  0  0  0  0  0  0  0  0
   -0.1359    0.3386    0.3557 C   0  0  1  0  0  0  0  0  0  0  0  0
   -1.5655   -0.2781    0.2290 C   0  0  0  0  0  0  0  0  0  0  0  0
   -1.1590   -0.8009   -1.0802 N   0  0  0  0  0  0  0  0  0  0  0  0
    0.0890   -0.2428   -1.0972 C   0  0  0  0  0  0  0  0  0  0  0  0
    0.9688   -0.1788   -1.9091 O   0  0  0  0  0  0  0  0  0  0  0  0
    0.7238   -0.2247    1.3830 C   0  0  0  0  0  0  0  0  0  0  0  0
    1.4656   -0.6809    2.2117 C   0  0  0  0  0  0  0  0  0  0  0  0
    0.6913    2.0767    0.1975 H   0  0  0  0  0  0  0  0  0  0  0  0
   -1.8139   -1.0448    0.9658 H   0  0  0  0  0  0  0  0  0  0  0  0
   -2.3379    0.4943    0.1904 H   0  0  0  0  0  0  0  0  0  0  0  0
   -1.6903   -1.2479   -1.8126 H   0  0  0  0  0  0  0  0  0  0  0  0
    2.1194   -1.0837    2.9457 H   0  0  0  0  0  0  0  0  0  0  0  0
  2  1  1  0  0  0  0
  2  7  1  1  0  0  0
  3  2  1  0  0  0  0
  3 10  1  0  0  0  0
  4  3  1  0  0  0  0
  5  4  1  0  0  0  0
  5  2  1  0  0  0  0
  6  5  2  0  0  0  0
  7  8  3  0  0  0  0
  8 13  1  0  0  0  0
  9  1  1  0  0  0  0
 11  3  1  0  0  0  0
 12  4  1  0  0  0  0
M  END
