title
 OpenBabel02282109583D

 12 12  0  0  1  0  0  0  0  0999 V2000
   -0.1074    1.7723    0.3923 O   0  0  0  0  0  0  0  0  0  0  0  0
   -0.1130    0.3651    0.3637 C   0  0  1  0  0  0  0  0  0  0  0  0
   -1.5427   -0.1873    0.1629 C   0  0  0  0  0  0  0  0  0  0  0  0
   -1.1738   -0.7249   -1.1468 O   0  0  0  0  0  0  0  0  0  0  0  0
    0.1026   -0.2446   -1.0632 C   0  0  0  0  0  0  0  0  0  0  0  0
    0.9712   -0.2957   -1.8680 O   0  0  0  0  0  0  0  0  0  0  0  0
    0.6913   -0.2434    1.4100 C   0  0  0  0  0  0  0  0  0  0  0  0
    1.3872   -0.7337    2.2581 C   0  0  0  0  0  0  0  0  0  0  0  0
    0.8115    2.0654    0.3910 H   0  0  0  0  0  0  0  0  0  0  0  0
   -1.8550   -0.9818    0.8399 H   0  0  0  0  0  0  0  0  0  0  0  0
   -2.2966    0.5951    0.0698 H   0  0  0  0  0  0  0  0  0  0  0  0
    1.9990   -1.1703    3.0096 H   0  0  0  0  0  0  0  0  0  0  0  0
  2  1  1  0  0  0  0
  2  7  1  1  0  0  0
  3  2  1  0  0  0  0
  3 10  1  0  0  0  0
  4  5  1  0  0  0  0
  4  3  1  0  0  0  0
  5  2  1  0  0  0  0
  6  5  2  0  0  0  0
  7  8  3  0  0  0  0
  8 12  1  0  0  0  0
  9  1  1  0  0  0  0
 11  3  1  0  0  0  0
M  END
