12
title
O -0.107383706 1.7723168 0.39231548
C -0.11300276 0.36509788 0.36369297
C -1.5426974 -0.18734752 0.16290525
O -1.1738496 -0.7249267 -1.1467769
C 0.10260876 -0.24461798 -1.0632259
O 0.9712367 -0.29565752 -1.8680142
C 0.6913433 -0.24337988 1.4099904
C 1.3872197 -0.73374903 2.258126
H 0.8115461 2.0654047 0.3909552
H -1.8550119 -0.981799 0.8398813
H -2.2965853 0.5950947 0.069804564
H 1.9989747 -1.1702954 3.0095553
