title
 OpenBabel02282109583D

 16 16  0  0  1  0  0  0  0  0999 V2000
   -0.3824    2.0051    0.1729 C   0  0  0  0  0  0  0  0  0  0  0  0
   -0.2287    0.5184   -0.1395 C   0  0  1  0  0  0  0  0  0  0  0  0
    0.4783    0.0557   -1.4475 C   0  0  0  0  0  0  0  0  0  0  0  0
    1.4177   -0.8903   -0.6393 C   0  0  0  0  0  0  0  0  0  0  0  0
    0.9347   -0.1987    0.6336 C   0  0  0  0  0  0  0  0  0  0  0  0
    1.3333   -0.0978    1.7543 O   0  0  0  0  0  0  0  0  0  0  0  0
   -1.5158   -0.2393    0.1260 C   0  0  0  0  0  0  0  0  0  0  0  0
   -1.9311   -1.1500   -0.5448 O   0  0  0  0  0  0  0  0  0  0  0  0
    0.5769    2.5214    0.0798 H   0  0  0  0  0  0  0  0  0  0  0  0
   -1.0950    2.4822   -0.5078 H   0  0  0  0  0  0  0  0  0  0  0  0
   -0.7371    2.1480    1.1985 H   0  0  0  0  0  0  0  0  0  0  0  0
   -0.1825   -0.4388   -2.1585 H   0  0  0  0  0  0  0  0  0  0  0  0
    1.0149    0.8719   -1.9343 H   0  0  0  0  0  0  0  0  0  0  0  0
    1.0889   -1.9342   -0.6703 H   0  0  0  0  0  0  0  0  0  0  0  0
    2.4936   -0.8524   -0.8236 H   0  0  0  0  0  0  0  0  0  0  0  0
   -2.0574    0.1004    1.0362 H   0  0  0  0  0  0  0  0  0  0  0  0
  1 11  1  0  0  0  0
  2  7  1  1  0  0  0
  2  1  1  0  0  0  0
  2  5  1  0  0  0  0
  3  4  1  0  0  0  0
  3  2  1  0  0  0  0
  4  5  1  0  0  0  0
  5  6  2  0  0  0  0
  7 16  1  0  0  0  0
  8  7  2  0  0  0  0
  9  1  1  0  0  0  0
 10  1  1  0  0  0  0
 12  3  1  0  0  0  0
 13  3  1  0  0  0  0
 14  4  1  0  0  0  0
 15  4  1  0  0  0  0
M  END
