title
 OpenBabel02282109583D

 15 15  0  0  1  0  0  0  0  0999 V2000
   -0.0205    2.0202   -0.0009 C   0  0  0  0  0  0  0  0  0  0  0  0
   -0.1660    0.5092   -0.1693 C   0  0  1  0  0  0  0  0  0  0  0  0
    0.4400   -0.1571   -1.4356 C   0  0  0  0  0  0  0  0  0  0  0  0
    1.3612   -0.8757   -0.5452 N   0  0  0  0  0  0  0  0  0  0  0  0
    0.9204   -0.3223    0.6214 C   0  0  0  0  0  0  0  0  0  0  0  0
    1.2457   -0.4180    1.7720 O   0  0  0  0  0  0  0  0  0  0  0  0
   -1.5588    0.0341    0.1798 C   0  0  0  0  0  0  0  0  0  0  0  0
   -2.2045   -0.7508   -0.4670 O   0  0  0  0  0  0  0  0  0  0  0  0
    1.0094    2.3345   -0.1916 H   0  0  0  0  0  0  0  0  0  0  0  0
   -0.6784    2.5632   -0.6871 H   0  0  0  0  0  0  0  0  0  0  0  0
   -0.2737    2.3136    1.0226 H   0  0  0  0  0  0  0  0  0  0  0  0
   -0.2570   -0.8007   -1.9754 H   0  0  0  0  0  0  0  0  0  0  0  0
    0.9362    0.5389   -2.1185 H   0  0  0  0  0  0  0  0  0  0  0  0
    2.1069   -1.5311   -0.7261 H   0  0  0  0  0  0  0  0  0  0  0  0
   -1.9552    0.4666    1.1247 H   0  0  0  0  0  0  0  0  0  0  0  0
  1 11  1  0  0  0  0
  2  1  1  0  0  0  0
  2  7  1  1  0  0  0
  2  5  1  0  0  0  0
  3  4  1  0  0  0  0
  3  2  1  0  0  0  0
  4  5  1  0  0  0  0
  5  6  2  0  0  0  0
  7 15  1  0  0  0  0
  8  7  2  0  0  0  0
  9  1  1  0  0  0  0
 10  1  1  0  0  0  0
 12  3  1  0  0  0  0
 13  3  1  0  0  0  0
 14  4  1  0  0  0  0
M  END
