title
 OpenBabel02282109583D

 15 15  0  0  1  0  0  0  0  0999 V2000
   -0.1256    2.0104    0.0934 C   0  0  0  0  0  0  0  0  0  0  0  0
   -0.1690    0.4975   -0.1241 C   0  0  1  0  0  0  0  0  0  0  0  0
    0.5152   -0.0975   -1.3697 C   0  0  0  0  0  0  0  0  0  0  0  0
    1.4547   -0.8298   -0.5106 O   0  0  0  0  0  0  0  0  0  0  0  0
    0.8975   -0.3004    0.6263 C   0  0  0  0  0  0  0  0  0  0  0  0
    1.1797   -0.4334    1.8393 N   0  0  0  0  0  0  0  0  0  0  0  0
   -1.5612   -0.0488    0.1539 C   0  0  0  0  0  0  0  0  0  0  0  0
   -2.1944   -0.7278   -0.6106 O   0  0  0  0  0  0  0  0  0  0  0  0
    0.8897    2.3909   -0.0454 H   0  0  0  0  0  0  0  0  0  0  0  0
   -0.7895    2.5267   -0.6074 H   0  0  0  0  0  0  0  0  0  0  0  0
   -0.4381    2.2560    1.1126 H   0  0  0  0  0  0  0  0  0  0  0  0
   -0.1000   -0.7808   -1.9554 H   0  0  0  0  0  0  0  0  0  0  0  0
    1.0473    0.6119   -2.0068 H   0  0  0  0  0  0  0  0  0  0  0  0
    1.9781   -1.0550    1.9788 H   0  0  0  0  0  0  0  0  0  0  0  0
   -1.9595    0.2348    1.1516 H   0  0  0  0  0  0  0  0  0  0  0  0
  1 11  1  0  0  0  0
  2  1  1  0  0  0  0
  2  7  1  1  0  0  0
  2  5  1  0  0  0  0
  3  4  1  0  0  0  0
  3  2  1  0  0  0  0
  4  5  1  0  0  0  0
  5  6  2  0  0  0  0
  6 14  1  0  0  0  0
  7 15  1  0  0  0  0
  8  7  2  0  0  0  0
  9  1  1  0  0  0  0
 10  1  1  0  0  0  0
 12  3  1  0  0  0  0
 13  3  1  0  0  0  0
M  END
