14
title
C -0.16834989 1.8205656 -0.24004976
C -0.018057678 0.310005 -0.3272602
O 1.0976235 -0.14110301 -1.1359904
C 1.7712686 -0.80992484 -0.050644264
C 0.6601407 -0.36748606 0.9025532
O 0.42089087 -0.4550529 2.0632808
C -1.3044806 -0.3829397 -0.7604198
O -2.4037066 -0.021042354 -0.43706748
H 0.7157126 2.2811947 0.2066761
H -0.3137959 2.2364511 -1.2410637
H -1.0472386 2.0522192 0.36576834
H 1.8449452 -1.8957709 -0.19414128
H 2.767869 -0.40182567 0.15682647
H -1.1246483 -1.2706387 -1.4051684
