14
title
O 0.107473336 1.6144184 0.511127
C -0.16260259 0.28335285 0.27324018
C -1.6618321 -0.1587375 0.09968528
C -1.3046961 -0.9897688 -1.1638747
C 0.03959686 -0.25352517 -1.2018312
O 0.84818774 -0.010405123 -2.0413523
C 0.56857693 -0.5981627 1.2609656
O 1.3363353 -0.1281521 2.0655453
H 0.77417755 1.6321399 1.218531
H -2.1098282 -0.69626325 0.9371116
H -2.263047 0.7213069 -0.13224898
H -1.1707507 -2.0583138 -0.962754
H -1.9350729 -0.880459 -2.0484324
H 0.36480275 -1.6859922 1.2112474
