title
 OpenBabel02282109583D

 14 14  0  0  1  0  0  0  0  0999 V2000
    0.1075    1.6144    0.5111 O   0  0  0  0  0  0  0  0  0  0  0  0
   -0.1626    0.2834    0.2732 C   0  0  1  0  0  0  0  0  0  0  0  0
   -1.6618   -0.1587    0.0997 C   0  0  0  0  0  0  0  0  0  0  0  0
   -1.3047   -0.9898   -1.1639 C   0  0  0  0  0  0  0  0  0  0  0  0
    0.0396   -0.2535   -1.2018 C   0  0  0  0  0  0  0  0  0  0  0  0
    0.8482   -0.0104   -2.0414 O   0  0  0  0  0  0  0  0  0  0  0  0
    0.5686   -0.5982    1.2610 C   0  0  0  0  0  0  0  0  0  0  0  0
    1.3363   -0.1282    2.0655 O   0  0  0  0  0  0  0  0  0  0  0  0
    0.7742    1.6321    1.2185 H   0  0  0  0  0  0  0  0  0  0  0  0
   -2.1098   -0.6963    0.9371 H   0  0  0  0  0  0  0  0  0  0  0  0
   -2.2630    0.7213   -0.1322 H   0  0  0  0  0  0  0  0  0  0  0  0
   -1.1708   -2.0583   -0.9628 H   0  0  0  0  0  0  0  0  0  0  0  0
   -1.9351   -0.8805   -2.0484 H   0  0  0  0  0  0  0  0  0  0  0  0
    0.3648   -1.6860    1.2112 H   0  0  0  0  0  0  0  0  0  0  0  0
  1  9  1  0  0  0  0
  2  1  1  1  0  0  0
  2  7  1  0  0  0  0
  3  2  1  0  0  0  0
  3 10  1  0  0  0  0
  4 12  1  0  0  0  0
  4  3  1  0  0  0  0
  5  4  1  0  0  0  0
  5  2  1  0  0  0  0
  6  5  2  0  0  0  0
  7  8  2  0  0  0  0
 11  3  1  0  0  0  0
 13  4  1  0  0  0  0
 14  7  1  0  0  0  0
M  END
