14
title
O 0.008521879 1.6622694 0.32640135
C -0.17474556 0.29980218 0.22704802
C -1.6506579 -0.21469142 0.06408442
N -1.1772419 -1.0145977 -1.0749118
C 0.056982957 -0.37549686 -1.1570024
N 1.0217913 -0.3011664 -1.9637662
C 0.58071786 -0.43194193 1.3162804
O 1.2813847 0.16264677 2.0974627
H 0.66407824 1.789832 1.0323864
H -2.08409 -0.79948634 0.8814064
H -2.3067002 0.6218407 -0.19490825
H -1.7373629 -1.3346379 -1.8522478
H 0.8479835 -0.82050765 -2.8261986
H 0.455056 -1.5314909 1.3459524
