13
title
O -0.06724315 1.6864583 0.27752534
C -0.17604293 0.31411585 0.22796752
C -1.5990041 -0.2951134 0.060291618
O -1.1564667 -1.0258355 -1.1211463
C 0.0750016 -0.4046531 -1.1124777
N 1.0329788 -0.43819544 -1.9135103
C 0.6233468 -0.3353279 1.3458611
O 1.2748702 0.33288634 2.1073983
H 0.5701185 1.8786975 0.98592806
H -1.9666408 -0.97458035 0.83308905
H -2.3440573 0.4633064 -0.18776122
H 0.83154666 -1.0174311 -2.7304378
H 0.5725037 -1.4389539 1.4145756
