12
title
O -0.069904834 1.6901548 0.30517602
C -0.18164144 0.3206994 0.25510153
C -1.5928067 -0.3036587 0.08579397
O -1.149017 -1.0260965 -1.1024181
C 0.067585394 -0.39513293 -1.1183782
O 0.92095304 -0.44928148 -1.9368914
C 0.6298679 -0.33704588 1.3579773
O 1.3056467 0.32899523 2.1003633
H 0.571501 1.8816552 1.0109192
H -1.9471147 -0.995062 0.8531824
H -2.3497078 0.44302967 -0.15827422
H 0.56455386 -1.439033 1.4364041
