18
title
C 0.1251649 1.7272967 -0.36550772
C -0.17521983 0.22079112 -0.36633795
C 0.7784525 -0.58154184 -1.3209572
C 1.7111259 -0.8848811 -0.11956594
C 0.54014224 -0.5324556 0.8295643
O 0.7770523 0.13564841 2.0357099
C -1.5977266 -0.027931327 -0.51031184
C -2.7746534 -0.25267935 -0.6218609
H 1.203226 1.9180547 -0.31565017
H -0.2505998 2.1908677 -1.2816098
H -0.35443333 2.2161605 0.48698634
H 0.292869 -1.4783072 -1.7093295
H 1.199522 -0.01693585 -2.1554582
H 2.1372786 -1.8865898 -0.03864255
H 2.5258446 -0.15766704 -0.037705686
H -0.038294602 -1.4221749 1.0893462
H 1.3597217 0.882063 1.861425
H -3.813396 -0.44961464 -0.7191746
