title
 OpenBabel02282109583D

 18 18  0  0  1  0  0  0  0  0999 V2000
    0.1252    1.7273   -0.3655 C   0  0  0  0  0  0  0  0  0  0  0  0
   -0.1752    0.2208   -0.3663 C   0  0  1  0  0  0  0  0  0  0  0  0
    0.7785   -0.5815   -1.3210 C   0  0  0  0  0  0  0  0  0  0  0  0
    1.7111   -0.8849   -0.1196 C   0  0  0  0  0  0  0  0  0  0  0  0
    0.5401   -0.5325    0.8296 C   0  0  1  0  0  0  0  0  0  0  0  0
    0.7771    0.1356    2.0357 O   0  0  0  0  0  0  0  0  0  0  0  0
   -1.5977   -0.0279   -0.5103 C   0  0  0  0  0  0  0  0  0  0  0  0
   -2.7747   -0.2527   -0.6219 C   0  0  0  0  0  0  0  0  0  0  0  0
    1.2032    1.9181   -0.3157 H   0  0  0  0  0  0  0  0  0  0  0  0
   -0.2506    2.1909   -1.2816 H   0  0  0  0  0  0  0  0  0  0  0  0
   -0.3544    2.2162    0.4870 H   0  0  0  0  0  0  0  0  0  0  0  0
    0.2929   -1.4783   -1.7093 H   0  0  0  0  0  0  0  0  0  0  0  0
    1.1995   -0.0169   -2.1555 H   0  0  0  0  0  0  0  0  0  0  0  0
    2.1373   -1.8866   -0.0386 H   0  0  0  0  0  0  0  0  0  0  0  0
    2.5258   -0.1577   -0.0377 H   0  0  0  0  0  0  0  0  0  0  0  0
   -0.0383   -1.4222    1.0893 H   0  0  0  0  0  0  0  0  0  0  0  0
    1.3597    0.8821    1.8614 H   0  0  0  0  0  0  0  0  0  0  0  0
   -3.8134   -0.4496   -0.7192 H   0  0  0  0  0  0  0  0  0  0  0  0
  1  9  1  0  0  0  0
  1 11  1  0  0  0  0
  2  1  1  0  0  0  0
  2  5  1  1  0  0  0
  3  2  1  0  0  0  0
  3  4  1  0  0  0  0
  4 14  1  0  0  0  0
  4 15  1  0  0  0  0
  4  5  1  0  0  0  0
  5 16  1  1  0  0  0
  5  6  1  0  0  0  0
  7  2  1  0  0  0  0
  8  7  3  0  0  0  0
 10  1  1  0  0  0  0
 12  3  1  0  0  0  0
 13  3  1  0  0  0  0
 17  6  1  0  0  0  0
 18  8  1  0  0  0  0
M  END
