title
 OpenBabel02282109583D

 17 17  0  0  1  0  0  0  0  0999 V2000
    0.1908    1.7277   -0.3711 C   0  0  0  0  0  0  0  0  0  0  0  0
   -0.1534    0.2325   -0.3596 C   0  0  1  0  0  0  0  0  0  0  0  0
    0.7388   -0.6190   -1.3271 C   0  0  0  0  0  0  0  0  0  0  0  0
    1.6751   -0.9619   -0.1385 C   0  0  0  0  0  0  0  0  0  0  0  0
    0.5397   -0.5516    0.8309 C   0  0  1  0  0  0  0  0  0  0  0  0
    0.8231    0.1142    2.0234 O   0  0  0  0  0  0  0  0  0  0  0  0
   -1.5910    0.0338   -0.4800 C   0  0  0  0  0  0  0  0  0  0  0  0
   -2.7300   -0.1470   -0.5709 N   0  0  0  0  0  0  0  0  0  0  0  0
    1.2754    1.8759   -0.3447 H   0  0  0  0  0  0  0  0  0  0  0  0
   -0.1863    2.2026   -1.2805 H   0  0  0  0  0  0  0  0  0  0  0  0
   -0.2506    2.2339    0.4914 H   0  0  0  0  0  0  0  0  0  0  0  0
    0.2067   -1.4929   -1.7063 H   0  0  0  0  0  0  0  0  0  0  0  0
    1.1697   -0.0738   -2.1686 H   0  0  0  0  0  0  0  0  0  0  0  0
    2.0524   -1.9826   -0.0608 H   0  0  0  0  0  0  0  0  0  0  0  0
    2.5246   -0.2740   -0.0746 H   0  0  0  0  0  0  0  0  0  0  0  0
   -0.0758   -1.4120    1.1041 H   0  0  0  0  0  0  0  0  0  0  0  0
    1.4724    0.8033    1.8479 H   0  0  0  0  0  0  0  0  0  0  0  0
  1  2  1  0  0  0  0
  1  9  1  0  0  0  0
  1 11  1  0  0  0  0
  2  5  1  1  0  0  0
  3  2  1  0  0  0  0
  3  4  1  0  0  0  0
  4 15  1  0  0  0  0
  4 14  1  0  0  0  0
  4  5  1  0  0  0  0
  5 16  1  1  0  0  0
  5  6  1  0  0  0  0
  7  2  1  0  0  0  0
  8  7  3  0  0  0  0
 10  1  1  0  0  0  0
 12  3  1  0  0  0  0
 13  3  1  0  0  0  0
 17  6  1  0  0  0  0
M  END
