title
 OpenBabel02282109583D

 16 16  0  0  1  0  0  0  0  0999 V2000
   -0.2851    1.8657   -0.2913 C   0  0  0  0  0  0  0  0  0  0  0  0
   -0.1953    0.3455   -0.2603 C   0  0  1  0  0  0  0  0  0  0  0  0
    0.8684   -0.2504   -1.1131 N   0  0  0  0  0  0  0  0  0  0  0  0
    1.1984   -1.2589   -0.0767 C   0  0  0  0  0  0  0  0  0  0  0  0
    0.5219   -0.3491    0.9776 C   0  0  1  0  0  0  0  0  0  0  0  0
    1.3793    0.4830    1.7024 O   0  0  0  0  0  0  0  0  0  0  0  0
   -1.5135   -0.2635   -0.4918 C   0  0  0  0  0  0  0  0  0  0  0  0
   -2.5352   -0.7683   -0.6921 N   0  0  0  0  0  0  0  0  0  0  0  0
    0.6822    2.2987   -0.0318 H   0  0  0  0  0  0  0  0  0  0  0  0
   -0.5642    2.2094   -1.2916 H   0  0  0  0  0  0  0  0  0  0  0  0
   -1.0337    2.2253    0.4200 H   0  0  0  0  0  0  0  0  0  0  0  0
    0.5648   -0.6071   -2.0132 H   0  0  0  0  0  0  0  0  0  0  0  0
    0.6831   -2.2213   -0.1873 H   0  0  0  0  0  0  0  0  0  0  0  0
    2.2702   -1.4372    0.0581 H   0  0  0  0  0  0  0  0  0  0  0  0
   -0.1444   -0.8230    1.6975 H   0  0  0  0  0  0  0  0  0  0  0  0
    2.0718    0.7960    1.1090 H   0  0  0  0  0  0  0  0  0  0  0  0
  1  2  1  0  0  0  0
  1  9  1  0  0  0  0
  1 11  1  0  0  0  0
  2  5  1  1  0  0  0
  3  2  1  0  0  0  0
  3  4  1  0  0  0  0
  4 14  1  0  0  0  0
  4  5  1  0  0  0  0
  5 15  1  1  0  0  0
  5  6  1  0  0  0  0
  7  2  1  0  0  0  0
  8  7  3  0  0  0  0
 10  1  1  0  0  0  0
 12  3  1  0  0  0  0
 13  4  1  0  0  0  0
 16  6  1  0  0  0  0
M  END
