title
 OpenBabel02282109583D

 16 16  0  0  1  0  0  0  0  0999 V2000
   -0.0225    1.7407   -0.4898 C   0  0  0  0  0  0  0  0  0  0  0  0
   -0.1777    0.2392   -0.2878 C   0  0  1  0  0  0  0  0  0  0  0  0
    0.5745   -0.5300   -1.2558 O   0  0  0  0  0  0  0  0  0  0  0  0
    1.4759   -1.0433   -0.2523 C   0  0  0  0  0  0  0  0  0  0  0  0
    0.6449   -0.4063    0.8908 C   0  0  1  0  0  0  0  0  0  0  0  0
    1.2239    0.4897    1.8552 N   0  0  0  0  0  0  0  0  0  0  0  0
   -1.5963   -0.1468   -0.3020 C   0  0  0  0  0  0  0  0  0  0  0  0
   -2.7096   -0.4574   -0.2840 N   0  0  0  0  0  0  0  0  0  0  0  0
    1.0370    2.0081   -0.5048 H   0  0  0  0  0  0  0  0  0  0  0  0
   -0.4673    2.0358   -1.4434 H   0  0  0  0  0  0  0  0  0  0  0  0
   -0.5120    2.2877    0.3195 H   0  0  0  0  0  0  0  0  0  0  0  0
    1.5374   -2.1366   -0.2748 H   0  0  0  0  0  0  0  0  0  0  0  0
    2.4861   -0.6237   -0.3591 H   0  0  0  0  0  0  0  0  0  0  0  0
    0.0407   -1.1441    1.4204 H   0  0  0  0  0  0  0  0  0  0  0  0
    1.4934    0.0023    2.7006 H   0  0  0  0  0  0  0  0  0  0  0  0
    2.0451    0.9630    1.4955 H   0  0  0  0  0  0  0  0  0  0  0  0
  1  2  1  0  0  0  0
  1 11  1  0  0  0  0
  2  5  1  1  0  0  0
  3  2  1  0  0  0  0
  3  4  1  0  0  0  0
  4  5  1  0  0  0  0
  5 14  1  1  0  0  0
  5  6  1  0  0  0  0
  6 15  1  0  0  0  0
  7  2  1  0  0  0  0
  7  8  3  0  0  0  0
  9  1  1  0  0  0  0
 10  1  1  0  0  0  0
 12  4  1  0  0  0  0
 13  4  1  0  0  0  0
 16  6  1  0  0  0  0
M  END
