title
 OpenBabel02282109583D

 16 16  0  0  1  0  0  0  0  0999 V2000
   -0.0549    1.7630   -0.3586 C   0  0  0  0  0  0  0  0  0  0  0  0
   -0.2212    0.2497   -0.2799 C   0  0  1  0  0  0  0  0  0  0  0  0
    0.6136   -0.4256   -1.2681 O   0  0  0  0  0  0  0  0  0  0  0  0
    1.4746   -0.9854   -0.2563 C   0  0  0  0  0  0  0  0  0  0  0  0
    0.5878   -0.4590    0.8760 C   0  0  1  0  0  0  0  0  0  0  0  0
    1.2806    0.3466    1.7890 O   0  0  0  0  0  0  0  0  0  0  0  0
   -1.6160   -0.1584   -0.3829 C   0  0  0  0  0  0  0  0  0  0  0  0
   -2.7677   -0.5013   -0.4309 C   0  0  0  0  0  0  0  0  0  0  0  0
    0.9907    2.0339   -0.2016 H   0  0  0  0  0  0  0  0  0  0  0  0
   -0.3769    2.1125   -1.3428 H   0  0  0  0  0  0  0  0  0  0  0  0
   -0.6651    2.2602    0.4016 H   0  0  0  0  0  0  0  0  0  0  0  0
    1.5651   -2.0729   -0.3459 H   0  0  0  0  0  0  0  0  0  0  0  0
    2.4728   -0.5307   -0.2585 H   0  0  0  0  0  0  0  0  0  0  0  0
   -0.0062   -1.2305    1.3766 H   0  0  0  0  0  0  0  0  0  0  0  0
    0.6887    0.5724    2.5135 H   0  0  0  0  0  0  0  0  0  0  0  0
   -3.7843   -0.8033   -0.4897 H   0  0  0  0  0  0  0  0  0  0  0  0
  1  2  1  0  0  0  0
  1  9  1  0  0  0  0
  1 11  1  0  0  0  0
  2  5  1  1  0  0  0
  3  2  1  0  0  0  0
  3  4  1  0  0  0  0
  4  5  1  0  0  0  0
  5 14  1  1  0  0  0
  5  6  1  0  0  0  0
  6 15  1  0  0  0  0
  7  2  1  0  0  0  0
  8  7  3  0  0  0  0
 10  1  1  0  0  0  0
 12  4  1  0  0  0  0
 13  4  1  0  0  0  0
 16  8  1  0  0  0  0
M  END
