15
title
C -0.046593443 1.7760315 -0.36812752
C -0.20080326 0.26527172 -0.27491316
O 0.58336276 -0.43091384 -1.2709742
C 1.4292408 -1.0485479 -0.27405822
C 0.608196 -0.45382467 0.87706757
O 1.3676015 0.35218784 1.7288913
C -1.6115388 -0.14108907 -0.33930364
N -2.7197897 -0.4700081 -0.34710234
H 0.999071 2.0455914 -0.21253389
H -0.36807692 2.1162121 -1.3557177
H -0.6574953 2.2775128 0.38848016
H 1.4342053 -2.1394625 -0.35787734
H 2.4549167 -0.6654712 -0.309038
H 0.0015632377 -1.1812321 1.4251659
H 0.8368455 0.586994 2.49676
