20
title
C -1.3073303 1.730139 -0.82266116
C -0.4479982 0.4818712 -0.93865955
C 0.9583104 0.56461996 -1.5874513
C 1.4659883 -0.4717763 -0.55409604
C 0.22116247 -0.15265988 0.34824708
C 0.5607553 0.8677739 1.4458916
C -0.47733518 -1.2957473 0.91153467
C -1.0635782 -2.2436118 1.3659289
H -0.76868194 2.555798 -0.3468096
H -1.6202643 2.0709643 -1.8159281
H -2.2140367 1.5372288 -0.23869471
H -1.0220374 -0.31006062 -1.4298991
H 1.0359281 0.30049908 -2.6443882
H 1.4161092 1.5485685 -1.4461566
H 1.4268655 -1.4930472 -0.93830264
H 2.4439232 -0.30257648 -0.09641914
H 1.106591 1.7224832 1.0347439
H -0.34346697 1.2403861 1.9352193
H 1.1895245 0.4002812 2.2094412
H -1.5777388 -3.0816286 1.7666113
