title
 OpenBabel02282109583D

 20 20  0  0  1  0  0  0  0  0999 V2000
   -1.3073    1.7301   -0.8227 C   0  0  0  0  0  0  0  0  0  0  0  0
   -0.4480    0.4819   -0.9387 C   0  0  1  0  0  0  0  0  0  0  0  0
    0.9583    0.5646   -1.5875 C   0  0  0  0  0  0  0  0  0  0  0  0
    1.4660   -0.4718   -0.5541 C   0  0  0  0  0  0  0  0  0  0  0  0
    0.2212   -0.1527    0.3482 C   0  0  1  0  0  0  0  0  0  0  0  0
    0.5608    0.8678    1.4459 C   0  0  0  0  0  0  0  0  0  0  0  0
   -0.4773   -1.2957    0.9115 C   0  0  0  0  0  0  0  0  0  0  0  0
   -1.0636   -2.2436    1.3659 C   0  0  0  0  0  0  0  0  0  0  0  0
   -0.7687    2.5558   -0.3468 H   0  0  0  0  0  0  0  0  0  0  0  0
   -1.6203    2.0710   -1.8159 H   0  0  0  0  0  0  0  0  0  0  0  0
   -2.2140    1.5372   -0.2387 H   0  0  0  0  0  0  0  0  0  0  0  0
   -1.0220   -0.3101   -1.4299 H   0  0  0  0  0  0  0  0  0  0  0  0
    1.0359    0.3005   -2.6444 H   0  0  0  0  0  0  0  0  0  0  0  0
    1.4161    1.5486   -1.4462 H   0  0  0  0  0  0  0  0  0  0  0  0
    1.4269   -1.4930   -0.9383 H   0  0  0  0  0  0  0  0  0  0  0  0
    2.4439   -0.3026   -0.0964 H   0  0  0  0  0  0  0  0  0  0  0  0
    1.1066    1.7225    1.0347 H   0  0  0  0  0  0  0  0  0  0  0  0
   -0.3435    1.2404    1.9352 H   0  0  0  0  0  0  0  0  0  0  0  0
    1.1895    0.4003    2.2094 H   0  0  0  0  0  0  0  0  0  0  0  0
   -1.5777   -3.0816    1.7666 H   0  0  0  0  0  0  0  0  0  0  0  0
  1  9  1  0  0  0  0
  1 11  1  0  0  0  0
  2  1  1  0  0  0  0
  2  5  1  1  0  0  0
  3 14  1  0  0  0  0
  3  2  1  0  0  0  0
  3  4  1  0  0  0  0
  4 16  1  0  0  0  0
  4  5  1  0  0  0  0
  5  7  1  1  0  0  0
  5  6  1  0  0  0  0
  6 18  1  0  0  0  0
  6 19  1  0  0  0  0
  7  8  3  0  0  0  0
  8 20  1  0  0  0  0
 10  1  1  0  0  0  0
 12  2  1  0  0  0  0
 13  3  1  0  0  0  0
 15  4  1  0  0  0  0
 17  6  1  0  0  0  0
M  END
