title
 OpenBabel02282109583D

 19 19  0  0  1  0  0  0  0  0999 V2000
   -1.2458    1.7571   -0.8786 C   0  0  0  0  0  0  0  0  0  0  0  0
   -0.4375    0.4728   -0.9572 C   0  0  1  0  0  0  0  0  0  0  0  0
    0.9658    0.4754   -1.6200 C   0  0  0  0  0  0  0  0  0  0  0  0
    1.4471   -0.5357   -0.5491 C   0  0  0  0  0  0  0  0  0  0  0  0
    0.2253   -0.1300    0.3464 C   0  0  1  0  0  0  0  0  0  0  0  0
    0.5970    0.9031    1.4192 C   0  0  0  0  0  0  0  0  0  0  0  0
   -0.5120   -1.2363    0.9465 C   0  0  0  0  0  0  0  0  0  0  0  0
   -1.1040   -2.1179    1.4056 N   0  0  0  0  0  0  0  0  0  0  0  0
   -0.6712    2.5773   -0.4371 H   0  0  0  0  0  0  0  0  0  0  0  0
   -1.5503    2.0717   -1.8826 H   0  0  0  0  0  0  0  0  0  0  0  0
   -2.1559    1.6216   -0.2845 H   0  0  0  0  0  0  0  0  0  0  0  0
   -1.0465   -0.3138   -1.4132 H   0  0  0  0  0  0  0  0  0  0  0  0
    1.0217    0.1627   -2.6643 H   0  0  0  0  0  0  0  0  0  0  0  0
    1.4609    1.4463   -1.5245 H   0  0  0  0  0  0  0  0  0  0  0  0
    1.3713   -1.5699   -0.8905 H   0  0  0  0  0  0  0  0  0  0  0  0
    2.4314   -0.3811   -0.1018 H   0  0  0  0  0  0  0  0  0  0  0  0
    1.1757    1.7205    0.9804 H   0  0  0  0  0  0  0  0  0  0  0  0
   -0.2937    1.3261    1.8914 H   0  0  0  0  0  0  0  0  0  0  0  0
    1.2064    0.4365    2.1985 H   0  0  0  0  0  0  0  0  0  0  0  0
  1  9  1  0  0  0  0
  1 11  1  0  0  0  0
  2  1  1  0  0  0  0
  2  5  1  1  0  0  0
  3 14  1  0  0  0  0
  3  2  1  0  0  0  0
  3  4  1  0  0  0  0
  4 16  1  0  0  0  0
  4  5  1  0  0  0  0
  5  7  1  1  0  0  0
  5  6  1  0  0  0  0
  6 18  1  0  0  0  0
  6 19  1  0  0  0  0
  7  8  3  0  0  0  0
 10  1  1  0  0  0  0
 12  2  1  0  0  0  0
 13  3  1  0  0  0  0
 15  4  1  0  0  0  0
 17  6  1  0  0  0  0
M  END
