18
title
C -1.2453717 1.762544 -0.85466886
C -0.46752015 0.4622397 -0.9557659
C 0.9091963 0.42111763 -1.6744233
C 1.4117694 -0.57929754 -0.60234845
C 0.23268557 -0.12126185 0.33281538
N 0.5394935 0.91130996 1.3203291
C -0.48763612 -1.2052971 1.0011115
N -1.0440567 -2.0885682 1.4979981
H -0.64308375 2.569115 -0.4270155
H -1.5744042 2.0804415 -1.8498541
H -2.1327753 1.6447796 -0.2256342
H -1.1093318 -0.32166496 -1.368662
H 0.9176658 0.085575804 -2.7129335
H 1.4271894 1.3841771 -1.6228677
H 1.3033079 -1.6185639 -0.9207195
H 2.4130797 -0.43606576 -0.18915819
H 1.0985377 0.51438653 2.0705595
H 1.10344 1.6386727 0.8904678
