title
 OpenBabel02282109583D

 18 18  0  0  1  0  0  0  0  0999 V2000
   -0.8160    2.0868   -0.8179 C   0  0  0  0  0  0  0  0  0  0  0  0
   -0.6206    0.5769   -0.8197 C   0  0  1  0  0  0  0  0  0  0  0  0
    0.5869    0.0774   -1.6568 C   0  0  0  0  0  0  0  0  0  0  0  0
    1.3773   -0.0370   -0.4078 N   0  0  0  0  0  0  0  0  0  0  0  0
    0.1482   -0.0227    0.4255 C   0  0  1  0  0  0  0  0  0  0  0  0
    0.2616    0.7779    1.7207 C   0  0  0  0  0  0  0  0  0  0  0  0
   -0.3474   -1.3804    0.7191 C   0  0  0  0  0  0  0  0  0  0  0  0
   -0.7071   -2.4583    0.9371 N   0  0  0  0  0  0  0  0  0  0  0  0
    0.1293    2.6139   -0.6596 H   0  0  0  0  0  0  0  0  0  0  0  0
   -1.2181    2.4072   -1.7848 H   0  0  0  0  0  0  0  0  0  0  0  0
   -1.5220    2.4041   -0.0440 H   0  0  0  0  0  0  0  0  0  0  0  0
   -1.5644    0.0712   -1.0287 H   0  0  0  0  0  0  0  0  0  0  0  0
    0.3870   -0.8767   -2.1602 H   0  0  0  0  0  0  0  0  0  0  0  0
    1.0076    0.7824   -2.3812 H   0  0  0  0  0  0  0  0  0  0  0  0
    1.9589   -0.8634   -0.3163 H   0  0  0  0  0  0  0  0  0  0  0  0
    0.6347    1.7802    1.5054 H   0  0  0  0  0  0  0  0  0  0  0  0
   -0.7069    0.8511    2.2245 H   0  0  0  0  0  0  0  0  0  0  0  0
    0.9629    0.2898    2.4041 H   0  0  0  0  0  0  0  0  0  0  0  0
  1  9  1  0  0  0  0
  1 11  1  0  0  0  0
  2  1  1  0  0  0  0
  2  5  1  1  0  0  0
  3  2  1  0  0  0  0
  3  4  1  0  0  0  0
  4 15  1  0  0  0  0
  4  5  1  0  0  0  0
  5  7  1  1  0  0  0
  5  6  1  0  0  0  0
  6 17  1  0  0  0  0
  6 18  1  0  0  0  0
  7  8  3  0  0  0  0
 10  1  1  0  0  0  0
 12  2  1  0  0  0  0
 13  3  1  0  0  0  0
 14  3  1  0  0  0  0
 16  6  1  0  0  0  0
M  END
