18
title
C -0.81601936 2.086797 -0.8179472
C -0.6206325 0.57690895 -0.8197092
C 0.5869365 0.07742881 -1.6567637
N 1.377293 -0.03696198 -0.40778494
C 0.14819618 -0.022668311 0.42546058
C 0.2616333 0.777866 1.7206641
C -0.3474485 -1.3803571 0.71911097
N -0.70713836 -2.4582572 0.93707454
H 0.12932922 2.6139212 -0.65960294
H -1.2180561 2.4071798 -1.7848338
H -1.5219918 2.404078 -0.043999556
H -1.5643519 0.07124665 -1.0286629
H 0.38704124 -0.87669873 -2.1602104
H 1.0076126 0.78242874 -2.381249
H 1.958932 -0.86340547 -0.31628042
H 0.63472974 1.7801615 1.5053605
H -0.70692694 0.85111845 2.2244673
H 0.9629456 0.28984472 2.404111
