title
 OpenBabel02282109583D

 18 18  0  0  1  0  0  0  0  0999 V2000
   -1.0516    1.9802   -0.7967 C   0  0  0  0  0  0  0  0  0  0  0  0
   -0.5287    0.5564   -0.8870 C   0  0  1  0  0  0  0  0  0  0  0  0
    0.8155    0.2965   -1.5939 C   0  0  0  0  0  0  0  0  0  0  0  0
    1.3346   -0.4288   -0.4613 O   0  0  0  0  0  0  0  0  0  0  0  0
    0.1694   -0.1085    0.3556 C   0  0  1  0  0  0  0  0  0  0  0  0
    0.5664    0.8022    1.5165 C   0  0  0  0  0  0  0  0  0  0  0  0
   -0.4961   -1.3123    0.8446 C   0  0  0  0  0  0  0  0  0  0  0  0
   -1.0642   -2.2915    1.2496 C   0  0  0  0  0  0  0  0  0  0  0  0
   -0.2867    2.6792   -0.4458 H   0  0  0  0  0  0  0  0  0  0  0  0
   -1.3841    2.3231   -1.7825 H   0  0  0  0  0  0  0  0  0  0  0  0
   -1.9094    2.0472   -0.1195 H   0  0  0  0  0  0  0  0  0  0  0  0
   -1.3121   -0.1038   -1.2646 H   0  0  0  0  0  0  0  0  0  0  0  0
    0.7833   -0.3223   -2.4975 H   0  0  0  0  0  0  0  0  0  0  0  0
    1.4054    1.1998   -1.8031 H   0  0  0  0  0  0  0  0  0  0  0  0
    1.0905    1.6874    1.1484 H   0  0  0  0  0  0  0  0  0  0  0  0
   -0.3126    1.1169    2.0869 H   0  0  0  0  0  0  0  0  0  0  0  0
    1.2368    0.2592    2.1877 H   0  0  0  0  0  0  0  0  0  0  0  0
   -1.5575   -3.1629    1.6040 H   0  0  0  0  0  0  0  0  0  0  0  0
  1  9  1  0  0  0  0
  1 11  1  0  0  0  0
  2  1  1  0  0  0  0
  2  5  1  1  0  0  0
  3  2  1  0  0  0  0
  3  4  1  0  0  0  0
  4  5  1  0  0  0  0
  5  7  1  1  0  0  0
  5  6  1  0  0  0  0
  6 16  1  0  0  0  0
  6 17  1  0  0  0  0
  7  8  3  0  0  0  0
  8 18  1  0  0  0  0
 10  1  1  0  0  0  0
 12  2  1  0  0  0  0
 13  3  1  0  0  0  0
 14  3  1  0  0  0  0
 15  6  1  0  0  0  0
M  END
