17
title
C -0.9390305 2.0348125 -0.8417101
C -0.5494573 0.5656633 -0.88023007
C 0.75109595 0.18873405 -1.6215307
O 1.3447981 -0.34968686 -0.41759375
C 0.1677864 -0.063129306 0.36947015
C 0.49103954 0.8144303 1.5729613
C -0.47618008 -1.3132116 0.8159577
N -1.0012125 -2.2838728 1.1598359
H -0.09527048 2.6783805 -0.57648426
H -1.2952703 2.3491745 -1.8282962
H -1.747084 2.2172039 -0.126331
H -1.404069 -0.037383076 -1.1921161
H 0.65356785 -0.57271636 -2.4028199
H 1.3320781 1.0333102 -2.0107515
H 0.98026246 1.7344629 1.2477853
H -0.4163673 1.0650867 2.130097
H 1.1703395 0.27926403 2.2417285
