title
 OpenBabel02282109583D

 17 17  0  0  1  0  0  0  0  0999 V2000
   -0.9390    2.0348   -0.8417 C   0  0  0  0  0  0  0  0  0  0  0  0
   -0.5495    0.5657   -0.8802 C   0  0  1  0  0  0  0  0  0  0  0  0
    0.7511    0.1887   -1.6215 C   0  0  0  0  0  0  0  0  0  0  0  0
    1.3448   -0.3497   -0.4176 O   0  0  0  0  0  0  0  0  0  0  0  0
    0.1678   -0.0631    0.3695 C   0  0  1  0  0  0  0  0  0  0  0  0
    0.4910    0.8144    1.5730 C   0  0  0  0  0  0  0  0  0  0  0  0
   -0.4762   -1.3132    0.8160 C   0  0  0  0  0  0  0  0  0  0  0  0
   -1.0012   -2.2839    1.1598 N   0  0  0  0  0  0  0  0  0  0  0  0
   -0.0953    2.6784   -0.5765 H   0  0  0  0  0  0  0  0  0  0  0  0
   -1.2953    2.3492   -1.8283 H   0  0  0  0  0  0  0  0  0  0  0  0
   -1.7471    2.2172   -0.1263 H   0  0  0  0  0  0  0  0  0  0  0  0
   -1.4041   -0.0374   -1.1921 H   0  0  0  0  0  0  0  0  0  0  0  0
    0.6536   -0.5727   -2.4028 H   0  0  0  0  0  0  0  0  0  0  0  0
    1.3321    1.0333   -2.0108 H   0  0  0  0  0  0  0  0  0  0  0  0
    0.9803    1.7345    1.2478 H   0  0  0  0  0  0  0  0  0  0  0  0
   -0.4164    1.0651    2.1301 H   0  0  0  0  0  0  0  0  0  0  0  0
    1.1703    0.2793    2.2417 H   0  0  0  0  0  0  0  0  0  0  0  0
  1  9  1  0  0  0  0
  1 11  1  0  0  0  0
  2  1  1  0  0  0  0
  2  5  1  1  0  0  0
  3  2  1  0  0  0  0
  3  4  1  0  0  0  0
  4  5  1  0  0  0  0
  5  7  1  1  0  0  0
  5  6  1  0  0  0  0
  6 16  1  0  0  0  0
  6 17  1  0  0  0  0
  7  8  3  0  0  0  0
 10  1  1  0  0  0  0
 12  2  1  0  0  0  0
 13  3  1  0  0  0  0
 14  3  1  0  0  0  0
 15  6  1  0  0  0  0
M  END
