title
 OpenBabel02282109583D

 17 17  0  0  1  0  0  0  0  0999 V2000
   -1.1946    1.7927   -0.8505 C   0  0  0  0  0  0  0  0  0  0  0  0
   -0.4394    0.4826   -0.9390 C   0  0  1  0  0  0  0  0  0  0  0  0
    0.9234    0.5323   -1.5249 N   0  0  0  0  0  0  0  0  0  0  0  0
    1.3864   -0.5313   -0.6093 C   0  0  0  0  0  0  0  0  0  0  0  0
    0.2113   -0.1394    0.3531 C   0  0  1  0  0  0  0  0  0  0  0  0
    0.5012    0.8621    1.3694 N   0  0  0  0  0  0  0  0  0  0  0  0
   -0.5101   -1.2562    0.9566 C   0  0  0  0  0  0  0  0  0  0  0  0
   -1.0658   -2.1594    1.4162 N   0  0  0  0  0  0  0  0  0  0  0  0
   -0.6096    2.5626   -0.3437 H   0  0  0  0  0  0  0  0  0  0  0  0
   -1.4334    2.1516   -1.8574 H   0  0  0  0  0  0  0  0  0  0  0  0
   -2.1341    1.6576   -0.3062 H   0  0  0  0  0  0  0  0  0  0  0  0
   -1.0734   -0.2839   -1.4088 H   0  0  0  0  0  0  0  0  0  0  0  0
    0.9822    0.3142   -2.5137 H   0  0  0  0  0  0  0  0  0  0  0  0
    1.2820   -1.5542   -0.9953 H   0  0  0  0  0  0  0  0  0  0  0  0
    2.3962   -0.3936   -0.2082 H   0  0  0  0  0  0  0  0  0  0  0  0
    1.0259    0.4434    2.1318 H   0  0  0  0  0  0  0  0  0  0  0  0
    1.0894    1.5812    0.9583 H   0  0  0  0  0  0  0  0  0  0  0  0
  1  9  1  0  0  0  0
  1 11  1  0  0  0  0
  2  1  1  0  0  0  0
  2  5  1  1  0  0  0
  3  2  1  0  0  0  0
  3  4  1  0  0  0  0
  4 15  1  0  0  0  0
  4  5  1  0  0  0  0
  5  7  1  1  0  0  0
  5  6  1  0  0  0  0
  6 16  1  0  0  0  0
  7  8  3  0  0  0  0
 10  1  1  0  0  0  0
 12  2  1  0  0  0  0
 13  3  1  0  0  0  0
 14  4  1  0  0  0  0
 17  6  1  0  0  0  0
M  END
