18
title
C -1.1400697 1.8509898 -0.7913268
C -0.434243 0.5165723 -0.87627494
O 0.8771437 0.60092616 -1.4774146
C 1.4193407 -0.32471037 -0.52077055
C 0.17103723 -0.17601317 0.39918187
C 0.4267231 0.7587958 1.5885305
C -0.4831352 -1.4030098 0.8167774
C -1.0317637 -2.4175801 1.1580497
H -0.5556641 2.5877616 -0.2356157
H -1.3042948 2.2396793 -1.8014474
H -2.1170964 1.7353466 -0.31048045
H -1.0578545 -0.20136231 -1.4280121
H 1.5416025 -1.3316844 -0.9387544
H 2.3711917 0.020430688 -0.102178
H 0.9613194 1.6556772 1.2641056
H -0.50995 1.0617294 2.064751
H 1.0371135 0.24844454 2.339178
H -1.5134926 -3.315235 1.4576161
