title
 OpenBabel02282109583D

 18 18  0  0  1  0  0  0  0  0999 V2000
   -1.1401    1.8510   -0.7913 C   0  0  0  0  0  0  0  0  0  0  0  0
   -0.4342    0.5166   -0.8763 C   0  0  1  0  0  0  0  0  0  0  0  0
    0.8771    0.6009   -1.4774 O   0  0  0  0  0  0  0  0  0  0  0  0
    1.4193   -0.3247   -0.5208 C   0  0  0  0  0  0  0  0  0  0  0  0
    0.1710   -0.1760    0.3992 C   0  0  1  0  0  0  0  0  0  0  0  0
    0.4267    0.7588    1.5885 C   0  0  0  0  0  0  0  0  0  0  0  0
   -0.4831   -1.4030    0.8168 C   0  0  0  0  0  0  0  0  0  0  0  0
   -1.0318   -2.4176    1.1580 C   0  0  0  0  0  0  0  0  0  0  0  0
   -0.5557    2.5878   -0.2356 H   0  0  0  0  0  0  0  0  0  0  0  0
   -1.3043    2.2397   -1.8014 H   0  0  0  0  0  0  0  0  0  0  0  0
   -2.1171    1.7353   -0.3105 H   0  0  0  0  0  0  0  0  0  0  0  0
   -1.0579   -0.2014   -1.4280 H   0  0  0  0  0  0  0  0  0  0  0  0
    1.5416   -1.3317   -0.9388 H   0  0  0  0  0  0  0  0  0  0  0  0
    2.3712    0.0204   -0.1022 H   0  0  0  0  0  0  0  0  0  0  0  0
    0.9613    1.6557    1.2641 H   0  0  0  0  0  0  0  0  0  0  0  0
   -0.5100    1.0617    2.0648 H   0  0  0  0  0  0  0  0  0  0  0  0
    1.0371    0.2484    2.3392 H   0  0  0  0  0  0  0  0  0  0  0  0
   -1.5135   -3.3152    1.4576 H   0  0  0  0  0  0  0  0  0  0  0  0
  1 11  1  0  0  0  0
  1  9  1  0  0  0  0
  2  1  1  0  0  0  0
  2  5  1  1  0  0  0
  3  2  1  0  0  0  0
  3  4  1  0  0  0  0
  4 14  1  0  0  0  0
  4  5  1  0  0  0  0
  5  7  1  1  0  0  0
  5  6  1  0  0  0  0
  6 16  1  0  0  0  0
  6 17  1  0  0  0  0
  7  8  3  0  0  0  0
  8 18  1  0  0  0  0
 10  1  1  0  0  0  0
 12  2  1  0  0  0  0
 13  4  1  0  0  0  0
 15  6  1  0  0  0  0
M  END
