title
 OpenBabel02282109583D

 17 17  0  0  1  0  0  0  0  0999 V2000
   -1.0872    1.8786   -0.8219 C   0  0  0  0  0  0  0  0  0  0  0  0
   -0.4214    0.5237   -0.8894 C   0  0  1  0  0  0  0  0  0  0  0  0
    0.8896    0.5575   -1.4940 O   0  0  0  0  0  0  0  0  0  0  0  0
    1.4120   -0.3623   -0.5229 C   0  0  0  0  0  0  0  0  0  0  0  0
    0.1740   -0.1555    0.3979 C   0  0  1  0  0  0  0  0  0  0  0  0
    0.4442    0.7751    1.5850 C   0  0  0  0  0  0  0  0  0  0  0  0
   -0.5134   -1.3667    0.8262 C   0  0  0  0  0  0  0  0  0  0  0  0
   -1.0646   -2.3267    1.1605 N   0  0  0  0  0  0  0  0  0  0  0  0
   -0.4778    2.6076   -0.2833 H   0  0  0  0  0  0  0  0  0  0  0  0
   -1.2446    2.2521   -1.8385 H   0  0  0  0  0  0  0  0  0  0  0  0
   -2.0649    1.8003   -0.3352 H   0  0  0  0  0  0  0  0  0  0  0  0
   -1.0680   -0.1861   -1.4246 H   0  0  0  0  0  0  0  0  0  0  0  0
    1.5070   -1.3804   -0.9196 H   0  0  0  0  0  0  0  0  0  0  0  0
    2.3715   -0.0339   -0.1103 H   0  0  0  0  0  0  0  0  0  0  0  0
    1.0044    1.6527    1.2534 H   0  0  0  0  0  0  0  0  0  0  0  0
   -0.4873    1.1082    2.0503 H   0  0  0  0  0  0  0  0  0  0  0  0
    1.0366    0.2562    2.3437 H   0  0  0  0  0  0  0  0  0  0  0  0
  1 11  1  0  0  0  0
  1  9  1  0  0  0  0
  2  1  1  0  0  0  0
  2  5  1  1  0  0  0
  3  2  1  0  0  0  0
  3  4  1  0  0  0  0
  4 14  1  0  0  0  0
  4  5  1  0  0  0  0
  5  7  1  1  0  0  0
  5  6  1  0  0  0  0
  6 16  1  0  0  0  0
  6 17  1  0  0  0  0
  7  8  3  0  0  0  0
 10  1  1  0  0  0  0
 12  2  1  0  0  0  0
 13  4  1  0  0  0  0
 15  6  1  0  0  0  0
M  END
