16
title
C -1.078825 1.8914174 -0.790771
C -0.45341653 0.5201367 -0.8855056
O 0.82930213 0.5094663 -1.5528822
C 1.3861586 -0.38998905 -0.5824803
C 0.18504794 -0.14222778 0.38804948
N 0.37826166 0.7796497 1.4959877
C -0.48516557 -1.3469659 0.8723078
N -0.99840283 -2.3164408 1.2357419
H -0.4249761 2.6075518 -0.28847617
H -1.2835582 2.262849 -1.7995363
H -2.0234563 1.8389901 -0.24194656
H -1.143187 -0.17990513 -1.3762169
H 1.4626518 -1.4181516 -0.9581367
H 2.3611276 -0.056750678 -0.20959084
H 0.85998446 0.31601474 2.2604122
H 0.96287054 1.5545708 1.1978221
