16
title
C -1.0014026 1.9537051 -0.6880801
C -0.5078162 0.5342797 -0.8583227
O 0.7167283 0.44531283 -1.6224636
C 1.3837101 -0.2999076 -0.5926556
C 0.16697566 -0.16376282 0.36957493
O 0.3612268 0.7483086 1.4345559
C -0.4369509 -1.4041134 0.83050114
C -0.91484195 -2.4294913 1.2384926
H -0.25303814 2.5716615 -0.18962261
H -1.2173702 2.3792858 -1.6730176
H -1.9211861 1.9696422 -0.095184766
H -1.2847944 -0.098480776 -1.3059478
H 1.6227322 -1.3239545 -0.902442
H 2.283559 0.20548262 -0.22382751
H 0.6200315 0.24454306 2.2132082
H -1.3458463 -3.3344522 1.590439
