15
title
C -0.99643075 1.9503272 -0.72603476
C -0.4910136 0.53388965 -0.8746196
O 0.7440502 0.44030964 -1.6206089
C 1.3787969 -0.34096697 -0.5995162
C 0.1753719 -0.145749 0.36534342
O 0.37578222 0.77242035 1.4114975
C -0.46288005 -1.3728424 0.8523951
N -0.9448003 -2.3427718 1.2565175
H -0.25843543 2.5792317 -0.22639218
H -1.2007362 2.3597522 -1.7199132
H -1.9253321 1.9661978 -0.14794967
H -1.2575259 -0.112437405 -1.3210626
H 1.5609175 -1.3763679 -0.91083574
H 2.306257 0.114420585 -0.23497024
H 0.8500981 0.33226746 2.1261268
