title
 OpenBabel02282109583D

 18 18  0  0  1  0  0  0  0  0999 V2000
   -0.3193    1.6101   -1.2894 C   0  0  0  0  0  0  0  0  0  0  0  0
   -0.3297    0.1773   -1.0759 N   0  0  0  0  0  0  0  0  0  0  0  0
   -1.5846   -0.5034   -0.7086 C   0  0  0  0  0  0  0  0  0  0  0  0
   -0.7570   -1.4937    0.1413 C   0  0  0  0  0  0  0  0  0  0  0  0
    0.3964   -0.4403    0.0610 C   0  0  1  0  0  0  0  0  0  0  0  0
    1.8088   -0.9218   -0.2613 C   0  0  0  0  0  0  0  0  0  0  0  0
    0.4090    0.4136    1.2687 C   0  0  0  0  0  0  0  0  0  0  0  0
    0.4048    1.1176    2.1866 N   0  0  0  0  0  0  0  0  0  0  0  0
    0.7018    1.9486   -1.4927 H   0  0  0  0  0  0  0  0  0  0  0  0
   -0.9280    1.8397   -2.1698 H   0  0  0  0  0  0  0  0  0  0  0  0
   -0.7110    2.1855   -0.4339 H   0  0  0  0  0  0  0  0  0  0  0  0
   -2.2548    0.1139   -0.0899 H   0  0  0  0  0  0  0  0  0  0  0  0
   -2.1499   -0.9002   -1.5575 H   0  0  0  0  0  0  0  0  0  0  0  0
   -1.1285   -1.7395    1.1348 H   0  0  0  0  0  0  0  0  0  0  0  0
   -0.4904   -2.4049   -0.3962 H   0  0  0  0  0  0  0  0  0  0  0  0
    1.7751   -1.5518   -1.1531 H   0  0  0  0  0  0  0  0  0  0  0  0
    2.4750   -0.0759   -0.4558 H   0  0  0  0  0  0  0  0  0  0  0  0
    2.2239   -1.4952    0.5731 H   0  0  0  0  0  0  0  0  0  0  0  0
  1  2  1  0  0  0  0
  1 11  1  0  0  0  0
  2  3  1  0  0  0  0
  2  5  1  0  0  0  0
  3 12  1  0  0  0  0
  3  4  1  0  0  0  0
  4 14  1  0  0  0  0
  5  4  1  0  0  0  0
  5  7  1  1  0  0  0
  6  5  1  0  0  0  0
  6 18  1  0  0  0  0
  7  8  3  0  0  0  0
  9  1  1  0  0  0  0
 10  1  1  0  0  0  0
 13  3  1  0  0  0  0
 15  4  1  0  0  0  0
 16  6  1  0  0  0  0
 17  6  1  0  0  0  0
M  END
