title
 OpenBabel02282109583D

 16 16  0  0  1  0  0  0  0  0999 V2000
    0.3760    1.6709    0.0450 N   0  0  0  0  0  0  0  0  0  0  0  0
    0.3916    0.2133    0.0574 C   0  0  1  0  0  0  0  0  0  0  0  0
    0.5418   -0.3503    1.5051 C   0  0  0  0  0  0  0  0  0  0  0  0
   -0.9928   -0.5799    1.5644 C   0  0  0  0  0  0  0  0  0  0  0  0
   -1.0325   -0.4903    0.0169 C   0  0  1  0  0  0  0  0  0  0  0  0
   -2.0752    0.1705   -0.6311 O   0  0  0  0  0  0  0  0  0  0  0  0
    1.3471   -0.2710   -0.9380 C   0  0  0  0  0  0  0  0  0  0  0  0
    2.0710   -0.7013   -1.7300 N   0  0  0  0  0  0  0  0  0  0  0  0
   -0.0550    2.0192   -0.8067 H   0  0  0  0  0  0  0  0  0  0  0  0
   -0.1384    2.0374    0.8390 H   0  0  0  0  0  0  0  0  0  0  0  0
    1.1089   -1.2817    1.5198 H   0  0  0  0  0  0  0  0  0  0  0  0
    0.9867    0.3469    2.2173 H   0  0  0  0  0  0  0  0  0  0  0  0
   -1.3533   -1.5041    2.0182 H   0  0  0  0  0  0  0  0  0  0  0  0
   -1.5211    0.2582    2.0311 H   0  0  0  0  0  0  0  0  0  0  0  0
   -0.9558   -1.4771   -0.4457 H   0  0  0  0  0  0  0  0  0  0  0  0
   -2.1794    1.0386   -0.2253 H   0  0  0  0  0  0  0  0  0  0  0  0
  1  2  1  0  0  0  0
  1 10  1  0  0  0  0
  2  5  1  6  0  0  0
  2  3  1  0  0  0  0
  3 11  1  0  0  0  0
  3  4  1  0  0  0  0
  3 12  1  0  0  0  0
  4 13  1  0  0  0  0
  4 14  1  0  0  0  0
  5 15  1  6  0  0  0
  5  4  1  0  0  0  0
  6 16  1  0  0  0  0
  6  5  1  0  0  0  0
  7  2  1  0  0  0  0
  8  7  3  0  0  0  0
  9  1  1  0  0  0  0
M  END
