17
title
N 1.2163477 1.6725763 -0.7430238
C 1.0495373 0.46618035 0.03162366
C 1.0215076 0.47200263 1.5882739
C -0.1704257 -0.5211445 1.5458931
C -0.41817608 -0.13867888 0.054678313
N -1.4997834 0.8271338 -0.09571018
C -0.6253404 -1.2503285 -0.8756971
N -0.72802085 -2.1374147 -1.6101605
H 0.97558427 2.4980986 -0.2065568
H 2.16988 1.7861016 -1.0640317
H 1.7440894 -0.2924129 -0.33795753
H 1.9274306 0.15314823 2.1075726
H 0.7299967 1.4517044 1.9816372
H 0.14361407 -1.5605497 1.6515076
H -1.0182251 -0.33960524 2.2096417
H -1.4953018 1.4757029 0.6856446
H -1.3349925 1.3750821 -0.9375667
