title
 OpenBabel02282109583D

 17 17  0  0  1  0  0  0  0  0999 V2000
    1.2163    1.6726   -0.7430 N   0  0  0  0  0  0  0  0  0  0  0  0
    1.0495    0.4662    0.0316 C   0  0  1  0  0  0  0  0  0  0  0  0
    1.0215    0.4720    1.5883 C   0  0  0  0  0  0  0  0  0  0  0  0
   -0.1704   -0.5211    1.5459 C   0  0  0  0  0  0  0  0  0  0  0  0
   -0.4182   -0.1387    0.0547 C   0  0  1  0  0  0  0  0  0  0  0  0
   -1.4998    0.8271   -0.0957 N   0  0  0  0  0  0  0  0  0  0  0  0
   -0.6253   -1.2503   -0.8757 C   0  0  0  0  0  0  0  0  0  0  0  0
   -0.7280   -2.1374   -1.6102 N   0  0  0  0  0  0  0  0  0  0  0  0
    0.9756    2.4981   -0.2066 H   0  0  0  0  0  0  0  0  0  0  0  0
    2.1699    1.7861   -1.0640 H   0  0  0  0  0  0  0  0  0  0  0  0
    1.7441   -0.2924   -0.3380 H   0  0  0  0  0  0  0  0  0  0  0  0
    1.9274    0.1531    2.1076 H   0  0  0  0  0  0  0  0  0  0  0  0
    0.7300    1.4517    1.9816 H   0  0  0  0  0  0  0  0  0  0  0  0
    0.1436   -1.5605    1.6515 H   0  0  0  0  0  0  0  0  0  0  0  0
   -1.0182   -0.3396    2.2096 H   0  0  0  0  0  0  0  0  0  0  0  0
   -1.4953    1.4757    0.6856 H   0  0  0  0  0  0  0  0  0  0  0  0
   -1.3350    1.3751   -0.9376 H   0  0  0  0  0  0  0  0  0  0  0  0
  1  9  1  0  0  0  0
  1  2  1  0  0  0  0
  2  5  1  6  0  0  0
  2  3  1  0  0  0  0
  3 13  1  0  0  0  0
  3 12  1  0  0  0  0
  4  3  1  0  0  0  0
  4 14  1  0  0  0  0
  4 15  1  0  0  0  0
  5  7  1  6  0  0  0
  5  4  1  0  0  0  0
  6  5  1  0  0  0  0
  6 16  1  0  0  0  0
  8  7  3  0  0  0  0
 10  1  1  0  0  0  0
 11  2  1  0  0  0  0
 17  6  1  0  0  0  0
M  END
