16
title
O 1.3271668 1.4866279 -0.7808551
C 1.0994235 0.37713674 0.03061316
C 1.011299 0.5557733 1.5731678
C -0.22870232 -0.3770422 1.5830214
C -0.38323286 -0.17505148 0.04998479
O -1.2848893 0.9140046 -0.17404155
C -0.705217 -1.3170977 -0.7842611
C -0.9540764 -2.2498767 -1.5023121
H 0.5647521 2.0659046 -0.6454466
H 1.8114295 -0.39888898 -0.25994295
H 1.8808618 0.25139472 2.1583283
H 0.7538563 1.5858599 1.8323935
H 0.012921973 -1.4128345 1.8268425
H -1.0976988 -0.059342828 2.1607862
H -1.5088676 0.9094511 -1.1113795
H -1.1757451 -3.0792177 -2.1278784
