15
title
O 1.4121827 1.4573251 -0.7268019
C 1.1081069 0.35654843 0.05909475
C 1.0051415 0.47584608 1.607331
C -0.20988597 -0.4891974 1.5586804
C -0.38255432 -0.14486739 0.049454555
O -1.1746289 1.0098903 -0.1665432
C -0.7598634 -1.227825 -0.85993713
N -1.0623425 -2.098202 -1.5585481
H 0.66307276 2.0639381 -0.6657875
H 1.7809736 -0.45503035 -0.22871487
H 1.8754449 0.1701254 2.1890118
H 0.71006674 1.485492 1.900938
H 0.069456264 -1.535071 1.702825
H -1.073367 -0.257121 2.1849494
H -2.1011405 0.79136 -0.018573767
