title
 OpenBabel02282109583D

 17 17  0  0  1  0  0  0  0  0999 V2000
   -0.2824    1.8806   -0.4778 C   0  0  0  0  0  0  0  0  0  0  0  0
   -0.1470    0.3715   -0.3654 C   0  0  1  0  0  0  0  0  0  0  0  0
    1.0384   -0.1951   -1.0904 N   0  0  0  0  0  0  0  0  0  0  0  0
    1.3765   -1.0562    0.0731 C   0  0  0  0  0  0  0  0  0  0  0  0
    0.3922   -0.2412    0.9552 C   0  0  1  0  0  0  0  0  0  0  0  0
    0.9779    0.7460    1.7729 O   0  0  0  0  0  0  0  0  0  0  0  0
   -1.3955   -0.3423   -0.8548 C   0  0  0  0  0  0  0  0  0  0  0  0
   -2.0108   -1.1882   -0.2554 O   0  0  0  0  0  0  0  0  0  0  0  0
    0.6556    2.3541   -0.1858 H   0  0  0  0  0  0  0  0  0  0  0  0
   -0.5115    2.1653   -1.5109 H   0  0  0  0  0  0  0  0  0  0  0  0
   -1.0822    2.2548    0.1697 H   0  0  0  0  0  0  0  0  0  0  0  0
    0.8293   -0.6855   -1.9565 H   0  0  0  0  0  0  0  0  0  0  0  0
    1.0918   -2.1104   -0.0280 H   0  0  0  0  0  0  0  0  0  0  0  0
    2.4293   -0.9873    0.3651 H   0  0  0  0  0  0  0  0  0  0  0  0
   -0.3510   -0.8346    1.4956 H   0  0  0  0  0  0  0  0  0  0  0  0
    1.2600    0.3278    2.5917 H   0  0  0  0  0  0  0  0  0  0  0  0
   -1.6850   -0.0528   -1.8941 H   0  0  0  0  0  0  0  0  0  0  0  0
  1  2  1  0  0  0  0
  1  9  1  0  0  0  0
  1 11  1  0  0  0  0
  2  5  1  1  0  0  0
  3  2  1  0  0  0  0
  3  4  1  0  0  0  0
  4 14  1  0  0  0  0
  4  5  1  0  0  0  0
  5 15  1  1  0  0  0
  5  6  1  0  0  0  0
  6 16  1  0  0  0  0
  7  2  1  0  0  0  0
  7  8  2  0  0  0  0
 10  1  1  0  0  0  0
 12  3  1  0  0  0  0
 13  4  1  0  0  0  0
 17  7  1  0  0  0  0
M  END
