16
title
C -0.17317344 1.7537997 -0.39934483
C -0.10945153 0.23306637 -0.39843345
O 0.97143334 -0.28623942 -1.2138119
C 1.638854 -0.8492731 -0.061151925
C 0.49609268 -0.43914297 0.8778842
O 0.9236539 0.39446807 1.9212303
C -1.4277738 -0.3616198 -0.85379857
O -2.3677523 -0.53564996 -0.119954705
H 0.75278956 2.1652524 0.0071229604
H -0.31110525 2.1238632 -1.4199518
H -1.0118726 2.0995615 0.21300754
H 1.824154 -1.9223568 -0.17639071
H 2.577919 -0.33228168 0.16625246
H -0.11934383 -1.2662417 1.2464924
H 0.1832034 0.53944284 2.5189714
H -1.4523671 -0.6367569 -1.9320056
