title
 OpenBabel02282109583D

 16 16  0  0  1  0  0  0  0  0999 V2000
   -0.1732    1.7538   -0.3993 C   0  0  0  0  0  0  0  0  0  0  0  0
   -0.1095    0.2331   -0.3984 C   0  0  1  0  0  0  0  0  0  0  0  0
    0.9714   -0.2862   -1.2138 O   0  0  0  0  0  0  0  0  0  0  0  0
    1.6389   -0.8493   -0.0612 C   0  0  0  0  0  0  0  0  0  0  0  0
    0.4961   -0.4391    0.8779 C   0  0  1  0  0  0  0  0  0  0  0  0
    0.9237    0.3945    1.9212 O   0  0  0  0  0  0  0  0  0  0  0  0
   -1.4278   -0.3616   -0.8538 C   0  0  0  0  0  0  0  0  0  0  0  0
   -2.3678   -0.5356   -0.1200 O   0  0  0  0  0  0  0  0  0  0  0  0
    0.7528    2.1653    0.0071 H   0  0  0  0  0  0  0  0  0  0  0  0
   -0.3111    2.1239   -1.4200 H   0  0  0  0  0  0  0  0  0  0  0  0
   -1.0119    2.0996    0.2130 H   0  0  0  0  0  0  0  0  0  0  0  0
    1.8242   -1.9224   -0.1764 H   0  0  0  0  0  0  0  0  0  0  0  0
    2.5779   -0.3323    0.1663 H   0  0  0  0  0  0  0  0  0  0  0  0
   -0.1193   -1.2662    1.2465 H   0  0  0  0  0  0  0  0  0  0  0  0
    0.1832    0.5394    2.5190 H   0  0  0  0  0  0  0  0  0  0  0  0
   -1.4524   -0.6368   -1.9320 H   0  0  0  0  0  0  0  0  0  0  0  0
  1  2  1  0  0  0  0
  1  9  1  0  0  0  0
  1 11  1  0  0  0  0
  2  5  1  1  0  0  0
  3  2  1  0  0  0  0
  3  4  1  0  0  0  0
  4 13  1  0  0  0  0
  4  5  1  0  0  0  0
  5 14  1  1  0  0  0
  5  6  1  0  0  0  0
  6 15  1  0  0  0  0
  7  2  1  0  0  0  0
  7  8  2  0  0  0  0
 10  1  1  0  0  0  0
 12  4  1  0  0  0  0
 16  7  1  0  0  0  0
M  END
