title
 OpenBabel02282109583D

 20 20  0  0  1  0  0  0  0  0999 V2000
   -1.3531    1.8276   -0.8218 C   0  0  0  0  0  0  0  0  0  0  0  0
   -0.5347    0.5477   -0.8863 C   0  0  1  0  0  0  0  0  0  0  0  0
    0.8522    0.5627   -1.5829 C   0  0  0  0  0  0  0  0  0  0  0  0
    1.4000   -0.3804   -0.4822 C   0  0  0  0  0  0  0  0  0  0  0  0
    0.1837   -0.0264    0.4142 C   0  0  1  0  0  0  0  0  0  0  0  0
    0.4728    1.0136    1.4971 C   0  0  0  0  0  0  0  0  0  0  0  0
   -0.5742   -1.1927    0.9963 C   0  0  0  0  0  0  0  0  0  0  0  0
   -0.3572   -2.3553    0.7609 O   0  0  0  0  0  0  0  0  0  0  0  0
   -0.7819    2.6572   -0.3935 H   0  0  0  0  0  0  0  0  0  0  0  0
   -1.6608    2.1279   -1.8298 H   0  0  0  0  0  0  0  0  0  0  0  0
   -2.2629    1.7013   -0.2247 H   0  0  0  0  0  0  0  0  0  0  0  0
   -1.1457   -0.2523   -1.3192 H   0  0  0  0  0  0  0  0  0  0  0  0
    0.8894    0.2094   -2.6160 H   0  0  0  0  0  0  0  0  0  0  0  0
    1.3109    1.5558   -1.5432 H   0  0  0  0  0  0  0  0  0  0  0  0
    1.3715   -1.4337   -0.7685 H   0  0  0  0  0  0  0  0  0  0  0  0
    2.3859   -0.1507   -0.0710 H   0  0  0  0  0  0  0  0  0  0  0  0
    0.9627    1.8977    1.0794 H   0  0  0  0  0  0  0  0  0  0  0  0
   -0.4445    1.3448    1.9967 H   0  0  0  0  0  0  0  0  0  0  0  0
    1.1396    0.5977    2.2604 H   0  0  0  0  0  0  0  0  0  0  0  0
   -1.4183   -0.8996    1.6668 H   0  0  0  0  0  0  0  0  0  0  0  0
  1  9  1  0  0  0  0
  1 11  1  0  0  0  0
  2  1  1  0  0  0  0
  2  5  1  1  0  0  0
  3 14  1  0  0  0  0
  3  2  1  0  0  0  0
  3  4  1  0  0  0  0
  4 16  1  0  0  0  0
  4  5  1  0  0  0  0
  5  7  1  1  0  0  0
  5  6  1  0  0  0  0
  6 18  1  0  0  0  0
  6 19  1  0  0  0  0
  7 20  1  0  0  0  0
  8  7  2  0  0  0  0
 10  1  1  0  0  0  0
 12  2  1  0  0  0  0
 13  3  1  0  0  0  0
 15  4  1  0  0  0  0
 17  6  1  0  0  0  0
M  END
