18
title
C -1.0787013 2.0291405 -0.76986337
C -0.58509135 0.5958604 -0.7963152
O 0.6253568 0.43937773 -1.5621008
C 1.3278723 -0.17037614 -0.4584007
C 0.11073409 -0.027418155 0.4740923
C 0.27214026 0.8567963 1.7087816
C -0.54947037 -1.3317162 0.8619984
O -0.13921036 -2.4321947 0.5973415
H -0.3175929 2.7132359 -0.3865024
H -1.3280256 2.340196 -1.7892199
H -1.9815011 2.121661 -0.1567207
H -1.3781635 -0.054143388 -1.1958212
H 1.6147077 -1.2058729 -0.6669512
H 2.2119205 0.40934113 -0.1672284
H 0.6834943 1.8345693 1.4479617
H -0.68551093 1.0171986 2.216603
H 0.9554455 0.38954416 2.4263012
H -1.5030782 -1.1985066 1.4267789
