title
 OpenBabel02282109583D

 16 16  0  0  1  0  0  0  0  0999 V2000
   -0.5271    2.0491   -0.9712 C   0  0  0  0  0  0  0  0  0  0  0  0
   -0.5061    0.5496   -0.7784 C   0  0  1  0  0  0  0  0  0  0  0  0
    0.3567   -0.1334   -1.7181 O   0  0  0  0  0  0  0  0  0  0  0  0
    1.0299   -0.8444   -0.6673 C   0  0  0  0  0  0  0  0  0  0  0  0
    0.2938   -0.0388    0.4366 C   0  0  1  0  0  0  0  0  0  0  0  0
    1.0630    0.8437    1.2125 O   0  0  0  0  0  0  0  0  0  0  0  0
   -0.5283   -0.8561    1.4111 C   0  0  0  0  0  0  0  0  0  0  0  0
   -1.3091   -1.7057    1.0685 O   0  0  0  0  0  0  0  0  0  0  0  0
    0.4747    2.4843   -0.9048 H   0  0  0  0  0  0  0  0  0  0  0  0
   -0.9267    2.2834   -1.9624 H   0  0  0  0  0  0  0  0  0  0  0  0
   -1.1642    2.5254   -0.2196 H   0  0  0  0  0  0  0  0  0  0  0  0
   -1.5200    0.1323   -0.8203 H   0  0  0  0  0  0  0  0  0  0  0  0
    0.8001   -1.9159   -0.6740 H   0  0  0  0  0  0  0  0  0  0  0  0
    2.1172   -0.6953   -0.6830 H   0  0  0  0  0  0  0  0  0  0  0  0
    1.6470    1.3450    0.6350 H   0  0  0  0  0  0  0  0  0  0  0  0
   -0.3481   -0.6014    2.4775 H   0  0  0  0  0  0  0  0  0  0  0  0
  1  9  1  0  0  0  0
  1  2  1  0  0  0  0
  1 11  1  0  0  0  0
  2  5  1  1  0  0  0
  3  2  1  0  0  0  0
  3  4  1  0  0  0  0
  4  5  1  0  0  0  0
  5  6  1  1  0  0  0
  5  7  1  0  0  0  0
  7 16  1  0  0  0  0
  8  7  2  0  0  0  0
 10  1  1  0  0  0  0
 12  2  1  0  0  0  0
 13  4  1  0  0  0  0
 14  4  1  0  0  0  0
 15  6  1  0  0  0  0
M  END
