19
title
C -0.48734295 1.65213 -1.2869446
N -0.39905113 0.22003557 -1.0774801
C -1.5665902 -0.50581604 -0.5426241
C -0.60494345 -1.446849 0.2184633
C 0.50194675 -0.39449838 -0.046118967
C 1.8469281 -0.84666234 -0.5951838
C 0.69213784 0.5504339 1.1371073
O 0.0057670595 0.57266414 2.1280897
H 0.49271733 2.0524697 -1.5682493
H -1.1726035 1.8439828 -2.1200845
H -0.8575421 2.2173886 -0.41348886
H -2.1834555 0.09702848 0.14082909
H -2.212485 -0.9404082 -1.3132398
H -0.8333773 -1.6260971 1.2678133
H -0.4145002 -2.3884954 -0.2986585
H 1.6958339 -1.449106 -1.4940542
H 2.4746556 0.011541548 -0.86294335
H 2.3937159 -1.4431001 0.14432514
H 1.5172424 1.2894316 1.0027086
