title
 OpenBabel02282109583D

 16 16  0  0  1  0  0  0  0  0999 V2000
    1.0020    1.9105   -0.1753 O   0  0  0  0  0  0  0  0  0  0  0  0
    0.9714    0.5072   -0.0385 C   0  0  1  0  0  0  0  0  0  0  0  0
    1.3316   -0.1374    1.3167 C   0  0  0  0  0  0  0  0  0  0  0  0
    0.0879   -1.0543    1.1666 C   0  0  0  0  0  0  0  0  0  0  0  0
   -0.4822   -0.0985    0.0805 C   0  0  1  0  0  0  0  0  0  0  0  0
   -1.3781    0.8497    0.6045 O   0  0  0  0  0  0  0  0  0  0  0  0
   -1.0307   -0.7485   -1.1698 C   0  0  0  0  0  0  0  0  0  0  0  0
   -0.4700   -1.6420   -1.7552 O   0  0  0  0  0  0  0  0  0  0  0  0
    1.2213    2.2936    0.6795 H   0  0  0  0  0  0  0  0  0  0  0  0
    1.5061    0.0550   -0.8782 H   0  0  0  0  0  0  0  0  0  0  0  0
    2.3137   -0.6054    1.4035 H   0  0  0  0  0  0  0  0  0  0  0  0
    1.2040    0.5744    2.1394 H   0  0  0  0  0  0  0  0  0  0  0  0
    0.3308   -2.0261    0.7331 H   0  0  0  0  0  0  0  0  0  0  0  0
   -0.5513   -1.1792    2.0410 H   0  0  0  0  0  0  0  0  0  0  0  0
   -1.0589    1.7100    0.2929 H   0  0  0  0  0  0  0  0  0  0  0  0
   -1.9987   -0.3231   -1.5174 H   0  0  0  0  0  0  0  0  0  0  0  0
  1  2  1  0  0  0  0
  1  9  1  0  0  0  0
  2  5  1  6  0  0  0
  2  3  1  0  0  0  0
  3 11  1  0  0  0  0
  3 12  1  0  0  0  0
  4  3  1  0  0  0  0
  4 14  1  0  0  0  0
  5  7  1  6  0  0  0
  5  6  1  0  0  0  0
  5  4  1  0  0  0  0
  8  7  2  0  0  0  0
 10  2  1  0  0  0  0
 13  4  1  0  0  0  0
 15  6  1  0  0  0  0
 16  7  1  0  0  0  0
M  END
