title
 OpenBabel02282109583D

 18 18  0  0  1  0  0  0  0  0999 V2000
   -0.2081    1.8366   -0.3836 C   0  0  0  0  0  0  0  0  0  0  0  0
   -0.1423    0.3090   -0.4751 C   0  0  1  0  0  0  0  0  0  0  0  0
   -1.5283   -0.3287   -0.2864 C   0  0  0  0  0  0  0  0  0  0  0  0
   -2.0608   -0.0384    0.9895 O   0  0  0  0  0  0  0  0  0  0  0  0
    0.7429   -0.2386   -1.6476 C   0  0  0  0  0  0  0  0  0  0  0  0
    1.8708   -0.6319   -0.6410 C   0  0  0  0  0  0  0  0  0  0  0  0
    0.8799   -0.3235    0.4845 C   0  0  0  0  0  0  0  0  0  0  0  0
    0.8166   -0.6050    1.6527 O   0  0  0  0  0  0  0  0  0  0  0  0
    0.7882    2.2904   -0.3943 H   0  0  0  0  0  0  0  0  0  0  0  0
   -0.7694    2.2370   -1.2353 H   0  0  0  0  0  0  0  0  0  0  0  0
   -0.7189    2.1348    0.5346 H   0  0  0  0  0  0  0  0  0  0  0  0
   -2.2332    0.0715   -1.0251 H   0  0  0  0  0  0  0  0  0  0  0  0
   -1.4574   -1.4160   -0.4562 H   0  0  0  0  0  0  0  0  0  0  0  0
   -1.4035   -0.3273    1.6377 H   0  0  0  0  0  0  0  0  0  0  0  0
    0.3006   -1.1054   -2.1446 H   0  0  0  0  0  0  0  0  0  0  0  0
    1.0200    0.4982   -2.4029 H   0  0  0  0  0  0  0  0  0  0  0  0
    2.2594   -1.6529   -0.6663 H   0  0  0  0  0  0  0  0  0  0  0  0
    2.7195    0.0595   -0.6428 H   0  0  0  0  0  0  0  0  0  0  0  0
  1 11  1  0  0  0  0
  2  1  1  1  0  0  0
  2  3  1  0  0  0  0
  2  7  1  0  0  0  0
  3  4  1  0  0  0  0
  4 14  1  0  0  0  0
  5  6  1  0  0  0  0
  5  2  1  0  0  0  0
  6  7  1  0  0  0  0
  7  8  2  0  0  0  0
  9  1  1  0  0  0  0
 10  1  1  0  0  0  0
 12  3  1  0  0  0  0
 13  3  1  0  0  0  0
 15  5  1  0  0  0  0
 16  5  1  0  0  0  0
 17  6  1  0  0  0  0
 18  6  1  0  0  0  0
M  END
