title
 OpenBabel02282109583D

 17 17  0  0  1  0  0  0  0  0999 V2000
   -0.1797    1.8495   -0.4913 C   0  0  0  0  0  0  0  0  0  0  0  0
   -0.1458    0.3252   -0.5015 C   0  0  1  0  0  0  0  0  0  0  0  0
   -1.5313   -0.2936   -0.2631 C   0  0  0  0  0  0  0  0  0  0  0  0
   -2.0225    0.0494    1.0161 O   0  0  0  0  0  0  0  0  0  0  0  0
    0.7173   -0.3412   -1.6229 C   0  0  0  0  0  0  0  0  0  0  0  0
    1.6152   -0.8162   -0.5607 N   0  0  0  0  0  0  0  0  0  0  0  0
    0.8669   -0.3246    0.4737 C   0  0  0  0  0  0  0  0  0  0  0  0
    0.9316   -0.4325    1.6754 O   0  0  0  0  0  0  0  0  0  0  0  0
    0.8262    2.2753   -0.5570 H   0  0  0  0  0  0  0  0  0  0  0  0
   -0.7671    2.2256   -1.3365 H   0  0  0  0  0  0  0  0  0  0  0  0
   -0.6489    2.2027    0.4296 H   0  0  0  0  0  0  0  0  0  0  0  0
   -2.2552    0.0882   -0.9928 H   0  0  0  0  0  0  0  0  0  0  0  0
   -1.4736   -1.3872   -0.3959 H   0  0  0  0  0  0  0  0  0  0  0  0
   -1.3364   -0.1889    1.6558 H   0  0  0  0  0  0  0  0  0  0  0  0
    0.2178   -1.1452   -2.1741 H   0  0  0  0  0  0  0  0  0  0  0  0
    1.1857    0.3538   -2.3259 H   0  0  0  0  0  0  0  0  0  0  0  0
    2.3709   -1.4859   -0.5719 H   0  0  0  0  0  0  0  0  0  0  0  0
  1 11  1  0  0  0  0
  2  1  1  6  0  0  0
  2  3  1  0  0  0  0
  2  7  1  0  0  0  0
  3  4  1  0  0  0  0
  4 14  1  0  0  0  0
  5  6  1  0  0  0  0
  5  2  1  0  0  0  0
  6  7  1  0  0  0  0
  7  8  2  0  0  0  0
  9  1  1  0  0  0  0
 10  1  1  0  0  0  0
 12  3  1  0  0  0  0
 13  3  1  0  0  0  0
 15  5  1  0  0  0  0
 16  5  1  0  0  0  0
 17  6  1  0  0  0  0
M  END
