17
title
C -0.37986535 1.8553275 -0.022501001
C -0.10282009 0.35763198 -0.08582974
C -1.3719026 -0.46731436 -0.3875598
O -1.7506622 -0.37185514 -1.7515776
N 1.0479102 -0.025089012 -0.9604614
C 1.6843151 -0.8535286 0.098437704
C 0.6793587 -0.25654337 1.0940893
O 0.55792695 -0.23630586 2.2823544
H 0.54885393 2.4105115 0.12622179
H -0.82681835 2.214219 -0.9572843
H -1.0637325 2.0848053 0.80095446
H -1.1790047 -1.5317439 -0.21635439
H -2.1845849 -0.16489196 0.28810933
H -2.0503552 0.5272079 -1.920834
H 0.7444974 -0.5424211 -1.779381
H 1.5748918 -1.9419754 -0.0056872605
H 2.739688 -0.6276149 0.2852712
