title
 OpenBabel02282109583D

 19 19  0  0  1  0  0  0  0  0999 V2000
    1.5694    1.8941   -0.3540 C   0  0  0  0  0  0  0  0  0  0  0  0
    1.4722    0.3803   -0.5807 C   0  0  0  0  0  0  0  0  0  0  0  0
    0.0385   -0.1696   -0.5466 C   0  0  1  0  0  0  0  0  0  0  0  0
   -0.8716    0.4195   -1.6228 C   0  0  0  0  0  0  0  0  0  0  0  0
   -0.0445   -1.7290   -0.4020 C   0  0  0  0  0  0  0  0  0  0  0  0
   -0.6346   -1.5123    0.9202 N   0  0  0  0  0  0  0  0  0  0  0  0
   -0.5935   -0.1424    0.8776 C   0  0  0  0  0  0  0  0  0  0  0  0
   -0.9216    0.7132    1.6589 O   0  0  0  0  0  0  0  0  0  0  0  0
    2.6164    2.2039   -0.2825 H   0  0  0  0  0  0  0  0  0  0  0  0
    1.1167    2.4567   -1.1760 H   0  0  0  0  0  0  0  0  0  0  0  0
    1.0604    2.1803    0.5704 H   0  0  0  0  0  0  0  0  0  0  0  0
    1.9269    0.1150   -1.5449 H   0  0  0  0  0  0  0  0  0  0  0  0
    2.0603   -0.1359    0.1888 H   0  0  0  0  0  0  0  0  0  0  0  0
   -0.4411    0.2774   -2.6206 H   0  0  0  0  0  0  0  0  0  0  0  0
   -1.8586   -0.0537   -1.6082 H   0  0  0  0  0  0  0  0  0  0  0  0
   -1.0185    1.4911   -1.4648 H   0  0  0  0  0  0  0  0  0  0  0  0
   -0.7111   -2.2256   -1.1147 H   0  0  0  0  0  0  0  0  0  0  0  0
    0.9223   -2.2431   -0.3829 H   0  0  0  0  0  0  0  0  0  0  0  0
   -0.9414   -2.1517    1.6383 H   0  0  0  0  0  0  0  0  0  0  0  0
  1  9  1  0  0  0  0
  1 11  1  0  0  0  0
  2  3  1  0  0  0  0
  2  1  1  0  0  0  0
  2 13  1  0  0  0  0
  3  4  1  6  0  0  0
  3  5  1  0  0  0  0
  3  7  1  0  0  0  0
  4 15  1  0  0  0  0
  4 16  1  0  0  0  0
  5 18  1  0  0  0  0
  5  6  1  0  0  0  0
  6 19  1  0  0  0  0
  7  6  1  0  0  0  0
  7  8  2  0  0  0  0
 10  1  1  0  0  0  0
 12  2  1  0  0  0  0
 14  4  1  0  0  0  0
 17  5  1  0  0  0  0
M  END
