title
 OpenBabel02282109593D

 19 19  0  0  1  0  0  0  0  0999 V2000
   -0.4087    1.9371    1.5530 C   0  0  0  0  0  0  0  0  0  0  0  0
   -0.2403    0.4141    1.5610 C   0  0  0  0  0  0  0  0  0  0  0  0
    0.4385   -0.1589    0.3049 C   0  0  1  0  0  0  0  0  0  0  0  0
    1.8510    0.3803    0.0757 C   0  0  0  0  0  0  0  0  0  0  0  0
    0.2900   -1.6966    0.1499 C   0  0  0  0  0  0  0  0  0  0  0  0
   -0.5525   -1.5089   -1.0303 O   0  0  0  0  0  0  0  0  0  0  0  0
   -0.4417   -0.1385   -0.9393 C   0  0  0  0  0  0  0  0  0  0  0  0
   -0.9225    0.7672   -1.6629 N   0  0  0  0  0  0  0  0  0  0  0  0
    0.5557    2.4524    1.5884 H   0  0  0  0  0  0  0  0  0  0  0  0
   -0.9336    2.2629    0.6509 H   0  0  0  0  0  0  0  0  0  0  0  0
   -0.9855    2.2606    2.4248 H   0  0  0  0  0  0  0  0  0  0  0  0
    0.3449    0.1040    2.4374 H   0  0  0  0  0  0  0  0  0  0  0  0
   -1.2259   -0.0560    1.6666 H   0  0  0  0  0  0  0  0  0  0  0  0
    2.4793    0.2051    0.9560 H   0  0  0  0  0  0  0  0  0  0  0  0
    2.3239   -0.1046   -0.7838 H   0  0  0  0  0  0  0  0  0  0  0  0
    1.8298    1.4543   -0.1230 H   0  0  0  0  0  0  0  0  0  0  0  0
    1.1996   -2.2467   -0.1051 H   0  0  0  0  0  0  0  0  0  0  0  0
   -0.2594   -2.2121    0.9421 H   0  0  0  0  0  0  0  0  0  0  0  0
   -1.4797    0.3798   -2.4266 H   0  0  0  0  0  0  0  0  0  0  0  0
  1  2  1  0  0  0  0
  1  9  1  0  0  0  0
  1 11  1  0  0  0  0
  2 13  1  0  0  0  0
  2 12  1  0  0  0  0
  3  4  1  6  0  0  0
  3  2  1  0  0  0  0
  4 14  1  0  0  0  0
  5  3  1  0  0  0  0
  5 18  1  0  0  0  0
  6  7  1  0  0  0  0
  6  5  1  0  0  0  0
  7  3  1  0  0  0  0
  8  7  2  0  0  0  0
 10  1  1  0  0  0  0
 15  4  1  0  0  0  0
 16  4  1  0  0  0  0
 17  5  1  0  0  0  0
 19  8  1  0  0  0  0
M  END
