title
 OpenBabel02282109593D

 17 17  0  0  1  0  0  0  0  0999 V2000
   -0.4095    1.9428    1.5188 C   0  0  0  0  0  0  0  0  0  0  0  0
   -0.2129    0.4225    1.5618 C   0  0  0  0  0  0  0  0  0  0  0  0
    0.4596   -0.1539    0.3100 C   0  0  1  0  0  0  0  0  0  0  0  0
    1.8128    0.3482    0.1633 N   0  0  0  0  0  0  0  0  0  0  0  0
    0.3241   -1.6864    0.1475 C   0  0  0  0  0  0  0  0  0  0  0  0
   -0.5930   -1.5072   -0.9785 O   0  0  0  0  0  0  0  0  0  0  0  0
   -0.4686   -0.1392   -0.9346 C   0  0  0  0  0  0  0  0  0  0  0  0
   -0.9479    0.6578   -1.6777 O   0  0  0  0  0  0  0  0  0  0  0  0
    0.5456    2.4779    1.5387 H   0  0  0  0  0  0  0  0  0  0  0  0
   -0.9531    2.2447    0.6190 H   0  0  0  0  0  0  0  0  0  0  0  0
   -0.9795    2.2772    2.3902 H   0  0  0  0  0  0  0  0  0  0  0  0
    0.3995    0.1426    2.4270 H   0  0  0  0  0  0  0  0  0  0  0  0
   -1.1870   -0.0653    1.6839 H   0  0  0  0  0  0  0  0  0  0  0  0
    2.2222    0.0334   -0.7120 H   0  0  0  0  0  0  0  0  0  0  0  0
    1.8073    1.3627    0.1258 H   0  0  0  0  0  0  0  0  0  0  0  0
    1.2346   -2.2002   -0.1691 H   0  0  0  0  0  0  0  0  0  0  0  0
   -0.1600   -2.2263    0.9637 H   0  0  0  0  0  0  0  0  0  0  0  0
  1  9  1  0  0  0  0
  1  2  1  0  0  0  0
  1 11  1  0  0  0  0
  2 13  1  0  0  0  0
  2 12  1  0  0  0  0
  3  4  1  6  0  0  0
  3  2  1  0  0  0  0
  5  3  1  0  0  0  0
  5 17  1  0  0  0  0
  6  7  1  0  0  0  0
  6  5  1  0  0  0  0
  7  3  1  0  0  0  0
  8  7  2  0  0  0  0
 10  1  1  0  0  0  0
 14  4  1  0  0  0  0
 15  4  1  0  0  0  0
 16  5  1  0  0  0  0
M  END
