17
title
C -0.4094654 1.9428165 1.5187941
C -0.21287264 0.42249554 1.5617722
C 0.45955324 -0.15387444 0.31003934
N 1.8128428 0.3482092 0.16328794
C 0.3240558 -1.6864426 0.14752477
O -0.5930216 -1.5071834 -0.97853893
C -0.4686468 -0.13924398 -0.9345512
O -0.9479344 0.65777797 -1.6776872
H 0.54564595 2.4778988 1.5387108
H -0.95308465 2.2447183 0.6189826
H -0.97953063 2.2771878 2.390196
H 0.39946556 0.14259216 2.4269898
H -1.1869597 -0.06531198 1.6838949
H 2.2221916 0.033351645 -0.7119691
H 1.807322 1.3627263 0.125804
H 1.2346328 -2.2001824 -0.16907948
H -0.15996443 -2.2263348 0.96372664
