title
 OpenBabel02282109593D

 17 17  0  0  1  0  0  0  0  0999 V2000
   -0.2128    1.9634    1.5556 C   0  0  0  0  0  0  0  0  0  0  0  0
   -0.2628    0.4326    1.5673 C   0  0  0  0  0  0  0  0  0  0  0  0
    0.3646   -0.1965    0.3220 C   0  0  1  0  0  0  0  0  0  0  0  0
    1.7227    0.1605    0.1610 O   0  0  0  0  0  0  0  0  0  0  0  0
    0.1342   -1.7146    0.1400 C   0  0  0  0  0  0  0  0  0  0  0  0
   -0.6932   -1.4530   -1.0439 O   0  0  0  0  0  0  0  0  0  0  0  0
   -0.4535   -0.1035   -0.9630 C   0  0  0  0  0  0  0  0  0  0  0  0
   -0.7658    0.8461   -1.7212 N   0  0  0  0  0  0  0  0  0  0  0  0
    0.8230    2.3160    1.5384 H   0  0  0  0  0  0  0  0  0  0  0  0
   -0.7283    2.3666    0.6791 H   0  0  0  0  0  0  0  0  0  0  0  0
   -0.6866    2.3728    2.4520 H   0  0  0  0  0  0  0  0  0  0  0  0
    0.2750    0.0433    2.4407 H   0  0  0  0  0  0  0  0  0  0  0  0
   -1.3012    0.0890    1.6503 H   0  0  0  0  0  0  0  0  0  0  0  0
    1.7452    0.9958   -0.3197 H   0  0  0  0  0  0  0  0  0  0  0  0
    1.0333   -2.2731   -0.1248 H   0  0  0  0  0  0  0  0  0  0  0  0
   -0.4431   -2.2247    0.9137 H   0  0  0  0  0  0  0  0  0  0  0  0
   -1.2898    0.5273   -2.5382 H   0  0  0  0  0  0  0  0  0  0  0  0
  1  2  1  0  0  0  0
  1 11  1  0  0  0  0
  2 13  1  0  0  0  0
  2 12  1  0  0  0  0
  3  4  1  6  0  0  0
  3  2  1  0  0  0  0
  5  3  1  0  0  0  0
  5 16  1  0  0  0  0
  6  7  1  0  0  0  0
  6  5  1  0  0  0  0
  7  3  1  0  0  0  0
  8  7  2  0  0  0  0
  9  1  1  0  0  0  0
 10  1  1  0  0  0  0
 14  4  1  0  0  0  0
 15  5  1  0  0  0  0
 17  8  1  0  0  0  0
M  END
