title
 OpenBabel02282109593D

 16 16  0  0  1  0  0  0  0  0999 V2000
   -0.3109    1.9233    1.5377 C   0  0  0  0  0  0  0  0  0  0  0  0
   -0.2420    0.3936    1.5663 C   0  0  0  0  0  0  0  0  0  0  0  0
    0.4191   -0.1988    0.3227 C   0  0  1  0  0  0  0  0  0  0  0  0
    1.7340    0.2831    0.2567 O   0  0  0  0  0  0  0  0  0  0  0  0
    0.1833   -1.7204    0.1123 C   0  0  0  0  0  0  0  0  0  0  0  0
   -0.6983   -1.4343   -1.0204 O   0  0  0  0  0  0  0  0  0  0  0  0
   -0.4411   -0.0866   -0.9636 C   0  0  0  0  0  0  0  0  0  0  0  0
   -0.7990    0.7570   -1.7211 O   0  0  0  0  0  0  0  0  0  0  0  0
    0.6917    2.3512    1.4702 H   0  0  0  0  0  0  0  0  0  0  0  0
   -0.8871    2.2745    0.6769 H   0  0  0  0  0  0  0  0  0  0  0  0
   -0.7875    2.3017    2.4463 H   0  0  0  0  0  0  0  0  0  0  0  0
    0.3359    0.0532    2.4345 H   0  0  0  0  0  0  0  0  0  0  0  0
   -1.2465   -0.0340    1.6636 H   0  0  0  0  0  0  0  0  0  0  0  0
    2.0881    0.1383   -0.6272 H   0  0  0  0  0  0  0  0  0  0  0  0
    1.0657   -2.2777   -0.2111 H   0  0  0  0  0  0  0  0  0  0  0  0
   -0.3514   -2.2571    0.8981 H   0  0  0  0  0  0  0  0  0  0  0  0
  1  2  1  0  0  0  0
  1 11  1  0  0  0  0
  2 13  1  0  0  0  0
  2 12  1  0  0  0  0
  3  4  1  6  0  0  0
  3  2  1  0  0  0  0
  5  3  1  0  0  0  0
  5 16  1  0  0  0  0
  6  7  1  0  0  0  0
  6  5  1  0  0  0  0
  7  3  1  0  0  0  0
  8  7  2  0  0  0  0
  9  1  1  0  0  0  0
 10  1  1  0  0  0  0
 14  4  1  0  0  0  0
 15  5  1  0  0  0  0
M  END
