title
 OpenBabel02282109593D

 17 17  0  0  1  0  0  0  0  0999 V2000
   -0.3986    1.7883    1.4284 C   0  0  0  0  0  0  0  0  0  0  0  0
   -0.1236    0.3933    1.4531 O   0  0  0  0  0  0  0  0  0  0  0  0
    0.4629   -0.1284    0.2834 C   0  0  1  0  0  0  0  0  0  0  0  0
    1.8591    0.4089   -0.0021 C   0  0  0  0  0  0  0  0  0  0  0  0
    0.3074   -1.6809    0.2683 C   0  0  0  0  0  0  0  0  0  0  0  0
   -0.5141   -1.5248   -0.9368 N   0  0  0  0  0  0  0  0  0  0  0  0
   -0.5031   -0.1552   -0.9543 C   0  0  0  0  0  0  0  0  0  0  0  0
   -1.0468    0.6667   -1.6462 O   0  0  0  0  0  0  0  0  0  0  0  0
    0.5198    2.3895    1.4680 H   0  0  0  0  0  0  0  0  0  0  0  0
   -0.9716    2.0701    0.5382 H   0  0  0  0  0  0  0  0  0  0  0  0
   -0.9892    1.9985    2.3229 H   0  0  0  0  0  0  0  0  0  0  0  0
    2.4971    0.2899    0.8794 H   0  0  0  0  0  0  0  0  0  0  0  0
    2.3122   -0.1290   -0.8400 H   0  0  0  0  0  0  0  0  0  0  0  0
    1.8256    1.4682   -0.2702 H   0  0  0  0  0  0  0  0  0  0  0  0
    1.2283   -2.2513    0.1152 H   0  0  0  0  0  0  0  0  0  0  0  0
   -0.2353   -2.0534    1.1408 H   0  0  0  0  0  0  0  0  0  0  0  0
   -1.0534   -2.1911   -1.4697 H   0  0  0  0  0  0  0  0  0  0  0  0
  1  2  1  0  0  0  0
  1  9  1  0  0  0  0
  1 11  1  0  0  0  0
  3  2  1  1  0  0  0
  4  3  1  0  0  0  0
  4 12  1  0  0  0  0
  5  3  1  0  0  0  0
  5 16  1  0  0  0  0
  6  5  1  0  0  0  0
  7  6  1  0  0  0  0
  7  3  1  0  0  0  0
  8  7  2  0  0  0  0
 10  1  1  0  0  0  0
 13  4  1  0  0  0  0
 14  4  1  0  0  0  0
 15  5  1  0  0  0  0
 17  6  1  0  0  0  0
M  END
