17
title
C -0.39859572 1.7882534 1.4283544
O -0.12357416 0.3932964 1.453093
C 0.46286812 -0.12837236 0.28335592
C 1.8590502 0.40893638 -0.0021138361
C 0.30739233 -1.6809106 0.2683364
N -0.51405454 -1.5248308 -0.93675125
C -0.5030818 -0.15523563 -0.95433676
O -1.046794 0.66673833 -1.6461729
H 0.5198192 2.3895037 1.4680386
H -0.97161627 2.0700595 0.5382441
H -0.98922205 1.998479 2.322852
H 2.4970737 0.28993446 0.8794121
H 2.312171 -0.12897305 -0.83996975
H 1.8255819 1.4682285 -0.2702476
H 1.2282848 -2.2513015 0.11524318
H -0.23527947 -2.0533843 1.1407975
H -1.0533978 -2.1910841 -1.4697014
