title
 OpenBabel02282109593D

 17 17  0  0  1  0  0  0  0  0999 V2000
   -0.3365    1.8510    1.4075 C   0  0  0  0  0  0  0  0  0  0  0  0
   -0.1447    0.4425    1.4407 O   0  0  0  0  0  0  0  0  0  0  0  0
    0.4429   -0.1217    0.2916 C   0  0  1  0  0  0  0  0  0  0  0  0
    1.8709    0.3444    0.0345 C   0  0  0  0  0  0  0  0  0  0  0  0
    0.2016   -1.6487    0.2812 C   0  0  0  0  0  0  0  0  0  0  0  0
   -0.6097   -1.5240   -0.9312 O   0  0  0  0  0  0  0  0  0  0  0  0
   -0.4656   -0.1558   -0.9441 C   0  0  0  0  0  0  0  0  0  0  0  0
   -0.9409    0.7138   -1.7133 N   0  0  0  0  0  0  0  0  0  0  0  0
    0.6141    2.3971    1.4715 H   0  0  0  0  0  0  0  0  0  0  0  0
   -0.8687    2.1620    0.5018 H   0  0  0  0  0  0  0  0  0  0  0  0
   -0.9376    2.0960    2.2859 H   0  0  0  0  0  0  0  0  0  0  0  0
    2.4780    0.2001    0.9337 H   0  0  0  0  0  0  0  0  0  0  0  0
    2.3175   -0.2220   -0.7877 H   0  0  0  0  0  0  0  0  0  0  0  0
    1.8945    1.4010   -0.2429 H   0  0  0  0  0  0  0  0  0  0  0  0
    1.0710   -2.2861    0.1071 H   0  0  0  0  0  0  0  0  0  0  0  0
   -0.3958   -2.0049    1.1216 H   0  0  0  0  0  0  0  0  0  0  0  0
   -1.5418    0.2964   -2.4272 H   0  0  0  0  0  0  0  0  0  0  0  0
  1  2  1  0  0  0  0
  1  9  1  0  0  0  0
  1 11  1  0  0  0  0
  3  2  1  1  0  0  0
  4  3  1  0  0  0  0
  4 12  1  0  0  0  0
  5  3  1  0  0  0  0
  5 16  1  0  0  0  0
  6  5  1  0  0  0  0
  7  6  1  0  0  0  0
  7  3  1  0  0  0  0
  8  7  2  0  0  0  0
 10  1  1  0  0  0  0
 13  4  1  0  0  0  0
 14  4  1  0  0  0  0
 15  5  1  0  0  0  0
 17  8  1  0  0  0  0
M  END
