16
title
C -0.3284326 1.8493785 1.4113017
O -0.12291079 0.44217694 1.4536266
C 0.45953372 -0.12411258 0.30490753
C 1.8802742 0.35009688 0.024484856
C 0.21795219 -1.6471652 0.27973792
O -0.60486877 -1.5145414 -0.9264622
C -0.47709867 -0.15133604 -0.93387675
O -0.9811129 0.6278034 -1.6787424
H 0.6177993 2.404717 1.446458
H -0.8866142 2.1483166 0.51682657
H -0.91149104 2.0970023 2.3005743
H 2.5011458 0.20998323 0.914712
H 2.3187358 -0.21440342 -0.80348086
H 1.8953501 1.4072661 -0.2519304
H 1.0845846 -2.2823486 0.08939658
H -0.37491655 -2.0134416 1.118277
