title
 OpenBabel02282109593D

 16 16  0  0  1  0  0  0  0  0999 V2000
   -0.3284    1.8494    1.4113 C   0  0  0  0  0  0  0  0  0  0  0  0
   -0.1229    0.4422    1.4536 O   0  0  0  0  0  0  0  0  0  0  0  0
    0.4595   -0.1241    0.3049 C   0  0  1  0  0  0  0  0  0  0  0  0
    1.8803    0.3501    0.0245 C   0  0  0  0  0  0  0  0  0  0  0  0
    0.2180   -1.6472    0.2797 C   0  0  0  0  0  0  0  0  0  0  0  0
   -0.6049   -1.5145   -0.9265 O   0  0  0  0  0  0  0  0  0  0  0  0
   -0.4771   -0.1513   -0.9339 C   0  0  0  0  0  0  0  0  0  0  0  0
   -0.9811    0.6278   -1.6787 O   0  0  0  0  0  0  0  0  0  0  0  0
    0.6178    2.4047    1.4465 H   0  0  0  0  0  0  0  0  0  0  0  0
   -0.8866    2.1483    0.5168 H   0  0  0  0  0  0  0  0  0  0  0  0
   -0.9115    2.0970    2.3006 H   0  0  0  0  0  0  0  0  0  0  0  0
    2.5011    0.2100    0.9147 H   0  0  0  0  0  0  0  0  0  0  0  0
    2.3187   -0.2144   -0.8035 H   0  0  0  0  0  0  0  0  0  0  0  0
    1.8954    1.4073   -0.2519 H   0  0  0  0  0  0  0  0  0  0  0  0
    1.0846   -2.2823    0.0894 H   0  0  0  0  0  0  0  0  0  0  0  0
   -0.3749   -2.0134    1.1183 H   0  0  0  0  0  0  0  0  0  0  0  0
  1  9  1  0  0  0  0
  1  2  1  0  0  0  0
  1 11  1  0  0  0  0
  3  2  1  1  0  0  0
  4  3  1  0  0  0  0
  4 12  1  0  0  0  0
  5  3  1  0  0  0  0
  5 16  1  0  0  0  0
  6  5  1  0  0  0  0
  7  6  1  0  0  0  0
  7  3  1  0  0  0  0
  8  7  2  0  0  0  0
 10  1  1  0  0  0  0
 13  4  1  0  0  0  0
 14  4  1  0  0  0  0
 15  5  1  0  0  0  0
M  END
