15
title
N -0.46408096 1.7488449 0.4487155
C -0.36732733 0.31197664 0.35812008
C 0.55861986 -0.20295343 1.4678369
O 1.8595837 0.33074987 1.3128811
C -1.685468 -0.4704029 0.16018622
O -1.158889 -1.0733261 -1.0707443
C 0.007969751 -0.36273277 -0.9833738
O 0.9384851 -0.37562805 -1.7298625
H 0.46257997 2.121696 0.6373477
H -0.787929 2.1615922 -0.4202454
H 0.19017585 0.1493134 2.4365983
H 0.5613207 -1.3028636 1.47508
H 2.197212 0.03594764 0.45702052
H -1.9255335 -1.2425082 0.89426726
H -2.5569901 0.15161788 -0.05080575
