title
 OpenBabel02282109593D

 16 16  0  0  1  0  0  0  0  0999 V2000
    1.4929    1.6652   -0.3991 O   0  0  0  0  0  0  0  0  0  0  0  0
    1.5054    0.2448   -0.4632 C   0  0  0  0  0  0  0  0  0  0  0  0
    0.0615   -0.2495   -0.4910 C   0  0  1  0  0  0  0  0  0  0  0  0
   -0.6386    0.3424   -1.5625 O   0  0  0  0  0  0  0  0  0  0  0  0
   -0.2386   -1.7701   -0.3699 C   0  0  0  0  0  0  0  0  0  0  0  0
   -1.0566   -1.5396    0.9430 C   0  0  0  0  0  0  0  0  0  0  0  0
   -0.6332   -0.0669    0.8890 C   0  0  0  0  0  0  0  0  0  0  0  0
   -0.6943    0.8677    1.6417 O   0  0  0  0  0  0  0  0  0  0  0  0
    1.0547    1.9036    0.4301 H   0  0  0  0  0  0  0  0  0  0  0  0
    2.0133   -0.0254   -1.3952 H   0  0  0  0  0  0  0  0  0  0  0  0
    2.0604   -0.2004    0.3757 H   0  0  0  0  0  0  0  0  0  0  0  0
   -0.3184    1.2556   -1.6019 H   0  0  0  0  0  0  0  0  0  0  0  0
   -0.8147   -2.1486   -1.2139 H   0  0  0  0  0  0  0  0  0  0  0  0
    0.6536   -2.3852   -0.2343 H   0  0  0  0  0  0  0  0  0  0  0  0
   -2.1367   -1.6687    0.8234 H   0  0  0  0  0  0  0  0  0  0  0  0
   -0.7438   -2.0785    1.8412 H   0  0  0  0  0  0  0  0  0  0  0  0
  1  9  1  0  0  0  0
  2  1  1  0  0  0  0
  2 11  1  0  0  0  0
  3  4  1  6  0  0  0
  3  2  1  0  0  0  0
  3  5  1  0  0  0  0
  3  7  1  0  0  0  0
  5 14  1  0  0  0  0
  5  6  1  0  0  0  0
  6 16  1  0  0  0  0
  7  6  1  0  0  0  0
  7  8  2  0  0  0  0
 10  2  1  0  0  0  0
 12  4  1  0  0  0  0
 13  5  1  0  0  0  0
 15  6  1  0  0  0  0
M  END
