22
title
C -0.7464428 2.0957472 -1.1648992
C -0.6122702 0.58457994 -1.040746
C 0.38541308 -0.16677201 -1.9636523
C 0.7343659 -1.1034406 -0.77818495
C 0.09944449 -0.06662207 0.20125636
C 1.154274 0.82255256 0.8634706
C -0.853786 -0.6389979 1.2410176
O -0.106409565 -1.4211942 2.1642094
H 0.22333942 2.5972636 -1.0865513
H -1.1775745 2.3636675 -2.1362612
H -1.4007658 2.5109518 -0.38983724
H -1.6057825 0.12966588 -1.1445237
H -0.017535048 -0.62353396 -2.8711538
H 1.2294079 0.46934244 -2.2491322
H 0.16742145 -2.0384352 -0.80523056
H 1.788044 -1.3452927 -0.6199884
H 1.8817916 1.1980659 0.13709089
H 0.69676656 1.6881827 1.3562412
H 1.6947973 0.25084662 1.6221278
H -1.3809379 0.1840998 1.7539847
H -1.6165326 -1.2539585 0.7363059
H -0.71191096 -1.7694336 2.8246343
