title
 OpenBabel02282109593D

 20 20  0  0  1  0  0  0  0  0999 V2000
   -0.9633    2.1245   -1.0828 C   0  0  0  0  0  0  0  0  0  0  0  0
   -0.6839    0.6293   -1.0095 C   0  0  1  0  0  0  0  0  0  0  0  0
    0.6115    0.1340   -1.6882 C   0  0  0  0  0  0  0  0  0  0  0  0
    1.1705   -0.3093   -0.4330 O   0  0  0  0  0  0  0  0  0  0  0  0
   -0.0566    0.0354    0.2885 C   0  0  1  0  0  0  0  0  0  0  0  0
    0.2418    0.9539    1.4608 C   0  0  0  0  0  0  0  0  0  0  0  0
   -0.6968   -1.2809    0.7442 C   0  0  0  0  0  0  0  0  0  0  0  0
    0.2184   -2.0405    1.5069 O   0  0  0  0  0  0  0  0  0  0  0  0
   -0.0836    2.7173   -0.8145 H   0  0  0  0  0  0  0  0  0  0  0  0
   -1.2540    2.4068   -2.1005 H   0  0  0  0  0  0  0  0  0  0  0  0
   -1.7809    2.4136   -0.4145 H   0  0  0  0  0  0  0  0  0  0  0  0
   -1.5742    0.0754   -1.3235 H   0  0  0  0  0  0  0  0  0  0  0  0
    0.4937   -0.6906   -2.4020 H   0  0  0  0  0  0  0  0  0  0  0  0
    1.2288    0.9147   -2.1503 H   0  0  0  0  0  0  0  0  0  0  0  0
    0.8518    1.8058    1.1532 H   0  0  0  0  0  0  0  0  0  0  0  0
   -0.6868    1.3284    1.9051 H   0  0  0  0  0  0  0  0  0  0  0  0
    0.7833    0.3934    2.2273 H   0  0  0  0  0  0  0  0  0  0  0  0
   -1.5704   -1.0898    1.3780 H   0  0  0  0  0  0  0  0  0  0  0  0
   -1.0390   -1.8415   -0.1410 H   0  0  0  0  0  0  0  0  0  0  0  0
    1.0238   -2.0726    0.9733 H   0  0  0  0  0  0  0  0  0  0  0  0
  1  2  1  0  0  0  0
  1  9  1  0  0  0  0
  1 11  1  0  0  0  0
  2  5  1  1  0  0  0
  3  2  1  0  0  0  0
  3  4  1  0  0  0  0
  4  5  1  0  0  0  0
  5  7  1  1  0  0  0
  5  6  1  0  0  0  0
  6 16  1  0  0  0  0
  6 17  1  0  0  0  0
  7 18  1  0  0  0  0
  7  8  1  0  0  0  0
 10  1  1  0  0  0  0
 12  2  1  0  0  0  0
 13  3  1  0  0  0  0
 14  3  1  0  0  0  0
 15  6  1  0  0  0  0
 19  7  1  0  0  0  0
 20  8  1  0  0  0  0
M  END
