18
title
C -0.9753497 2.0715978 -0.88450456
C -0.694351 0.5833205 -0.9601128
O 0.41815174 0.26025248 -1.8324469
C 1.2351964 -0.17380257 -0.72501576
C 0.034016125 -0.060180623 0.24716523
O 0.18938452 0.7889456 1.3545761
C -0.55975163 -1.3891782 0.6883523
O 0.2967515 -1.8891146 1.7123826
H -0.10111464 2.6196072 -0.5267378
H -1.245642 2.4432728 -1.8775145
H -1.8061647 2.269657 -0.19998583
H -1.5971823 0.0418459 -1.2785189
H 1.6598144 -1.1712446 -0.8854147
H 2.037498 0.5374091 -0.4946048
H 0.47566152 0.22243117 2.0833352
H -1.5766753 -1.2168814 1.0716872
H -0.6204141 -2.081291 -0.1633155
H -0.13675028 -2.627711 2.1484585
