24
title
C -0.616244 2.268497 1.2158517
C -0.5657186 0.74391377 1.0527163
C -0.13925168 0.25102377 -0.34236982
C -1.0683899 0.772068 -1.4370719
C 1.3940413 0.44584754 -0.58734727
C 1.6342793 -1.0248957 -0.16173401
C 0.12462941 -1.3029114 -0.3835446
C -0.6054885 -2.2613943 0.54721284
H 0.33686915 2.7351742 0.9445555
H -1.3949316 2.7203813 0.5944062
H -0.8300405 2.5373917 2.2551036
H 0.12247434 0.33625916 1.8035815
H -1.5528115 0.3267131 1.2914124
H -1.0402789 1.8639882 -1.514506
H -0.7824759 0.36802778 -2.4140718
H -2.1091151 0.48058277 -1.2477113
H 1.6176617 0.60964084 -1.6458601
H 1.8972807 1.2247338 -0.007963444
H 2.3452508 -1.6127683 -0.74789023
H 1.9136086 -1.1084727 0.8934252
H -0.02415332 -1.6368583 -1.4179057
H -0.46889678 -1.9956158 1.6002295
H -1.6824892 -2.281732 0.34451082
H -0.22892693 -3.2823246 0.4160039
