title
 OpenBabel02282109593D

 22 22  0  0  1  0  0  0  0  0999 V2000
   -0.6817    2.3809    1.0241 C   0  0  0  0  0  0  0  0  0  0  0  0
   -0.8291    0.8658    0.8353 C   0  0  0  0  0  0  0  0  0  0  0  0
   -0.0530    0.2908   -0.3590 C   0  0  1  0  0  0  0  0  0  0  0  0
   -0.4616    0.9228   -1.6867 C   0  0  0  0  0  0  0  0  0  0  0  0
    1.4711    0.1888   -0.0880 C   0  0  0  0  0  0  0  0  0  0  0  0
    1.3866   -1.2298    0.1417 O   0  0  0  0  0  0  0  0  0  0  0  0
    0.0352   -1.2719   -0.3726 C   0  0  1  0  0  0  0  0  0  0  0  0
   -0.8794   -2.1505    0.4567 C   0  0  0  0  0  0  0  0  0  0  0  0
    0.3710    2.6756    1.0981 H   0  0  0  0  0  0  0  0  0  0  0  0
   -1.1268    2.9430    0.1979 H   0  0  0  0  0  0  0  0  0  0  0  0
   -1.1777    2.7033    1.9446 H   0  0  0  0  0  0  0  0  0  0  0  0
   -0.4882    0.3648    1.7486 H   0  0  0  0  0  0  0  0  0  0  0  0
   -1.8929    0.6169    0.7271 H   0  0  0  0  0  0  0  0  0  0  0  0
   -0.2346    1.9931   -1.7134 H   0  0  0  0  0  0  0  0  0  0  0  0
    0.0664    0.4544   -2.5235 H   0  0  0  0  0  0  0  0  0  0  0  0
   -1.5377    0.8088   -1.8643 H   0  0  0  0  0  0  0  0  0  0  0  0
    2.1021    0.4270   -0.9565 H   0  0  0  0  0  0  0  0  0  0  0  0
    1.8592    0.7219    0.7884 H   0  0  0  0  0  0  0  0  0  0  0  0
    0.0414   -1.6443   -1.4099 H   0  0  0  0  0  0  0  0  0  0  0  0
   -0.9248   -1.8282    1.4994 H   0  0  0  0  0  0  0  0  0  0  0  0
   -1.8937   -2.1523    0.0428 H   0  0  0  0  0  0  0  0  0  0  0  0
   -0.5077   -3.1802    0.4379 H   0  0  0  0  0  0  0  0  0  0  0  0
  1  9  1  0  0  0  0
  1 11  1  0  0  0  0
  2  1  1  0  0  0  0
  2 12  1  0  0  0  0
  3  7  1  6  0  0  0
  3  5  1  0  0  0  0
  3  2  1  0  0  0  0
  4  3  1  0  0  0  0
  5  6  1  0  0  0  0
  5 18  1  0  0  0  0
  7 19  1  6  0  0  0
  7  6  1  0  0  0  0
  7  8  1  0  0  0  0
  8 20  1  0  0  0  0
 10  1  1  0  0  0  0
 13  2  1  0  0  0  0
 14  4  1  0  0  0  0
 15  4  1  0  0  0  0
 16  4  1  0  0  0  0
 17  5  1  0  0  0  0
 21  8  1  0  0  0  0
 22  8  1  0  0  0  0
M  END
