22
title
C -0.68174213 2.380876 1.0241052
C -0.82908195 0.8658143 0.83531845
C -0.05299961 0.29080573 -0.3590198
C -0.4616222 0.92276883 -1.6866851
C 1.4711269 0.1887701 -0.08801953
O 1.3865939 -1.2298166 0.14165618
C 0.035207875 -1.2719011 -0.3725634
C -0.87938374 -2.1505067 0.45671904
H 0.3710488 2.6755822 1.098099
H -1.1267878 2.9429862 0.19794221
H -1.1777279 2.7032526 1.944641
H -0.48823503 0.36476678 1.7486066
H -1.8929282 0.6168589 0.72711647
H -0.23463239 1.9931283 -1.7134283
H 0.06640334 0.4543584 -2.5235114
H -1.5377368 0.8088262 -1.8642638
H 2.102057 0.42697534 -0.956456
H 1.8592187 0.7218993 0.78835356
H 0.04142899 -1.6443071 -1.4098532
H -0.9247839 -1.8282185 1.499433
H -1.8936883 -2.15233 0.04278024
H -0.5076803 -3.180194 0.43787804
