22
title
C -0.45694458 2.2743227 1.1886866
C -0.67831063 0.7658065 1.027999
C -0.18693563 0.21214435 -0.315026
C -0.91490704 0.8102862 -1.5109689
O 1.2558782 0.4171895 -0.4388587
C 1.5209816 -0.98796177 -0.2774214
C 0.023796288 -1.3378601 -0.3760261
C -0.587777 -2.2722378 0.65759295
H 0.5871799 2.523931 0.9799795
H -1.0889478 2.8591816 0.51386714
H -0.686851 2.5912313 2.21034
H -0.14299479 0.24845731 1.8314946
H -1.7408568 0.51934564 1.1515889
H -0.7875155 1.8956267 -1.5499804
H -0.52111244 0.3934896 -2.4420545
H -1.9880532 0.5932021 -1.4591959
H 2.1802542 -1.3766418 -1.0623124
H 1.9711518 -1.2118493 0.7011084
H -0.22558948 -1.6992121 -1.3785253
H -0.33612308 -1.9807787 1.6814555
H -1.6796001 -2.3029566 0.57484835
H -0.22105077 -3.2938304 0.50822455
