20
title
C -0.54007846 2.2738855 1.123731
C -0.88166386 0.81743044 0.7918003
C -0.051558647 0.24987225 -0.36464104
C -0.31321782 0.93315595 -1.6984274
O 1.3768204 0.2864361 -0.04178616
C 1.4292601 -1.138842 0.1485314
C 0.00028708033 -1.3040987 -0.40842912
O -0.9630021 -1.9484175 0.38914475
H 0.5353548 2.3809786 1.2912272
H -0.82891643 2.9606473 0.32204053
H -1.0610169 2.5928335 2.0314047
H -0.7148974 0.1926413 1.6740448
H -1.9450443 0.7142246 0.54510975
H -0.07314775 1.9986147 -1.6483452
H 0.30444005 0.48771998 -2.4835165
H -1.3666447 0.830846 -1.9813397
H 2.2502713 -1.600077 -0.41313502
H 1.506991 -1.420415 1.2075533
H -0.01633302 -1.6857353 -1.4372077
H -0.90563387 -2.8956764 0.23374036
