title
 OpenBabel02282109593D

 22 22  0  0  1  0  0  0  0  0999 V2000
   -0.5883    2.3666   -1.0168 C   0  0  0  0  0  0  0  0  0  0  0  0
   -0.4275    0.8423   -1.0680 C   0  0  0  0  0  0  0  0  0  0  0  0
    0.2645    0.2488    0.1654 C   0  0  1  0  0  0  0  0  0  0  0  0
    1.5675    0.7823    0.3331 O   0  0  0  0  0  0  0  0  0  0  0  0
   -0.6457    0.2118    1.4357 C   0  0  0  0  0  0  0  0  0  0  0  0
   -0.9459   -1.2794    1.1327 C   0  0  0  0  0  0  0  0  0  0  0  0
    0.3019   -1.3089    0.2080 C   0  0  1  0  0  0  0  0  0  0  0  0
    0.2875   -2.1387   -1.0665 C   0  0  0  0  0  0  0  0  0  0  0  0
    0.3820    2.8766   -1.0155 H   0  0  0  0  0  0  0  0  0  0  0  0
   -1.1332    2.7301   -1.8929 H   0  0  0  0  0  0  0  0  0  0  0  0
   -1.1411    2.6883   -0.1275 H   0  0  0  0  0  0  0  0  0  0  0  0
   -1.4155    0.3799   -1.1804 H   0  0  0  0  0  0  0  0  0  0  0  0
    0.1513    0.5685   -1.9577 H   0  0  0  0  0  0  0  0  0  0  0  0
    1.4982    1.7401    0.4038 H   0  0  0  0  0  0  0  0  0  0  0  0
   -0.0373    0.3327    2.3355 H   0  0  0  0  0  0  0  0  0  0  0  0
   -1.4927    0.9019    1.4807 H   0  0  0  0  0  0  0  0  0  0  0  0
   -0.9603   -1.9729    1.9762 H   0  0  0  0  0  0  0  0  0  0  0  0
   -1.8753   -1.4057    0.5681 H   0  0  0  0  0  0  0  0  0  0  0  0
    1.1811   -1.5707    0.8064 H   0  0  0  0  0  0  0  0  0  0  0  0
   -0.5858   -1.9191   -1.6899 H   0  0  0  0  0  0  0  0  0  0  0  0
    1.1849   -1.9605   -1.6689 H   0  0  0  0  0  0  0  0  0  0  0  0
    0.2581   -3.2076   -0.8277 H   0  0  0  0  0  0  0  0  0  0  0  0
  1  9  1  0  0  0  0
  1 11  1  0  0  0  0
  2  1  1  0  0  0  0
  2  3  1  0  0  0  0
  3  7  1  6  0  0  0
  3  4  1  0  0  0  0
  3  5  1  0  0  0  0
  4 14  1  0  0  0  0
  5 16  1  0  0  0  0
  5 15  1  0  0  0  0
  6  5  1  0  0  0  0
  6 17  1  0  0  0  0
  7 19  1  1  0  0  0
  7  6  1  0  0  0  0
  8 22  1  0  0  0  0
  8  7  1  0  0  0  0
 10  1  1  0  0  0  0
 12  2  1  0  0  0  0
 13  2  1  0  0  0  0
 18  6  1  0  0  0  0
 20  8  1  0  0  0  0
 21  8  1  0  0  0  0
M  END
