title
 OpenBabel02282109593D

 20 20  0  0  1  0  0  0  0  0999 V2000
   -0.7026    2.3242    1.0363 C   0  0  0  0  0  0  0  0  0  0  0  0
   -0.7519    0.7990    0.8919 C   0  0  0  0  0  0  0  0  0  0  0  0
    0.0225    0.2691   -0.3204 C   0  0  1  0  0  0  0  0  0  0  0  0
   -0.4663    0.8040   -1.5368 O   0  0  0  0  0  0  0  0  0  0  0  0
    1.5769    0.2648   -0.1312 C   0  0  0  0  0  0  0  0  0  0  0  0
    1.4906   -1.2329    0.2691 C   0  0  0  0  0  0  0  0  0  0  0  0
    0.0821   -1.2753   -0.3824 C   0  0  1  0  0  0  0  0  0  0  0  0
   -0.9691   -1.9416    0.2758 O   0  0  0  0  0  0  0  0  0  0  0  0
    0.3254    2.6981    1.0993 H   0  0  0  0  0  0  0  0  0  0  0  0
   -1.1954    2.8299    0.1974 H   0  0  0  0  0  0  0  0  0  0  0  0
   -1.2246    2.6434    1.9430 H   0  0  0  0  0  0  0  0  0  0  0  0
   -0.3544    0.3318    1.7995 H   0  0  0  0  0  0  0  0  0  0  0  0
   -1.7899    0.4640    0.8036 H   0  0  0  0  0  0  0  0  0  0  0  0
   -0.4502    1.7645   -1.4743 H   0  0  0  0  0  0  0  0  0  0  0  0
    2.0765    0.4117   -1.0916 H   0  0  0  0  0  0  0  0  0  0  0  0
    1.9991    0.9550    0.6027 H   0  0  0  0  0  0  0  0  0  0  0  0
    2.2513   -1.9103   -0.1246 H   0  0  0  0  0  0  0  0  0  0  0  0
    1.4188   -1.3677    1.3516 H   0  0  0  0  0  0  0  0  0  0  0  0
    0.1491   -1.5697   -1.4383 H   0  0  0  0  0  0  0  0  0  0  0  0
   -0.8883   -2.8840    0.1021 H   0  0  0  0  0  0  0  0  0  0  0  0
  1  9  1  0  0  0  0
  1 11  1  0  0  0  0
  2  1  1  0  0  0  0
  2 12  1  0  0  0  0
  3  7  1  6  0  0  0
  3  5  1  0  0  0  0
  3  2  1  0  0  0  0
  4 14  1  0  0  0  0
  4  3  1  0  0  0  0
  5  6  1  0  0  0  0
  5 16  1  0  0  0  0
  6 18  1  0  0  0  0
  7 19  1  6  0  0  0
  7  6  1  0  0  0  0
  7  8  1  0  0  0  0
 10  1  1  0  0  0  0
 13  2  1  0  0  0  0
 15  5  1  0  0  0  0
 17  6  1  0  0  0  0
 20  8  1  0  0  0  0
M  END
