title
 OpenBabel02282109593D

 20 20  0  0  1  0  0  0  0  0999 V2000
    1.1349    2.4247    0.0752 C   0  0  0  0  0  0  0  0  0  0  0  0
    1.1350    0.9032    0.2689 C   0  0  0  0  0  0  0  0  0  0  0  0
   -0.2568    0.2751    0.1901 C   0  0  1  0  0  0  0  0  0  0  0  0
   -1.1331    0.7823    1.1747 O   0  0  0  0  0  0  0  0  0  0  0  0
   -0.8230    0.1467   -1.2514 C   0  0  0  0  0  0  0  0  0  0  0  0
   -0.5434   -1.2660   -1.2661 O   0  0  0  0  0  0  0  0  0  0  0  0
   -0.3086   -1.2759    0.1639 C   0  0  1  0  0  0  0  0  0  0  0  0
    0.8704   -2.1355    0.5652 C   0  0  0  0  0  0  0  0  0  0  0  0
    2.1561    2.8158    0.0770 H   0  0  0  0  0  0  0  0  0  0  0  0
    0.6734    2.7118   -0.8761 H   0  0  0  0  0  0  0  0  0  0  0  0
    0.6003    2.9413    0.8810 H   0  0  0  0  0  0  0  0  0  0  0  0
    1.7678    0.4426   -0.4975 H   0  0  0  0  0  0  0  0  0  0  0  0
    1.5785    0.6558    1.2405 H   0  0  0  0  0  0  0  0  0  0  0  0
   -1.1149    1.7440    1.1385 H   0  0  0  0  0  0  0  0  0  0  0  0
   -1.8992    0.3600   -1.3002 H   0  0  0  0  0  0  0  0  0  0  0  0
   -0.3029    0.6741   -2.0597 H   0  0  0  0  0  0  0  0  0  0  0  0
   -1.2129   -1.6031    0.6976 H   0  0  0  0  0  0  0  0  0  0  0  0
    1.7896   -1.8283    0.0598 H   0  0  0  0  0  0  0  0  0  0  0  0
    1.0271   -2.0874    1.6479 H   0  0  0  0  0  0  0  0  0  0  0  0
    0.6713   -3.1785    0.2996 H   0  0  0  0  0  0  0  0  0  0  0  0
  1  9  1  0  0  0  0
  1  2  1  0  0  0  0
  1 11  1  0  0  0  0
  2 13  1  0  0  0  0
  3  7  1  1  0  0  0
  3  2  1  0  0  0  0
  3  4  1  0  0  0  0
  5  3  1  0  0  0  0
  6  5  1  0  0  0  0
  6  7  1  0  0  0  0
  7  8  1  0  0  0  0
  7 17  1  1  0  0  0
  8 19  1  0  0  0  0
 10  1  1  0  0  0  0
 12  2  1  0  0  0  0
 14  4  1  0  0  0  0
 15  5  1  0  0  0  0
 16  5  1  0  0  0  0
 18  8  1  0  0  0  0
 20  8  1  0  0  0  0
M  END
