22
title
C -0.29936358 2.2572901 -0.9731045
O 0.03301097 0.88994485 -1.0556747
C 0.28741542 0.24105816 0.17607869
C 1.5591141 0.7633602 0.84453523
C -0.9169519 0.10871898 1.1603901
C -0.5976492 -1.4052984 1.2905896
C 0.2958077 -1.3144122 0.017443966
C -0.36526474 -1.8457831 -1.2502049
H 0.54938304 2.882557 -0.66110253
H -0.60673565 2.570178 -1.9744126
H -1.13376 2.4381135 -0.2791552
H 1.4561824 1.8058757 1.1622655
H 1.7957002 0.1730089 1.735245
H 2.4040902 0.69286186 0.15181114
H -0.89193153 0.7122263 2.071416
H -1.8655502 0.28417218 0.64647746
H -0.032322753 -1.6420616 2.1954944
H -1.447745 -2.08913 1.228342
H 1.2926822 -1.7556883 0.12101615
H -1.375198 -1.4449273 -1.3784952
H 0.20850049 -1.5743598 -2.1403253
H -0.43765008 -2.9380336 -1.2048879
