20
title
C -0.49532565 2.2361724 -0.9741795
O -0.15057218 0.8692833 -1.0458758
C 0.3220996 0.29048762 0.15187474
C 1.6421059 0.89186 0.62169296
C -0.7407906 0.07486722 1.2619282
O -0.5776127 -1.3531786 1.196709
C 0.3208976 -1.2630695 0.061196283
C -0.24840486 -1.9092218 -1.1857066
H 0.38010535 2.8855748 -0.8368885
H -0.96979237 2.4913256 -1.9247991
H -1.209511 2.439925 -0.16236363
H 1.5324078 1.9389948 0.92058986
H 2.018948 0.34010345 1.4876243
H 2.3886297 0.83665866 -0.17730622
H -0.50227475 0.47353956 2.2555547
H -1.75396 0.38841623 0.9785611
H 1.2930732 -1.7096721 0.31065628
H -1.193115 -1.4445125 -1.473535
H 0.45126095 -1.8120219 -2.0219424
H -0.41748005 -2.974008 -0.9971797
