15
title
C -0.28810582 1.6166124 -0.639975
C -0.21580991 0.10046685 -0.58269143
C 1.108423 -0.6014687 -0.80132306
C 0.5109406 -0.59850496 0.58839357
C 1.0878733 0.18145089 1.6417168
C 1.571359 0.8254504 2.5350025
C -1.3944877 -0.581293 -1.0589432
N -2.3444247 -1.1214316 -1.4391565
H 0.6182102 2.052803 -0.21547443
H -0.39142856 1.9548419 -1.6748468
H -1.1440583 1.9871653 -0.06934643
H 1.1108661 -1.5398203 -1.3423821
H 1.9654932 0.038130257 -0.9761762
H 0.05882922 -1.5330869 0.9056097
H 1.9982219 1.3901222 3.326585
