15
title
C -0.28588882 1.611902 -0.62699246
C -0.23161827 0.092533775 -0.60394424
C 1.0975637 -0.59553945 -0.8171426
C 0.48332843 -0.6166586 0.5677995
C 1.0612519 0.16030912 1.6262592
N 1.523801 0.79127705 2.4789793
C -1.4099238 -0.57437646 -1.0932426
C -2.4017344 -1.1143132 -1.5062438
H 0.6276288 2.0430722 -0.21058397
H -0.40187955 1.9657514 -1.6552547
H -1.1341339 1.9770215 -0.04174249
H 1.1119006 -1.5331299 -1.3586799
H 1.9618592 0.04120603 -0.96598923
H 0.039412428 -1.5510042 0.89110154
H -3.2772775 -1.5920296 -1.8711447
