title
 OpenBabel02282109593D

 14 14  0  0  1  0  0  0  0  0999 V2000
   -0.2911    1.6185   -0.6262 C   0  0  0  0  0  0  0  0  0  0  0  0
   -0.2205    0.1012   -0.5894 C   0  0  1  0  0  0  0  0  0  0  0  0
    1.1014   -0.5995   -0.8109 C   0  0  0  0  0  0  0  0  0  0  0  0
    0.4942   -0.6136    0.5752 C   0  0  1  0  0  0  0  0  0  0  0  0
    1.0740    0.1728    1.6271 C   0  0  0  0  0  0  0  0  0  0  0  0
    1.5413    0.8105    2.4714 N   0  0  0  0  0  0  0  0  0  0  0  0
   -1.4006   -0.5765   -1.0726 C   0  0  0  0  0  0  0  0  0  0  0  0
   -2.3487   -1.1115   -1.4628 N   0  0  0  0  0  0  0  0  0  0  0  0
    0.6211    2.0536   -0.2120 H   0  0  0  0  0  0  0  0  0  0  0  0
   -0.4074    1.9652   -1.6565 H   0  0  0  0  0  0  0  0  0  0  0  0
   -1.1397    1.9827   -0.0414 H   0  0  0  0  0  0  0  0  0  0  0  0
    1.1078   -1.5372   -1.3524 H   0  0  0  0  0  0  0  0  0  0  0  0
    1.9624    0.0380   -0.9727 H   0  0  0  0  0  0  0  0  0  0  0  0
    0.0505   -1.5459    0.9057 H   0  0  0  0  0  0  0  0  0  0  0  0
  1  2  1  0  0  0  0
  1  9  1  0  0  0  0
  1 11  1  0  0  0  0
  2  4  1  1  0  0  0
  3  2  1  0  0  0  0
  3  4  1  0  0  0  0
  4 14  1  1  0  0  0
  4  5  1  0  0  0  0
  5  6  3  0  0  0  0
  7  2  1  0  0  0  0
  8  7  3  0  0  0  0
 10  1  1  0  0  0  0
 12  3  1  0  0  0  0
 13  3  1  0  0  0  0
M  END
