title
 OpenBabel02282109593D

 15 15  0  0  1  0  0  0  0  0999 V2000
   -0.2919    1.6220   -0.6554 C   0  0  0  0  0  0  0  0  0  0  0  0
   -0.2586    0.1105   -0.5542 C   0  0  1  0  0  0  0  0  0  0  0  0
    1.0655   -0.5110   -0.7645 N   0  0  0  0  0  0  0  0  0  0  0  0
    0.4693   -0.5735    0.5866 C   0  0  1  0  0  0  0  0  0  0  0  0
    1.1044    0.1655    1.6411 C   0  0  0  0  0  0  0  0  0  0  0  0
    1.6099    0.7720    2.5478 C   0  0  0  0  0  0  0  0  0  0  0  0
   -1.4140   -0.5801   -1.0704 C   0  0  0  0  0  0  0  0  0  0  0  0
   -2.3726   -1.1482   -1.5241 C   0  0  0  0  0  0  0  0  0  0  0  0
    0.6175    2.0444   -0.2255 H   0  0  0  0  0  0  0  0  0  0  0  0
   -0.3614    1.9258   -1.7038 H   0  0  0  0  0  0  0  0  0  0  0  0
   -1.1581    2.0230   -0.1214 H   0  0  0  0  0  0  0  0  0  0  0  0
    0.9549   -1.4146   -1.2195 H   0  0  0  0  0  0  0  0  0  0  0  0
    0.0419   -1.5246    0.8944 H   0  0  0  0  0  0  0  0  0  0  0  0
    2.0646    1.3083    3.3437 H   0  0  0  0  0  0  0  0  0  0  0  0
   -3.2214   -1.6492   -1.9196 H   0  0  0  0  0  0  0  0  0  0  0  0
  1  2  1  0  0  0  0
  1  9  1  0  0  0  0
  1 11  1  0  0  0  0
  2  4  1  1  0  0  0
  3  2  1  0  0  0  0
  3  4  1  0  0  0  0
  4 13  1  1  0  0  0
  4  5  1  0  0  0  0
  5  6  3  0  0  0  0
  6 14  1  0  0  0  0
  7  2  1  0  0  0  0
  8  7  3  0  0  0  0
 10  1  1  0  0  0  0
 12  3  1  0  0  0  0
 15  8  1  0  0  0  0
M  END
