title
 OpenBabel02282109593D

 14 14  0  0  1  0  0  0  0  0999 V2000
   -0.2998    1.6289   -0.6609 C   0  0  0  0  0  0  0  0  0  0  0  0
   -0.2418    0.1206   -0.5469 C   0  0  1  0  0  0  0  0  0  0  0  0
    1.0746   -0.5047   -0.7587 N   0  0  0  0  0  0  0  0  0  0  0  0
    0.4831   -0.5694    0.5917 C   0  0  1  0  0  0  0  0  0  0  0  0
    1.1114    0.1784    1.6436 C   0  0  0  0  0  0  0  0  0  0  0  0
    1.6142    0.7903    2.5475 C   0  0  0  0  0  0  0  0  0  0  0  0
   -1.3999   -0.5867   -1.0523 C   0  0  0  0  0  0  0  0  0  0  0  0
   -2.3173   -1.1522   -1.4731 N   0  0  0  0  0  0  0  0  0  0  0  0
    0.6011    2.0607   -0.2232 H   0  0  0  0  0  0  0  0  0  0  0  0
   -0.3605    1.9260   -1.7114 H   0  0  0  0  0  0  0  0  0  0  0  0
   -1.1751    2.0215   -0.1362 H   0  0  0  0  0  0  0  0  0  0  0  0
    0.9794   -1.4062   -1.2210 H   0  0  0  0  0  0  0  0  0  0  0  0
    0.0569   -1.5209    0.9009 H   0  0  0  0  0  0  0  0  0  0  0  0
    2.0664    1.3305    3.3426 H   0  0  0  0  0  0  0  0  0  0  0  0
  1  2  1  0  0  0  0
  1  9  1  0  0  0  0
  1 11  1  0  0  0  0
  2  4  1  1  0  0  0
  3  2  1  0  0  0  0
  3  4  1  0  0  0  0
  4 13  1  1  0  0  0
  4  5  1  0  0  0  0
  5  6  3  0  0  0  0
  6 14  1  0  0  0  0
  7  2  1  0  0  0  0
  8  7  3  0  0  0  0
 10  1  1  0  0  0  0
 12  3  1  0  0  0  0
M  END
