14
title
C -0.29977715 1.6288626 -0.6608655
C -0.2417957 0.12057032 -0.54690653
N 1.0746456 -0.5046507 -0.7586892
C 0.4830923 -0.56939876 0.59173894
C 1.1113515 0.17839971 1.6436449
C 1.6142472 0.7902541 2.5474553
C -1.399946 -0.58670163 -1.0522554
N -2.317274 -1.1522299 -1.4731145
H 0.6010775 2.0606983 -0.22322635
H -0.36054742 1.9260237 -1.7113566
H -1.17506 2.0215232 -0.13617633
H 0.979388 -1.4061928 -1.2210224
H 0.056867786 -1.5208972 0.90091896
H 2.0664203 1.3304585 3.3426318
