title
 OpenBabel02282109593D

 14 14  0  0  1  0  0  0  0  0999 V2000
   -0.3122    1.6148   -0.6367 C   0  0  0  0  0  0  0  0  0  0  0  0
   -0.2855    0.1073   -0.5157 C   0  0  1  0  0  0  0  0  0  0  0  0
    0.9921   -0.5161   -0.7212 O   0  0  0  0  0  0  0  0  0  0  0  0
    0.4435   -0.5681    0.6016 C   0  0  1  0  0  0  0  0  0  0  0  0
    1.1104    0.1677    1.6406 C   0  0  0  0  0  0  0  0  0  0  0  0
    1.6564    0.7573    2.5348 C   0  0  0  0  0  0  0  0  0  0  0  0
   -1.4109   -0.5896   -1.0964 C   0  0  0  0  0  0  0  0  0  0  0  0
   -2.3609   -1.1420   -1.5829 C   0  0  0  0  0  0  0  0  0  0  0  0
    0.5504    2.0501   -0.1301 H   0  0  0  0  0  0  0  0  0  0  0  0
   -0.2906    1.9015   -1.6919 H   0  0  0  0  0  0  0  0  0  0  0  0
   -1.2286    2.0143   -0.1927 H   0  0  0  0  0  0  0  0  0  0  0  0
    0.0862   -1.5552    0.8918 H   0  0  0  0  0  0  0  0  0  0  0  0
    2.1429    1.2794    3.3217 H   0  0  0  0  0  0  0  0  0  0  0  0
   -3.1954   -1.6381   -2.0142 H   0  0  0  0  0  0  0  0  0  0  0  0
  1  2  1  0  0  0  0
  1 11  1  0  0  0  0
  1  9  1  0  0  0  0
  2  4  1  1  0  0  0
  3  2  1  0  0  0  0
  3  4  1  0  0  0  0
  4 12  1  1  0  0  0
  4  5  1  0  0  0  0
  5  6  3  0  0  0  0
  6 13  1  0  0  0  0
  7  2  1  0  0  0  0
  8  7  3  0  0  0  0
 10  1  1  0  0  0  0
 14  8  1  0  0  0  0
M  END
