title
 OpenBabel02282109593D

 13 13  0  0  1  0  0  0  0  0999 V2000
   -0.3127    1.6232   -0.6424 C   0  0  0  0  0  0  0  0  0  0  0  0
   -0.2661    0.1197   -0.5059 C   0  0  1  0  0  0  0  0  0  0  0  0
    0.9928   -0.5167   -0.7187 O   0  0  0  0  0  0  0  0  0  0  0  0
    0.4527   -0.5649    0.6104 C   0  0  1  0  0  0  0  0  0  0  0  0
    1.1246    0.1744    1.6416 C   0  0  0  0  0  0  0  0  0  0  0  0
    1.6769    0.7658    2.5300 C   0  0  0  0  0  0  0  0  0  0  0  0
   -1.4017   -0.5903   -1.0784 C   0  0  0  0  0  0  0  0  0  0  0  0
   -2.3186   -1.1321   -1.5269 N   0  0  0  0  0  0  0  0  0  0  0  0
    0.5377    2.0675   -0.1235 H   0  0  0  0  0  0  0  0  0  0  0  0
   -0.2754    1.9028   -1.6988 H   0  0  0  0  0  0  0  0  0  0  0  0
   -1.2396    2.0152   -0.2144 H   0  0  0  0  0  0  0  0  0  0  0  0
    0.0905   -1.5498    0.9015 H   0  0  0  0  0  0  0  0  0  0  0  0
    2.1693    1.2891    3.3130 H   0  0  0  0  0  0  0  0  0  0  0  0
  1  2  1  0  0  0  0
  1 11  1  0  0  0  0
  1  9  1  0  0  0  0
  2  4  1  1  0  0  0
  3  2  1  0  0  0  0
  3  4  1  0  0  0  0
  4 12  1  1  0  0  0
  4  5  1  0  0  0  0
  5  6  3  0  0  0  0
  6 13  1  0  0  0  0
  7  2  1  0  0  0  0
  8  7  3  0  0  0  0
 10  1  1  0  0  0  0
M  END
