13
title
C -0.31265524 1.6232104 -0.64236635
C -0.26608935 0.11974391 -0.50591934
O 0.99279076 -0.5166685 -0.7187496
C 0.45273036 -0.5649241 0.61041915
C 1.1245553 0.17440745 1.6416278
C 1.6769083 0.76583964 2.5299695
C -1.4016526 -0.5902883 -1.0784336
N -2.3185506 -1.1320862 -1.5269293
H 0.5376638 2.0675323 -0.12347567
H -0.27540132 1.9027768 -1.6987547
H -1.2396165 2.0152075 -0.21437311
H 0.09050184 -1.5497831 0.9014735
H 2.169297 1.2890991 3.3130076
