12
title
C -0.3121518 1.6285291 -0.62107337
C -0.2770691 0.1230297 -0.50943655
O 0.97846687 -0.5224421 -0.7314232
C 0.44137543 -0.5892171 0.5868483
C 1.127759 0.15734966 1.6183243
N 1.6607546 0.7441501 2.4588573
C -1.4182168 -0.5752656 -1.0843161
N -2.3388643 -1.1048409 -1.5385444
H 0.55604976 2.0633576 -0.12314838
H -0.30284223 1.9200724 -1.6745867
H -1.2236495 2.020688 -0.16186306
H 0.08577138 -1.5701427 0.89528114
