title
 OpenBabel02282109593D

 14 14  0  0  1  0  0  0  0  0999 V2000
    0.5925    1.5295    0.1406 N   0  0  0  0  0  0  0  0  0  0  0  0
    0.6060    0.0950    0.1103 C   0  0  1  0  0  0  0  0  0  0  0  0
    0.1544   -0.6115    1.3706 C   0  0  0  0  0  0  0  0  0  0  0  0
   -0.7614   -0.6155    0.1686 C   0  0  1  0  0  0  0  0  0  0  0  0
   -1.9665    0.1556    0.1321 C   0  0  0  0  0  0  0  0  0  0  0  0
   -2.9984    0.7695    0.0760 C   0  0  0  0  0  0  0  0  0  0  0  0
    1.6187   -0.5517   -0.7003 C   0  0  0  0  0  0  0  0  0  0  0  0
    2.4416   -1.0284   -1.3602 N   0  0  0  0  0  0  0  0  0  0  0  0
    1.4860    1.8902    0.4599 H   0  0  0  0  0  0  0  0  0  0  0  0
    0.4130    1.9118   -0.7825 H   0  0  0  0  0  0  0  0  0  0  0  0
    0.6345   -1.5443    1.6395 H   0  0  0  0  0  0  0  0  0  0  0  0
   -0.1096    0.0473    2.1880 H   0  0  0  0  0  0  0  0  0  0  0  0
   -0.7978   -1.5496   -0.3838 H   0  0  0  0  0  0  0  0  0  0  0  0
   -3.9053    1.3203    0.0354 H   0  0  0  0  0  0  0  0  0  0  0  0
  1  9  1  0  0  0  0
  2  1  1  0  0  0  0
  2  4  1  6  0  0  0
  2  3  1  0  0  0  0
  3 11  1  0  0  0  0
  3 12  1  0  0  0  0
  4 13  1  6  0  0  0
  4  3  1  0  0  0  0
  5  4  1  0  0  0  0
  6  5  3  0  0  0  0
  7  2  1  0  0  0  0
  8  7  3  0  0  0  0
 10  1  1  0  0  0  0
 14  6  1  0  0  0  0
M  END
