13
title
O 0.5683069 1.459383 0.04761126
C 0.5892488 0.072621495 0.10450318
C 0.12634018 -0.62560695 1.364734
C -0.778054 -0.61438644 0.14539135
C -1.9669724 0.18216886 0.11634465
C -2.9830441 0.8225696 0.08276543
C 1.62433 -0.5604427 -0.68769205
N 2.466528 -1.0555711 -1.3067532
H 1.3370353 1.7961847 0.5228803
H 0.5932808 -1.5623823 1.6440982
H -0.14866334 0.033989977 2.1790614
H -0.8295759 -1.5456215 -0.41020527
H -3.8746104 1.398446 0.049298424
