13
title
O 0.5434256 1.4518483 0.01852617
C 0.61899084 0.06236245 0.09118548
C 0.15831845 -0.60214573 1.3690864
C -0.7427255 -0.6302144 0.14474751
C -1.9374244 0.16519561 0.114931844
N -2.9166925 0.7793058 0.08764265
C 1.6604396 -0.558168 -0.6876554
C 2.5538943 -1.0524913 -1.3220545
H 1.3561645 1.8157264 0.38830122
H 0.616848 -1.5358367 1.6706964
H -0.13204168 0.070282005 2.1673129
H -0.81511784 -1.5692602 -0.3915585
H 3.3357542 -1.4887984 -1.8939973
