12
title
O 0.5522 1.4568492 0.027764995
C 0.6009939 0.07438687 0.10227578
C 0.13870451 -0.61603886 1.3649805
C -0.7560975 -0.6255825 0.13867554
C -1.9455491 0.1791835 0.11169911
N -2.9192147 0.8013845 0.09068536
C 1.6439917 -0.5576861 -0.682636
N 2.4939177 -1.0506166 -1.2917536
H 1.3079801 1.8221445 0.50330615
H 0.6028276 -1.5516312 1.6517993
H -0.14909211 0.04458602 2.1738877
H -0.8277245 -1.5564576 -0.41249755
