16
title
C -0.24157415 1.51623 -0.5830394
C -0.1628642 0.008707139 -0.54004997
C 1.1476874 -0.7054333 -0.8067671
C 0.60531276 -0.71368784 0.5963224
C 1.220138 0.048706844 1.6402892
C 1.7319336 0.67908967 2.5276892
C -1.3839275 -0.7212015 -0.9734496
O -2.4024541 -0.19366686 -1.3431438
H 0.6630422 1.969028 -0.17274466
H -0.3729972 1.8586334 -1.613523
H -1.0993292 1.8718493 -0.0060257297
H 1.1268616 -1.6405089 -1.3570065
H 2.0050397 -0.07462567 -1.0089351
H 0.16125128 -1.6508425 0.9228673
H 2.1848395 1.2341129 3.3114998
H -1.2914213 -1.8332148 -0.93272513
