title
 OpenBabel02282109593D

 15 15  0  0  1  0  0  0  0  0999 V2000
   -0.2558    1.5198   -0.5608 C   0  0  0  0  0  0  0  0  0  0  0  0
   -0.1833    0.0109   -0.5370 C   0  0  1  0  0  0  0  0  0  0  0  0
    1.1151   -0.7066   -0.8380 C   0  0  0  0  0  0  0  0  0  0  0  0
    0.5941   -0.7279    0.5746 C   0  0  1  0  0  0  0  0  0  0  0  0
    1.2421    0.0368    1.6013 C   0  0  0  0  0  0  0  0  0  0  0  0
    1.7631    0.6541    2.4293 N   0  0  0  0  0  0  0  0  0  0  0  0
   -1.4194   -0.7116   -0.9593 C   0  0  0  0  0  0  0  0  0  0  0  0
   -2.4290   -0.1698   -1.3259 O   0  0  0  0  0  0  0  0  0  0  0  0
    0.6672    1.9686   -0.1877 H   0  0  0  0  0  0  0  0  0  0  0  0
   -0.4289    1.8683   -1.5825 H   0  0  0  0  0  0  0  0  0  0  0  0
   -1.0868    1.8739    0.0545 H   0  0  0  0  0  0  0  0  0  0  0  0
    1.0809   -1.6419   -1.3865 H   0  0  0  0  0  0  0  0  0  0  0  0
    1.9756   -0.0830   -1.0482 H   0  0  0  0  0  0  0  0  0  0  0  0
    0.1636   -1.6612    0.9250 H   0  0  0  0  0  0  0  0  0  0  0  0
   -1.3391   -1.8240   -0.9167 H   0  0  0  0  0  0  0  0  0  0  0  0
  1  2  1  0  0  0  0
  1  9  1  0  0  0  0
  1 11  1  0  0  0  0
  2  4  1  1  0  0  0
  3  2  1  0  0  0  0
  3  4  1  0  0  0  0
  4 14  1  1  0  0  0
  4  5  1  0  0  0  0
  5  6  3  0  0  0  0
  7 15  1  0  0  0  0
  7  2  1  0  0  0  0
  8  7  2  0  0  0  0
 10  1  1  0  0  0  0
 12  3  1  0  0  0  0
 13  3  1  0  0  0  0
M  END
