15
title
C -0.25580522 1.519827 -0.56082636
C -0.1833288 0.010884107 -0.53698474
C 1.1150839 -0.706558 -0.83802766
C 0.59411377 -0.7279493 0.57459444
C 1.2421147 0.036786977 1.6012647
N 1.7630634 0.6541344 2.4293258
C -1.4193636 -0.71161884 -0.9592562
O -2.4290118 -0.16984355 -1.3259325
H 0.6671689 1.9686133 -0.18769589
H -0.42887962 1.868348 -1.5825156
H -1.0868341 1.8738704 0.05446383
H 1.0808991 -1.6418558 -1.3865242
H 1.9756402 -0.08297618 -1.0481714
H 0.16358884 -1.6611958 0.92502624
H -1.339111 -1.8240415 -0.91668046
