14
title
C -0.20941234 1.5455363 -0.5775229
C -0.18798818 0.044790767 -0.4830696
O 1.0592802 -0.630642 -0.69939363
C 0.51470727 -0.6866713 0.6189336
C 1.1939789 0.016463337 1.6710769
C 1.7493553 0.5769969 2.577626
C -1.3493608 -0.6997423 -1.0814329
O -2.3782072 -0.18036133 -1.4261374
H 0.6069307 1.9830283 -0.001962887
H -0.11658166 1.8541209 -1.6227777
H -1.1640098 1.9235471 -0.2029954
H 0.13627864 -1.6711067 0.8968285
H 2.2457168 1.0738382 3.3749263
H -1.1653516 -1.7924094 -1.1850344
