title
 OpenBabel02282109593D

 13 13  0  0  1  0  0  0  0  0999 V2000
   -0.2002    1.5552   -0.5399 C   0  0  0  0  0  0  0  0  0  0  0  0
   -0.1995    0.0529   -0.4833 C   0  0  1  0  0  0  0  0  0  0  0  0
    1.0400   -0.6366   -0.7124 O   0  0  0  0  0  0  0  0  0  0  0  0
    0.4922   -0.7184    0.5937 C   0  0  1  0  0  0  0  0  0  0  0  0
    1.1895   -0.0233    1.6530 C   0  0  0  0  0  0  0  0  0  0  0  0
    1.7315    0.5183    2.5180 N   0  0  0  0  0  0  0  0  0  0  0  0
   -1.3713   -0.6655   -1.1041 C   0  0  0  0  0  0  0  0  0  0  0  0
   -2.3800   -0.1150   -1.4537 O   0  0  0  0  0  0  0  0  0  0  0  0
    0.6476    1.9712    0.0063 H   0  0  0  0  0  0  0  0  0  0  0  0
   -0.1500    1.8848   -1.5812 H   0  0  0  0  0  0  0  0  0  0  0  0
   -1.1306    1.9388   -0.1142 H   0  0  0  0  0  0  0  0  0  0  0  0
    0.1134   -1.6995    0.8780 H   0  0  0  0  0  0  0  0  0  0  0  0
   -1.2098   -1.7598   -1.2204 H   0  0  0  0  0  0  0  0  0  0  0  0
  1  2  1  0  0  0  0
  1 11  1  0  0  0  0
  1  9  1  0  0  0  0
  2  4  1  1  0  0  0
  3  2  1  0  0  0  0
  3  4  1  0  0  0  0
  4 12  1  1  0  0  0
  4  5  1  0  0  0  0
  5  6  3  0  0  0  0
  7  2  1  0  0  0  0
  8  7  2  0  0  0  0
 10  1  1  0  0  0  0
 13  7  1  0  0  0  0
M  END
