13
title
C -0.20016629 1.55515 -0.53985226
C -0.1994857 0.052948486 -0.4833174
O 1.0400165 -0.63664067 -0.7124483
C 0.49216077 -0.71839726 0.5937423
C 1.1895276 -0.023315327 1.6529919
N 1.7315329 0.5182866 2.5180264
C -1.3712974 -0.66553855 -1.1041381
O -2.3799827 -0.11504908 -1.4537311
H 0.6475558 1.9712108 0.0063024387
H -0.15003058 1.8847724 -1.5811917
H -1.1306154 1.938849 -0.11417393
H 0.11336925 -1.6994679 0.8780028
H -1.2097899 -1.759783 -1.2204113
