14
title
O 0.5862377 1.3291024 0.22078043
C 0.5543648 -0.045157135 0.19192377
C 0.07812477 -0.7690752 1.4160826
C -0.8278187 -0.7818998 0.20536798
C -2.0162983 0.0077592875 0.15882988
C -3.022703 0.6632945 0.10303586
C 1.5600586 -0.6592265 -0.70123625
O 2.2779667 0.015833884 -1.4037819
H 1.1475343 1.5861909 -0.52795696
H 0.5605931 -1.6981176 1.7007099
H -0.21027541 -0.121989384 2.2357879
H -0.8652038 -1.7138488 -0.35238823
H -3.9085083 1.246909 0.058097932
H 1.5965675 -1.767945 -0.7098052
