title
 OpenBabel02282109593D

 16 16  0  0  1  0  0  0  0  0999 V2000
   -0.2365    1.7214   -0.8187 C   0  0  0  0  0  0  0  0  0  0  0  0
   -0.1802    0.2014   -0.7284 C   0  0  1  0  0  0  0  0  0  0  0  0
    1.1384   -0.5071   -0.8831 C   0  0  0  0  0  0  0  0  0  0  0  0
    0.4848   -0.5004    0.4847 C   0  0  1  0  0  0  0  0  0  0  0  0
    1.0877    0.2850    1.5865 C   0  0  0  0  0  0  0  0  0  0  0  0
    0.9996   -0.0132    2.7522 O   0  0  0  0  0  0  0  0  0  0  0  0
   -1.3533   -0.4641   -1.2330 C   0  0  0  0  0  0  0  0  0  0  0  0
   -2.3443   -0.9953   -1.6598 C   0  0  0  0  0  0  0  0  0  0  0  0
    0.6997    2.1830   -0.4970 H   0  0  0  0  0  0  0  0  0  0  0  0
   -0.4207    2.0203   -1.8547 H   0  0  0  0  0  0  0  0  0  0  0  0
   -1.0477    2.1205   -0.2031 H   0  0  0  0  0  0  0  0  0  0  0  0
    1.1655   -1.4498   -1.4153 H   0  0  0  0  0  0  0  0  0  0  0  0
    2.0159    0.1186   -1.0149 H   0  0  0  0  0  0  0  0  0  0  0  0
    0.0012   -1.4123    0.8143 H   0  0  0  0  0  0  0  0  0  0  0  0
    1.6614    1.1851    1.2695 H   0  0  0  0  0  0  0  0  0  0  0  0
   -3.2176   -1.4694   -2.0342 H   0  0  0  0  0  0  0  0  0  0  0  0
  1  2  1  0  0  0  0
  1  9  1  0  0  0  0
  1 11  1  0  0  0  0
  2  4  1  1  0  0  0
  3  2  1  0  0  0  0
  3  4  1  0  0  0  0
  4 14  1  1  0  0  0
  4  5  1  0  0  0  0
  5  6  2  0  0  0  0
  7  2  1  0  0  0  0
  8  7  3  0  0  0  0
 10  1  1  0  0  0  0
 12  3  1  0  0  0  0
 13  3  1  0  0  0  0
 15  5  1  0  0  0  0
 16  8  1  0  0  0  0
M  END
