title
 OpenBabel02282109593D

 15 15  0  0  1  0  0  0  0  0999 V2000
   -0.2418    1.7303   -0.8164 C   0  0  0  0  0  0  0  0  0  0  0  0
   -0.1731    0.2125   -0.7122 C   0  0  1  0  0  0  0  0  0  0  0  0
    1.1378   -0.5111   -0.8760 C   0  0  0  0  0  0  0  0  0  0  0  0
    0.4899   -0.4958    0.4917 C   0  0  1  0  0  0  0  0  0  0  0  0
    1.1023    0.2934    1.5926 C   0  0  0  0  0  0  0  0  0  0  0  0
    1.0265   -0.0152    2.7543 O   0  0  0  0  0  0  0  0  0  0  0  0
   -1.3477   -0.4616   -1.2144 C   0  0  0  0  0  0  0  0  0  0  0  0
   -2.2943   -0.9863   -1.6225 N   0  0  0  0  0  0  0  0  0  0  0  0
    0.6969    2.1921   -0.5047 H   0  0  0  0  0  0  0  0  0  0  0  0
   -0.4324    2.0224   -1.8528 H   0  0  0  0  0  0  0  0  0  0  0  0
   -1.0476    2.1317   -0.1959 H   0  0  0  0  0  0  0  0  0  0  0  0
    1.1552   -1.4530   -1.4099 H   0  0  0  0  0  0  0  0  0  0  0  0
    2.0129    0.1145   -1.0213 H   0  0  0  0  0  0  0  0  0  0  0  0
    0.0060   -1.4053    0.8283 H   0  0  0  0  0  0  0  0  0  0  0  0
    1.6697    1.1960    1.2738 H   0  0  0  0  0  0  0  0  0  0  0  0
  1  2  1  0  0  0  0
  1  9  1  0  0  0  0
  1 11  1  0  0  0  0
  2  4  1  1  0  0  0
  3  2  1  0  0  0  0
  3  4  1  0  0  0  0
  4 14  1  1  0  0  0
  4  5  1  0  0  0  0
  5  6  2  0  0  0  0
  7  2  1  0  0  0  0
  8  7  3  0  0  0  0
 10  1  1  0  0  0  0
 12  3  1  0  0  0  0
 13  3  1  0  0  0  0
 15  5  1  0  0  0  0
M  END
