15
title
C -0.2417939 1.7302759 -0.81641203
C -0.1731139 0.21252868 -0.7121827
C 1.1377698 -0.51106733 -0.87603104
C 0.48994648 -0.49581388 0.491652
C 1.1023191 0.29341936 1.5925703
O 1.026534 -0.015232391 2.75431
C -1.3477014 -0.46158472 -1.2144209
N -2.2943234 -0.9862648 -1.6224676
H 0.6969023 2.1920521 -0.5046644
H -0.43235028 2.0224497 -1.8528252
H -1.0475587 2.131719 -0.19585201
H 1.1552434 -1.4530101 -1.4099491
H 2.012893 0.11445819 -1.0213318
H 0.0059664543 -1.4052974 0.8283243
H 1.6697348 1.1960132 1.2738332
