15
title
C -0.53876007 1.750306 -0.5556135
C -0.3436283 0.24490196 -0.60844505
N 0.9695501 -0.22813655 -1.0655354
C 0.600401 -0.4856862 0.33532315
C 1.3902464 0.23981208 1.3722866
O 1.4398441 -0.105821416 2.5257351
C -1.5076432 -0.5058284 -1.0119301
C -2.480591 -1.112883 -1.3745245
H 0.40211424 2.2555685 -0.33264148
H -0.8986407 2.1092663 -1.5240365
H -1.2788223 2.017232 0.20395972
H 0.87364155 -1.0792803 -1.6134654
H 0.2881007 -1.4824336 0.63404924
H 1.9449723 1.1256615 0.99637216
H -3.340463 -1.6527214 -1.6868253
