title
 OpenBabel02282109593D

 15 15  0  0  1  0  0  0  0  0999 V2000
   -0.5388    1.7503   -0.5556 C   0  0  0  0  0  0  0  0  0  0  0  0
   -0.3436    0.2449   -0.6084 C   0  0  1  0  0  0  0  0  0  0  0  0
    0.9696   -0.2281   -1.0655 N   0  0  0  0  0  0  0  0  0  0  0  0
    0.6004   -0.4857    0.3353 C   0  0  1  0  0  0  0  0  0  0  0  0
    1.3902    0.2398    1.3723 C   0  0  0  0  0  0  0  0  0  0  0  0
    1.4398   -0.1058    2.5257 O   0  0  0  0  0  0  0  0  0  0  0  0
   -1.5076   -0.5058   -1.0119 C   0  0  0  0  0  0  0  0  0  0  0  0
   -2.4806   -1.1129   -1.3745 C   0  0  0  0  0  0  0  0  0  0  0  0
    0.4021    2.2556   -0.3326 H   0  0  0  0  0  0  0  0  0  0  0  0
   -0.8986    2.1093   -1.5240 H   0  0  0  0  0  0  0  0  0  0  0  0
   -1.2788    2.0172    0.2040 H   0  0  0  0  0  0  0  0  0  0  0  0
    0.8736   -1.0793   -1.6135 H   0  0  0  0  0  0  0  0  0  0  0  0
    0.2881   -1.4824    0.6340 H   0  0  0  0  0  0  0  0  0  0  0  0
    1.9450    1.1257    0.9964 H   0  0  0  0  0  0  0  0  0  0  0  0
   -3.3405   -1.6527   -1.6868 H   0  0  0  0  0  0  0  0  0  0  0  0
  1  9  1  0  0  0  0
  1 11  1  0  0  0  0
  2  1  1  0  0  0  0
  2  4  1  1  0  0  0
  3  2  1  0  0  0  0
  3  4  1  0  0  0  0
  4 13  1  1  0  0  0
  4  5  1  0  0  0  0
  5  6  2  0  0  0  0
  7  2  1  0  0  0  0
  8  7  3  0  0  0  0
 10  1  1  0  0  0  0
 12  3  1  0  0  0  0
 14  5  1  0  0  0  0
 15  8  1  0  0  0  0
M  END
