title
 OpenBabel02282109593D

 14 14  0  0  1  0  0  0  0  0999 V2000
   -0.5546    1.7567   -0.5531 C   0  0  0  0  0  0  0  0  0  0  0  0
   -0.3348    0.2559   -0.5962 C   0  0  1  0  0  0  0  0  0  0  0  0
    0.9663   -0.2234   -1.0684 N   0  0  0  0  0  0  0  0  0  0  0  0
    0.6139   -0.4803    0.3336 C   0  0  1  0  0  0  0  0  0  0  0  0
    1.4135    0.2528    1.3648 C   0  0  0  0  0  0  0  0  0  0  0  0
    1.4736   -0.0973    2.5144 O   0  0  0  0  0  0  0  0  0  0  0  0
   -1.5024   -0.5124   -0.9819 C   0  0  0  0  0  0  0  0  0  0  0  0
   -2.4317   -1.1159   -1.3135 N   0  0  0  0  0  0  0  0  0  0  0  0
    0.3837    2.2702   -0.3406 H   0  0  0  0  0  0  0  0  0  0  0  0
   -0.9246    2.1067   -1.5208 H   0  0  0  0  0  0  0  0  0  0  0  0
   -1.2900    2.0189    0.2122 H   0  0  0  0  0  0  0  0  0  0  0  0
    0.8777   -1.0695   -1.6254 H   0  0  0  0  0  0  0  0  0  0  0  0
    0.3071   -1.4773    0.6384 H   0  0  0  0  0  0  0  0  0  0  0  0
    1.9616    1.1396    0.9831 H   0  0  0  0  0  0  0  0  0  0  0  0
  1  9  1  0  0  0  0
  1 11  1  0  0  0  0
  2  1  1  0  0  0  0
  2  4  1  1  0  0  0
  3  2  1  0  0  0  0
  3  4  1  0  0  0  0
  4 13  1  1  0  0  0
  4  5  1  0  0  0  0
  5  6  2  0  0  0  0
  7  2  1  0  0  0  0
  8  7  3  0  0  0  0
 10  1  1  0  0  0  0
 12  3  1  0  0  0  0
 14  5  1  0  0  0  0
M  END
