13
title
C -0.225914 1.6078298 -0.5697124
C -0.34072474 0.1061326 -0.45098245
O 0.8366836 -0.65820116 -0.6666503
C 0.29961392 -0.69204676 0.6478205
C 1.0685123 -0.018351505 1.7488757
O 1.9356487 0.7974904 1.5767363
C -1.5495727 -0.47075373 -1.0253055
N -2.5233328 -0.9009031 -1.4747789
H 0.69917244 1.9447389 -0.10257711
H -0.21614031 1.887558 -1.6268654
H -1.0821849 2.0954578 -0.09530764
H -0.18133521 -1.629454 0.928452
H 0.75571674 -0.33909798 2.765896
