16
title
C -0.20215045 1.6243643 -0.7472629
C -0.13688372 0.11431311 -0.65693545
C 1.1527345 -0.63278043 -0.88417363
C 0.5771016 -0.61615527 0.50732756
C 1.2472687 0.16418092 1.5777133
O 1.206097 -0.12974633 2.7457616
C -1.3669337 -0.60032743 -1.1078653
O -2.355185 -0.052065924 -1.5234668
H 0.7589666 2.0912452 -0.5231194
H -0.4973901 1.915447 -1.758836
H -0.9524784 2.0260406 -0.060784187
H 1.1316912 -1.5755111 -1.4205837
H 2.0325875 -0.026180653 -1.0730593
H 0.10141861 -1.5221027 0.87016165
H 1.8218687 1.0496279 1.2264351
H -1.3047667 -1.7114614 -1.0367134
