title
 OpenBabel02282109593D

 16 16  0  0  1  0  0  0  0  0999 V2000
   -0.2022    1.6244   -0.7473 C   0  0  0  0  0  0  0  0  0  0  0  0
   -0.1369    0.1143   -0.6569 C   0  0  1  0  0  0  0  0  0  0  0  0
    1.1527   -0.6328   -0.8842 C   0  0  0  0  0  0  0  0  0  0  0  0
    0.5771   -0.6162    0.5073 C   0  0  1  0  0  0  0  0  0  0  0  0
    1.2473    0.1642    1.5777 C   0  0  0  0  0  0  0  0  0  0  0  0
    1.2061   -0.1297    2.7458 O   0  0  0  0  0  0  0  0  0  0  0  0
   -1.3669   -0.6003   -1.1079 C   0  0  0  0  0  0  0  0  0  0  0  0
   -2.3552   -0.0521   -1.5235 O   0  0  0  0  0  0  0  0  0  0  0  0
    0.7590    2.0912   -0.5231 H   0  0  0  0  0  0  0  0  0  0  0  0
   -0.4974    1.9154   -1.7588 H   0  0  0  0  0  0  0  0  0  0  0  0
   -0.9525    2.0260   -0.0608 H   0  0  0  0  0  0  0  0  0  0  0  0
    1.1317   -1.5755   -1.4206 H   0  0  0  0  0  0  0  0  0  0  0  0
    2.0326   -0.0262   -1.0731 H   0  0  0  0  0  0  0  0  0  0  0  0
    0.1014   -1.5221    0.8702 H   0  0  0  0  0  0  0  0  0  0  0  0
    1.8219    1.0496    1.2264 H   0  0  0  0  0  0  0  0  0  0  0  0
   -1.3048   -1.7115   -1.0367 H   0  0  0  0  0  0  0  0  0  0  0  0
  1  2  1  0  0  0  0
  1  9  1  0  0  0  0
  1 11  1  0  0  0  0
  2  4  1  1  0  0  0
  3  2  1  0  0  0  0
  3  4  1  0  0  0  0
  4 14  1  1  0  0  0
  4  5  1  0  0  0  0
  5  6  2  0  0  0  0
  7 16  1  0  0  0  0
  7  2  1  0  0  0  0
  8  7  2  0  0  0  0
 10  1  1  0  0  0  0
 12  3  1  0  0  0  0
 13  3  1  0  0  0  0
 15  5  1  0  0  0  0
M  END
