title
 OpenBabel02282109593D

 15 15  0  0  1  0  0  0  0  0999 V2000
   -0.4210    1.6640   -0.5479 C   0  0  0  0  0  0  0  0  0  0  0  0
   -0.2369    0.1657   -0.5834 C   0  0  1  0  0  0  0  0  0  0  0  0
    1.0536   -0.3702   -1.0326 N   0  0  0  0  0  0  0  0  0  0  0  0
    0.6783   -0.5984    0.3598 C   0  0  1  0  0  0  0  0  0  0  0  0
    1.4773    0.1252    1.3955 C   0  0  0  0  0  0  0  0  0  0  0  0
    1.5121   -0.2122    2.5505 O   0  0  0  0  0  0  0  0  0  0  0  0
   -1.4388   -0.6354   -0.9774 C   0  0  0  0  0  0  0  0  0  0  0  0
   -2.5201   -0.1675   -1.2180 O   0  0  0  0  0  0  0  0  0  0  0  0
    0.5290    2.1737   -0.3841 H   0  0  0  0  0  0  0  0  0  0  0  0
   -0.8393    2.0044   -1.4989 H   0  0  0  0  0  0  0  0  0  0  0  0
   -1.1229    1.9466    0.2411 H   0  0  0  0  0  0  0  0  0  0  0  0
    0.9392   -1.2227   -1.5792 H   0  0  0  0  0  0  0  0  0  0  0  0
    0.3447   -1.5861    0.6738 H   0  0  0  0  0  0  0  0  0  0  0  0
    2.0486    0.9957    1.0115 H   0  0  0  0  0  0  0  0  0  0  0  0
   -1.2420   -1.7327   -1.0522 H   0  0  0  0  0  0  0  0  0  0  0  0
  1  9  1  0  0  0  0
  1 11  1  0  0  0  0
  2  1  1  0  0  0  0
  2  4  1  1  0  0  0
  3  2  1  0  0  0  0
  3  4  1  0  0  0  0
  4 13  1  1  0  0  0
  4  5  1  0  0  0  0
  5  6  2  0  0  0  0
  7  2  1  0  0  0  0
  8  7  2  0  0  0  0
 10  1  1  0  0  0  0
 12  3  1  0  0  0  0
 14  5  1  0  0  0  0
 15  7  1  0  0  0  0
M  END
