title
 OpenBabel02282109593D

 14 14  0  0  1  0  0  0  0  0999 V2000
   -0.1354    1.5341   -0.4944 C   0  0  0  0  0  0  0  0  0  0  0  0
   -0.2675    0.0372   -0.4393 C   0  0  1  0  0  0  0  0  0  0  0  0
    0.9004   -0.7555   -0.6541 O   0  0  0  0  0  0  0  0  0  0  0  0
    0.3408   -0.8159    0.6416 C   0  0  1  0  0  0  0  0  0  0  0  0
    1.0877   -0.1877    1.7813 C   0  0  0  0  0  0  0  0  0  0  0  0
    1.9954    0.5928    1.6630 O   0  0  0  0  0  0  0  0  0  0  0  0
   -1.4949   -0.5735   -1.0641 C   0  0  0  0  0  0  0  0  0  0  0  0
   -2.4685    0.0548   -1.3843 O   0  0  0  0  0  0  0  0  0  0  0  0
    0.7613    1.8640    0.0291 H   0  0  0  0  0  0  0  0  0  0  0  0
   -0.0755    1.8534   -1.5391 H   0  0  0  0  0  0  0  0  0  0  0  0
   -1.0214    2.0018   -0.0578 H   0  0  0  0  0  0  0  0  0  0  0  0
   -0.1562   -1.7559    0.8921 H   0  0  0  0  0  0  0  0  0  0  0  0
    0.7150   -0.5090    2.7788 H   0  0  0  0  0  0  0  0  0  0  0  0
   -1.4124   -1.6734   -1.2108 H   0  0  0  0  0  0  0  0  0  0  0  0
  1  2  1  0  0  0  0
  1 11  1  0  0  0  0
  1  9  1  0  0  0  0
  2  4  1  1  0  0  0
  3  2  1  0  0  0  0
  3  4  1  0  0  0  0
  4 12  1  1  0  0  0
  4  5  1  0  0  0  0
  5 13  1  0  0  0  0
  6  5  2  0  0  0  0
  7  2  1  0  0  0  0
  8  7  2  0  0  0  0
 10  1  1  0  0  0  0
 14  7  1  0  0  0  0
M  END
