14
title
C -0.13540676 1.5341375 -0.4944399
C -0.26748663 0.03720433 -0.43925986
O 0.90040505 -0.7554835 -0.6540972
C 0.34078026 -0.81585264 0.64160687
C 1.0876881 -0.1876901 1.7813087
O 1.9953694 0.59277683 1.6630068
C -1.494904 -0.57350814 -1.0641141
O -2.4684992 0.05479512 -1.3842702
H 0.76126325 1.8639832 0.029066717
H -0.07550631 1.8533535 -1.5390605
H -1.0214223 2.001768 -0.05780267
H -0.15621512 -1.7559277 0.89212805
H 0.7149651 -0.5090244 2.7787933
H -1.4124343 -1.6733515 -1.2107654
