title
 OpenBabel02282109593D

 14 14  0  0  1  0  0  0  0  0999 V2000
    0.6810    1.4130    0.3112 O   0  0  0  0  0  0  0  0  0  0  0  0
    0.6292    0.0343    0.2708 C   0  0  1  0  0  0  0  0  0  0  0  0
    0.1007   -0.6939    1.4628 C   0  0  0  0  0  0  0  0  0  0  0  0
   -0.7539   -0.6762    0.2127 C   0  0  1  0  0  0  0  0  0  0  0  0
   -1.9618    0.1882    0.1691 C   0  0  0  0  0  0  0  0  0  0  0  0
   -2.9425   -0.0751   -0.4806 O   0  0  0  0  0  0  0  0  0  0  0  0
    1.6803   -0.5825   -0.5727 C   0  0  0  0  0  0  0  0  0  0  0  0
    2.4505    0.0996   -1.2083 O   0  0  0  0  0  0  0  0  0  0  0  0
    1.3262    1.6602   -0.3713 H   0  0  0  0  0  0  0  0  0  0  0  0
    0.5490   -1.6369    1.7556 H   0  0  0  0  0  0  0  0  0  0  0  0
   -0.2093   -0.0547    2.2831 H   0  0  0  0  0  0  0  0  0  0  0  0
   -0.8306   -1.5854   -0.3741 H   0  0  0  0  0  0  0  0  0  0  0  0
   -1.8991    1.1062    0.7892 H   0  0  0  0  0  0  0  0  0  0  0  0
    1.7038   -1.6901   -0.5998 H   0  0  0  0  0  0  0  0  0  0  0  0
  2  4  1  6  0  0  0
  2  1  1  0  0  0  0
  2  3  1  0  0  0  0
  3 10  1  0  0  0  0
  3 11  1  0  0  0  0
  4 12  1  6  0  0  0
  4  3  1  0  0  0  0
  5  4  1  0  0  0  0
  5 13  1  0  0  0  0
  6  5  2  0  0  0  0
  7  2  1  0  0  0  0
  8  7  2  0  0  0  0
  9  1  1  0  0  0  0
 14  7  1  0  0  0  0
M  END
