14
title
O 0.6810405 1.4129719 0.31118217
C 0.62919223 0.034301586 0.27082977
C 0.10072649 -0.6938816 1.4627917
C -0.75387037 -0.6761686 0.2127478
C -1.9617807 0.18816453 0.16912235
O -2.9425292 -0.07506389 -0.4806132
C 1.680297 -0.58251494 -0.5726539
O 2.450465 0.09958572 -1.2082591
H 1.3261867 1.6602095 -0.37132475
H 0.5489937 -1.6368536 1.7556357
H -0.20926744 -0.05469884 2.2830853
H -0.830587 -1.5854276 -0.37406322
H -1.8990921 1.1062311 0.78919864
H 1.7038009 -1.6900972 -0.5997526
