17
title
C -0.62394184 1.8266348 0.045254868
C -0.38125345 0.39781272 -0.38304332
C -1.5669272 -0.24757876 -1.0811027
O -1.190742 -1.5359551 -1.5424578
N 0.9595345 0.09962355 -0.8882519
C 0.5256794 -0.4987322 0.40721318
C 1.1936119 -0.07214512 1.6050866
C 1.731402 0.26180002 2.6277952
H 0.24892446 2.2190328 0.5686042
H -0.81666243 2.4611712 -0.82690436
H -1.4878944 1.894793 0.71588606
H -2.4153206 -0.3025879 -0.38130805
H -1.8723596 0.39650527 -1.921749
H -1.9300251 -1.9202336 -2.0207696
H 0.88472474 -0.6312742 -1.5944476
H 0.26856473 -1.5540285 0.3787569
H 2.2172365 0.55812395 3.524046
