title
 OpenBabel02282109593D

 20 20  0  0  1  0  0  0  0  0999 V2000
   -0.7596    2.4476   -0.7659 C   0  0  0  0  0  0  0  0  0  0  0  0
   -0.2010    1.0272   -0.9172 C   0  0  0  0  0  0  0  0  0  0  0  0
    0.3873    0.4599    0.3662 C   0  0  1  0  0  0  0  0  0  0  0  0
    1.6375    1.1522    0.8776 C   0  0  0  0  0  0  0  0  0  0  0  0
   -0.5590   -0.1143    1.3843 C   0  0  0  0  0  0  0  0  0  0  0  0
    0.3343   -1.0560    0.5832 C   0  0  1  0  0  0  0  0  0  0  0  0
   -0.2278   -1.9484   -0.3867 C   0  0  0  0  0  0  0  0  0  0  0  0
   -0.6863   -2.7105   -1.1979 C   0  0  0  0  0  0  0  0  0  0  0  0
    0.0195    3.1675   -0.4963 H   0  0  0  0  0  0  0  0  0  0  0  0
   -1.2098    2.7877   -1.7036 H   0  0  0  0  0  0  0  0  0  0  0  0
   -1.5314    2.4869    0.0102 H   0  0  0  0  0  0  0  0  0  0  0  0
   -0.9934    0.3598   -1.2702 H   0  0  0  0  0  0  0  0  0  0  0  0
    0.5717    1.0173   -1.6974 H   0  0  0  0  0  0  0  0  0  0  0  0
    1.4391    2.1994    1.1303 H   0  0  0  0  0  0  0  0  0  0  0  0
    2.0217    0.6656    1.7795 H   0  0  0  0  0  0  0  0  0  0  0  0
    2.4324    1.1358    0.1231 H   0  0  0  0  0  0  0  0  0  0  0  0
   -0.3346    0.0050    2.4391 H   0  0  0  0  0  0  0  0  0  0  0  0
   -1.6169   -0.1316    1.1466 H   0  0  0  0  0  0  0  0  0  0  0  0
    1.1814   -1.4681    1.1252 H   0  0  0  0  0  0  0  0  0  0  0  0
   -1.0916   -3.3820   -1.9132 H   0  0  0  0  0  0  0  0  0  0  0  0
  1  9  1  0  0  0  0
  1 11  1  0  0  0  0
  2  1  1  0  0  0  0
  2  3  1  0  0  0  0
  3  6  1  6  0  0  0
  3  4  1  0  0  0  0
  3  5  1  0  0  0  0
  4 14  1  0  0  0  0
  4 15  1  0  0  0  0
  5 17  1  0  0  0  0
  6 19  1  1  0  0  0
  6  5  1  0  0  0  0
  7  6  1  0  0  0  0
  8  7  3  0  0  0  0
 10  1  1  0  0  0  0
 12  2  1  0  0  0  0
 13  2  1  0  0  0  0
 16  4  1  0  0  0  0
 18  5  1  0  0  0  0
 20  8  1  0  0  0  0
M  END
