title
 OpenBabel02282109593D

 19 19  0  0  1  0  0  0  0  0999 V2000
   -0.3625    2.4453    1.0391 C   0  0  0  0  0  0  0  0  0  0  0  0
   -0.7163    1.0082    0.6366 C   0  0  0  0  0  0  0  0  0  0  0  0
    0.1195    0.4751   -0.5191 C   0  0  1  0  0  0  0  0  0  0  0  0
   -0.0834    1.1656   -1.8554 C   0  0  0  0  0  0  0  0  0  0  0  0
    1.4849   -0.0685   -0.2107 C   0  0  0  0  0  0  0  0  0  0  0  0
    0.3697   -1.0346   -0.5955 C   0  0  1  0  0  0  0  0  0  0  0  0
   -0.1718   -1.9302    0.3861 C   0  0  0  0  0  0  0  0  0  0  0  0
   -0.6145   -2.6526    1.1749 N   0  0  0  0  0  0  0  0  0  0  0  0
    0.6946    2.5301    1.3126 H   0  0  0  0  0  0  0  0  0  0  0  0
   -0.5563    3.1568    0.2306 H   0  0  0  0  0  0  0  0  0  0  0  0
   -0.9575    2.7586    1.9018 H   0  0  0  0  0  0  0  0  0  0  0  0
   -0.5943    0.3502    1.5033 H   0  0  0  0  0  0  0  0  0  0  0  0
   -1.7774    0.9523    0.3619 H   0  0  0  0  0  0  0  0  0  0  0  0
    0.2043    2.2204   -1.8014 H   0  0  0  0  0  0  0  0  0  0  0  0
    0.5199    0.7010   -2.6414 H   0  0  0  0  0  0  0  0  0  0  0  0
   -1.1333    1.1199   -2.1646 H   0  0  0  0  0  0  0  0  0  0  0  0
    2.2833    0.0628   -0.9326 H   0  0  0  0  0  0  0  0  0  0  0  0
    1.8082   -0.0859    0.8241 H   0  0  0  0  0  0  0  0  0  0  0  0
    0.4185   -1.4628   -1.5914 H   0  0  0  0  0  0  0  0  0  0  0  0
  1  9  1  0  0  0  0
  1 11  1  0  0  0  0
  2  1  1  0  0  0  0
  2 12  1  0  0  0  0
  3  6  1  6  0  0  0
  3  5  1  0  0  0  0
  3  2  1  0  0  0  0
  4 14  1  0  0  0  0
  4  3  1  0  0  0  0
  5 18  1  0  0  0  0
  6 19  1  6  0  0  0
  6  5  1  0  0  0  0
  6  7  1  0  0  0  0
  7  8  3  0  0  0  0
 10  1  1  0  0  0  0
 13  2  1  0  0  0  0
 15  4  1  0  0  0  0
 16  4  1  0  0  0  0
 17  5  1  0  0  0  0
M  END
