19
title
C -0.36245272 2.4452534 1.0391253
C -0.71627533 1.0081661 0.63664985
C 0.11954263 0.4751047 -0.51905394
C -0.08335939 1.1656244 -1.8553649
C 1.4848853 -0.06852642 -0.21066585
C 0.36966935 -1.0346261 -0.5954858
C -0.17177519 -1.9301646 0.38612142
N -0.6144781 -2.652562 1.1749458
H 0.6946378 2.530143 1.3125923
H -0.55630445 3.1568105 0.23062822
H -0.9574982 2.7585514 1.901819
H -0.5943326 0.35021254 1.5033348
H -1.7774194 0.95228285 0.3618552
H 0.20428523 2.220393 -1.8013552
H 0.5198523 0.7009809 -2.6413918
H -1.1333399 1.119877 -2.1646373
H 2.2833478 0.06281802 -0.93263173
H 1.8081506 -0.08594623 0.8240877
H 0.4184799 -1.4627585 -1.591396
