19
title
C -0.77267617 2.4300313 -0.742765
C -0.15985265 1.0406113 -0.9529606
C 0.42802775 0.4474948 0.3171855
C 1.6503127 1.1480618 0.87875944
N -0.57455236 -0.06718239 1.2607425
C 0.32010186 -1.0318954 0.5670604
C -0.2735042 -1.9565877 -0.3586641
C -0.7338577 -2.7491755 -1.1373508
H -0.023232108 3.1717553 -0.4478548
H -1.2424861 2.78825 -1.663565
H -1.5396049 2.3931267 0.036982376
H -0.9270303 0.35825875 -1.3282918
H 0.62535095 1.0845345 -1.7187184
H 1.410802 2.1716766 1.1861624
H 2.0442288 0.61972505 1.7532583
H 2.4496193 1.2048156 0.13195659
H -0.25508705 0.046604488 2.220607
H 1.1283203 -1.4598259 1.1576647
H -1.1509502 -3.4444723 -1.8229266
