18
title
C -0.3420575 2.4305696 1.0378144
C -0.7721811 1.0193526 0.62048316
C 0.04946905 0.4619697 -0.5311267
C -0.104858406 1.1589589 -1.8690891
N 1.3806478 -0.021032069 -0.1443619
C 0.36562568 -1.0080404 -0.57696897
C -0.10879297 -1.9390624 0.4180406
N -0.5173707 -2.6936755 1.1931665
H 0.7191865 2.4435213 1.3042719
H -0.5034466 3.16439 0.24167283
H -0.9133796 2.7621608 1.9093449
H -0.67594993 0.34555516 1.4763892
H -1.8307358 1.0141885 0.33212137
H 0.24243635 2.1953292 -1.8097675
H 0.47337216 0.6555789 -2.6506884
H -1.1535243 1.1768775 -2.1832087
H 2.0535166 0.11188164 -0.8962864
H 0.4691401 -1.4522481 -1.5636668
