title
 OpenBabel02282109593D

 18 18  0  0  1  0  0  0  0  0999 V2000
   -0.3421    2.4306    1.0378 C   0  0  0  0  0  0  0  0  0  0  0  0
   -0.7722    1.0194    0.6205 C   0  0  0  0  0  0  0  0  0  0  0  0
    0.0495    0.4620   -0.5311 C   0  0  1  0  0  0  0  0  0  0  0  0
   -0.1049    1.1590   -1.8691 C   0  0  0  0  0  0  0  0  0  0  0  0
    1.3806   -0.0210   -0.1444 N   0  0  0  0  0  0  0  0  0  0  0  0
    0.3656   -1.0080   -0.5770 C   0  0  1  0  0  0  0  0  0  0  0  0
   -0.1088   -1.9391    0.4180 C   0  0  0  0  0  0  0  0  0  0  0  0
   -0.5174   -2.6937    1.1932 N   0  0  0  0  0  0  0  0  0  0  0  0
    0.7192    2.4435    1.3043 H   0  0  0  0  0  0  0  0  0  0  0  0
   -0.5034    3.1644    0.2417 H   0  0  0  0  0  0  0  0  0  0  0  0
   -0.9134    2.7622    1.9093 H   0  0  0  0  0  0  0  0  0  0  0  0
   -0.6759    0.3456    1.4764 H   0  0  0  0  0  0  0  0  0  0  0  0
   -1.8307    1.0142    0.3321 H   0  0  0  0  0  0  0  0  0  0  0  0
    0.2424    2.1953   -1.8098 H   0  0  0  0  0  0  0  0  0  0  0  0
    0.4734    0.6556   -2.6507 H   0  0  0  0  0  0  0  0  0  0  0  0
   -1.1535    1.1769   -2.1832 H   0  0  0  0  0  0  0  0  0  0  0  0
    2.0535    0.1119   -0.8963 H   0  0  0  0  0  0  0  0  0  0  0  0
    0.4691   -1.4522   -1.5637 H   0  0  0  0  0  0  0  0  0  0  0  0
  1  9  1  0  0  0  0
  1 11  1  0  0  0  0
  2  1  1  0  0  0  0
  2 12  1  0  0  0  0
  3  6  1  6  0  0  0
  3  5  1  0  0  0  0
  3  2  1  0  0  0  0
  4 14  1  0  0  0  0
  4  3  1  0  0  0  0
  6 18  1  6  0  0  0
  6  5  1  0  0  0  0
  6  7  1  0  0  0  0
  7  8  3  0  0  0  0
 10  1  1  0  0  0  0
 13  2  1  0  0  0  0
 15  4  1  0  0  0  0
 16  4  1  0  0  0  0
 17  5  1  0  0  0  0
M  END
