18
title
C -0.7200005 2.4902256 -0.7291818
C -0.28404254 1.0321822 -0.9146375
C 0.3360347 0.4400005 0.3341459
O 1.5308489 1.0524042 0.7480663
C -0.52633584 -0.15566264 1.4126204
C 0.36128923 -1.0603938 0.55126286
C -0.21496838 -1.9733762 -0.38979727
C -0.6943764 -2.74744 -1.176692
H 0.13269511 3.132946 -0.4835278
H -1.1672034 2.8842955 -1.6461447
H -1.4601953 2.586525 0.072869964
H -1.1394607 0.4181344 -1.2120986
H 0.4495528 0.9641877 -1.7267698
H 1.3071483 1.9070053 1.1327165
H -0.21588644 -0.018172968 2.442144
H -1.5966823 -0.21520887 1.2501179
H 1.2670217 -1.4053851 1.0405368
H -1.1127926 -3.431032 -1.8727463
