18
title
C -0.66305995 2.2456133 -0.6376442
O -0.053502783 0.9751043 -0.76107955
C 0.40889192 0.42731866 0.4355477
C 1.6683848 1.0583937 0.98937595
C -0.62023187 -0.15383022 1.3665942
C 0.25906372 -1.0823343 0.5242773
C -0.3115142 -1.8387024 -0.5496714
C -0.775111 -2.5040042 -1.4377134
H 0.051952466 3.0247574 -0.33858055
H -1.0610619 2.4981666 -1.6229562
H -1.4877039 2.2321634 0.08895231
H 1.4954262 2.0966098 1.292225
H 2.0225253 0.5143758 1.8693396
H 2.460032 1.0493351 0.23367734
H -0.44820616 -0.12699942 2.4370985
H -1.6571718 -0.08362381 1.0606738
H 1.0570638 -1.5892141 1.0602849
H -1.1835715 -3.0776947 -2.2317863
