title
 OpenBabel02282109593D

 16 16  0  0  1  0  0  0  0  0999 V2000
    0.7615    2.3759   -0.2071 O   0  0  0  0  0  0  0  0  0  0  0  0
    0.9208    1.0025    0.1518 C   0  0  0  0  0  0  0  0  0  0  0  0
   -0.4604    0.4013    0.0982 C   0  0  1  0  0  0  0  0  0  0  0  0
   -1.3733    1.0660    0.9196 O   0  0  0  0  0  0  0  0  0  0  0  0
   -0.9739   -0.2173   -1.1722 C   0  0  0  0  0  0  0  0  0  0  0  0
   -0.6532   -1.0960    0.0421 C   0  0  1  0  0  0  0  0  0  0  0  0
    0.4593   -1.9995    0.0280 C   0  0  0  0  0  0  0  0  0  0  0  0
    1.3912   -2.7608    0.0172 C   0  0  0  0  0  0  0  0  0  0  0  0
    1.5387    2.8589    0.0866 H   0  0  0  0  0  0  0  0  0  0  0  0
    1.6003    0.4797   -0.5328 H   0  0  0  0  0  0  0  0  0  0  0  0
    1.3168    0.9069    1.1726 H   0  0  0  0  0  0  0  0  0  0  0  0
   -1.2499    2.0051    0.7266 H   0  0  0  0  0  0  0  0  0  0  0  0
   -2.0238   -0.0780   -1.4001 H   0  0  0  0  0  0  0  0  0  0  0  0
   -0.3090   -0.2884   -2.0252 H   0  0  0  0  0  0  0  0  0  0  0  0
   -1.5205   -1.4329    0.6024 H   0  0  0  0  0  0  0  0  0  0  0  0
    2.2101   -3.4364    0.0090 H   0  0  0  0  0  0  0  0  0  0  0  0
  1  9  1  0  0  0  0
  1  2  1  0  0  0  0
  2 11  1  0  0  0  0
  3  6  1  1  0  0  0
  3  2  1  0  0  0  0
  3  4  1  0  0  0  0
  5  6  1  0  0  0  0
  5  3  1  0  0  0  0
  6 15  1  1  0  0  0
  7  6  1  0  0  0  0
  8  7  3  0  0  0  0
 10  2  1  0  0  0  0
 12  4  1  0  0  0  0
 13  5  1  0  0  0  0
 14  5  1  0  0  0  0
 16  8  1  0  0  0  0
M  END
