title
 OpenBabel02282109593D

 18 18  0  0  1  0  0  0  0  0999 V2000
   -0.2447    1.6764   -0.5186 C   0  0  0  0  0  0  0  0  0  0  0  0
   -0.1979    0.1590   -0.4861 C   0  0  1  0  0  0  0  0  0  0  0  0
   -1.4627   -0.5031   -0.9958 C   0  0  0  0  0  0  0  0  0  0  0  0
   -1.6286   -0.1451   -2.3609 O   0  0  0  0  0  0  0  0  0  0  0  0
    1.0903   -0.5512   -0.7368 C   0  0  0  0  0  0  0  0  0  0  0  0
    0.4854   -0.5894    0.6648 C   0  0  1  0  0  0  0  0  0  0  0  0
    1.1606    0.1286    1.7672 C   0  0  0  0  0  0  0  0  0  0  0  0
    1.1435   -0.2293    2.9203 O   0  0  0  0  0  0  0  0  0  0  0  0
    0.7192    2.1290   -0.2760 H   0  0  0  0  0  0  0  0  0  0  0  0
   -0.5287    2.0015   -1.5228 H   0  0  0  0  0  0  0  0  0  0  0  0
   -0.9882    2.0660    0.1861 H   0  0  0  0  0  0  0  0  0  0  0  0
   -1.3830   -1.5952   -0.8797 H   0  0  0  0  0  0  0  0  0  0  0  0
   -2.3199   -0.1669   -0.3912 H   0  0  0  0  0  0  0  0  0  0  0  0
   -2.5128   -0.4049   -2.6353 H   0  0  0  0  0  0  0  0  0  0  0  0
    1.0853   -1.4787   -1.2980 H   0  0  0  0  0  0  0  0  0  0  0  0
    1.9841    0.0502   -0.8704 H   0  0  0  0  0  0  0  0  0  0  0  0
    0.0219   -1.5172    0.9851 H   0  0  0  0  0  0  0  0  0  0  0  0
    1.7205    1.0420    1.4630 H   0  0  0  0  0  0  0  0  0  0  0  0
  1  2  1  0  0  0  0
  1  9  1  0  0  0  0
  1 11  1  0  0  0  0
  2  6  1  1  0  0  0
  3 12  1  0  0  0  0
  3  2  1  0  0  0  0
  3 13  1  0  0  0  0
  4  3  1  0  0  0  0
  5  2  1  0  0  0  0
  5  6  1  0  0  0  0
  6 17  1  1  0  0  0
  6  7  1  0  0  0  0
  7  8  2  0  0  0  0
 10  1  1  0  0  0  0
 14  4  1  0  0  0  0
 15  5  1  0  0  0  0
 16  5  1  0  0  0  0
 18  7  1  0  0  0  0
M  END
