title
 OpenBabel02282109593D

 17 17  0  0  1  0  0  0  0  0999 V2000
   -0.2069    1.7849   -0.3780 C   0  0  0  0  0  0  0  0  0  0  0  0
   -0.5426    0.3097   -0.4494 C   0  0  1  0  0  0  0  0  0  0  0  0
   -1.9636   -0.0534   -0.0530 C   0  0  0  0  0  0  0  0  0  0  0  0
   -2.2105    0.2318    1.3124 O   0  0  0  0  0  0  0  0  0  0  0  0
    0.1942   -0.5782   -1.4135 C   0  0  0  0  0  0  0  0  0  0  0  0
    0.4463   -0.6728    0.0093 N   0  0  0  0  0  0  0  0  0  0  0  0
    1.6750   -0.3977    0.5863 C   0  0  0  0  0  0  0  0  0  0  0  0
    2.7443   -0.7010    0.1174 O   0  0  0  0  0  0  0  0  0  0  0  0
    0.8514    1.9686   -0.5835 H   0  0  0  0  0  0  0  0  0  0  0  0
   -0.7986    2.3391   -1.1140 H   0  0  0  0  0  0  0  0  0  0  0  0
   -0.4510    2.1821    0.6111 H   0  0  0  0  0  0  0  0  0  0  0  0
   -2.6772    0.5487   -0.6256 H   0  0  0  0  0  0  0  0  0  0  0  0
   -2.1488   -1.1120   -0.2841 H   0  0  0  0  0  0  0  0  0  0  0  0
   -1.6276   -0.3401    1.8248 H   0  0  0  0  0  0  0  0  0  0  0  0
   -0.3116   -1.4272   -1.8660 H   0  0  0  0  0  0  0  0  0  0  0  0
    0.9811   -0.1343   -2.0179 H   0  0  0  0  0  0  0  0  0  0  0  0
    1.5628    0.0754    1.5811 H   0  0  0  0  0  0  0  0  0  0  0  0
  1 11  1  0  0  0  0
  2  1  1  1  0  0  0
  2  3  1  0  0  0  0
  2  6  1  0  0  0  0
  3  4  1  0  0  0  0
  4 14  1  0  0  0  0
  5  2  1  0  0  0  0
  5  6  1  0  0  0  0
  6  7  1  0  0  0  0
  7 17  1  0  0  0  0
  8  7  2  0  0  0  0
  9  1  1  0  0  0  0
 10  1  1  0  0  0  0
 12  3  1  0  0  0  0
 13  3  1  0  0  0  0
 15  5  1  0  0  0  0
 16  5  1  0  0  0  0
M  END
