title
 OpenBabel02282109593D

 20 20  0  0  1  0  0  0  0  0999 V2000
   -0.2891    2.6236    1.1332 C   0  0  0  0  0  0  0  0  0  0  0  0
   -0.6528    1.1725    0.7904 C   0  0  0  0  0  0  0  0  0  0  0  0
    0.1512    0.6001   -0.3730 C   0  0  1  0  0  0  0  0  0  0  0  0
   -0.0359    1.3176   -1.6995 C   0  0  0  0  0  0  0  0  0  0  0  0
    1.4892   -0.0027   -0.0937 C   0  0  0  0  0  0  0  0  0  0  0  0
    0.3380   -0.9224   -0.4959 C   0  0  1  0  0  0  0  0  0  0  0  0
   -0.2018   -1.8863    0.4862 C   0  0  0  0  0  0  0  0  0  0  0  0
   -0.6791   -2.9563    0.1920 O   0  0  0  0  0  0  0  0  0  0  0  0
    0.7792    2.7201    1.3542 H   0  0  0  0  0  0  0  0  0  0  0  0
   -0.5241    3.3098    0.3144 H   0  0  0  0  0  0  0  0  0  0  0  0
   -0.8455    2.9602    2.0130 H   0  0  0  0  0  0  0  0  0  0  0  0
   -0.5027    0.5580    1.6833 H   0  0  0  0  0  0  0  0  0  0  0  0
   -1.7225    1.1087    0.5523 H   0  0  0  0  0  0  0  0  0  0  0  0
    0.3037    2.3567   -1.6415 H   0  0  0  0  0  0  0  0  0  0  0  0
    0.5328    0.8301   -2.4965 H   0  0  0  0  0  0  0  0  0  0  0  0
   -1.0908    1.3253   -1.9958 H   0  0  0  0  0  0  0  0  0  0  0  0
    2.2939    0.1184   -0.8107 H   0  0  0  0  0  0  0  0  0  0  0  0
    1.8184   -0.0602    0.9401 H   0  0  0  0  0  0  0  0  0  0  0  0
    0.3432   -1.3149   -1.5076 H   0  0  0  0  0  0  0  0  0  0  0  0
   -0.1252   -1.5750    1.5529 H   0  0  0  0  0  0  0  0  0  0  0  0
  1  9  1  0  0  0  0
  1 11  1  0  0  0  0
  2  1  1  0  0  0  0
  2 12  1  0  0  0  0
  3  6  1  6  0  0  0
  3  5  1  0  0  0  0
  3  2  1  0  0  0  0
  4 14  1  0  0  0  0
  4  3  1  0  0  0  0
  5 18  1  0  0  0  0
  6 19  1  6  0  0  0
  6  5  1  0  0  0  0
  6  7  1  0  0  0  0
  7 20  1  0  0  0  0
  8  7  2  0  0  0  0
 10  1  1  0  0  0  0
 13  2  1  0  0  0  0
 15  4  1  0  0  0  0
 16  4  1  0  0  0  0
 17  5  1  0  0  0  0
M  END
