20
title
C -0.28911301 2.6236253 1.1331817
C -0.6527935 1.1724968 0.7904401
C 0.15123715 0.60009366 -0.37301975
C -0.035913456 1.3176388 -1.6994823
C 1.4891638 -0.0026673991 -0.093689844
C 0.33801103 -0.9223889 -0.49586385
C -0.20177592 -1.8863415 0.48619816
O -0.679103 -2.9562702 0.19199826
H 0.77918196 2.7201264 1.3542167
H -0.5241308 3.3097808 0.31444013
H -0.84546787 2.9602036 2.0130348
H -0.5027111 0.5580151 1.6832947
H -1.7225347 1.108713 0.55231535
H 0.30369908 2.3567052 -1.641488
H 0.53281796 0.83006024 -2.4965274
H -1.0908335 1.3252591 -1.9958106
H 2.2938998 0.11843935 -0.8107491
H 1.8183738 -0.060167402 0.94008183
H 0.3431933 -1.3148845 -1.5075659
H -0.12518232 -1.5749894 1.552916
