title
 OpenBabel02282109593D

 19 19  0  0  1  0  0  0  0  0999 V2000
    1.7067    2.0539   -0.6563 C   0  0  0  0  0  0  0  0  0  0  0  0
    1.5211    0.6127   -1.1446 C   0  0  0  0  0  0  0  0  0  0  0  0
    0.1875   -0.0009   -0.7448 C   0  0  1  0  0  0  0  0  0  0  0  0
   -1.0528    0.6191   -1.3614 C   0  0  0  0  0  0  0  0  0  0  0  0
    0.1400   -1.4659   -0.3930 C   0  0  0  0  0  0  0  0  0  0  0  0
    0.1187   -0.4588    0.6441 N   0  0  0  0  0  0  0  0  0  0  0  0
   -0.9257   -0.2872    1.5319 C   0  0  0  0  0  0  0  0  0  0  0  0
   -1.5579   -1.1808    2.0421 O   0  0  0  0  0  0  0  0  0  0  0  0
    2.7033    2.4236   -0.9140 H   0  0  0  0  0  0  0  0  0  0  0  0
    0.9777    2.7368   -1.1035 H   0  0  0  0  0  0  0  0  0  0  0  0
    1.5994    2.1072    0.4319 H   0  0  0  0  0  0  0  0  0  0  0  0
    1.6109    0.5705   -2.2376 H   0  0  0  0  0  0  0  0  0  0  0  0
    2.3229   -0.0115   -0.7365 H   0  0  0  0  0  0  0  0  0  0  0  0
   -1.0029    0.5510   -2.4533 H   0  0  0  0  0  0  0  0  0  0  0  0
   -1.9594    0.1053   -1.0294 H   0  0  0  0  0  0  0  0  0  0  0  0
   -1.1491    1.6776   -1.1010 H   0  0  0  0  0  0  0  0  0  0  0  0
   -0.7853   -2.0114   -0.5624 H   0  0  0  0  0  0  0  0  0  0  0  0
    1.0458   -2.0633   -0.4585 H   0  0  0  0  0  0  0  0  0  0  0  0
   -1.0751    0.7801    1.7863 H   0  0  0  0  0  0  0  0  0  0  0  0
  1 11  1  0  0  0  0
  2  3  1  0  0  0  0
  2 13  1  0  0  0  0
  2  1  1  0  0  0  0
  3  4  1  6  0  0  0
  3  5  1  0  0  0  0
  3  6  1  0  0  0  0
  4 16  1  0  0  0  0
  4 15  1  0  0  0  0
  5  6  1  0  0  0  0
  6  7  1  0  0  0  0
  7 19  1  0  0  0  0
  7  8  2  0  0  0  0
  9  1  1  0  0  0  0
 10  1  1  0  0  0  0
 12  2  1  0  0  0  0
 14  4  1  0  0  0  0
 17  5  1  0  0  0  0
 18  5  1  0  0  0  0
M  END
