19
title
C 1.70674 2.053899 -0.65625596
C 1.5211444 0.61272764 -1.1445837
C 0.18753321 -0.0009033957 -0.7447691
C -1.0528475 0.61907136 -1.3614472
C 0.14000256 -1.4658902 -0.3930475
N 0.1186747 -0.4588373 0.64406514
C -0.9256653 -0.28721532 1.5319264
O -1.5579199 -1.1807604 2.0421348
H 2.7033346 2.4235728 -0.91398233
H 0.9777251 2.7367516 -1.1034721
H 1.5993644 2.1071846 0.4319379
H 1.6109102 0.5704774 -2.2375913
H 2.3229017 -0.011470823 -0.7365474
H -1.0028638 0.5510427 -2.453255
H -1.9593993 0.10534018 -1.0294412
H -1.1490566 1.677566 -1.1009575
H -0.78527135 -2.011417 -0.56243527
H 1.045769 -2.0632942 -0.45852032
H -1.0750684 0.7801201 1.7863312
