18
title
C 1.0914166 2.3000476 -0.38501865
C 0.9229516 0.9957625 0.4077498
C -0.49461505 0.45634115 0.34176868
C -1.5693779 1.2657979 1.0394155
O -0.8760658 -0.08338982 -0.9222931
C -0.7591714 -1.0077231 0.15361185
C 0.32623425 -2.0328 0.10162739
O 1.2909775 -1.9973559 -0.6197895
H 2.1369114 2.6203096 -0.36966068
H 0.79847926 2.1519356 -1.4284916
H 0.4903009 3.116974 0.025907004
H 1.6053025 0.24488187 0.005352745
H 1.1891803 1.1570439 1.4599321
H -1.608114 2.2819643 0.63544995
H -2.5520139 0.8096123 0.90004003
H -1.3627033 1.3389318 2.1120918
H -1.7052829 -1.3915045 0.5412822
H 0.1725041 -2.8668637 0.8241214
