title
 OpenBabel02282109593D

 18 18  0  0  1  0  0  0  0  0999 V2000
    1.0914    2.3000   -0.3850 C   0  0  0  0  0  0  0  0  0  0  0  0
    0.9230    0.9958    0.4077 C   0  0  0  0  0  0  0  0  0  0  0  0
   -0.4946    0.4563    0.3418 C   0  0  1  0  0  0  0  0  0  0  0  0
   -1.5694    1.2658    1.0394 C   0  0  0  0  0  0  0  0  0  0  0  0
   -0.8761   -0.0834   -0.9223 O   0  0  0  0  0  0  0  0  0  0  0  0
   -0.7592   -1.0077    0.1536 C   0  0  1  0  0  0  0  0  0  0  0  0
    0.3262   -2.0328    0.1016 C   0  0  0  0  0  0  0  0  0  0  0  0
    1.2910   -1.9974   -0.6198 O   0  0  0  0  0  0  0  0  0  0  0  0
    2.1369    2.6203   -0.3697 H   0  0  0  0  0  0  0  0  0  0  0  0
    0.7985    2.1519   -1.4285 H   0  0  0  0  0  0  0  0  0  0  0  0
    0.4903    3.1170    0.0259 H   0  0  0  0  0  0  0  0  0  0  0  0
    1.6053    0.2449    0.0054 H   0  0  0  0  0  0  0  0  0  0  0  0
    1.1892    1.1570    1.4599 H   0  0  0  0  0  0  0  0  0  0  0  0
   -1.6081    2.2820    0.6354 H   0  0  0  0  0  0  0  0  0  0  0  0
   -2.5520    0.8096    0.9000 H   0  0  0  0  0  0  0  0  0  0  0  0
   -1.3627    1.3389    2.1121 H   0  0  0  0  0  0  0  0  0  0  0  0
   -1.7053   -1.3915    0.5413 H   0  0  0  0  0  0  0  0  0  0  0  0
    0.1725   -2.8669    0.8241 H   0  0  0  0  0  0  0  0  0  0  0  0
  1  9  1  0  0  0  0
  1 11  1  0  0  0  0
  1  2  1  0  0  0  0
  2 13  1  0  0  0  0
  3  6  1  1  0  0  0
  3  2  1  0  0  0  0
  3  4  1  0  0  0  0
  4 16  1  0  0  0  0
  5  6  1  0  0  0  0
  5  3  1  0  0  0  0
  6 17  1  1  0  0  0
  7  6  1  0  0  0  0
  7 18  1  0  0  0  0
  8  7  2  0  0  0  0
 10  1  1  0  0  0  0
 12  2  1  0  0  0  0
 14  4  1  0  0  0  0
 15  4  1  0  0  0  0
M  END
