18
title
C 1.0126616 2.6622744 -0.33860928
C 1.0084965 1.193001 0.102347836
C -0.3721728 0.56603444 0.0295971
O -1.3280337 1.1845765 0.8515554
C -0.8706644 -0.066736415 -1.2290982
C -0.5694218 -0.94377834 -0.0071173725
C 0.5632267 -1.8943049 -0.05979775
O 0.5958378 -2.9467819 0.52948755
H 2.0221872 3.0795407 -0.2904135
H 0.6544284 2.771163 -1.3683131
H 0.37747636 3.2728825 0.31123272
H 1.7041708 0.62396747 -0.52279735
H 1.3712946 1.1157875 1.1338555
H -1.5893996 2.0121143 0.43319008
H -1.9166393 0.049670026 -1.4875133
H -0.19056794 -0.14791496 -2.071879
H -1.4214828 -1.2941791 0.5638592
H 1.4095615 -1.5832709 -0.71575004
