title
 OpenBabel02282109593D

 16 16  0  0  1  0  0  0  0  0999 V2000
    0.8323    2.5119   -0.3362 O   0  0  0  0  0  0  0  0  0  0  0  0
    1.0103    1.1462    0.0384 C   0  0  0  0  0  0  0  0  0  0  0  0
   -0.3697    0.5320    0.0027 C   0  0  1  0  0  0  0  0  0  0  0  0
   -1.2741    1.2163    0.8162 O   0  0  0  0  0  0  0  0  0  0  0  0
   -0.8942   -0.1193   -1.2348 C   0  0  0  0  0  0  0  0  0  0  0  0
   -0.5875   -0.9717    0.0030 C   0  0  1  0  0  0  0  0  0  0  0  0
    0.5382   -1.9317   -0.0328 C   0  0  0  0  0  0  0  0  0  0  0  0
    0.5855   -2.9524    0.6085 O   0  0  0  0  0  0  0  0  0  0  0  0
    1.5932    3.0142   -0.0320 H   0  0  0  0  0  0  0  0  0  0  0  0
    1.6947    0.6321   -0.6497 H   0  0  0  0  0  0  0  0  0  0  0  0
    1.4166    1.0686    1.0564 H   0  0  0  0  0  0  0  0  0  0  0  0
   -1.1379    2.1518    0.6136 H   0  0  0  0  0  0  0  0  0  0  0  0
   -1.9411    0.0219   -1.4733 H   0  0  0  0  0  0  0  0  0  0  0  0
   -0.2301   -0.2312   -2.0864 H   0  0  0  0  0  0  0  0  0  0  0  0
   -1.4324   -1.2919    0.6025 H   0  0  0  0  0  0  0  0  0  0  0  0
    1.3659   -1.6576   -0.7286 H   0  0  0  0  0  0  0  0  0  0  0  0
  1  9  1  0  0  0  0
  1  2  1  0  0  0  0
  2 11  1  0  0  0  0
  3  6  1  1  0  0  0
  3  2  1  0  0  0  0
  3  4  1  0  0  0  0
  5  3  1  0  0  0  0
  5  6  1  0  0  0  0
  6 15  1  1  0  0  0
  7  6  1  0  0  0  0
  7  8  2  0  0  0  0
 10  2  1  0  0  0  0
 12  4  1  0  0  0  0
 13  5  1  0  0  0  0
 14  5  1  0  0  0  0
 16  7  1  0  0  0  0
M  END
