title
 OpenBabel02282109593D

 18 18  0  0  1  0  0  0  0  0999 V2000
   -0.3659    1.7847   -0.8508 C   0  0  0  0  0  0  0  0  0  0  0  0
   -0.3518    0.2685   -0.6964 C   0  0  1  0  0  0  0  0  0  0  0  0
    0.9708   -0.4789   -0.8244 C   0  0  0  0  0  0  0  0  0  0  0  0
    0.2941   -0.4074    0.5138 C   0  0  1  0  0  0  0  0  0  0  0  0
    0.8912    0.3703    1.6577 C   0  0  0  0  0  0  0  0  0  0  0  0
    1.8427   -0.4751    2.2930 O   0  0  0  0  0  0  0  0  0  0  0  0
   -1.5253   -0.3802   -1.2244 C   0  0  0  0  0  0  0  0  0  0  0  0
   -2.5147   -0.9003   -1.6700 C   0  0  0  0  0  0  0  0  0  0  0  0
    0.5696    2.2341   -0.5102 H   0  0  0  0  0  0  0  0  0  0  0  0
   -0.5009    2.0511   -1.9035 H   0  0  0  0  0  0  0  0  0  0  0  0
   -1.1897    2.2316   -0.2852 H   0  0  0  0  0  0  0  0  0  0  0  0
    0.9758   -1.4225   -1.3560 H   0  0  0  0  0  0  0  0  0  0  0  0
    1.8551    0.1326   -0.9740 H   0  0  0  0  0  0  0  0  0  0  0  0
   -0.2036   -1.3164    0.8369 H   0  0  0  0  0  0  0  0  0  0  0  0
    1.3675    1.2926    1.2941 H   0  0  0  0  0  0  0  0  0  0  0  0
    0.0966    0.6671    2.3608 H   0  0  0  0  0  0  0  0  0  0  0  0
    2.1663   -0.0216    3.0772 H   0  0  0  0  0  0  0  0  0  0  0  0
   -3.3843   -1.3666   -2.0613 H   0  0  0  0  0  0  0  0  0  0  0  0
  1  2  1  0  0  0  0
  1  9  1  0  0  0  0
  1 11  1  0  0  0  0
  2  4  1  1  0  0  0
  3  2  1  0  0  0  0
  3  4  1  0  0  0  0
  4 14  1  1  0  0  0
  4  5  1  0  0  0  0
  5  6  1  0  0  0  0
  5 16  1  0  0  0  0
  6 17  1  0  0  0  0
  7  2  1  0  0  0  0
  8  7  3  0  0  0  0
 10  1  1  0  0  0  0
 12  3  1  0  0  0  0
 13  3  1  0  0  0  0
 15  5  1  0  0  0  0
 18  8  1  0  0  0  0
M  END
