title
 OpenBabel02282109593D

 17 17  0  0  1  0  0  0  0  0999 V2000
   -0.2726    1.7531   -0.9433 C   0  0  0  0  0  0  0  0  0  0  0  0
   -0.3719    0.2673   -0.6453 C   0  0  1  0  0  0  0  0  0  0  0  0
    0.9147   -0.4791   -0.6187 N   0  0  0  0  0  0  0  0  0  0  0  0
    0.1352   -0.3582    0.6238 C   0  0  1  0  0  0  0  0  0  0  0  0
    0.8220    0.3916    1.7432 C   0  0  0  0  0  0  0  0  0  0  0  0
    1.9056   -0.3660    2.2549 O   0  0  0  0  0  0  0  0  0  0  0  0
   -1.4981   -0.3914   -1.2640 C   0  0  0  0  0  0  0  0  0  0  0  0
   -2.4319   -0.9275   -1.8008 C   0  0  0  0  0  0  0  0  0  0  0  0
    0.6502    2.1711   -0.5393 H   0  0  0  0  0  0  0  0  0  0  0  0
   -0.2718    1.9135   -2.0254 H   0  0  0  0  0  0  0  0  0  0  0  0
   -1.1261    2.2917   -0.5209 H   0  0  0  0  0  0  0  0  0  0  0  0
    0.7854   -1.3991   -1.0318 H   0  0  0  0  0  0  0  0  0  0  0  0
   -0.4020   -1.2457    0.9514 H   0  0  0  0  0  0  0  0  0  0  0  0
    1.1548    1.3807    1.4019 H   0  0  0  0  0  0  0  0  0  0  0  0
    0.1282    0.5415    2.5768 H   0  0  0  0  0  0  0  0  0  0  0  0
    2.4862   -0.5402    1.5045 H   0  0  0  0  0  0  0  0  0  0  0  0
   -3.2586   -1.4041   -2.2668 H   0  0  0  0  0  0  0  0  0  0  0  0
  1  2  1  0  0  0  0
  1  9  1  0  0  0  0
  1 11  1  0  0  0  0
  2  3  1  0  0  0  0
  2  4  1  1  0  0  0
  3  4  1  0  0  0  0
  4 13  1  1  0  0  0
  4  5  1  0  0  0  0
  5  6  1  0  0  0  0
  5 15  1  0  0  0  0
  7  2  1  0  0  0  0
  8  7  3  0  0  0  0
 10  1  1  0  0  0  0
 12  3  1  0  0  0  0
 14  5  1  0  0  0  0
 16  6  1  0  0  0  0
 17  8  1  0  0  0  0
M  END
