title
 OpenBabel02282109593D

 16 16  0  0  1  0  0  0  0  0999 V2000
   -0.2752    1.7722   -0.9368 C   0  0  0  0  0  0  0  0  0  0  0  0
   -0.3449    0.2846   -0.6449 C   0  0  1  0  0  0  0  0  0  0  0  0
    0.9360   -0.4593   -0.6277 N   0  0  0  0  0  0  0  0  0  0  0  0
    0.1592   -0.3628    0.6153 C   0  0  1  0  0  0  0  0  0  0  0  0
    0.8248    0.3859    1.7488 C   0  0  0  0  0  0  0  0  0  0  0  0
    1.8644   -0.3934    2.3111 O   0  0  0  0  0  0  0  0  0  0  0  0
   -1.4722   -0.3859   -1.2629 C   0  0  0  0  0  0  0  0  0  0  0  0
   -2.3659   -0.9163   -1.7713 N   0  0  0  0  0  0  0  0  0  0  0  0
    0.6390    2.1982   -0.5234 H   0  0  0  0  0  0  0  0  0  0  0  0
   -0.2696    1.9405   -2.0174 H   0  0  0  0  0  0  0  0  0  0  0  0
   -1.1387    2.2932   -0.5135 H   0  0  0  0  0  0  0  0  0  0  0  0
    0.8278   -1.3737   -1.0592 H   0  0  0  0  0  0  0  0  0  0  0  0
   -0.3757   -1.2563    0.9309 H   0  0  0  0  0  0  0  0  0  0  0  0
    1.1948    1.3603    1.4046 H   0  0  0  0  0  0  0  0  0  0  0  0
    0.1030    0.5648    2.5520 H   0  0  0  0  0  0  0  0  0  0  0  0
    2.5021   -0.5533    1.6057 H   0  0  0  0  0  0  0  0  0  0  0  0
  1  2  1  0  0  0  0
  1  9  1  0  0  0  0
  1 11  1  0  0  0  0
  2  3  1  0  0  0  0
  2  4  1  1  0  0  0
  3  4  1  0  0  0  0
  4 13  1  1  0  0  0
  4  5  1  0  0  0  0
  5  6  1  0  0  0  0
  5 15  1  0  0  0  0
  7  2  1  0  0  0  0
  8  7  3  0  0  0  0
 10  1  1  0  0  0  0
 12  3  1  0  0  0  0
 14  5  1  0  0  0  0
 16  6  1  0  0  0  0
M  END
