16
title
C -0.27520913 1.7721711 -0.9367972
C -0.34485424 0.28456676 -0.6448947
N 0.93604594 -0.45930701 -0.6277221
C 0.15915772 -0.36284274 0.61525065
C 0.82477325 0.38591632 1.7487805
O 1.864396 -0.39336556 2.311136
C -1.4721586 -0.38585848 -1.2629037
N -2.3658562 -0.9162786 -1.7712659
H 0.63895357 2.198247 -0.5233833
H -0.26955214 1.9405384 -2.0174212
H -1.1386936 2.2932496 -0.513493
H 0.8278089 -1.3737172 -1.0591795
H -0.37569827 -1.2562836 0.93088585
H 1.1947992 1.3603051 1.4046221
H 0.10296384 0.5647874 2.552022
H 2.5021188 -0.55330294 1.6057284
