16
title
C -0.26320666 1.7393632 -0.9624723
C -0.38738605 0.26722008 -0.6219407
O 0.84232634 -0.48920533 -0.6033313
C 0.13067563 -0.3350794 0.6316236
C 0.8562198 0.4089757 1.726274
O 1.8830177 -0.39844325 2.2779412
C -1.4973598 -0.40032008 -1.2689104
C -2.4330149 -0.92047656 -1.8152144
H 0.61897504 2.181791 -0.49895576
H -0.17906594 1.8578036 -2.046513
H -1.153533 2.2826364 -0.6321827
H -0.35413578 -1.2521523 0.9692038
H 1.2526354 1.3629737 1.3556211
H 0.16302304 0.6266127 2.5459952
H 2.476347 -0.630463 1.5544252
H -3.2551765 -1.3925585 -2.294208
