title
 OpenBabel02282109593D

 15 15  0  0  1  0  0  0  0  0999 V2000
   -0.2635    1.7576   -0.9565 C   0  0  0  0  0  0  0  0  0  0  0  0
   -0.3615    0.2852   -0.6168 C   0  0  1  0  0  0  0  0  0  0  0  0
    0.8508   -0.4784   -0.6232 O   0  0  0  0  0  0  0  0  0  0  0  0
    0.1570   -0.3383    0.6254 C   0  0  1  0  0  0  0  0  0  0  0  0
    0.8841    0.4015    1.7228 C   0  0  0  0  0  0  0  0  0  0  0  0
    1.8606   -0.4317    2.3193 O   0  0  0  0  0  0  0  0  0  0  0  0
   -1.4851   -0.3903   -1.2558 C   0  0  0  0  0  0  0  0  0  0  0  0
   -2.3923   -0.8958   -1.7625 N   0  0  0  0  0  0  0  0  0  0  0  0
    0.6060    2.2097   -0.4798 H   0  0  0  0  0  0  0  0  0  0  0  0
   -0.1683    1.8811   -2.0389 H   0  0  0  0  0  0  0  0  0  0  0  0
   -1.1656    2.2844   -0.6321 H   0  0  0  0  0  0  0  0  0  0  0  0
   -0.3280   -1.2570    0.9571 H   0  0  0  0  0  0  0  0  0  0  0  0
    1.3240    1.3315    1.3407 H   0  0  0  0  0  0  0  0  0  0  0  0
    0.1763    0.6624    2.5168 H   0  0  0  0  0  0  0  0  0  0  0  0
    2.4991   -0.6641    1.6357 H   0  0  0  0  0  0  0  0  0  0  0  0
  1 11  1  0  0  0  0
  1  2  1  0  0  0  0
  1  9  1  0  0  0  0
  2  4  1  1  0  0  0
  3  2  1  0  0  0  0
  3  4  1  0  0  0  0
  4 12  1  1  0  0  0
  4  5  1  0  0  0  0
  5  6  1  0  0  0  0
  5 14  1  0  0  0  0
  7  2  1  0  0  0  0
  8  7  3  0  0  0  0
 10  1  1  0  0  0  0
 13  5  1  0  0  0  0
 15  6  1  0  0  0  0
M  END
