19
title
C -0.3714749 2.8064034 1.4650918
C -0.75266004 1.3398104 1.2261863
C 0.0010371074 0.74563354 0.053541686
C 1.3513042 0.10786857 0.21028033
C 0.15217291 -0.7638655 -0.15020952
C -0.3868653 -1.773098 0.8535223
C 0.080558464 -1.2120891 -1.5201174
N 0.013098644 -1.5778916 -2.6161425
H 0.69754183 2.9062388 1.6792684
H -0.5926935 3.420089 0.58544594
H -0.92646277 3.222758 2.310909
H -0.55570513 0.7626697 2.1358182
H -1.8316355 1.2672017 1.0408633
H -0.13770236 1.2954905 -0.8739282
H 2.108444 0.27653027 -0.54608464
H 1.7372445 -0.02365373 1.2164443
H -0.25743324 -1.4156125 1.8767632
H -1.4514766 -1.9637854 0.68853307
H 0.14524011 -2.7243054 0.76021326
