title
 OpenBabel02282109593D

 19 19  0  0  1  0  0  0  0  0999 V2000
   -0.3715    2.8064    1.4651 C   0  0  0  0  0  0  0  0  0  0  0  0
   -0.7527    1.3398    1.2262 C   0  0  0  0  0  0  0  0  0  0  0  0
    0.0010    0.7456    0.0535 C   0  0  1  0  0  0  0  0  0  0  0  0
    1.3513    0.1079    0.2103 C   0  0  0  0  0  0  0  0  0  0  0  0
    0.1522   -0.7639   -0.1502 C   0  0  1  0  0  0  0  0  0  0  0  0
   -0.3869   -1.7731    0.8535 C   0  0  0  0  0  0  0  0  0  0  0  0
    0.0806   -1.2121   -1.5201 C   0  0  0  0  0  0  0  0  0  0  0  0
    0.0131   -1.5779   -2.6161 N   0  0  0  0  0  0  0  0  0  0  0  0
    0.6975    2.9062    1.6793 H   0  0  0  0  0  0  0  0  0  0  0  0
   -0.5927    3.4201    0.5854 H   0  0  0  0  0  0  0  0  0  0  0  0
   -0.9265    3.2228    2.3109 H   0  0  0  0  0  0  0  0  0  0  0  0
   -0.5557    0.7627    2.1358 H   0  0  0  0  0  0  0  0  0  0  0  0
   -1.8316    1.2672    1.0409 H   0  0  0  0  0  0  0  0  0  0  0  0
   -0.1377    1.2955   -0.8739 H   0  0  0  0  0  0  0  0  0  0  0  0
    2.1084    0.2765   -0.5461 H   0  0  0  0  0  0  0  0  0  0  0  0
    1.7372   -0.0237    1.2164 H   0  0  0  0  0  0  0  0  0  0  0  0
   -0.2574   -1.4156    1.8768 H   0  0  0  0  0  0  0  0  0  0  0  0
   -1.4515   -1.9638    0.6885 H   0  0  0  0  0  0  0  0  0  0  0  0
    0.1452   -2.7243    0.7602 H   0  0  0  0  0  0  0  0  0  0  0  0
  1  9  1  0  0  0  0
  1 11  1  0  0  0  0
  2  1  1  0  0  0  0
  2 12  1  0  0  0  0
  3  5  1  6  0  0  0
  3  4  1  0  0  0  0
  3  2  1  0  0  0  0
  4 16  1  0  0  0  0
  5  7  1  6  0  0  0
  5  4  1  0  0  0  0
  5  6  1  0  0  0  0
  6 17  1  0  0  0  0
  8  7  3  0  0  0  0
 10  1  1  0  0  0  0
 13  2  1  0  0  0  0
 14  3  1  0  0  0  0
 15  4  1  0  0  0  0
 18  6  1  0  0  0  0
 19  6  1  0  0  0  0
M  END
