title
 OpenBabel02282109593D

 18 18  0  0  1  0  0  0  0  0999 V2000
   -0.3723    2.7581    1.5480 C   0  0  0  0  0  0  0  0  0  0  0  0
   -0.7646    1.3094    1.2324 C   0  0  0  0  0  0  0  0  0  0  0  0
   -0.0501    0.7687    0.0130 C   0  0  1  0  0  0  0  0  0  0  0  0
    1.3375    0.1966    0.1033 C   0  0  0  0  0  0  0  0  0  0  0  0
    0.1759   -0.7426   -0.1622 C   0  0  1  0  0  0  0  0  0  0  0  0
   -0.1797   -1.7266    0.8287 N   0  0  0  0  0  0  0  0  0  0  0  0
    0.0381   -1.2335   -1.5191 C   0  0  0  0  0  0  0  0  0  0  0  0
   -0.0962   -1.5989   -2.6084 N   0  0  0  0  0  0  0  0  0  0  0  0
    0.7019    2.8425    1.7422 H   0  0  0  0  0  0  0  0  0  0  0  0
   -0.6110    3.4230    0.7115 H   0  0  0  0  0  0  0  0  0  0  0  0
   -0.9057    3.1257    2.4296 H   0  0  0  0  0  0  0  0  0  0  0  0
   -0.5498    0.6733    2.0987 H   0  0  0  0  0  0  0  0  0  0  0  0
   -1.8487    1.2509    1.0710 H   0  0  0  0  0  0  0  0  0  0  0  0
   -0.2735    1.2961   -0.9107 H   0  0  0  0  0  0  0  0  0  0  0  0
    2.0424    0.3767   -0.6993 H   0  0  0  0  0  0  0  0  0  0  0  0
    1.7907    0.1126    1.0870 H   0  0  0  0  0  0  0  0  0  0  0  0
    0.3193   -1.5848    1.6966 H   0  0  0  0  0  0  0  0  0  0  0  0
   -1.1751   -1.7263    1.0231 H   0  0  0  0  0  0  0  0  0  0  0  0
  1  9  1  0  0  0  0
  1 11  1  0  0  0  0
  2  1  1  0  0  0  0
  2 12  1  0  0  0  0
  3  5  1  6  0  0  0
  3  4  1  0  0  0  0
  3  2  1  0  0  0  0
  4 16  1  0  0  0  0
  5  7  1  6  0  0  0
  5  4  1  0  0  0  0
  5  6  1  0  0  0  0
  6 18  1  0  0  0  0
  6 17  1  0  0  0  0
  8  7  3  0  0  0  0
 10  1  1  0  0  0  0
 13  2  1  0  0  0  0
 14  3  1  0  0  0  0
 15  4  1  0  0  0  0
M  END
