title
 OpenBabel02282109593D

 18 18  0  0  1  0  0  0  0  0999 V2000
   -1.2162    2.7347   -1.0633 C   0  0  0  0  0  0  0  0  0  0  0  0
   -0.6504    1.3233   -1.2599 C   0  0  0  0  0  0  0  0  0  0  0  0
   -0.0055    0.7823   -0.0004 C   0  0  1  0  0  0  0  0  0  0  0  0
   -0.8332    0.1335    1.0835 C   0  0  0  0  0  0  0  0  0  0  0  0
    0.1103   -0.7089    0.2341 C   0  0  1  0  0  0  0  0  0  0  0  0
   -0.4574   -1.5140   -0.7671 O   0  0  0  0  0  0  0  0  0  0  0  0
    1.3045   -1.2412    0.8391 C   0  0  0  0  0  0  0  0  0  0  0  0
    2.2862   -1.7151    1.3486 C   0  0  0  0  0  0  0  0  0  0  0  0
   -0.4314    3.4415   -0.7719 H   0  0  0  0  0  0  0  0  0  0  0  0
   -1.6729    3.1063   -1.9858 H   0  0  0  0  0  0  0  0  0  0  0  0
   -1.9806    2.7480   -0.2792 H   0  0  0  0  0  0  0  0  0  0  0  0
   -1.4411    0.6398   -1.5819 H   0  0  0  0  0  0  0  0  0  0  0  0
    0.0923    1.3330   -2.0672 H   0  0  0  0  0  0  0  0  0  0  0  0
    0.8509    1.3522    0.3503 H   0  0  0  0  0  0  0  0  0  0  0  0
   -0.5805    0.3037    2.1235 H   0  0  0  0  0  0  0  0  0  0  0  0
   -1.8884   -0.0156    0.8772 H   0  0  0  0  0  0  0  0  0  0  0  0
   -0.7143   -2.3479   -0.3582 H   0  0  0  0  0  0  0  0  0  0  0  0
    3.1610   -2.1249    1.7891 H   0  0  0  0  0  0  0  0  0  0  0  0
  1  9  1  0  0  0  0
  1 11  1  0  0  0  0
  2  1  1  0  0  0  0
  2  3  1  0  0  0  0
  3  5  1  6  0  0  0
  3 14  1  0  0  0  0
  3  4  1  0  0  0  0
  4 15  1  0  0  0  0
  5  7  1  1  0  0  0
  5  4  1  0  0  0  0
  6 17  1  0  0  0  0
  6  5  1  0  0  0  0
  7  8  3  0  0  0  0
  8 18  1  0  0  0  0
 10  1  1  0  0  0  0
 12  2  1  0  0  0  0
 13  2  1  0  0  0  0
 16  4  1  0  0  0  0
M  END
