18
title
C -1.2161698 2.7346628 -1.063342
C -0.65044504 1.3233424 -1.2599334
C -0.005456008 0.78234625 -0.00035199636
C -0.83323 0.13351344 1.0834635
C 0.11028131 -0.7089082 0.23406139
O -0.45735997 -1.5139774 -0.7670962
C 1.3045336 -1.2412108 0.83905303
C 2.2861607 -1.7150587 1.3486463
H -0.43144315 3.4414978 -0.7719138
H -1.6729463 3.106264 -1.9858037
H -1.9805547 2.748011 -0.27922997
H -1.4410655 0.63977647 -1.5818939
H 0.09231558 1.3329666 -2.0672338
H 0.85094815 1.3521826 0.35026374
H -0.5804677 0.3036516 2.1235077
H -1.8883997 -0.015564581 0.8771535
H -0.71433276 -2.3479223 -0.35815135
H 3.1610405 -2.1248713 1.7891468
