17
title
C 1.4789426 2.7873573 -0.4452945
C 1.3986386 1.355308 0.09600438
C -0.0037593585 0.78907907 0.003987312
C -0.5131953 0.15860848 -1.26735
C -0.22195181 -0.70937365 -0.051347397
O 0.926442 -1.503273 -0.04322955
C -1.3447396 -1.2692683 0.6720254
N -2.2402651 -1.7349346 1.2374634
H 2.497701 3.1776614 -0.36403313
H 1.1846046 2.8295228 -1.4991531
H 0.8182983 3.4612277 0.110748634
H 2.0878756 0.7040917 -0.44882455
H 1.7225984 1.3363785 1.1434649
H -0.7487763 1.3251356 0.5857635
H -1.5449175 0.30662054 -1.5640432
H 0.19421223 0.040798478 -2.081902
H 0.7539731 -2.291229 -0.571415
