19
title
C -1.165344 2.7721434 -0.9472529
C -0.67363995 1.3573 -1.2767496
C 0.027030014 0.7226745 -0.09628433
N -0.8107594 0.120238684 0.94871074
C 0.09899654 -0.75684595 0.16362184
C -0.57649153 -1.7846885 -0.72660863
C 1.2928822 -1.227335 0.82461756
C 2.2761703 -1.6387374 1.3834146
H -0.33263656 3.428462 -0.6707514
H -1.6742424 3.2227786 -1.804524
H -1.8675716 2.7481956 -0.108291805
H -1.522915 0.73880655 -1.5797994
H 0.019883357 1.3894655 -2.1266892
H 0.90176463 1.2765213 0.24428934
H -0.41417813 0.28886387 1.8696698
H -1.5124539 -1.3940775 -1.1277047
H 0.077853404 -2.06876 -1.5564529
H -0.8045955 -2.6860678 -0.15008152
H 3.1479294 -1.9959788 1.8731683
