title
 OpenBabel02282109593D

 19 19  0  0  1  0  0  0  0  0999 V2000
   -1.1653    2.7721   -0.9473 C   0  0  0  0  0  0  0  0  0  0  0  0
   -0.6736    1.3573   -1.2767 C   0  0  0  0  0  0  0  0  0  0  0  0
    0.0270    0.7227   -0.0963 C   0  0  1  0  0  0  0  0  0  0  0  0
   -0.8108    0.1202    0.9487 N   0  0  0  0  0  0  0  0  0  0  0  0
    0.0990   -0.7568    0.1636 C   0  0  1  0  0  0  0  0  0  0  0  0
   -0.5765   -1.7847   -0.7266 C   0  0  0  0  0  0  0  0  0  0  0  0
    1.2929   -1.2273    0.8246 C   0  0  0  0  0  0  0  0  0  0  0  0
    2.2762   -1.6387    1.3834 C   0  0  0  0  0  0  0  0  0  0  0  0
   -0.3326    3.4285   -0.6708 H   0  0  0  0  0  0  0  0  0  0  0  0
   -1.6742    3.2228   -1.8045 H   0  0  0  0  0  0  0  0  0  0  0  0
   -1.8676    2.7482   -0.1083 H   0  0  0  0  0  0  0  0  0  0  0  0
   -1.5229    0.7388   -1.5798 H   0  0  0  0  0  0  0  0  0  0  0  0
    0.0199    1.3895   -2.1267 H   0  0  0  0  0  0  0  0  0  0  0  0
    0.9018    1.2765    0.2443 H   0  0  0  0  0  0  0  0  0  0  0  0
   -0.4142    0.2889    1.8697 H   0  0  0  0  0  0  0  0  0  0  0  0
   -1.5125   -1.3941   -1.1277 H   0  0  0  0  0  0  0  0  0  0  0  0
    0.0779   -2.0688   -1.5565 H   0  0  0  0  0  0  0  0  0  0  0  0
   -0.8046   -2.6861   -0.1501 H   0  0  0  0  0  0  0  0  0  0  0  0
    3.1479   -1.9960    1.8732 H   0  0  0  0  0  0  0  0  0  0  0  0
  1  9  1  0  0  0  0
  1 11  1  0  0  0  0
  2  1  1  0  0  0  0
  2  3  1  0  0  0  0
  3  5  1  6  0  0  0
  3 14  1  0  0  0  0
  3  4  1  0  0  0  0
  4 15  1  0  0  0  0
  5  7  1  1  0  0  0
  5  4  1  0  0  0  0
  6 18  1  0  0  0  0
  6  5  1  0  0  0  0
  7  8  3  0  0  0  0
  8 19  1  0  0  0  0
 10  1  1  0  0  0  0
 12  2  1  0  0  0  0
 13  2  1  0  0  0  0
 16  6  1  0  0  0  0
 17  6  1  0  0  0  0
M  END
