title
 OpenBabel02282109593D

 18 18  0  0  1  0  0  0  0  0999 V2000
   -0.3241    2.7886    1.4580 C   0  0  0  0  0  0  0  0  0  0  0  0
   -0.8074    1.3538    1.2133 C   0  0  0  0  0  0  0  0  0  0  0  0
   -0.1078    0.7293    0.0272 C   0  0  1  0  0  0  0  0  0  0  0  0
    1.2241    0.1556    0.2431 N   0  0  0  0  0  0  0  0  0  0  0  0
    0.1151   -0.7502   -0.1375 C   0  0  1  0  0  0  0  0  0  0  0  0
   -0.3023   -1.7920    0.8828 C   0  0  0  0  0  0  0  0  0  0  0  0
    0.1040   -1.2223   -1.5074 C   0  0  0  0  0  0  0  0  0  0  0  0
    0.1074   -1.6077   -2.5985 N   0  0  0  0  0  0  0  0  0  0  0  0
    0.7521    2.8039    1.6553 H   0  0  0  0  0  0  0  0  0  0  0  0
   -0.5173    3.4274    0.5892 H   0  0  0  0  0  0  0  0  0  0  0  0
   -0.8338    3.2322    2.3179 H   0  0  0  0  0  0  0  0  0  0  0  0
   -0.6290    0.7508    2.1077 H   0  0  0  0  0  0  0  0  0  0  0  0
   -1.8890    1.3470    1.0297 H   0  0  0  0  0  0  0  0  0  0  0  0
   -0.2588    1.2675   -0.9084 H   0  0  0  0  0  0  0  0  0  0  0  0
    1.8368    0.3288   -0.5497 H   0  0  0  0  0  0  0  0  0  0  0  0
   -0.2080   -1.3911    1.8922 H   0  0  0  0  0  0  0  0  0  0  0  0
   -1.3367   -2.1070    0.7171 H   0  0  0  0  0  0  0  0  0  0  0  0
    0.3407   -2.6735    0.8062 H   0  0  0  0  0  0  0  0  0  0  0  0
  1  9  1  0  0  0  0
  1 11  1  0  0  0  0
  2  1  1  0  0  0  0
  2 12  1  0  0  0  0
  3  5  1  6  0  0  0
  3  4  1  0  0  0  0
  3  2  1  0  0  0  0
  5  7  1  6  0  0  0
  5  4  1  0  0  0  0
  5  6  1  0  0  0  0
  6 16  1  0  0  0  0
  8  7  3  0  0  0  0
 10  1  1  0  0  0  0
 13  2  1  0  0  0  0
 14  3  1  0  0  0  0
 15  4  1  0  0  0  0
 17  6  1  0  0  0  0
 18  6  1  0  0  0  0
M  END
