title
 OpenBabel02282109593D

 18 18  0  0  1  0  0  0  0  0999 V2000
   -1.2304    2.7226   -0.9247 C   0  0  0  0  0  0  0  0  0  0  0  0
   -0.6550    1.3544   -1.3150 C   0  0  0  0  0  0  0  0  0  0  0  0
    0.0886    0.7215   -0.1635 C   0  0  1  0  0  0  0  0  0  0  0  0
   -0.6815    0.1912    0.9184 O   0  0  0  0  0  0  0  0  0  0  0  0
    0.1229   -0.7296    0.1509 C   0  0  1  0  0  0  0  0  0  0  0  0
   -0.6343   -1.7737   -0.6446 C   0  0  0  0  0  0  0  0  0  0  0  0
    1.2896   -1.2375    0.8421 C   0  0  0  0  0  0  0  0  0  0  0  0
    2.2573   -1.6869    1.3960 C   0  0  0  0  0  0  0  0  0  0  0  0
   -0.4380    3.4130   -0.6165 H   0  0  0  0  0  0  0  0  0  0  0  0
   -1.7636    3.1774   -1.7644 H   0  0  0  0  0  0  0  0  0  0  0  0
   -1.9297    2.6205   -0.0897 H   0  0  0  0  0  0  0  0  0  0  0  0
   -1.4618    0.6988   -1.6530 H   0  0  0  0  0  0  0  0  0  0  0  0
    0.0422    1.4662   -2.1554 H   0  0  0  0  0  0  0  0  0  0  0  0
    0.9575    1.2932    0.1716 H   0  0  0  0  0  0  0  0  0  0  0  0
   -1.5258   -1.3486   -1.1067 H   0  0  0  0  0  0  0  0  0  0  0  0
    0.0063   -2.1989   -1.4231 H   0  0  0  0  0  0  0  0  0  0  0  0
   -0.9451   -2.5870    0.0176 H   0  0  0  0  0  0  0  0  0  0  0  0
    3.1126   -2.0739    1.8926 H   0  0  0  0  0  0  0  0  0  0  0  0
  1  9  1  0  0  0  0
  1 11  1  0  0  0  0
  2  1  1  0  0  0  0
  2  3  1  0  0  0  0
  3  5  1  6  0  0  0
  3 14  1  0  0  0  0
  3  4  1  0  0  0  0
  5  7  1  1  0  0  0
  5  4  1  0  0  0  0
  6 17  1  0  0  0  0
  6  5  1  0  0  0  0
  7  8  3  0  0  0  0
  8 18  1  0  0  0  0
 10  1  1  0  0  0  0
 12  2  1  0  0  0  0
 13  2  1  0  0  0  0
 15  6  1  0  0  0  0
 16  6  1  0  0  0  0
M  END
