19
title
C -1.0412674 2.792158 -0.74703753
C -0.66480047 1.3512316 -1.0860399
N -0.081451595 0.706133 0.0866071
C -0.95246416 -0.039138395 0.97646534
C 0.06572902 -0.7615027 0.13727069
C -0.40458727 -1.65854 -0.99992406
C 1.2925627 -1.2098513 0.75832975
C 2.3042495 -1.6241431 1.2587647
H -0.16644472 3.3440385 -0.3931237
H -1.4465576 3.3013012 -1.6269348
H -1.8008547 2.821499 0.041076306
H -1.5523964 0.8240642 -1.4723288
H 0.08885276 1.3398898 -1.881977
H -0.7880365 0.09785585 2.0415468
H -1.9946524 -0.17541285 0.68443406
H -1.3767283 -1.3509605 -1.3892397
H 0.3186711 -1.6545246 -1.8214762
H -0.49421462 -2.6879425 -0.6415897
H 3.20168 -1.971637 1.707299
