title
 OpenBabel02282109593D

 18 18  0  0  1  0  0  0  0  0999 V2000
   -0.1937    2.7976    1.2735 C   0  0  0  0  0  0  0  0  0  0  0  0
   -0.6383    1.3442    1.1288 C   0  0  0  0  0  0  0  0  0  0  0  0
    0.1014    0.7110    0.0382 N   0  0  0  0  0  0  0  0  0  0  0  0
    1.3279   -0.0008    0.3377 C   0  0  0  0  0  0  0  0  0  0  0  0
    0.1019   -0.7522   -0.1020 C   0  0  1  0  0  0  0  0  0  0  0  0
   -0.6202   -1.6807    0.8622 C   0  0  0  0  0  0  0  0  0  0  0  0
    0.0303   -1.1919   -1.4854 C   0  0  0  0  0  0  0  0  0  0  0  0
   -0.0296   -1.5749   -2.5746 N   0  0  0  0  0  0  0  0  0  0  0  0
    0.8680    2.8576    1.5335 H   0  0  0  0  0  0  0  0  0  0  0  0
   -0.3443    3.3402    0.3367 H   0  0  0  0  0  0  0  0  0  0  0  0
   -0.7644    3.2944    2.0637 H   0  0  0  0  0  0  0  0  0  0  0  0
   -0.5102    0.8229    2.0909 H   0  0  0  0  0  0  0  0  0  0  0  0
   -1.7031    1.3007    0.8746 H   0  0  0  0  0  0  0  0  0  0  0  0
    2.1571    0.1519   -0.3470 H   0  0  0  0  0  0  0  0  0  0  0  0
    1.6081   -0.1363    1.3828 H   0  0  0  0  0  0  0  0  0  0  0  0
   -0.4633   -1.3803    1.8990 H   0  0  0  0  0  0  0  0  0  0  0  0
   -1.6954   -1.6943    0.6598 H   0  0  0  0  0  0  0  0  0  0  0  0
   -0.2443   -2.7009    0.7450 H   0  0  0  0  0  0  0  0  0  0  0  0
  1  9  1  0  0  0  0
  1 11  1  0  0  0  0
  2  1  1  0  0  0  0
  2 12  1  0  0  0  0
  3  4  1  0  0  0  0
  3  2  1  0  0  0  0
  4 15  1  0  0  0  0
  5  7  1  6  0  0  0
  5  3  1  0  0  0  0
  5  4  1  0  0  0  0
  5  6  1  0  0  0  0
  6 16  1  0  0  0  0
  8  7  3  0  0  0  0
 10  1  1  0  0  0  0
 13  2  1  0  0  0  0
 14  4  1  0  0  0  0
 17  6  1  0  0  0  0
 18  6  1  0  0  0  0
M  END
