18
title
C -0.19374427 2.7975585 1.2734509
C -0.6382844 1.3441721 1.1288253
N 0.101442724 0.7109525 0.03817107
C 1.3279079 -0.0008437748 0.33767578
C 0.10190186 -0.7521893 -0.10202847
C -0.6202343 -1.6807395 0.8621907
C 0.030257285 -1.1918803 -1.4854387
N -0.029563874 -1.5749105 -2.5745566
H 0.8680327 2.8576348 1.5334944
H -0.34433597 3.3401964 0.33667925
H -0.7643539 3.2943966 2.0637045
H -0.5102249 0.8228938 2.090873
H -1.703096 1.3007096 0.8745527
H 2.1570742 0.15193675 -0.34698388
H 1.608103 -0.13628282 1.3828156
H -0.46325886 -1.3802668 1.899041
H -1.6954398 -1.69427 0.65982467
H -0.24430683 -2.700949 0.74497193
