title
 OpenBabel02282109593D

 16 16  0  0  1  0  0  0  0  0999 V2000
    1.5426    2.4509   -0.9375 C   0  0  0  0  0  0  0  0  0  0  0  0
    1.2052    1.4104    0.0260 N   0  0  0  0  0  0  0  0  0  0  0  0
   -0.0696    0.8070   -0.1865 C   0  0  1  0  0  0  0  0  0  0  0  0
   -0.3639   -0.1502   -1.3317 C   0  0  0  0  0  0  0  0  0  0  0  0
   -0.2114   -0.6717    0.0928 C   0  0  1  0  0  0  0  0  0  0  0  0
    0.9747   -1.3250    0.4390 O   0  0  0  0  0  0  0  0  0  0  0  0
   -1.3883   -1.1474    0.7886 C   0  0  0  0  0  0  0  0  0  0  0  0
   -2.3285   -1.5475    1.3306 N   0  0  0  0  0  0  0  0  0  0  0  0
    2.5397    2.8384   -0.7122 H   0  0  0  0  0  0  0  0  0  0  0  0
    1.5265    2.1162   -1.9889 H   0  0  0  0  0  0  0  0  0  0  0  0
    0.8342    3.2815   -0.8443 H   0  0  0  0  0  0  0  0  0  0  0  0
    1.9218    0.6956    0.0703 H   0  0  0  0  0  0  0  0  0  0  0  0
   -0.9073    1.4229    0.1319 H   0  0  0  0  0  0  0  0  0  0  0  0
   -1.3502   -0.1609   -1.7816 H   0  0  0  0  0  0  0  0  0  0  0  0
    0.4591   -0.4032   -1.9918 H   0  0  0  0  0  0  0  0  0  0  0  0
    0.9593   -2.2098    0.0563 H   0  0  0  0  0  0  0  0  0  0  0  0
  1 11  1  0  0  0  0
  1  9  1  0  0  0  0
  1  2  1  0  0  0  0
  2 12  1  0  0  0  0
  3  2  1  0  0  0  0
  3  5  1  1  0  0  0
  3 13  1  0  0  0  0
  4  3  1  0  0  0  0
  4  5  1  0  0  0  0
  5  6  1  0  0  0  0
  5  7  1  1  0  0  0
  7  8  3  0  0  0  0
 10  1  1  0  0  0  0
 14  4  1  0  0  0  0
 15  4  1  0  0  0  0
 16  6  1  0  0  0  0
M  END
