16
title
C 1.5425844 2.4509273 -0.9374911
N 1.2052395 1.4103969 0.026042452
C -0.069596745 0.8069658 -0.18650083
C -0.36389527 -0.15015501 -1.3317161
C -0.21137844 -0.6717424 0.0928021
O 0.9746818 -1.3250002 0.43895227
C -1.3882632 -1.1473745 0.7886273
N -2.3284562 -1.5474976 1.3306174
H 2.5397308 2.8383706 -0.7122098
H 1.5264775 2.116234 -1.9889468
H 0.8341796 3.2815347 -0.8442568
H 1.9218026 0.69564295 0.0703054
H -0.9072931 1.4229245 0.13188373
H -1.3502176 -0.1609003 -1.7816076
H 0.45914242 -0.40324837 -1.9918338
H 0.9592626 -2.209785 0.056275237
