title
 OpenBabel02282109593D

 16 16  0  0  1  0  0  0  0  0999 V2000
    1.3108    2.2721   -0.0964 C   0  0  0  0  0  0  0  0  0  0  0  0
    1.1388    1.1558   -0.9656 O   0  0  0  0  0  0  0  0  0  0  0  0
   -0.0854    0.5316   -0.8010 C   0  0  1  0  0  0  0  0  0  0  0  0
   -0.2418   -0.8332   -1.3770 C   0  0  0  0  0  0  0  0  0  0  0  0
   -0.1388   -0.6705    0.1510 C   0  0  1  0  0  0  0  0  0  0  0  0
    1.0699   -0.9937    0.8618 N   0  0  0  0  0  0  0  0  0  0  0  0
   -1.3532   -0.8528    0.9088 C   0  0  0  0  0  0  0  0  0  0  0  0
   -2.3440   -0.9982    1.4885 N   0  0  0  0  0  0  0  0  0  0  0  0
    2.2901    2.6978   -0.3223 H   0  0  0  0  0  0  0  0  0  0  0  0
    0.5377    3.0314   -0.2757 H   0  0  0  0  0  0  0  0  0  0  0  0
    1.2750    1.9683    0.9570 H   0  0  0  0  0  0  0  0  0  0  0  0
   -0.9473    1.1978   -0.8015 H   0  0  0  0  0  0  0  0  0  0  0  0
   -1.1958   -1.1000   -1.8167 H   0  0  0  0  0  0  0  0  0  0  0  0
    0.6323   -1.2686   -1.8486 H   0  0  0  0  0  0  0  0  0  0  0  0
    1.2469   -1.9929    0.8419 H   0  0  0  0  0  0  0  0  0  0  0  0
    1.8488   -0.5285    0.4059 H   0  0  0  0  0  0  0  0  0  0  0  0
  1 11  1  0  0  0  0
  2  3  1  0  0  0  0
  2  1  1  0  0  0  0
  3  5  1  1  0  0  0
  4  3  1  0  0  0  0
  4  5  1  0  0  0  0
  5  6  1  0  0  0  0
  5  7  1  1  0  0  0
  7  8  3  0  0  0  0
  9  1  1  0  0  0  0
 10  1  1  0  0  0  0
 12  3  1  0  0  0  0
 13  4  1  0  0  0  0
 14  4  1  0  0  0  0
 15  6  1  0  0  0  0
 16  6  1  0  0  0  0
M  END
