title
 OpenBabel02282109593D

 16 16  0  0  1  0  0  0  0  0999 V2000
   -0.6420    2.1810    1.1689 C   0  0  0  0  0  0  0  0  0  0  0  0
    0.3376    1.1946    1.4585 O   0  0  0  0  0  0  0  0  0  0  0  0
    0.7838    0.5297    0.3351 C   0  0  1  0  0  0  0  0  0  0  0  0
    1.2681   -0.8698    0.5335 C   0  0  0  0  0  0  0  0  0  0  0  0
   -0.0426   -0.6324   -0.2191 C   0  0  1  0  0  0  0  0  0  0  0  0
   -1.2375   -0.8725    0.4692 O   0  0  0  0  0  0  0  0  0  0  0  0
   -0.0786   -0.8467   -1.6404 C   0  0  0  0  0  0  0  0  0  0  0  0
   -0.1147   -1.0414   -2.8275 C   0  0  0  0  0  0  0  0  0  0  0  0
   -0.2528    2.9376    0.4714 H   0  0  0  0  0  0  0  0  0  0  0  0
   -1.5444    1.7292    0.7416 H   0  0  0  0  0  0  0  0  0  0  0  0
   -0.8896    2.6659    2.1156 H   0  0  0  0  0  0  0  0  0  0  0  0
    1.2808    1.1522   -0.4106 H   0  0  0  0  0  0  0  0  0  0  0  0
    2.1341   -1.2177   -0.0167 H   0  0  0  0  0  0  0  0  0  0  0  0
    1.1441   -1.2629    1.5363 H   0  0  0  0  0  0  0  0  0  0  0  0
   -1.4249   -1.8162    0.4147 H   0  0  0  0  0  0  0  0  0  0  0  0
   -0.1514   -1.2028   -3.8764 H   0  0  0  0  0  0  0  0  0  0  0  0
  1  2  1  0  0  0  0
  1 11  1  0  0  0  0
  3  5  1  6  0  0  0
  3  4  1  0  0  0  0
  3  2  1  0  0  0  0
  4 14  1  0  0  0  0
  5  7  1  6  0  0  0
  5  6  1  0  0  0  0
  5  4  1  0  0  0  0
  8  7  3  0  0  0  0
  9  1  1  0  0  0  0
 10  1  1  0  0  0  0
 12  3  1  0  0  0  0
 13  4  1  0  0  0  0
 15  6  1  0  0  0  0
 16  8  1  0  0  0  0
M  END
