15
title
C -0.6316749 2.1884143 1.1947014
O 0.3346375 1.1821293 1.4733336
C 0.784564 0.5338453 0.34771588
C 1.2726258 -0.86410064 0.5286976
C -0.048789565 -0.6325603 -0.20197426
O -1.2427818 -0.8838424 0.46669552
C -0.08367855 -0.8273297 -1.6332703
N -0.11072024 -0.9852082 -2.7794871
H -0.22860187 2.9476 0.5093739
H -1.5392134 1.7547336 0.7598578
H -0.8735117 2.6613612 2.1482084
H 1.2691962 1.1624454 -0.40071532
H 2.1309807 -1.2072436 -0.036160335
H 1.1611443 -1.2709266 1.5276318
H -1.3748839 -1.8377417 0.51235306
