title
 OpenBabel02282109593D

 16 16  0  0  1  0  0  0  0  0999 V2000
    1.5359    1.8920    0.5772 O   0  0  0  0  0  0  0  0  0  0  0  0
    1.1345    1.4884   -0.7186 C   0  0  0  0  0  0  0  0  0  0  0  0
   -0.2007    0.7663   -0.7078 C   0  0  1  0  0  0  0  0  0  0  0  0
   -0.4180   -0.4447   -1.5832 C   0  0  0  0  0  0  0  0  0  0  0  0
   -0.2473   -0.6096   -0.0812 C   0  0  1  0  0  0  0  0  0  0  0  0
    1.0025   -1.0517    0.3980 O   0  0  0  0  0  0  0  0  0  0  0  0
   -1.3773   -1.0036    0.7171 C   0  0  0  0  0  0  0  0  0  0  0  0
   -2.3082   -1.3697    1.3855 C   0  0  0  0  0  0  0  0  0  0  0  0
    1.6652    1.0793    1.0805 H   0  0  0  0  0  0  0  0  0  0  0  0
    1.0514    2.4024   -1.3161 H   0  0  0  0  0  0  0  0  0  0  0  0
    1.8936    0.8518   -1.1930 H   0  0  0  0  0  0  0  0  0  0  0  0
   -1.0629    1.3924   -0.5040 H   0  0  0  0  0  0  0  0  0  0  0  0
   -1.3981   -0.6238   -2.0090 H   0  0  0  0  0  0  0  0  0  0  0  0
    0.4211   -0.7735   -2.1879 H   0  0  0  0  0  0  0  0  0  0  0  0
    0.9858   -2.0140    0.4427 H   0  0  0  0  0  0  0  0  0  0  0  0
   -3.1305   -1.6757    1.9837 H   0  0  0  0  0  0  0  0  0  0  0  0
  1  9  1  0  0  0  0
  2  3  1  0  0  0  0
  2  1  1  0  0  0  0
  3 12  1  0  0  0  0
  3  5  1  1  0  0  0
  4  3  1  0  0  0  0
  4  5  1  0  0  0  0
  5  6  1  0  0  0  0
  5  7  1  1  0  0  0
  6 15  1  0  0  0  0
  7  8  3  0  0  0  0
  8 16  1  0  0  0  0
 10  2  1  0  0  0  0
 11  2  1  0  0  0  0
 13  4  1  0  0  0  0
 14  4  1  0  0  0  0
M  END
