title
 OpenBabel02282109593D

 16 16  0  0  1  0  0  0  0  0999 V2000
   -0.2075    1.6906   -0.8491 C   0  0  0  0  0  0  0  0  0  0  0  0
   -0.2958    0.2118   -0.5708 C   0  0  1  0  0  0  0  0  0  0  0  0
    0.9164   -0.5702   -0.5924 O   0  0  0  0  0  0  0  0  0  0  0  0
    0.2231   -0.4556    0.6500 C   0  0  1  0  0  0  0  0  0  0  0  0
    0.9435    0.2553    1.7714 C   0  0  0  0  0  0  0  0  0  0  0  0
    1.8905   -0.6036    2.3820 O   0  0  0  0  0  0  0  0  0  0  0  0
   -1.4289   -0.5162   -1.2401 C   0  0  0  0  0  0  0  0  0  0  0  0
   -2.3583    0.0283   -1.7769 O   0  0  0  0  0  0  0  0  0  0  0  0
    0.6623    2.1419   -0.3719 H   0  0  0  0  0  0  0  0  0  0  0  0
   -0.1406    1.8607   -1.9274 H   0  0  0  0  0  0  0  0  0  0  0  0
   -1.1134    2.1904   -0.4958 H   0  0  0  0  0  0  0  0  0  0  0  0
   -0.2595   -1.3833    0.9673 H   0  0  0  0  0  0  0  0  0  0  0  0
    1.4119    1.1772    1.4052 H   0  0  0  0  0  0  0  0  0  0  0  0
    0.2261    0.5253    2.5537 H   0  0  0  0  0  0  0  0  0  0  0  0
    2.5397   -0.8382    1.7095 H   0  0  0  0  0  0  0  0  0  0  0  0
   -1.3244   -1.6231   -1.2003 H   0  0  0  0  0  0  0  0  0  0  0  0
  1  2  1  0  0  0  0
  1 11  1  0  0  0  0
  1  9  1  0  0  0  0
  2  4  1  1  0  0  0
  3  2  1  0  0  0  0
  3  4  1  0  0  0  0
  4 12  1  1  0  0  0
  4  5  1  0  0  0  0
  5  6  1  0  0  0  0
  5 14  1  0  0  0  0
  7 16  1  0  0  0  0
  7  2  1  0  0  0  0
  8  7  2  0  0  0  0
 10  1  1  0  0  0  0
 13  5  1  0  0  0  0
 15  6  1  0  0  0  0
M  END
