20
title
C -0.4129407 2.8215218 1.3023994
C -0.84534734 1.3590299 1.1335545
C -0.039495666 0.6533058 0.06315349
C 1.2541375 -0.027556844 0.35774368
C 0.04475115 -0.8768839 -0.033718836
C -0.619506 -1.786123 0.98115075
C 0.07240336 -1.3961558 -1.4290057
O 0.58801186 -0.83459157 -2.367656
H 0.6413131 2.8890846 1.5896931
H -0.53804094 3.3800857 0.36871654
H -1.0073373 3.3211787 2.0734234
H -0.7418093 0.83930415 2.0924323
H -1.9116716 1.3218267 0.8761277
H -0.08353306 1.1232705 -0.9167925
H 2.0517697 0.040247135 -0.37354565
H 1.5720639 -0.10158188 1.3933803
H -0.5415436 -1.389157 1.9950738
H -1.6840843 -1.9263158 0.76139545
H -0.14822407 -2.7755432 0.98318034
H -0.43591037 -2.3783998 -1.5666248
