title
 OpenBabel02282109593D

 20 20  0  0  1  0  0  0  0  0999 V2000
   -0.4129    2.8215    1.3024 C   0  0  0  0  0  0  0  0  0  0  0  0
   -0.8453    1.3590    1.1336 C   0  0  0  0  0  0  0  0  0  0  0  0
   -0.0395    0.6533    0.0632 C   0  0  1  0  0  0  0  0  0  0  0  0
    1.2541   -0.0276    0.3577 C   0  0  0  0  0  0  0  0  0  0  0  0
    0.0448   -0.8769   -0.0337 C   0  0  1  0  0  0  0  0  0  0  0  0
   -0.6195   -1.7861    0.9812 C   0  0  0  0  0  0  0  0  0  0  0  0
    0.0724   -1.3962   -1.4290 C   0  0  0  0  0  0  0  0  0  0  0  0
    0.5880   -0.8346   -2.3677 O   0  0  0  0  0  0  0  0  0  0  0  0
    0.6413    2.8891    1.5897 H   0  0  0  0  0  0  0  0  0  0  0  0
   -0.5380    3.3801    0.3687 H   0  0  0  0  0  0  0  0  0  0  0  0
   -1.0073    3.3212    2.0734 H   0  0  0  0  0  0  0  0  0  0  0  0
   -0.7418    0.8393    2.0924 H   0  0  0  0  0  0  0  0  0  0  0  0
   -1.9117    1.3218    0.8761 H   0  0  0  0  0  0  0  0  0  0  0  0
   -0.0835    1.1233   -0.9168 H   0  0  0  0  0  0  0  0  0  0  0  0
    2.0518    0.0402   -0.3735 H   0  0  0  0  0  0  0  0  0  0  0  0
    1.5721   -0.1016    1.3934 H   0  0  0  0  0  0  0  0  0  0  0  0
   -0.5415   -1.3892    1.9951 H   0  0  0  0  0  0  0  0  0  0  0  0
   -1.6841   -1.9263    0.7614 H   0  0  0  0  0  0  0  0  0  0  0  0
   -0.1482   -2.7755    0.9832 H   0  0  0  0  0  0  0  0  0  0  0  0
   -0.4359   -2.3784   -1.5666 H   0  0  0  0  0  0  0  0  0  0  0  0
  1  9  1  0  0  0  0
  1 11  1  0  0  0  0
  2  1  1  0  0  0  0
  2 12  1  0  0  0  0
  3  5  1  6  0  0  0
  3  4  1  0  0  0  0
  3  2  1  0  0  0  0
  4 16  1  0  0  0  0
  5  7  1  6  0  0  0
  5  4  1  0  0  0  0
  5  6  1  0  0  0  0
  6 19  1  0  0  0  0
  6 17  1  0  0  0  0
  8  7  2  0  0  0  0
 10  1  1  0  0  0  0
 13  2  1  0  0  0  0
 14  3  1  0  0  0  0
 15  4  1  0  0  0  0
 18  6  1  0  0  0  0
 20  7  1  0  0  0  0
M  END
