title
 OpenBabel02282109593D

 18 18  0  0  1  0  0  0  0  0999 V2000
    1.3514    2.8259   -0.2843 C   0  0  0  0  0  0  0  0  0  0  0  0
    1.3504    1.3866    0.2448 C   0  0  0  0  0  0  0  0  0  0  0  0
    0.0172    0.7015    0.0370 C   0  0  1  0  0  0  0  0  0  0  0  0
   -0.3277    0.0435   -1.2638 C   0  0  0  0  0  0  0  0  0  0  0  0
   -0.0624   -0.8204   -0.0385 C   0  0  1  0  0  0  0  0  0  0  0  0
    1.1378   -1.5285    0.0699 O   0  0  0  0  0  0  0  0  0  0  0  0
   -1.2321   -1.4599    0.6234 C   0  0  0  0  0  0  0  0  0  0  0  0
   -2.3543   -1.0124    0.6156 O   0  0  0  0  0  0  0  0  0  0  0  0
    2.3220    3.3031   -0.1179 H   0  0  0  0  0  0  0  0  0  0  0  0
    1.1415    2.8522   -1.3586 H   0  0  0  0  0  0  0  0  0  0  0  0
    0.5902    3.4341    0.2162 H   0  0  0  0  0  0  0  0  0  0  0  0
    2.1365    0.8021   -0.2426 H   0  0  0  0  0  0  0  0  0  0  0  0
    1.5908    1.3876    1.3150 H   0  0  0  0  0  0  0  0  0  0  0  0
   -0.8259    1.1423    0.5633 H   0  0  0  0  0  0  0  0  0  0  0  0
   -1.3525    0.0815   -1.6162 H   0  0  0  0  0  0  0  0  0  0  0  0
    0.4412    0.0123   -2.0297 H   0  0  0  0  0  0  0  0  0  0  0  0
    1.1731   -2.1801   -0.6381 H   0  0  0  0  0  0  0  0  0  0  0  0
   -0.9756   -2.4074    1.1486 H   0  0  0  0  0  0  0  0  0  0  0  0
  1  9  1  0  0  0  0
  1 11  1  0  0  0  0
  1  2  1  0  0  0  0
  2 13  1  0  0  0  0
  3  5  1  1  0  0  0
  3  2  1  0  0  0  0
  3 14  1  0  0  0  0
  4  5  1  0  0  0  0
  4  3  1  0  0  0  0
  5  6  1  1  0  0  0
  5  7  1  0  0  0  0
  7 18  1  0  0  0  0
  8  7  2  0  0  0  0
 10  1  1  0  0  0  0
 12  2  1  0  0  0  0
 15  4  1  0  0  0  0
 16  4  1  0  0  0  0
 17  6  1  0  0  0  0
M  END
