18
title
C 1.3514148 2.82593 -0.28428602
C 1.3503621 1.3865843 0.24479333
C 0.017170873 0.70147544 0.03697034
C -0.3277488 0.043536052 -1.2637664
C -0.06239346 -0.82036257 -0.03853797
O 1.1378096 -1.5284584 0.06985019
C -1.2321426 -1.4598982 0.62339514
O -2.3543332 -1.0124273 0.615608
H 2.3220356 3.3030648 -0.11790198
H 1.1414974 2.852245 -1.3586354
H 0.5902376 3.434054 0.21622425
H 2.136496 0.80207425 -0.24258511
H 1.590759 1.3876085 1.3150171
H -0.825911 1.1422744 0.5632925
H -1.3525094 0.08149074 -1.616152
H 0.44115064 0.012262927 -2.0296507
H 1.173076 -2.1801012 -0.6380662
H -0.97562116 -2.4073968 1.1485664
