19
title
C 1.2622612 2.8293498 -0.36544877
C 1.4067677 1.4053475 0.18726155
C 0.09613762 0.65533525 0.12285615
N -0.26707974 0.015825108 -1.1359066
C -0.013821983 -0.85158867 0.02834913
C 1.1778667 -1.7819716 -0.011415588
C -1.2380735 -1.3922235 0.69291973
O -2.352211 -0.9624664 0.4995347
H 2.2134967 3.3674986 -0.3176811
H 0.9362903 2.8040936 -1.409607
H 0.5239024 3.4040987 0.20424905
H 2.1676145 0.8689233 -0.38645494
H 1.7503167 1.4405951 1.2288301
H -0.718933 1.1244168 0.6745808
H -1.278886 0.06693514 -1.2619584
H 2.0459251 -1.297202 -0.45829645
H 1.449646 -2.111984 0.9974987
H 0.95315915 -2.6721215 -0.6088993
H -1.0636085 -2.2369764 1.3944068
