18
title
C -1.2184775 2.8780055 -0.84686327
C -0.4332292 1.6081939 -1.2011478
C -0.019034518 0.85013944 0.03757851
O -1.0048488 0.082373224 0.7205041
C 0.09799628 -0.6298091 0.1219254
C -0.18871559 -1.5767952 -1.0143361
C 1.0655735 -1.121324 1.159826
O 1.773205 -2.0864959 1.0267489
H -0.62222946 3.5540912 -0.22472687
H -1.5072426 3.4221299 -1.7504956
H -2.1282513 2.6268332 -0.29376194
H -1.0385542 0.96780455 -1.847575
H 0.4723869 1.8703166 -1.7627716
H 0.61691505 1.4288653 0.7149245
H -0.91752195 -1.1627339 -1.711105
H 0.7359031 -1.8055536 -1.5511569
H -0.5808251 -2.5198314 -0.6226122
H 1.0660177 -0.5040093 2.0860653
