19
title
C 1.2008345 2.9265413 -0.35192892
C 1.2689322 1.4563668 0.054831706
N -0.04911822 0.8403065 -0.08809741
C -0.3780884 0.19259612 -1.3363485
C -0.17384607 -0.630366 -0.08850172
C 1.0028702 -1.5735586 0.033718385
C -1.420893 -1.0663254 0.6165061
O -1.5777743 -2.1505806 1.119277
H 2.1725595 3.4089794 -0.20962524
H 0.9234892 3.028068 -1.4062215
H 0.45518047 3.4570081 0.24633472
H 2.0428288 0.94481164 -0.53901404
H 1.561787 1.3723738 1.1075288
H -1.374052 0.37569582 -1.7335802
H 0.40182078 0.08698921 -2.0908098
H 1.8239228 -1.3018067 -0.63144565
H 1.3789288 -1.5985382 1.0614845
H 0.6770281 -2.5870223 -0.21327007
H -2.209723 -0.28223628 0.63791496
