19
title
C -0.23272426 1.7563852 -0.6592346
C -0.4008365 0.27200943 -0.40263444
C -1.6435003 -0.33838212 -1.0340331
O -1.5882181 -0.38698772 -2.4524455
N 0.8369893 -0.5276789 -0.44986764
C 0.105971664 -0.40296724 0.82811886
C 0.885797 0.2597142 1.9413632
O 1.9677927 -0.5609327 2.349162
H 0.7195265 2.1250799 -0.27723387
H -0.24071647 1.9580005 -1.7370261
H -1.043444 2.3327146 -0.19952075
H -1.7464713 -1.3800546 -0.71140474
H -2.5382795 0.20276764 -0.6874565
H -1.6530993 0.51167077 -2.789197
H 0.6577889 -1.4270496 -0.8901898
H -0.45393947 -1.2782718 1.1566856
H 1.238157 1.2527739 1.6307942
H 0.2492863 0.39379072 2.8225532
H 2.471036 -0.74415165 1.5464417
