title
 OpenBabel02282109593D

 19 19  0  0  1  0  0  0  0  0999 V2000
   -0.2327    1.7564   -0.6592 C   0  0  0  0  0  0  0  0  0  0  0  0
   -0.4008    0.2720   -0.4026 C   0  0  1  0  0  0  0  0  0  0  0  0
   -1.6435   -0.3384   -1.0340 C   0  0  0  0  0  0  0  0  0  0  0  0
   -1.5882   -0.3870   -2.4524 O   0  0  0  0  0  0  0  0  0  0  0  0
    0.8370   -0.5277   -0.4499 N   0  0  0  0  0  0  0  0  0  0  0  0
    0.1060   -0.4030    0.8281 C   0  0  1  0  0  0  0  0  0  0  0  0
    0.8858    0.2597    1.9414 C   0  0  0  0  0  0  0  0  0  0  0  0
    1.9678   -0.5609    2.3492 O   0  0  0  0  0  0  0  0  0  0  0  0
    0.7195    2.1251   -0.2772 H   0  0  0  0  0  0  0  0  0  0  0  0
   -0.2407    1.9580   -1.7370 H   0  0  0  0  0  0  0  0  0  0  0  0
   -1.0434    2.3327   -0.1995 H   0  0  0  0  0  0  0  0  0  0  0  0
   -1.7465   -1.3801   -0.7114 H   0  0  0  0  0  0  0  0  0  0  0  0
   -2.5383    0.2028   -0.6875 H   0  0  0  0  0  0  0  0  0  0  0  0
   -1.6531    0.5117   -2.7892 H   0  0  0  0  0  0  0  0  0  0  0  0
    0.6578   -1.4270   -0.8902 H   0  0  0  0  0  0  0  0  0  0  0  0
   -0.4539   -1.2783    1.1567 H   0  0  0  0  0  0  0  0  0  0  0  0
    1.2382    1.2528    1.6308 H   0  0  0  0  0  0  0  0  0  0  0  0
    0.2493    0.3938    2.8226 H   0  0  0  0  0  0  0  0  0  0  0  0
    2.4710   -0.7442    1.5464 H   0  0  0  0  0  0  0  0  0  0  0  0
  1  2  1  0  0  0  0
  1  9  1  0  0  0  0
  1 11  1  0  0  0  0
  2  6  1  1  0  0  0
  3 12  1  0  0  0  0
  3 13  1  0  0  0  0
  3  2  1  0  0  0  0
  4  3  1  0  0  0  0
  5  2  1  0  0  0  0
  5  6  1  0  0  0  0
  6 16  1  1  0  0  0
  6  7  1  0  0  0  0
  7  8  1  0  0  0  0
  7 18  1  0  0  0  0
 10  1  1  0  0  0  0
 14  4  1  0  0  0  0
 15  5  1  0  0  0  0
 17  7  1  0  0  0  0
 19  8  1  0  0  0  0
M  END
