22
title
C 1.0709912 2.720113 -0.2804804
C 1.0165663 1.3010011 0.3020448
C -0.36374035 0.6565293 0.23151149
C -1.4349641 1.3696828 1.0411611
C -0.7957573 0.013496791 -1.0682609
C -0.5069299 -0.8512177 0.13693216
C 0.64611244 -1.8205371 0.14131567
O 0.1928076 -3.0286834 -0.46127468
H 2.0934205 3.1099064 -0.2555746
H 0.73253095 2.7290084 -1.322016
H 0.44092342 3.4170628 0.27997932
H 1.742695 0.6810287 -0.23309715
H 1.3499291 1.3264463 1.3488927
H -1.5968119 2.3935332 0.6877246
H -2.3933384 0.8458993 0.9741221
H -1.1581765 1.4236674 2.1012223
H -1.82432 0.12721816 -1.394136
H -0.075920366 -0.019800508 -1.880984
H -1.3782579 -1.259618 0.6433625
H 1.5045131 -1.4097214 -0.41017464
H 0.9802668 -2.0026102 1.1761998
H 0.9039535 -3.6737196 -0.40232435
