22
title
C -0.8379039 2.4038887 -1.0398737
C -0.25824505 0.9836309 -1.021106
C 0.29090053 0.55728406 0.3323878
C 1.5484157 1.2690586 0.7943393
C -0.72217655 0.15543172 1.3965764
C 0.12792297 -0.89353234 0.751529
O -0.5301229 -1.8101683 -0.06626832
C 0.34570688 -2.4887478 -0.9449182
H -0.078706585 3.1572819 -0.80643725
H -1.2474958 2.64505 -2.0259008
H -1.6444887 2.5075743 -0.30650884
H -1.0306964 0.27017853 -1.3250366
H 0.5421388 0.91122836 -1.7706933
H 1.372289 2.3383942 0.9570434
H 1.9163821 0.85470194 1.7387869
H 2.351413 1.1736201 0.053330727
H -0.53765136 0.41366032 2.4340875
H -1.7686098 0.15782776 1.1092229
H 0.93858695 -1.3329518 1.337687
H -0.25682756 -3.1994617 -1.5156064
H 0.8445345 -1.7998552 -1.6408561
H 1.1195166 -3.0428226 -0.39184374
