title
 OpenBabel02282109593D

 21 21  0  0  1  0  0  0  0  0999 V2000
    1.0001    2.6405   -0.4653 C   0  0  0  0  0  0  0  0  0  0  0  0
    1.0031    1.3242    0.3228 C   0  0  0  0  0  0  0  0  0  0  0  0
   -0.3504    0.6264    0.3332 C   0  0  1  0  0  0  0  0  0  0  0  0
   -1.4628    1.3946    1.0260 C   0  0  0  0  0  0  0  0  0  0  0  0
   -0.6923   -0.0803   -0.9212 N   0  0  0  0  0  0  0  0  0  0  0  0
   -0.4797   -0.8613    0.3190 C   0  0  1  0  0  0  0  0  0  0  0  0
    0.6443   -1.8702    0.2461 C   0  0  0  0  0  0  0  0  0  0  0  0
    0.3242   -2.9041   -0.6716 O   0  0  0  0  0  0  0  0  0  0  0  0
    2.0072    3.0657   -0.5100 H   0  0  0  0  0  0  0  0  0  0  0  0
    0.6589    2.4686   -1.4909 H   0  0  0  0  0  0  0  0  0  0  0  0
    0.3472    3.3924   -0.0115 H   0  0  0  0  0  0  0  0  0  0  0  0
    1.7486    0.6583   -0.1179 H   0  0  0  0  0  0  0  0  0  0  0  0
    1.3158    1.5076    1.3592 H   0  0  0  0  0  0  0  0  0  0  0  0
   -1.6708    2.3425    0.5187 H   0  0  0  0  0  0  0  0  0  0  0  0
   -2.3907    0.8140    1.0444 H   0  0  0  0  0  0  0  0  0  0  0  0
   -1.1931    1.6269    2.0623 H   0  0  0  0  0  0  0  0  0  0  0  0
   -1.6865    0.0078   -1.1163 H   0  0  0  0  0  0  0  0  0  0  0  0
   -1.3755   -1.2573    0.7969 H   0  0  0  0  0  0  0  0  0  0  0  0
    1.5914   -1.3848   -0.0242 H   0  0  0  0  0  0  0  0  0  0  0  0
    0.7842   -2.3526    1.2195 H   0  0  0  0  0  0  0  0  0  0  0  0
    0.1130   -2.4564   -1.5000 H   0  0  0  0  0  0  0  0  0  0  0  0
  1 11  1  0  0  0  0
  1  2  1  0  0  0  0
  2  3  1  0  0  0  0
  2 13  1  0  0  0  0
  3  6  1  1  0  0  0
  3  4  1  0  0  0  0
  4 15  1  0  0  0  0
  4 16  1  0  0  0  0
  5  6  1  0  0  0  0
  5  3  1  0  0  0  0
  6 18  1  1  0  0  0
  7  6  1  0  0  0  0
  7 20  1  0  0  0  0
  8  7  1  0  0  0  0
  9  1  1  0  0  0  0
 10  1  1  0  0  0  0
 12  2  1  0  0  0  0
 14  4  1  0  0  0  0
 17  5  1  0  0  0  0
 19  7  1  0  0  0  0
 21  8  1  0  0  0  0
M  END
