20
title
C 0.019082205 2.494272 1.2909157
C -0.80618334 1.3418128 0.70177895
C -0.11450179 0.6560646 -0.46700227
C 0.01100685 1.4862101 -1.7305056
O 1.0824788 -0.07442378 -0.12807213
C -0.0557671 -0.8133513 -0.6086272
C -0.6073992 -1.8428828 0.34643424
O 0.28025982 -2.9456758 0.4517574
H 1.005089 2.1358657 1.6008427
H 0.16488798 3.3063924 0.572547
H -0.48172355 2.9161072 2.1670895
H -1.0082917 0.61498314 1.4917462
H -1.7805017 1.713515 0.3600105
H 0.55785656 2.414285 -1.5389134
H 0.549706 0.9318517 -2.5024028
H -0.97851837 1.7525839 -2.1175423
H 0.080519274 -1.2047249 -1.6196212
H -0.80647814 -1.401013 1.3311992
H -1.5504627 -2.2442951 -0.040800378
H 1.1326251 -2.585814 0.7229973
