title
 OpenBabel02282109593D

 20 20  0  0  1  0  0  0  0  0999 V2000
    1.2433    2.4660   -0.1352 C   0  0  0  0  0  0  0  0  0  0  0  0
    1.0424    0.9929    0.2402 C   0  0  0  0  0  0  0  0  0  0  0  0
   -0.3902    0.5282    0.0749 C   0  0  1  0  0  0  0  0  0  0  0  0
   -1.3165    1.1151    0.9552 O   0  0  0  0  0  0  0  0  0  0  0  0
   -0.8985    0.1471   -1.3080 C   0  0  0  0  0  0  0  0  0  0  0  0
   -0.7040   -0.9074   -0.2547 C   0  0  1  0  0  0  0  0  0  0  0  0
    0.3148   -1.8295   -0.4732 O   0  0  0  0  0  0  0  0  0  0  0  0
    0.6948   -2.5162    0.7050 C   0  0  0  0  0  0  0  0  0  0  0  0
    2.2847    2.7701    0.0053 H   0  0  0  0  0  0  0  0  0  0  0  0
    0.9778    2.6493   -1.1820 H   0  0  0  0  0  0  0  0  0  0  0  0
    0.6267    3.1216    0.4899 H   0  0  0  0  0  0  0  0  0  0  0  0
    1.6895    0.3551   -0.3696 H   0  0  0  0  0  0  0  0  0  0  0  0
    1.3357    0.8415    1.2865 H   0  0  0  0  0  0  0  0  0  0  0  0
   -1.4964    2.0092    0.6446 H   0  0  0  0  0  0  0  0  0  0  0  0
   -1.9159    0.4109   -1.5746 H   0  0  0  0  0  0  0  0  0  0  0  0
   -0.1844    0.1539   -2.1247 H   0  0  0  0  0  0  0  0  0  0  0  0
   -1.5992   -1.3124    0.2199 H   0  0  0  0  0  0  0  0  0  0  0  0
    1.4801   -3.2225    0.4255 H   0  0  0  0  0  0  0  0  0  0  0  0
    1.0814   -1.8309    1.4716 H   0  0  0  0  0  0  0  0  0  0  0  0
   -0.1508   -3.0744    1.1339 H   0  0  0  0  0  0  0  0  0  0  0  0
  1  9  1  0  0  0  0
  1  2  1  0  0  0  0
  1 11  1  0  0  0  0
  2 13  1  0  0  0  0
  3  6  1  1  0  0  0
  3  2  1  0  0  0  0
  3  4  1  0  0  0  0
  5  6  1  0  0  0  0
  5  3  1  0  0  0  0
  6 17  1  1  0  0  0
  7  6  1  0  0  0  0
  7  8  1  0  0  0  0
  8 20  1  0  0  0  0
  8 19  1  0  0  0  0
 10  1  1  0  0  0  0
 12  2  1  0  0  0  0
 14  4  1  0  0  0  0
 15  5  1  0  0  0  0
 16  5  1  0  0  0  0
 18  8  1  0  0  0  0
M  END
