22
title
C 1.3163034 3.0536816 -0.47031713
C 1.396626 1.6227036 0.07569469
C 0.048597116 0.92960006 0.072163485
C -0.47312245 0.21606182 -1.1546146
C -0.1250224 -0.5756029 0.08647951
C 1.0715303 -1.5087587 0.062802084
C -1.2842412 -1.0996548 0.90518284
O -1.7458398 -2.3134248 0.32129145
H 2.2964249 3.5407414 -0.45548272
H 0.9505155 3.0594196 -1.5024074
H 0.63065195 3.6660473 0.12589239
H 2.117277 1.0504397 -0.51857436
H 1.7958286 1.6454616 1.0986239
H -0.7053838 1.475417 0.6385229
H -1.5179093 0.32488787 -1.4257237
H 0.19680311 0.1274737 -2.0047598
H 1.8541931 -1.1607338 -0.6152184
H 1.5149322 -1.6129051 1.0610465
H 0.75602674 -2.5024462 -0.26706252
H -0.9549489 -1.2682005 1.9442271
H -2.088775 -0.3475784 0.9328437
H -2.3791845 -2.7132092 0.9241997
