22
title
C 1.1446434 3.061009 -0.501084
C 1.3378767 1.6236179 -0.0024848378
C 0.029972175 0.86420804 0.08124139
C -0.5623114 0.15589255 -1.1264714
C -0.08636942 -0.6335632 0.07455344
C 1.1240691 -1.5374696 -0.019140044
O -1.0865877 -1.0956864 0.9496393
C -1.80109 -2.2257173 0.49226427
H 2.0988655 3.5943506 -0.55513626
H 0.6927729 3.0730155 -1.4984709
H 0.4842911 3.6246543 0.16702794
H 2.0345435 1.1029836 -0.66980314
H 1.8164914 1.6408437 0.9855144
H -0.71195555 1.3298756 0.72586113
H -1.6313097 0.23438603 -1.2904953
H 0.03300498 0.11363965 -2.034112
H 1.9014697 -1.1004746 -0.6495599
H 1.5459827 -1.7129118 0.9761095
H 0.86351866 -2.5087452 -0.45269644
H -1.1791854 -3.1313405 0.4557523
H -2.6139157 -2.3946028 1.2031231
H -2.2296386 -2.0603485 -0.5067778
