title
 OpenBabel02282109593D

 22 22  0  0  1  0  0  0  0  0999 V2000
    1.1446    3.0610   -0.5011 C   0  0  0  0  0  0  0  0  0  0  0  0
    1.3379    1.6236   -0.0025 C   0  0  0  0  0  0  0  0  0  0  0  0
    0.0300    0.8642    0.0812 C   0  0  1  0  0  0  0  0  0  0  0  0
   -0.5623    0.1559   -1.1265 C   0  0  0  0  0  0  0  0  0  0  0  0
   -0.0864   -0.6336    0.0746 C   0  0  1  0  0  0  0  0  0  0  0  0
    1.1241   -1.5375   -0.0191 C   0  0  0  0  0  0  0  0  0  0  0  0
   -1.0866   -1.0957    0.9496 O   0  0  0  0  0  0  0  0  0  0  0  0
   -1.8011   -2.2257    0.4923 C   0  0  0  0  0  0  0  0  0  0  0  0
    2.0989    3.5944   -0.5551 H   0  0  0  0  0  0  0  0  0  0  0  0
    0.6928    3.0730   -1.4985 H   0  0  0  0  0  0  0  0  0  0  0  0
    0.4843    3.6247    0.1670 H   0  0  0  0  0  0  0  0  0  0  0  0
    2.0345    1.1030   -0.6698 H   0  0  0  0  0  0  0  0  0  0  0  0
    1.8165    1.6408    0.9855 H   0  0  0  0  0  0  0  0  0  0  0  0
   -0.7120    1.3299    0.7259 H   0  0  0  0  0  0  0  0  0  0  0  0
   -1.6313    0.2344   -1.2905 H   0  0  0  0  0  0  0  0  0  0  0  0
    0.0330    0.1136   -2.0341 H   0  0  0  0  0  0  0  0  0  0  0  0
    1.9015   -1.1005   -0.6496 H   0  0  0  0  0  0  0  0  0  0  0  0
    1.5460   -1.7129    0.9761 H   0  0  0  0  0  0  0  0  0  0  0  0
    0.8635   -2.5087   -0.4527 H   0  0  0  0  0  0  0  0  0  0  0  0
   -1.1792   -3.1313    0.4558 H   0  0  0  0  0  0  0  0  0  0  0  0
   -2.6139   -2.3946    1.2031 H   0  0  0  0  0  0  0  0  0  0  0  0
   -2.2296   -2.0603   -0.5068 H   0  0  0  0  0  0  0  0  0  0  0  0
  1  2  1  0  0  0  0
  1 11  1  0  0  0  0
  2  3  1  0  0  0  0
  2 13  1  0  0  0  0
  3  5  1  1  0  0  0
  3 14  1  0  0  0  0
  4  5  1  0  0  0  0
  4  3  1  0  0  0  0
  5  7  1  1  0  0  0
  6  5  1  0  0  0  0
  6 18  1  0  0  0  0
  8  7  1  0  0  0  0
  8 21  1  0  0  0  0
  9  1  1  0  0  0  0
 10  1  1  0  0  0  0
 12  2  1  0  0  0  0
 15  4  1  0  0  0  0
 16  4  1  0  0  0  0
 17  6  1  0  0  0  0
 19  6  1  0  0  0  0
 20  8  1  0  0  0  0
 22  8  1  0  0  0  0
M  END
