22
title
C -1.2283391 2.959765 -0.87425274
C -0.624199 1.5899733 -1.2034224
C 0.06563455 0.9541136 -0.013956257
C -0.7430269 0.20583105 1.0356381
C 0.20639634 -0.5357621 0.12068968
O -0.36100703 -1.2831004 -0.92923194
C 1.488367 -1.1276233 0.67731625
C 1.2968496 -2.519375 1.291455
H -0.4593455 3.6626108 -0.53432214
H -1.715247 3.398605 -1.7509781
H -1.9759973 2.8798306 -0.077900715
H -1.3997041 0.91104054 -1.569774
H 0.09730816 1.6956621 -2.0240176
H 0.90667903 1.5274925 0.3720569
H -0.48866946 0.31959224 2.084571
H -1.8037968 0.08648741 0.83678275
H -0.80333984 -2.0458083 -0.5429101
H 2.226493 -1.182323 -0.13270868
H 1.8951174 -0.44354713 1.4312017
H 0.57396626 -2.4950047 2.1144907
H 0.93560946 -3.2328746 0.5429806
H 2.2395813 -2.9106715 1.684854
