title
 OpenBabel02282109593D

 21 21  0  0  1  0  0  0  0  0999 V2000
    1.2395    3.0267   -0.5350 C   0  0  0  0  0  0  0  0  0  0  0  0
    1.4203    1.6331    0.0784 C   0  0  0  0  0  0  0  0  0  0  0  0
    0.1054    0.8920    0.1827 C   0  0  1  0  0  0  0  0  0  0  0  0
   -0.3998    0.2333   -1.0353 N   0  0  0  0  0  0  0  0  0  0  0  0
   -0.0646   -0.5904    0.1410 C   0  0  1  0  0  0  0  0  0  0  0  0
    1.1034   -1.5401   -0.0377 C   0  0  0  0  0  0  0  0  0  0  0  0
   -1.2237   -1.1604    0.9427 C   0  0  0  0  0  0  0  0  0  0  0  0
   -1.9363   -2.1827    0.2584 O   0  0  0  0  0  0  0  0  0  0  0  0
    2.1952    3.5538   -0.6125 H   0  0  0  0  0  0  0  0  0  0  0  0
    0.8102    2.9490   -1.5386 H   0  0  0  0  0  0  0  0  0  0  0  0
    0.5669    3.6437    0.0716 H   0  0  0  0  0  0  0  0  0  0  0  0
    2.1221    1.0570   -0.5315 H   0  0  0  0  0  0  0  0  0  0  0  0
    1.8628    1.7192    1.0795 H   0  0  0  0  0  0  0  0  0  0  0  0
   -0.6330    1.4190    0.7905 H   0  0  0  0  0  0  0  0  0  0  0  0
   -1.4091    0.3292   -1.1205 H   0  0  0  0  0  0  0  0  0  0  0  0
    1.8724   -1.1106   -0.6805 H   0  0  0  0  0  0  0  0  0  0  0  0
    1.5558   -1.7974    0.9269 H   0  0  0  0  0  0  0  0  0  0  0  0
    0.7741   -2.4703   -0.5165 H   0  0  0  0  0  0  0  0  0  0  0  0
   -0.8607   -1.5162    1.9206 H   0  0  0  0  0  0  0  0  0  0  0  0
   -1.9619   -0.3743    1.1348 H   0  0  0  0  0  0  0  0  0  0  0  0
   -1.3527   -2.9411    0.1599 H   0  0  0  0  0  0  0  0  0  0  0  0
  1 11  1  0  0  0  0
  1  2  1  0  0  0  0
  2  3  1  0  0  0  0
  2 13  1  0  0  0  0
  3  5  1  1  0  0  0
  3 14  1  0  0  0  0
  4  5  1  0  0  0  0
  4  3  1  0  0  0  0
  5  6  1  6  0  0  0
  5  7  1  0  0  0  0
  6 17  1  0  0  0  0
  7 20  1  0  0  0  0
  7 19  1  0  0  0  0
  8  7  1  0  0  0  0
  9  1  1  0  0  0  0
 10  1  1  0  0  0  0
 12  2  1  0  0  0  0
 15  4  1  0  0  0  0
 16  6  1  0  0  0  0
 18  6  1  0  0  0  0
 21  8  1  0  0  0  0
M  END
