20
title
C 0.07057901 2.8751414 1.5196986
C -0.73645717 1.5954971 1.2658247
C -0.28669438 0.89192814 0.0075495485
O 0.9809274 0.21369134 0.04778614
C -0.21531524 -0.5674422 -0.18276164
C -0.57087404 -1.5681303 0.89339614
C -0.25134072 -1.1153929 -1.59987
O 0.7506036 -2.1007226 -1.787657
H 1.1333088 2.6412876 1.6321199
H -0.03146343 3.5807476 0.6879692
H -0.26719853 3.3793468 2.4297075
H -0.64655566 0.9253679 2.1250184
H -1.8018541 1.839059 1.1606072
H -0.41758293 1.4934288 -0.89694524
H -1.6434268 -1.7908232 0.8739692
H -0.03016393 -2.500708 0.7080723
H -0.30525073 -1.2052073 1.88686
H -1.2095331 -1.6074247 -1.7996855
H -0.13696899 -0.28853562 -2.3162413
H 1.587203 -1.6766894 -1.5616853
