title
 OpenBabel02282109593D

 23 23  0  0  1  0  0  0  0  0999 V2000
    0.8941    3.0482   -0.5690 C   0  0  0  0  0  0  0  0  0  0  0  0
    1.1706    1.6363   -0.0552 C   0  0  0  0  0  0  0  0  0  0  0  0
   -0.0670    0.8651   -0.0286 N   0  0  0  0  0  0  0  0  0  0  0  0
   -0.3977    0.0576   -1.2006 C   0  0  0  0  0  0  0  0  0  0  0  0
   -0.0588   -0.5980    0.1003 C   0  0  1  0  0  0  0  0  0  0  0  0
    1.2482   -1.3612    0.2220 C   0  0  0  0  0  0  0  0  0  0  0  0
   -1.1949   -1.1245    0.9689 C   0  0  0  0  0  0  0  0  0  0  0  0
   -1.6916   -2.5231    0.5838 C   0  0  0  0  0  0  0  0  0  0  0  0
    1.8082    3.6502   -0.5609 H   0  0  0  0  0  0  0  0  0  0  0  0
    0.5158    3.0202   -1.5963 H   0  0  0  0  0  0  0  0  0  0  0  0
    0.1424    3.5425    0.0525 H   0  0  0  0  0  0  0  0  0  0  0  0
    1.9569    1.1743   -0.6754 H   0  0  0  0  0  0  0  0  0  0  0  0
    1.5596    1.6833    0.9694 H   0  0  0  0  0  0  0  0  0  0  0  0
   -1.4269    0.1126   -1.5493 H   0  0  0  0  0  0  0  0  0  0  0  0
    0.3436   -0.0046   -1.9980 H   0  0  0  0  0  0  0  0  0  0  0  0
    2.0261   -0.9694   -0.4362 H   0  0  0  0  0  0  0  0  0  0  0  0
    1.6246   -1.3284    1.2515 H   0  0  0  0  0  0  0  0  0  0  0  0
    1.1030   -2.4141   -0.0390 H   0  0  0  0  0  0  0  0  0  0  0  0
   -0.8678   -1.1248    2.0179 H   0  0  0  0  0  0  0  0  0  0  0  0
   -2.0183   -0.4061    0.9055 H   0  0  0  0  0  0  0  0  0  0  0  0
   -2.5516   -2.8104    1.1966 H   0  0  0  0  0  0  0  0  0  0  0  0
   -2.0034   -2.5560   -0.4658 H   0  0  0  0  0  0  0  0  0  0  0  0
   -0.9211   -3.2876    0.7254 H   0  0  0  0  0  0  0  0  0  0  0  0
  1  9  1  0  0  0  0
  1  2  1  0  0  0  0
  1 11  1  0  0  0  0
  2  3  1  0  0  0  0
  2 13  1  0  0  0  0
  3  5  1  0  0  0  0
  4  3  1  0  0  0  0
  4  5  1  0  0  0  0
  5  6  1  1  0  0  0
  5  7  1  0  0  0  0
  6 17  1  0  0  0  0
  7 19  1  0  0  0  0
  8 23  1  0  0  0  0
  8  7  1  0  0  0  0
  8 21  1  0  0  0  0
 10  1  1  0  0  0  0
 12  2  1  0  0  0  0
 14  4  1  0  0  0  0
 15  4  1  0  0  0  0
 16  6  1  0  0  0  0
 18  6  1  0  0  0  0
 20  7  1  0  0  0  0
 22  8  1  0  0  0  0
M  END
