title
 OpenBabel02282109593D

 21 21  0  0  1  0  0  0  0  0999 V2000
   -0.0365    3.0104    1.2357 C   0  0  0  0  0  0  0  0  0  0  0  0
   -0.5816    1.5878    1.1300 C   0  0  0  0  0  0  0  0  0  0  0  0
    0.0334    0.8985   -0.0006 N   0  0  0  0  0  0  0  0  0  0  0  0
    1.2516    0.1307    0.2441 C   0  0  0  0  0  0  0  0  0  0  0  0
   -0.0290   -0.5598   -0.1111 C   0  0  1  0  0  0  0  0  0  0  0  0
   -0.7377   -1.4196    0.9181 C   0  0  0  0  0  0  0  0  0  0  0  0
   -0.2139   -1.0341   -1.5449 C   0  0  0  0  0  0  0  0  0  0  0  0
    0.2762   -2.3515   -1.7540 O   0  0  0  0  0  0  0  0  0  0  0  0
    1.0419    3.0007    1.4255 H   0  0  0  0  0  0  0  0  0  0  0  0
   -0.2096    3.5584    0.3054 H   0  0  0  0  0  0  0  0  0  0  0  0
   -0.5197    3.5500    2.0561 H   0  0  0  0  0  0  0  0  0  0  0  0
   -0.4265    1.0650    2.0880 H   0  0  0  0  0  0  0  0  0  0  0  0
   -1.6637    1.6160    0.9539 H   0  0  0  0  0  0  0  0  0  0  0  0
    2.0510    0.2559   -0.4843 H   0  0  0  0  0  0  0  0  0  0  0  0
    1.5934    0.0350    1.2747 H   0  0  0  0  0  0  0  0  0  0  0  0
   -0.4445   -1.1864    1.9435 H   0  0  0  0  0  0  0  0  0  0  0  0
   -1.8255   -1.3063    0.8379 H   0  0  0  0  0  0  0  0  0  0  0  0
   -0.5025   -2.4697    0.7240 H   0  0  0  0  0  0  0  0  0  0  0  0
   -1.2816   -1.0757   -1.7898 H   0  0  0  0  0  0  0  0  0  0  0  0
    0.2532   -0.3062   -2.2225 H   0  0  0  0  0  0  0  0  0  0  0  0
    1.2215   -2.3390   -1.5698 H   0  0  0  0  0  0  0  0  0  0  0  0
  1  9  1  0  0  0  0
  1 11  1  0  0  0  0
  2  1  1  0  0  0  0
  2 12  1  0  0  0  0
  3  4  1  0  0  0  0
  3  2  1  0  0  0  0
  4 15  1  0  0  0  0
  5  7  1  6  0  0  0
  5  3  1  0  0  0  0
  5  4  1  0  0  0  0
  5  6  1  0  0  0  0
  6 16  1  0  0  0  0
  8 21  1  0  0  0  0
  8  7  1  0  0  0  0
 10  1  1  0  0  0  0
 13  2  1  0  0  0  0
 14  4  1  0  0  0  0
 17  6  1  0  0  0  0
 18  6  1  0  0  0  0
 19  7  1  0  0  0  0
 20  7  1  0  0  0  0
M  END
