20
title
C 0.9375382 2.4331653 -0.29542214
O 0.7646343 1.2057481 0.38447848
C -0.50417525 0.6219456 0.23185724
C -1.6106509 1.3113794 1.001972
C -0.80223316 -0.046987664 -1.0891796
C -0.49692577 -0.88033664 0.1426287
C 0.7875814 -1.6615549 0.21358506
O 0.6175271 -2.8558922 -0.5445699
H 1.9854178 2.7175584 -0.17202245
H 0.71556914 2.3382285 -1.3677193
H 0.30835438 3.2327838 0.11956444
H -1.7932695 2.3253198 0.6300895
H -2.5472841 0.7545502 0.9109684
H -1.3511051 1.378967 2.0636387
H -1.8161365 -0.028567087 -1.474042
H -0.029211102 -0.011030207 -1.8496876
H -1.3426133 -1.382825 0.60440123
H 1.6117737 -1.0488516 -0.1738629
H 1.0194702 -1.8947443 1.265237
H 1.4253085 -3.3717031 -0.463559
