title
 OpenBabel02282109593D

 20 20  0  0  1  0  0  0  0  0999 V2000
    0.9375    2.4332   -0.2954 C   0  0  0  0  0  0  0  0  0  0  0  0
    0.7646    1.2057    0.3845 O   0  0  0  0  0  0  0  0  0  0  0  0
   -0.5042    0.6219    0.2319 C   0  0  1  0  0  0  0  0  0  0  0  0
   -1.6107    1.3114    1.0020 C   0  0  0  0  0  0  0  0  0  0  0  0
   -0.8022   -0.0470   -1.0892 C   0  0  0  0  0  0  0  0  0  0  0  0
   -0.4969   -0.8803    0.1426 C   0  0  1  0  0  0  0  0  0  0  0  0
    0.7876   -1.6616    0.2136 C   0  0  0  0  0  0  0  0  0  0  0  0
    0.6175   -2.8559   -0.5446 O   0  0  0  0  0  0  0  0  0  0  0  0
    1.9854    2.7176   -0.1720 H   0  0  0  0  0  0  0  0  0  0  0  0
    0.7156    2.3382   -1.3677 H   0  0  0  0  0  0  0  0  0  0  0  0
    0.3084    3.2328    0.1196 H   0  0  0  0  0  0  0  0  0  0  0  0
   -1.7933    2.3253    0.6301 H   0  0  0  0  0  0  0  0  0  0  0  0
   -2.5473    0.7546    0.9110 H   0  0  0  0  0  0  0  0  0  0  0  0
   -1.3511    1.3790    2.0636 H   0  0  0  0  0  0  0  0  0  0  0  0
   -1.8161   -0.0286   -1.4740 H   0  0  0  0  0  0  0  0  0  0  0  0
   -0.0292   -0.0110   -1.8497 H   0  0  0  0  0  0  0  0  0  0  0  0
   -1.3426   -1.3828    0.6044 H   0  0  0  0  0  0  0  0  0  0  0  0
    1.6118   -1.0489   -0.1739 H   0  0  0  0  0  0  0  0  0  0  0  0
    1.0195   -1.8947    1.2652 H   0  0  0  0  0  0  0  0  0  0  0  0
    1.4253   -3.3717   -0.4636 H   0  0  0  0  0  0  0  0  0  0  0  0
  1  9  1  0  0  0  0
  1 11  1  0  0  0  0
  1  2  1  0  0  0  0
  3  6  1  1  0  0  0
  3  2  1  0  0  0  0
  3  4  1  0  0  0  0
  4 14  1  0  0  0  0
  5  6  1  0  0  0  0
  5  3  1  0  0  0  0
  6  7  1  0  0  0  0
  6 17  1  1  0  0  0
  7 19  1  0  0  0  0
  8 20  1  0  0  0  0
  8  7  1  0  0  0  0
 10  1  1  0  0  0  0
 12  4  1  0  0  0  0
 13  4  1  0  0  0  0
 15  5  1  0  0  0  0
 16  5  1  0  0  0  0
 18  7  1  0  0  0  0
M  END
