20
title
C 1.0322942 2.4464214 -1.272009
O 0.99976134 1.5289763 -0.19811001
C -0.05061655 0.6204742 -0.29525
C 0.104816504 -0.6217406 -1.1486304
C 0.11263914 -0.71165717 0.36972195
C 1.4242067 -1.0321969 1.0586416
C -1.0991846 -1.3005062 1.0819405
O -2.342412 -1.0314153 0.45176327
H 1.8799249 3.114324 -1.100792
H 1.1625637 1.9372722 -2.2380064
H 0.1104892 3.0457757 -1.3198429
H -1.0441993 1.0688109 -0.268103
H -0.7581925 -0.96693623 -1.7093554
H 1.056343 -0.76513255 -1.6499425
H 2.254394 -0.50687146 0.5842068
H 1.3982054 -0.72354114 2.1104565
H 1.6288637 -2.1086876 1.0310528
H -0.9512443 -2.3842347 1.2151127
H -1.1728038 -0.8610116 2.0839653
H -2.415098 -1.607134 -0.31505355
