title
 OpenBabel02282109593D

 20 20  0  0  1  0  0  0  0  0999 V2000
    1.0323    2.4464   -1.2720 C   0  0  0  0  0  0  0  0  0  0  0  0
    0.9998    1.5290   -0.1981 O   0  0  0  0  0  0  0  0  0  0  0  0
   -0.0506    0.6205   -0.2953 C   0  0  1  0  0  0  0  0  0  0  0  0
    0.1048   -0.6217   -1.1486 C   0  0  0  0  0  0  0  0  0  0  0  0
    0.1126   -0.7117    0.3697 C   0  0  1  0  0  0  0  0  0  0  0  0
    1.4242   -1.0322    1.0586 C   0  0  0  0  0  0  0  0  0  0  0  0
   -1.0992   -1.3005    1.0819 C   0  0  0  0  0  0  0  0  0  0  0  0
   -2.3424   -1.0314    0.4518 O   0  0  0  0  0  0  0  0  0  0  0  0
    1.8799    3.1143   -1.1008 H   0  0  0  0  0  0  0  0  0  0  0  0
    1.1626    1.9373   -2.2380 H   0  0  0  0  0  0  0  0  0  0  0  0
    0.1105    3.0458   -1.3198 H   0  0  0  0  0  0  0  0  0  0  0  0
   -1.0442    1.0688   -0.2681 H   0  0  0  0  0  0  0  0  0  0  0  0
   -0.7582   -0.9669   -1.7094 H   0  0  0  0  0  0  0  0  0  0  0  0
    1.0563   -0.7651   -1.6499 H   0  0  0  0  0  0  0  0  0  0  0  0
    2.2544   -0.5069    0.5842 H   0  0  0  0  0  0  0  0  0  0  0  0
    1.3982   -0.7235    2.1105 H   0  0  0  0  0  0  0  0  0  0  0  0
    1.6289   -2.1087    1.0311 H   0  0  0  0  0  0  0  0  0  0  0  0
   -0.9512   -2.3842    1.2151 H   0  0  0  0  0  0  0  0  0  0  0  0
   -1.1728   -0.8610    2.0840 H   0  0  0  0  0  0  0  0  0  0  0  0
   -2.4151   -1.6071   -0.3151 H   0  0  0  0  0  0  0  0  0  0  0  0
  1  9  1  0  0  0  0
  1  2  1  0  0  0  0
  3 12  1  0  0  0  0
  3  2  1  0  0  0  0
  3  5  1  1  0  0  0
  4  3  1  0  0  0  0
  4  5  1  0  0  0  0
  5  6  1  1  0  0  0
  5  7  1  0  0  0  0
  6 16  1  0  0  0  0
  7 18  1  0  0  0  0
  7 19  1  0  0  0  0
  8  7  1  0  0  0  0
 10  1  1  0  0  0  0
 11  1  1  0  0  0  0
 13  4  1  0  0  0  0
 14  4  1  0  0  0  0
 15  6  1  0  0  0  0
 17  6  1  0  0  0  0
 20  8  1  0  0  0  0
M  END
