18
title
C 1.3065314 2.4512517 -0.14592715
O 1.1538335 1.3289721 -1.0049201
C -0.11191821 0.74287075 -0.8921266
C -0.2230004 -0.66891146 -1.4073356
C -0.21598256 -0.40500996 0.08346288
O 0.94182724 -0.72356844 0.8102245
C -1.4357877 -0.6439228 0.9319851
O -1.578512 -2.007816 1.287878
H 2.3174295 2.8352847 -0.2994333
H 0.5830853 3.2403762 -0.39498666
H 1.1765405 2.1730385 0.9080953
H -0.9451642 1.4336406 -1.0269357
H -1.1475863 -0.96985054 -1.8874676
H 0.67719734 -1.0984211 -1.834519
H 1.6806113 -0.29712328 0.35618648
H -1.3748307 -0.0036642256 1.8269022
H -2.3388605 -0.3654419 0.37943456
H -0.73208356 -2.2795699 1.6604233
