18
title
O 1.5295384 2.062432 0.65752786
C 1.121693 1.7292299 -0.6587007
C -0.20990892 1.0024631 -0.6810918
C -0.40523344 -0.19139151 -1.6017125
C -0.2710691 -0.3857078 -0.115339324
O 0.9528496 -0.88178474 0.3892378
C -1.4530667 -0.8172675 0.7248708
O -1.5098137 -2.2308168 0.8648747
H 1.6854591 1.2220403 1.1040032
H 1.0423323 2.6746862 -1.2051108
H 1.882303 1.1195636 -1.1660228
H -1.0765969 1.6303202 -0.49076283
H -1.3747753 -0.35515624 -2.0595372
H 0.44122213 -0.4722895 -2.220855
H 1.0683979 -1.775698 0.050509952
H -1.3999919 -0.32731146 1.7086737
H -2.3881571 -0.5086377 0.24711129
H -0.8085697 -2.4743445 1.4774287
