title
 OpenBabel02282109593D

 18 18  0  0  1  0  0  0  0  0999 V2000
   -0.3317    1.8154   -0.0078 C   0  0  0  0  0  0  0  0  0  0  0  0
   -0.2931    0.2710   -0.0154 C   0  0  1  0  0  0  0  0  0  0  0  0
    0.6063   -0.2230   -1.2034 C   0  0  0  0  0  0  0  0  0  0  0  0
    1.9460   -0.4639   -0.5561 C   0  0  0  0  0  0  0  0  0  0  0  0
    1.8685   -0.4723    0.7727 C   0  0  0  0  0  0  0  0  0  0  0  0
    0.4624   -0.2386    1.2628 C   0  0  0  0  0  0  0  0  0  0  0  0
   -1.6528   -0.2546   -0.0980 C   0  0  0  0  0  0  0  0  0  0  0  0
   -2.7757   -0.6803   -0.1663 C   0  0  0  0  0  0  0  0  0  0  0  0
    0.6867    2.2124    0.0540 H   0  0  0  0  0  0  0  0  0  0  0  0
   -0.7996    2.1966   -0.9199 H   0  0  0  0  0  0  0  0  0  0  0  0
   -0.9027    2.1854    0.8484 H   0  0  0  0  0  0  0  0  0  0  0  0
    0.2091   -1.1460   -1.6437 H   0  0  0  0  0  0  0  0  0  0  0  0
    0.6384    0.5183   -2.0100 H   0  0  0  0  0  0  0  0  0  0  0  0
    2.8464   -0.6409   -1.1340 H   0  0  0  0  0  0  0  0  0  0  0  0
    2.6957   -0.6572    1.4490 H   0  0  0  0  0  0  0  0  0  0  0  0
    0.4000    0.4925    2.0770 H   0  0  0  0  0  0  0  0  0  0  0  0
    0.0174   -1.1668    1.6423 H   0  0  0  0  0  0  0  0  0  0  0  0
   -3.7652   -1.0604   -0.2263 H   0  0  0  0  0  0  0  0  0  0  0  0
  1  9  1  0  0  0  0
  1 11  1  0  0  0  0
  2  7  1  6  0  0  0
  2  1  1  0  0  0  0
  2  6  1  0  0  0  0
  3  4  1  0  0  0  0
  3  2  1  0  0  0  0
  4  5  2  0  0  0  0
  5  6  1  0  0  0  0
  5 15  1  0  0  0  0
  6 17  1  0  0  0  0
  6 16  1  0  0  0  0
  8  7  3  0  0  0  0
 10  1  1  0  0  0  0
 12  3  1  0  0  0  0
 13  3  1  0  0  0  0
 14  4  1  0  0  0  0
 18  8  1  0  0  0  0
M  END
