17
title
C -0.3070508 1.8309715 -0.0066161375
C -0.26891294 0.28825545 -0.013862452
C 0.61182386 -0.22435522 -1.2063651
C 1.9427727 -0.5037124 -0.55641973
C 1.8654143 -0.51176155 0.77203804
C 0.46780294 -0.2394759 1.2664592
C -1.6363113 -0.22989768 -0.09663554
N -2.7170434 -0.63574743 -0.16238448
H 0.71510476 2.215959 0.055201095
H -0.77049136 2.215914 -0.9189671
H -0.87342703 2.2050836 0.8504772
H 0.19222565 -1.1329857 -1.6555939
H 0.66352636 0.52333146 -2.0054169
H 2.8364744 -0.70413655 -1.1361321
H 2.6859314 -0.71981394 1.4490899
H 0.42584842 0.49838972 2.0751517
H -0.00045748512 -1.1532159 1.6528516
