title
 OpenBabel02282109593D

 14 14  0  0  1  0  0  0  0  0999 V2000
   -0.4161    1.9134   -0.0533 C   0  0  0  0  0  0  0  0  0  0  0  0
   -0.2484    0.3947   -0.0554 C   0  0  1  0  0  0  0  0  0  0  0  0
    0.6675   -0.1448   -1.2129 C   0  0  0  0  0  0  0  0  0  0  0  0
    1.8331   -0.7206   -0.5369 N   0  0  0  0  0  0  0  0  0  0  0  0
    1.6209   -0.5956    0.7026 C   0  0  0  0  0  0  0  0  0  0  0  0
    0.4798   -0.0001    1.1421 O   0  0  0  0  0  0  0  0  0  0  0  0
   -1.5555   -0.2781   -0.0270 C   0  0  0  0  0  0  0  0  0  0  0  0
   -2.5885   -0.7950   -0.0432 N   0  0  0  0  0  0  0  0  0  0  0  0
    0.5714    2.3821   -0.0662 H   0  0  0  0  0  0  0  0  0  0  0  0
   -0.9713    2.2321   -0.9399 H   0  0  0  0  0  0  0  0  0  0  0  0
   -0.9559    2.2428    0.8371 H   0  0  0  0  0  0  0  0  0  0  0  0
    0.1663   -0.9057   -1.8166 H   0  0  0  0  0  0  0  0  0  0  0  0
    0.9736    0.6672   -1.8797 H   0  0  0  0  0  0  0  0  0  0  0  0
    2.2816   -0.9232    1.4970 H   0  0  0  0  0  0  0  0  0  0  0  0
  1 11  1  0  0  0  0
  2  1  1  0  0  0  0
  2  7  1  6  0  0  0
  2  6  1  0  0  0  0
  3  4  1  0  0  0  0
  3  2  1  0  0  0  0
  4  5  2  0  0  0  0
  5  6  1  0  0  0  0
  5 14  1  0  0  0  0
  8  7  3  0  0  0  0
  9  1  1  0  0  0  0
 10  1  1  0  0  0  0
 12  3  1  0  0  0  0
 13  3  1  0  0  0  0
M  END
