title
 OpenBabel02282109593D

 16 16  0  0  1  0  0  0  0  0999 V2000
    0.0673    1.6788   -0.2377 O   0  0  0  0  0  0  0  0  0  0  0  0
    0.1464    0.2503   -0.2337 C   0  0  1  0  0  0  0  0  0  0  0  0
    0.7392   -0.2575    1.1231 C   0  0  0  0  0  0  0  0  0  0  0  0
   -0.4833   -0.5354    1.9587 C   0  0  0  0  0  0  0  0  0  0  0  0
   -1.5980   -0.5309    1.2319 C   0  0  0  0  0  0  0  0  0  0  0  0
   -1.3311   -0.2421   -0.2224 C   0  0  0  0  0  0  0  0  0  0  0  0
    0.9139   -0.2162   -1.3914 C   0  0  0  0  0  0  0  0  0  0  0  0
    1.5731   -0.5710   -2.3326 C   0  0  0  0  0  0  0  0  0  0  0  0
    0.9648    2.0186   -0.3247 H   0  0  0  0  0  0  0  0  0  0  0  0
    1.3447   -1.1613    0.9813 H   0  0  0  0  0  0  0  0  0  0  0  0
    1.3992    0.5070    1.5495 H   0  0  0  0  0  0  0  0  0  0  0  0
   -0.4261   -0.7373    3.0222 H   0  0  0  0  0  0  0  0  0  0  0  0
   -2.5947   -0.7317    1.6079 H   0  0  0  0  0  0  0  0  0  0  0  0
   -1.9680    0.5414   -0.6440 H   0  0  0  0  0  0  0  0  0  0  0  0
   -1.4578   -1.1367   -0.8431 H   0  0  0  0  0  0  0  0  0  0  0  0
    2.1445   -0.8893   -3.1693 H   0  0  0  0  0  0  0  0  0  0  0  0
  1  2  1  0  0  0  0
  2  7  1  6  0  0  0
  2  6  1  0  0  0  0
  2  3  1  0  0  0  0
  3 11  1  0  0  0  0
  3  4  1  0  0  0  0
  4 12  1  0  0  0  0
  5 13  1  0  0  0  0
  5  4  2  0  0  0  0
  6  5  1  0  0  0  0
  8  7  3  0  0  0  0
  9  1  1  0  0  0  0
 10  3  1  0  0  0  0
 14  6  1  0  0  0  0
 15  6  1  0  0  0  0
 16  8  1  0  0  0  0
M  END
