16
title
O 0.0672623 1.6788042 -0.2376884
C 0.14639278 0.25025624 -0.2336754
C 0.73918086 -0.2575234 1.1231254
C -0.483321 -0.5353643 1.9586655
C -1.5979809 -0.530945 1.2318691
C -1.3310516 -0.24205302 -0.22235736
C 0.9139281 -0.21622582 -1.3913578
C 1.5730562 -0.57097214 -2.3326058
H 0.96476984 2.0186021 -0.32467225
H 1.3446889 -1.1613383 0.98131657
H 1.3991503 0.5069721 1.549521
H -0.4260953 -0.73733515 3.0222251
H -2.5947168 -0.7317119 1.6079224
H -1.9679582 0.5414374 -0.6440173
H -1.4577631 -1.1367209 -0.843057
H 2.1445282 -0.88931674 -3.1693323
