15
title
O 0.035906702 1.6921164 -0.2039524
C 0.13165712 0.2744599 -0.20693737
C 0.74004745 -0.2630845 1.1278609
C -0.47792655 -0.60061836 1.9489017
C -1.5908093 -0.59898394 1.2200685
C -1.3313121 -0.25335208 -0.22324459
C 0.9101448 -0.16724029 -1.3815544
N 1.5438676 -0.49172536 -2.2922175
H 0.92682433 2.0576658 -0.15520673
H 1.370814 -1.144514 0.9577144
H 1.3796958 0.5032419 1.5812626
H -0.41473168 -0.8375474 3.004339
H -2.5830252 -0.8371239 1.5846701
H -1.9829576 0.5314796 -0.6186354
H -1.4379303 -1.1274114 -0.8763098
