title
 OpenBabel02282109593D

 15 15  0  0  1  0  0  0  0  0999 V2000
    0.0405    1.9537    0.2927 C   0  0  0  0  0  0  0  0  0  0  0  0
   -0.0929    0.4427    0.1157 C   0  0  1  0  0  0  0  0  0  0  0  0
    0.6165   -0.1359   -1.1405 C   0  0  0  0  0  0  0  0  0  0  0  0
    1.5214   -1.1737   -0.6244 N   0  0  0  0  0  0  0  0  0  0  0  0
    1.4217   -1.1261    0.6355 C   0  0  0  0  0  0  0  0  0  0  0  0
    0.5777   -0.2325    1.2179 O   0  0  0  0  0  0  0  0  0  0  0  0
   -1.5697    0.0566    0.1979 C   0  0  0  0  0  0  0  0  0  0  0  0
   -2.3087    0.0435   -0.7499 O   0  0  0  0  0  0  0  0  0  0  0  0
    1.0981    2.2318    0.3011 H   0  0  0  0  0  0  0  0  0  0  0  0
   -0.4554    2.4668   -0.5363 H   0  0  0  0  0  0  0  0  0  0  0  0
   -0.4130    2.2872    1.2310 H   0  0  0  0  0  0  0  0  0  0  0  0
   -0.1037   -0.5561   -1.8475 H   0  0  0  0  0  0  0  0  0  0  0  0
    1.1954    0.6285   -1.6706 H   0  0  0  0  0  0  0  0  0  0  0  0
    1.9660   -1.7469    1.3383 H   0  0  0  0  0  0  0  0  0  0  0  0
   -1.9115   -0.1940    1.2260 H   0  0  0  0  0  0  0  0  0  0  0  0
  1  9  1  0  0  0  0
  1 11  1  0  0  0  0
  2  7  1  6  0  0  0
  2  1  1  0  0  0  0
  2  6  1  0  0  0  0
  3  4  1  0  0  0  0
  3  2  1  0  0  0  0
  4  5  2  0  0  0  0
  5  6  1  0  0  0  0
  5 14  1  0  0  0  0
  7 15  1  0  0  0  0
  8  7  2  0  0  0  0
 10  1  1  0  0  0  0
 12  3  1  0  0  0  0
 13  3  1  0  0  0  0
M  END
