title
 OpenBabel02282109593D

 15 15  0  0  1  0  0  0  0  0999 V2000
   -0.1372    1.9611    0.0796 C   0  0  0  0  0  0  0  0  0  0  0  0
   -0.2140    0.4260    0.0098 C   0  0  1  0  0  0  0  0  0  0  0  0
    0.6103   -0.1598   -1.1900 C   0  0  0  0  0  0  0  0  0  0  0  0
    1.6585   -0.9309   -0.5635 O   0  0  0  0  0  0  0  0  0  0  0  0
    1.4328   -0.8345    0.7661 C   0  0  0  0  0  0  0  0  0  0  0  0
    0.4628   -0.1502    1.2069 N   0  0  0  0  0  0  0  0  0  0  0  0
   -1.6100   -0.0127   -0.0377 C   0  0  0  0  0  0  0  0  0  0  0  0
   -2.7570   -0.3632   -0.1082 C   0  0  0  0  0  0  0  0  0  0  0  0
    0.9094    2.2779    0.1092 H   0  0  0  0  0  0  0  0  0  0  0  0
   -0.6223    2.4102   -0.7920 H   0  0  0  0  0  0  0  0  0  0  0  0
   -0.6356    2.3181    0.9829 H   0  0  0  0  0  0  0  0  0  0  0  0
    0.0221   -0.8250   -1.8243 H   0  0  0  0  0  0  0  0  0  0  0  0
    1.0738    0.6192   -1.8010 H   0  0  0  0  0  0  0  0  0  0  0  0
    2.1438   -1.3779    1.3789 H   0  0  0  0  0  0  0  0  0  0  0  0
   -3.7702   -0.6782   -0.1559 H   0  0  0  0  0  0  0  0  0  0  0  0
  1  9  1  0  0  0  0
  1 11  1  0  0  0  0
  2  7  1  6  0  0  0
  2  1  1  0  0  0  0
  2  6  1  0  0  0  0
  3  4  1  0  0  0  0
  3  2  1  0  0  0  0
  4  5  1  0  0  0  0
  5  6  2  0  0  0  0
  5 14  1  0  0  0  0
  8  7  3  0  0  0  0
 10  1  1  0  0  0  0
 12  3  1  0  0  0  0
 13  3  1  0  0  0  0
 15  8  1  0  0  0  0
M  END
