title
 OpenBabel02282109593D

 14 14  0  0  1  0  0  0  0  0999 V2000
   -0.1238    1.9739    0.0761 C   0  0  0  0  0  0  0  0  0  0  0  0
   -0.1841    0.4397    0.0112 C   0  0  1  0  0  0  0  0  0  0  0  0
    0.6272   -0.1579   -1.1905 C   0  0  0  0  0  0  0  0  0  0  0  0
    1.6431   -0.9658   -0.5591 O   0  0  0  0  0  0  0  0  0  0  0  0
    1.4231   -0.8598    0.7678 C   0  0  0  0  0  0  0  0  0  0  0  0
    0.4709   -0.1470    1.2076 N   0  0  0  0  0  0  0  0  0  0  0  0
   -1.5892   -0.0006   -0.0367 C   0  0  0  0  0  0  0  0  0  0  0  0
   -2.6917   -0.3380   -0.1095 N   0  0  0  0  0  0  0  0  0  0  0  0
    0.9219    2.2911    0.1096 H   0  0  0  0  0  0  0  0  0  0  0  0
   -0.6054    2.4186   -0.7995 H   0  0  0  0  0  0  0  0  0  0  0  0
   -0.6266    2.3313    0.9767 H   0  0  0  0  0  0  0  0  0  0  0  0
    0.0299   -0.7971   -1.8425 H   0  0  0  0  0  0  0  0  0  0  0  0
    1.1190    0.6176   -1.7825 H   0  0  0  0  0  0  0  0  0  0  0  0
    2.1180   -1.4188    1.3844 H   0  0  0  0  0  0  0  0  0  0  0  0
  1  9  1  0  0  0  0
  1 11  1  0  0  0  0
  2  7  1  6  0  0  0
  2  1  1  0  0  0  0
  2  6  1  0  0  0  0
  3  4  1  0  0  0  0
  3  2  1  0  0  0  0
  4  5  1  0  0  0  0
  5  6  2  0  0  0  0
  5 14  1  0  0  0  0
  8  7  3  0  0  0  0
 10  1  1  0  0  0  0
 12  3  1  0  0  0  0
 13  3  1  0  0  0  0
M  END
