16
title
C -0.06553728 1.9921296 -0.06272049
C -0.14874183 0.4608181 0.023183657
O 0.55659086 -0.09486645 -1.101721
C 1.4814334 -1.0895039 -0.67039555
C 1.4924331 -0.9894314 0.8285796
C 0.57480466 -0.11946689 1.2264342
C -1.5567524 0.023712821 0.0062117255
C -2.7071385 -0.32500887 0.0071172267
H 0.9821781 2.3015676 -0.028337516
H -0.50886744 2.3341918 -1.0010124
H -0.6068303 2.4549534 0.7673004
H 1.1654677 -2.0886593 -1.0118169
H 2.46214 -0.88496757 -1.122931
H 2.1532738 -1.5715013 1.4583269
H 0.3154317 0.15717697 2.2394433
H -3.72141 -0.63997626 -0.0008054391
