title
 OpenBabel02282109593D

 15 15  0  0  1  0  0  0  0  0999 V2000
   -0.0510    1.9999   -0.0679 C   0  0  0  0  0  0  0  0  0  0  0  0
   -0.1172    0.4701    0.0215 C   0  0  1  0  0  0  0  0  0  0  0  0
    0.5571   -0.0979   -1.1016 O   0  0  0  0  0  0  0  0  0  0  0  0
    1.4668   -1.1149   -0.6750 C   0  0  0  0  0  0  0  0  0  0  0  0
    1.4909   -1.0078    0.8222 C   0  0  0  0  0  0  0  0  0  0  0  0
    0.5941   -0.1191    1.2267 C   0  0  0  0  0  0  0  0  0  0  0  0
   -1.5407    0.0334    0.0119 C   0  0  0  0  0  0  0  0  0  0  0  0
   -2.6463   -0.3030    0.0190 N   0  0  0  0  0  0  0  0  0  0  0  0
    0.9954    2.3118   -0.0333 H   0  0  0  0  0  0  0  0  0  0  0  0
   -0.4950    2.3378   -1.0071 H   0  0  0  0  0  0  0  0  0  0  0  0
   -0.5937    2.4603    0.7623 H   0  0  0  0  0  0  0  0  0  0  0  0
    1.1232   -2.1049   -1.0123 H   0  0  0  0  0  0  0  0  0  0  0  0
    2.4450   -0.9285   -1.1379 H   0  0  0  0  0  0  0  0  0  0  0  0
    2.1473   -1.5974    1.4491 H   0  0  0  0  0  0  0  0  0  0  0  0
    0.3476    0.1687    2.2395 H   0  0  0  0  0  0  0  0  0  0  0  0
  1  9  1  0  0  0  0
  1  2  1  0  0  0  0
  1 11  1  0  0  0  0
  2  7  1  6  0  0  0
  2  6  1  0  0  0  0
  3  4  1  0  0  0  0
  3  2  1  0  0  0  0
  4  5  1  0  0  0  0
  5  6  2  0  0  0  0
  5 14  1  0  0  0  0
  6 15  1  0  0  0  0
  7  8  3  0  0  0  0
 10  1  1  0  0  0  0
 12  4  1  0  0  0  0
 13  4  1  0  0  0  0
M  END
