16
title
N -0.14358021 1.8430098 -0.05486359
C 0.06942125 0.39334038 0.14615396
C -1.2992955 -0.3659976 0.17360736
C -1.4119167 -1.1016387 -1.1847742
C -0.0075901495 -1.0545199 -1.7309315
C 0.80240613 -0.28955638 -1.0035948
C 0.80090004 0.23360579 1.414506
N 1.3974125 0.09116388 2.3939729
H 0.75336814 2.322924 -0.06617585
H -0.54585475 1.9750885 -0.9801426
H -1.2995462 -1.0881197 0.99195856
H -2.1058168 0.34506053 0.35974213
H -1.7748767 -2.1279116 -1.0626745
H -2.1154375 -0.6116158 -1.8709344
H 0.2813767 -1.5738416 -2.6382792
H 1.8484337 -0.08557599 -1.2012227
