title
 OpenBabel02282109593D

 15 15  0  0  1  0  0  0  0  0999 V2000
   -0.1912    1.7274   -0.1441 O   0  0  0  0  0  0  0  0  0  0  0  0
    0.0747    0.3538    0.1448 C   0  0  1  0  0  0  0  0  0  0  0  0
   -1.2855   -0.3928    0.1825 C   0  0  0  0  0  0  0  0  0  0  0  0
   -1.4170   -1.0853   -1.1946 C   0  0  0  0  0  0  0  0  0  0  0  0
   -0.0051   -1.0860   -1.7200 C   0  0  0  0  0  0  0  0  0  0  0  0
    0.8158   -0.3389   -0.9863 C   0  0  0  0  0  0  0  0  0  0  0  0
    0.8077    0.2631    1.4266 C   0  0  0  0  0  0  0  0  0  0  0  0
    1.4051    0.2074    2.4147 N   0  0  0  0  0  0  0  0  0  0  0  0
    0.6491    2.1755   -0.2956 H   0  0  0  0  0  0  0  0  0  0  0  0
   -1.2700   -1.1386    0.9799 H   0  0  0  0  0  0  0  0  0  0  0  0
   -2.0827    0.3199    0.3987 H   0  0  0  0  0  0  0  0  0  0  0  0
   -1.8320   -2.0950   -1.1081 H   0  0  0  0  0  0  0  0  0  0  0  0
   -2.0799   -0.5350   -1.8743 H   0  0  0  0  0  0  0  0  0  0  0  0
    0.2833   -1.6207   -2.6184 H   0  0  0  0  0  0  0  0  0  0  0  0
    1.8704   -0.1658   -1.1662 H   0  0  0  0  0  0  0  0  0  0  0  0
  1  2  1  0  0  0  0
  2  3  1  0  0  0  0
  2  7  1  1  0  0  0
  3 11  1  0  0  0  0
  3 10  1  0  0  0  0
  4 12  1  0  0  0  0
  4  3  1  0  0  0  0
  5  4  1  0  0  0  0
  5  6  2  0  0  0  0
  6  2  1  0  0  0  0
  7  8  3  0  0  0  0
  9  1  1  0  0  0  0
 13  4  1  0  0  0  0
 14  5  1  0  0  0  0
 15  6  1  0  0  0  0
M  END
