title
 OpenBabel02282109593D

 15 15  0  0  1  0  0  0  0  0999 V2000
    0.0187    2.0188    0.3275 C   0  0  0  0  0  0  0  0  0  0  0  0
   -0.1110    0.5007    0.1495 C   0  0  1  0  0  0  0  0  0  0  0  0
    0.5449   -0.0483   -1.1403 C   0  0  0  0  0  0  0  0  0  0  0  0
    1.4832   -1.0462   -0.6618 O   0  0  0  0  0  0  0  0  0  0  0  0
    1.3912   -1.0105    0.6814 C   0  0  0  0  0  0  0  0  0  0  0  0
    0.5806   -0.2141    1.2488 N   0  0  0  0  0  0  0  0  0  0  0  0
   -1.5920    0.1221    0.2552 C   0  0  0  0  0  0  0  0  0  0  0  0
   -2.2518   -0.3307   -0.6428 O   0  0  0  0  0  0  0  0  0  0  0  0
    1.0757    2.2976    0.3603 H   0  0  0  0  0  0  0  0  0  0  0  0
   -0.4614    2.5511   -0.5001 H   0  0  0  0  0  0  0  0  0  0  0  0
   -0.4440    2.3383    1.2657 H   0  0  0  0  0  0  0  0  0  0  0  0
   -0.1810   -0.5310   -1.7974 H   0  0  0  0  0  0  0  0  0  0  0  0
    1.1073    0.7076   -1.6943 H   0  0  0  0  0  0  0  0  0  0  0  0
    2.0528   -1.6987    1.1961 H   0  0  0  0  0  0  0  0  0  0  0  0
   -2.0182    0.3042    1.2645 H   0  0  0  0  0  0  0  0  0  0  0  0
  1  9  1  0  0  0  0
  1 11  1  0  0  0  0
  2  7  1  1  0  0  0
  2  1  1  0  0  0  0
  2  6  1  0  0  0  0
  3  4  1  0  0  0  0
  3  2  1  0  0  0  0
  4  5  1  0  0  0  0
  5 14  1  0  0  0  0
  5  6  2  0  0  0  0
  7 15  1  0  0  0  0
  8  7  2  0  0  0  0
 10  1  1  0  0  0  0
 12  3  1  0  0  0  0
 13  3  1  0  0  0  0
M  END
