16
title
C 0.12661156 1.8725735 -0.14904115
C -0.058577087 0.35767302 -0.057716906
O 0.6139783 -0.31103024 -1.1307144
C 1.5558022 -1.2612604 -0.6318166
C 1.4294488 -1.1816324 0.86261183
C 0.5251928 -0.2670187 1.1920547
C -1.5456477 -0.024687055 -0.13717553
O -2.4497278 0.646209 0.2842205
H 1.1716104 2.1390374 0.025944509
H -0.16607484 2.2230766 -1.1424818
H -0.5065328 2.3693264 0.58988863
H 1.3193662 -2.2614667 -1.024468
H 2.5686893 -1.0076901 -0.9814625
H 2.022406 -1.7815584 1.541386
H 0.21046461 0.026530351 2.1847472
H -1.7054154 -1.0175263 -0.6139972
