16
title
O 0.00937936 1.7727629 0.033819817
C 0.024144009 0.36781493 0.052501444
C -1.4114172 -0.24770573 -0.022131585
C -1.333726 -1.4318067 -1.0169178
C -0.020281134 -1.2044772 -1.7247427
C 0.70615065 -0.24235675 -1.161583
C 0.73714817 -0.10125148 1.3133615
O 1.2260333 0.6685865 2.104272
H 0.4844038 2.0527816 0.8328935
H -1.8030046 -0.538013 0.9571442
H -2.0511122 0.54981613 -0.4068152
H -1.3352354 -2.3992884 -0.49759862
H -2.1830401 -1.4589955 -1.7090098
H 0.2791827 -1.7807965 -2.593599
H 1.6834887 0.10131316 -1.4793094
H 0.78314245 -1.1997312 1.4587615
