title
 OpenBabel02282109593D

 16 16  0  0  1  0  0  0  0  0999 V2000
    0.0094    1.7728    0.0338 O   0  0  0  0  0  0  0  0  0  0  0  0
    0.0241    0.3678    0.0525 C   0  0  1  0  0  0  0  0  0  0  0  0
   -1.4114   -0.2477   -0.0221 C   0  0  0  0  0  0  0  0  0  0  0  0
   -1.3337   -1.4318   -1.0169 C   0  0  0  0  0  0  0  0  0  0  0  0
   -0.0203   -1.2045   -1.7247 C   0  0  0  0  0  0  0  0  0  0  0  0
    0.7062   -0.2424   -1.1616 C   0  0  0  0  0  0  0  0  0  0  0  0
    0.7371   -0.1013    1.3134 C   0  0  0  0  0  0  0  0  0  0  0  0
    1.2260    0.6686    2.1043 O   0  0  0  0  0  0  0  0  0  0  0  0
    0.4844    2.0528    0.8329 H   0  0  0  0  0  0  0  0  0  0  0  0
   -1.8030   -0.5380    0.9571 H   0  0  0  0  0  0  0  0  0  0  0  0
   -2.0511    0.5498   -0.4068 H   0  0  0  0  0  0  0  0  0  0  0  0
   -1.3352   -2.3993   -0.4976 H   0  0  0  0  0  0  0  0  0  0  0  0
   -2.1830   -1.4590   -1.7090 H   0  0  0  0  0  0  0  0  0  0  0  0
    0.2792   -1.7808   -2.5936 H   0  0  0  0  0  0  0  0  0  0  0  0
    1.6835    0.1013   -1.4793 H   0  0  0  0  0  0  0  0  0  0  0  0
    0.7831   -1.1997    1.4588 H   0  0  0  0  0  0  0  0  0  0  0  0
  1  9  1  0  0  0  0
  2  1  1  6  0  0  0
  2  7  1  0  0  0  0
  3  2  1  0  0  0  0
  3 10  1  0  0  0  0
  4 12  1  0  0  0  0
  4  3  1  0  0  0  0
  5  6  2  0  0  0  0
  5  4  1  0  0  0  0
  6  2  1  0  0  0  0
  7 16  1  0  0  0  0
  7  8  2  0  0  0  0
 11  3  1  0  0  0  0
 13  4  1  0  0  0  0
 14  5  1  0  0  0  0
 15  6  1  0  0  0  0
M  END
