title
 OpenBabel02282109593D

 20 20  0  0  0  0  0  0  0  0999 V2000
   -0.2496    2.1636   -0.0163 C   0  0  0  0  0  0  0  0  0  0  0  0
   -0.0960    0.6332   -0.0048 C   0  0  0  0  0  0  0  0  0  0  0  0
    0.7416    0.0974   -1.1988 C   0  0  0  0  0  0  0  0  0  0  0  0
    1.2032   -1.3107   -0.7687 C   0  0  0  0  0  0  0  0  0  0  0  0
    1.2022   -1.2991    0.7896 C   0  0  0  0  0  0  0  0  0  0  0  0
    0.7402    0.1154    1.1981 C   0  0  0  0  0  0  0  0  0  0  0  0
   -1.4205    0.0035   -0.0009 C   0  0  0  0  0  0  0  0  0  0  0  0
   -2.5088   -0.5091    0.0023 C   0  0  0  0  0  0  0  0  0  0  0  0
    0.7357    2.6417   -0.0193 H   0  0  0  0  0  0  0  0  0  0  0  0
   -0.7970    2.4964   -0.9031 H   0  0  0  0  0  0  0  0  0  0  0  0
   -0.7980    2.5096    0.8647 H   0  0  0  0  0  0  0  0  0  0  0  0
    0.1807    0.1011   -2.1366 H   0  0  0  0  0  0  0  0  0  0  0  0
    1.6042    0.7624   -1.3271 H   0  0  0  0  0  0  0  0  0  0  0  0
    0.5073   -2.0672   -1.1410 H   0  0  0  0  0  0  0  0  0  0  0  0
    2.1857   -1.5529   -1.1825 H   0  0  0  0  0  0  0  0  0  0  0  0
    0.5060   -2.0499    1.1724 H   0  0  0  0  0  0  0  0  0  0  0  0
    2.1843   -1.5350    1.2082 H   0  0  0  0  0  0  0  0  0  0  0  0
    1.6026    0.7821    1.3175 H   0  0  0  0  0  0  0  0  0  0  0  0
    0.1781    0.1330    2.1351 H   0  0  0  0  0  0  0  0  0  0  0  0
   -3.4701   -0.9601    0.0051 H   0  0  0  0  0  0  0  0  0  0  0  0
  1  2  1  0  0  0  0
  1 11  1  0  0  0  0
  2  7  1  0  0  0  0
  2  6  1  0  0  0  0
  3  4  1  0  0  0  0
  3  2  1  0  0  0  0
  4  5  1  0  0  0  0
  5 16  1  0  0  0  0
  5  6  1  0  0  0  0
  5 17  1  0  0  0  0
  6 18  1  0  0  0  0
  6 19  1  0  0  0  0
  7  8  3  0  0  0  0
  8 20  1  0  0  0  0
  9  1  1  0  0  0  0
 10  1  1  0  0  0  0
 12  3  1  0  0  0  0
 13  3  1  0  0  0  0
 14  4  1  0  0  0  0
 15  4  1  0  0  0  0
M  END
