18
title
C -0.117981836 2.09503 -0.069558315
C -0.0904562 0.5621258 -0.030385913
C 0.5552978 -0.088947035 -1.310604
C 1.4817606 -1.2043946 -0.765182
C 1.1461664 -1.2691319 0.7428741
N 0.68500704 0.07235976 1.1244847
C -1.4763983 0.062424682 0.11591931
N -2.5612226 -0.32703885 0.20160332
H 0.90020764 2.4750178 -0.20458163
H -0.72959423 2.4511764 -0.90183175
H -0.5266332 2.4976707 0.8603155
H -0.20960741 -0.4739941 -1.9877877
H 1.1192591 0.67228496 -1.8560449
H 1.3268192 -2.161466 -1.2694972
H 2.5317364 -0.9294524 -0.90623087
H 0.3291709 -1.9774985 0.9224097
H 1.9883441 -1.572484 1.3688223
H 1.4875654 0.68568724 1.2395172
