title
 OpenBabel02282109593D

 18 18  0  0  1  0  0  0  0  0999 V2000
   -0.1714    2.1120   -0.0146 C   0  0  0  0  0  0  0  0  0  0  0  0
   -0.0954    0.5857   -0.0511 C   0  0  1  0  0  0  0  0  0  0  0  0
    0.6887    0.0167   -1.2553 C   0  0  0  0  0  0  0  0  0  0  0  0
    1.1666   -1.3457   -0.7263 C   0  0  0  0  0  0  0  0  0  0  0  0
    1.2375   -1.1262    0.8057 C   0  0  0  0  0  0  0  0  0  0  0  0
    0.6845    0.1646    1.0723 O   0  0  0  0  0  0  0  0  0  0  0  0
   -1.4477   -0.0026    0.0107 C   0  0  0  0  0  0  0  0  0  0  0  0
   -2.5455   -0.4905    0.0623 C   0  0  0  0  0  0  0  0  0  0  0  0
    0.8400    2.5267   -0.0316 H   0  0  0  0  0  0  0  0  0  0  0  0
   -0.7305    2.4874   -0.8756 H   0  0  0  0  0  0  0  0  0  0  0  0
   -0.6733    2.4444    0.8970 H   0  0  0  0  0  0  0  0  0  0  0  0
    0.0829   -0.0566   -2.1602 H   0  0  0  0  0  0  0  0  0  0  0  0
    1.5359    0.6803   -1.4551 H   0  0  0  0  0  0  0  0  0  0  0  0
    0.4412   -2.1263   -0.9684 H   0  0  0  0  0  0  0  0  0  0  0  0
    2.1286   -1.6430   -1.1492 H   0  0  0  0  0  0  0  0  0  0  0  0
    0.6737   -1.8980    1.3450 H   0  0  0  0  0  0  0  0  0  0  0  0
    2.2629   -1.1233    1.1891 H   0  0  0  0  0  0  0  0  0  0  0  0
   -3.5165   -0.9176    0.1153 H   0  0  0  0  0  0  0  0  0  0  0  0
  1 11  1  0  0  0  0
  2  1  1  0  0  0  0
  2  7  1  1  0  0  0
  2  6  1  0  0  0  0
  3  4  1  0  0  0  0
  3  2  1  0  0  0  0
  4  5  1  0  0  0  0
  5  6  1  0  0  0  0
  5 17  1  0  0  0  0
  5 16  1  0  0  0  0
  7  8  3  0  0  0  0
  8 18  1  0  0  0  0
  9  1  1  0  0  0  0
 10  1  1  0  0  0  0
 12  3  1  0  0  0  0
 13  3  1  0  0  0  0
 14  4  1  0  0  0  0
 15  4  1  0  0  0  0
M  END
