17
title
C -0.16192769 2.1036475 0.031538557
C -0.079606704 0.57940847 -0.035264682
C 0.71751714 0.021051235 -1.232562
C 1.1621605 -1.350935 -0.707349
C 1.3345569 -1.0972594 0.80310833
O 0.62339354 0.11337481 1.1095505
C -1.453988 0.0042933295 -0.038555264
N -2.5149152 -0.45453298 -0.042209167
H 0.85076636 2.5140886 0.04145231
H -0.7043997 2.4989974 -0.83132017
H -0.6777975 2.4167862 0.9418642
H 0.12955725 -0.029034428 -2.1507187
H 1.5762032 0.6781388 -1.4032353
H 0.3814391 -2.0952828 -0.8867068
H 2.0802321 -1.7085676 -1.1777706
H 0.93702734 -1.9178865 1.4098939
H 2.3828168 -0.9411435 1.0818416
