title
 OpenBabel02282109593D

 18 18  0  0  1  0  0  0  0  0999 V2000
    0.0625    1.8542   -0.0303 C   0  0  0  0  0  0  0  0  0  0  0  0
   -0.2878    0.3511   -0.0450 C   0  0  1  0  0  0  0  0  0  0  0  0
    0.4190   -0.3709   -1.2419 C   0  0  0  0  0  0  0  0  0  0  0  0
    1.6547   -1.0467   -0.5943 C   0  0  0  0  0  0  0  0  0  0  0  0
    1.7284   -0.5622    0.7421 O   0  0  0  0  0  0  0  0  0  0  0  0
    0.3944   -0.3589    1.1583 C   0  0  0  0  0  0  0  0  0  0  0  0
   -1.7334    0.1616   -0.0420 C   0  0  0  0  0  0  0  0  0  0  0  0
   -2.9261    0.0090   -0.0217 C   0  0  0  0  0  0  0  0  0  0  0  0
    1.1474    1.9772    0.0379 H   0  0  0  0  0  0  0  0  0  0  0  0
   -0.2906    2.3446   -0.9416 H   0  0  0  0  0  0  0  0  0  0  0  0
   -0.4008    2.3526    0.8260 H   0  0  0  0  0  0  0  0  0  0  0  0
   -0.2433   -1.1079   -1.6990 H   0  0  0  0  0  0  0  0  0  0  0  0
    0.6977    0.3503   -2.0134 H   0  0  0  0  0  0  0  0  0  0  0  0
    1.5398   -2.1413   -0.5947 H   0  0  0  0  0  0  0  0  0  0  0  0
    2.5982   -0.8022   -1.0886 H   0  0  0  0  0  0  0  0  0  0  0  0
    0.4047    0.2488    2.0662 H   0  0  0  0  0  0  0  0  0  0  0  0
   -0.1118   -1.3136    1.3710 H   0  0  0  0  0  0  0  0  0  0  0  0
   -3.9792   -0.1265   -0.0072 H   0  0  0  0  0  0  0  0  0  0  0  0
  1  9  1  0  0  0  0
  1 11  1  0  0  0  0
  2  7  1  6  0  0  0
  2  1  1  0  0  0  0
  2  6  1  0  0  0  0
  3  4  1  0  0  0  0
  3  2  1  0  0  0  0
  4  5  1  0  0  0  0
  5  6  1  0  0  0  0
  6 17  1  0  0  0  0
  6 16  1  0  0  0  0
  7  8  3  0  0  0  0
  8 18  1  0  0  0  0
 10  1  1  0  0  0  0
 12  3  1  0  0  0  0
 13  3  1  0  0  0  0
 14  4  1  0  0  0  0
 15  4  1  0  0  0  0
M  END
