18
title
C 0.06254123 1.8541567 -0.030313974
C -0.28778943 0.35113877 -0.045019824
C 0.41897255 -0.37094104 -1.2418981
C 1.6547263 -1.046718 -0.5942716
O 1.7284303 -0.5622126 0.7420796
C 0.3944283 -0.3588872 1.1582624
C -1.7333789 0.16156189 -0.041994292
C -2.926141 0.0090166135 -0.021741442
H 1.1473923 1.9771699 0.037918787
H -0.29057786 2.344594 -0.9415973
H -0.40075088 2.35258 0.8259678
H -0.24325751 -1.1078776 -1.6990042
H 0.69768673 0.35033512 -2.0134249
H 1.5398221 -2.141291 -0.59471166
H 2.5982082 -0.8021742 -1.0886391
H 0.40470958 0.24877886 2.0662043
H -0.11182449 -1.3135934 1.3709633
H -3.979185 -0.12646429 -0.007154059
