16
title
C -0.3399962 1.9153854 0.07416227
C -0.2974468 0.38571653 -0.0022358724
C 0.54698724 -0.13451524 -1.2124536
O 1.8134698 -0.40648806 -0.64211035
C 1.5059592 -0.8926278 0.63954514
O 0.4551084 -0.09001913 1.1326334
C -1.6450863 -0.18762402 -0.0025723556
C -2.755421 -0.64690787 -0.024408128
H 0.6786509 2.306827 0.0053938692
H -0.94380414 2.3274786 -0.7391893
H -0.7747289 2.2287164 1.025962
H 0.09526398 -1.042898 -1.6331178
H 0.66703385 0.61391115 -1.9974431
H 1.194129 -1.9517802 0.5915606
H 2.3806489 -0.7820222 1.2860224
H -3.735787 -1.0557281 -0.033754364
