title
 OpenBabel02282109593D

 16 16  0  0  0  0  0  0  0  0999 V2000
   -0.0922    2.0777   -0.0410 C   0  0  0  0  0  0  0  0  0  0  0  0
   -0.0768    0.5594   -0.0099 C   0  0  0  0  0  0  0  0  0  0  0  0
    0.6242    0.0706   -1.1398 O   0  0  0  0  0  0  0  0  0  0  0  0
    1.1387   -1.2058   -0.7755 C   0  0  0  0  0  0  0  0  0  0  0  0
    1.1704   -1.1742    0.7757 C   0  0  0  0  0  0  0  0  0  0  0  0
    0.6719    0.1171    1.1083 O   0  0  0  0  0  0  0  0  0  0  0  0
   -1.4449   -0.0127    0.0309 C   0  0  0  0  0  0  0  0  0  0  0  0
   -2.5495   -0.4849    0.0641 C   0  0  0  0  0  0  0  0  0  0  0  0
    0.9380    2.4380   -0.0701 H   0  0  0  0  0  0  0  0  0  0  0  0
   -0.6282    2.4250   -0.9264 H   0  0  0  0  0  0  0  0  0  0  0  0
   -0.5909    2.4618    0.8510 H   0  0  0  0  0  0  0  0  0  0  0  0
    0.4904   -2.0093   -1.1457 H   0  0  0  0  0  0  0  0  0  0  0  0
    2.1281   -1.3095   -1.2278 H   0  0  0  0  0  0  0  0  0  0  0  0
    0.5374   -1.9605    1.2045 H   0  0  0  0  0  0  0  0  0  0  0  0
    2.1774   -1.2616    1.1912 H   0  0  0  0  0  0  0  0  0  0  0  0
   -3.5279   -0.8978    0.0936 H   0  0  0  0  0  0  0  0  0  0  0  0
  1  2  1  0  0  0  0
  1 11  1  0  0  0  0
  2  7  1  0  0  0  0
  2  6  1  0  0  0  0
  3  4  1  0  0  0  0
  3  2  1  0  0  0  0
  4  5  1  0  0  0  0
  5  6  1  0  0  0  0
  5 15  1  0  0  0  0
  5 14  1  0  0  0  0
  7  8  3  0  0  0  0
  8 16  1  0  0  0  0
  9  1  1  0  0  0  0
 10  1  1  0  0  0  0
 12  4  1  0  0  0  0
 13  4  1  0  0  0  0
M  END
