15
title
C -0.10938166 2.0799067 -0.04573082
C -0.054084834 0.5646997 -0.011706307
O 0.616834 0.07155619 -1.1436073
C 1.1545265 -1.2015712 -0.77980256
C 1.1966121 -1.1656966 0.76982355
O 0.67944765 0.124210544 1.1028718
C -1.4364791 -0.027157957 0.040720962
N -2.4905846 -0.49860883 0.08103743
H 0.91355985 2.4588914 -0.08211959
H -0.6570127 2.4132044 -0.92931074
H -0.6092802 2.4551096 0.84926754
H 0.51281375 -2.0101883 -1.1474743
H 2.1408746 -1.2883252 -1.2402909
H 0.5757548 -1.9548455 1.2087349
H 2.206453 -1.233545 1.1797563
