title
 OpenBabel02282109593D

 15 15  0  0  0  0  0  0  0  0999 V2000
   -0.1094    2.0799   -0.0457 C   0  0  0  0  0  0  0  0  0  0  0  0
   -0.0541    0.5647   -0.0117 C   0  0  0  0  0  0  0  0  0  0  0  0
    0.6168    0.0716   -1.1436 O   0  0  0  0  0  0  0  0  0  0  0  0
    1.1545   -1.2016   -0.7798 C   0  0  0  0  0  0  0  0  0  0  0  0
    1.1966   -1.1657    0.7698 C   0  0  0  0  0  0  0  0  0  0  0  0
    0.6794    0.1242    1.1029 O   0  0  0  0  0  0  0  0  0  0  0  0
   -1.4365   -0.0272    0.0407 C   0  0  0  0  0  0  0  0  0  0  0  0
   -2.4906   -0.4986    0.0810 N   0  0  0  0  0  0  0  0  0  0  0  0
    0.9136    2.4589   -0.0821 H   0  0  0  0  0  0  0  0  0  0  0  0
   -0.6570    2.4132   -0.9293 H   0  0  0  0  0  0  0  0  0  0  0  0
   -0.6093    2.4551    0.8493 H   0  0  0  0  0  0  0  0  0  0  0  0
    0.5128   -2.0102   -1.1475 H   0  0  0  0  0  0  0  0  0  0  0  0
    2.1409   -1.2883   -1.2403 H   0  0  0  0  0  0  0  0  0  0  0  0
    0.5758   -1.9548    1.2087 H   0  0  0  0  0  0  0  0  0  0  0  0
    2.2065   -1.2335    1.1798 H   0  0  0  0  0  0  0  0  0  0  0  0
  1  2  1  0  0  0  0
  1 11  1  0  0  0  0
  2  7  1  0  0  0  0
  2  6  1  0  0  0  0
  3  4  1  0  0  0  0
  3  2  1  0  0  0  0
  4  5  1  0  0  0  0
  5  6  1  0  0  0  0
  5 15  1  0  0  0  0
  5 14  1  0  0  0  0
  7  8  3  0  0  0  0
  9  1  1  0  0  0  0
 10  1  1  0  0  0  0
 12  4  1  0  0  0  0
 13  4  1  0  0  0  0
M  END
