title
 OpenBabel02282109593D

 18 18  0  0  0  0  0  0  0  0999 V2000
    0.2509    1.9762   -0.6227 N   0  0  0  0  0  0  0  0  0  0  0  0
    0.0893    0.5814   -0.2074 C   0  0  0  0  0  0  0  0  0  0  0  0
    0.6164    0.3463    1.2277 C   0  0  0  0  0  0  0  0  0  0  0  0
   -0.1018   -0.9286    1.7166 C   0  0  0  0  0  0  0  0  0  0  0  0
   -1.4134   -1.0252    0.8797 C   0  0  0  0  0  0  0  0  0  0  0  0
   -1.4018    0.1957   -0.0636 C   0  0  0  0  0  0  0  0  0  0  0  0
    0.7590   -0.3523   -1.1452 C   0  0  0  0  0  0  0  0  0  0  0  0
    1.2935   -1.0484   -1.8993 N   0  0  0  0  0  0  0  0  0  0  0  0
    1.2390    2.2079   -0.6843 H   0  0  0  0  0  0  0  0  0  0  0  0
   -0.1267    2.1061   -1.5578 H   0  0  0  0  0  0  0  0  0  0  0  0
    1.7062    0.2737    1.2715 H   0  0  0  0  0  0  0  0  0  0  0  0
    0.3139    1.2236    1.8084 H   0  0  0  0  0  0  0  0  0  0  0  0
    0.5226   -1.8096    1.5456 H   0  0  0  0  0  0  0  0  0  0  0  0
   -0.2959   -0.8831    2.7909 H   0  0  0  0  0  0  0  0  0  0  0  0
   -1.4282   -1.9545    0.3041 H   0  0  0  0  0  0  0  0  0  0  0  0
   -2.3078   -1.0284    1.5072 H   0  0  0  0  0  0  0  0  0  0  0  0
   -1.8946    1.0595    0.3939 H   0  0  0  0  0  0  0  0  0  0  0  0
   -1.8839    0.0046   -1.0258 H   0  0  0  0  0  0  0  0  0  0  0  0
  1  2  1  0  0  0  0
  2  6  1  0  0  0  0
  2  3  1  0  0  0  0
  3 11  1  0  0  0  0
  3  4  1  0  0  0  0
  3 12  1  0  0  0  0
  4 14  1  0  0  0  0
  5 16  1  0  0  0  0
  5  4  1  0  0  0  0
  6 17  1  0  0  0  0
  6  5  1  0  0  0  0
  7  2  1  0  0  0  0
  8  7  3  0  0  0  0
  9  1  1  0  0  0  0
 10  1  1  0  0  0  0
 13  4  1  0  0  0  0
 15  5  1  0  0  0  0
 18  6  1  0  0  0  0
M  END
