18
title
O -0.08419658 1.6371186 -0.0530096
C 0.14151579 0.23617113 -0.26611534
C 0.8260432 -0.3853081 0.97509855
C -0.30351654 -0.40364486 2.0127277
C -1.5430417 -0.84673774 1.2018393
C -1.26437 -0.4202479 -0.26670855
C 0.89558816 0.02716619 -1.503814
C 1.5433792 -0.12258631 -2.5059702
H 0.77245563 2.0771081 -0.089720756
H 1.1543777 -1.4029057 0.733845
H 1.7085971 0.1862083 1.2786537
H -0.09200455 -1.0608916 2.8601072
H -0.44988382 0.6078977 2.4014828
H -1.6642271 -1.9331306 1.2585776
H -2.46391 -0.40560353 1.5907642
H -1.9841248 0.30582505 -0.6492616
H -1.2705542 -1.2803245 -0.93936294
H 2.1033947 -0.2578165 -3.39817
