title
 OpenBabel02282109593D

 18 18  0  0  0  0  0  0  0  0999 V2000
   -0.0842    1.6371   -0.0530 O   0  0  0  0  0  0  0  0  0  0  0  0
    0.1415    0.2362   -0.2661 C   0  0  0  0  0  0  0  0  0  0  0  0
    0.8260   -0.3853    0.9751 C   0  0  0  0  0  0  0  0  0  0  0  0
   -0.3035   -0.4036    2.0127 C   0  0  0  0  0  0  0  0  0  0  0  0
   -1.5430   -0.8467    1.2018 C   0  0  0  0  0  0  0  0  0  0  0  0
   -1.2644   -0.4202   -0.2667 C   0  0  0  0  0  0  0  0  0  0  0  0
    0.8956    0.0272   -1.5038 C   0  0  0  0  0  0  0  0  0  0  0  0
    1.5434   -0.1226   -2.5060 C   0  0  0  0  0  0  0  0  0  0  0  0
    0.7725    2.0771   -0.0897 H   0  0  0  0  0  0  0  0  0  0  0  0
    1.1544   -1.4029    0.7338 H   0  0  0  0  0  0  0  0  0  0  0  0
    1.7086    0.1862    1.2787 H   0  0  0  0  0  0  0  0  0  0  0  0
   -0.0920   -1.0609    2.8601 H   0  0  0  0  0  0  0  0  0  0  0  0
   -0.4499    0.6079    2.4015 H   0  0  0  0  0  0  0  0  0  0  0  0
   -1.6642   -1.9331    1.2586 H   0  0  0  0  0  0  0  0  0  0  0  0
   -2.4639   -0.4056    1.5908 H   0  0  0  0  0  0  0  0  0  0  0  0
   -1.9841    0.3058   -0.6493 H   0  0  0  0  0  0  0  0  0  0  0  0
   -1.2706   -1.2803   -0.9394 H   0  0  0  0  0  0  0  0  0  0  0  0
    2.1034   -0.2578   -3.3982 H   0  0  0  0  0  0  0  0  0  0  0  0
  2  1  1  0  0  0  0
  2  3  1  0  0  0  0
  3 11  1  0  0  0  0
  3  4  1  0  0  0  0
  4 13  1  0  0  0  0
  4 12  1  0  0  0  0
  5 14  1  0  0  0  0
  5 15  1  0  0  0  0
  5  4  1  0  0  0  0
  6  2  1  0  0  0  0
  6  5  1  0  0  0  0
  7  2  1  0  0  0  0
  8  7  3  0  0  0  0
  9  1  1  0  0  0  0
 10  3  1  0  0  0  0
 16  6  1  0  0  0  0
 17  6  1  0  0  0  0
 18  8  1  0  0  0  0
M  END
