17
title
O -0.1351595 1.6518831 0.019289637
C 0.12094832 0.2722231 -0.2290953
C 0.8349433 -0.38822612 0.97244555
C -0.29914135 -0.5243029 1.9969237
C -1.4993784 -0.9990752 1.1497997
C -1.2628226 -0.42828003 -0.27623615
C 0.88321507 0.12661566 -1.4843191
N 1.5045453 0.028455183 -2.4541304
H 0.7107243 2.106462 0.10795816
H 1.2131058 -1.3727233 0.6742296
H 1.6880019 0.20595343 1.314119
H -0.052694064 -1.2108217 2.8103387
H -0.50859725 0.45518264 2.4362009
H -1.5245776 -2.0925307 1.1127075
H -2.4539208 -0.6730898 1.5688522
H -2.0061183 0.31399378 -0.57259876
H -1.2638167 -1.2176981 -1.0304372
