20
title
C -0.61389595 1.9386511 0.10210157
C -0.14070028 0.48766732 0.026368888
C 0.83262193 0.21268015 -1.1557488
C 1.6413654 -1.047167 -0.7739765
C 1.5690594 -1.1513749 0.7770735
C 0.7189355 0.050189532 1.2470498
C -1.3308979 -0.44899175 -0.0932267
O -2.4854648 -0.10402516 -0.12483749
H 0.24305867 2.6142159 0.18830994
H -1.1848311 2.2148798 -0.7886314
H -1.2677203 2.096359 0.9642635
H 0.3142213 0.11350682 -2.1149108
H 1.495966 1.0804456 -1.2442135
H 1.2117058 -1.9400234 -1.237604
H 2.6710663 -0.9795359 -1.1347932
H 1.1053673 -2.0961301 1.0756686
H 2.5604715 -1.1373147 1.2374567
H 1.3647838 0.8942922 1.5139014
H 0.11317481 -0.17446151 2.1308782
H -1.0700686 -1.5314839 -0.15366866
