18
title
C -0.42396954 1.9815559 0.44423205
C -0.17165944 0.5026424 0.14619656
C 0.6150643 0.22782937 -1.1422181
C 1.4057878 -1.0386368 -0.78323686
C 1.699167 -0.81358266 0.7031567
O 0.59104437 -0.07305286 1.2222555
C -1.5170289 -0.23432396 0.15784876
O -2.1391177 -0.5659973 -0.8174706
H 0.53192115 2.5027547 0.54863864
H -0.99683106 2.4454892 -0.36462948
H -0.9806368 2.1021364 1.378807
H -0.0605494 0.09421226 -1.9886473
H 1.2888335 1.0636171 -1.3567375
H 0.7807574 -1.9269085 -0.9209203
H 2.3129547 -1.1682112 -1.3777053
H 1.7950554 -1.7414529 1.2759979
H 2.6230648 -0.2321615 0.8395556
H -1.8763065 -0.44952616 1.189164
