title
 OpenBabel02282109593D

 18 18  0  0  1  0  0  0  0  0999 V2000
   -0.1674    1.8976   -0.0631 C   0  0  0  0  0  0  0  0  0  0  0  0
   -0.1727    0.3687   -0.0383 C   0  0  1  0  0  0  0  0  0  0  0  0
    0.5584   -0.2791   -1.2554 C   0  0  0  0  0  0  0  0  0  0  0  0
    1.8423   -0.8531   -0.6388 C   0  0  0  0  0  0  0  0  0  0  0  0
    1.4623   -1.2488    0.6682 O   0  0  0  0  0  0  0  0  0  0  0  0
    0.6394   -0.2155    1.1700 C   0  0  0  0  0  0  0  0  0  0  0  0
   -1.5890   -0.1714    0.0362 C   0  0  0  0  0  0  0  0  0  0  0  0
   -2.5912    0.4949    0.0527 O   0  0  0  0  0  0  0  0  0  0  0  0
    0.8530    2.2772   -0.1757 H   0  0  0  0  0  0  0  0  0  0  0  0
   -0.7748    2.2758   -0.8890 H   0  0  0  0  0  0  0  0  0  0  0  0
   -0.5858    2.3069    0.8611 H   0  0  0  0  0  0  0  0  0  0  0  0
   -0.0386   -1.0922   -1.6822 H   0  0  0  0  0  0  0  0  0  0  0  0
    0.7444    0.4501   -2.0472 H   0  0  0  0  0  0  0  0  0  0  0  0
    2.2332   -1.7310   -1.1586 H   0  0  0  0  0  0  0  0  0  0  0  0
    2.6346   -0.0873   -0.6019 H   0  0  0  0  0  0  0  0  0  0  0  0
    1.2412    0.5921    1.6153 H   0  0  0  0  0  0  0  0  0  0  0  0
    0.0095   -0.6431    1.9571 H   0  0  0  0  0  0  0  0  0  0  0  0
   -1.6369   -1.2853    0.0845 H   0  0  0  0  0  0  0  0  0  0  0  0
  1  2  1  0  0  0  0
  1 11  1  0  0  0  0
  2  7  1  1  0  0  0
  2  6  1  0  0  0  0
  3  4  1  0  0  0  0
  3  2  1  0  0  0  0
  4 15  1  0  0  0  0
  4  5  1  0  0  0  0
  5  6  1  0  0  0  0
  6 16  1  0  0  0  0
  6 17  1  0  0  0  0
  7  8  2  0  0  0  0
  7 18  1  0  0  0  0
  9  1  1  0  0  0  0
 10  1  1  0  0  0  0
 12  3  1  0  0  0  0
 13  3  1  0  0  0  0
 14  4  1  0  0  0  0
M  END
