18
title
C -0.16740908 1.8975921 -0.06310556
C -0.17273611 0.36867777 -0.038264707
C 0.55841166 -0.279094 -1.2553896
C 1.8423454 -0.85311353 -0.6388384
O 1.4623356 -1.2488233 0.6682442
C 0.6393724 -0.21548863 1.1700262
C -1.5890479 -0.17135026 0.036178913
O -2.591203 0.4948611 0.052697178
H 0.85298824 2.277163 -0.1757038
H -0.7747805 2.2758067 -0.8889846
H -0.5858033 2.3069446 0.8610931
H -0.03855416 -1.0921929 -1.6822213
H 0.7444232 0.45007455 -2.0471513
H 2.2331913 -1.7309847 -1.1586031
H 2.634617 -0.08727868 -0.60187167
H 1.241183 0.5921 1.6152515
H 0.009537743 -0.6431011 1.9570538
H -1.6369492 -1.2852945 0.08449145
