16
title
C -0.21677782 2.0119302 0.32140264
C -0.13680959 0.49523535 0.15067269
C 0.5757502 0.027299069 -1.1305894
O 1.2258399 -1.1646596 -0.71466774
C 1.6443908 -0.89739406 0.59561825
O 0.64322 -0.092020966 1.2016021
C -1.5458707 -0.09906248 0.25372642
O -2.2988973 -0.22187057 -0.6756423
H 0.7893002 2.4402614 0.32161644
H -0.796007 2.4554312 -0.49417016
H -0.6988076 2.2710583 1.2685992
H -0.12468046 -0.20792404 -1.9325508
H 1.3024523 0.7795063 -1.4731523
H 1.741515 -1.8423975 1.138572
H 2.6052318 -0.35283992 0.6035994
H -1.817764 -0.40190133 1.2887895
