title
 OpenBabel02282109593D

 16 16  0  0  1  0  0  0  0  0999 V2000
   -0.2168    2.0119    0.3214 C   0  0  0  0  0  0  0  0  0  0  0  0
   -0.1368    0.4952    0.1507 C   0  0  1  0  0  0  0  0  0  0  0  0
    0.5758    0.0273   -1.1306 C   0  0  0  0  0  0  0  0  0  0  0  0
    1.2258   -1.1647   -0.7147 O   0  0  0  0  0  0  0  0  0  0  0  0
    1.6444   -0.8974    0.5956 C   0  0  0  0  0  0  0  0  0  0  0  0
    0.6432   -0.0920    1.2016 O   0  0  0  0  0  0  0  0  0  0  0  0
   -1.5459   -0.0991    0.2537 C   0  0  0  0  0  0  0  0  0  0  0  0
   -2.2989   -0.2219   -0.6756 O   0  0  0  0  0  0  0  0  0  0  0  0
    0.7893    2.4403    0.3216 H   0  0  0  0  0  0  0  0  0  0  0  0
   -0.7960    2.4554   -0.4942 H   0  0  0  0  0  0  0  0  0  0  0  0
   -0.6988    2.2711    1.2686 H   0  0  0  0  0  0  0  0  0  0  0  0
   -0.1247   -0.2079   -1.9326 H   0  0  0  0  0  0  0  0  0  0  0  0
    1.3025    0.7795   -1.4732 H   0  0  0  0  0  0  0  0  0  0  0  0
    1.7415   -1.8424    1.1386 H   0  0  0  0  0  0  0  0  0  0  0  0
    2.6052   -0.3528    0.6036 H   0  0  0  0  0  0  0  0  0  0  0  0
   -1.8178   -0.4019    1.2888 H   0  0  0  0  0  0  0  0  0  0  0  0
  1  9  1  0  0  0  0
  1 11  1  0  0  0  0
  2  7  1  1  0  0  0
  2  1  1  0  0  0  0
  2  6  1  0  0  0  0
  3  4  1  0  0  0  0
  3  2  1  0  0  0  0
  4  5  1  0  0  0  0
  5 15  1  0  0  0  0
  5 14  1  0  0  0  0
  5  6  1  0  0  0  0
  7 16  1  0  0  0  0
  8  7  2  0  0  0  0
 10  1  1  0  0  0  0
 12  3  1  0  0  0  0
 13  3  1  0  0  0  0
M  END
