16
title
C -0.4031769 1.806863 -0.16698796
C -0.17298542 0.31445763 -0.038038246
O 0.5906873 -0.22003567 -1.1119314
C 1.8847859 -0.5441845 -0.6129509
C 1.605877 -0.8623345 0.8524259
O 0.5354157 0.025416555 1.1644104
C -1.4747494 -0.5046528 0.00075198873
O -2.5797243 -0.044578876 -0.08844735
H 0.5580195 2.3228955 -0.22291383
H -0.9836858 2.0172985 -1.0672992
H -0.9592226 2.1763484 0.69734377
H 2.27519 -1.3885155 -1.1856055
H 2.5687966 0.30942482 -0.7154638
H 1.3045995 -1.909759 0.9879324
H 2.4413621 -0.641952 1.5217836
H -1.2887568 -1.593249 0.13567321
