title
 OpenBabel02282109593D

 16 16  0  0  0  0  0  0  0  0999 V2000
   -0.4032    1.8069   -0.1670 C   0  0  0  0  0  0  0  0  0  0  0  0
   -0.1730    0.3145   -0.0380 C   0  0  0  0  0  0  0  0  0  0  0  0
    0.5907   -0.2200   -1.1119 O   0  0  0  0  0  0  0  0  0  0  0  0
    1.8848   -0.5442   -0.6130 C   0  0  0  0  0  0  0  0  0  0  0  0
    1.6059   -0.8623    0.8524 C   0  0  0  0  0  0  0  0  0  0  0  0
    0.5354    0.0254    1.1644 O   0  0  0  0  0  0  0  0  0  0  0  0
   -1.4747   -0.5047    0.0008 C   0  0  0  0  0  0  0  0  0  0  0  0
   -2.5797   -0.0446   -0.0884 O   0  0  0  0  0  0  0  0  0  0  0  0
    0.5580    2.3229   -0.2229 H   0  0  0  0  0  0  0  0  0  0  0  0
   -0.9837    2.0173   -1.0673 H   0  0  0  0  0  0  0  0  0  0  0  0
   -0.9592    2.1763    0.6973 H   0  0  0  0  0  0  0  0  0  0  0  0
    2.2752   -1.3885   -1.1856 H   0  0  0  0  0  0  0  0  0  0  0  0
    2.5688    0.3094   -0.7155 H   0  0  0  0  0  0  0  0  0  0  0  0
    1.3046   -1.9098    0.9879 H   0  0  0  0  0  0  0  0  0  0  0  0
    2.4414   -0.6420    1.5218 H   0  0  0  0  0  0  0  0  0  0  0  0
   -1.2888   -1.5932    0.1357 H   0  0  0  0  0  0  0  0  0  0  0  0
  1  2  1  0  0  0  0
  1 11  1  0  0  0  0
  2  7  1  0  0  0  0
  2  6  1  0  0  0  0
  3  4  1  0  0  0  0
  3  2  1  0  0  0  0
  4  5  1  0  0  0  0
  5 14  1  0  0  0  0
  5  6  1  0  0  0  0
  5 15  1  0  0  0  0
  7 16  1  0  0  0  0
  8  7  2  0  0  0  0
  9  1  1  0  0  0  0
 10  1  1  0  0  0  0
 12  4  1  0  0  0  0
 13  4  1  0  0  0  0
M  END
