16
title
O 0.11458428 1.6979222 0.13197054
C 0.07411673 0.29595947 0.17934218
C -1.3752851 -0.26971194 0.12146323
C -1.5005577 -0.741476 -1.3329762
O -0.2093817 -1.2436345 -1.6469494
C 0.7184158 -0.32585722 -1.1104356
C 0.79297495 -0.1862444 1.4201034
O 1.2897573 0.5752207 2.2144573
H 0.5666293 1.9745799 0.9455686
H -1.4943455 -1.1238637 0.7964006
H -2.0837913 0.50871485 0.40747207
H -2.221457 -1.5481746 -1.482624
H -1.7662987 0.09980534 -1.9918733
H 0.90975404 0.5192815 -1.7864628
H 1.6576874 -0.85977733 -0.9342247
H 0.8406092 -1.2864816 1.552713
