title
 OpenBabel02282109593D

 20 20  0  0  1  0  0  0  0  0999 V2000
   -0.5713    1.8950    0.1800 C   0  0  0  0  0  0  0  0  0  0  0  0
   -0.1524    0.4212    0.1630 C   0  0  1  0  0  0  0  0  0  0  0  0
   -1.3990   -0.4866    0.0750 C   0  0  0  0  0  0  0  0  0  0  0  0
   -2.1405   -0.3450   -1.1268 O   0  0  0  0  0  0  0  0  0  0  0  0
    0.8067    0.0828   -1.0195 C   0  0  0  0  0  0  0  0  0  0  0  0
    1.8136   -0.8615   -0.4129 C   0  0  0  0  0  0  0  0  0  0  0  0
    1.7265   -0.9035    0.9150 C   0  0  0  0  0  0  0  0  0  0  0  0
    0.6427    0.0062    1.4401 C   0  0  0  0  0  0  0  0  0  0  0  0
    0.3018    2.5503    0.2605 H   0  0  0  0  0  0  0  0  0  0  0  0
   -1.0975    2.1735   -0.7408 H   0  0  0  0  0  0  0  0  0  0  0  0
   -1.2319    2.1145    1.0274 H   0  0  0  0  0  0  0  0  0  0  0  0
   -1.0823   -1.5346    0.1039 H   0  0  0  0  0  0  0  0  0  0  0  0
   -2.0382   -0.3093    0.9549 H   0  0  0  0  0  0  0  0  0  0  0  0
   -2.5620    0.5196   -1.1170 H   0  0  0  0  0  0  0  0  0  0  0  0
    0.2530   -0.3457   -1.8617 H   0  0  0  0  0  0  0  0  0  0  0  0
    1.3034    0.9843   -1.4060 H   0  0  0  0  0  0  0  0  0  0  0  0
    2.5324   -1.4118   -1.0107 H   0  0  0  0  0  0  0  0  0  0  0  0
    2.3624   -1.4904    1.5691 H   0  0  0  0  0  0  0  0  0  0  0  0
    1.0735    0.8803    1.9488 H   0  0  0  0  0  0  0  0  0  0  0  0
   -0.0023   -0.4840    2.1823 H   0  0  0  0  0  0  0  0  0  0  0  0
  1  9  1  0  0  0  0
  1 11  1  0  0  0  0
  2  3  1  6  0  0  0
  2  1  1  0  0  0  0
  2  8  1  0  0  0  0
  3 12  1  0  0  0  0
  3 13  1  0  0  0  0
  4 14  1  0  0  0  0
  4  3  1  0  0  0  0
  5  6  1  0  0  0  0
  5  2  1  0  0  0  0
  6  7  2  0  0  0  0
  7  8  1  0  0  0  0
  7 18  1  0  0  0  0
  8 19  1  0  0  0  0
  8 20  1  0  0  0  0
 10  1  1  0  0  0  0
 15  5  1  0  0  0  0
 16  5  1  0  0  0  0
 17  6  1  0  0  0  0
M  END
