20
title
C -0.5712861 1.8949572 0.17996135
C -0.15238376 0.42115113 0.16297455
C -1.3989723 -0.48664102 0.07495607
O -2.140476 -0.34495535 -1.1268399
C 0.8067304 0.082809724 -1.0194644
C 1.8136328 -0.8615318 -0.4129429
C 1.7265052 -0.90351325 0.9150392
C 0.64269644 0.0062138666 1.4400939
H 0.30178288 2.5503278 0.26051363
H -1.0975482 2.1734731 -0.7407512
H -1.2319391 2.114531 1.0274328
H -1.0822872 -1.5346333 0.10393756
H -2.0381517 -0.3092688 0.95491993
H -2.5619652 0.51956904 -1.1170057
H 0.25301987 -0.3457323 -1.8616871
H 1.3034303 0.9843096 -1.4060034
H 2.5324345 -1.4118011 -1.010669
H 2.362388 -1.4903812 1.5690918
H 1.073468 0.88028765 1.9488344
H -0.0022650585 -0.48395243 2.182253
