20
title
C -0.63582814 2.120807 -1.5936078
C -0.5663889 0.59291 -1.505
C 0.15552087 0.061168186 -0.2563102
O 1.5077605 0.5329647 -0.22087748
C -0.5650975 0.40270373 1.0863131
C -0.41670173 -0.8515771 1.9095491
C 0.03614422 -1.8724877 1.1855835
C 0.2780812 -1.4862479 -0.25008366
H 0.36560628 2.562364 -1.6400661
H -1.1667665 2.4356854 -2.4966981
H -1.1599784 2.55549 -0.7353512
H -1.5810456 0.17623179 -1.525196
H -0.0466874 0.20197837 -2.388061
H 1.4872923 1.4800271 -0.05004032
H -0.112094976 1.2817864 1.5625743
H -1.6246074 0.64924943 0.9295737
H -0.6778858 -0.8932745 2.9613216
H 0.20100226 -2.8786485 1.5551227
H -0.45852438 -1.9519805 -0.91851646
H 1.2691622 -1.7725395 -0.6176127
