title
 OpenBabel02282109593D

 20 20  0  0  1  0  0  0  0  0999 V2000
   -0.6358    2.1208   -1.5936 C   0  0  0  0  0  0  0  0  0  0  0  0
   -0.5664    0.5929   -1.5050 C   0  0  0  0  0  0  0  0  0  0  0  0
    0.1555    0.0612   -0.2563 C   0  0  1  0  0  0  0  0  0  0  0  0
    1.5078    0.5330   -0.2209 O   0  0  0  0  0  0  0  0  0  0  0  0
   -0.5651    0.4027    1.0863 C   0  0  0  0  0  0  0  0  0  0  0  0
   -0.4167   -0.8516    1.9095 C   0  0  0  0  0  0  0  0  0  0  0  0
    0.0361   -1.8725    1.1856 C   0  0  0  0  0  0  0  0  0  0  0  0
    0.2781   -1.4862   -0.2501 C   0  0  0  0  0  0  0  0  0  0  0  0
    0.3656    2.5624   -1.6401 H   0  0  0  0  0  0  0  0  0  0  0  0
   -1.1668    2.4357   -2.4967 H   0  0  0  0  0  0  0  0  0  0  0  0
   -1.1600    2.5555   -0.7354 H   0  0  0  0  0  0  0  0  0  0  0  0
   -1.5810    0.1762   -1.5252 H   0  0  0  0  0  0  0  0  0  0  0  0
   -0.0467    0.2020   -2.3881 H   0  0  0  0  0  0  0  0  0  0  0  0
    1.4873    1.4800   -0.0500 H   0  0  0  0  0  0  0  0  0  0  0  0
   -0.1121    1.2818    1.5626 H   0  0  0  0  0  0  0  0  0  0  0  0
   -1.6246    0.6492    0.9296 H   0  0  0  0  0  0  0  0  0  0  0  0
   -0.6779   -0.8933    2.9613 H   0  0  0  0  0  0  0  0  0  0  0  0
    0.2010   -2.8786    1.5551 H   0  0  0  0  0  0  0  0  0  0  0  0
   -0.4585   -1.9520   -0.9185 H   0  0  0  0  0  0  0  0  0  0  0  0
    1.2692   -1.7725   -0.6176 H   0  0  0  0  0  0  0  0  0  0  0  0
  1  2  1  0  0  0  0
  1 11  1  0  0  0  0
  2  3  1  0  0  0  0
  3  8  1  0  0  0  0
  3  4  1  1  0  0  0
  3  5  1  0  0  0  0
  4 14  1  0  0  0  0
  5 15  1  0  0  0  0
  5  6  1  0  0  0  0
  6 17  1  0  0  0  0
  7 18  1  0  0  0  0
  7  6  2  0  0  0  0
  8  7  1  0  0  0  0
  9  1  1  0  0  0  0
 10  1  1  0  0  0  0
 12  2  1  0  0  0  0
 13  2  1  0  0  0  0
 16  5  1  0  0  0  0
 19  8  1  0  0  0  0
 20  8  1  0  0  0  0
M  END
