title
 OpenBabel02282109593D

 20 20  0  0  1  0  0  0  0  0999 V2000
    1.1585    2.1888    0.6486 C   0  0  0  0  0  0  0  0  0  0  0  0
    1.2302    0.7830    0.5802 O   0  0  0  0  0  0  0  0  0  0  0  0
    0.0093    0.0928    0.3210 C   0  0  1  0  0  0  0  0  0  0  0  0
   -1.0452    0.3690    1.4005 C   0  0  0  0  0  0  0  0  0  0  0  0
   -0.5698    0.3849   -1.1026 C   0  0  0  0  0  0  0  0  0  0  0  0
   -0.9363   -0.9809   -1.6253 C   0  0  0  0  0  0  0  0  0  0  0  0
   -0.4327   -1.9571   -0.8719 C   0  0  0  0  0  0  0  0  0  0  0  0
    0.3596   -1.4213    0.2910 C   0  0  0  0  0  0  0  0  0  0  0  0
    2.1870    2.5511    0.7276 H   0  0  0  0  0  0  0  0  0  0  0  0
    0.7041    2.6303   -0.2506 H   0  0  0  0  0  0  0  0  0  0  0  0
    0.6000    2.5438    1.5262 H   0  0  0  0  0  0  0  0  0  0  0  0
   -1.3947    1.4057    1.3806 H   0  0  0  0  0  0  0  0  0  0  0  0
   -1.9145   -0.2752    1.2356 H   0  0  0  0  0  0  0  0  0  0  0  0
   -0.6390    0.1559    2.3942 H   0  0  0  0  0  0  0  0  0  0  0  0
   -1.4206    1.0764   -1.0788 H   0  0  0  0  0  0  0  0  0  0  0  0
    0.2003    0.8507   -1.7324 H   0  0  0  0  0  0  0  0  0  0  0  0
   -1.5166   -1.1219   -2.5308 H   0  0  0  0  0  0  0  0  0  0  0  0
   -0.5401   -3.0185   -1.0670 H   0  0  0  0  0  0  0  0  0  0  0  0
    1.4390   -1.5367    0.1322 H   0  0  0  0  0  0  0  0  0  0  0  0
    0.1254   -1.9148    1.2415 H   0  0  0  0  0  0  0  0  0  0  0  0
  1  9  1  0  0  0  0
  1 11  1  0  0  0  0
  2  1  1  0  0  0  0
  3  2  1  1  0  0  0
  3  4  1  0  0  0  0
  4 14  1  0  0  0  0
  5 15  1  0  0  0  0
  5  3  1  0  0  0  0
  6  5  1  0  0  0  0
  6  7  2  0  0  0  0
  7  8  1  0  0  0  0
  8  3  1  0  0  0  0
  8 20  1  0  0  0  0
 10  1  1  0  0  0  0
 12  4  1  0  0  0  0
 13  4  1  0  0  0  0
 16  5  1  0  0  0  0
 17  6  1  0  0  0  0
 18  7  1  0  0  0  0
 19  8  1  0  0  0  0
M  END
