20
title
C 1.1585487 2.1887867 0.6485948
O 1.230238 0.7830128 0.5801895
C 0.009316457 0.09279473 0.32096335
C -1.0451856 0.36898753 1.4004922
C -0.56983495 0.38492927 -1.1026139
C -0.93630195 -0.9809395 -1.6253284
C -0.43274295 -1.9571028 -0.8719373
C 0.35957098 -1.4213233 0.29098114
H 2.1869833 2.55105 0.72759455
H 0.7040627 2.6303375 -0.25059715
H 0.6000256 2.5437667 1.5261842
H -1.3947098 1.4056664 1.3806037
H -1.9144707 -0.2751716 1.2355514
H -0.6389699 0.15587647 2.3942337
H -1.4205782 1.0764109 -1.0788116
H 0.2002932 0.85072434 -1.7323903
H -1.5166214 -1.1218829 -2.5308244
H -0.5401088 -3.0184941 -1.0670252
H 1.4390378 -1.5366638 0.13219158
H 0.12541093 -1.9148443 1.2415158
