17
title
C 1.2801176 1.9949012 -0.58988357
O 1.2227086 0.5805176 -0.47470242
C -0.047748704 -0.0016547346 -0.45400718
C -0.89613175 0.31129625 -1.6791549
C 0.15526591 -1.5055836 -0.13770956
N -0.29344276 -1.6871167 1.249298
C -0.7651906 -0.5659651 1.5996194
O -0.7741277 0.4702431 0.7232525
H 2.3208642 2.2727878 -0.41142946
H 0.9926665 2.3403075 -1.591195
H 0.6449755 2.4829624 0.15728498
H -0.36099258 0.012759218 -2.5851984
H -1.8382933 -0.23916154 -1.6285983
H -1.1320488 1.3759694 -1.743227
H -0.42476478 -2.1526816 -0.80381656
H 1.2120267 -1.7641908 -0.24060798
H -1.1955159 -0.33883458 2.569045
