title
 OpenBabel02282109593D

 17 17  0  0  1  0  0  0  0  0999 V2000
    1.2801    1.9949   -0.5899 C   0  0  0  0  0  0  0  0  0  0  0  0
    1.2227    0.5805   -0.4747 O   0  0  0  0  0  0  0  0  0  0  0  0
   -0.0477   -0.0017   -0.4540 C   0  0  1  0  0  0  0  0  0  0  0  0
   -0.8961    0.3113   -1.6792 C   0  0  0  0  0  0  0  0  0  0  0  0
    0.1553   -1.5056   -0.1377 C   0  0  0  0  0  0  0  0  0  0  0  0
   -0.2934   -1.6871    1.2493 N   0  0  0  0  0  0  0  0  0  0  0  0
   -0.7652   -0.5660    1.5996 C   0  0  0  0  0  0  0  0  0  0  0  0
   -0.7741    0.4702    0.7233 O   0  0  0  0  0  0  0  0  0  0  0  0
    2.3209    2.2728   -0.4114 H   0  0  0  0  0  0  0  0  0  0  0  0
    0.9927    2.3403   -1.5912 H   0  0  0  0  0  0  0  0  0  0  0  0
    0.6450    2.4830    0.1573 H   0  0  0  0  0  0  0  0  0  0  0  0
   -0.3610    0.0128   -2.5852 H   0  0  0  0  0  0  0  0  0  0  0  0
   -1.8383   -0.2392   -1.6286 H   0  0  0  0  0  0  0  0  0  0  0  0
   -1.1320    1.3760   -1.7432 H   0  0  0  0  0  0  0  0  0  0  0  0
   -0.4248   -2.1527   -0.8038 H   0  0  0  0  0  0  0  0  0  0  0  0
    1.2120   -1.7642   -0.2406 H   0  0  0  0  0  0  0  0  0  0  0  0
   -1.1955   -0.3388    2.5690 H   0  0  0  0  0  0  0  0  0  0  0  0
  1  2  1  0  0  0  0
  1  9  1  0  0  0  0
  1 11  1  0  0  0  0
  3  2  1  6  0  0  0
  3  5  1  0  0  0  0
  3  8  1  0  0  0  0
  4 13  1  0  0  0  0
  4  3  1  0  0  0  0
  5  6  1  0  0  0  0
  6  7  2  0  0  0  0
  7 17  1  0  0  0  0
  8  7  1  0  0  0  0
 10  1  1  0  0  0  0
 12  4  1  0  0  0  0
 14  4  1  0  0  0  0
 15  5  1  0  0  0  0
 16  5  1  0  0  0  0
M  END
