18
title
O 1.5125854 1.8596683 0.060239162
C 1.4497381 0.43578666 0.115524255
C -0.009888683 0.067624144 0.39215472
O -0.40831366 0.6897957 1.6046559
C -0.9146529 0.45754772 -0.8209755
C -1.1735544 -0.85522527 -1.5136967
C -0.7710734 -1.8952993 -0.7848291
C -0.16541258 -1.4683119 0.5278135
H 2.4347358 2.1292331 0.072278865
H 1.7841076 -0.019534325 -0.8283252
H 2.0738661 0.04960188 0.933811
H -0.06891731 1.592991 1.5589552
H -1.8445144 0.9019221 -0.44381768
H -0.44236115 1.2092286 -1.4622228
H -1.6608593 -0.9209623 -2.4806516
H -0.8805364 -2.9375763 -1.0636597
H 0.7892159 -1.9644288 0.745179
H -0.82727915 -1.6858109 1.375568
