title
 OpenBabel02282109593D

 20 20  0  0  1  0  0  0  0  0999 V2000
   -0.0718    1.9781   -0.1832 C   0  0  0  0  0  0  0  0  0  0  0  0
   -0.0574    0.4429   -0.1775 C   0  0  1  0  0  0  0  0  0  0  0  0
   -1.5117   -0.0856   -0.2098 C   0  0  0  0  0  0  0  0  0  0  0  0
   -2.2691    0.2659    0.9378 O   0  0  0  0  0  0  0  0  0  0  0  0
    0.7517   -0.1646   -1.3634 C   0  0  0  0  0  0  0  0  0  0  0  0
    1.5398   -1.3700   -0.7870 C   0  0  0  0  0  0  0  0  0  0  0  0
    1.5206   -1.1068    0.6998 C   0  0  0  0  0  0  0  0  0  0  0  0
    0.6750   -0.1312    1.0248 C   0  0  0  0  0  0  0  0  0  0  0  0
    0.9380    2.3828   -0.0632 H   0  0  0  0  0  0  0  0  0  0  0  0
   -0.4799    2.3583   -1.1269 H   0  0  0  0  0  0  0  0  0  0  0  0
   -0.6992    2.3588    0.6280 H   0  0  0  0  0  0  0  0  0  0  0  0
   -2.0415    0.3573   -1.0613 H   0  0  0  0  0  0  0  0  0  0  0  0
   -1.5012   -1.1768   -0.3565 H   0  0  0  0  0  0  0  0  0  0  0  0
   -1.9037   -0.2209    1.6835 H   0  0  0  0  0  0  0  0  0  0  0  0
    0.1062   -0.4443   -2.2025 H   0  0  0  0  0  0  0  0  0  0  0  0
    1.4531    0.5873   -1.7386 H   0  0  0  0  0  0  0  0  0  0  0  0
    1.0594   -2.3305   -1.0197 H   0  0  0  0  0  0  0  0  0  0  0  0
    2.5561   -1.4362   -1.1919 H   0  0  0  0  0  0  0  0  0  0  0  0
    2.1208   -1.6757    1.4022 H   0  0  0  0  0  0  0  0  0  0  0  0
    0.4944    0.2278    2.0335 H   0  0  0  0  0  0  0  0  0  0  0  0
  1  2  1  0  0  0  0
  1  9  1  0  0  0  0
  1 11  1  0  0  0  0
  2  3  1  6  0  0  0
  2  8  1  0  0  0  0
  3  4  1  0  0  0  0
  4 14  1  0  0  0  0
  5  6  1  0  0  0  0
  5  2  1  0  0  0  0
  6  7  1  0  0  0  0
  7  8  2  0  0  0  0
  7 19  1  0  0  0  0
  8 20  1  0  0  0  0
 10  1  1  0  0  0  0
 12  3  1  0  0  0  0
 13  3  1  0  0  0  0
 15  5  1  0  0  0  0
 16  5  1  0  0  0  0
 17  6  1  0  0  0  0
 18  6  1  0  0  0  0
M  END
