20
title
C -0.071828276 1.9781011 -0.18316546
C -0.057428505 0.44289577 -0.17747447
C -1.5116879 -0.08559096 -0.20984852
O -2.2691143 0.2659401 0.93784636
C 0.7516602 -0.1645788 -1.3634228
C 1.5398165 -1.369959 -0.7869712
C 1.5205727 -1.1068135 0.69975406
C 0.67495817 -0.1312117 1.0247884
H 0.93801427 2.3828177 -0.063221425
H -0.4798572 2.3582823 -1.126885
H -0.6991569 2.3588336 0.6279525
H -2.0414903 0.35732013 -1.0613381
H -1.5011543 -1.1767884 -0.35650238
H -1.9036894 -0.22085696 1.6834898
H 0.10620803 -0.44434005 -2.2024603
H 1.4530971 0.58726674 -1.7386311
H 1.0594218 -2.3304532 -1.0196635
H 2.5561156 -1.4362178 -1.191928
H 2.120796 -1.6756732 1.4022387
H 0.49437356 0.22782537 2.0334911
