title
 OpenBabel02282109593D

 17 17  0  0  1  0  0  0  0  0999 V2000
   -0.0395    1.9006   -0.1149 C   0  0  0  0  0  0  0  0  0  0  0  0
   -0.1209    0.3739   -0.1939 C   0  0  1  0  0  0  0  0  0  0  0  0
   -1.5863   -0.0987   -0.2665 C   0  0  0  0  0  0  0  0  0  0  0  0
   -2.3089    0.2631    0.8879 O   0  0  0  0  0  0  0  0  0  0  0  0
    0.7438   -0.2238   -1.3386 C   0  0  0  0  0  0  0  0  0  0  0  0
    1.7145   -1.0642   -0.6645 O   0  0  0  0  0  0  0  0  0  0  0  0
    1.4199   -0.9658    0.6497 C   0  0  0  0  0  0  0  0  0  0  0  0
    0.4649   -0.2277    1.0337 N   0  0  0  0  0  0  0  0  0  0  0  0
    0.9909    2.2265    0.0533 H   0  0  0  0  0  0  0  0  0  0  0  0
   -0.3980    2.3508   -1.0473 H   0  0  0  0  0  0  0  0  0  0  0  0
   -0.6626    2.2653    0.7038 H   0  0  0  0  0  0  0  0  0  0  0  0
   -2.0916    0.3661   -1.1215 H   0  0  0  0  0  0  0  0  0  0  0  0
   -1.5954   -1.1904   -0.4244 H   0  0  0  0  0  0  0  0  0  0  0  0
   -1.7619   -0.0147    1.6346 H   0  0  0  0  0  0  0  0  0  0  0  0
    0.1753   -0.8537   -2.0304 H   0  0  0  0  0  0  0  0  0  0  0  0
    1.2881    0.5335   -1.9085 H   0  0  0  0  0  0  0  0  0  0  0  0
    2.0611   -1.5561    1.2955 H   0  0  0  0  0  0  0  0  0  0  0  0
  1  9  1  0  0  0  0
  1 11  1  0  0  0  0
  2  3  1  6  0  0  0
  2  1  1  0  0  0  0
  2  8  1  0  0  0  0
  3  4  1  0  0  0  0
  4 14  1  0  0  0  0
  5  6  1  0  0  0  0
  5  2  1  0  0  0  0
  6  7  1  0  0  0  0
  7  8  2  0  0  0  0
  7 17  1  0  0  0  0
 10  1  1  0  0  0  0
 12  3  1  0  0  0  0
 13  3  1  0  0  0  0
 15  5  1  0  0  0  0
 16  5  1  0  0  0  0
M  END
