18
title
C 0.051433876 1.9105986 0.12001239
C -0.084320314 0.39021665 0.23974715
C -1.5677636 -0.03768752 0.26226473
O -2.210906 0.294703 -0.95048916
O 0.49636105 -0.22154482 -0.9397216
C 1.4886436 -1.1792682 -0.5762271
C 1.581178 -1.0933715 0.92123723
C 0.7033453 -0.20798178 1.3764863
H 1.0984839 2.1892576 -0.020897998
H -0.5344083 2.2670002 -0.73033124
H -0.32358694 2.401873 1.0241026
H -1.6171759 -1.1194677 0.46221626
H -2.1049554 0.47947615 1.0650256
H -1.6374326 -0.055053573 -1.6446481
H 1.1954634 -2.184207 -0.91965747
H 2.4387283 -0.93368477 -1.0747452
H 2.2746863 -1.6845039 1.5060982
H 0.53649414 0.06972392 2.409677
