title
 OpenBabel02282109593D

 18 18  0  0  1  0  0  0  0  0999 V2000
    0.0514    1.9106    0.1200 C   0  0  0  0  0  0  0  0  0  0  0  0
   -0.0843    0.3902    0.2397 C   0  0  1  0  0  0  0  0  0  0  0  0
   -1.5678   -0.0377    0.2623 C   0  0  0  0  0  0  0  0  0  0  0  0
   -2.2109    0.2947   -0.9505 O   0  0  0  0  0  0  0  0  0  0  0  0
    0.4964   -0.2215   -0.9397 O   0  0  0  0  0  0  0  0  0  0  0  0
    1.4886   -1.1793   -0.5762 C   0  0  0  0  0  0  0  0  0  0  0  0
    1.5812   -1.0934    0.9212 C   0  0  0  0  0  0  0  0  0  0  0  0
    0.7033   -0.2080    1.3765 C   0  0  0  0  0  0  0  0  0  0  0  0
    1.0985    2.1893   -0.0209 H   0  0  0  0  0  0  0  0  0  0  0  0
   -0.5344    2.2670   -0.7303 H   0  0  0  0  0  0  0  0  0  0  0  0
   -0.3236    2.4019    1.0241 H   0  0  0  0  0  0  0  0  0  0  0  0
   -1.6172   -1.1195    0.4622 H   0  0  0  0  0  0  0  0  0  0  0  0
   -2.1050    0.4795    1.0650 H   0  0  0  0  0  0  0  0  0  0  0  0
   -1.6374   -0.0551   -1.6446 H   0  0  0  0  0  0  0  0  0  0  0  0
    1.1955   -2.1842   -0.9197 H   0  0  0  0  0  0  0  0  0  0  0  0
    2.4387   -0.9337   -1.0747 H   0  0  0  0  0  0  0  0  0  0  0  0
    2.2747   -1.6845    1.5061 H   0  0  0  0  0  0  0  0  0  0  0  0
    0.5365    0.0697    2.4097 H   0  0  0  0  0  0  0  0  0  0  0  0
  1 11  1  0  0  0  0
  2  1  1  6  0  0  0
  2  3  1  0  0  0  0
  2  8  1  0  0  0  0
  3 12  1  0  0  0  0
  3 13  1  0  0  0  0
  4  3  1  0  0  0  0
  5  6  1  0  0  0  0
  5  2  1  0  0  0  0
  6  7  1  0  0  0  0
  7  8  2  0  0  0  0
  7 17  1  0  0  0  0
  8 18  1  0  0  0  0
  9  1  1  0  0  0  0
 10  1  1  0  0  0  0
 14  4  1  0  0  0  0
 15  6  1  0  0  0  0
 16  6  1  0  0  0  0
M  END
