title
 OpenBabel02282109593D

 22 22  0  0  1  0  0  0  0  0999 V2000
    1.7118    1.9913   -0.0481 C   0  0  0  0  0  0  0  0  0  0  0  0
    1.4587    0.4912   -0.2326 C   0  0  0  0  0  0  0  0  0  0  0  0
   -0.0178    0.0719   -0.4736 C   0  0  1  0  0  0  0  0  0  0  0  0
   -0.5276    0.6234   -1.8154 C   0  0  0  0  0  0  0  0  0  0  0  0
   -0.1421   -1.4838   -0.4110 C   0  0  0  0  0  0  0  0  0  0  0  0
   -0.6237   -1.8290    1.0209 C   0  0  0  0  0  0  0  0  0  0  0  0
   -1.2142   -0.5231    1.4968 C   0  0  0  0  0  0  0  0  0  0  0  0
   -0.8980    0.4904    0.6940 C   0  0  0  0  0  0  0  0  0  0  0  0
    2.7760    2.1824    0.1229 H   0  0  0  0  0  0  0  0  0  0  0  0
    1.4146    2.5701   -0.9284 H   0  0  0  0  0  0  0  0  0  0  0  0
    1.1653    2.3881    0.8134 H   0  0  0  0  0  0  0  0  0  0  0  0
    2.0587    0.1251   -1.0768 H   0  0  0  0  0  0  0  0  0  0  0  0
    1.8231   -0.0398    0.6558 H   0  0  0  0  0  0  0  0  0  0  0  0
    0.0819    0.2515   -2.6473 H   0  0  0  0  0  0  0  0  0  0  0  0
   -1.5630    0.3156   -1.9922 H   0  0  0  0  0  0  0  0  0  0  0  0
   -0.4998    1.7172   -1.8467 H   0  0  0  0  0  0  0  0  0  0  0  0
   -0.8960   -1.8138   -1.1334 H   0  0  0  0  0  0  0  0  0  0  0  0
    0.7955   -1.9816   -0.6759 H   0  0  0  0  0  0  0  0  0  0  0  0
   -1.3473   -2.6522    1.0299 H   0  0  0  0  0  0  0  0  0  0  0  0
    0.2022   -2.1452    1.6735 H   0  0  0  0  0  0  0  0  0  0  0  0
   -1.8004   -0.4417    2.4062 H   0  0  0  0  0  0  0  0  0  0  0  0
   -1.1972    1.5221    0.8477 H   0  0  0  0  0  0  0  0  0  0  0  0
  1  9  1  0  0  0  0
  1 11  1  0  0  0  0
  2  1  1  0  0  0  0
  2 13  1  0  0  0  0
  3  4  1  6  0  0  0
  3  5  1  0  0  0  0
  3  2  1  0  0  0  0
  3  8  1  0  0  0  0
  5  6  1  0  0  0  0
  6 19  1  0  0  0  0
  6  7  1  0  0  0  0
  6 20  1  0  0  0  0
  7 21  1  0  0  0  0
  8 22  1  0  0  0  0
  8  7  2  0  0  0  0
 10  1  1  0  0  0  0
 12  2  1  0  0  0  0
 14  4  1  0  0  0  0
 15  4  1  0  0  0  0
 16  4  1  0  0  0  0
 17  5  1  0  0  0  0
 18  5  1  0  0  0  0
M  END
