title
 OpenBabel02282109593D

 22 22  0  0  0  0  0  0  0  0999 V2000
   -0.6262    1.9421    0.3034 C   0  0  0  0  0  0  0  0  0  0  0  0
   -0.1551    0.4872    0.1987 C   0  0  0  0  0  0  0  0  0  0  0  0
   -1.3763   -0.4378    0.0728 C   0  0  0  0  0  0  0  0  0  0  0  0
   -2.0684   -0.1301   -1.1308 O   0  0  0  0  0  0  0  0  0  0  0  0
    0.8231    0.2587   -0.9772 C   0  0  0  0  0  0  0  0  0  0  0  0
    1.5925   -1.0325   -0.6299 C   0  0  0  0  0  0  0  0  0  0  0  0
    1.5900   -1.1196    0.9246 C   0  0  0  0  0  0  0  0  0  0  0  0
    0.6931    0.0451    1.4154 C   0  0  0  0  0  0  0  0  0  0  0  0
    0.2281    2.6247    0.3618 H   0  0  0  0  0  0  0  0  0  0  0  0
   -1.2312    2.2197   -0.5636 H   0  0  0  0  0  0  0  0  0  0  0  0
   -1.2382    2.0942    1.2003 H   0  0  0  0  0  0  0  0  0  0  0  0
   -1.0580   -1.4916    0.0793 H   0  0  0  0  0  0  0  0  0  0  0  0
   -2.0272   -0.2877    0.9496 H   0  0  0  0  0  0  0  0  0  0  0  0
   -2.8260   -0.7173   -1.2018 H   0  0  0  0  0  0  0  0  0  0  0  0
    0.3031    0.2044   -1.9362 H   0  0  0  0  0  0  0  0  0  0  0  0
    1.5156    1.1076   -1.0268 H   0  0  0  0  0  0  0  0  0  0  0  0
    1.0917   -1.9047   -1.0622 H   0  0  0  0  0  0  0  0  0  0  0  0
    2.6052   -1.0258   -1.0425 H   0  0  0  0  0  0  0  0  0  0  0  0
    1.2013   -2.0862    1.2587 H   0  0  0  0  0  0  0  0  0  0  0  0
    2.5992   -1.0374    1.3378 H   0  0  0  0  0  0  0  0  0  0  0  0
    1.3123    0.8910    1.7346 H   0  0  0  0  0  0  0  0  0  0  0  0
    0.0752   -0.2311    2.2773 H   0  0  0  0  0  0  0  0  0  0  0  0
  1  9  1  0  0  0  0
  1 11  1  0  0  0  0
  2  1  1  0  0  0  0
  2  8  1  0  0  0  0
  3 12  1  0  0  0  0
  3  2  1  0  0  0  0
  3 13  1  0  0  0  0
  4  3  1  0  0  0  0
  5  6  1  0  0  0  0
  5  2  1  0  0  0  0
  6  7  1  0  0  0  0
  7 19  1  0  0  0  0
  7 20  1  0  0  0  0
  7  8  1  0  0  0  0
  8 21  1  0  0  0  0
  8 22  1  0  0  0  0
 10  1  1  0  0  0  0
 14  4  1  0  0  0  0
 15  5  1  0  0  0  0
 16  5  1  0  0  0  0
 17  6  1  0  0  0  0
 18  6  1  0  0  0  0
M  END
