title
 OpenBabel02282109593D

 18 18  0  0  1  0  0  0  0  0999 V2000
   -0.2181    1.9795   -0.1501 C   0  0  0  0  0  0  0  0  0  0  0  0
   -0.1423    0.4596   -0.2178 C   0  0  1  0  0  0  0  0  0  0  0  0
   -1.5358   -0.1895   -0.2624 C   0  0  0  0  0  0  0  0  0  0  0  0
   -2.2371    0.0159    0.9451 O   0  0  0  0  0  0  0  0  0  0  0  0
    0.7691   -0.0824   -1.3360 C   0  0  0  0  0  0  0  0  0  0  0  0
    1.3834   -1.2195   -0.7475 O   0  0  0  0  0  0  0  0  0  0  0  0
    1.5997   -0.8431    0.5862 C   0  0  0  0  0  0  0  0  0  0  0  0
    0.4975   -0.0467    0.9816 O   0  0  0  0  0  0  0  0  0  0  0  0
    0.7691    2.4080    0.0425 H   0  0  0  0  0  0  0  0  0  0  0  0
   -0.5961    2.3857   -1.0948 H   0  0  0  0  0  0  0  0  0  0  0  0
   -0.8995    2.2825    0.6480 H   0  0  0  0  0  0  0  0  0  0  0  0
   -2.1366    0.2574   -1.0624 H   0  0  0  0  0  0  0  0  0  0  0  0
   -1.4148   -1.2617   -0.4837 H   0  0  0  0  0  0  0  0  0  0  0  0
   -1.6293   -0.2593    1.6435 H   0  0  0  0  0  0  0  0  0  0  0  0
    0.2215   -0.4087   -2.2236 H   0  0  0  0  0  0  0  0  0  0  0  0
    1.5205    0.6661   -1.6307 H   0  0  0  0  0  0  0  0  0  0  0  0
    1.6548   -1.7438    1.2054 H   0  0  0  0  0  0  0  0  0  0  0  0
    2.5322   -0.2585    0.6848 H   0  0  0  0  0  0  0  0  0  0  0  0
  1  9  1  0  0  0  0
  1 11  1  0  0  0  0
  2  3  1  6  0  0  0
  2  1  1  0  0  0  0
  2  8  1  0  0  0  0
  3  4  1  0  0  0  0
  4 14  1  0  0  0  0
  5  6  1  0  0  0  0
  5  2  1  0  0  0  0
  6  7  1  0  0  0  0
  7 18  1  0  0  0  0
  7  8  1  0  0  0  0
  7 17  1  0  0  0  0
 10  1  1  0  0  0  0
 12  3  1  0  0  0  0
 13  3  1  0  0  0  0
 15  5  1  0  0  0  0
 16  5  1  0  0  0  0
M  END
