22
title
C -0.7333475 2.0658715 1.7298019
C -0.58190763 0.54566693 1.5928872
C 0.18991977 0.061896876 0.3514586
C 1.6442217 0.5645288 0.34125346
C 0.17267525 -1.4935985 0.23670954
C -0.12178657 -1.7701292 -1.2584437
O -0.06951357 -0.512201 -1.9218913
C -0.49844736 0.4516821 -0.97676724
H 0.23425615 2.5672653 1.8255559
H -1.249841 2.500531 0.8671226
H -1.3192946 2.3139098 2.6203198
H -0.08782164 0.15110265 2.4904332
H -1.5812 0.091117874 1.5744412
H 2.192495 0.19950964 1.2168682
H 2.1603005 0.2083591 -0.555391
H 1.6984407 1.6575902 0.34212452
H 1.1278552 -1.9219677 0.5516409
H -0.6035279 -1.9279797 0.87332964
H 0.6079498 -2.4285693 -1.7375163
H -1.118494 -2.22224 -1.3812686
H -1.5971723 0.42907268 -0.86297554
H -0.21054399 1.4368585 -1.3530988
