title
 OpenBabel02282109593D

 20 20  0  0  1  0  0  0  0  0999 V2000
   -1.0386    2.1290   -1.0949 C   0  0  0  0  0  0  0  0  0  0  0  0
   -1.1033    0.6052   -0.9667 C   0  0  0  0  0  0  0  0  0  0  0  0
   -0.4224    0.0376    0.2937 C   0  0  1  0  0  0  0  0  0  0  0  0
   -1.1173    0.4484    1.5897 C   0  0  0  0  0  0  0  0  0  0  0  0
   -0.2377   -1.4924    0.1711 C   0  0  0  0  0  0  0  0  0  0  0  0
    1.0283   -1.6263   -0.4558 O   0  0  0  0  0  0  0  0  0  0  0  0
    1.8000   -0.6026    0.1176 C   0  0  0  0  0  0  0  0  0  0  0  0
    0.9466    0.5034    0.3252 O   0  0  0  0  0  0  0  0  0  0  0  0
   -0.0032    2.4722   -1.0251 H   0  0  0  0  0  0  0  0  0  0  0  0
   -1.4429    2.4516   -2.0592 H   0  0  0  0  0  0  0  0  0  0  0  0
   -1.6161    2.6324   -0.3133 H   0  0  0  0  0  0  0  0  0  0  0  0
   -2.1483    0.2685   -0.9785 H   0  0  0  0  0  0  0  0  0  0  0  0
   -0.6138    0.1465   -1.8339 H   0  0  0  0  0  0  0  0  0  0  0  0
   -2.1474    0.0760    1.6115 H   0  0  0  0  0  0  0  0  0  0  0  0
   -0.5847    0.0424    2.4544 H   0  0  0  0  0  0  0  0  0  0  0  0
   -1.1463    1.5358    1.6918 H   0  0  0  0  0  0  0  0  0  0  0  0
   -0.2370   -1.9714    1.1630 H   0  0  0  0  0  0  0  0  0  0  0  0
   -0.9877   -1.9736   -0.4598 H   0  0  0  0  0  0  0  0  0  0  0  0
    2.2301   -0.9301    1.0823 H   0  0  0  0  0  0  0  0  0  0  0  0
    2.6037   -0.3355   -0.5767 H   0  0  0  0  0  0  0  0  0  0  0  0
  1  9  1  0  0  0  0
  1  2  1  0  0  0  0
  1 11  1  0  0  0  0
  3  2  1  6  0  0  0
  3  8  1  0  0  0  0
  3  4  1  0  0  0  0
  4 14  1  0  0  0  0
  4 16  1  0  0  0  0
  4 15  1  0  0  0  0
  5  3  1  0  0  0  0
  5 17  1  0  0  0  0
  6  7  1  0  0  0  0
  6  5  1  0  0  0  0
  7  8  1  0  0  0  0
  7 19  1  0  0  0  0
 10  1  1  0  0  0  0
 12  2  1  0  0  0  0
 13  2  1  0  0  0  0
 18  5  1  0  0  0  0
 20  7  1  0  0  0  0
M  END
