20
title
C 1.7655209 1.5796914 -0.29152632
C 1.7291933 0.06955589 -0.058410347
C 0.31338185 -0.5062378 0.050080355
C 0.3190505 -2.0283196 0.20205209
O -0.34188467 0.110787824 1.1541178
C -1.6934208 0.31769213 0.7800078
C -1.5815948 0.60155696 -0.7182255
O -0.4569524 -0.17100558 -1.1133237
H 2.7974129 1.9375278 -0.35262674
H 1.2622719 1.8378077 -1.2275674
H 1.2688093 2.1100874 0.5250392
H 2.2384794 -0.45340684 -0.87568724
H 2.2625806 -0.18754329 0.86396426
H 0.919204 -2.3238602 1.0670191
H -0.6997648 -2.4005196 0.33791918
H 0.7361185 -2.4947395 -0.6944936
H -2.30574 -0.5753718 0.9748645
H -2.0911794 1.1523654 1.3622402
H -2.4578874 0.27981305 -1.2896454
H -1.4048644 1.6692125 -0.9092858
