title
 OpenBabel02282109593D

 20 20  0  0  1  0  0  0  0  0999 V2000
   -0.0960    2.1566    1.7565 C   0  0  0  0  0  0  0  0  0  0  0  0
   -0.3555    0.6499    1.6446 C   0  0  0  0  0  0  0  0  0  0  0  0
    0.1392    0.0244    0.3337 C   0  0  1  0  0  0  0  0  0  0  0  0
    1.5581    0.1730    0.1995 O   0  0  0  0  0  0  0  0  0  0  0  0
   -0.1159   -1.4858    0.2214 C   0  0  0  0  0  0  0  0  0  0  0  0
   -0.0606   -1.6970   -1.2908 C   0  0  0  0  0  0  0  0  0  0  0  0
   -0.6653   -0.5335   -1.8569 O   0  0  0  0  0  0  0  0  0  0  0  0
   -0.5852    0.5425   -0.9310 C   0  0  0  0  0  0  0  0  0  0  0  0
    0.9747    2.3800    1.6973 H   0  0  0  0  0  0  0  0  0  0  0  0
   -0.6055    2.7187    0.9661 H   0  0  0  0  0  0  0  0  0  0  0  0
   -0.4529    2.5429    2.7155 H   0  0  0  0  0  0  0  0  0  0  0  0
    0.1436    0.1336    2.4727 H   0  0  0  0  0  0  0  0  0  0  0  0
   -1.4292    0.4514    1.7468 H   0  0  0  0  0  0  0  0  0  0  0  0
    1.7467    1.0950   -0.0014 H   0  0  0  0  0  0  0  0  0  0  0  0
    0.6352   -2.0566    0.7711 H   0  0  0  0  0  0  0  0  0  0  0  0
   -1.1088   -1.7298    0.6124 H   0  0  0  0  0  0  0  0  0  0  0  0
    0.9810   -1.7886   -1.6278 H   0  0  0  0  0  0  0  0  0  0  0  0
   -0.6196   -2.5720   -1.6359 H   0  0  0  0  0  0  0  0  0  0  0  0
   -1.6009    0.8915   -0.6967 H   0  0  0  0  0  0  0  0  0  0  0  0
   -0.0389    1.3838   -1.3813 H   0  0  0  0  0  0  0  0  0  0  0  0
  1 11  1  0  0  0  0
  2 13  1  0  0  0  0
  2  1  1  0  0  0  0
  2 12  1  0  0  0  0
  3  4  1  6  0  0  0
  3  2  1  0  0  0  0
  5  3  1  0  0  0  0
  5 16  1  0  0  0  0
  5 15  1  0  0  0  0
  6  5  1  0  0  0  0
  7  6  1  0  0  0  0
  7  8  1  0  0  0  0
  8 19  1  0  0  0  0
  8  3  1  0  0  0  0
  9  1  1  0  0  0  0
 10  1  1  0  0  0  0
 14  4  1  0  0  0  0
 17  6  1  0  0  0  0
 18  6  1  0  0  0  0
 20  8  1  0  0  0  0
M  END
