20
title
C -0.095962554 2.1566112 1.7565439
C -0.35546905 0.6499218 1.6446135
C 0.13916922 0.024417097 0.3337365
O 1.5581409 0.17301843 0.19948243
C -0.1158748 -1.4857743 0.221426
C -0.060556117 -1.697005 -1.2907643
O -0.6653157 -0.533541 -1.8569093
C -0.5852175 0.5425307 -0.9310479
H 0.9746754 2.3800287 1.6973252
H -0.6054915 2.718704 0.96606374
H -0.45287818 2.5428588 2.715508
H 0.14364165 0.13357776 2.472718
H -1.4292153 0.45140514 1.7467942
H 1.7467117 1.094983 -0.0014480504
H 0.63523674 -2.0565894 0.7711344
H -1.1087855 -1.729763 0.61243355
H 0.9809866 -1.788594 -1.6277585
H -0.6196345 -2.571958 -1.6359489
H -1.6008812 0.8914792 -0.6966572
H -0.03893635 1.3837554 -1.3812749
