title
 OpenBabel02282109593D

 22 22  0  0  0  0  0  0  0  0999 V2000
   -0.4688    1.9428   -1.4096 C   0  0  0  0  0  0  0  0  0  0  0  0
   -0.3456    0.5561   -1.1950 O   0  0  0  0  0  0  0  0  0  0  0  0
    0.4957    0.1179   -0.1102 C   0  0  0  0  0  0  0  0  0  0  0  0
    1.9091    0.6908   -0.2288 C   0  0  0  0  0  0  0  0  0  0  0  0
   -0.1887    0.4077    1.2449 C   0  0  0  0  0  0  0  0  0  0  0  0
   -1.2926   -0.6537    1.3285 C   0  0  0  0  0  0  0  0  0  0  0  0
   -0.5922   -1.9287    0.8178 C   0  0  0  0  0  0  0  0  0  0  0  0
    0.4575   -1.4319   -0.2124 C   0  0  0  0  0  0  0  0  0  0  0  0
    0.4663    2.4020   -1.7600 H   0  0  0  0  0  0  0  0  0  0  0  0
   -1.2246    2.0694   -2.1898 H   0  0  0  0  0  0  0  0  0  0  0  0
   -0.8054    2.4897   -0.5170 H   0  0  0  0  0  0  0  0  0  0  0  0
    1.9305    1.7747   -0.0801 H   0  0  0  0  0  0  0  0  0  0  0  0
    2.5599    0.2428    0.5278 H   0  0  0  0  0  0  0  0  0  0  0  0
    2.3302    0.4720   -1.2155 H   0  0  0  0  0  0  0  0  0  0  0  0
    0.5407    0.2594    2.0517 H   0  0  0  0  0  0  0  0  0  0  0  0
   -0.5525    1.4355    1.3289 H   0  0  0  0  0  0  0  0  0  0  0  0
   -1.7091   -0.7673    2.3333 H   0  0  0  0  0  0  0  0  0  0  0  0
   -2.1117   -0.3773    0.6570 H   0  0  0  0  0  0  0  0  0  0  0  0
   -0.0918   -2.4341    1.6513 H   0  0  0  0  0  0  0  0  0  0  0  0
   -1.2930   -2.6491    0.3877 H   0  0  0  0  0  0  0  0  0  0  0  0
    0.1914   -1.6961   -1.2380 H   0  0  0  0  0  0  0  0  0  0  0  0
    1.4447   -1.8570   -0.0110 H   0  0  0  0  0  0  0  0  0  0  0  0
  1  2  1  0  0  0  0
  1 11  1  0  0  0  0
  2  3  1  0  0  0  0
  3  5  1  0  0  0  0
  4  3  1  0  0  0  0
  4 12  1  0  0  0  0
  4 13  1  0  0  0  0
  5  6  1  0  0  0  0
  5 16  1  0  0  0  0
  5 15  1  0  0  0  0
  6 17  1  0  0  0  0
  7  6  1  0  0  0  0
  7 19  1  0  0  0  0
  8  3  1  0  0  0  0
  8 22  1  0  0  0  0
  8  7  1  0  0  0  0
  9  1  1  0  0  0  0
 10  1  1  0  0  0  0
 14  4  1  0  0  0  0
 18  6  1  0  0  0  0
 20  7  1  0  0  0  0
 21  8  1  0  0  0  0
M  END
