20
title
C -0.31361324 2.0681212 1.1909975
O -0.33643565 0.6517012 1.2078553
C 0.44750962 0.0042565987 0.21251239
C 1.9280121 0.3541898 0.31568217
C 0.114577495 -1.5038483 0.35608554
C -0.74475604 -1.8281059 -0.8863673
C -1.1190848 -0.43378502 -1.4045103
O 0.010444512 0.375466 -1.0849676
H 0.6245238 2.473147 1.5950418
H -0.46345928 2.4593472 0.17845835
H -1.1355737 2.401055 1.829775
H 2.2919588 0.15202454 1.326656
H 2.500805 -0.24534678 -0.3958398
H 2.1004786 1.4073219 0.08136894
H 1.023898 -2.1072373 0.39441764
H -0.431341 -1.6521618 1.2888298
H -0.1531798 -2.3583295 -1.638325
H -1.619162 -2.440746 -0.65440226
H -1.2709169 -0.38191664 -2.485257
H -2.0192707 -0.05324716 -0.90218186
