20
title
C -0.31217387 2.0513287 1.5446612
O -0.2719929 0.64431566 1.443418
C 0.31447506 0.10698164 0.25943547
C 1.7829368 0.51241386 0.09778898
C 0.15782847 -1.4369729 0.34325236
C -0.65338796 -1.8074164 -0.91225654
O -0.47218674 -0.72295713 -1.8160757
C -0.5115097 0.44296014 -1.015915
H 0.68591404 2.4974573 1.6545013
H -0.80866575 2.5227363 0.6838078
H -0.8913403 2.2822404 2.4424393
H 2.3717654 0.18372706 0.95976675
H 2.1899612 0.04083378 -0.8017226
H 1.9035907 1.594246 -0.012949888
H 1.1347173 -1.9261789 0.3434133
H -0.35592526 -1.6991036 1.2695332
H -0.31420276 -2.7190454 -1.4098307
H -1.7214221 -1.9229972 -0.6677981
H -1.5446773 0.68343395 -0.7135311
H -0.11048535 1.2682927 -1.6096705
