title
 OpenBabel02282109593D

 20 20  0  0  1  0  0  0  0  0999 V2000
   -0.3122    2.0513    1.5447 C   0  0  0  0  0  0  0  0  0  0  0  0
   -0.2720    0.6443    1.4434 O   0  0  0  0  0  0  0  0  0  0  0  0
    0.3145    0.1070    0.2594 C   0  0  1  0  0  0  0  0  0  0  0  0
    1.7829    0.5124    0.0978 C   0  0  0  0  0  0  0  0  0  0  0  0
    0.1578   -1.4370    0.3433 C   0  0  0  0  0  0  0  0  0  0  0  0
   -0.6534   -1.8074   -0.9123 C   0  0  0  0  0  0  0  0  0  0  0  0
   -0.4722   -0.7230   -1.8161 O   0  0  0  0  0  0  0  0  0  0  0  0
   -0.5115    0.4430   -1.0159 C   0  0  0  0  0  0  0  0  0  0  0  0
    0.6859    2.4975    1.6545 H   0  0  0  0  0  0  0  0  0  0  0  0
   -0.8087    2.5227    0.6838 H   0  0  0  0  0  0  0  0  0  0  0  0
   -0.8913    2.2822    2.4424 H   0  0  0  0  0  0  0  0  0  0  0  0
    2.3718    0.1837    0.9598 H   0  0  0  0  0  0  0  0  0  0  0  0
    2.1900    0.0408   -0.8017 H   0  0  0  0  0  0  0  0  0  0  0  0
    1.9036    1.5942   -0.0129 H   0  0  0  0  0  0  0  0  0  0  0  0
    1.1347   -1.9262    0.3434 H   0  0  0  0  0  0  0  0  0  0  0  0
   -0.3559   -1.6991    1.2695 H   0  0  0  0  0  0  0  0  0  0  0  0
   -0.3142   -2.7190   -1.4098 H   0  0  0  0  0  0  0  0  0  0  0  0
   -1.7214   -1.9230   -0.6678 H   0  0  0  0  0  0  0  0  0  0  0  0
   -1.5447    0.6834   -0.7135 H   0  0  0  0  0  0  0  0  0  0  0  0
   -0.1105    1.2683   -1.6097 H   0  0  0  0  0  0  0  0  0  0  0  0
  1  9  1  0  0  0  0
  1 11  1  0  0  0  0
  2  1  1  0  0  0  0
  3  5  1  0  0  0  0
  3  2  1  1  0  0  0
  4  3  1  0  0  0  0
  4 12  1  0  0  0  0
  5 15  1  0  0  0  0
  5 16  1  0  0  0  0
  6 18  1  0  0  0  0
  6  5  1  0  0  0  0
  7  8  1  0  0  0  0
  7  6  1  0  0  0  0
  8 19  1  0  0  0  0
  8  3  1  0  0  0  0
 10  1  1  0  0  0  0
 13  4  1  0  0  0  0
 14  4  1  0  0  0  0
 17  6  1  0  0  0  0
 20  8  1  0  0  0  0
M  END
