title
 OpenBabel02282109593D

 18 18  0  0  1  0  0  0  0  0999 V2000
   -0.3859    1.9548    0.4477 C   0  0  0  0  0  0  0  0  0  0  0  0
   -0.0368    0.4871    0.7862 C   0  0  1  0  0  0  0  0  0  0  0  0
   -1.2544   -0.2538    1.1104 C   0  0  0  0  0  0  0  0  0  0  0  0
   -2.2701   -0.8297    1.3965 C   0  0  0  0  0  0  0  0  0  0  0  0
    0.7851   -0.1513   -0.3499 C   0  0  1  0  0  0  0  0  0  0  0  0
    2.2175    0.3320   -0.4558 C   0  0  0  0  0  0  0  0  0  0  0  0
    0.4381   -1.4688   -0.9011 C   0  0  0  0  0  0  0  0  0  0  0  0
    0.0915   -0.2639   -1.5963 O   0  0  0  0  0  0  0  0  0  0  0  0
    0.5187    2.5536    0.3135 H   0  0  0  0  0  0  0  0  0  0  0  0
   -0.9703    1.9907   -0.4746 H   0  0  0  0  0  0  0  0  0  0  0  0
   -0.9750    2.4000    1.2525 H   0  0  0  0  0  0  0  0  0  0  0  0
    0.6035    0.4822    1.6796 H   0  0  0  0  0  0  0  0  0  0  0  0
   -3.1644   -1.3443    1.6477 H   0  0  0  0  0  0  0  0  0  0  0  0
    2.7841    0.0679    0.4437 H   0  0  0  0  0  0  0  0  0  0  0  0
    2.7037   -0.1264   -1.3199 H   0  0  0  0  0  0  0  0  0  0  0  0
    2.2681    1.4179   -0.5795 H   0  0  0  0  0  0  0  0  0  0  0  0
    1.2180   -2.0672   -1.3713 H   0  0  0  0  0  0  0  0  0  0  0  0
   -0.4018   -2.0233   -0.4915 H   0  0  0  0  0  0  0  0  0  0  0  0
  1  2  1  0  0  0  0
  1 11  1  0  0  0  0
  2  3  1  0  0  0  0
  2 12  1  1  0  0  0
  3  4  3  0  0  0  0
  4 13  1  0  0  0  0
  5  6  1  6  0  0  0
  5  2  1  0  0  0  0
  6 14  1  0  0  0  0
  7 18  1  0  0  0  0
  7  5  1  0  0  0  0
  8  7  1  0  0  0  0
  8  5  1  0  0  0  0
  9  1  1  0  0  0  0
 10  1  1  0  0  0  0
 15  6  1  0  0  0  0
 16  6  1  0  0  0  0
 17  7  1  0  0  0  0
M  END
