title
 OpenBabel02282109593D

 18 18  0  0  1  0  0  0  0  0999 V2000
    0.8376    1.7804   -0.6887 C   0  0  0  0  0  0  0  0  0  0  0  0
    0.7853    0.2818   -0.3305 C   0  0  1  0  0  0  0  0  0  0  0  0
    1.4061    0.0261    0.9720 C   0  0  0  0  0  0  0  0  0  0  0  0
    1.8595   -0.1699    2.0690 C   0  0  0  0  0  0  0  0  0  0  0  0
   -0.6553   -0.2390   -0.3095 C   0  0  0  0  0  0  0  0  0  0  0  0
   -1.4625    0.3714    0.6583 O   0  0  0  0  0  0  0  0  0  0  0  0
   -1.3511   -0.5581   -1.5934 C   0  0  0  0  0  0  0  0  0  0  0  0
   -0.9372   -1.6783   -0.6526 C   0  0  0  0  0  0  0  0  0  0  0  0
    1.8641    2.1540   -0.6586 H   0  0  0  0  0  0  0  0  0  0  0  0
    0.4351    1.9383   -1.6934 H   0  0  0  0  0  0  0  0  0  0  0  0
    0.2338    2.3536    0.0180 H   0  0  0  0  0  0  0  0  0  0  0  0
    1.3357   -0.2843   -1.0931 H   0  0  0  0  0  0  0  0  0  0  0  0
    2.2907   -0.3500    3.0228 H   0  0  0  0  0  0  0  0  0  0  0  0
   -1.0712    0.1685    1.5180 H   0  0  0  0  0  0  0  0  0  0  0  0
   -2.4054   -0.3128   -1.6452 H   0  0  0  0  0  0  0  0  0  0  0  0
   -0.8077   -0.4373   -2.5246 H   0  0  0  0  0  0  0  0  0  0  0  0
   -0.1134   -2.3218   -0.9426 H   0  0  0  0  0  0  0  0  0  0  0  0
   -1.7247   -2.1664   -0.0901 H   0  0  0  0  0  0  0  0  0  0  0  0
  1  9  1  0  0  0  0
  1  2  1  0  0  0  0
  1 11  1  0  0  0  0
  2 12  1  6  0  0  0
  2  5  1  0  0  0  0
  2  3  1  0  0  0  0
  3  4  3  0  0  0  0
  4 13  1  0  0  0  0
  5  6  1  0  0  0  0
  6 14  1  0  0  0  0
  7  8  1  0  0  0  0
  7  5  1  0  0  0  0
  8  5  1  0  0  0  0
  8 18  1  0  0  0  0
 10  1  1  0  0  0  0
 15  7  1  0  0  0  0
 16  7  1  0  0  0  0
 17  8  1  0  0  0  0
M  END
