title
 OpenBabel02282109593D

 19 19  0  0  1  0  0  0  0  0999 V2000
    0.0961    1.7709    1.1058 C   0  0  0  0  0  0  0  0  0  0  0  0
   -0.1081    0.2759    0.7871 C   0  0  1  0  0  0  0  0  0  0  0  0
   -1.5415   -0.0369    0.6880 C   0  0  0  0  0  0  0  0  0  0  0  0
   -2.6690   -0.2756    0.5978 N   0  0  0  0  0  0  0  0  0  0  0  0
    0.6328   -0.1904   -0.4735 C   0  0  0  0  0  0  0  0  0  0  0  0
    0.2160    0.4717   -1.7733 C   0  0  0  0  0  0  0  0  0  0  0  0
    2.0841   -0.5645   -0.2884 C   0  0  0  0  0  0  0  0  0  0  0  0
    1.0477   -1.6402   -0.5162 C   0  0  0  0  0  0  0  0  0  0  0  0
    1.1657    1.9846    1.1795 H   0  0  0  0  0  0  0  0  0  0  0  0
   -0.3325    2.4051    0.3265 H   0  0  0  0  0  0  0  0  0  0  0  0
   -0.3798    2.0333    2.0538 H   0  0  0  0  0  0  0  0  0  0  0  0
    0.2785   -0.3067    1.6329 H   0  0  0  0  0  0  0  0  0  0  0  0
    0.4180    1.5481   -1.7671 H   0  0  0  0  0  0  0  0  0  0  0  0
    0.7657    0.0402   -2.6147 H   0  0  0  0  0  0  0  0  0  0  0  0
   -0.8531    0.3284   -1.9633 H   0  0  0  0  0  0  0  0  0  0  0  0
    2.7721   -0.3334   -1.0944 H   0  0  0  0  0  0  0  0  0  0  0  0
    2.5202   -0.4795    0.7019 H   0  0  0  0  0  0  0  0  0  0  0  0
    0.7824   -2.2781    0.3203 H   0  0  0  0  0  0  0  0  0  0  0  0
    1.0307   -2.1434   -1.4766 H   0  0  0  0  0  0  0  0  0  0  0  0
  1  9  1  0  0  0  0
  1 11  1  0  0  0  0
  2  1  1  0  0  0  0
  2 12  1  1  0  0  0
  3  2  1  0  0  0  0
  4  3  3  0  0  0  0
  5  7  1  0  0  0  0
  5  2  1  0  0  0  0
  6 13  1  0  0  0  0
  6  5  1  0  0  0  0
  7 17  1  0  0  0  0
  8  5  1  0  0  0  0
  8  7  1  0  0  0  0
  8 18  1  0  0  0  0
 10  1  1  0  0  0  0
 14  6  1  0  0  0  0
 15  6  1  0  0  0  0
 16  7  1  0  0  0  0
 19  8  1  0  0  0  0
M  END
