18
title
C -0.27027994 1.9858478 0.63264346
C 0.012335851 0.47413853 0.79127455
C -1.2518339 -0.23002161 1.0310994
N -2.25962 -0.7712576 1.1991107
C 0.7756505 -0.12488611 -0.40529063
C 2.136439 0.49850258 -0.6470619
C 0.56767553 -1.5504164 -0.7688429
N 0.040416073 -0.47186008 -1.6309843
H 0.66630346 2.5449424 0.5903597
H -0.8323553 2.1796129 -0.28489855
H -0.85287535 2.3580112 1.4784133
H 0.63112015 0.33063462 1.6874077
H 2.7725031 0.41525036 0.24163081
H 2.6323402 -0.0129811345 -1.474551
H 2.0578794 1.5562351 -0.91536826
H 1.3932554 -2.114038 -1.1947172
H -0.13975862 -2.141386 -0.19527726
H -0.9644504 -0.3912981 -1.4841733
