title
 OpenBabel02282109593D

 17 17  0  0  1  0  0  0  0  0999 V2000
    0.7941    1.8447   -0.5655 C   0  0  0  0  0  0  0  0  0  0  0  0
    0.7363    0.3243   -0.3218 C   0  0  1  0  0  0  0  0  0  0  0  0
    1.4256   -0.0250    0.9281 C   0  0  0  0  0  0  0  0  0  0  0  0
    1.9811   -0.2950    1.9046 N   0  0  0  0  0  0  0  0  0  0  0  0
   -0.7001   -0.2069   -0.3108 C   0  0  0  0  0  0  0  0  0  0  0  0
   -1.5211    0.3644    0.6668 O   0  0  0  0  0  0  0  0  0  0  0  0
   -1.3292   -0.6197   -1.6187 C   0  0  0  0  0  0  0  0  0  0  0  0
   -0.9528   -1.6560   -0.5751 C   0  0  0  0  0  0  0  0  0  0  0  0
    1.8275    2.1953   -0.6087 H   0  0  0  0  0  0  0  0  0  0  0  0
    0.3040    2.0862   -1.5132 H   0  0  0  0  0  0  0  0  0  0  0  0
    0.2920    2.3835    0.2425 H   0  0  0  0  0  0  0  0  0  0  0  0
    1.2719   -0.1822   -1.1337 H   0  0  0  0  0  0  0  0  0  0  0  0
   -1.7784    1.2452    0.3733 H   0  0  0  0  0  0  0  0  0  0  0  0
   -2.3840   -0.4013   -1.7416 H   0  0  0  0  0  0  0  0  0  0  0  0
   -0.7426   -0.5612   -2.5297 H   0  0  0  0  0  0  0  0  0  0  0  0
   -0.1054   -2.3046   -0.7678 H   0  0  0  0  0  0  0  0  0  0  0  0
   -1.7578   -2.1102   -0.0105 H   0  0  0  0  0  0  0  0  0  0  0  0
  1  2  1  0  0  0  0
  1 11  1  0  0  0  0
  2 12  1  6  0  0  0
  2  5  1  0  0  0  0
  2  3  1  0  0  0  0
  3  4  3  0  0  0  0
  5  6  1  0  0  0  0
  7  8  1  0  0  0  0
  7  5  1  0  0  0  0
  8  5  1  0  0  0  0
  8 17  1  0  0  0  0
  9  1  1  0  0  0  0
 10  1  1  0  0  0  0
 13  6  1  0  0  0  0
 14  7  1  0  0  0  0
 15  7  1  0  0  0  0
 16  8  1  0  0  0  0
M  END
