title
 OpenBabel02282109593D

 18 18  0  0  1  0  0  0  0  0999 V2000
    0.1381    2.1227    0.8443 C   0  0  0  0  0  0  0  0  0  0  0  0
    0.3501    0.6638    0.4842 C   0  0  0  0  0  0  0  0  0  0  0  0
    1.7314    0.2195    0.0583 C   0  0  0  0  0  0  0  0  0  0  0  0
    1.1894   -0.1787    1.4108 C   0  0  0  0  0  0  0  0  0  0  0  0
   -0.8652    0.0433   -0.2117 C   0  0  1  0  0  0  0  0  0  0  0  0
   -1.1274    0.7314   -1.4806 N   0  0  0  0  0  0  0  0  0  0  0  0
   -0.7322   -1.4208   -0.3858 C   0  0  0  0  0  0  0  0  0  0  0  0
   -0.6455   -2.5582   -0.5775 N   0  0  0  0  0  0  0  0  0  0  0  0
    1.0423    2.5426    1.2940 H   0  0  0  0  0  0  0  0  0  0  0  0
   -0.1175    2.7122   -0.0395 H   0  0  0  0  0  0  0  0  0  0  0  0
   -0.6766    2.2333    1.5702 H   0  0  0  0  0  0  0  0  0  0  0  0
    1.8199   -0.5643   -0.6870 H   0  0  0  0  0  0  0  0  0  0  0  0
    2.5103    0.9724    0.0096 H   0  0  0  0  0  0  0  0  0  0  0  0
    1.5912    0.3103    2.2916 H   0  0  0  0  0  0  0  0  0  0  0  0
    0.9291   -1.2209    1.5571 H   0  0  0  0  0  0  0  0  0  0  0  0
   -1.7415    0.2037    0.4304 H   0  0  0  0  0  0  0  0  0  0  0  0
   -0.3513    0.5720   -2.1172 H   0  0  0  0  0  0  0  0  0  0  0  0
   -1.9562    0.3481   -1.9249 H   0  0  0  0  0  0  0  0  0  0  0  0
  1  9  1  0  0  0  0
  1 11  1  0  0  0  0
  2  1  1  0  0  0  0
  2  4  1  0  0  0  0
  3  2  1  0  0  0  0
  3  4  1  0  0  0  0
  4 15  1  0  0  0  0
  4 14  1  0  0  0  0
  5 16  1  1  0  0  0
  5  2  1  0  0  0  0
  6  5  1  0  0  0  0
  7  5  1  0  0  0  0
  8  7  3  0  0  0  0
 10  1  1  0  0  0  0
 12  3  1  0  0  0  0
 13  3  1  0  0  0  0
 17  6  1  0  0  0  0
 18  6  1  0  0  0  0
M  END
