title
 OpenBabel02282109593D

 18 18  0  0  1  0  0  0  0  0999 V2000
    0.6386    1.5712    0.7195 C   0  0  0  0  0  0  0  0  0  0  0  0
    0.6836    0.0824    0.4417 C   0  0  0  0  0  0  0  0  0  0  0  0
    1.9548   -0.5257   -0.0975 C   0  0  0  0  0  0  0  0  0  0  0  0
    1.5314   -0.7951    1.3270 C   0  0  0  0  0  0  0  0  0  0  0  0
   -0.6266   -0.5295   -0.0558 C   0  0  1  0  0  0  0  0  0  0  0  0
   -1.6749   -0.4203    0.9063 O   0  0  0  0  0  0  0  0  0  0  0  0
   -1.0343    0.0315   -1.3501 C   0  0  0  0  0  0  0  0  0  0  0  0
   -1.3856    0.5262   -2.3883 C   0  0  0  0  0  0  0  0  0  0  0  0
    1.6116    1.9313    1.0658 H   0  0  0  0  0  0  0  0  0  0  0  0
    0.3708    2.1351   -0.1805 H   0  0  0  0  0  0  0  0  0  0  0  0
   -0.0934    1.8029    1.5015 H   0  0  0  0  0  0  0  0  0  0  0  0
    1.8743   -1.3339   -0.8173 H   0  0  0  0  0  0  0  0  0  0  0  0
    2.7974    0.1350   -0.2704 H   0  0  0  0  0  0  0  0  0  0  0  0
    2.0874   -0.3177    2.1268 H   0  0  0  0  0  0  0  0  0  0  0  0
    1.1618   -1.7843    1.5755 H   0  0  0  0  0  0  0  0  0  0  0  0
   -0.4705   -1.6085   -0.1779 H   0  0  0  0  0  0  0  0  0  0  0  0
   -2.0522    0.4621    0.8280 H   0  0  0  0  0  0  0  0  0  0  0  0
   -1.6952    0.9459   -3.3136 H   0  0  0  0  0  0  0  0  0  0  0  0
  1  9  1  0  0  0  0
  1 11  1  0  0  0  0
  2  1  1  0  0  0  0
  2  4  1  0  0  0  0
  3  2  1  0  0  0  0
  3  4  1  0  0  0  0
  4 15  1  0  0  0  0
  4 14  1  0  0  0  0
  5 16  1  6  0  0  0
  5  2  1  0  0  0  0
  5  6  1  0  0  0  0
  7  5  1  0  0  0  0
  8  7  3  0  0  0  0
 10  1  1  0  0  0  0
 12  3  1  0  0  0  0
 13  3  1  0  0  0  0
 17  6  1  0  0  0  0
 18  8  1  0  0  0  0
M  END
