17
title
C 0.39874837 1.7786587 -0.85437536
C 0.45480213 0.2817946 -0.65298194
C 1.2955062 -0.5454793 -1.5531967
N 1.6820749 -0.34536254 -0.1397376
C -0.80468905 -0.3716389 -0.04995945
O -0.5933875 -1.7490575 0.1849831
C -1.226348 0.32562864 1.1766565
C -1.5606363 0.88555235 2.1866863
H 1.318383 2.1425495 -1.3232884
H -0.4386327 2.0530238 -1.5059823
H 0.26140177 2.2977772 0.098438114
H 0.9963724 -1.5597228 -1.7946064
H 1.8653197 -0.030679142 -2.322011
H 2.4326038 0.333904 -0.053373665
H -1.6157525 -0.3054555 -0.7867722
H 0.28288016 -1.7965446 0.60010856
H -1.8683956 1.36968 3.080571
