title
 OpenBabel02282109593D

 17 17  0  0  1  0  0  0  0  0999 V2000
    0.3987    1.7787   -0.8544 C   0  0  0  0  0  0  0  0  0  0  0  0
    0.4548    0.2818   -0.6530 C   0  0  1  0  0  0  0  0  0  0  0  0
    1.2955   -0.5455   -1.5532 C   0  0  0  0  0  0  0  0  0  0  0  0
    1.6821   -0.3454   -0.1397 N   0  0  0  0  0  0  0  0  0  0  0  0
   -0.8047   -0.3716   -0.0500 C   0  0  1  0  0  0  0  0  0  0  0  0
   -0.5934   -1.7491    0.1850 O   0  0  0  0  0  0  0  0  0  0  0  0
   -1.2263    0.3256    1.1767 C   0  0  0  0  0  0  0  0  0  0  0  0
   -1.5606    0.8856    2.1867 C   0  0  0  0  0  0  0  0  0  0  0  0
    1.3184    2.1425   -1.3233 H   0  0  0  0  0  0  0  0  0  0  0  0
   -0.4386    2.0530   -1.5060 H   0  0  0  0  0  0  0  0  0  0  0  0
    0.2614    2.2978    0.0984 H   0  0  0  0  0  0  0  0  0  0  0  0
    0.9964   -1.5597   -1.7946 H   0  0  0  0  0  0  0  0  0  0  0  0
    1.8653   -0.0307   -2.3220 H   0  0  0  0  0  0  0  0  0  0  0  0
    2.4326    0.3339   -0.0534 H   0  0  0  0  0  0  0  0  0  0  0  0
   -1.6158   -0.3055   -0.7868 H   0  0  0  0  0  0  0  0  0  0  0  0
    0.2829   -1.7965    0.6001 H   0  0  0  0  0  0  0  0  0  0  0  0
   -1.8684    1.3697    3.0806 H   0  0  0  0  0  0  0  0  0  0  0  0
  1 11  1  0  0  0  0
  2  1  1  6  0  0  0
  2  4  1  0  0  0  0
  2  5  1  0  0  0  0
  3  2  1  0  0  0  0
  3  4  1  0  0  0  0
  4 14  1  0  0  0  0
  5 15  1  6  0  0  0
  5  6  1  0  0  0  0
  5  7  1  0  0  0  0
  6 16  1  0  0  0  0
  7  8  3  0  0  0  0
  8 17  1  0  0  0  0
  9  1  1  0  0  0  0
 10  1  1  0  0  0  0
 12  3  1  0  0  0  0
 13  3  1  0  0  0  0
M  END
