title
 OpenBabel02282109593D

 16 16  0  0  1  0  0  0  0  0999 V2000
    0.3975    1.7806   -0.8325 C   0  0  0  0  0  0  0  0  0  0  0  0
    0.4612    0.2805   -0.6596 C   0  0  1  0  0  0  0  0  0  0  0  0
    1.2951   -0.5361   -1.5761 C   0  0  0  0  0  0  0  0  0  0  0  0
    1.6855   -0.3608   -0.1619 N   0  0  0  0  0  0  0  0  0  0  0  0
   -0.7895   -0.3923   -0.0625 C   0  0  1  0  0  0  0  0  0  0  0  0
   -0.5703   -1.7525    0.2023 O   0  0  0  0  0  0  0  0  0  0  0  0
   -1.2144    0.3241    1.1676 C   0  0  0  0  0  0  0  0  0  0  0  0
   -1.5332    0.8874    2.1248 N   0  0  0  0  0  0  0  0  0  0  0  0
    1.3136    2.1540   -1.2996 H   0  0  0  0  0  0  0  0  0  0  0  0
   -0.4432    2.0637   -1.4757 H   0  0  0  0  0  0  0  0  0  0  0  0
    0.2663    2.2860    0.1290 H   0  0  0  0  0  0  0  0  0  0  0  0
    0.9934   -1.5452   -1.8356 H   0  0  0  0  0  0  0  0  0  0  0  0
    1.8619   -0.0083   -2.3378 H   0  0  0  0  0  0  0  0  0  0  0  0
    2.4413    0.3095   -0.0571 H   0  0  0  0  0  0  0  0  0  0  0  0
   -1.6144   -0.3264   -0.7821 H   0  0  0  0  0  0  0  0  0  0  0  0
    0.3320   -1.7938    0.5634 H   0  0  0  0  0  0  0  0  0  0  0  0
  1 11  1  0  0  0  0
  2  1  1  6  0  0  0
  2  4  1  0  0  0  0
  2  5  1  0  0  0  0
  3  2  1  0  0  0  0
  3  4  1  0  0  0  0
  4 14  1  0  0  0  0
  5 15  1  6  0  0  0
  5  6  1  0  0  0  0
  5  7  1  0  0  0  0
  6 16  1  0  0  0  0
  7  8  3  0  0  0  0
  9  1  1  0  0  0  0
 10  1  1  0  0  0  0
 12  3  1  0  0  0  0
 13  3  1  0  0  0  0
M  END
