16
title
C 0.3975097 1.7805543 -0.83250225
C 0.46116796 0.28054312 -0.6595573
C 1.2951407 -0.5360658 -1.5760728
N 1.6854619 -0.36078212 -0.16188087
C -0.7895407 -0.39229324 -0.062476207
O -0.5703407 -1.7525351 0.20225073
C -1.2144245 0.32406744 1.1675547
N -1.533198 0.8874199 2.1248026
H 1.313632 2.1539967 -1.2995524
H -0.44318733 2.063658 -1.4757122
H 0.26634052 2.2859907 0.12901981
H 0.99338335 -1.5452198 -1.8355832
H 1.8619419 -0.008263211 -2.3378167
H 2.441301 0.3094685 -0.057118524
H -1.6144007 -0.3264316 -0.7821275
H 0.33201617 -1.7938133 0.563441
