title
 OpenBabel02282109593D

 16 16  0  0  1  0  0  0  0  0999 V2000
    0.3025    1.7944   -0.8226 C   0  0  0  0  0  0  0  0  0  0  0  0
    0.4130    0.2937   -0.6818 C   0  0  1  0  0  0  0  0  0  0  0  0
    1.2917   -0.4711   -1.5761 C   0  0  0  0  0  0  0  0  0  0  0  0
    1.6719   -0.2025   -0.2199 O   0  0  0  0  0  0  0  0  0  0  0  0
   -0.8013   -0.4245   -0.0438 C   0  0  1  0  0  0  0  0  0  0  0  0
   -0.6380   -1.8470    0.2249 N   0  0  0  0  0  0  0  0  0  0  0  0
   -1.1613    0.2558    1.2185 C   0  0  0  0  0  0  0  0  0  0  0  0
   -1.4317    0.8080    2.1963 N   0  0  0  0  0  0  0  0  0  0  0  0
    1.2046    2.1984   -1.2872 H   0  0  0  0  0  0  0  0  0  0  0  0
   -0.5588    2.0617   -1.4447 H   0  0  0  0  0  0  0  0  0  0  0  0
    0.1732    2.2675    0.1545 H   0  0  0  0  0  0  0  0  0  0  0  0
    1.0864   -1.5158   -1.7991 H   0  0  0  0  0  0  0  0  0  0  0  0
    1.8636    0.0609   -2.3344 H   0  0  0  0  0  0  0  0  0  0  0  0
   -1.6563   -0.2979   -0.7200 H   0  0  0  0  0  0  0  0  0  0  0  0
   -0.7050   -2.3790   -0.6349 H   0  0  0  0  0  0  0  0  0  0  0  0
    0.2855   -2.0034    0.6202 H   0  0  0  0  0  0  0  0  0  0  0  0
  1 11  1  0  0  0  0
  2  1  1  6  0  0  0
  2  4  1  0  0  0  0
  2  5  1  0  0  0  0
  3  2  1  0  0  0  0
  3  4  1  0  0  0  0
  5 14  1  6  0  0  0
  5  6  1  0  0  0  0
  5  7  1  0  0  0  0
  6 16  1  0  0  0  0
  7  8  3  0  0  0  0
  9  1  1  0  0  0  0
 10  1  1  0  0  0  0
 12  3  1  0  0  0  0
 13  3  1  0  0  0  0
 15  6  1  0  0  0  0
M  END
