16
title
C 0.30254003 1.7944418 -0.82263553
C 0.4130348 0.29374078 -0.6817976
C 1.2916791 -0.47108135 -1.5761157
O 1.6718655 -0.20247847 -0.21989061
C -0.801325 -0.42450008 -0.043836724
N -0.63801104 -1.8470124 0.22493862
C -1.1612974 0.25582397 1.2184993
N -1.4317318 0.8080264 2.1963348
H 1.2045897 2.1983812 -1.2872441
H -0.5588006 2.0616858 -1.4447192
H 0.17316732 2.2675033 0.1545441
H 1.0863953 -1.5157706 -1.7990804
H 1.8635501 0.060875557 -2.3343737
H -1.6563282 -0.29788056 -0.7200023
H -0.7049691 -2.3789916 -0.63491744
H 0.2854983 -2.0034456 0.6202075
