title
 OpenBabel02282109593D

 16 16  0  0  1  0  0  0  0  0999 V2000
    0.4189    1.7836   -0.8435 C   0  0  0  0  0  0  0  0  0  0  0  0
    0.4472    0.2859   -0.6641 C   0  0  1  0  0  0  0  0  0  0  0  0
    1.3240   -0.5541   -1.4886 C   0  0  0  0  0  0  0  0  0  0  0  0
    1.6536   -0.2641   -0.1168 O   0  0  0  0  0  0  0  0  0  0  0  0
   -0.8140   -0.3721   -0.0694 C   0  0  1  0  0  0  0  0  0  0  0  0
   -0.5977   -1.7497    0.1685 O   0  0  0  0  0  0  0  0  0  0  0  0
   -1.2553    0.3226    1.1497 C   0  0  0  0  0  0  0  0  0  0  0  0
   -1.6068    0.8751    2.1575 C   0  0  0  0  0  0  0  0  0  0  0  0
    1.3627    2.1320   -1.2691 H   0  0  0  0  0  0  0  0  0  0  0  0
   -0.3949    2.0744   -1.5170 H   0  0  0  0  0  0  0  0  0  0  0  0
    0.2587    2.2838    0.1149 H   0  0  0  0  0  0  0  0  0  0  0  0
    1.0511   -1.5870   -1.6846 H   0  0  0  0  0  0  0  0  0  0  0  0
    1.9714   -0.0802   -2.2242 H   0  0  0  0  0  0  0  0  0  0  0  0
   -1.6147   -0.3145   -0.8177 H   0  0  0  0  0  0  0  0  0  0  0  0
    0.2412   -1.7971    0.6493 H   0  0  0  0  0  0  0  0  0  0  0  0
   -1.9262    1.3567    3.0489 H   0  0  0  0  0  0  0  0  0  0  0  0
  1 11  1  0  0  0  0
  2  1  1  6  0  0  0
  2  4  1  0  0  0  0
  2  5  1  0  0  0  0
  3  2  1  0  0  0  0
  3  4  1  0  0  0  0
  5 14  1  6  0  0  0
  5  6  1  0  0  0  0
  5  7  1  0  0  0  0
  6 15  1  0  0  0  0
  7  8  3  0  0  0  0
  8 16  1  0  0  0  0
  9  1  1  0  0  0  0
 10  1  1  0  0  0  0
 12  3  1  0  0  0  0
 13  3  1  0  0  0  0
M  END
