16
title
N -0.7958944 1.7907722 -0.35342726
C -0.638193 0.33716518 -0.47015306
C 0.09016782 -0.06536901 -1.6957787
N 0.64996064 -0.34375805 -2.6683254
C 0.060021285 -0.19551623 0.7816372
O 1.2055597 0.53213674 1.1210247
C -0.7662196 -0.78764224 1.8917705
C 0.120906234 -1.6672415 1.0299149
H 0.1098215 2.2275388 -0.5012398
H -1.4013654 2.1356235 -1.0919852
H -1.6362209 -0.11007652 -0.52451605
H 0.9059212 1.3480645 1.5393369
H -0.43207684 -0.58699 2.9034767
H -1.8422685 -0.8508159 1.771366
H -0.34415507 -2.3336973 0.31150395
H 1.0377831 -2.0405324 1.4698514
