16
title
N -0.94465476 1.4878439 0.22050397
C -0.73655504 0.06907949 0.3244894
C -0.97601426 -0.5511828 1.6774188
C -1.9654802 -0.7688082 0.55827785
C 0.36662117 -0.54273933 -0.54235625
O 0.15994947 -0.3440355 -1.9288412
C 1.681875 -0.000636968 -0.12903853
N 2.683862 0.47910294 0.19039069
H -0.10489198 2.012689 0.44723192
H -1.2617419 1.7580833 -0.7048198
H -0.34946123 -1.3820438 1.9838998
H -1.2554867 0.12821484 2.473092
H -2.907181 -0.23629265 0.6109264
H -2.017006 -1.7466524 0.09270539
H 0.38550416 -1.6280823 -0.40085965
H 0.22103475 0.60240984 -2.1035063
