16
title
O -1.0598054 1.5268878 -0.481557
C -0.7070959 0.15121287 -0.51603264
C 0.08630789 -0.18199562 -1.7065599
C 0.78630674 -0.43609142 -2.6514692
C 0.032478638 -0.3116042 0.7471884
O 0.30856103 -1.6823553 0.7326532
C 0.9921112 0.6101685 1.4536169
C -0.348203 0.25093013 2.0742207
H -0.28655514 2.0340958 -0.7508804
H -1.6557021 -0.39787006 -0.5568809
H 1.3778269 -0.6609237 -3.5050027
H 0.9108764 -1.8468091 -0.003958319
H 1.8800466 0.1515714 1.873089
H 1.1260139 1.624108 1.0922661
H -1.1115566 1.0194187 2.095205
H -0.34905443 -0.44048166 2.9086726
