title
 OpenBabel02282109593D

 20 20  0  0  1  0  0  0  0  0999 V2000
   -0.8465    1.9149   -0.3704 C   0  0  0  0  0  0  0  0  0  0  0  0
   -0.5472    0.4081   -0.4143 C   0  0  1  0  0  0  0  0  0  0  0  0
    0.2337    0.0548   -1.6684 C   0  0  0  0  0  0  0  0  0  0  0  0
   -0.0645   -0.8240   -2.4362 O   0  0  0  0  0  0  0  0  0  0  0  0
    0.2062   -0.0969    0.8271 C   0  0  0  0  0  0  0  0  0  0  0  0
    1.5080    0.6029    1.1794 C   0  0  0  0  0  0  0  0  0  0  0  0
   -0.6506   -0.5907    1.9712 C   0  0  0  0  0  0  0  0  0  0  0  0
    0.1053   -1.5769    1.1124 C   0  0  0  0  0  0  0  0  0  0  0  0
    0.0670    2.5129   -0.4517 H   0  0  0  0  0  0  0  0  0  0  0  0
   -1.5070    2.2062   -1.1927 H   0  0  0  0  0  0  0  0  0  0  0  0
   -1.3374    2.1791    0.5710 H   0  0  0  0  0  0  0  0  0  0  0  0
   -1.4873   -0.1495   -0.4839 H   0  0  0  0  0  0  0  0  0  0  0  0
    1.1440    0.6764   -1.8432 H   0  0  0  0  0  0  0  0  0  0  0  0
    1.3546    1.6669    1.3886 H   0  0  0  0  0  0  0  0  0  0  0  0
    1.9499    0.1545    2.0743 H   0  0  0  0  0  0  0  0  0  0  0  0
    2.2493    0.5228    0.3765 H   0  0  0  0  0  0  0  0  0  0  0  0
   -0.2964   -0.4153    2.9818 H   0  0  0  0  0  0  0  0  0  0  0  0
   -1.7294   -0.5432    1.8663 H   0  0  0  0  0  0  0  0  0  0  0  0
   -0.4594   -2.1907    0.4189 H   0  0  0  0  0  0  0  0  0  0  0  0
    0.9687   -2.0736    1.5419 H   0  0  0  0  0  0  0  0  0  0  0  0
  1 11  1  0  0  0  0
  2 12  1  6  0  0  0
  2  1  1  0  0  0  0
  2  5  1  0  0  0  0
  3  2  1  0  0  0  0
  4  3  2  0  0  0  0
  5  8  1  0  0  0  0
  5  6  1  0  0  0  0
  5  7  1  0  0  0  0
  6 14  1  0  0  0  0
  6 15  1  0  0  0  0
  7 17  1  0  0  0  0
  8 20  1  0  0  0  0
  8  7  1  0  0  0  0
  9  1  1  0  0  0  0
 10  1  1  0  0  0  0
 13  3  1  0  0  0  0
 16  6  1  0  0  0  0
 18  7  1  0  0  0  0
 19  8  1  0  0  0  0
M  END
