title
 OpenBabel02282109593D

 19 19  0  0  1  0  0  0  0  0999 V2000
    0.5090    1.9712    0.1881 C   0  0  0  0  0  0  0  0  0  0  0  0
    0.5429    0.5046   -0.2945 C   0  0  1  0  0  0  0  0  0  0  0  0
    1.5072   -0.2565    0.5950 C   0  0  0  0  0  0  0  0  0  0  0  0
    2.5708   -0.6947    0.2412 O   0  0  0  0  0  0  0  0  0  0  0  0
   -0.8611   -0.1179   -0.3457 C   0  0  1  0  0  0  0  0  0  0  0  0
   -1.7195    0.3743   -1.4949 C   0  0  0  0  0  0  0  0  0  0  0  0
   -1.0807   -1.5027    0.1530 C   0  0  0  0  0  0  0  0  0  0  0  0
   -1.6108   -0.3487    0.9041 N   0  0  0  0  0  0  0  0  0  0  0  0
    1.5087    2.4138    0.1548 H   0  0  0  0  0  0  0  0  0  0  0  0
   -0.1485    2.5746   -0.4421 H   0  0  0  0  0  0  0  0  0  0  0  0
    0.1397    2.0412    1.2169 H   0  0  0  0  0  0  0  0  0  0  0  0
    0.9701    0.4671   -1.3024 H   0  0  0  0  0  0  0  0  0  0  0  0
    1.1832   -0.3573    1.6599 H   0  0  0  0  0  0  0  0  0  0  0  0
   -1.2686    0.1104   -2.4578 H   0  0  0  0  0  0  0  0  0  0  0  0
   -2.7120   -0.0789   -1.4382 H   0  0  0  0  0  0  0  0  0  0  0  0
   -1.8506    1.4607   -1.4674 H   0  0  0  0  0  0  0  0  0  0  0  0
   -1.8355   -2.1307   -0.3131 H   0  0  0  0  0  0  0  0  0  0  0  0
   -0.2395   -2.0556    0.5640 H   0  0  0  0  0  0  0  0  0  0  0  0
   -1.0325   -0.1664    1.7211 H   0  0  0  0  0  0  0  0  0  0  0  0
  1 11  1  0  0  0  0
  2 12  1  6  0  0  0
  2  1  1  0  0  0  0
  2  3  1  0  0  0  0
  3 13  1  0  0  0  0
  4  3  2  0  0  0  0
  5  6  1  6  0  0  0
  5  2  1  0  0  0  0
  5  7  1  0  0  0  0
  5  8  1  0  0  0  0
  6 16  1  0  0  0  0
  6 15  1  0  0  0  0
  7 18  1  0  0  0  0
  7  8  1  0  0  0  0
  8 19  1  0  0  0  0
  9  1  1  0  0  0  0
 10  1  1  0  0  0  0
 14  6  1  0  0  0  0
 17  7  1  0  0  0  0
M  END
