title
 OpenBabel02282109593D

 18 18  0  0  1  0  0  0  0  0999 V2000
    0.5618    1.9540    0.0848 C   0  0  0  0  0  0  0  0  0  0  0  0
    0.5744    0.4688   -0.3386 C   0  0  1  0  0  0  0  0  0  0  0  0
    1.4698   -0.2779    0.6362 C   0  0  0  0  0  0  0  0  0  0  0  0
    2.5526   -0.7268    0.3577 O   0  0  0  0  0  0  0  0  0  0  0  0
   -0.8410   -0.1143   -0.3883 C   0  0  1  0  0  0  0  0  0  0  0  0
   -1.7720    0.4822   -1.4225 C   0  0  0  0  0  0  0  0  0  0  0  0
   -1.0988   -1.4815    0.0916 C   0  0  0  0  0  0  0  0  0  0  0  0
   -1.4394   -0.3476    0.8972 O   0  0  0  0  0  0  0  0  0  0  0  0
    1.5811    2.3458    0.1438 H   0  0  0  0  0  0  0  0  0  0  0  0
    0.0114    2.5646   -0.6351 H   0  0  0  0  0  0  0  0  0  0  0  0
    0.0877    2.0709    1.0642 H   0  0  0  0  0  0  0  0  0  0  0  0
    1.0321    0.3713   -1.3292 H   0  0  0  0  0  0  0  0  0  0  0  0
    1.0602   -0.3494    1.6676 H   0  0  0  0  0  0  0  0  0  0  0  0
   -1.3596    0.3612   -2.4299 H   0  0  0  0  0  0  0  0  0  0  0  0
   -2.7454   -0.0126   -1.3830 H   0  0  0  0  0  0  0  0  0  0  0  0
   -1.9310    1.5500   -1.2474 H   0  0  0  0  0  0  0  0  0  0  0  0
   -1.9447   -2.0395   -0.3074 H   0  0  0  0  0  0  0  0  0  0  0  0
   -0.2842   -2.0986    0.4693 H   0  0  0  0  0  0  0  0  0  0  0  0
  1  9  1  0  0  0  0
  1 11  1  0  0  0  0
  2 12  1  6  0  0  0
  2  1  1  0  0  0  0
  2  3  1  0  0  0  0
  3 13  1  0  0  0  0
  4  3  2  0  0  0  0
  5  6  1  6  0  0  0
  5  2  1  0  0  0  0
  5  7  1  0  0  0  0
  5  8  1  0  0  0  0
  6 15  1  0  0  0  0
  6 16  1  0  0  0  0
  7 18  1  0  0  0  0
  7  8  1  0  0  0  0
 10  1  1  0  0  0  0
 14  6  1  0  0  0  0
 17  7  1  0  0  0  0
M  END
