18
title
C 0.026861181 1.8780576 0.8689738
C -0.08123807 0.3527704 0.6881346
C -1.5451419 -0.054820716 0.6401887
O -2.1126442 -0.6627887 1.5117459
C 0.62534446 -0.12103248 -0.5802113
O 0.16988285 0.48770028 -1.7632533
C 2.0764458 -0.52958775 -0.5187918
C 0.98907334 -1.5664335 -0.7320323
H 1.0763671 2.1903982 0.8671299
H -0.49172637 2.4103 0.064161316
H -0.42025298 2.191756 1.8160338
H 0.36062217 -0.15082407 1.5537752
H -2.0750918 0.26171637 -0.2851771
H 0.5405416 1.3759843 -1.8039175
H 2.691168 -0.27697694 -1.3757569
H 2.5888171 -0.501985 0.43695962
H 0.75410175 -2.2454214 0.080175236
H 0.8912227 -1.9868444 -1.7257096
