title
 OpenBabel02282109593D

 18 18  0  0  1  0  0  0  0  0999 V2000
    0.7698    1.5778    0.6071 C   0  0  0  0  0  0  0  0  0  0  0  0
    0.8337    0.0792    0.3833 C   0  0  0  0  0  0  0  0  0  0  0  0
    2.0970   -0.5327   -0.1808 C   0  0  0  0  0  0  0  0  0  0  0  0
    1.7351   -0.7447    1.2685 C   0  0  0  0  0  0  0  0  0  0  0  0
   -0.4895   -0.5584   -0.0322 C   0  0  1  0  0  0  0  0  0  0  0  0
   -1.4967   -0.3385    0.9182 O   0  0  0  0  0  0  0  0  0  0  0  0
   -0.9362   -0.0450   -1.3900 C   0  0  0  0  0  0  0  0  0  0  0  0
   -2.0263    0.4463   -1.5600 O   0  0  0  0  0  0  0  0  0  0  0  0
    1.7306    1.9609    0.9625 H   0  0  0  0  0  0  0  0  0  0  0  0
    0.5186    2.1173   -0.3143 H   0  0  0  0  0  0  0  0  0  0  0  0
    0.0071    1.8152    1.3539 H   0  0  0  0  0  0  0  0  0  0  0  0
    2.0133   -1.3801   -0.8542 H   0  0  0  0  0  0  0  0  0  0  0  0
    2.9179    0.1357   -0.4162 H   0  0  0  0  0  0  0  0  0  0  0  0
    2.3129   -0.2209    2.0219 H   0  0  0  0  0  0  0  0  0  0  0  0
    1.3952   -1.7284    1.5740 H   0  0  0  0  0  0  0  0  0  0  0  0
   -0.3130   -1.6430   -0.1661 H   0  0  0  0  0  0  0  0  0  0  0  0
   -2.2380    0.0501    0.4268 H   0  0  0  0  0  0  0  0  0  0  0  0
   -0.2063   -0.1503   -2.2174 H   0  0  0  0  0  0  0  0  0  0  0  0
  1  9  1  0  0  0  0
  1 11  1  0  0  0  0
  2  1  1  0  0  0  0
  2  4  1  0  0  0  0
  3  2  1  0  0  0  0
  3  4  1  0  0  0  0
  4 15  1  0  0  0  0
  4 14  1  0  0  0  0
  5 16  1  6  0  0  0
  5  2  1  0  0  0  0
  5  6  1  0  0  0  0
  7  5  1  0  0  0  0
  8  7  2  0  0  0  0
 10  1  1  0  0  0  0
 12  3  1  0  0  0  0
 13  3  1  0  0  0  0
 17  6  1  0  0  0  0
 18  7  1  0  0  0  0
M  END
