18
title
C 0.769769 1.5778317 0.6070665
C 0.83367336 0.0791964 0.38332292
C 2.0969613 -0.5326938 -0.18079503
C 1.7350827 -0.74472183 1.2685119
C -0.48953056 -0.5584197 -0.032207448
O -1.4966786 -0.3385001 0.9182131
C -0.9362273 -0.04503501 -1.3900076
O -2.0263174 0.4462758 -1.5599904
H 1.730589 1.9608781 0.9624644
H 0.5186279 2.1172779 -0.31426698
H 0.007134667 1.8152016 1.3539338
H 2.0133188 -1.3800535 -0.85424024
H 2.9178774 0.13569006 -0.41615653
H 2.3129408 -0.22085418 2.0219429
H 1.3951937 -1.7284114 1.5739635
H -0.31296897 -1.6429557 -0.16608016
H -2.2379906 0.05010638 0.4267591
H -0.20626558 -0.15026648 -2.2173996
