17
title
C 0.28494895 1.9398671 -1.1425614
C 0.4377175 0.4925238 -0.72078526
C 1.3966252 -0.3766891 -1.4459118
N 1.6824296 0.05365446 -0.063319005
C -0.8273689 -0.15488634 -0.12517437
O -0.81782025 -1.5503129 -0.19634816
C -0.9809342 0.2806316 1.3236793
O -1.0608841 -0.5226058 2.2197566
H 1.2161078 2.3127427 -1.58035
H -0.505392 2.0513425 -1.8932716
H 0.032472935 2.5917823 -0.29815
H 1.1766075 -1.4323162 -1.5506257
H 1.9627646 0.07232415 -2.258465
H 2.3621075 0.81063086 -0.066747464
H -1.6960626 0.24225077 -0.6803215
H -0.80642277 -1.8574202 0.72454476
H -1.0077437 1.3710916 1.5187236
