19
title
C 0.7541344 1.4279184 0.9652991
N 0.015432709 0.27511498 0.47204053
C -0.99141103 -0.25099152 1.2331096
O -1.2953368 0.11147292 2.3509324
C 0.20757261 -0.14094613 -0.89683294
C -0.5315582 0.69393426 -1.9289838
C 1.5694747 -0.68955344 -1.2539079
C 0.3854189 -1.6187022 -1.1575173
H 1.8318597 1.2587516 0.87787855
H 0.501132 2.337549 0.4073351
H 0.4850918 1.5698755 2.0118186
H -1.5064459 -1.0774513 0.7093752
H -0.23761834 1.7474561 -1.8724586
H -0.3151764 0.34259665 -2.941998
H -1.6139941 0.63688815 -1.772231
H 1.9691888 -0.45093673 -2.2330372
H 2.3111596 -0.75020665 -0.46580017
H 0.35327774 -2.2964485 -0.31318748
H -0.03936564 -2.019006 -2.0713975
