16
title
O -1.0231979 1.3533074 -0.40698665
C -0.667113 0.0018667228 -0.48004028
C 0.23655748 -0.23073547 -1.6743982
O 0.55247533 0.67046374 -2.4147363
C 0.019486908 -0.48352104 0.80516577
O 0.18197614 -1.8791019 0.8217746
C 1.0326153 0.38973644 1.4911311
C -0.33717924 0.16799726 2.1048844
H -0.5993265 1.77562 -1.1718851
H -1.557396 -0.63709456 -0.6200021
H 0.5953132 -1.266799 -1.8292155
H 1.0761755 -2.087361 0.53347385
H 1.8814715 -0.10020442 1.9564345
H 1.2364877 1.362069 1.0575532
H -1.0373266 0.99353206 2.0842738
H -0.4008388 -0.4931227 2.9611392
