16
title
C 0.62188226 1.7787085 0.3149307
C 0.6252387 0.26774955 0.4293119
C 1.9622428 -0.46364462 0.52484244
C 1.0944526 -0.3742553 1.7329228
C -0.44134918 -0.5085057 -0.27936092
O -0.51073486 -1.7230116 -0.23928055
C -1.4201373 0.255279 -1.0390012
C -2.2420003 0.86382717 -1.6744409
H 1.4552025 2.2014751 0.8835217
H 0.7267022 2.104609 -0.7246927
H -0.30413494 2.2107038 0.7071815
H 2.019596 -1.4216862 0.021821054
H 2.8525565 0.15290123 0.46939576
H 1.3715254 0.30537733 2.5311615
H 0.5709761 -1.2724886 2.0384107
H -2.9730935 1.3902884 -2.2386138
