15
title
C 0.4698804 1.824744 -0.25169578
C 0.513881 0.33555517 -0.5163886
C 0.9800016 -0.17286496 -1.8401214
N 1.8364618 -0.33219364 -0.6651031
C -0.47054732 -0.5499101 0.2182884
O -0.6326839 -1.7154038 -0.07029943
C -1.2227988 0.06128897 1.3025402
C -1.8482223 0.5477846 2.2091994
H 1.199328 2.3422337 -0.88231266
H -0.5180627 2.2415814 -0.4711683
H 0.698338 2.051304 0.7944331
H 0.5564436 -1.1000447 -2.2116835
H 1.2376382 0.569886 -2.5909004
H 2.5572896 0.3873678 -0.6593848
H -2.4075522 0.9641189 3.0117044
