title
 OpenBabel02282109593D

 14 14  0  0  1  0  0  0  0  0999 V2000
    0.5703    1.7808   -0.2774 C   0  0  0  0  0  0  0  0  0  0  0  0
    0.6090    0.2783   -0.4556 C   0  0  1  0  0  0  0  0  0  0  0  0
    1.1704   -0.3183   -1.7107 C   0  0  0  0  0  0  0  0  0  0  0  0
    1.9170   -0.4286   -0.4638 N   0  0  0  0  0  0  0  0  0  0  0  0
   -0.4531   -0.5426    0.2235 C   0  0  0  0  0  0  0  0  0  0  0  0
   -0.5685   -1.7362    0.1078 O   0  0  0  0  0  0  0  0  0  0  0  0
   -1.4104    0.2048    1.0705 C   0  0  0  0  0  0  0  0  0  0  0  0
   -2.1594    0.7832    1.7352 N   0  0  0  0  0  0  0  0  0  0  0  0
    1.3624    2.2489   -0.8686 H   0  0  0  0  0  0  0  0  0  0  0  0
   -0.3846    2.2016   -0.6070 H   0  0  0  0  0  0  0  0  0  0  0  0
    0.7134    2.0643    0.7703 H   0  0  0  0  0  0  0  0  0  0  0  0
    0.7522   -1.2544   -2.0669 H   0  0  0  0  0  0  0  0  0  0  0  0
    1.5011    0.3788   -2.4762 H   0  0  0  0  0  0  0  0  0  0  0  0
    2.6567    0.2704   -0.4304 H   0  0  0  0  0  0  0  0  0  0  0  0
  1 11  1  0  0  0  0
  2  1  1  0  0  0  0
  2  5  1  1  0  0  0
  3  4  1  0  0  0  0
  3  2  1  0  0  0  0
  4  2  1  0  0  0  0
  4 14  1  0  0  0  0
  5  7  1  0  0  0  0
  6  5  2  0  0  0  0
  7  8  3  0  0  0  0
  9  1  1  0  0  0  0
 10  1  1  0  0  0  0
 12  3  1  0  0  0  0
 13  3  1  0  0  0  0
M  END
