13
title
C 0.38813287 1.7217597 -1.4314244
C 0.45948824 0.47421005 -0.5896927
C 1.4616086 -0.58867687 -0.8479246
O 1.6090842 0.29801875 0.24930894
C -0.823783 0.061786797 0.07220447
O -1.8987362 0.5371685 -0.19266027
C -0.70374435 -0.9888197 1.1079305
N -0.66342634 -1.828832 1.9010944
H 1.3707091 1.9426861 -1.8526694
H -0.33261505 1.5936557 -2.2428675
H 0.063345455 2.5735042 -0.8276936
H 1.253585 -1.6249181 -0.588901
H 2.1466894 -0.43365207 -1.6798309
