14
title
O -0.6524609 1.5775144 0.3958537
C -0.6393434 0.18429108 0.40501964
C -1.1542712 -0.5557593 1.6370951
C -1.9940038 -0.4802812 0.39911616
C 0.4519308 -0.49845293 -0.36127925
O 0.49889985 -1.7040254 -0.50509757
C 1.4856488 0.37249687 -0.90093267
C 2.368013 1.0651438 -1.3384367
H 0.14581868 1.8947653 0.83322555
H -0.6774961 -1.4993621 1.8753687
H -1.4250463 0.07611058 2.4750264
H -2.836913 0.2004484 0.39406377
H -2.0894067 -1.3730739 -0.20709693
H 3.148355 1.6672117 -1.737096
