title
 OpenBabel02282109593D

 14 14  0  0  0  0  0  0  0  0999 V2000
   -0.6525    1.5775    0.3959 O   0  0  0  0  0  0  0  0  0  0  0  0
   -0.6393    0.1843    0.4050 C   0  0  0  0  0  0  0  0  0  0  0  0
   -1.1543   -0.5558    1.6371 C   0  0  0  0  0  0  0  0  0  0  0  0
   -1.9940   -0.4803    0.3991 C   0  0  0  0  0  0  0  0  0  0  0  0
    0.4519   -0.4985   -0.3613 C   0  0  0  0  0  0  0  0  0  0  0  0
    0.4989   -1.7040   -0.5051 O   0  0  0  0  0  0  0  0  0  0  0  0
    1.4856    0.3725   -0.9009 C   0  0  0  0  0  0  0  0  0  0  0  0
    2.3680    1.0651   -1.3384 C   0  0  0  0  0  0  0  0  0  0  0  0
    0.1458    1.8948    0.8332 H   0  0  0  0  0  0  0  0  0  0  0  0
   -0.6775   -1.4994    1.8754 H   0  0  0  0  0  0  0  0  0  0  0  0
   -1.4250    0.0761    2.4750 H   0  0  0  0  0  0  0  0  0  0  0  0
   -2.8369    0.2004    0.3941 H   0  0  0  0  0  0  0  0  0  0  0  0
   -2.0894   -1.3731   -0.2071 H   0  0  0  0  0  0  0  0  0  0  0  0
    3.1484    1.6672   -1.7371 H   0  0  0  0  0  0  0  0  0  0  0  0
  1  2  1  0  0  0  0
  1  9  1  0  0  0  0
  2  3  1  0  0  0  0
  3 10  1  0  0  0  0
  3 11  1  0  0  0  0
  4  2  1  0  0  0  0
  4  3  1  0  0  0  0
  5  2  1  0  0  0  0
  6  5  2  0  0  0  0
  7  5  1  0  0  0  0
  8  7  3  0  0  0  0
 12  4  1  0  0  0  0
 13  4  1  0  0  0  0
 14  8  1  0  0  0  0
M  END
