title
 OpenBabel02282109593D

 13 13  0  0  0  0  0  0  0  0999 V2000
   -0.6265    1.5717    0.3960 O   0  0  0  0  0  0  0  0  0  0  0  0
   -0.6441    0.1819    0.4225 C   0  0  0  0  0  0  0  0  0  0  0  0
   -1.1926   -0.5514    1.6442 C   0  0  0  0  0  0  0  0  0  0  0  0
   -2.0112   -0.4708    0.3969 C   0  0  0  0  0  0  0  0  0  0  0  0
    0.4335   -0.5138   -0.3347 C   0  0  0  0  0  0  0  0  0  0  0  0
    0.5166   -1.7107   -0.4765 O   0  0  0  0  0  0  0  0  0  0  0  0
    1.4647    0.3797   -0.9114 C   0  0  0  0  0  0  0  0  0  0  0  0
    2.3061    1.0414   -1.3485 N   0  0  0  0  0  0  0  0  0  0  0  0
    0.0699    1.8937    0.9800 H   0  0  0  0  0  0  0  0  0  0  0  0
   -0.7263   -1.4975    1.8933 H   0  0  0  0  0  0  0  0  0  0  0  0
   -1.4652    0.0866    2.4769 H   0  0  0  0  0  0  0  0  0  0  0  0
   -2.8401    0.2260    0.3709 H   0  0  0  0  0  0  0  0  0  0  0  0
   -2.1089   -1.3624   -0.2109 H   0  0  0  0  0  0  0  0  0  0  0  0
  1  2  1  0  0  0  0
  1  9  1  0  0  0  0
  2  3  1  0  0  0  0
  3 10  1  0  0  0  0
  3 11  1  0  0  0  0
  4  2  1  0  0  0  0
  4  3  1  0  0  0  0
  5  2  1  0  0  0  0
  6  5  2  0  0  0  0
  7  5  1  0  0  0  0
  8  7  3  0  0  0  0
 12  4  1  0  0  0  0
 13  4  1  0  0  0  0
M  END
