16
title
C 0.526185 1.7741213 0.28653562
C 0.58919877 0.265388 0.4387735
C 1.9692796 -0.38028872 0.6117005
C 1.0601392 -0.2999577 1.7841434
C -0.38518333 -0.62088007 -0.25602838
O -0.3698653 -1.8342907 -0.16109046
C -1.5012083 -0.06427327 -1.1595014
O -1.7171547 1.0915793 -1.4068565
H 1.3274186 2.2295914 0.8769835
H 0.65248525 2.0866985 -0.7526902
H -0.42517173 2.181902 0.6361959
H 2.1047878 -1.3503311 0.14832184
H 2.8172016 0.29301646 0.55465823
H 1.2626508 0.43037927 2.5594928
H 0.5825191 -1.2158164 2.1114738
H -2.1071467 -0.8995784 -1.5715929
