title
 OpenBabel02282109593D

 14 14  0  0  0  0  0  0  0  0999 V2000
   -0.5915    1.5202    0.4972 O   0  0  0  0  0  0  0  0  0  0  0  0
   -0.6231    0.1334    0.4032 C   0  0  0  0  0  0  0  0  0  0  0  0
   -0.9008   -0.6883    1.6750 C   0  0  0  0  0  0  0  0  0  0  0  0
   -1.9664   -0.5071    0.6414 C   0  0  0  0  0  0  0  0  0  0  0  0
    0.2811   -0.5250   -0.5764 C   0  0  0  0  0  0  0  0  0  0  0  0
    0.1872   -1.6822   -0.9320 O   0  0  0  0  0  0  0  0  0  0  0  0
    1.5001    0.2511   -1.0978 C   0  0  0  0  0  0  0  0  0  0  0  0
    1.9419    1.2521   -0.5895 O   0  0  0  0  0  0  0  0  0  0  0  0
    0.3359    1.7905    0.5483 H   0  0  0  0  0  0  0  0  0  0  0  0
   -0.4204   -1.6563    1.7583 H   0  0  0  0  0  0  0  0  0  0  0  0
   -0.9610   -0.0986    2.5821 H   0  0  0  0  0  0  0  0  0  0  0  0
   -2.7673    0.1918    0.8519 H   0  0  0  0  0  0  0  0  0  0  0  0
   -2.2168   -1.3529    0.0121 H   0  0  0  0  0  0  0  0  0  0  0  0
    1.9907   -0.2586   -1.9513 H   0  0  0  0  0  0  0  0  0  0  0  0
  1  9  1  0  0  0  0
  2  1  1  0  0  0  0
  2  4  1  0  0  0  0
  2  3  1  0  0  0  0
  3 10  1  0  0  0  0
  3 11  1  0  0  0  0
  4 12  1  0  0  0  0
  4  3  1  0  0  0  0
  5  2  1  0  0  0  0
  6  5  2  0  0  0  0
  7  8  2  0  0  0  0
  7  5  1  0  0  0  0
 13  4  1  0  0  0  0
 14  7  1  0  0  0  0
M  END
