14
title
O -0.5914656 1.5201535 0.49721426
C -0.623062 0.1334279 0.4032215
C -0.9007943 -0.688305 1.67497
C -1.966445 -0.50706446 0.6414102
C 0.28110388 -0.5250083 -0.5764256
O 0.18715212 -1.6822281 -0.9320271
C 1.5000627 0.2511364 -1.0978105
O 1.9418843 1.2521224 -0.5894845
H 0.33585742 1.7905442 0.54832095
H -0.42037472 -1.6562792 1.7582687
H -0.9609699 -0.09860177 2.5820954
H -2.7672782 0.1917748 0.8518998
H -2.216845 -1.3529421 0.012149761
H 1.9907448 -0.25863966 -1.951299
