17
title
C 0.5595028 1.7344015 -1.434919
C 0.6863019 0.46838722 -0.61556655
C 1.6470098 -0.593461 -1.0675216
N 1.9240098 0.18166813 0.13949691
C -0.5714614 0.022704992 0.071531154
O -1.666411 0.3703906 -0.32706413
C -0.48129496 -0.8622091 1.3076295
O -1.755159 -1.2500651 1.7320123
H 1.4879798 1.9394151 -1.9765421
H -0.25572953 1.6413003 -2.1559374
H 0.3350794 2.593315 -0.7941387
H 1.4280859 -1.6446751 -0.90471876
H 2.2019796 -0.38119292 -1.9778506
H 2.6126363 0.90594953 -0.048864447
H 0.14771006 -1.739681 1.1001985
H 0.058353215 -0.28814417 2.078283
H -2.370108 -0.7614708 1.161304
