16
title
C 0.57895625 1.7943869 -1.3558726
C 0.6726682 0.48019096 -0.6198928
C 1.6689583 -0.54212534 -1.0165408
O 1.8605742 0.24287386 0.1520442
C -0.5932461 -0.008680118 0.031210449
O -1.6855364 0.2823195 -0.41224545
C -0.49372876 -0.8493922 1.2956464
O -1.7560005 -1.2883973 1.7004267
H 1.5305355 2.029924 -1.8371677
H -0.20951563 1.7428598 -2.1101995
H 0.32835218 2.604239 -0.6641661
H 1.4736929 -1.6001722 -0.8506288
H 2.326316 -0.3138208 -1.8542782
H 0.18390578 -1.6996748 1.1317415
H -0.0051764282 -0.22438918 2.0621197
H -2.3837085 -0.8442038 1.1082364
