title
 OpenBabel02282109593D

 20 20  0  0  0  0  0  0  0  0999 V2000
   -0.5832    2.5901    1.3702 C   0  0  0  0  0  0  0  0  0  0  0  0
   -0.2993    1.0904    1.3679 C   0  0  0  0  0  0  0  0  0  0  0  0
   -0.0967    0.5180   -0.0291 C   0  0  0  0  0  0  0  0  0  0  0  0
   -0.1662    1.2293   -1.0121 O   0  0  0  0  0  0  0  0  0  0  0  0
    0.1921   -0.9545   -0.1580 C   0  0  0  0  0  0  0  0  0  0  0  0
    0.2726   -1.8142    1.0890 C   0  0  0  0  0  0  0  0  0  0  0  0
   -0.3630   -1.5882   -1.4310 C   0  0  0  0  0  0  0  0  0  0  0  0
    1.0983   -1.3102   -1.3337 C   0  0  0  0  0  0  0  0  0  0  0  0
    0.2402    3.1436    0.9121 H   0  0  0  0  0  0  0  0  0  0  0  0
   -1.4837    2.8173    0.7943 H   0  0  0  0  0  0  0  0  0  0  0  0
   -0.7220    2.9546    2.3921 H   0  0  0  0  0  0  0  0  0  0  0  0
    0.5918    0.8561    1.9662 H   0  0  0  0  0  0  0  0  0  0  0  0
   -1.1140    0.5335    1.8506 H   0  0  0  0  0  0  0  0  0  0  0  0
   -0.6676   -1.8135    1.6510 H   0  0  0  0  0  0  0  0  0  0  0  0
    0.4873   -2.8523    0.8185 H   0  0  0  0  0  0  0  0  0  0  0  0
    1.0681   -1.4844    1.7659 H   0  0  0  0  0  0  0  0  0  0  0  0
   -0.7088   -2.6132   -1.3533 H   0  0  0  0  0  0  0  0  0  0  0  0
   -0.9508   -0.9393   -2.0692 H   0  0  0  0  0  0  0  0  0  0  0  0
    1.4846   -0.4760   -1.9070 H   0  0  0  0  0  0  0  0  0  0  0  0
    1.7819   -2.1395   -1.1875 H   0  0  0  0  0  0  0  0  0  0  0  0
  1 11  1  0  0  0  0
  2  1  1  0  0  0  0
  2 13  1  0  0  0  0
  2 12  1  0  0  0  0
  3  2  1  0  0  0  0
  4  3  2  0  0  0  0
  5  3  1  0  0  0  0
  5  6  1  0  0  0  0
  6 14  1  0  0  0  0
  6 16  1  0  0  0  0
  7 17  1  0  0  0  0
  7  8  1  0  0  0  0
  7  5  1  0  0  0  0
  8 20  1  0  0  0  0
  8  5  1  0  0  0  0
  9  1  1  0  0  0  0
 10  1  1  0  0  0  0
 15  6  1  0  0  0  0
 18  7  1  0  0  0  0
 19  8  1  0  0  0  0
M  END
