title
 OpenBabel02282109593D

 19 19  0  0  1  0  0  0  0  0999 V2000
    1.2264    2.6840    0.4970 C   0  0  0  0  0  0  0  0  0  0  0  0
    1.0501    1.1971    0.7947 C   0  0  0  0  0  0  0  0  0  0  0  0
    0.1024    0.4982   -0.1648 C   0  0  0  0  0  0  0  0  0  0  0  0
   -0.4082    1.0853   -1.0988 O   0  0  0  0  0  0  0  0  0  0  0  0
   -0.2110   -0.9611    0.0736 C   0  0  1  0  0  0  0  0  0  0  0  0
    0.7378   -1.8081    0.8937 C   0  0  0  0  0  0  0  0  0  0  0  0
   -1.6850   -1.2542    0.0913 C   0  0  0  0  0  0  0  0  0  0  0  0
   -0.8705   -1.6423   -1.0537 N   0  0  0  0  0  0  0  0  0  0  0  0
    1.9211    3.1393    1.2082 H   0  0  0  0  0  0  0  0  0  0  0  0
    1.6137    2.8354   -0.5135 H   0  0  0  0  0  0  0  0  0  0  0  0
    0.2710    3.2110    0.5593 H   0  0  0  0  0  0  0  0  0  0  0  0
    2.0132    0.6699    0.7601 H   0  0  0  0  0  0  0  0  0  0  0  0
    0.6792    1.0352    1.8161 H   0  0  0  0  0  0  0  0  0  0  0  0
    0.8361   -1.4371    1.9187 H   0  0  0  0  0  0  0  0  0  0  0  0
    0.3657   -2.8342    0.9357 H   0  0  0  0  0  0  0  0  0  0  0  0
    1.7365   -1.8381    0.4445 H   0  0  0  0  0  0  0  0  0  0  0  0
   -2.0408   -2.0713    0.7139 H   0  0  0  0  0  0  0  0  0  0  0  0
   -2.3660   -0.4145   -0.0160 H   0  0  0  0  0  0  0  0  0  0  0  0
   -0.9994   -0.9420   -1.7854 H   0  0  0  0  0  0  0  0  0  0  0  0
  1 11  1  0  0  0  0
  1  2  1  0  0  0  0
  1  9  1  0  0  0  0
  2 13  1  0  0  0  0
  3  2  1  0  0  0  0
  4  3  2  0  0  0  0
  5  3  1  6  0  0  0
  5  7  1  0  0  0  0
  5  6  1  0  0  0  0
  6 15  1  0  0  0  0
  6 14  1  0  0  0  0
  7 17  1  0  0  0  0
  8  5  1  0  0  0  0
  8  7  1  0  0  0  0
 10  1  1  0  0  0  0
 12  2  1  0  0  0  0
 16  6  1  0  0  0  0
 18  7  1  0  0  0  0
 19  8  1  0  0  0  0
M  END
