19
title
C 1.2264497 2.6839857 0.49696004
C 1.0501194 1.1971282 0.79469335
C 0.10236199 0.49822596 -0.16483665
O -0.40824968 1.0852859 -1.0988203
C -0.21101014 -0.9610616 0.07363992
C 0.73784375 -1.8081151 0.89368784
C -1.6849825 -1.2541512 0.09128241
N -0.8705433 -1.6423224 -1.0537077
H 1.9210793 3.1392508 1.2081956
H 1.6137259 2.8354368 -0.5134777
H 0.270966 3.2109935 0.5593267
H 2.0131989 0.66988605 0.76014245
H 0.67916805 1.0352277 1.8161131
H 0.8360884 -1.437076 1.9187026
H 0.36565655 -2.834201 0.9357288
H 1.7364749 -1.8381225 0.44452602
H -2.0407782 -2.0712554 0.7139349
H -2.3659694 -0.41450164 -0.015951859
H -0.9993785 -0.9420043 -1.7854272
