title
 OpenBabel02282109593D

 18 18  0  0  0  0  0  0  0  0999 V2000
   -0.7345    2.5567    1.3780 C   0  0  0  0  0  0  0  0  0  0  0  0
   -0.6502    1.0365    1.2756 C   0  0  0  0  0  0  0  0  0  0  0  0
   -0.0566    0.5591   -0.0397 C   0  0  0  0  0  0  0  0  0  0  0  0
    0.2616    1.3256   -0.9261 O   0  0  0  0  0  0  0  0  0  0  0  0
    0.1353   -0.9240   -0.2028 C   0  0  0  0  0  0  0  0  0  0  0  0
   -0.2503   -1.7407    0.8679 O   0  0  0  0  0  0  0  0  0  0  0  0
    0.0567   -1.4825   -1.6138 C   0  0  0  0  0  0  0  0  0  0  0  0
    1.3863   -1.3629   -0.9346 C   0  0  0  0  0  0  0  0  0  0  0  0
    0.2581    3.0080    1.3011 H   0  0  0  0  0  0  0  0  0  0  0  0
   -1.3401    2.9706    0.5679 H   0  0  0  0  0  0  0  0  0  0  0  0
   -1.1775    2.8552    2.3322 H   0  0  0  0  0  0  0  0  0  0  0  0
   -0.0594    0.5996    2.0902 H   0  0  0  0  0  0  0  0  0  0  0  0
   -1.6428    0.5762    1.3843 H   0  0  0  0  0  0  0  0  0  0  0  0
   -1.1993   -1.8939    0.8073 H   0  0  0  0  0  0  0  0  0  0  0  0
   -0.3773   -2.4719   -1.7070 H   0  0  0  0  0  0  0  0  0  0  0  0
   -0.1793   -0.7747   -2.3996 H   0  0  0  0  0  0  0  0  0  0  0  0
    2.0558   -0.5766   -1.2617 H   0  0  0  0  0  0  0  0  0  0  0  0
    1.8478   -2.2666   -0.5550 H   0  0  0  0  0  0  0  0  0  0  0  0
  1 11  1  0  0  0  0
  2  1  1  0  0  0  0
  2 13  1  0  0  0  0
  2 12  1  0  0  0  0
  3  2  1  0  0  0  0
  4  3  2  0  0  0  0
  5  3  1  0  0  0  0
  5  6  1  0  0  0  0
  7  8  1  0  0  0  0
  7  5  1  0  0  0  0
  8 18  1  0  0  0  0
  8  5  1  0  0  0  0
  9  1  1  0  0  0  0
 10  1  1  0  0  0  0
 14  6  1  0  0  0  0
 15  7  1  0  0  0  0
 16  7  1  0  0  0  0
 17  8  1  0  0  0  0
M  END
