title
 OpenBabel02282109593D

 19 19  0  0  0  0  0  0  0  0999 V2000
   -0.3297    2.6683    1.0738 C   0  0  0  0  0  0  0  0  0  0  0  0
   -0.1849    1.2268    1.0335 N   0  0  0  0  0  0  0  0  0  0  0  0
   -0.0449    0.5392   -0.1376 C   0  0  0  0  0  0  0  0  0  0  0  0
   -0.0331    1.0964   -1.2264 O   0  0  0  0  0  0  0  0  0  0  0  0
    0.0955   -0.9588   -0.0131 C   0  0  0  0  0  0  0  0  0  0  0  0
    0.0742   -1.6011    1.3604 C   0  0  0  0  0  0  0  0  0  0  0  0
   -0.5092   -1.7304   -1.1760 C   0  0  0  0  0  0  0  0  0  0  0  0
    0.9765   -1.5835   -1.0841 C   0  0  0  0  0  0  0  0  0  0  0  0
   -0.3025    3.0249    0.0438 H   0  0  0  0  0  0  0  0  0  0  0  0
   -1.2821    2.9618    1.5300 H   0  0  0  0  0  0  0  0  0  0  0  0
    0.4856    3.1365    1.6372 H   0  0  0  0  0  0  0  0  0  0  0  0
   -0.1881    0.7202    1.9011 H   0  0  0  0  0  0  0  0  0  0  0  0
   -0.8716   -1.4181    1.8851 H   0  0  0  0  0  0  0  0  0  0  0  0
    0.1858   -2.6858    1.2748 H   0  0  0  0  0  0  0  0  0  0  0  0
    0.8958   -1.2445    1.9937 H   0  0  0  0  0  0  0  0  0  0  0  0
   -0.9551   -2.6925   -0.9479 H   0  0  0  0  0  0  0  0  0  0  0  0
   -1.0188   -1.1406   -1.9279 H   0  0  0  0  0  0  0  0  0  0  0  0
    1.4492   -0.8967   -1.7753 H   0  0  0  0  0  0  0  0  0  0  0  0
    1.5701   -2.4429   -0.7915 H   0  0  0  0  0  0  0  0  0  0  0  0
  1 10  1  0  0  0  0
  1 11  1  0  0  0  0
  2  1  1  0  0  0  0
  2 12  1  0  0  0  0
  3  5  1  0  0  0  0
  3  2  1  0  0  0  0
  4  3  2  0  0  0  0
  5  6  1  0  0  0  0
  6 13  1  0  0  0  0
  6 15  1  0  0  0  0
  7  8  1  0  0  0  0
  7 16  1  0  0  0  0
  7  5  1  0  0  0  0
  8 19  1  0  0  0  0
  8  5  1  0  0  0  0
  9  1  1  0  0  0  0
 14  6  1  0  0  0  0
 17  7  1  0  0  0  0
 18  8  1  0  0  0  0
M  END
