title
 OpenBabel02282109593D

 18 18  0  0  1  0  0  0  0  0999 V2000
   -0.9093    2.6873    0.6239 C   0  0  0  0  0  0  0  0  0  0  0  0
   -0.9518    1.2574    0.3849 N   0  0  0  0  0  0  0  0  0  0  0  0
    0.1581    0.5326    0.0823 C   0  0  0  0  0  0  0  0  0  0  0  0
    1.2757    1.0266    0.0036 O   0  0  0  0  0  0  0  0  0  0  0  0
   -0.0525   -0.9490   -0.1550 C   0  0  1  0  0  0  0  0  0  0  0  0
   -1.3508   -1.6041    0.2655 C   0  0  0  0  0  0  0  0  0  0  0  0
    0.7147   -1.4827   -1.3235 C   0  0  0  0  0  0  0  0  0  0  0  0
    1.1633   -1.7584    0.0403 N   0  0  0  0  0  0  0  0  0  0  0  0
   -1.2908    2.9331    1.6210 H   0  0  0  0  0  0  0  0  0  0  0  0
    0.1330    2.9987    0.5524 H   0  0  0  0  0  0  0  0  0  0  0  0
   -1.4981    3.2344   -0.1209 H   0  0  0  0  0  0  0  0  0  0  0  0
   -1.8399    0.7884    0.4271 H   0  0  0  0  0  0  0  0  0  0  0  0
   -2.2022   -1.2439   -0.3250 H   0  0  0  0  0  0  0  0  0  0  0  0
   -1.2775   -2.6832    0.1152 H   0  0  0  0  0  0  0  0  0  0  0  0
   -1.5636   -1.4323    1.3265 H   0  0  0  0  0  0  0  0  0  0  0  0
    0.3135   -2.3357   -1.8650 H   0  0  0  0  0  0  0  0  0  0  0  0
    1.2784   -0.7680   -1.9151 H   0  0  0  0  0  0  0  0  0  0  0  0
    1.9160   -1.1036    0.2566 H   0  0  0  0  0  0  0  0  0  0  0  0
  1  9  1  0  0  0  0
  2 12  1  0  0  0  0
  2  1  1  0  0  0  0
  3  2  1  0  0  0  0
  4  3  2  0  0  0  0
  5  8  1  0  0  0  0
  5  3  1  1  0  0  0
  5  6  1  0  0  0  0
  6 15  1  0  0  0  0
  7  5  1  0  0  0  0
  7  8  1  0  0  0  0
  8 18  1  0  0  0  0
 10  1  1  0  0  0  0
 11  1  1  0  0  0  0
 13  6  1  0  0  0  0
 14  6  1  0  0  0  0
 16  7  1  0  0  0  0
 17  7  1  0  0  0  0
M  END
