18
title
C -0.90927154 2.687325 0.6239487
N -0.95178825 1.2574466 0.38494945
C 0.15813255 0.5326178 0.0822705
O 1.2756507 1.0266007 0.0035795548
C -0.052499 -0.9490141 -0.15497518
C -1.3507977 -1.6040611 0.2654743
C 0.7146728 -1.4827194 -1.323502
N 1.1633369 -1.7583723 0.0402953
H -1.2907577 2.9330592 1.6209756
H 0.13303578 2.9986763 0.5524121
H -1.4980627 3.2344303 -0.12092364
H -1.8399271 0.7884382 0.42708644
H -2.2021592 -1.243892 -0.3249523
H -1.2774869 -2.6832173 0.11521822
H -1.5636008 -1.4322891 1.3264892
H 0.31345713 -2.3356595 -1.8650392
H 1.278439 -0.7680153 -1.9150997
H 1.9160023 -1.1035604 0.2565554
