title
 OpenBabel02282109593D

 17 17  0  0  1  0  0  0  0  0999 V2000
   -0.8868    2.6505   -0.3412 C   0  0  0  0  0  0  0  0  0  0  0  0
   -0.8068    1.2151   -0.1713 N   0  0  0  0  0  0  0  0  0  0  0  0
    0.3734    0.5512   -0.0940 C   0  0  0  0  0  0  0  0  0  0  0  0
    1.4758    1.0713   -0.1418 O   0  0  0  0  0  0  0  0  0  0  0  0
    0.2247   -0.9540    0.0798 C   0  0  1  0  0  0  0  0  0  0  0  0
    1.2662   -1.7844   -0.6263 C   0  0  0  0  0  0  0  0  0  0  0  0
   -0.4388   -1.4369    1.3051 C   0  0  0  0  0  0  0  0  0  0  0  0
   -1.1286   -1.4432    0.0515 O   0  0  0  0  0  0  0  0  0  0  0  0
    0.1322    3.0398   -0.3233 H   0  0  0  0  0  0  0  0  0  0  0  0
   -1.3519    2.9151   -1.2976 H   0  0  0  0  0  0  0  0  0  0  0  0
   -1.4632    3.1150    0.4665 H   0  0  0  0  0  0  0  0  0  0  0  0
   -1.6384    0.6446   -0.1988 H   0  0  0  0  0  0  0  0  0  0  0  0
    2.2610   -1.4335   -0.3442 H   0  0  0  0  0  0  0  0  0  0  0  0
    1.1594   -2.8405   -0.3681 H   0  0  0  0  0  0  0  0  0  0  0  0
    1.1682   -1.6791   -1.7113 H   0  0  0  0  0  0  0  0  0  0  0  0
   -0.1772   -2.4190    1.6955 H   0  0  0  0  0  0  0  0  0  0  0  0
   -0.8097   -0.7230    2.0383 H   0  0  0  0  0  0  0  0  0  0  0  0
  1  9  1  0  0  0  0
  1  2  1  0  0  0  0
  1 11  1  0  0  0  0
  2  3  1  0  0  0  0
  4  3  2  0  0  0  0
  5  3  1  6  0  0  0
  5  7  1  0  0  0  0
  6 14  1  0  0  0  0
  6 13  1  0  0  0  0
  6  5  1  0  0  0  0
  7 16  1  0  0  0  0
  7 17  1  0  0  0  0
  8  5  1  0  0  0  0
  8  7  1  0  0  0  0
 10  1  1  0  0  0  0
 12  2  1  0  0  0  0
 15  6  1  0  0  0  0
M  END
