title
 OpenBabel02282109593D

 17 17  0  0  0  0  0  0  0  0999 V2000
   -0.4952    2.6379    1.0837 C   0  0  0  0  0  0  0  0  0  0  0  0
   -0.4225    1.1971    0.9658 N   0  0  0  0  0  0  0  0  0  0  0  0
    0.1247    0.5789   -0.1133 C   0  0  0  0  0  0  0  0  0  0  0  0
    0.6545    1.1601   -1.0488 O   0  0  0  0  0  0  0  0  0  0  0  0
    0.0217   -0.9276   -0.0728 C   0  0  0  0  0  0  0  0  0  0  0  0
   -0.5268   -1.4844    1.0977 O   0  0  0  0  0  0  0  0  0  0  0  0
   -0.3442   -1.6094   -1.3679 C   0  0  0  0  0  0  0  0  0  0  0  0
    1.0608   -1.7100   -0.8401 C   0  0  0  0  0  0  0  0  0  0  0  0
   -0.0550    2.9807    2.0265 H   0  0  0  0  0  0  0  0  0  0  0  0
    0.0663    3.0623    0.2502 H   0  0  0  0  0  0  0  0  0  0  0  0
   -1.5302    2.9960    1.0325 H   0  0  0  0  0  0  0  0  0  0  0  0
   -0.9081    0.6045    1.6207 H   0  0  0  0  0  0  0  0  0  0  0  0
    0.1932   -1.6211    1.7235 H   0  0  0  0  0  0  0  0  0  0  0  0
   -0.9844   -2.4786   -1.2744 H   0  0  0  0  0  0  0  0  0  0  0  0
   -0.5203   -0.9696   -2.2238 H   0  0  0  0  0  0  0  0  0  0  0  0
    1.8317   -1.1305   -1.3330 H   0  0  0  0  0  0  0  0  0  0  0  0
    1.3686   -2.6551   -0.4060 H   0  0  0  0  0  0  0  0  0  0  0  0
  1  9  1  0  0  0  0
  2  1  1  0  0  0  0
  2 12  1  0  0  0  0
  3  5  1  0  0  0  0
  3  2  1  0  0  0  0
  4  3  2  0  0  0  0
  5  6  1  0  0  0  0
  6 13  1  0  0  0  0
  7 14  1  0  0  0  0
  7  8  1  0  0  0  0
  7  5  1  0  0  0  0
  8 17  1  0  0  0  0
  8  5  1  0  0  0  0
 10  1  1  0  0  0  0
 11  1  1  0  0  0  0
 15  7  1  0  0  0  0
 16  8  1  0  0  0  0
M  END
