17
title
C -0.99299675 2.5468137 0.50400525
O -1.0391818 1.1225863 0.34072366
C 0.13575909 0.53801763 0.05427327
O 1.1771516 1.1448373 -0.05719892
C 0.0075255297 -0.94921815 -0.105717756
C -1.2515184 -1.6276001 0.38209364
C 0.77018774 -1.4887401 -1.2788551
N 1.2723546 -1.6861588 0.07708355
H -0.30895442 2.8182037 1.3115505
H -0.6574812 3.0284402 -0.4177471
H -2.0116534 2.8497217 0.74534684
H -2.1307325 -1.2581285 -0.15210007
H -1.1677469 -2.7055106 0.22616215
H -1.4065988 -1.4493381 1.4503746
H 0.38936344 -2.3799112 -1.7705004
H 1.2773081 -0.7754618 -1.9215472
H 2.006482 -1.0000077 0.2501615
