16
title
C 1.0238721 2.5596664 0.46352613
O 0.883969 1.1418327 0.62963915
C -0.06735217 0.56767887 -0.12990981
O -0.7672303 1.1692668 -0.902783
C -0.14711009 -0.925176 0.11871502
C 0.8217855 -1.5552841 1.0891585
C -1.4624562 -1.5368186 -0.16143847
O -0.39389157 -1.6578163 -1.0890986
H 1.8165543 2.8615265 1.1477374
H 1.293561 2.7986999 -0.5679589
H 0.08834351 3.0684109 0.70862216
H 0.70828456 -1.1264044 2.0884387
H 0.6418089 -2.6315985 1.140803
H 1.854203 -1.3894106 0.7700822
H -1.7324092 -2.4479306 0.37130088
H -2.2820117 -0.898064 -0.48172775
