17
title
C -0.61021775 2.4947777 1.0410771
O -0.52511054 1.0652448 1.0066507
C 0.068976015 0.55338055 -0.088046245
O 0.49233815 1.2297835 -0.9960225
C 0.09106371 -0.9427156 -0.06199198
N -0.24495456 -1.552712 1.201853
C -0.2672636 -1.5817807 -1.4094067
C 1.1518269 -1.587915 -0.9168293
H 0.38718298 2.939787 1.007017
H -1.1889882 2.8681512 0.19236507
H -1.1057006 2.739439 1.9806609
H -1.1828386 -1.2827826 1.4821813
H -0.23785493 -2.563216 1.1097795
H -0.83527905 -2.5049033 -1.3603029
H -0.5138151 -0.92274636 -2.233589
H 1.8571801 -0.9253389 -1.4030836
H 1.5681326 -2.5176198 -0.5431257
