16
title
C -0.6462554 2.4999151 -1.0290257
O -0.62096035 1.0691073 -0.9391023
C 0.034740034 0.57009983 0.13164832
O 0.57539284 1.2539479 0.96618307
C 0.040661756 -0.92466646 0.106506966
O -0.79323006 -1.5552782 -0.8139939
C 1.3761896 -1.5761768 0.45599678
C 0.22319561 -1.6349288 1.4182634
H 0.36888826 2.8985815 -1.0977632
H -1.2115909 2.731117 -1.9316579
H -1.1337302 2.928804 -0.15047555
H -0.73739314 -1.0607573 -1.6390269
H 1.6091715 -2.4704077 -0.11000297
H 2.20852 -0.9239517 0.69196534
H 0.26760882 -1.0185782 2.307668
H -0.31370777 -2.5717697 1.5098763
