16
title
O 1.5116646 2.3870158 -0.029431378
C 1.4380686 0.9944037 -0.07483778
C -0.0038707596 0.5230791 0.04505621
O -0.8925924 1.3468771 0.16440092
C -0.2720255 -0.9426169 -0.0017295977
O 0.8464276 -1.7710427 -0.14309172
C -1.491057 -1.4580885 0.74629974
C -1.5174357 -1.3804299 -0.74766916
H 0.5922453 2.683777 0.07097743
H 1.8574309 0.58954364 -1.0089748
H 2.0241737 0.5338555 0.738531
H 1.224569 -1.9287039 0.72890925
H -1.3828381 -2.4361374 1.2016152
H -2.0583842 -0.7253825 1.3080013
H -2.106256 -0.59730273 -1.2096645
H -1.4112352 -2.301105 -1.3086845
