title
 OpenBabel02282109593D

 22 22  0  0  1  0  0  0  0  0999 V2000
    0.3040    1.4342    1.1928 C   0  0  0  0  0  0  0  0  0  0  0  0
   -0.0519    0.0405    0.6592 C   0  0  1  0  0  0  0  0  0  0  0  0
   -1.5655   -0.0611    0.4260 C   0  0  0  0  0  0  0  0  0  0  0  0
   -2.2203    0.0852    1.6805 O   0  0  0  0  0  0  0  0  0  0  0  0
    0.7147   -0.4028   -0.5964 C   0  0  0  0  0  0  0  0  0  0  0  0
    0.7532   -1.9101   -0.7971 C   0  0  0  0  0  0  0  0  0  0  0  0
    0.6533    0.4470   -1.8478 C   0  0  0  0  0  0  0  0  0  0  0  0
    1.9399    0.3484   -1.0656 C   0  0  0  0  0  0  0  0  0  0  0  0
    1.3371    1.4780    1.5477 H   0  0  0  0  0  0  0  0  0  0  0  0
    0.1744    2.2091    0.4278 H   0  0  0  0  0  0  0  0  0  0  0  0
   -0.3551    1.6801    2.0282 H   0  0  0  0  0  0  0  0  0  0  0  0
    0.1816   -0.6827    1.4530 H   0  0  0  0  0  0  0  0  0  0  0  0
   -1.8792    0.7254   -0.2790 H   0  0  0  0  0  0  0  0  0  0  0  0
   -1.8173   -1.0291   -0.0310 H   0  0  0  0  0  0  0  0  0  0  0  0
   -3.1687    0.0970    1.5246 H   0  0  0  0  0  0  0  0  0  0  0  0
   -0.2500   -2.3439   -0.8706 H   0  0  0  0  0  0  0  0  0  0  0  0
    1.2891   -2.1712   -1.7150 H   0  0  0  0  0  0  0  0  0  0  0  0
    1.2650   -2.4025    0.0383 H   0  0  0  0  0  0  0  0  0  0  0  0
    0.5866   -0.0563   -2.8068 H   0  0  0  0  0  0  0  0  0  0  0  0
    0.1174    1.3897   -1.8091 H   0  0  0  0  0  0  0  0  0  0  0  0
    2.2664    1.2261   -0.5215 H   0  0  0  0  0  0  0  0  0  0  0  0
    2.7524   -0.2351   -1.4862 H   0  0  0  0  0  0  0  0  0  0  0  0
  1  9  1  0  0  0  0
  1 11  1  0  0  0  0
  2  1  1  0  0  0  0
  2 12  1  1  0  0  0
  3  2  1  0  0  0  0
  3  4  1  0  0  0  0
  5  2  1  0  0  0  0
  6  5  1  0  0  0  0
  6 18  1  0  0  0  0
  7 20  1  0  0  0  0
  7  8  1  0  0  0  0
  7  5  1  0  0  0  0
  8  5  1  0  0  0  0
  8 21  1  0  0  0  0
 10  1  1  0  0  0  0
 13  3  1  0  0  0  0
 14  3  1  0  0  0  0
 15  4  1  0  0  0  0
 16  6  1  0  0  0  0
 17  6  1  0  0  0  0
 19  7  1  0  0  0  0
 22  8  1  0  0  0  0
M  END
