title
 OpenBabel02282109593D

 20 20  0  0  1  0  0  0  0  0999 V2000
   -0.2366    1.9150   -0.4627 C   0  0  0  0  0  0  0  0  0  0  0  0
   -0.3945    0.3959   -0.3201 C   0  0  1  0  0  0  0  0  0  0  0  0
    0.0887   -0.3414   -1.5816 C   0  0  0  0  0  0  0  0  0  0  0  0
   -0.6449    0.0251   -2.7415 O   0  0  0  0  0  0  0  0  0  0  0  0
    0.2745   -0.1605    0.9331 C   0  0  1  0  0  0  0  0  0  0  0  0
    1.7793   -0.0374    1.0598 C   0  0  0  0  0  0  0  0  0  0  0  0
   -0.5322   -0.3019    2.1555 C   0  0  0  0  0  0  0  0  0  0  0  0
   -0.2455   -1.4407    1.3400 O   0  0  0  0  0  0  0  0  0  0  0  0
    0.8171    2.2014   -0.5488 H   0  0  0  0  0  0  0  0  0  0  0  0
   -0.7432    2.2538   -1.3694 H   0  0  0  0  0  0  0  0  0  0  0  0
   -0.6614    2.4450    0.3955 H   0  0  0  0  0  0  0  0  0  0  0  0
   -1.4644    0.1659   -0.2150 H   0  0  0  0  0  0  0  0  0  0  0  0
    1.1287   -0.0779   -1.8032 H   0  0  0  0  0  0  0  0  0  0  0  0
    0.0492   -1.4264   -1.4082 H   0  0  0  0  0  0  0  0  0  0  0  0
   -1.5430   -0.3049   -2.6354 H   0  0  0  0  0  0  0  0  0  0  0  0
    2.0947    1.0105    1.0522 H   0  0  0  0  0  0  0  0  0  0  0  0
    2.1152   -0.4925    1.9945 H   0  0  0  0  0  0  0  0  0  0  0  0
    2.2891   -0.5480    0.2366 H   0  0  0  0  0  0  0  0  0  0  0  0
   -0.0442   -0.2909    3.1297 H   0  0  0  0  0  0  0  0  0  0  0  0
   -1.5730    0.0210    2.1596 H   0  0  0  0  0  0  0  0  0  0  0  0
  1  2  1  0  0  0  0
  1 11  1  0  0  0  0
  2 12  1  1  0  0  0
  2  5  1  0  0  0  0
  3 14  1  0  0  0  0
  3  2  1  0  0  0  0
  4 15  1  0  0  0  0
  4  3  1  0  0  0  0
  5  6  1  1  0  0  0
  5  8  1  0  0  0  0
  5  7  1  0  0  0  0
  6 17  1  0  0  0  0
  7 20  1  0  0  0  0
  7 19  1  0  0  0  0
  8  7  1  0  0  0  0
  9  1  1  0  0  0  0
 10  1  1  0  0  0  0
 13  3  1  0  0  0  0
 16  6  1  0  0  0  0
 18  6  1  0  0  0  0
M  END
