20
title
C -0.23655312 1.9150068 -0.4627224
C -0.39450794 0.3958715 -0.32009035
C 0.08865433 -0.34143376 -1.581629
O -0.6449136 0.025107143 -2.7414904
C 0.27447265 -0.16048284 0.93307495
C 1.7792913 -0.037400413 1.05983
C -0.53220165 -0.30191696 2.1554658
O -0.24546255 -1.4407331 1.3399836
H 0.8171441 2.2013984 -0.5488483
H -0.7431528 2.2538025 -1.3694276
H -0.66143525 2.4450026 0.3955074
H -1.4643743 0.16591801 -0.21501447
H 1.1286529 -0.07786511 -1.8031781
H 0.04919719 -1.4264264 -1.4081589
H -1.5430174 -0.30491596 -2.6354299
H 2.09473 1.010526 1.0521884
H 2.1151667 -0.49251086 1.9945412
H 2.2890928 -0.54796207 0.23661798
H -0.04420755 -0.29089928 3.129655
H -1.5730225 0.020977763 2.159579
