title
 OpenBabel02282109593D

 20 20  0  0  1  0  0  0  0  0999 V2000
    0.8242    1.7120    0.8091 C   0  0  0  0  0  0  0  0  0  0  0  0
    0.8477    0.2213    0.5166 C   0  0  0  0  0  0  0  0  0  0  0  0
    2.1581   -0.3943    0.0793 C   0  0  0  0  0  0  0  0  0  0  0  0
    1.6234   -0.6623    1.4643 C   0  0  0  0  0  0  0  0  0  0  0  0
   -0.4116   -0.3809   -0.0861 C   0  0  1  0  0  0  0  0  0  0  0  0
   -1.5439   -0.3060    0.7934 O   0  0  0  0  0  0  0  0  0  0  0  0
   -0.8118    0.1971   -1.4479 C   0  0  0  0  0  0  0  0  0  0  0  0
   -1.9797   -0.4339   -1.9294 O   0  0  0  0  0  0  0  0  0  0  0  0
    1.7607    2.0245    1.2804 H   0  0  0  0  0  0  0  0  0  0  0  0
    0.6962    2.3124   -0.0976 H   0  0  0  0  0  0  0  0  0  0  0  0
    0.0187    1.9782    1.5058 H   0  0  0  0  0  0  0  0  0  0  0  0
    2.1309   -1.2025   -0.6444 H   0  0  0  0  0  0  0  0  0  0  0  0
    3.0170    0.2603   -0.0240 H   0  0  0  0  0  0  0  0  0  0  0  0
    2.1222   -0.1904    2.3042 H   0  0  0  0  0  0  0  0  0  0  0  0
    1.2268   -1.6481    1.6810 H   0  0  0  0  0  0  0  0  0  0  0  0
   -0.2553   -1.4574   -0.2215 H   0  0  0  0  0  0  0  0  0  0  0  0
   -1.6699    0.6190    1.0340 H   0  0  0  0  0  0  0  0  0  0  0  0
   -0.9568    1.2886   -1.3618 H   0  0  0  0  0  0  0  0  0  0  0  0
   -0.0152    0.0299   -2.1807 H   0  0  0  0  0  0  0  0  0  0  0  0
   -2.5510   -0.5280   -1.1556 H   0  0  0  0  0  0  0  0  0  0  0  0
  1  9  1  0  0  0  0
  1 11  1  0  0  0  0
  2  1  1  0  0  0  0
  2  4  1  0  0  0  0
  3  2  1  0  0  0  0
  3  4  1  0  0  0  0
  4 15  1  0  0  0  0
  4 14  1  0  0  0  0
  5 16  1  6  0  0  0
  5  2  1  0  0  0  0
  5  6  1  0  0  0  0
  6 17  1  0  0  0  0
  7 18  1  0  0  0  0
  7  5  1  0  0  0  0
  8  7  1  0  0  0  0
  8 20  1  0  0  0  0
 10  1  1  0  0  0  0
 12  3  1  0  0  0  0
 13  3  1  0  0  0  0
 19  7  1  0  0  0  0
M  END
