title
 OpenBabel02282109593D

 19 19  0  0  1  0  0  0  0  0999 V2000
    0.4861    2.2946   -0.1663 C   0  0  0  0  0  0  0  0  0  0  0  0
    0.6436    0.7885   -0.2275 C   0  0  1  0  0  0  0  0  0  0  0  0
    1.4280    0.2085   -1.3568 C   0  0  0  0  0  0  0  0  0  0  0  0
    1.9723    0.2041    0.0135 N   0  0  0  0  0  0  0  0  0  0  0  0
   -0.5314    0.0265    0.3715 C   0  0  1  0  0  0  0  0  0  0  0  0
   -1.7047    0.2008   -0.4394 O   0  0  0  0  0  0  0  0  0  0  0  0
   -0.3146   -1.4670    0.6283 C   0  0  0  0  0  0  0  0  0  0  0  0
   -1.4975   -2.0403    1.1477 O   0  0  0  0  0  0  0  0  0  0  0  0
    1.2916    2.8027   -0.7063 H   0  0  0  0  0  0  0  0  0  0  0  0
   -0.4692    2.5971   -0.6048 H   0  0  0  0  0  0  0  0  0  0  0  0
    0.4989    2.6422    0.8735 H   0  0  0  0  0  0  0  0  0  0  0  0
    1.2049   -0.7760   -1.7585 H   0  0  0  0  0  0  0  0  0  0  0  0
    1.8437    0.9030   -2.0827 H   0  0  0  0  0  0  0  0  0  0  0  0
    2.6632    0.9434    0.1185 H   0  0  0  0  0  0  0  0  0  0  0  0
   -0.8021    0.4874    1.3295 H   0  0  0  0  0  0  0  0  0  0  0  0
   -1.4684   -0.0584   -1.3385 H   0  0  0  0  0  0  0  0  0  0  0  0
   -0.0073   -1.9702   -0.3049 H   0  0  0  0  0  0  0  0  0  0  0  0
    0.4848   -1.6153    1.3570 H   0  0  0  0  0  0  0  0  0  0  0  0
   -2.2171   -1.6520    0.6330 H   0  0  0  0  0  0  0  0  0  0  0  0
  1 11  1  0  0  0  0
  2  1  1  1  0  0  0
  2  4  1  0  0  0  0
  2  5  1  0  0  0  0
  3  2  1  0  0  0  0
  3  4  1  0  0  0  0
  4 14  1  0  0  0  0
  5  7  1  0  0  0  0
  5 15  1  1  0  0  0
  6  5  1  0  0  0  0
  7  8  1  0  0  0  0
  7 18  1  0  0  0  0
  9  1  1  0  0  0  0
 10  1  1  0  0  0  0
 12  3  1  0  0  0  0
 13  3  1  0  0  0  0
 16  6  1  0  0  0  0
 17  7  1  0  0  0  0
 19  8  1  0  0  0  0
M  END
