18
title
C 1.0344336 1.8955988 -0.4719874
C 0.8816138 0.3955908 -0.374019
C 1.9816995 -0.48271555 -0.7929843
O 1.7225225 -0.24945492 0.6044819
C -0.54004383 -0.16795963 -0.38034225
O -0.525581 -1.5578295 -0.07426509
C -1.479984 0.53805584 0.6099261
O -2.7250586 -0.121201694 0.65320665
H 2.0910745 2.1701534 -0.5101707
H 0.5446911 2.273689 -1.3758177
H 0.5857699 2.3969588 0.39049265
H 1.7651333 -1.4905502 -1.1370841
H 2.9036314 -0.040155616 -1.1654632
H -0.96395457 -0.081135154 -1.3883702
H 0.13143033 -1.6533195 0.632588
H -0.9976311 0.56647104 1.6033018
H -1.66979 1.5713487 0.30219242
H -2.5103288 -1.0636177 0.65904087
