24
title
C -0.8477012 2.7137527 0.8848859
C -0.7585706 1.1840329 0.91577595
C 0.2110454 0.58151066 -0.12089876
C 1.6744299 0.96254826 0.15616551
C 0.034345165 -0.93475944 -0.2524064
C 0.3319212 -1.7726325 0.9797733
C -1.0739549 -1.4183232 -1.1579641
C 0.36859658 -1.5451587 -1.5930704
H 0.10604824 3.1857777 1.1402864
H -1.1392175 3.0727026 -0.10896412
H -1.5933748 3.0767915 1.5993505
H -0.4636839 0.8607642 1.9224721
H -1.7570149 0.7645871 0.7404403
H -0.058241293 1.008639 -1.0983418
H 1.8262093 2.043823 0.09219142
H 1.9889326 0.64688677 1.1571474
H 2.3443446 0.49011114 -0.5692387
H -0.32393155 -1.511362 1.8174253
H 0.1827708 -2.836038 0.7677868
H 1.3674264 -1.6481937 1.3149495
H -1.606897 -2.3230336 -0.8837066
H -1.6908376 -0.67823595 -1.6580015
H 0.71916556 -0.8887256 -2.3832052
H 0.8119136 -2.5354557 -1.6135517
