title
 OpenBabel02282109593D

 24 24  0  0  1  0  0  0  0  0999 V2000
   -0.8477    2.7138    0.8849 C   0  0  0  0  0  0  0  0  0  0  0  0
   -0.7586    1.1840    0.9158 C   0  0  0  0  0  0  0  0  0  0  0  0
    0.2110    0.5815   -0.1209 C   0  0  1  0  0  0  0  0  0  0  0  0
    1.6744    0.9625    0.1562 C   0  0  0  0  0  0  0  0  0  0  0  0
    0.0343   -0.9348   -0.2524 C   0  0  0  0  0  0  0  0  0  0  0  0
    0.3319   -1.7726    0.9798 C   0  0  0  0  0  0  0  0  0  0  0  0
   -1.0740   -1.4183   -1.1580 C   0  0  0  0  0  0  0  0  0  0  0  0
    0.3686   -1.5452   -1.5931 C   0  0  0  0  0  0  0  0  0  0  0  0
    0.1060    3.1858    1.1403 H   0  0  0  0  0  0  0  0  0  0  0  0
   -1.1392    3.0727   -0.1090 H   0  0  0  0  0  0  0  0  0  0  0  0
   -1.5934    3.0768    1.5994 H   0  0  0  0  0  0  0  0  0  0  0  0
   -0.4637    0.8608    1.9225 H   0  0  0  0  0  0  0  0  0  0  0  0
   -1.7570    0.7646    0.7404 H   0  0  0  0  0  0  0  0  0  0  0  0
   -0.0582    1.0086   -1.0983 H   0  0  0  0  0  0  0  0  0  0  0  0
    1.8262    2.0438    0.0922 H   0  0  0  0  0  0  0  0  0  0  0  0
    1.9889    0.6469    1.1571 H   0  0  0  0  0  0  0  0  0  0  0  0
    2.3443    0.4901   -0.5692 H   0  0  0  0  0  0  0  0  0  0  0  0
   -0.3239   -1.5114    1.8174 H   0  0  0  0  0  0  0  0  0  0  0  0
    0.1828   -2.8360    0.7678 H   0  0  0  0  0  0  0  0  0  0  0  0
    1.3674   -1.6482    1.3149 H   0  0  0  0  0  0  0  0  0  0  0  0
   -1.6069   -2.3230   -0.8837 H   0  0  0  0  0  0  0  0  0  0  0  0
   -1.6908   -0.6782   -1.6580 H   0  0  0  0  0  0  0  0  0  0  0  0
    0.7192   -0.8887   -2.3832 H   0  0  0  0  0  0  0  0  0  0  0  0
    0.8119   -2.5355   -1.6136 H   0  0  0  0  0  0  0  0  0  0  0  0
  1  2  1  0  0  0  0
  1  9  1  0  0  0  0
  1 11  1  0  0  0  0
  2 12  1  0  0  0  0
  3 14  1  6  0  0  0
  3  4  1  0  0  0  0
  3  2  1  0  0  0  0
  4 16  1  0  0  0  0
  5  3  1  0  0  0  0
  5  6  1  0  0  0  0
  6 20  1  0  0  0  0
  6 18  1  0  0  0  0
  7 21  1  0  0  0  0
  7  5  1  0  0  0  0
  8  7  1  0  0  0  0
  8  5  1  0  0  0  0
 10  1  1  0  0  0  0
 13  2  1  0  0  0  0
 15  4  1  0  0  0  0
 17  4  1  0  0  0  0
 19  6  1  0  0  0  0
 22  7  1  0  0  0  0
 23  8  1  0  0  0  0
 24  8  1  0  0  0  0
M  END
