title
 OpenBabel02282109593D

 22 22  0  0  1  0  0  0  0  0999 V2000
    1.4054    2.6283   -0.0946 C   0  0  0  0  0  0  0  0  0  0  0  0
    1.1655    1.1201   -0.2158 C   0  0  0  0  0  0  0  0  0  0  0  0
   -0.2302    0.6475    0.2548 C   0  0  1  0  0  0  0  0  0  0  0  0
   -1.3421    1.2028   -0.6446 C   0  0  0  0  0  0  0  0  0  0  0  0
   -0.2434   -0.8829    0.3617 C   0  0  1  0  0  0  0  0  0  0  0  0
    0.4967   -1.4677    1.5500 C   0  0  0  0  0  0  0  0  0  0  0  0
   -1.2963   -1.7108   -0.2521 C   0  0  0  0  0  0  0  0  0  0  0  0
   -0.0183   -1.5781   -0.8790 O   0  0  0  0  0  0  0  0  0  0  0  0
    2.4306    2.8801   -0.3839 H   0  0  0  0  0  0  0  0  0  0  0  0
    0.7360    3.2090   -0.7363 H   0  0  0  0  0  0  0  0  0  0  0  0
    1.2588    2.9725    0.9358 H   0  0  0  0  0  0  0  0  0  0  0  0
    1.3037    0.7975   -1.2545 H   0  0  0  0  0  0  0  0  0  0  0  0
    1.9368    0.6018    0.3644 H   0  0  0  0  0  0  0  0  0  0  0  0
   -0.3900    1.0318    1.2727 H   0  0  0  0  0  0  0  0  0  0  0  0
   -2.3350    0.9706   -0.2487 H   0  0  0  0  0  0  0  0  0  0  0  0
   -1.2727    2.2902   -0.7276 H   0  0  0  0  0  0  0  0  0  0  0  0
   -1.2660    0.7846   -1.6540 H   0  0  0  0  0  0  0  0  0  0  0  0
    0.0086   -1.1758    2.4865 H   0  0  0  0  0  0  0  0  0  0  0  0
    0.5091   -2.5586    1.4897 H   0  0  0  0  0  0  0  0  0  0  0  0
    1.5337   -1.1219    1.5925 H   0  0  0  0  0  0  0  0  0  0  0  0
   -1.5076   -2.6936    0.1700 H   0  0  0  0  0  0  0  0  0  0  0  0
   -2.1267   -1.2584   -0.7874 H   0  0  0  0  0  0  0  0  0  0  0  0
  1 11  1  0  0  0  0
  2  1  1  0  0  0  0
  2  3  1  0  0  0  0
  2 13  1  0  0  0  0
  3  5  1  0  0  0  0
  3 14  1  1  0  0  0
  4 15  1  0  0  0  0
  4  3  1  0  0  0  0
  5  6  1  1  0  0  0
  6 20  1  0  0  0  0
  6 18  1  0  0  0  0
  7 21  1  0  0  0  0
  7  5  1  0  0  0  0
  8  7  1  0  0  0  0
  8  5  1  0  0  0  0
  9  1  1  0  0  0  0
 10  1  1  0  0  0  0
 12  2  1  0  0  0  0
 16  4  1  0  0  0  0
 17  4  1  0  0  0  0
 19  6  1  0  0  0  0
 22  7  1  0  0  0  0
M  END
