title
 OpenBabel02282109593D

 22 22  0  0  1  0  0  0  0  0999 V2000
   -0.7346    2.7210    0.8949 C   0  0  0  0  0  0  0  0  0  0  0  0
   -0.7955    1.1913    0.8906 C   0  0  0  0  0  0  0  0  0  0  0  0
    0.1709    0.5587   -0.1215 C   0  0  1  0  0  0  0  0  0  0  0  0
    1.5244    0.9214    0.1561 O   0  0  0  0  0  0  0  0  0  0  0  0
    0.0066   -0.9530   -0.2605 C   0  0  0  0  0  0  0  0  0  0  0  0
    0.2817   -1.7779    0.9837 C   0  0  0  0  0  0  0  0  0  0  0  0
   -1.0654   -1.4336   -1.2103 C   0  0  0  0  0  0  0  0  0  0  0  0
    0.3917   -1.5484   -1.5914 C   0  0  0  0  0  0  0  0  0  0  0  0
    0.2851    3.0651    1.0875 H   0  0  0  0  0  0  0  0  0  0  0  0
   -1.0432    3.1287   -0.0743 H   0  0  0  0  0  0  0  0  0  0  0  0
   -1.3930    3.1437    1.6598 H   0  0  0  0  0  0  0  0  0  0  0  0
   -0.5630    0.8106    1.8950 H   0  0  0  0  0  0  0  0  0  0  0  0
   -1.8130    0.8507    0.6639 H   0  0  0  0  0  0  0  0  0  0  0  0
   -0.0258    1.0045   -1.1055 H   0  0  0  0  0  0  0  0  0  0  0  0
    1.7279    0.6287    1.0510 H   0  0  0  0  0  0  0  0  0  0  0  0
   -0.4120   -1.5423    1.7983 H   0  0  0  0  0  0  0  0  0  0  0  0
    0.1836   -2.8463    0.7693 H   0  0  0  0  0  0  0  0  0  0  0  0
    1.3032   -1.6186    1.3504 H   0  0  0  0  0  0  0  0  0  0  0  0
   -1.6042   -2.3406   -0.9565 H   0  0  0  0  0  0  0  0  0  0  0  0
   -1.6700   -0.6921   -1.7233 H   0  0  0  0  0  0  0  0  0  0  0  0
    0.7770   -0.8815   -2.3552 H   0  0  0  0  0  0  0  0  0  0  0  0
    0.8414   -2.5358   -1.5988 H   0  0  0  0  0  0  0  0  0  0  0  0
  1  9  1  0  0  0  0
  1 11  1  0  0  0  0
  2  1  1  0  0  0  0
  2 12  1  0  0  0  0
  3 14  1  6  0  0  0
  3  4  1  0  0  0  0
  3  2  1  0  0  0  0
  4 15  1  0  0  0  0
  5  3  1  0  0  0  0
  5  6  1  0  0  0  0
  6 18  1  0  0  0  0
  6 16  1  0  0  0  0
  7 19  1  0  0  0  0
  7  5  1  0  0  0  0
  8  7  1  0  0  0  0
  8  5  1  0  0  0  0
 10  1  1  0  0  0  0
 13  2  1  0  0  0  0
 17  6  1  0  0  0  0
 20  7  1  0  0  0  0
 21  8  1  0  0  0  0
 22  8  1  0  0  0  0
M  END
