22
title
C -0.73459476 2.7209644 0.8948968
C -0.79546803 1.191258 0.89062405
C 0.17087768 0.55874217 -0.12152743
O 1.5243511 0.9213812 0.1561482
C 0.0065668 -0.95296115 -0.26049006
C 0.28165838 -1.7779211 0.9836518
C -1.0653574 -1.4336127 -1.2102915
C 0.39166805 -1.5484399 -1.591447
H 0.2850658 3.065074 1.0874805
H -1.0431844 3.1286623 -0.074273825
H -1.393004 3.143661 1.6598052
H -0.5629744 0.81061226 1.8949928
H -1.8130311 0.8507306 0.66393274
H -0.025816225 1.0044793 -1.1054972
H 1.7279088 0.6287446 1.0509702
H -0.41195184 -1.5422767 1.798276
H 0.1835867 -2.846348 0.769339
H 1.3031849 -1.6186005 1.3504004
H -1.6041753 -2.3405993 -0.95647657
H -1.6699564 -0.69214207 -1.7232927
H 0.77703774 -0.8814989 -2.3552449
H 0.8414476 -2.5357726 -1.5987579
