21
title
C 1.2553245 2.7054937 -0.039275024
C 1.2285277 1.1733726 -0.051346455
C -0.15839171 0.5863224 0.24319136
O -1.123884 1.0605388 -0.6973452
C -0.17005038 -0.948015 0.31313324
C 0.7876748 -1.5679827 1.3109573
C -1.4520397 -1.6385958 0.029507201
N -0.3327558 -1.7108536 -0.9376751
H 2.2555459 3.081371 -0.27351284
H 0.55686945 3.129809 -0.7664745
H 0.97282463 3.092434 0.94566095
H 1.571156 0.7919305 -1.0249829
H 1.9415543 0.79333824 0.6864225
H -0.49437773 0.96168023 1.2208494
H -0.6694641 1.2564119 -1.522517
H 0.64827377 -1.1365697 2.309412
H 0.6146625 -2.644559 1.3778027
H 1.8322554 -1.4215605 1.0193113
H -1.6791763 -2.5735652 0.5347294
H -2.30867 -1.0295417 -0.23769419
H -0.54603004 -1.0612905 -1.6926576
