title
 OpenBabel02282109593D

 20 20  0  0  1  0  0  0  0  0999 V2000
   -0.7777    2.7002    0.9869 C   0  0  0  0  0  0  0  0  0  0  0  0
   -0.8734    1.1795    0.8485 C   0  0  0  0  0  0  0  0  0  0  0  0
    0.1341    0.6120   -0.1658 C   0  0  1  0  0  0  0  0  0  0  0  0
    1.4681    0.9566    0.1851 O   0  0  0  0  0  0  0  0  0  0  0  0
    0.0251   -0.8971   -0.3117 C   0  0  0  0  0  0  0  0  0  0  0  0
    0.4685   -1.5817    0.8419 O   0  0  0  0  0  0  0  0  0  0  0  0
   -1.0579   -1.5274   -1.1431 C   0  0  0  0  0  0  0  0  0  0  0  0
    0.3902   -1.5620   -1.5994 C   0  0  0  0  0  0  0  0  0  0  0  0
    0.2401    2.9920    1.2568 H   0  0  0  0  0  0  0  0  0  0  0  0
   -1.0287    3.1974    0.0431 H   0  0  0  0  0  0  0  0  0  0  0  0
   -1.4628    3.0745    1.7535 H   0  0  0  0  0  0  0  0  0  0  0  0
   -0.6885    0.7127    1.8263 H   0  0  0  0  0  0  0  0  0  0  0  0
   -1.8865    0.8864    0.5442 H   0  0  0  0  0  0  0  0  0  0  0  0
   -0.0545    1.0737   -1.1440 H   0  0  0  0  0  0  0  0  0  0  0  0
    1.7493    0.2842    0.8193 H   0  0  0  0  0  0  0  0  0  0  0  0
   -0.2310   -1.5352    1.5032 H   0  0  0  0  0  0  0  0  0  0  0  0
   -1.4846   -2.4555   -0.7787 H   0  0  0  0  0  0  0  0  0  0  0  0
   -1.7545   -0.8815   -1.6676 H   0  0  0  0  0  0  0  0  0  0  0  0
    0.6899   -0.9368   -2.4328 H   0  0  0  0  0  0  0  0  0  0  0  0
    0.9086   -2.5107   -1.5253 H   0  0  0  0  0  0  0  0  0  0  0  0
  1  9  1  0  0  0  0
  1 11  1  0  0  0  0
  2  1  1  0  0  0  0
  2 12  1  0  0  0  0
  3 14  1  6  0  0  0
  3  4  1  0  0  0  0
  3  2  1  0  0  0  0
  4 15  1  0  0  0  0
  5  3  1  0  0  0  0
  5  6  1  0  0  0  0
  6 16  1  0  0  0  0
  7 17  1  0  0  0  0
  7  5  1  0  0  0  0
  8 20  1  0  0  0  0
  8  7  1  0  0  0  0
  8  5  1  0  0  0  0
 10  1  1  0  0  0  0
 13  2  1  0  0  0  0
 18  7  1  0  0  0  0
 19  8  1  0  0  0  0
M  END
