22
title
C -0.15768756 2.5959532 0.74371713
O -0.33008182 1.19988 0.74428463
C 0.52093834 0.4884444 -0.14866856
C 1.9148282 0.30954903 0.46543792
C -0.14939478 -0.8428586 -0.48676208
C 0.6002028 -1.683322 -1.5043764
C -0.90654814 -1.560622 0.60388863
C -1.6568389 -0.8926844 -0.526509
H 0.8346139 2.902785 1.1059214
H -0.30291748 3.0230596 -0.2610151
H -0.9123778 3.01343 1.4153823
H 0.61437035 1.0686386 -1.0841625
H 1.8537899 -0.31439835 1.3621026
H 2.6027684 -0.1621501 -0.24153128
H 2.3468404 1.2746396 0.7453042
H 1.571723 -2.0216913 -1.1288989
H 0.022486337 -2.5754497 -1.7639499
H 0.77651584 -1.1237216 -2.4315526
H -0.8606843 -2.6445963 0.6275045
H -0.96185017 -1.0855632 1.5761659
H -2.1978884 0.01363926 -0.28659418
H -2.1203685 -1.5203645 -1.2806661
