title
 OpenBabel02282109593D

 21 21  0  0  1  0  0  0  0  0999 V2000
    1.1469    2.4289   -0.6560 C   0  0  0  0  0  0  0  0  0  0  0  0
    1.0528    1.0508   -0.3820 O   0  0  0  0  0  0  0  0  0  0  0  0
   -0.2707    0.5535   -0.2334 C   0  0  1  0  0  0  0  0  0  0  0  0
   -1.0356    0.5279   -1.5627 C   0  0  0  0  0  0  0  0  0  0  0  0
   -0.1470   -0.8247    0.4047 C   0  0  1  0  0  0  0  0  0  0  0  0
    0.6267   -1.8616   -0.3814 C   0  0  0  0  0  0  0  0  0  0  0  0
   -0.1469   -0.8768    1.8873 C   0  0  0  0  0  0  0  0  0  0  0  0
   -1.3264   -1.3393    1.1260 N   0  0  0  0  0  0  0  0  0  0  0  0
    2.2067    2.6923   -0.6115 H   0  0  0  0  0  0  0  0  0  0  0  0
    0.7660    2.6934   -1.6530 H   0  0  0  0  0  0  0  0  0  0  0  0
    0.6028    3.0295    0.0905 H   0  0  0  0  0  0  0  0  0  0  0  0
   -0.8198    1.2016    0.4741 H   0  0  0  0  0  0  0  0  0  0  0  0
   -0.4713   -0.0202   -2.3219 H   0  0  0  0  0  0  0  0  0  0  0  0
   -2.0064    0.0394   -1.4329 H   0  0  0  0  0  0  0  0  0  0  0  0
   -1.2200    1.5383   -1.9376 H   0  0  0  0  0  0  0  0  0  0  0  0
    1.6362   -1.4992   -0.5941 H   0  0  0  0  0  0  0  0  0  0  0  0
    0.6937   -2.7917    0.1879 H   0  0  0  0  0  0  0  0  0  0  0  0
    0.1352   -2.0902   -1.3326 H   0  0  0  0  0  0  0  0  0  0  0  0
    0.3999   -1.6629    2.4007 H   0  0  0  0  0  0  0  0  0  0  0  0
   -0.2131    0.0591    2.4364 H   0  0  0  0  0  0  0  0  0  0  0  0
   -2.0542   -0.6280    1.1642 H   0  0  0  0  0  0  0  0  0  0  0  0
  1  9  1  0  0  0  0
  1  2  1  0  0  0  0
  1 11  1  0  0  0  0
  2  3  1  0  0  0  0
  3  5  1  0  0  0  0
  3 12  1  1  0  0  0
  4 14  1  0  0  0  0
  4  3  1  0  0  0  0
  5  6  1  6  0  0  0
  5  8  1  0  0  0  0
  5  7  1  0  0  0  0
  6 17  1  0  0  0  0
  7 19  1  0  0  0  0
  7 20  1  0  0  0  0
  8 21  1  0  0  0  0
  8  7  1  0  0  0  0
 10  1  1  0  0  0  0
 13  4  1  0  0  0  0
 15  4  1  0  0  0  0
 16  6  1  0  0  0  0
 18  6  1  0  0  0  0
M  END
