21
title
C 1.1468952 2.428854 -0.6560453
O 1.0527526 1.0508292 -0.38202417
C -0.27065274 0.5535309 -0.23343356
C -1.0355953 0.5279273 -1.5626504
C -0.14703056 -0.8247225 0.40465277
C 0.6267235 -1.8616072 -0.3814028
C -0.14689824 -0.87679064 1.8873034
N -1.3264238 -1.339311 1.1259918
H 2.2067177 2.6923428 -0.6115096
H 0.7660442 2.6933632 -1.6529771
H 0.6028458 3.0294554 0.0905465
H -0.81978405 1.2016249 0.4740665
H -0.4713244 -0.020169523 -2.3219209
H -2.0064168 0.039421294 -1.4329146
H -1.2199796 1.538273 -1.9376022
H 1.6361526 -1.4992462 -0.5941202
H 0.6936902 -2.791745 0.18788286
H 0.1352199 -2.090201 -1.3326291
H 0.39985695 -1.6629304 2.400743
H -0.21309099 0.05914483 2.4363716
H -2.0541618 -0.62802875 1.1642077
