20
title
C -0.021813748 2.4038599 1.414572
O -0.16591425 1.0235375 1.1737064
C 0.2957251 0.5874144 -0.097748615
C 1.8231149 0.5875191 -0.21276197
C -0.2980534 -0.8012692 -0.31089494
C 0.02596073 -1.8545374 0.72348523
C -1.5168675 -0.9173268 -1.122004
O -0.2338456 -1.228547 -1.6789083
H 1.0299319 2.7138162 1.4944074
H -0.4990614 3.0050097 0.62451327
H -0.5175302 2.6169457 2.3650546
H -0.11290358 1.2444937 -0.8828205
H 2.1168969 0.13072263 -1.1620781
H 2.224268 1.6043963 -0.1910567
H 2.2777197 0.024682868 0.60748184
H -0.27986956 -1.5109094 1.7149757
H -0.49121255 -2.7885113 0.4912822
H 1.1002474 -2.0621693 0.75087714
H -2.179653 -1.7695962 -0.97792673
H -1.9946473 -0.022408258 -1.5186265
