20
title
C -0.13333207 2.5884674 0.8690598
O -0.32493362 1.1949747 0.80080813
C 0.5052445 0.5218858 -0.13479626
C 1.9207687 0.31294248 0.414882
C -0.1690404 -0.8025265 -0.48144686
O 0.52913004 -1.5272734 -1.4632958
C -0.92367154 -1.5752826 0.5679866
C -1.6582859 -0.894855 -0.57443297
H 0.8635418 2.8609126 1.2448614
H -0.27328905 3.0654647 -0.11327338
H -0.8816926 2.9818177 1.5617363
H 0.56517744 1.1130459 -1.0640739
H 2.547017 -0.19202028 -0.32646322
H 2.4022913 1.2660462 0.65001065
H 1.888566 -0.29079553 1.3275489
H 1.2518709 -1.9939804 -1.0306875
H -0.84213436 -2.6564662 0.53658384
H -1.0150983 -1.13923 1.5555031
H -2.2372675 -0.010341027 -0.34119892
H -2.0488412 -1.5250769 -1.3647949
