title
 OpenBabel02282109593D

 18 18  0  0  1  0  0  0  0  0999 V2000
    1.0903    2.5830    0.0970 O   0  0  0  0  0  0  0  0  0  0  0  0
    1.0574    1.2076    0.4152 C   0  0  0  0  0  0  0  0  0  0  0  0
   -0.2582    0.5766   -0.0580 C   0  0  1  0  0  0  0  0  0  0  0  0
   -0.4544    0.9046   -1.4363 O   0  0  0  0  0  0  0  0  0  0  0  0
   -0.2963   -0.9272    0.1399 C   0  0  0  0  0  0  0  0  0  0  0  0
    0.5749   -1.5937   -0.7520 O   0  0  0  0  0  0  0  0  0  0  0  0
   -0.4136   -1.5010    1.5225 C   0  0  0  0  0  0  0  0  0  0  0  0
   -1.5632   -1.6270    0.5414 C   0  0  0  0  0  0  0  0  0  0  0  0
    0.7126    2.6442   -0.7905 H   0  0  0  0  0  0  0  0  0  0  0  0
    1.8992    0.6610   -0.0427 H   0  0  0  0  0  0  0  0  0  0  0  0
    1.1561    1.1160    1.5018 H   0  0  0  0  0  0  0  0  0  0  0  0
   -1.0905    1.0462    0.4772 H   0  0  0  0  0  0  0  0  0  0  0  0
    0.1833    0.3608   -1.9186 H   0  0  0  0  0  0  0  0  0  0  0  0
    0.0392   -1.9736   -1.4555 H   0  0  0  0  0  0  0  0  0  0  0  0
    0.1689   -2.3915    1.7264 H   0  0  0  0  0  0  0  0  0  0  0  0
   -0.5214   -0.8213    2.3609 H   0  0  0  0  0  0  0  0  0  0  0  0
   -2.4553   -1.0307    0.6989 H   0  0  0  0  0  0  0  0  0  0  0  0
   -1.7456   -2.6104    0.1195 H   0  0  0  0  0  0  0  0  0  0  0  0
  1  2  1  0  0  0  0
  2 11  1  0  0  0  0
  3  5  1  0  0  0  0
  3  2  1  0  0  0  0
  3 12  1  1  0  0  0
  4  3  1  0  0  0  0
  5  8  1  0  0  0  0
  5  7  1  0  0  0  0
  6  5  1  0  0  0  0
  7 15  1  0  0  0  0
  7 16  1  0  0  0  0
  8 17  1  0  0  0  0
  8  7  1  0  0  0  0
  9  1  1  0  0  0  0
 10  2  1  0  0  0  0
 13  4  1  0  0  0  0
 14  6  1  0  0  0  0
 18  8  1  0  0  0  0
M  END
