18
title
O 1.0902523 2.5829613 0.09695837
C 1.057387 1.2076256 0.415179
C -0.258211 0.57657427 -0.05799883
O -0.45437786 0.90456855 -1.4362745
C -0.29631636 -0.92715204 0.13994074
O 0.5748858 -1.593701 -0.75199294
C -0.41362152 -1.500971 1.522461
C -1.5632416 -1.6270078 0.5414047
H 0.7125833 2.644207 -0.79048437
H 1.8992298 0.6609903 -0.04273232
H 1.1561058 1.115957 1.5018208
H -1.0904545 1.046208 0.47721773
H 0.18325059 0.36083513 -1.9186294
H 0.0391622 -1.9735514 -1.4554942
H 0.16886692 -2.3914857 1.7264059
H -0.52139515 -0.8213439 2.3609376
H -2.4552603 -1.0306545 0.6989005
H -1.7455593 -2.6103861 0.119479425
