20
title
C 1.0483041 3.5091066 -0.26033214
C 0.9823208 2.0737588 -0.02256001
C 0.9382478 0.886277 0.17372
C 0.8636731 -0.5550342 0.40674233
C -0.52401054 -1.1481062 0.15460074
C -1.6151478 -0.6188453 1.0631138
C -0.8776622 -1.5016755 -1.2672179
C -0.57820225 -2.5961235 -0.26678443
H 1.9814749 3.787419 -0.7629195
H 0.22028165 3.8470874 -0.893489
H 0.9979833 4.073554 0.6775685
H 1.594438 -1.065524 -0.23373565
H 1.1654686 -0.7739268 1.4410777
H -1.7128646 0.46707696 0.96319085
H -2.582218 -1.0710527 0.82281905
H -1.3953538 -0.8397735 2.1147478
H -1.9057941 -1.3685085 -1.5868733
H -0.1452222 -1.303497 -2.0427477
H 0.3555359 -3.1398246 -0.3693296
H -1.403974 -3.2011688 0.09272232
