title
 OpenBabel02282109593D

 18 18  0  0  1  0  0  0  0  0999 V2000
    1.0373    3.5160    0.2132 C   0  0  0  0  0  0  0  0  0  0  0  0
    0.9888    2.0769   -0.0037 C   0  0  0  0  0  0  0  0  0  0  0  0
    0.9575    0.8858   -0.1768 C   0  0  0  0  0  0  0  0  0  0  0  0
    0.9022   -0.5585   -0.3841 C   0  0  0  0  0  0  0  0  0  0  0  0
   -0.4940   -1.1516   -0.1919 C   0  0  1  0  0  0  0  0  0  0  0  0
   -1.5960   -0.5683   -1.0457 C   0  0  0  0  0  0  0  0  0  0  0  0
   -0.6003   -2.5265    0.3166 C   0  0  0  0  0  0  0  0  0  0  0  0
   -0.8468   -1.4071    1.1724 O   0  0  0  0  0  0  0  0  0  0  0  0
    2.0311    3.8334    0.5481 H   0  0  0  0  0  0  0  0  0  0  0  0
    0.8059    4.0679   -0.7046 H   0  0  0  0  0  0  0  0  0  0  0  0
    0.3168    3.8269    0.9777 H   0  0  0  0  0  0  0  0  0  0  0  0
    1.2481   -0.8009   -1.3987 H   0  0  0  0  0  0  0  0  0  0  0  0
    1.5862   -1.0613    0.3093 H   0  0  0  0  0  0  0  0  0  0  0  0
   -1.3850   -0.7208   -2.1099 H   0  0  0  0  0  0  0  0  0  0  0  0
   -2.5524   -1.0392   -0.8070 H   0  0  0  0  0  0  0  0  0  0  0  0
   -1.6811    0.5079   -0.8703 H   0  0  0  0  0  0  0  0  0  0  0  0
   -1.4739   -3.1276    0.0667 H   0  0  0  0  0  0  0  0  0  0  0  0
    0.3014   -3.0965    0.5400 H   0  0  0  0  0  0  0  0  0  0  0  0
  1  9  1  0  0  0  0
  1 11  1  0  0  0  0
  2  1  1  0  0  0  0
  3  2  3  0  0  0  0
  4  5  1  0  0  0  0
  4  3  1  0  0  0  0
  4 13  1  0  0  0  0
  5  6  1  6  0  0  0
  5  7  1  0  0  0  0
  5  8  1  0  0  0  0
  6 16  1  0  0  0  0
  6 15  1  0  0  0  0
  7 18  1  0  0  0  0
  7  8  1  0  0  0  0
 10  1  1  0  0  0  0
 12  4  1  0  0  0  0
 14  6  1  0  0  0  0
 17  7  1  0  0  0  0
M  END
