title
 OpenBabel02282109593D

 18 18  0  0  0  0  0  0  0  0999 V2000
    0.9300    3.5262   -0.1692 C   0  0  0  0  0  0  0  0  0  0  0  0
    0.9389    2.0794   -0.0006 C   0  0  0  0  0  0  0  0  0  0  0  0
    0.9784    0.8824    0.1330 C   0  0  0  0  0  0  0  0  0  0  0  0
    0.9524   -0.5695    0.3060 C   0  0  0  0  0  0  0  0  0  0  0  0
   -0.4529   -1.1297    0.1082 C   0  0  0  0  0  0  0  0  0  0  0  0
   -1.4016   -0.5850    0.9807 O   0  0  0  0  0  0  0  0  0  0  0  0
   -0.9111   -1.5325   -1.2706 C   0  0  0  0  0  0  0  0  0  0  0  0
   -0.6444   -2.5785   -0.1992 C   0  0  0  0  0  0  0  0  0  0  0  0
    1.8908    3.8841   -0.5555 H   0  0  0  0  0  0  0  0  0  0  0  0
    0.1534    3.8420   -0.8746 H   0  0  0  0  0  0  0  0  0  0  0  0
    0.7441    4.0394    0.7807 H   0  0  0  0  0  0  0  0  0  0  0  0
    1.6436   -1.0492   -0.3973 H   0  0  0  0  0  0  0  0  0  0  0  0
    1.2965   -0.8272    1.3162 H   0  0  0  0  0  0  0  0  0  0  0  0
   -1.3889    0.3709    0.8420 H   0  0  0  0  0  0  0  0  0  0  0  0
   -1.9474   -1.3319   -1.5169 H   0  0  0  0  0  0  0  0  0  0  0  0
   -0.2177   -1.4520   -2.1010 H   0  0  0  0  0  0  0  0  0  0  0  0
    0.2317   -3.2106   -0.2973 H   0  0  0  0  0  0  0  0  0  0  0  0
   -1.5039   -3.0579    0.2548 H   0  0  0  0  0  0  0  0  0  0  0  0
  1  2  1  0  0  0  0
  1 11  1  0  0  0  0
  2  3  3  0  0  0  0
  3  4  1  0  0  0  0
  4 13  1  0  0  0  0
  5  4  1  0  0  0  0
  5  6  1  0  0  0  0
  7  8  1  0  0  0  0
  7  5  1  0  0  0  0
  8  5  1  0  0  0  0
  8 18  1  0  0  0  0
  9  1  1  0  0  0  0
 10  1  1  0  0  0  0
 12  4  1  0  0  0  0
 14  6  1  0  0  0  0
 15  7  1  0  0  0  0
 16  7  1  0  0  0  0
 17  8  1  0  0  0  0
M  END
