15
title
C 0.98267084 2.1998115 0.4894354
C 1.0323611 0.6777043 0.48330528
C 2.3772736 -0.010376249 0.26036298
C 1.7562836 -0.036147688 1.6227217
C -0.12473795 0.03134122 -0.05631616
C -1.1139851 -0.4929401 -0.51707363
C -2.2237108 -1.0933125 -1.0341389
N -3.1695833 -1.6057525 -1.4748762
H 1.904771 2.6034484 0.9173763
H 0.8756914 2.5928242 -0.5258162
H 0.1407899 2.5623286 1.0864724
H 2.3835113 -0.92608386 -0.3182036
H 3.2240286 0.6442975 0.08620522
H 2.1709607 0.600628 2.3963366
H 1.3368919 -0.9695334 1.9779671
