title
 OpenBabel02282109593D

 15 15  0  0  1  0  0  0  0  0999 V2000
    0.9388    2.1716   -0.4607 C   0  0  0  0  0  0  0  0  0  0  0  0
    0.9923    0.6529   -0.4995 C   0  0  1  0  0  0  0  0  0  0  0  0
    1.7371   -0.0141   -1.6147 C   0  0  0  0  0  0  0  0  0  0  0  0
    2.2918   -0.0270   -0.2578 N   0  0  0  0  0  0  0  0  0  0  0  0
   -0.1529   -0.0081    0.0704 C   0  0  0  0  0  0  0  0  0  0  0  0
   -1.1438   -0.5227    0.5388 C   0  0  0  0  0  0  0  0  0  0  0  0
   -2.2510   -1.1119    1.0647 C   0  0  0  0  0  0  0  0  0  0  0  0
   -3.2358   -1.6328    1.5312 C   0  0  0  0  0  0  0  0  0  0  0  0
    1.8199    2.5974   -0.9516 H   0  0  0  0  0  0  0  0  0  0  0  0
    0.0471    2.5436   -0.9739 H   0  0  0  0  0  0  0  0  0  0  0  0
    0.9071    2.5316    0.5722 H   0  0  0  0  0  0  0  0  0  0  0  0
    1.4017   -0.9798   -1.9793 H   0  0  0  0  0  0  0  0  0  0  0  0
    2.1811    0.6342   -2.3663 H   0  0  0  0  0  0  0  0  0  0  0  0
    3.0173    0.6819   -0.1698 H   0  0  0  0  0  0  0  0  0  0  0  0
   -4.0991   -2.0936    1.9426 H   0  0  0  0  0  0  0  0  0  0  0  0
  1 11  1  0  0  0  0
  2  1  1  0  0  0  0
  2  4  1  0  0  0  0
  2  5  1  1  0  0  0
  3  2  1  0  0  0  0
  3  4  1  0  0  0  0
  4 14  1  0  0  0  0
  5  6  3  0  0  0  0
  6  7  1  0  0  0  0
  7  8  3  0  0  0  0
  8 15  1  0  0  0  0
  9  1  1  0  0  0  0
 10  1  1  0  0  0  0
 12  3  1  0  0  0  0
 13  3  1  0  0  0  0
M  END
