15
title
C 0.93882394 2.1716168 -0.4607263
C 0.9923101 0.6528929 -0.49954206
C 1.7371194 -0.014111323 -1.6146898
N 2.29181 -0.026996119 -0.25779405
C -0.15293725 -0.008069022 0.070396036
C -1.1438078 -0.52267194 0.5387937
C -2.251025 -1.1118544 1.0647024
C -3.2358499 -1.6327518 1.5311856
H 1.8199242 2.5973852 -0.95162606
H 0.047112152 2.543596 -0.97387594
H 0.90714437 2.5316193 0.57223904
H 1.4016778 -0.9797708 -1.9792684
H 2.181059 0.6342374 -2.3663154
H 3.017305 0.6818758 -0.1697796
H -4.0991373 -2.0936303 1.9425879
