title
 OpenBabel02282109593D

 14 14  0  0  1  0  0  0  0  0999 V2000
    0.9603    2.1863   -0.4675 C   0  0  0  0  0  0  0  0  0  0  0  0
    1.0117    0.6679   -0.5050 C   0  0  1  0  0  0  0  0  0  0  0  0
    1.7532   -0.0126   -1.6160 C   0  0  0  0  0  0  0  0  0  0  0  0
    2.2996   -0.0274   -0.2583 N   0  0  0  0  0  0  0  0  0  0  0  0
   -0.1353    0.0086    0.0626 C   0  0  0  0  0  0  0  0  0  0  0  0
   -1.1231   -0.5110    0.5269 C   0  0  0  0  0  0  0  0  0  0  0  0
   -2.2339   -1.1057    1.0506 C   0  0  0  0  0  0  0  0  0  0  0  0
   -3.1822   -1.6092    1.4952 N   0  0  0  0  0  0  0  0  0  0  0  0
    1.8439    2.6056   -0.9584 H   0  0  0  0  0  0  0  0  0  0  0  0
    0.0715    2.5606   -0.9838 H   0  0  0  0  0  0  0  0  0  0  0  0
    0.9297    2.5487    0.5645 H   0  0  0  0  0  0  0  0  0  0  0  0
    1.4089   -0.9751   -1.9806 H   0  0  0  0  0  0  0  0  0  0  0  0
    2.2017    0.6332   -2.3667 H   0  0  0  0  0  0  0  0  0  0  0  0
    3.0336    0.6714   -0.1619 H   0  0  0  0  0  0  0  0  0  0  0  0
  1 11  1  0  0  0  0
  2  1  1  0  0  0  0
  2  4  1  0  0  0  0
  2  5  1  1  0  0  0
  3  2  1  0  0  0  0
  3  4  1  0  0  0  0
  4 14  1  0  0  0  0
  5  6  3  0  0  0  0
  6  7  1  0  0  0  0
  7  8  3  0  0  0  0
  9  1  1  0  0  0  0
 10  1  1  0  0  0  0
 12  3  1  0  0  0  0
 13  3  1  0  0  0  0
M  END
