14
title
C 0.9568819 2.1770654 -0.43734443
C 0.96889377 0.6640231 -0.51483077
C 1.756547 -0.0286684 -1.5595385
O 2.236423 0.041364197 -0.22234118
C -0.18292736 -0.0038899744 0.03862532
C -1.168241 -0.52339596 0.5131372
C -2.2701337 -1.1200927 1.0410981
C -3.24956 -1.648804 1.5096056
H 1.8739223 2.5788863 -0.8747659
H 0.095011905 2.582781 -0.9751356
H 0.893617 2.502959 0.60466784
H 1.4465543 -1.015168 -1.8984468
H 2.2969387 0.5743663 -2.2887506
H -4.109005 -2.1160007 1.9222226
