13
title
C 0.97917557 2.1913362 -0.4408526
C 0.99085873 0.67912275 -0.5187396
C 1.7723976 -0.026669864 -1.5603738
O 2.2455463 0.042607423 -0.22098577
C -0.1648797 0.012068565 0.03157781
C -1.1470361 -0.51250017 0.5013815
C -2.2542806 -1.1145761 1.0252732
N -3.1987338 -1.625377 1.468866
H 1.8969058 2.5887256 -0.88010997
H 0.11849032 2.5986137 -0.9791386
H 0.919043 2.5185583 0.60075176
H 1.4550072 -1.0109832 -1.897996
H 2.3182898 0.5730304 -2.287431
