13
title
O -0.9861789 2.012219 0.57846093
C -0.9381884 0.6155435 0.64237285
C -1.4145232 -0.062101685 1.9232507
C -2.2914884 -0.054431878 0.7034083
C 0.11931101 -0.0008746592 -0.10704925
C 1.0383046 -0.4872581 -0.72619665
C 2.0670207 -1.0480207 -1.424269
N 2.9448225 -1.527328 -2.0163934
H -0.19190367 2.3607183 1.0002755
H -0.93737465 -0.98877835 2.2191358
H -1.6664048 0.61607945 2.7304418
H -3.1307015 0.63090014 0.6857131
H -2.4266634 -0.97514844 0.14964937
