title
 OpenBabel02282109593D

 16 16  0  0  0  0  0  0  0  0999 V2000
    0.9667    2.3563    0.4822 C   0  0  0  0  0  0  0  0  0  0  0  0
    1.0113    0.8354    0.4745 C   0  0  0  0  0  0  0  0  0  0  0  0
    2.3575    0.1452    0.2519 C   0  0  0  0  0  0  0  0  0  0  0  0
    1.7395    0.1202    1.6131 C   0  0  0  0  0  0  0  0  0  0  0  0
   -0.1418    0.1790   -0.0609 C   0  0  0  0  0  0  0  0  0  0  0  0
   -1.1196   -0.3728   -0.5148 C   0  0  0  0  0  0  0  0  0  0  0  0
   -2.2898   -1.0008   -1.0577 C   0  0  0  0  0  0  0  0  0  0  0  0
   -2.4518   -2.1978   -1.1543 O   0  0  0  0  0  0  0  0  0  0  0  0
    1.8885    2.7634    0.9081 H   0  0  0  0  0  0  0  0  0  0  0  0
    0.8577    2.7503   -0.5327 H   0  0  0  0  0  0  0  0  0  0  0  0
    0.1257    2.7206    1.0801 H   0  0  0  0  0  0  0  0  0  0  0  0
    2.3601   -0.7689   -0.3288 H   0  0  0  0  0  0  0  0  0  0  0  0
    3.2045    0.7995    0.0773 H   0  0  0  0  0  0  0  0  0  0  0  0
    2.1567    0.7572    2.3853 H   0  0  0  0  0  0  0  0  0  0  0  0
    1.3169   -0.8112    1.9693 H   0  0  0  0  0  0  0  0  0  0  0  0
   -3.0680   -0.2858   -1.3967 H   0  0  0  0  0  0  0  0  0  0  0  0
  1  9  1  0  0  0  0
  1 11  1  0  0  0  0
  2  1  1  0  0  0  0
  2  4  1  0  0  0  0
  3  2  1  0  0  0  0
  3  4  1  0  0  0  0
  4 15  1  0  0  0  0
  4 14  1  0  0  0  0
  5  2  1  0  0  0  0
  6  5  3  0  0  0  0
  7  6  1  0  0  0  0
  8  7  2  0  0  0  0
 10  1  1  0  0  0  0
 12  3  1  0  0  0  0
 13  3  1  0  0  0  0
 16  7  1  0  0  0  0
M  END
