16
title
C 0.9666502 2.356296 0.48224184
C 1.0112982 0.83538395 0.47452495
C 2.3574781 0.14520231 0.251878
C 1.7395127 0.12017623 1.613132
C -0.14184766 0.17898789 -0.060942765
C -1.1195703 -0.3727925 -0.5148295
C -2.2897732 -1.0008022 -1.0576534
O -2.4517517 -2.1978168 -1.1543487
H 1.8885098 2.763427 0.9081142
H 0.8576811 2.7503102 -0.53274727
H 0.12569948 2.720631 1.0800563
H 2.3601058 -0.76894784 -0.32883763
H 3.2045243 0.7995354 0.07734374
H 2.1567137 0.75716335 2.385329
H 1.3168557 -0.8111876 1.9692597
H -3.0679858 -0.28577283 -1.3966724
