title
 OpenBabel02282109593D

 15 15  0  0  1  0  0  0  0  0999 V2000
    0.7013    2.1581   -0.7888 C   0  0  0  0  0  0  0  0  0  0  0  0
    1.0362    0.6985   -0.5344 C   0  0  1  0  0  0  0  0  0  0  0  0
    1.9980    0.0015   -1.4508 C   0  0  0  0  0  0  0  0  0  0  0  0
    2.4076    0.3355   -0.0870 N   0  0  0  0  0  0  0  0  0  0  0  0
   -0.0157   -0.0770    0.0675 C   0  0  0  0  0  0  0  0  0  0  0  0
   -0.9388   -0.6927    0.5474 C   0  0  0  0  0  0  0  0  0  0  0  0
   -1.9986   -1.4636    1.1392 C   0  0  0  0  0  0  0  0  0  0  0  0
   -3.1631   -1.1329    1.1559 O   0  0  0  0  0  0  0  0  0  0  0  0
    1.5330    2.6590   -1.2945 H   0  0  0  0  0  0  0  0  0  0  0  0
   -0.1886    2.2492   -1.4183 H   0  0  0  0  0  0  0  0  0  0  0  0
    0.5017    2.6794    0.1524 H   0  0  0  0  0  0  0  0  0  0  0  0
    1.8776   -1.0592   -1.6459 H   0  0  0  0  0  0  0  0  0  0  0  0
    2.3843    0.5833   -2.2841 H   0  0  0  0  0  0  0  0  0  0  0  0
    2.9789    1.1782   -0.0897 H   0  0  0  0  0  0  0  0  0  0  0  0
   -1.6616   -2.4166    1.5958 H   0  0  0  0  0  0  0  0  0  0  0  0
  1  2  1  0  0  0  0
  1 11  1  0  0  0  0
  2  4  1  0  0  0  0
  2  5  1  1  0  0  0
  3  2  1  0  0  0  0
  3  4  1  0  0  0  0
  5  6  3  0  0  0  0
  6  7  1  0  0  0  0
  7  8  2  0  0  0  0
  7 15  1  0  0  0  0
  9  1  1  0  0  0  0
 10  1  1  0  0  0  0
 12  3  1  0  0  0  0
 13  3  1  0  0  0  0
 14  4  1  0  0  0  0
M  END
