14
title
C 0.71279675 2.1727915 -0.763667
C 1.0166256 0.7063541 -0.53952855
C 2.0115728 0.0026309832 -1.3827121
O 2.3439581 0.41001898 -0.063729465
C -0.036567487 -0.07474043 0.060147073
C -0.95398706 -0.68756676 0.5535121
C -2.0129921 -1.4513466 1.1612413
O -3.1913884 -1.2146938 1.0244342
H 1.5740933 2.6645074 -1.2216762
H -0.1571205 2.2886884 -1.4163772
H 0.49364594 2.6653855 0.18770638
H 1.9233251 -1.0707763 -1.5377619
H 2.4878566 0.56104827 -2.1878774
H -1.6585687 -2.2981687 1.7829235
