title
 OpenBabel02282109593D

 14 14  0  0  0  0  0  0  0  0999 V2000
   -0.9706    2.1704    0.5795 O   0  0  0  0  0  0  0  0  0  0  0  0
   -0.9197    0.7717    0.6331 C   0  0  0  0  0  0  0  0  0  0  0  0
   -1.4004    0.0931    1.9151 C   0  0  0  0  0  0  0  0  0  0  0  0
   -2.2774    0.1069    0.6977 C   0  0  0  0  0  0  0  0  0  0  0  0
    0.1302    0.1460   -0.1133 C   0  0  0  0  0  0  0  0  0  0  0  0
    1.0370   -0.3705   -0.7271 C   0  0  0  0  0  0  0  0  0  0  0  0
    2.1138   -0.9597   -1.4718 C   0  0  0  0  0  0  0  0  0  0  0  0
    2.3046   -2.1506   -1.5818 O   0  0  0  0  0  0  0  0  0  0  0  0
   -0.1654    2.5134    0.9838 H   0  0  0  0  0  0  0  0  0  0  0  0
   -0.9255   -0.8351    2.2090 H   0  0  0  0  0  0  0  0  0  0  0  0
   -1.6483    0.7734    2.7218 H   0  0  0  0  0  0  0  0  0  0  0  0
   -3.1127    0.7971    0.6833 H   0  0  0  0  0  0  0  0  0  0  0  0
   -2.4164   -0.8113    0.1410 H   0  0  0  0  0  0  0  0  0  0  0  0
    2.7823   -0.2189   -1.9568 H   0  0  0  0  0  0  0  0  0  0  0  0
  1  2  1  0  0  0  0
  1  9  1  0  0  0  0
  2  4  1  0  0  0  0
  2  3  1  0  0  0  0
  3 10  1  0  0  0  0
  3 11  1  0  0  0  0
  4  3  1  0  0  0  0
  5  2  1  0  0  0  0
  6  5  3  0  0  0  0
  7  6  1  0  0  0  0
  8  7  2  0  0  0  0
 12  4  1  0  0  0  0
 13  4  1  0  0  0  0
 14  7  1  0  0  0  0
M  END
