title
 OpenBabel02282109593D

 18 18  0  0  0  0  0  0  0  0999 V2000
    0.9902    1.8110    1.0245 C   0  0  0  0  0  0  0  0  0  0  0  0
    0.9076    0.3167    0.7835 C   0  0  0  0  0  0  0  0  0  0  0  0
    2.1499   -0.4129    0.2981 C   0  0  0  0  0  0  0  0  0  0  0  0
    1.6458   -0.6000    1.7143 C   0  0  0  0  0  0  0  0  0  0  0  0
   -0.4018   -0.1223    0.3399 N   0  0  0  0  0  0  0  0  0  0  0  0
   -0.6588    0.1268   -1.0771 C   0  0  0  0  0  0  0  0  0  0  0  0
   -1.9636   -0.4079   -1.4732 C   0  0  0  0  0  0  0  0  0  0  0  0
   -2.9814   -0.8515   -1.7917 N   0  0  0  0  0  0  0  0  0  0  0  0
    1.9782    2.0889    1.4017 H   0  0  0  0  0  0  0  0  0  0  0  0
    0.8227    2.3828    0.1046 H   0  0  0  0  0  0  0  0  0  0  0  0
    0.2370    2.1206    1.7553 H   0  0  0  0  0  0  0  0  0  0  0  0
    2.0180   -1.2416   -0.3904 H   0  0  0  0  0  0  0  0  0  0  0  0
    3.0636    0.1512    0.1444 H   0  0  0  0  0  0  0  0  0  0  0  0
    2.2068   -0.1540    2.5282 H   0  0  0  0  0  0  0  0  0  0  0  0
    1.1893   -1.5520    1.9680 H   0  0  0  0  0  0  0  0  0  0  0  0
   -0.5370   -1.1064    0.5405 H   0  0  0  0  0  0  0  0  0  0  0  0
   -0.6653    1.2077   -1.2581 H   0  0  0  0  0  0  0  0  0  0  0  0
    0.1050   -0.2980   -1.7524 H   0  0  0  0  0  0  0  0  0  0  0  0
  1  9  1  0  0  0  0
  1 11  1  0  0  0  0
  2  1  1  0  0  0  0
  2  4  1  0  0  0  0
  3  2  1  0  0  0  0
  3  4  1  0  0  0  0
  4 15  1  0  0  0  0
  4 14  1  0  0  0  0
  5 16  1  0  0  0  0
  5  2  1  0  0  0  0
  6  5  1  0  0  0  0
  7  6  1  0  0  0  0
  8  7  3  0  0  0  0
 10  1  1  0  0  0  0
 12  3  1  0  0  0  0
 13  3  1  0  0  0  0
 17  6  1  0  0  0  0
 18  6  1  0  0  0  0
M  END
