18
title
C 0.9808163 1.8704302 0.89227915
C 0.87666076 0.36972612 0.7270119
C 2.0751975 -0.43455297 0.2799736
C 1.5563036 -0.54006034 1.7023444
O -0.38364443 -0.10229152 0.3192433
C -0.7119181 0.20378014 -1.0290186
C -1.9133348 -0.5245446 -1.4154434
C -2.9028041 -1.1116538 -1.7592885
H 1.955034 2.143686 1.3071758
H 0.87236816 2.3979523 -0.061723825
H 0.20366634 2.233049 1.5731399
H 1.8909222 -1.2808886 -0.37222737
H 3.0136814 0.07998488 0.10309291
H 2.1357944 -0.09537434 2.503974
H 1.0251681 -1.4463941 1.9679366
H -0.884091 1.2833683 -1.1587055
H 0.120155595 -0.069455914 -1.6968417
H -3.7778335 -1.6339222 -2.0579307
