18
title
C 1.3603357 1.7965814 -0.5019342
C 1.1575056 0.29890716 -0.40931332
C -0.26236993 -0.22038832 -0.55355847
C -1.1575825 0.15923105 0.6476195
C -2.5004745 -0.39542267 0.53943765
C -3.6009696 -0.86468446 0.42246586
C 2.2799556 -0.59873194 -0.7235663
O 1.9103694 -0.34521982 0.6340503
H 2.4148815 2.0479386 -0.36643222
H 1.0337528 2.1726816 -1.4774884
H 0.78932923 2.3243647 0.2686817
H -0.7060943 0.16600138 -1.4782369
H -0.24100487 -1.3106173 -0.6379509
H -0.67728156 -0.20055163 1.5654639
H -1.2247767 1.2500297 0.7398976
H -4.5764813 -1.2741728 0.33439755
H 2.0829108 -1.6084783 -1.0820384
H 3.2368612 -0.17896822 -1.0325752
