title
 OpenBabel02282109593D

 19 19  0  0  0  0  0  0  0  0999 V2000
    0.9921    1.7943    1.0380 C   0  0  0  0  0  0  0  0  0  0  0  0
    0.9317    0.2907    0.8378 C   0  0  0  0  0  0  0  0  0  0  0  0
   -0.3972   -0.2576    0.3428 C   0  0  0  0  0  0  0  0  0  0  0  0
   -0.7484    0.2125   -1.0874 C   0  0  0  0  0  0  0  0  0  0  0  0
   -1.9914   -0.3768   -1.5782 C   0  0  0  0  0  0  0  0  0  0  0  0
   -2.9764   -0.8542   -1.9491 N   0  0  0  0  0  0  0  0  0  0  0  0
    2.1890   -0.4155    0.3814 C   0  0  0  0  0  0  0  0  0  0  0  0
    1.7073   -0.5718    1.8047 C   0  0  0  0  0  0  0  0  0  0  0  0
    1.9640    2.0957    1.4402 H   0  0  0  0  0  0  0  0  0  0  0  0
    0.8474    2.3429    0.1002 H   0  0  0  0  0  0  0  0  0  0  0  0
    0.2223    2.1303    1.7428 H   0  0  0  0  0  0  0  0  0  0  0  0
   -0.3704   -1.3521    0.3504 H   0  0  0  0  0  0  0  0  0  0  0  0
   -1.2043    0.0400    1.0229 H   0  0  0  0  0  0  0  0  0  0  0  0
   -0.8483    1.3024   -1.1236 H   0  0  0  0  0  0  0  0  0  0  0  0
    0.0613   -0.0527   -1.7768 H   0  0  0  0  0  0  0  0  0  0  0  0
    2.0911   -1.2685   -0.2828 H   0  0  0  0  0  0  0  0  0  0  0  0
    3.0764    0.1824    0.2033 H   0  0  0  0  0  0  0  0  0  0  0  0
    2.2667   -0.0764    2.5911 H   0  0  0  0  0  0  0  0  0  0  0  0
    1.2832   -1.5266    2.0970 H   0  0  0  0  0  0  0  0  0  0  0  0
  1  9  1  0  0  0  0
  1 11  1  0  0  0  0
  2  1  1  0  0  0  0
  2  8  1  0  0  0  0
  3 12  1  0  0  0  0
  3  2  1  0  0  0  0
  3 13  1  0  0  0  0
  4  3  1  0  0  0  0
  5  4  1  0  0  0  0
  6  5  3  0  0  0  0
  7  2  1  0  0  0  0
  7  8  1  0  0  0  0
  8 19  1  0  0  0  0
  8 18  1  0  0  0  0
 10  1  1  0  0  0  0
 14  4  1  0  0  0  0
 15  4  1  0  0  0  0
 16  7  1  0  0  0  0
 17  7  1  0  0  0  0
M  END
