18
title
C 0.9526794 1.8198671 -1.0807542
C 0.870752 0.31797478 -0.8905704
C -0.456585 -0.22552916 -0.3848193
C -0.6980117 0.13333735 1.0972775
C -1.9397562 -0.4344298 1.6141671
N -2.9281282 -0.88833225 2.0051434
C 1.7121748 -0.5504438 -1.7545167
N 2.0365837 -0.3882852 -0.32365635
H 1.9274808 2.1103163 -1.4850249
H 0.1841182 2.1723454 -1.7774707
H 0.81325525 2.357821 -0.13605139
H -1.2794249 0.15624781 -0.9992745
H -0.4599536 -1.3146102 -0.47950196
H 0.14212982 -0.24128482 1.6920267
H -0.7350746 1.2191519 1.2381018
H 1.3665105 -1.5416305 -2.0353415
H 2.3526616 -0.07166597 -2.4908538
H 2.8192205 0.25310788 -0.21966949
