title
 OpenBabel02282109593D

 18 18  0  0  1  0  0  0  0  0999 V2000
    0.9527    1.8199   -1.0808 C   0  0  0  0  0  0  0  0  0  0  0  0
    0.8708    0.3180   -0.8906 C   0  0  1  0  0  0  0  0  0  0  0  0
   -0.4566   -0.2255   -0.3848 C   0  0  0  0  0  0  0  0  0  0  0  0
   -0.6980    0.1333    1.0973 C   0  0  0  0  0  0  0  0  0  0  0  0
   -1.9398   -0.4344    1.6142 C   0  0  0  0  0  0  0  0  0  0  0  0
   -2.9281   -0.8883    2.0051 N   0  0  0  0  0  0  0  0  0  0  0  0
    1.7122   -0.5504   -1.7545 C   0  0  0  0  0  0  0  0  0  0  0  0
    2.0366   -0.3883   -0.3237 N   0  0  0  0  0  0  0  0  0  0  0  0
    1.9275    2.1103   -1.4850 H   0  0  0  0  0  0  0  0  0  0  0  0
    0.1841    2.1723   -1.7775 H   0  0  0  0  0  0  0  0  0  0  0  0
    0.8133    2.3578   -0.1361 H   0  0  0  0  0  0  0  0  0  0  0  0
   -1.2794    0.1562   -0.9993 H   0  0  0  0  0  0  0  0  0  0  0  0
   -0.4600   -1.3146   -0.4795 H   0  0  0  0  0  0  0  0  0  0  0  0
    0.1421   -0.2413    1.6920 H   0  0  0  0  0  0  0  0  0  0  0  0
   -0.7351    1.2192    1.2381 H   0  0  0  0  0  0  0  0  0  0  0  0
    1.3665   -1.5416   -2.0353 H   0  0  0  0  0  0  0  0  0  0  0  0
    2.3527   -0.0717   -2.4909 H   0  0  0  0  0  0  0  0  0  0  0  0
    2.8192    0.2531   -0.2197 H   0  0  0  0  0  0  0  0  0  0  0  0
  1 11  1  0  0  0  0
  2  1  1  6  0  0  0
  2  3  1  0  0  0  0
  2  8  1  0  0  0  0
  3  4  1  0  0  0  0
  4 15  1  0  0  0  0
  4  5  1  0  0  0  0
  4 14  1  0  0  0  0
  5  6  3  0  0  0  0
  7  2  1  0  0  0  0
  7  8  1  0  0  0  0
  8 18  1  0  0  0  0
  9  1  1  0  0  0  0
 10  1  1  0  0  0  0
 12  3  1  0  0  0  0
 13  3  1  0  0  0  0
 16  7  1  0  0  0  0
 17  7  1  0  0  0  0
M  END
