title
 OpenBabel02282109593D

 18 18  0  0  0  0  0  0  0  0999 V2000
   -1.2073    1.6193    0.1961 O   0  0  0  0  0  0  0  0  0  0  0  0
   -1.1629    0.2208    0.3495 C   0  0  0  0  0  0  0  0  0  0  0  0
   -0.0461   -0.3417   -0.4988 C   0  0  0  0  0  0  0  0  0  0  0  0
    1.3386    0.1866   -0.0658 C   0  0  0  0  0  0  0  0  0  0  0  0
    2.4232   -0.3328   -0.8881 C   0  0  0  0  0  0  0  0  0  0  0  0
    3.2978   -0.7792   -1.5818 C   0  0  0  0  0  0  0  0  0  0  0  0
   -1.4832   -0.3956    1.6854 C   0  0  0  0  0  0  0  0  0  0  0  0
   -2.4445   -0.5493    0.5138 C   0  0  0  0  0  0  0  0  0  0  0  0
   -1.7792    1.9914    0.8738 H   0  0  0  0  0  0  0  0  0  0  0  0
   -0.0592   -1.4342   -0.4415 H   0  0  0  0  0  0  0  0  0  0  0  0
   -0.2219   -0.0718   -1.5459 H   0  0  0  0  0  0  0  0  0  0  0  0
    1.3241    1.2810   -0.1090 H   0  0  0  0  0  0  0  0  0  0  0  0
    1.5146   -0.0767    0.9852 H   0  0  0  0  0  0  0  0  0  0  0  0
    4.0803   -1.1624   -2.1882 H   0  0  0  0  0  0  0  0  0  0  0  0
   -0.9217   -1.2644    2.0133 H   0  0  0  0  0  0  0  0  0  0  0  0
   -1.7797    0.2648    2.4954 H   0  0  0  0  0  0  0  0  0  0  0  0
   -3.3668    0.0220    0.5460 H   0  0  0  0  0  0  0  0  0  0  0  0
   -2.5405   -1.5232    0.0455 H   0  0  0  0  0  0  0  0  0  0  0  0
  1  2  1  0  0  0  0
  1  9  1  0  0  0  0
  2  8  1  0  0  0  0
  2  7  1  0  0  0  0
  3 10  1  0  0  0  0
  3  4  1  0  0  0  0
  3  2  1  0  0  0  0
  4 13  1  0  0  0  0
  5  4  1  0  0  0  0
  6  5  3  0  0  0  0
  7 15  1  0  0  0  0
  7 16  1  0  0  0  0
  8 17  1  0  0  0  0
  8  7  1  0  0  0  0
 11  3  1  0  0  0  0
 12  4  1  0  0  0  0
 14  6  1  0  0  0  0
 18  8  1  0  0  0  0
M  END
