17
title
O -1.2025542 1.6132783 0.21001571
C -1.1788929 0.21490486 0.35976258
C -0.07028697 -0.3536706 -0.49487185
C 1.3078103 0.19472648 -0.06711696
C 2.3964162 -0.32024086 -0.8921514
N 3.2461703 -0.7408136 -1.5530801
C -1.5007796 -0.4055894 1.6939267
C -2.4649212 -0.54521054 0.5230832
H -1.806993 1.9906784 0.85593796
H -0.07503698 -1.4449754 -0.42604834
H -0.25284204 -0.09216134 -1.5425146
H 1.2957034 1.286992 -0.12684433
H 1.5081098 -0.06430112 0.9788104
H -0.94829774 -1.2818903 2.01706
H -1.7885001 0.25526336 2.5063841
H -3.3828473 0.032860916 0.5583837
H -2.5701091 -1.515738 0.049879298
