title
 OpenBabel02282109593D

 18 18  0  0  0  0  0  0  0  0999 V2000
    1.1526    1.7552    1.0204 C   0  0  0  0  0  0  0  0  0  0  0  0
    0.9999    0.2666    0.8002 C   0  0  0  0  0  0  0  0  0  0  0  0
    2.1352   -0.5436    0.2217 C   0  0  0  0  0  0  0  0  0  0  0  0
    1.7290   -0.7039    1.6756 C   0  0  0  0  0  0  0  0  0  0  0  0
   -0.3016   -0.1525    0.4679 O   0  0  0  0  0  0  0  0  0  0  0  0
   -0.7393    0.2102   -0.8209 C   0  0  0  0  0  0  0  0  0  0  0  0
   -2.0245   -0.5469   -1.1072 C   0  0  0  0  0  0  0  0  0  0  0  0
   -2.7007   -0.3673   -2.0847 O   0  0  0  0  0  0  0  0  0  0  0  0
    2.1648    1.9909    1.3600 H   0  0  0  0  0  0  0  0  0  0  0  0
    0.9735    2.3243    0.1017 H   0  0  0  0  0  0  0  0  0  0  0  0
    0.4458    2.1025    1.7811 H   0  0  0  0  0  0  0  0  0  0  0  0
    1.8784   -1.3537   -0.4516 H   0  0  0  0  0  0  0  0  0  0  0  0
    3.0689   -0.0418   -0.0079 H   0  0  0  0  0  0  0  0  0  0  0  0
    2.3828   -0.3120    2.4468 H   0  0  0  0  0  0  0  0  0  0  0  0
    1.1974   -1.6097    1.9424 H   0  0  0  0  0  0  0  0  0  0  0  0
   -0.9372    1.2882   -0.9177 H   0  0  0  0  0  0  0  0  0  0  0  0
    0.0007   -0.0553   -1.5937 H   0  0  0  0  0  0  0  0  0  0  0  0
   -2.2822   -1.2967   -0.3268 H   0  0  0  0  0  0  0  0  0  0  0  0
  1  9  1  0  0  0  0
  1 11  1  0  0  0  0
  2  1  1  0  0  0  0
  2  4  1  0  0  0  0
  3  2  1  0  0  0  0
  3  4  1  0  0  0  0
  4 15  1  0  0  0  0
  4 14  1  0  0  0  0
  5  2  1  0  0  0  0
  6  5  1  0  0  0  0
  7  6  1  0  0  0  0
  7 18  1  0  0  0  0
  8  7  2  0  0  0  0
 10  1  1  0  0  0  0
 12  3  1  0  0  0  0
 13  3  1  0  0  0  0
 16  6  1  0  0  0  0
 17  6  1  0  0  0  0
M  END
