title
 OpenBabel02282109593D

 20 20  0  0  0  0  0  0  0  0999 V2000
    1.2065    1.6489    1.0287 C   0  0  0  0  0  0  0  0  0  0  0  0
    1.0823    0.1515    0.8150 C   0  0  0  0  0  0  0  0  0  0  0  0
   -0.2977   -0.3420    0.4050 C   0  0  0  0  0  0  0  0  0  0  0  0
   -0.7675    0.1874   -0.9654 C   0  0  0  0  0  0  0  0  0  0  0  0
   -2.0433   -0.4860   -1.4126 C   0  0  0  0  0  0  0  0  0  0  0  0
   -3.0707    0.0800   -1.6833 O   0  0  0  0  0  0  0  0  0  0  0  0
    2.2785   -0.5858    0.2589 C   0  0  0  0  0  0  0  0  0  0  0  0
    1.8956   -0.7504    1.7122 C   0  0  0  0  0  0  0  0  0  0  0  0
    2.2152    1.9146    1.3591 H   0  0  0  0  0  0  0  0  0  0  0  0
    1.0041    2.2106    0.1103 H   0  0  0  0  0  0  0  0  0  0  0  0
    0.5029    1.9979    1.7939 H   0  0  0  0  0  0  0  0  0  0  0  0
   -0.2903   -1.4393    0.3776 H   0  0  0  0  0  0  0  0  0  0  0  0
   -1.0319   -0.0575    1.1703 H   0  0  0  0  0  0  0  0  0  0  0  0
   -0.9320    1.2678   -0.9555 H   0  0  0  0  0  0  0  0  0  0  0  0
    0.0069   -0.0372   -1.7133 H   0  0  0  0  0  0  0  0  0  0  0  0
   -1.9726   -1.5991   -1.4717 H   0  0  0  0  0  0  0  0  0  0  0  0
    2.1045   -1.4237   -0.4091 H   0  0  0  0  0  0  0  0  0  0  0  0
    3.1714   -0.0152    0.0262 H   0  0  0  0  0  0  0  0  0  0  0  0
    2.5283   -0.2887    2.4631 H   0  0  0  0  0  0  0  0  0  0  0  0
    1.4632   -1.6966    2.0207 H   0  0  0  0  0  0  0  0  0  0  0  0
  1  9  1  0  0  0  0
  1 11  1  0  0  0  0
  2  1  1  0  0  0  0
  2  8  1  0  0  0  0
  3  2  1  0  0  0  0
  3 13  1  0  0  0  0
  4 14  1  0  0  0  0
  4  3  1  0  0  0  0
  5  4  1  0  0  0  0
  6  5  2  0  0  0  0
  7  2  1  0  0  0  0
  7  8  1  0  0  0  0
  8 20  1  0  0  0  0
  8 19  1  0  0  0  0
 10  1  1  0  0  0  0
 12  3  1  0  0  0  0
 15  4  1  0  0  0  0
 16  5  1  0  0  0  0
 17  7  1  0  0  0  0
 18  7  1  0  0  0  0
M  END
