title
 OpenBabel02282109593D

 19 19  0  0  0  0  0  0  0  0999 V2000
    0.8563    1.6580   -0.4526 C   0  0  0  0  0  0  0  0  0  0  0  0
    1.1495    0.2490    0.0246 C   0  0  0  0  0  0  0  0  0  0  0  0
    0.0209   -0.7487   -0.1744 C   0  0  0  0  0  0  0  0  0  0  0  0
   -1.1636   -0.4186    0.6060 N   0  0  0  0  0  0  0  0  0  0  0  0
   -2.3953   -0.2291    0.0619 C   0  0  0  0  0  0  0  0  0  0  0  0
   -2.6697   -0.3326   -1.1150 O   0  0  0  0  0  0  0  0  0  0  0  0
    2.5539   -0.2798   -0.1226 C   0  0  0  0  0  0  0  0  0  0  0  0
    2.0231    0.0682    1.2483 C   0  0  0  0  0  0  0  0  0  0  0  0
    1.7034    2.3233   -0.2606 H   0  0  0  0  0  0  0  0  0  0  0  0
    0.6528    1.6734   -1.5292 H   0  0  0  0  0  0  0  0  0  0  0  0
   -0.0197    2.0748    0.0553 H   0  0  0  0  0  0  0  0  0  0  0  0
   -0.3046   -0.7722   -1.2179 H   0  0  0  0  0  0  0  0  0  0  0  0
    0.3683   -1.7568    0.0877 H   0  0  0  0  0  0  0  0  0  0  0  0
   -1.0582   -0.2864    1.5997 H   0  0  0  0  0  0  0  0  0  0  0  0
   -3.1450    0.0364    0.8345 H   0  0  0  0  0  0  0  0  0  0  0  0
    2.6892   -1.3288   -0.3648 H   0  0  0  0  0  0  0  0  0  0  0  0
    3.2968    0.3750   -0.5647 H   0  0  0  0  0  0  0  0  0  0  0  0
    2.4097    0.9560    1.7372 H   0  0  0  0  0  0  0  0  0  0  0  0
    1.8055   -0.7507    1.9274 H   0  0  0  0  0  0  0  0  0  0  0  0
  1  9  1  0  0  0  0
  1  2  1  0  0  0  0
  1 11  1  0  0  0  0
  2  8  1  0  0  0  0
  3  2  1  0  0  0  0
  3 13  1  0  0  0  0
  3  4  1  0  0  0  0
  4 14  1  0  0  0  0
  5  4  1  0  0  0  0
  5 15  1  0  0  0  0
  6  5  2  0  0  0  0
  7  2  1  0  0  0  0
  7  8  1  0  0  0  0
  8 18  1  0  0  0  0
  8 19  1  0  0  0  0
 10  1  1  0  0  0  0
 12  3  1  0  0  0  0
 16  7  1  0  0  0  0
 17  7  1  0  0  0  0
M  END
