19
title
C 0.85630864 1.6580302 -0.45260057
C 1.1494921 0.24897851 0.024609374
C 0.020908363 -0.7486869 -0.17437546
N -1.1636448 -0.41859362 0.6059625
C -2.3953094 -0.22911562 0.061880883
O -2.6696813 -0.33255908 -1.115048
C 2.5538697 -0.27976385 -0.122606605
C 2.0230515 0.068189494 1.2482883
H 1.703419 2.3233395 -0.26055384
H 0.65277255 1.6734263 -1.5292432
H -0.019736521 2.0747974 0.05532337
H -0.30460978 -0.77223194 -1.2178507
H 0.36825418 -1.7567737 0.0876908
H -1.0581791 -0.28641698 1.5997175
H -3.1449847 0.03639401 0.8344906
H 2.6892033 -1.3288203 -0.36478722
H 3.296825 0.37501487 -0.5647499
H 2.4096596 0.9560112 1.737248
H 1.8054582 -0.75071585 1.9274237
