title
 OpenBabel02282109593D

 18 18  0  0  1  0  0  0  0  0999 V2000
   -0.3727    1.5883   -1.0148 C   0  0  0  0  0  0  0  0  0  0  0  0
    0.5403    0.3825   -0.9555 C   0  0  1  0  0  0  0  0  0  0  0  0
    0.0008   -0.8184   -0.1946 C   0  0  0  0  0  0  0  0  0  0  0  0
   -0.0374   -0.5642    1.2355 N   0  0  0  0  0  0  0  0  0  0  0  0
   -1.1766   -0.5757    1.9748 C   0  0  0  0  0  0  0  0  0  0  0  0
   -2.2886   -0.8153    1.5515 O   0  0  0  0  0  0  0  0  0  0  0  0
    1.5181    0.1523   -2.0473 C   0  0  0  0  0  0  0  0  0  0  0  0
    1.9848    0.5908   -0.7154 N   0  0  0  0  0  0  0  0  0  0  0  0
    0.1031    2.4163   -1.5502 H   0  0  0  0  0  0  0  0  0  0  0  0
   -1.3098    1.3477   -1.5276 H   0  0  0  0  0  0  0  0  0  0  0  0
   -0.6282    1.9335   -0.0075 H   0  0  0  0  0  0  0  0  0  0  0  0
   -1.0205   -1.0571   -0.4999 H   0  0  0  0  0  0  0  0  0  0  0  0
    0.6349   -1.6891   -0.3953 H   0  0  0  0  0  0  0  0  0  0  0  0
    0.8346   -0.3226    1.6805 H   0  0  0  0  0  0  0  0  0  0  0  0
   -0.9747   -0.3386    3.0387 H   0  0  0  0  0  0  0  0  0  0  0  0
    1.8069   -0.8584   -2.3233 H   0  0  0  0  0  0  0  0  0  0  0  0
    1.5429    0.8664   -2.8663 H   0  0  0  0  0  0  0  0  0  0  0  0
    2.1987    1.5850   -0.7421 H   0  0  0  0  0  0  0  0  0  0  0  0
  1 11  1  0  0  0  0
  2  1  1  6  0  0  0
  2  8  1  0  0  0  0
  2  3  1  0  0  0  0
  3  4  1  0  0  0  0
  4 14  1  0  0  0  0
  4  5  1  0  0  0  0
  5 15  1  0  0  0  0
  6  5  2  0  0  0  0
  7  2  1  0  0  0  0
  7  8  1  0  0  0  0
  9  1  1  0  0  0  0
 10  1  1  0  0  0  0
 12  3  1  0  0  0  0
 13  3  1  0  0  0  0
 16  7  1  0  0  0  0
 17  7  1  0  0  0  0
 18  8  1  0  0  0  0
M  END
