title
 OpenBabel02282109593D

 17 17  0  0  1  0  0  0  0  0999 V2000
    0.0016    1.6697   -0.9590 C   0  0  0  0  0  0  0  0  0  0  0  0
    0.6423    0.3023   -0.9146 C   0  0  1  0  0  0  0  0  0  0  0  0
   -0.1371   -0.7958   -0.2117 C   0  0  0  0  0  0  0  0  0  0  0  0
   -0.2336   -0.5446    1.2160 N   0  0  0  0  0  0  0  0  0  0  0  0
   -1.4158   -0.4021    1.8729 C   0  0  0  0  0  0  0  0  0  0  0  0
   -2.5141   -0.4783    1.3640 O   0  0  0  0  0  0  0  0  0  0  0  0
    1.6553   -0.0792   -1.9080 C   0  0  0  0  0  0  0  0  0  0  0  0
    2.0450    0.2894   -0.5818 O   0  0  0  0  0  0  0  0  0  0  0  0
    0.6861    2.3976   -1.4004 H   0  0  0  0  0  0  0  0  0  0  0  0
   -0.9193    1.6455   -1.5507 H   0  0  0  0  0  0  0  0  0  0  0  0
   -0.2581    2.0068    0.0489 H   0  0  0  0  0  0  0  0  0  0  0  0
   -1.1614   -0.8566   -0.5877 H   0  0  0  0  0  0  0  0  0  0  0  0
    0.3547   -1.7593   -0.3877 H   0  0  0  0  0  0  0  0  0  0  0  0
    0.6267   -0.4417    1.7316 H   0  0  0  0  0  0  0  0  0  0  0  0
   -1.2619   -0.2065    2.9526 H   0  0  0  0  0  0  0  0  0  0  0  0
    1.8013   -1.1279   -2.1648 H   0  0  0  0  0  0  0  0  0  0  0  0
    1.9311    0.6285   -2.6884 H   0  0  0  0  0  0  0  0  0  0  0  0
  1 11  1  0  0  0  0
  2  1  1  6  0  0  0
  2  8  1  0  0  0  0
  2  3  1  0  0  0  0
  3  4  1  0  0  0  0
  4 14  1  0  0  0  0
  4  5  1  0  0  0  0
  5 15  1  0  0  0  0
  6  5  2  0  0  0  0
  7  2  1  0  0  0  0
  7  8  1  0  0  0  0
  9  1  1  0  0  0  0
 10  1  1  0  0  0  0
 12  3  1  0  0  0  0
 13  3  1  0  0  0  0
 16  7  1  0  0  0  0
 17  7  1  0  0  0  0
M  END
