17
title
C 0.89959824 1.633616 -0.99063015
C 0.81511486 0.1322095 -0.84841776
C -0.57312626 -0.4740563 -0.89990383
O -1.4453908 0.10112341 0.070460185
C -1.3228918 -0.35991523 1.337538
N -2.0070043 0.16551606 2.2576153
C 1.9553769 -0.7273925 -1.1976156
O 1.6541526 -0.44282985 0.17041539
H 0.54606575 1.9482092 -1.9784613
H 0.27411172 2.1221359 -0.23884709
H 1.9309092 1.9696561 -0.8629609
H -1.0432044 -0.27296114 -1.8671021
H -0.5069832 -1.5604073 -0.76313263
H -0.6074949 -1.1850365 1.4348907
H -1.8154541 -0.30487618 3.1398435
H 1.7917941 -1.7589195 -1.5088161
H 2.8665154 -0.2705074 -1.5808542
