title
 OpenBabel02282109593D

 17 17  0  0  0  0  0  0  0  0999 V2000
   -1.1021    1.0042   -0.6788 O   0  0  0  0  0  0  0  0  0  0  0  0
   -0.9567   -0.1516    0.0810 C   0  0  0  0  0  0  0  0  0  0  0  0
    0.0857   -1.1313   -0.4368 C   0  0  0  0  0  0  0  0  0  0  0  0
    1.4688   -0.8411   -0.0295 N   0  0  0  0  0  0  0  0  0  0  0  0
    2.1174    0.3221   -0.2419 C   0  0  0  0  0  0  0  0  0  0  0  0
    1.6363    1.3354   -0.7238 O   0  0  0  0  0  0  0  0  0  0  0  0
   -1.2051   -0.0732    1.5704 C   0  0  0  0  0  0  0  0  0  0  0  0
   -2.2376   -0.6899    0.6460 C   0  0  0  0  0  0  0  0  0  0  0  0
   -0.2096    1.3850   -0.7711 H   0  0  0  0  0  0  0  0  0  0  0  0
   -0.1293   -2.1380   -0.0710 H   0  0  0  0  0  0  0  0  0  0  0  0
    0.0214   -1.1479   -1.5314 H   0  0  0  0  0  0  0  0  0  0  0  0
    2.0090   -1.5953    0.3627 H   0  0  0  0  0  0  0  0  0  0  0  0
    3.1746    0.2762    0.0793 H   0  0  0  0  0  0  0  0  0  0  0  0
   -0.6480   -0.7258    2.2351 H   0  0  0  0  0  0  0  0  0  0  0  0
   -1.4172    0.9121    1.9677 H   0  0  0  0  0  0  0  0  0  0  0  0
   -3.1266   -0.1084    0.4314 H   0  0  0  0  0  0  0  0  0  0  0  0
   -2.3927   -1.7631    0.6812 H   0  0  0  0  0  0  0  0  0  0  0  0
  1  2  1  0  0  0  0
  2  8  1  0  0  0  0
  2  7  1  0  0  0  0
  3 10  1  0  0  0  0
  3  4  1  0  0  0  0
  3  2  1  0  0  0  0
  4 12  1  0  0  0  0
  5  4  1  0  0  0  0
  5 13  1  0  0  0  0
  6  5  2  0  0  0  0
  7 15  1  0  0  0  0
  7 14  1  0  0  0  0
  8 17  1  0  0  0  0
  8  7  1  0  0  0  0
  9  1  1  0  0  0  0
 11  3  1  0  0  0  0
 16  8  1  0  0  0  0
M  END
