title
 OpenBabel02282109593D

 16 16  0  0  0  0  0  0  0  0999 V2000
   -0.9674    1.3425   -0.0291 O   0  0  0  0  0  0  0  0  0  0  0  0
   -1.1380   -0.0224    0.2389 C   0  0  0  0  0  0  0  0  0  0  0  0
   -0.1451   -0.8950   -0.4869 C   0  0  0  0  0  0  0  0  0  0  0  0
    1.1891   -0.5632   -0.0734 O   0  0  0  0  0  0  0  0  0  0  0  0
    1.9271    0.2058   -0.8993 C   0  0  0  0  0  0  0  0  0  0  0  0
    3.0056    0.6207   -0.5980 O   0  0  0  0  0  0  0  0  0  0  0  0
   -1.6607   -0.4284    1.5922 C   0  0  0  0  0  0  0  0  0  0  0  0
   -2.5565   -0.4881    0.3711 C   0  0  0  0  0  0  0  0  0  0  0  0
   -0.2396    1.6601    0.5179 H   0  0  0  0  0  0  0  0  0  0  0  0
   -0.2959   -1.9522   -0.2542 H   0  0  0  0  0  0  0  0  0  0  0  0
   -0.2422   -0.7535   -1.5709 H   0  0  0  0  0  0  0  0  0  0  0  0
    1.4301    0.3940   -1.8698 H   0  0  0  0  0  0  0  0  0  0  0  0
   -1.3107   -1.3573    2.0289 H   0  0  0  0  0  0  0  0  0  0  0  0
   -1.8440    0.3697    2.3024 H   0  0  0  0  0  0  0  0  0  0  0  0
   -3.3166    0.2771    0.2699 H   0  0  0  0  0  0  0  0  0  0  0  0
   -2.8276   -1.4590   -0.0296 H   0  0  0  0  0  0  0  0  0  0  0  0
  1  2  1  0  0  0  0
  1  9  1  0  0  0  0
  2  8  1  0  0  0  0
  2  7  1  0  0  0  0
  3 10  1  0  0  0  0
  3  4  1  0  0  0  0
  3  2  1  0  0  0  0
  5  6  2  0  0  0  0
  5  4  1  0  0  0  0
  7 13  1  0  0  0  0
  7 14  1  0  0  0  0
  8  7  1  0  0  0  0
 11  3  1  0  0  0  0
 12  5  1  0  0  0  0
 15  8  1  0  0  0  0
 16  8  1  0  0  0  0
M  END
