title
 OpenBabel02282109593D

 19 19  0  0  0  0  0  0  0  0999 V2000
   -3.2761   -0.4463    0.7785 C   0  0  0  0  0  0  0  0  0  0  0  0
   -2.0384    0.2773    0.9787 N   0  0  0  0  0  0  0  0  0  0  0  0
   -1.0453   -0.0807    0.2954 C   0  0  0  0  0  0  0  0  0  0  0  0
    0.1511    0.5303    0.4501 O   0  0  0  0  0  0  0  0  0  0  0  0
    1.1686    0.1595   -0.4647 C   0  0  0  0  0  0  0  0  0  0  0  0
    1.0298    0.8171   -1.8173 C   0  0  0  0  0  0  0  0  0  0  0  0
    2.5116   -0.0071    0.1735 C   0  0  0  0  0  0  0  0  0  0  0  0
    1.7514   -1.2240   -0.3182 C   0  0  0  0  0  0  0  0  0  0  0  0
   -4.0663    0.2517    0.4787 H   0  0  0  0  0  0  0  0  0  0  0  0
   -3.2139   -1.2437    0.0192 H   0  0  0  0  0  0  0  0  0  0  0  0
   -3.5961   -0.8989    1.7243 H   0  0  0  0  0  0  0  0  0  0  0  0
   -1.0466   -0.8961   -0.4433 H   0  0  0  0  0  0  0  0  0  0  0  0
    0.9994    1.9057   -1.7078 H   0  0  0  0  0  0  0  0  0  0  0  0
    1.8746    0.5577   -2.4612 H   0  0  0  0  0  0  0  0  0  0  0  0
    0.1107    0.5009   -2.3227 H   0  0  0  0  0  0  0  0  0  0  0  0
    3.3844    0.3218   -0.3792 H   0  0  0  0  0  0  0  0  0  0  0  0
    2.5616    0.1466    1.2448 H   0  0  0  0  0  0  0  0  0  0  0  0
    1.3194   -1.8738    0.4341 H   0  0  0  0  0  0  0  0  0  0  0  0
    2.0994   -1.7320   -1.2110 H   0  0  0  0  0  0  0  0  0  0  0  0
  1  2  1  0  0  0  0
  1 11  1  0  0  0  0
  3  4  1  0  0  0  0
  3  2  2  0  0  0  0
  5  8  1  0  0  0  0
  5  7  1  0  0  0  0
  5  4  1  0  0  0  0
  6 13  1  0  0  0  0
  6  5  1  0  0  0  0
  7 17  1  0  0  0  0
  8  7  1  0  0  0  0
  8 18  1  0  0  0  0
  9  1  1  0  0  0  0
 10  1  1  0  0  0  0
 12  3  1  0  0  0  0
 14  6  1  0  0  0  0
 15  6  1  0  0  0  0
 16  7  1  0  0  0  0
 19  8  1  0  0  0  0
M  END
