17
title
C 0.8770479 2.289435 -0.72784936
C 1.068836 0.80592763 -0.46038693
C 1.9425488 0.018968998 -1.3846304
N 2.4074821 0.32653308 -0.027275315
C -0.05081467 0.1533671 0.17519198
C -1.0182904 -0.34614283 0.69239795
C -2.1609569 -1.0191519 1.3079151
O -2.7763383 -1.984993 0.4653
H 1.7473241 2.703409 -1.2478188
H -0.0073330803 2.461682 -1.348531
H 0.74007416 2.836863 0.21005385
H 1.7244266 -1.0288754 -1.565688
H 2.3763201 0.5497774 -2.2288017
H 3.0581114 1.1090882 -0.053578366
H -1.8448871 -1.4659283 2.2642834
H -2.9444036 -0.2906373 1.5448928
H -2.082426 -2.5753996 0.15378128
