title
 OpenBabel02282109593D

 20 20  0  0  0  0  0  0  0  0999 V2000
   -1.0817    2.2062    2.5729 C   0  0  0  0  0  0  0  0  0  0  0  0
   -1.6038    0.8500    2.0638 C   0  0  0  0  0  0  0  0  0  0  0  0
   -0.8421    0.3255    0.9344 C   0  0  0  0  0  0  0  0  0  0  0  0
   -0.1945   -0.0913    0.0062 C   0  0  0  0  0  0  0  0  0  0  0  0
    0.5553   -0.5716   -1.1270 C   0  0  0  0  0  0  0  0  0  0  0  0
    0.1978    0.0734   -2.4583 C   0  0  0  0  0  0  0  0  0  0  0  0
    2.0048   -0.9749   -0.8953 C   0  0  0  0  0  0  0  0  0  0  0  0
    0.9680   -2.0368   -1.1306 C   0  0  0  0  0  0  0  0  0  0  0  0
   -0.0424    2.1232    2.9024 H   0  0  0  0  0  0  0  0  0  0  0  0
   -1.1238    2.9596    1.7815 H   0  0  0  0  0  0  0  0  0  0  0  0
   -1.6845    2.5573    3.4162 H   0  0  0  0  0  0  0  0  0  0  0  0
   -1.5862    0.1211    2.8846 H   0  0  0  0  0  0  0  0  0  0  0  0
   -2.6590    0.9499    1.7775 H   0  0  0  0  0  0  0  0  0  0  0  0
    0.3669    1.1544   -2.4263 H   0  0  0  0  0  0  0  0  0  0  0  0
    0.8077   -0.3434   -3.2660 H   0  0  0  0  0  0  0  0  0  0  0  0
   -0.8554   -0.0958   -2.7041 H   0  0  0  0  0  0  0  0  0  0  0  0
    2.7094   -0.7567   -1.6910 H   0  0  0  0  0  0  0  0  0  0  0  0
    2.4030   -0.8610    0.1058 H   0  0  0  0  0  0  0  0  0  0  0  0
    0.6596   -2.6466   -0.2898 H   0  0  0  0  0  0  0  0  0  0  0  0
    0.9608   -2.5479   -2.0876 H   0  0  0  0  0  0  0  0  0  0  0  0
  1  9  1  0  0  0  0
  1 11  1  0  0  0  0
  2  1  1  0  0  0  0
  2 12  1  0  0  0  0
  3  2  1  0  0  0  0
  4  3  3  0  0  0  0
  5  7  1  0  0  0  0
  5  4  1  0  0  0  0
  6 14  1  0  0  0  0
  6  5  1  0  0  0  0
  7 18  1  0  0  0  0
  8  5  1  0  0  0  0
  8  7  1  0  0  0  0
  8 19  1  0  0  0  0
 10  1  1  0  0  0  0
 13  2  1  0  0  0  0
 15  6  1  0  0  0  0
 16  6  1  0  0  0  0
 17  7  1  0  0  0  0
 20  8  1  0  0  0  0
M  END
