19
title
C -1.9348363 2.0591738 -2.1703894
C -0.82512915 1.0225247 -2.4251986
C -0.27835777 0.4493247 -1.1995817
C 0.15125224 -0.008842317 -0.16968772
C 0.71017754 -0.56548864 1.0381935
C 2.1467288 -0.18263426 1.3407474
C -0.2329916 -0.8697018 2.1588395
N 0.35689697 -1.968567 1.3834989
H -1.5580395 2.8915234 -1.569924
H -2.3093023 2.4582798 -3.1178198
H -2.7723184 1.6075087 -1.631682
H -1.2151265 0.2170457 -3.0610921
H -0.01326516 1.488284 -2.9985871
H 2.2395413 0.89978117 1.472373
H 2.4810297 -0.68245536 2.2531812
H 2.8054492 -0.4852763 0.5212677
H 0.124240845 -0.78892845 3.1823366
H -1.2822065 -0.62810606 2.0181768
H -0.3236995 -2.3144636 0.71148235
