18
title
C -0.9477081 2.2075732 2.660413
C -1.594041 0.9369291 2.0787718
C -0.8542918 0.37065718 0.9559572
C -0.23125532 -0.09362324 0.033558637
C 0.5011172 -0.6042485 -1.0971491
O -0.0052064927 -0.24635507 -2.3594012
C 2.0067735 -0.7887714 -0.9832449
C 1.0941302 -1.9880304 -1.0571029
H 0.06365034 1.9991572 3.019938
H -0.8799345 2.9915257 1.9011645
H -1.5398421 2.5888538 3.4978108
H -1.6882573 0.17929773 2.8676572
H -2.619653 1.160503 1.7576494
H -0.0064509185 0.71640307 -2.405624
H 2.5779254 -0.5407835 -1.8707376
H 2.481692 -0.5522101 -0.038356036
H 0.9370731 -2.5807536 -0.16441748
H 1.057607 -2.5342557 -1.9925547
