title
 OpenBabel02282109593D

 16 16  0  0  0  0  0  0  0  0999 V2000
    2.7917    1.9274   -0.6998 O   0  0  0  0  0  0  0  0  0  0  0  0
    2.5338    0.9817    0.3302 C   0  0  0  0  0  0  0  0  0  0  0  0
    1.1997    0.3895    0.2706 C   0  0  0  0  0  0  0  0  0  0  0  0
    0.0857   -0.0709    0.2146 C   0  0  0  0  0  0  0  0  0  0  0  0
   -1.2547   -0.5910    0.1557 C   0  0  0  0  0  0  0  0  0  0  0  0
   -2.1430   -0.1049    1.1299 O   0  0  0  0  0  0  0  0  0  0  0  0
   -1.8415   -0.9589   -1.1999 C   0  0  0  0  0  0  0  0  0  0  0  0
   -1.4865   -2.0356   -0.2074 C   0  0  0  0  0  0  0  0  0  0  0  0
    2.0661    2.5602   -0.6964 H   0  0  0  0  0  0  0  0  0  0  0  0
    3.2961    0.2031    0.2140 H   0  0  0  0  0  0  0  0  0  0  0  0
    2.6856    1.4239    1.3282 H   0  0  0  0  0  0  0  0  0  0  0  0
   -2.2181    0.8480    1.0055 H   0  0  0  0  0  0  0  0  0  0  0  0
   -2.8922   -0.7262   -1.3308 H   0  0  0  0  0  0  0  0  0  0  0  0
   -1.2192   -0.8327   -2.0779 H   0  0  0  0  0  0  0  0  0  0  0  0
   -0.6190   -2.6554   -0.3968 H   0  0  0  0  0  0  0  0  0  0  0  0
   -2.2988   -2.5173    0.3243 H   0  0  0  0  0  0  0  0  0  0  0  0
  1  9  1  0  0  0  0
  1  2  1  0  0  0  0
  2 11  1  0  0  0  0
  3  2  1  0  0  0  0
  4  3  3  0  0  0  0
  5  4  1  0  0  0  0
  5  6  1  0  0  0  0
  7  8  1  0  0  0  0
  7  5  1  0  0  0  0
  8  5  1  0  0  0  0
  8 16  1  0  0  0  0
 10  2  1  0  0  0  0
 12  6  1  0  0  0  0
 13  7  1  0  0  0  0
 14  7  1  0  0  0  0
 15  8  1  0  0  0  0
M  END
