20
title
C 0.9555151 1.7969751 0.86083585
C 1.0070049 0.3030675 0.626141
C 2.290528 -0.35685462 0.18324536
C 1.7488208 -0.5794195 1.5831022
O -0.18733187 -0.26847982 0.15407428
C -0.5290256 0.033613294 -1.192923
C -1.8403747 -0.6865789 -1.4660267
O -2.858091 -0.2553558 -0.584528
H 1.8867542 2.1445887 1.3165756
H 0.81712335 2.3539217 -0.07163627
H 0.1292672 2.0487053 1.5339855
H 2.2108538 -1.1847322 -0.5122101
H 3.1753592 0.25769538 0.05667531
H 2.2598372 -0.117124945 2.4205463
H 1.3059759 -1.5458792 1.79329
H -0.6678341 1.115321 -1.3285773
H 0.2586916 -0.30582833 -1.8822283
H -2.1776485 -0.46808177 -2.4846923
H -1.6747093 -1.7733266 -1.3894877
H -2.469959 -0.29748803 0.29755244
