22
title
C 1.0679488 1.633606 1.2969836
C 1.0036933 0.14046474 1.0318383
C -0.33609593 -0.38489282 0.5343317
C -0.7550204 0.15616125 -0.838796
C -2.0625596 -0.44736037 -1.3335963
O -2.3633926 0.1288857 -2.596436
C 2.2533836 -0.5352912 0.5169721
C 1.8047597 -0.75870997 1.9432503
H 2.0480168 1.9199684 1.6912888
H 0.89800006 2.2171328 0.38578993
H 0.31268203 1.9370792 2.0322285
H -0.2891066 -1.4809484 0.48724964
H -1.1133761 -0.14575763 1.2746584
H -0.87455404 1.2448814 -0.80630434
H 0.028213905 -0.051135354 -1.5776728
H -1.9619479 -1.5429822 -1.409813
H -2.8647833 -0.24683444 -0.6037835
H -3.1881459 -0.25186566 -2.9115486
H 2.143174 -1.3553575 -0.18546079
H 3.135359 0.073548906 0.3475539
H 2.3825896 -0.2985944 2.7382386
H 1.3933482 -1.7290738 2.2021778
