20
title
C 1.5460138 1.631755 -0.69186133
C 1.328695 0.14204976 -0.5318598
C -0.091280706 -0.37408838 -0.69415015
C -1.0608672 0.16124283 0.36733758
C -2.4458857 -0.46207723 0.25651675
O -3.2700825 0.12386277 1.2524947
C 2.453169 -0.77593666 -0.77037054
O 2.048872 -0.45205626 0.5622502
H 2.6018598 1.8803672 -0.5608031
H 1.2295239 1.9665458 -1.6858531
H 0.97251457 2.1950872 0.050453417
H -0.4524889 -0.11342468 -1.6984208
H -0.06486536 -1.4687573 -0.6414704
H -0.65920925 -0.04286038 1.3659254
H -1.1703924 1.248225 0.28290504
H -2.854447 -0.28523758 -0.7529358
H -2.3733826 -1.5541782 0.38933557
H -4.1392474 -0.28419527 1.2024251
H 2.2596564 -1.8020984 -1.0821321
H 3.4212897 -0.3784894 -1.0745348
