title
 OpenBabel02282109593D

 20 20  0  0  1  0  0  0  0  0999 V2000
    1.5460    1.6318   -0.6919 C   0  0  0  0  0  0  0  0  0  0  0  0
    1.3287    0.1420   -0.5319 C   0  0  1  0  0  0  0  0  0  0  0  0
   -0.0913   -0.3741   -0.6942 C   0  0  0  0  0  0  0  0  0  0  0  0
   -1.0609    0.1612    0.3673 C   0  0  0  0  0  0  0  0  0  0  0  0
   -2.4459   -0.4621    0.2565 C   0  0  0  0  0  0  0  0  0  0  0  0
   -3.2701    0.1239    1.2525 O   0  0  0  0  0  0  0  0  0  0  0  0
    2.4532   -0.7759   -0.7704 C   0  0  0  0  0  0  0  0  0  0  0  0
    2.0489   -0.4521    0.5623 O   0  0  0  0  0  0  0  0  0  0  0  0
    2.6019    1.8804   -0.5608 H   0  0  0  0  0  0  0  0  0  0  0  0
    1.2295    1.9665   -1.6859 H   0  0  0  0  0  0  0  0  0  0  0  0
    0.9725    2.1951    0.0505 H   0  0  0  0  0  0  0  0  0  0  0  0
   -0.4525   -0.1134   -1.6984 H   0  0  0  0  0  0  0  0  0  0  0  0
   -0.0649   -1.4688   -0.6415 H   0  0  0  0  0  0  0  0  0  0  0  0
   -0.6592   -0.0429    1.3659 H   0  0  0  0  0  0  0  0  0  0  0  0
   -1.1704    1.2482    0.2829 H   0  0  0  0  0  0  0  0  0  0  0  0
   -2.8544   -0.2852   -0.7529 H   0  0  0  0  0  0  0  0  0  0  0  0
   -2.3734   -1.5542    0.3893 H   0  0  0  0  0  0  0  0  0  0  0  0
   -4.1392   -0.2842    1.2024 H   0  0  0  0  0  0  0  0  0  0  0  0
    2.2597   -1.8021   -1.0821 H   0  0  0  0  0  0  0  0  0  0  0  0
    3.4213   -0.3785   -1.0745 H   0  0  0  0  0  0  0  0  0  0  0  0
  1  9  1  0  0  0  0
  1  2  1  0  0  0  0
  1 11  1  0  0  0  0
  2  3  1  6  0  0  0
  2  8  1  0  0  0  0
  3 13  1  0  0  0  0
  3  4  1  0  0  0  0
  4 14  1  0  0  0  0
  5  4  1  0  0  0  0
  5 17  1  0  0  0  0
  5  6  1  0  0  0  0
  7  2  1  0  0  0  0
  7  8  1  0  0  0  0
 10  1  1  0  0  0  0
 12  3  1  0  0  0  0
 15  4  1  0  0  0  0
 16  5  1  0  0  0  0
 18  6  1  0  0  0  0
 19  7  1  0  0  0  0
 20  7  1  0  0  0  0
M  END
