title
 OpenBabel02282109593D

 24 24  0  0  0  0  0  0  0  0999 V2000
    2.1123    3.0619   -0.2154 C   0  0  0  0  0  0  0  0  0  0  0  0
    2.0011    1.5717    0.1177 C   0  0  0  0  0  0  0  0  0  0  0  0
    0.5731    1.0296   -0.0093 C   0  0  0  0  0  0  0  0  0  0  0  0
    0.4626   -0.4641    0.3268 C   0  0  0  0  0  0  0  0  0  0  0  0
   -0.9290   -1.0551    0.1453 C   0  0  0  0  0  0  0  0  0  0  0  0
   -2.0049   -0.5023    1.0626 C   0  0  0  0  0  0  0  0  0  0  0  0
   -1.3398   -1.4602   -1.2517 C   0  0  0  0  0  0  0  0  0  0  0  0
   -1.0193   -2.5178   -0.2202 C   0  0  0  0  0  0  0  0  0  0  0  0
    3.1425    3.4190   -0.1184 H   0  0  0  0  0  0  0  0  0  0  0  0
    1.7852    3.2634   -1.2416 H   0  0  0  0  0  0  0  0  0  0  0  0
    1.4870    3.6646    0.4530 H   0  0  0  0  0  0  0  0  0  0  0  0
    2.6660    0.9980   -0.5418 H   0  0  0  0  0  0  0  0  0  0  0  0
    2.3657    1.3963    1.1388 H   0  0  0  0  0  0  0  0  0  0  0  0
   -0.0881    1.6104    0.6469 H   0  0  0  0  0  0  0  0  0  0  0  0
    0.2086    1.1969   -1.0321 H   0  0  0  0  0  0  0  0  0  0  0  0
    1.1680   -1.0205   -0.3046 H   0  0  0  0  0  0  0  0  0  0  0  0
    0.7914   -0.6272    1.3635 H   0  0  0  0  0  0  0  0  0  0  0  0
   -2.1710    0.5679    0.8982 H   0  0  0  0  0  0  0  0  0  0  0  0
   -2.9603   -1.0106    0.8984 H   0  0  0  0  0  0  0  0  0  0  0  0
   -1.7333   -0.6385    2.1165 H   0  0  0  0  0  0  0  0  0  0  0  0
   -2.3766   -1.3277   -1.5429 H   0  0  0  0  0  0  0  0  0  0  0  0
   -0.6323   -1.3080   -2.0607 H   0  0  0  0  0  0  0  0  0  0  0  0
   -0.0969   -3.0781   -0.3343 H   0  0  0  0  0  0  0  0  0  0  0  0
   -1.8406   -3.0984    0.1874 H   0  0  0  0  0  0  0  0  0  0  0  0
  1  9  1  0  0  0  0
  1  2  1  0  0  0  0
  1 11  1  0  0  0  0
  2 13  1  0  0  0  0
  3  2  1  0  0  0  0
  3  4  1  0  0  0  0
  3 14  1  0  0  0  0
  4 17  1  0  0  0  0
  5  4  1  0  0  0  0
  5  6  1  0  0  0  0
  6 20  1  0  0  0  0
  7  8  1  0  0  0  0
  7  5  1  0  0  0  0
  8  5  1  0  0  0  0
  8 24  1  0  0  0  0
 10  1  1  0  0  0  0
 12  2  1  0  0  0  0
 15  3  1  0  0  0  0
 16  4  1  0  0  0  0
 18  6  1  0  0  0  0
 19  6  1  0  0  0  0
 21  7  1  0  0  0  0
 22  7  1  0  0  0  0
 23  8  1  0  0  0  0
M  END
