title
 OpenBabel02282109593D

 22 22  0  0  0  0  0  0  0  0999 V2000
   -1.2602    3.0863   -1.7058 C   0  0  0  0  0  0  0  0  0  0  0  0
   -0.9635    1.5865   -1.7854 C   0  0  0  0  0  0  0  0  0  0  0  0
   -0.3494    1.0236   -0.4993 C   0  0  0  0  0  0  0  0  0  0  0  0
   -0.0396   -0.4770   -0.5788 C   0  0  0  0  0  0  0  0  0  0  0  0
    0.5619   -1.0414    0.6944 C   0  0  0  0  0  0  0  0  0  0  0  0
    1.8091   -0.4924    1.0475 O   0  0  0  0  0  0  0  0  0  0  0  0
   -0.3364   -1.4854    1.8248 C   0  0  0  0  0  0  0  0  0  0  0  0
    0.4385   -2.5005    1.0030 C   0  0  0  0  0  0  0  0  0  0  0  0
   -0.3467    3.6609   -1.5160 H   0  0  0  0  0  0  0  0  0  0  0  0
   -1.6986    3.4576   -2.6374 H   0  0  0  0  0  0  0  0  0  0  0  0
   -1.9635    3.3087   -0.8954 H   0  0  0  0  0  0  0  0  0  0  0  0
   -1.8891    1.0407   -2.0120 H   0  0  0  0  0  0  0  0  0  0  0  0
   -0.2842    1.3904   -2.6253 H   0  0  0  0  0  0  0  0  0  0  0  0
    0.5763    1.5735   -0.2788 H   0  0  0  0  0  0  0  0  0  0  0  0
   -1.0300    1.2117    0.3428 H   0  0  0  0  0  0  0  0  0  0  0  0
   -0.9594   -1.0282   -0.8113 H   0  0  0  0  0  0  0  0  0  0  0  0
    0.6579   -0.6625   -1.4062 H   0  0  0  0  0  0  0  0  0  0  0  0
    1.6555    0.3992    1.3777 H   0  0  0  0  0  0  0  0  0  0  0  0
    0.0113   -1.3008    2.8352 H   0  0  0  0  0  0  0  0  0  0  0  0
   -1.4118   -1.4251    1.6941 H   0  0  0  0  0  0  0  0  0  0  0  0
   -0.1068   -3.1326    0.3105 H   0  0  0  0  0  0  0  0  0  0  0  0
    1.2950   -2.9684    1.4739 H   0  0  0  0  0  0  0  0  0  0  0  0
  1  9  1  0  0  0  0
  1 11  1  0  0  0  0
  2  1  1  0  0  0  0
  2  3  1  0  0  0  0
  3 14  1  0  0  0  0
  3 15  1  0  0  0  0
  4  3  1  0  0  0  0
  4  5  1  0  0  0  0
  5  8  1  0  0  0  0
  5  6  1  0  0  0  0
  5  7  1  0  0  0  0
  6 18  1  0  0  0  0
  7 19  1  0  0  0  0
  8 22  1  0  0  0  0
  8  7  1  0  0  0  0
 10  1  1  0  0  0  0
 12  2  1  0  0  0  0
 13  2  1  0  0  0  0
 16  4  1  0  0  0  0
 17  4  1  0  0  0  0
 20  7  1  0  0  0  0
 21  8  1  0  0  0  0
M  END
