22
title
C -1.260195 3.0863101 -1.705799
C -0.9635294 1.5865142 -1.7854426
C -0.34935576 1.0236121 -0.4992886
C -0.039640427 -0.47700533 -0.578822
C 0.56192476 -1.0414311 0.69442606
O 1.809101 -0.49235138 1.0474885
C -0.33637804 -1.4853641 1.8248212
C 0.43847805 -2.5004885 1.0029633
H -0.3466599 3.6609454 -1.5160141
H -1.6985549 3.457552 -2.63743
H -1.9634669 3.3087077 -0.8953668
H -1.889118 1.0407355 -2.0119991
H -0.28416222 1.39036 -2.6253247
H 0.57626206 1.5734795 -0.27879277
H -1.0299926 1.211737 0.3427932
H -0.9594147 -1.0282313 -0.8113389
H 0.6579074 -0.6624709 -1.4062331
H 1.6555008 0.39919046 1.3776684
H 0.01131016 -1.3007964 2.8352153
H -1.4118475 -1.4251474 1.6940541
H -0.10684639 -3.1325939 0.3104994
H 1.2950119 -2.9684217 1.4739053
