22
title
C -0.81473994 2.768696 1.8792746
C -1.101774 1.2923862 1.6622165
O -0.29960084 0.82820195 0.5976933
C -0.4926589 -0.5415276 0.30589247
C 0.3464676 -0.91796863 -0.89215827
C -0.008332142 -0.18243098 -2.1695378
C 1.790075 -1.2761158 -0.6374414
C 0.79321706 -2.3577805 -0.98015165
H 0.24024044 2.9221573 2.123542
H -1.0426099 3.3401818 0.97493887
H -1.4226986 3.1599889 2.7005389
H -0.88665575 0.7183183 2.5803208
H -2.1699708 1.1355861 1.4322627
H -0.21537884 -1.160613 1.1764263
H -1.5605186 -0.73525465 0.098038554
H 0.077854745 0.8984885 -2.0262733
H 0.6533327 -0.47422147 -2.9908845
H -1.0386008 -0.3999915 -2.476693
H 2.5223672 -0.9988116 -1.3880708
H 2.158126 -1.2232996 0.3815484
H 0.4916427 -3.0433443 -0.194633
H 0.84428155 -2.8099701 -1.9649496
