20
title
C -1.1053293 2.7775922 1.7325187
C -0.9108426 1.2733322 1.8153324
O -0.30466893 0.8309949 0.6178947
C -0.06883721 -0.5579187 0.5902501
C 0.5907796 -0.9211412 -0.72166187
C 1.8111169 -0.11459691 -1.1015942
C 0.40750965 -2.287792 -1.2299216
O -0.32094082 -1.1984702 -1.7962923
H -0.14362709 3.2823386 1.6035808
H -1.7437978 3.034561 0.8827271
H -1.5748538 3.1522052 2.6469603
H -0.27787384 1.0102342 2.6805608
H -1.8789442 0.7646574 1.9602218
H 0.5883333 -0.8527487 1.4284861
H -1.0110226 -1.1195544 0.68967766
H 2.603447 -0.23513801 -0.3545676
H 2.1927505 -0.43654698 -2.0732348
H 1.5565145 0.9465208 -1.1532524
H 1.174623 -2.7257905 -1.8677356
H -0.1875364 -3.0075765 -0.6674629
