title
 OpenBabel02282109593D

 20 20  0  0  0  0  0  0  0  0999 V2000
   -0.8401    2.8383    1.7567 C   0  0  0  0  0  0  0  0  0  0  0  0
   -1.0872    1.3426    1.6589 C   0  0  0  0  0  0  0  0  0  0  0  0
   -0.2731    0.8159    0.6295 O   0  0  0  0  0  0  0  0  0  0  0  0
   -0.4403   -0.5764    0.4237 C   0  0  0  0  0  0  0  0  0  0  0  0
    0.3443   -0.9356   -0.8106 C   0  0  0  0  0  0  0  0  0  0  0  0
   -0.0643   -0.2174   -1.9413 O   0  0  0  0  0  0  0  0  0  0  0  0
    1.8028   -1.3091   -0.6955 C   0  0  0  0  0  0  0  0  0  0  0  0
    0.7583   -2.3486   -1.0617 C   0  0  0  0  0  0  0  0  0  0  0  0
    0.2112    3.0401    1.9807 H   0  0  0  0  0  0  0  0  0  0  0  0
   -1.0905    3.3319    0.8132 H   0  0  0  0  0  0  0  0  0  0  0  0
   -1.4545    3.2751    2.5496 H   0  0  0  0  0  0  0  0  0  0  0  0
   -0.8510    0.8484    2.6161 H   0  0  0  0  0  0  0  0  0  0  0  0
   -2.1493    1.1368    1.4445 H   0  0  0  0  0  0  0  0  0  0  0  0
   -0.0884   -1.1490    1.2966 H   0  0  0  0  0  0  0  0  0  0  0  0
   -1.5072   -0.8087    0.2708 H   0  0  0  0  0  0  0  0  0  0  0  0
   -0.0566    0.7102   -1.6734 H   0  0  0  0  0  0  0  0  0  0  0  0
    2.4534   -0.9615   -1.4893 H   0  0  0  0  0  0  0  0  0  0  0  0
    2.2579   -1.3540    0.2882 H   0  0  0  0  0  0  0  0  0  0  0  0
    0.4987   -3.1084   -0.3322 H   0  0  0  0  0  0  0  0  0  0  0  0
    0.7224   -2.6780   -2.0937 H   0  0  0  0  0  0  0  0  0  0  0  0
  1  9  1  0  0  0  0
  1 11  1  0  0  0  0
  2  1  1  0  0  0  0
  2 12  1  0  0  0  0
  3  2  1  0  0  0  0
  4  3  1  0  0  0  0
  4 14  1  0  0  0  0
  5  7  1  0  0  0  0
  5  4  1  0  0  0  0
  6 16  1  0  0  0  0
  6  5  1  0  0  0  0
  7 18  1  0  0  0  0
  8  5  1  0  0  0  0
  8  7  1  0  0  0  0
  8 19  1  0  0  0  0
 10  1  1  0  0  0  0
 13  2  1  0  0  0  0
 15  4  1  0  0  0  0
 17  7  1  0  0  0  0
 20  8  1  0  0  0  0
M  END
