22
title
C 1.8546901 2.9683335 -0.17770328
O 1.7631758 1.5997734 0.12961316
C 0.4563918 1.0873855 -0.025870565
C 0.47738338 -0.39329 0.3429928
C -0.8536062 -1.1005385 0.13797525
C -1.9953756 -0.6310053 1.0224212
C -1.1933587 -1.5617929 -1.261743
C -0.8068254 -2.5705266 -0.20531541
H 2.8946307 3.2703717 -0.029539257
H 1.5709525 3.1745784 -1.2225829
H 1.2114031 3.580147 0.4755558
H -0.24679935 1.6455071 0.615023
H 0.11321176 1.2161205 -1.0671475
H 1.2510879 -0.8765161 -0.26446205
H 0.79699534 -0.48863265 1.3887565
H -2.257786 0.41577724 0.8329828
H -2.8959346 -1.2289951 0.85091317
H -1.7342312 -0.72063184 2.0837998
H -2.230532 -1.524818 -1.5783148
H -0.4823122 -1.3607421 -2.0565667
H 0.16327631 -3.0494819 -0.2877818
H -1.5844927 -3.2127495 0.19495173
