20
title
O 1.9203043 2.9544883 -0.19790196
C 1.9814517 1.5640968 0.08312408
C 0.57409436 0.99746835 -0.043625016
C 0.50451916 -0.5043397 0.25745544
C -0.89540726 -1.0751162 0.12654918
O -1.8336164 -0.53530097 1.0249126
C -1.409485 -1.51529 -1.2233983
C -1.0889999 -2.5341039 -0.14365761
H 2.80582 3.318609 -0.109665
H 2.6556094 1.0448598 -0.6182946
H 2.3660486 1.378518 1.0995003
H -0.07491859 1.5498711 0.64687234
H 0.20688406 1.1978436 -1.0576339
H 1.1736887 -1.049263 -0.42013875
H 0.86262065 -0.6936414 1.2779384
H -2.0472815 0.3561801 0.72934014
H -2.4573295 -1.3352115 -1.4362953
H -0.7510348 -1.4463887 -2.08304
H -0.2117146 -3.1603284 -0.26488954
H -1.9265317 -3.009684 0.35303473
