16
title
C -0.47397092 1.697998 -0.19003162
C -0.44139943 0.17819628 -0.19582112
C -1.6115574 -0.47654748 -0.7110301
C -2.5815916 -1.0370682 -1.1514229
C 0.9044632 -0.5460405 -0.4455785
O 2.0642643 0.19769154 -0.6037273
C 0.28105757 -0.5704408 0.9217232
O 0.91083646 0.23820192 1.8839083
H 0.505792 2.111765 0.049296603
H -0.76543605 2.0639198 -1.1780678
H -1.1965668 2.0696554 0.5417577
H -3.441748 -1.5222564 -1.5408632
H 0.88199615 -1.430915 -1.0727911
H 2.2609653 0.57804894 0.26455608
H -0.18568513 -1.4741265 1.3046688
H 1.4649839 -0.33134502 2.428872
