title
 OpenBabel02282109593D

 17 17  0  0  1  0  0  0  0  0999 V2000
   -0.5224    1.6856   -0.1638 C   0  0  0  0  0  0  0  0  0  0  0  0
   -0.4057    0.1698   -0.1716 C   0  0  1  0  0  0  0  0  0  0  0  0
   -1.5592   -0.5203   -0.6870 C   0  0  0  0  0  0  0  0  0  0  0  0
   -2.4836   -1.0815   -1.1011 N   0  0  0  0  0  0  0  0  0  0  0  0
    0.9429   -0.5300   -0.4403 C   0  0  1  0  0  0  0  0  0  0  0  0
    2.0872    0.3196   -0.6316 N   0  0  0  0  0  0  0  0  0  0  0  0
    0.3533   -0.5467    0.9507 C   0  0  1  0  0  0  0  0  0  0  0  0
    0.9039    0.2398    2.0197 N   0  0  0  0  0  0  0  0  0  0  0  0
    0.4246    2.1441    0.1188 H   0  0  0  0  0  0  0  0  0  0  0  0
   -0.8044    2.0563   -1.1536 H   0  0  0  0  0  0  0  0  0  0  0  0
   -1.2864    2.0021    0.5513 H   0  0  0  0  0  0  0  0  0  0  0  0
    0.8703   -1.4500   -1.0211 H   0  0  0  0  0  0  0  0  0  0  0  0
    2.9417   -0.2057   -0.4732 H   0  0  0  0  0  0  0  0  0  0  0  0
    2.1269    0.6746   -1.5816 H   0  0  0  0  0  0  0  0  0  0  0  0
   -0.0885   -1.4796    1.2828 H   0  0  0  0  0  0  0  0  0  0  0  0
    1.2914   -0.3723    2.7291 H   0  0  0  0  0  0  0  0  0  0  0  0
    1.6658    0.8085    1.6598 H   0  0  0  0  0  0  0  0  0  0  0  0
  1  9  1  0  0  0  0
  1 11  1  0  0  0  0
  2  1  1  0  0  0  0
  2  7  1  1  0  0  0
  3  2  1  0  0  0  0
  4  3  3  0  0  0  0
  5  2  1  6  0  0  0
  6 13  1  0  0  0  0
  6  5  1  0  0  0  0
  7  5  1  6  0  0  0
  7 15  1  0  0  0  0
  7  8  1  0  0  0  0
  8 16  1  0  0  0  0
 10  1  1  0  0  0  0
 12  5  1  0  0  0  0
 14  6  1  0  0  0  0
 17  8  1  0  0  0  0
M  END
