17
title
C -0.52241176 1.6855892 -0.16378705
C -0.40571782 0.16977486 -0.17159677
C -1.5592284 -0.5202909 -0.686966
N -2.4835606 -1.0815407 -1.1010574
C 0.94291604 -0.5300236 -0.44033355
N 2.0872035 0.31955594 -0.63159543
C 0.35326487 -0.54671264 0.9507365
N 0.9038664 0.23979475 2.0196514
H 0.4245798 2.1440887 0.11879298
H -0.80444926 2.0562818 -1.1536385
H -1.286354 2.0020607 0.55128187
H 0.8702823 -1.450037 -1.0211114
H 2.9417362 -0.20567444 -0.47324613
H 2.1268528 0.67463374 -1.5816216
H -0.08851409 -1.4795973 1.2827921
H 1.2914362 -0.37229684 2.7290554
H 1.6658444 0.8085492 1.659802
