title
 OpenBabel02282109593D

 16 16  0  0  1  0  0  0  0  0999 V2000
   -0.4544    1.6988    0.2684 C   0  0  0  0  0  0  0  0  0  0  0  0
   -0.4123    0.1811    0.2023 C   0  0  1  0  0  0  0  0  0  0  0  0
   -1.5682   -0.4900    0.7334 C   0  0  0  0  0  0  0  0  0  0  0  0
   -2.4921   -1.0390    1.1644 N   0  0  0  0  0  0  0  0  0  0  0  0
    0.2665   -0.5540   -0.9669 C   0  0  1  0  0  0  0  0  0  0  0  0
    0.9321    0.2645   -1.9506 N   0  0  0  0  0  0  0  0  0  0  0  0
    0.9354   -0.5558    0.3810 C   0  0  1  0  0  0  0  0  0  0  0  0
    2.0859    0.1892    0.5301 O   0  0  0  0  0  0  0  0  0  0  0  0
    0.5396    2.1156    0.1063 H   0  0  0  0  0  0  0  0  0  0  0  0
   -1.1413    2.1163   -0.4744 H   0  0  0  0  0  0  0  0  0  0  0  0
   -0.7954    2.0169    1.2569 H   0  0  0  0  0  0  0  0  0  0  0  0
   -0.2295   -1.4652   -1.2958 H   0  0  0  0  0  0  0  0  0  0  0  0
    1.4475   -0.3193   -2.6013 H   0  0  0  0  0  0  0  0  0  0  0  0
    0.2732    0.8134   -2.4928 H   0  0  0  0  0  0  0  0  0  0  0  0
    0.9281   -1.4579    0.9829 H   0  0  0  0  0  0  0  0  0  0  0  0
    2.2402    0.6007   -0.3377 H   0  0  0  0  0  0  0  0  0  0  0  0
  1 11  1  0  0  0  0
  2  5  1  6  0  0  0
  2  1  1  0  0  0  0
  2  3  1  0  0  0  0
  3  4  3  0  0  0  0
  5  7  1  1  0  0  0
  6  5  1  0  0  0  0
  7  2  1  1  0  0  0
  7  8  1  0  0  0  0
  7 15  1  0  0  0  0
  9  1  1  0  0  0  0
 10  1  1  0  0  0  0
 12  5  1  0  0  0  0
 13  6  1  0  0  0  0
 14  6  1  0  0  0  0
 16  8  1  0  0  0  0
M  END
