15
title
C -0.4791032 1.6998922 -0.19431797
C -0.42601314 0.18134446 -0.19285247
C -1.5873537 -0.48679158 -0.7151916
N -2.511037 -1.0404924 -1.140308
C 0.9277642 -0.5427513 -0.4311187
O 2.0721734 0.21527193 -0.58969694
C 0.29238173 -0.56746274 0.92814946
O 0.8954953 0.25428614 1.8906628
H 0.5097826 2.1171415 -0.0049539814
H -0.81708753 2.0587149 -1.1696082
H -1.1672987 2.0700648 0.5699073
H 0.91132677 -1.4283702 -1.0574114
H 2.2791886 0.5844087 0.28131402
H -0.17019282 -1.4754395 1.3055577
H 1.4049215 -0.3076507 2.4846969
