19
title
C -0.65064937 1.1259141 -1.9696777
C -0.4383617 -0.08119361 -1.0820407
C 0.9032157 -0.50697887 -0.54485416
C 2.1989202 0.22142917 -0.82888305
C -0.15158182 0.051934674 0.41970983
C 0.008269606 1.4073203 1.0945895
C -0.7990879 -0.9247465 1.2618563
N -1.3183106 -1.7049373 1.9415718
H 0.03242013 1.9485412 -1.7489499
H -0.50125545 0.84988576 -3.0190375
H -1.6725454 1.506239 -1.870238
H -1.1051177 -0.90468276 -1.3223231
H 1.0319583 -1.582952 -0.46651962
H 2.072533 1.300887 -0.9328958
H 2.9258974 0.047136895 -0.028926078
H 2.6390035 -0.14727813 -1.7616521
H 0.4997322 2.1304266 0.4434196
H -0.96803737 1.8143474 1.3738283
H 0.60602814 1.3139131 2.006058
