title
 OpenBabel02282109593D

 18 18  0  0  1  0  0  0  0  0999 V2000
   -1.1528    2.0309    0.2217 C   0  0  0  0  0  0  0  0  0  0  0  0
   -1.0590    0.5282    0.0757 C   0  0  1  0  0  0  0  0  0  0  0  0
   -0.4131   -0.1514   -1.1011 C   0  0  1  0  0  0  0  0  0  0  0  0
    0.2083    0.5986   -2.2585 C   0  0  0  0  0  0  0  0  0  0  0  0
    0.2792   -0.1959    0.2664 C   0  0  1  0  0  0  0  0  0  0  0  0
    1.4577    0.6149    0.4447 N   0  0  0  0  0  0  0  0  0  0  0  0
    0.2495   -1.4565    0.9781 C   0  0  0  0  0  0  0  0  0  0  0  0
    0.2599   -2.4569    1.5615 N   0  0  0  0  0  0  0  0  0  0  0  0
   -0.2296    2.5279   -0.0781 H   0  0  0  0  0  0  0  0  0  0  0  0
   -1.9720    2.4215   -0.3914 H   0  0  0  0  0  0  0  0  0  0  0  0
   -1.3601    2.3049    1.2616 H   0  0  0  0  0  0  0  0  0  0  0  0
   -1.9047   -0.0090    0.4954 H   0  0  0  0  0  0  0  0  0  0  0  0
   -0.8737   -1.0939   -1.3832 H   0  0  0  0  0  0  0  0  0  0  0  0
    0.7827    1.4626   -1.9228 H   0  0  0  0  0  0  0  0  0  0  0  0
    0.8818   -0.0543   -2.8236 H   0  0  0  0  0  0  0  0  0  0  0  0
   -0.5692    0.9453   -2.9475 H   0  0  0  0  0  0  0  0  0  0  0  0
    1.5853    0.8481    1.4247 H   0  0  0  0  0  0  0  0  0  0  0  0
    2.2867    0.1099    0.1465 H   0  0  0  0  0  0  0  0  0  0  0  0
  1 11  1  0  0  0  0
  2  3  1  6  0  0  0
  2  1  1  0  0  0  0
  2 12  1  0  0  0  0
  3  5  1  1  0  0  0
  4 14  1  0  0  0  0
  4  3  1  0  0  0  0
  5  2  1  1  0  0  0
  5  6  1  0  0  0  0
  5  7  1  0  0  0  0
  6 17  1  0  0  0  0
  7  8  3  0  0  0  0
  9  1  1  0  0  0  0
 10  1  1  0  0  0  0
 13  3  1  0  0  0  0
 15  4  1  0  0  0  0
 16  4  1  0  0  0  0
 18  6  1  0  0  0  0
M  END
