17
title
C -1.1367421 2.0301511 0.22701395
C -1.0788429 0.52799815 0.059522208
C -0.40637228 -0.14778475 -1.1137818
C 0.25909021 0.60652936 -2.2441251
C 0.25018886 -0.20773439 0.2549355
O 1.4248149 0.5355727 0.39699012
C 0.24184039 -1.4585015 0.98142546
N 0.23017982 -2.4458673 1.5849338
H -0.18794605 2.5051591 -0.028820286
H -1.9152555 2.4596946 -0.41177657
H -1.3772997 2.2938597 1.2623769
H -1.9427533 -0.00037579122 0.45291698
H -0.8694171 -1.0819788 -1.4181029
H 0.82962805 1.4637575 -1.8858356
H 0.9499031 -0.048456833 -2.7837503
H -0.49205574 0.9620281 -2.957067
H 1.4842503 0.8390501 1.3104295
