title
 OpenBabel02282109593D

 17 17  0  0  1  0  0  0  0  0999 V2000
   -0.9043    2.0194   -0.7339 C   0  0  0  0  0  0  0  0  0  0  0  0
   -0.7558    0.5147   -0.7450 C   0  0  1  0  0  0  0  0  0  0  0  0
    0.5547   -0.1805   -1.0364 C   0  0  1  0  0  0  0  0  0  0  0  0
    1.7329    0.6259   -1.1917 N   0  0  0  0  0  0  0  0  0  0  0  0
   -0.0338   -0.1956    0.3935 C   0  0  1  0  0  0  0  0  0  0  0  0
    0.5860    0.6056    1.4309 N   0  0  0  0  0  0  0  0  0  0  0  0
   -0.5903   -1.4402    0.8530 C   0  0  0  0  0  0  0  0  0  0  0  0
   -1.0250   -2.4509    1.2124 N   0  0  0  0  0  0  0  0  0  0  0  0
   -0.0187    2.5165   -0.3371 H   0  0  0  0  0  0  0  0  0  0  0  0
   -1.0835    2.3944   -1.7475 H   0  0  0  0  0  0  0  0  0  0  0  0
   -1.7564    2.3108   -0.1129 H   0  0  0  0  0  0  0  0  0  0  0  0
   -1.6251   -0.0165   -1.1212 H   0  0  0  0  0  0  0  0  0  0  0  0
    0.4902   -1.1157   -1.5917 H   0  0  0  0  0  0  0  0  0  0  0  0
    2.5666    0.0491   -1.2162 H   0  0  0  0  0  0  0  0  0  0  0  0
    1.7040    1.1609   -2.0532 H   0  0  0  0  0  0  0  0  0  0  0  0
    0.9871   -0.0106    2.1314 H   0  0  0  0  0  0  0  0  0  0  0  0
    1.3637    1.1023    0.9966 H   0  0  0  0  0  0  0  0  0  0  0  0
  1  9  1  0  0  0  0
  1 11  1  0  0  0  0
  2  3  1  6  0  0  0
  2  1  1  0  0  0  0
  3  5  1  1  0  0  0
  4  3  1  0  0  0  0
  5  2  1  6  0  0  0
  5  7  1  0  0  0  0
  5  6  1  0  0  0  0
  6 16  1  0  0  0  0
  7  8  3  0  0  0  0
 10  1  1  0  0  0  0
 12  2  1  0  0  0  0
 13  3  1  0  0  0  0
 14  4  1  0  0  0  0
 15  4  1  0  0  0  0
 17  6  1  0  0  0  0
M  END
