title
 OpenBabel02282109593D

 16 16  0  0  1  0  0  0  0  0999 V2000
   -1.1250    2.0340    0.1925 C   0  0  0  0  0  0  0  0  0  0  0  0
   -1.0748    0.5292    0.0598 C   0  0  1  0  0  0  0  0  0  0  0  0
   -0.4143   -0.1718   -1.1041 C   0  0  1  0  0  0  0  0  0  0  0  0
    0.3381    0.6025   -2.0556 N   0  0  0  0  0  0  0  0  0  0  0  0
    0.2439   -0.2091    0.2864 C   0  0  1  0  0  0  0  0  0  0  0  0
    1.4070    0.5326    0.4252 O   0  0  0  0  0  0  0  0  0  0  0  0
    0.2328   -1.4453    1.0275 C   0  0  0  0  0  0  0  0  0  0  0  0
    0.1860   -2.4434    1.6107 N   0  0  0  0  0  0  0  0  0  0  0  0
   -0.1515    2.4844   -0.0070 H   0  0  0  0  0  0  0  0  0  0  0  0
   -1.8608    2.4670   -0.4942 H   0  0  0  0  0  0  0  0  0  0  0  0
   -1.4164    2.3123    1.2094 H   0  0  0  0  0  0  0  0  0  0  0  0
   -1.9514    0.0072    0.4320 H   0  0  0  0  0  0  0  0  0  0  0  0
   -0.8832   -1.0889   -1.4517 H   0  0  0  0  0  0  0  0  0  0  0  0
    0.7291    0.0132   -2.7810 H   0  0  0  0  0  0  0  0  0  0  0  0
   -0.2249    1.3194   -2.4994 H   0  0  0  0  0  0  0  0  0  0  0  0
    1.6131    0.8309   -0.4810 H   0  0  0  0  0  0  0  0  0  0  0  0
  1 11  1  0  0  0  0
  2  3  1  6  0  0  0
  2  1  1  0  0  0  0
  2 12  1  0  0  0  0
  3  5  1  1  0  0  0
  4  3  1  0  0  0  0
  5  2  1  1  0  0  0
  5  6  1  0  0  0  0
  5  7  1  0  0  0  0
  7  8  3  0  0  0  0
  9  1  1  0  0  0  0
 10  1  1  0  0  0  0
 13  3  1  0  0  0  0
 14  4  1  0  0  0  0
 15  4  1  0  0  0  0
 16  6  1  0  0  0  0
M  END
