18
title
C -0.85115135 2.0077927 -0.82970464
C -0.7262275 0.50184906 -0.7663966
C 0.6013586 -0.18916894 -0.9534486
O 1.7713064 0.56673837 -1.0605738
C -0.053297967 -0.21102168 0.42136317
C 0.5691839 0.5921783 1.5554914
C -0.6478131 -1.4581957 0.82545763
C -1.1474189 -2.496747 1.1723653
H 0.08563879 2.505847 -0.57219416
H -1.1276331 2.3229349 -1.8423914
H -1.6284132 2.3717608 -0.15009566
H -1.5797572 -0.036729824 -1.1678437
H 0.616545 -1.1317191 -1.4986038
H 1.790145 0.9647209 -1.9375482
H 1.1452941 1.4350699 1.1745144
H -0.20357993 0.96411234 2.2351568
H 1.2469963 -0.04319788 2.1325898
H -1.5852424 -3.4140143 1.4785109
