title
 OpenBabel02282109593D

 16 16  0  0  1  0  0  0  0  0999 V2000
   -0.8024    2.0514   -0.7532 C   0  0  0  0  0  0  0  0  0  0  0  0
   -0.7309    0.5424   -0.7443 C   0  0  1  0  0  0  0  0  0  0  0  0
    0.5458   -0.1910   -0.9924 C   0  0  1  0  0  0  0  0  0  0  0  0
    1.6899    0.5767   -1.1976 O   0  0  0  0  0  0  0  0  0  0  0  0
   -0.0442   -0.2012    0.4287 C   0  0  1  0  0  0  0  0  0  0  0  0
    0.6986    0.4837    1.4495 N   0  0  0  0  0  0  0  0  0  0  0  0
   -0.6731   -1.4276    0.8589 C   0  0  0  0  0  0  0  0  0  0  0  0
   -1.2001   -2.4096    1.1712 N   0  0  0  0  0  0  0  0  0  0  0  0
    0.1004    2.5038   -0.3406 H   0  0  0  0  0  0  0  0  0  0  0  0
   -0.9174    2.4200   -1.7772 H   0  0  0  0  0  0  0  0  0  0  0  0
   -1.6621    2.4010   -0.1726 H   0  0  0  0  0  0  0  0  0  0  0  0
   -1.6145    0.0421   -1.1300 H   0  0  0  0  0  0  0  0  0  0  0  0
    0.5045   -1.1237   -1.5498 H   0  0  0  0  0  0  0  0  0  0  0  0
    2.4592    0.0066   -1.0884 H   0  0  0  0  0  0  0  0  0  0  0  0
    1.4692    0.9881    1.0238 H   0  0  0  0  0  0  0  0  0  0  0  0
    0.1215    1.1487    1.9531 H   0  0  0  0  0  0  0  0  0  0  0  0
  1  2  1  0  0  0  0
  1  9  1  0  0  0  0
  1 11  1  0  0  0  0
  2  3  1  6  0  0  0
  3  5  1  1  0  0  0
  4 14  1  0  0  0  0
  4  3  1  0  0  0  0
  5  2  1  6  0  0  0
  5  7  1  0  0  0  0
  5  6  1  0  0  0  0
  6 16  1  0  0  0  0
  7  8  3  0  0  0  0
 10  1  1  0  0  0  0
 12  2  1  0  0  0  0
 13  3  1  0  0  0  0
 15  6  1  0  0  0  0
M  END
