title
 OpenBabel02282109593D

 19 19  0  0  1  0  0  0  0  0999 V2000
    0.8102   -2.1853    0.3727 C   0  0  0  0  0  0  0  0  0  0  0  0
   -0.0324   -1.1240   -0.3020 C   0  0  1  0  0  0  0  0  0  0  0  0
   -0.9999   -0.2829    0.3926 N   0  0  0  0  0  0  0  0  0  0  0  0
   -1.2018   -0.3892    1.8291 C   0  0  0  0  0  0  0  0  0  0  0  0
    0.2168    0.3605   -0.1487 C   0  0  1  0  0  0  0  0  0  0  0  0
    1.3221    0.8922    0.7539 C   0  0  0  0  0  0  0  0  0  0  0  0
   -0.0296    1.2140   -1.2914 C   0  0  0  0  0  0  0  0  0  0  0  0
   -0.1951    1.9324   -2.2416 C   0  0  0  0  0  0  0  0  0  0  0  0
    1.2189   -1.8775    1.3360 H   0  0  0  0  0  0  0  0  0  0  0  0
    0.2138   -3.0895    0.5379 H   0  0  0  0  0  0  0  0  0  0  0  0
    1.6498   -2.4600   -0.2743 H   0  0  0  0  0  0  0  0  0  0  0  0
   -0.3928   -1.4367   -1.2819 H   0  0  0  0  0  0  0  0  0  0  0  0
   -0.3088   -0.6101    2.4296 H   0  0  0  0  0  0  0  0  0  0  0  0
   -1.6282    0.5508    2.1926 H   0  0  0  0  0  0  0  0  0  0  0  0
   -1.9348   -1.1810    2.0150 H   0  0  0  0  0  0  0  0  0  0  0  0
    2.2369    1.0325    0.1708 H   0  0  0  0  0  0  0  0  0  0  0  0
    1.0389    1.8667    1.1639 H   0  0  0  0  0  0  0  0  0  0  0  0
    1.5520    0.2263    1.5859 H   0  0  0  0  0  0  0  0  0  0  0  0
   -0.3594    2.5618   -3.0808 H   0  0  0  0  0  0  0  0  0  0  0  0
  1 10  1  0  0  0  0
  1  9  1  0  0  0  0
  2  5  1  6  0  0  0
  2  1  1  0  0  0  0
  2  3  1  0  0  0  0
  3  4  1  0  0  0  0
  4 15  1  0  0  0  0
  4 14  1  0  0  0  0
  4 13  1  0  0  0  0
  5  7  1  6  0  0  0
  5  3  1  0  0  0  0
  5  6  1  0  0  0  0
  6 17  1  0  0  0  0
  6 18  1  0  0  0  0
  8  7  3  0  0  0  0
 11  1  1  0  0  0  0
 12  2  1  0  0  0  0
 16  6  1  0  0  0  0
 19  8  1  0  0  0  0
M  END
