title
 OpenBabel02282109593D

 18 18  0  0  1  0  0  0  0  0999 V2000
    0.8162   -2.1921    0.3722 C   0  0  0  0  0  0  0  0  0  0  0  0
   -0.0316   -1.1325   -0.2975 C   0  0  1  0  0  0  0  0  0  0  0  0
   -0.9944   -0.2904    0.3990 N   0  0  0  0  0  0  0  0  0  0  0  0
   -1.2047   -0.3934    1.8360 C   0  0  0  0  0  0  0  0  0  0  0  0
    0.2223    0.3498   -0.1285 C   0  0  1  0  0  0  0  0  0  0  0  0
    1.3317    0.8932    0.7591 C   0  0  0  0  0  0  0  0  0  0  0  0
   -0.0374    1.2039   -1.2766 C   0  0  0  0  0  0  0  0  0  0  0  0
   -0.2105    1.8848   -2.1950 N   0  0  0  0  0  0  0  0  0  0  0  0
    1.2175   -1.8894    1.3400 H   0  0  0  0  0  0  0  0  0  0  0  0
    0.2226   -3.0995    0.5261 H   0  0  0  0  0  0  0  0  0  0  0  0
    1.6591   -2.4560   -0.2743 H   0  0  0  0  0  0  0  0  0  0  0  0
   -0.3910   -1.4390   -1.2794 H   0  0  0  0  0  0  0  0  0  0  0  0
   -0.3144   -0.6194    2.4372 H   0  0  0  0  0  0  0  0  0  0  0  0
   -1.6280    0.5493    2.1946 H   0  0  0  0  0  0  0  0  0  0  0  0
   -1.9429   -1.1810    2.0151 H   0  0  0  0  0  0  0  0  0  0  0  0
    2.2371    1.0511    0.1661 H   0  0  0  0  0  0  0  0  0  0  0  0
    1.0406    1.8576    1.1860 H   0  0  0  0  0  0  0  0  0  0  0  0
    1.5783    0.2175    1.5774 H   0  0  0  0  0  0  0  0  0  0  0  0
  1 10  1  0  0  0  0
  1  9  1  0  0  0  0
  2  5  1  6  0  0  0
  2  1  1  0  0  0  0
  2  3  1  0  0  0  0
  3  4  1  0  0  0  0
  4 15  1  0  0  0  0
  4 14  1  0  0  0  0
  4 13  1  0  0  0  0
  5  7  1  6  0  0  0
  5  3  1  0  0  0  0
  5  6  1  0  0  0  0
  6 17  1  0  0  0  0
  6 18  1  0  0  0  0
  8  7  3  0  0  0  0
 11  1  1  0  0  0  0
 12  2  1  0  0  0  0
 16  6  1  0  0  0  0
M  END
