title
 OpenBabel02282109593D

 16 16  0  0  1  0  0  0  0  0999 V2000
    1.1846    1.9160   -0.2758 N   0  0  0  0  0  0  0  0  0  0  0  0
    1.0606    0.4943   -0.2283 C   0  0  1  0  0  0  0  0  0  0  0  0
    0.5638   -0.1822    1.0163 C   0  0  1  0  0  0  0  0  0  0  0  0
    0.0871    0.5327    2.1693 N   0  0  0  0  0  0  0  0  0  0  0  0
   -0.3299   -0.2136   -0.2334 C   0  0  1  0  0  0  0  0  0  0  0  0
   -1.4732    0.6639   -0.2114 N   0  0  0  0  0  0  0  0  0  0  0  0
   -0.4541   -1.4568   -0.9501 C   0  0  0  0  0  0  0  0  0  0  0  0
   -0.5637   -2.4423   -1.5496 N   0  0  0  0  0  0  0  0  0  0  0  0
    1.2005    2.2469   -1.2353 H   0  0  0  0  0  0  0  0  0  0  0  0
    0.3936    2.3560    0.1817 H   0  0  0  0  0  0  0  0  0  0  0  0
    1.8335   -0.0250   -0.7858 H   0  0  0  0  0  0  0  0  0  0  0  0
    1.0347   -1.1318    1.2559 H   0  0  0  0  0  0  0  0  0  0  0  0
    0.8261    1.1155    2.5515 H   0  0  0  0  0  0  0  0  0  0  0  0
   -0.6788    1.1440    1.9035 H   0  0  0  0  0  0  0  0  0  0  0  0
   -1.7000    0.9844   -1.1479 H   0  0  0  0  0  0  0  0  0  0  0  0
   -2.2907    0.1804    0.1483 H   0  0  0  0  0  0  0  0  0  0  0  0
  1  2  1  0  0  0  0
  1 10  1  0  0  0  0
  2  5  1  6  0  0  0
  2  3  1  0  0  0  0
  3  5  1  6  0  0  0
  3 12  1  0  0  0  0
  3  4  1  0  0  0  0
  4 13  1  0  0  0  0
  5  7  1  6  0  0  0
  5  6  1  0  0  0  0
  6 16  1  0  0  0  0
  8  7  3  0  0  0  0
  9  1  1  0  0  0  0
 11  2  1  0  0  0  0
 14  4  1  0  0  0  0
 15  6  1  0  0  0  0
M  END
