title
 OpenBabel02282109593D

 15 15  0  0  1  0  0  0  0  0999 V2000
    0.5363    1.9722    0.8693 N   0  0  0  0  0  0  0  0  0  0  0  0
    0.5509    0.5346    0.9079 C   0  0  1  0  0  0  0  0  0  0  0  0
   -0.7635   -0.1967    0.8981 C   0  0  1  0  0  0  0  0  0  0  0  0
   -1.9461    0.5917    0.7039 N   0  0  0  0  0  0  0  0  0  0  0  0
    0.1436   -0.2380   -0.3568 C   0  0  1  0  0  0  0  0  0  0  0  0
   -0.3067    0.5383   -1.4157 O   0  0  0  0  0  0  0  0  0  0  0  0
    0.8198   -1.4540   -0.7117 C   0  0  0  0  0  0  0  0  0  0  0  0
    1.3807   -2.4392   -0.9465 N   0  0  0  0  0  0  0  0  0  0  0  0
    1.4669    2.3294    1.0541 H   0  0  0  0  0  0  0  0  0  0  0  0
    0.2912    2.2658   -0.0753 H   0  0  0  0  0  0  0  0  0  0  0  0
    1.3326    0.0991    1.5201 H   0  0  0  0  0  0  0  0  0  0  0  0
   -0.8424   -1.1084    1.4821 H   0  0  0  0  0  0  0  0  0  0  0  0
   -2.7880    0.0881    0.9473 H   0  0  0  0  0  0  0  0  0  0  0  0
   -1.8940    1.4548    1.2377 H   0  0  0  0  0  0  0  0  0  0  0  0
   -1.2407    0.7286   -1.1916 H   0  0  0  0  0  0  0  0  0  0  0  0
  1  2  1  0  0  0  0
  1  9  1  0  0  0  0
  2  5  1  6  0  0  0
  2 11  1  0  0  0  0
  3  5  1  6  0  0  0
  3  2  1  0  0  0  0
  3 12  1  0  0  0  0
  4  3  1  0  0  0  0
  4 13  1  0  0  0  0
  4 14  1  0  0  0  0
  5  7  1  6  0  0  0
  6 15  1  0  0  0  0
  6  5  1  0  0  0  0
  8  7  3  0  0  0  0
 10  1  1  0  0  0  0
M  END
