13
title
O 0.838865 1.9044032 -0.36745122
C 1.0082715 0.5287749 -0.3339448
C 0.67067343 -0.16656764 0.95770013
O 0.26814196 0.67070526 1.9920554
C -0.30391338 -0.27008954 -0.22179738
O -1.4622046 0.4898757 -0.07504883
C -0.4488944 -1.515228 -0.924702
N -0.52187645 -2.5256414 -1.4835112
H 0.8132862 2.1926703 0.559534
H 1.7906417 0.1482044 -0.9818611
H 1.2247436 -1.0470269 1.2668781
H -0.69341326 0.770567 1.9087656
H -1.2811917 1.3412937 -0.50442344
