16
title
C -0.3994128 1.5931358 -0.07547415
C -0.38244927 0.07939087 -0.08420724
C -1.6334829 -0.61112565 -0.48011875
O -2.6431267 -0.066591285 -0.8555132
C 0.922768 -0.66562486 -0.51480347
O 2.0333002 0.0840334 -0.8549636
C 0.48996344 -0.68848324 0.90928787
O 1.21979 0.12908602 1.7852682
H -0.44606468 1.9912205 0.9413169
H 0.49077263 1.9986271 -0.56303716
H -1.2830324 1.9301031 -0.6212055
H -1.5792195 -1.725005 -0.42446727
H 0.81776977 -1.550547 -1.1340079
H 2.3116956 0.5401323 -0.04744659
H 0.08527909 -1.5981983 1.3498639
H 1.8682613 -0.42423025 2.2349982
