title
 OpenBabel02282109593D

 16 16  0  0  1  0  0  0  0  0999 V2000
   -0.3994    1.5931   -0.0755 C   0  0  0  0  0  0  0  0  0  0  0  0
   -0.3824    0.0794   -0.0842 C   0  0  1  0  0  0  0  0  0  0  0  0
   -1.6335   -0.6111   -0.4801 C   0  0  0  0  0  0  0  0  0  0  0  0
   -2.6431   -0.0666   -0.8555 O   0  0  0  0  0  0  0  0  0  0  0  0
    0.9228   -0.6656   -0.5148 C   0  0  1  0  0  0  0  0  0  0  0  0
    2.0333    0.0840   -0.8550 O   0  0  0  0  0  0  0  0  0  0  0  0
    0.4900   -0.6885    0.9093 C   0  0  1  0  0  0  0  0  0  0  0  0
    1.2198    0.1291    1.7853 O   0  0  0  0  0  0  0  0  0  0  0  0
   -0.4461    1.9912    0.9413 H   0  0  0  0  0  0  0  0  0  0  0  0
    0.4908    1.9986   -0.5630 H   0  0  0  0  0  0  0  0  0  0  0  0
   -1.2830    1.9301   -0.6212 H   0  0  0  0  0  0  0  0  0  0  0  0
   -1.5792   -1.7250   -0.4245 H   0  0  0  0  0  0  0  0  0  0  0  0
    0.8178   -1.5505   -1.1340 H   0  0  0  0  0  0  0  0  0  0  0  0
    2.3117    0.5401   -0.0474 H   0  0  0  0  0  0  0  0  0  0  0  0
    0.0853   -1.5982    1.3499 H   0  0  0  0  0  0  0  0  0  0  0  0
    1.8683   -0.4242    2.2350 H   0  0  0  0  0  0  0  0  0  0  0  0
  1  9  1  0  0  0  0
  2  1  1  0  0  0  0
  2  7  1  1  0  0  0
  3 12  1  0  0  0  0
  3  2  1  0  0  0  0
  4  3  2  0  0  0  0
  5  2  1  6  0  0  0
  6  5  1  0  0  0  0
  6 14  1  0  0  0  0
  7  5  1  6  0  0  0
  7 15  1  0  0  0  0
  7  8  1  0  0  0  0
  8 16  1  0  0  0  0
 10  1  1  0  0  0  0
 11  1  1  0  0  0  0
 13  5  1  0  0  0  0
M  END
