title
 OpenBabel02282109593D

 18 18  0  0  1  0  0  0  0  0999 V2000
   -1.0164    1.8947   -0.8348 C   0  0  0  0  0  0  0  0  0  0  0  0
   -0.7149    0.4204   -0.6934 C   0  0  1  0  0  0  0  0  0  0  0  0
    0.6730   -0.1147   -0.8191 C   0  0  1  0  0  0  0  0  0  0  0  0
    1.7588    0.7495   -0.9544 O   0  0  0  0  0  0  0  0  0  0  0  0
   -0.0054   -0.1260    0.5592 C   0  0  1  0  0  0  0  0  0  0  0  0
    0.4908    0.7998    1.6511 C   0  0  0  0  0  0  0  0  0  0  0  0
   -0.4604   -1.4753    0.9867 C   0  0  0  0  0  0  0  0  0  0  0  0
   -0.9374   -2.3064    0.2477 O   0  0  0  0  0  0  0  0  0  0  0  0
   -0.1622    2.5135   -0.5524 H   0  0  0  0  0  0  0  0  0  0  0  0
   -1.2746    2.1316   -1.8733 H   0  0  0  0  0  0  0  0  0  0  0  0
   -1.8682    2.1870   -0.2126 H   0  0  0  0  0  0  0  0  0  0  0  0
   -1.4851   -0.2552   -1.0566 H   0  0  0  0  0  0  0  0  0  0  0  0
    0.7982   -1.0948   -1.2771 H   0  0  0  0  0  0  0  0  0  0  0  0
    1.7085    1.1609   -1.8238 H   0  0  0  0  0  0  0  0  0  0  0  0
    1.1873    1.5383    1.2530 H   0  0  0  0  0  0  0  0  0  0  0  0
   -0.3323    1.3276    2.1447 H   0  0  0  0  0  0  0  0  0  0  0  0
    1.0240    0.2275    2.4183 H   0  0  0  0  0  0  0  0  0  0  0  0
   -0.3189   -1.6921    2.0697 H   0  0  0  0  0  0  0  0  0  0  0  0
  1  2  1  0  0  0  0
  1  9  1  0  0  0  0
  1 11  1  0  0  0  0
  2  3  1  6  0  0  0
  3  5  1  1  0  0  0
  4  3  1  0  0  0  0
  5  2  1  6  0  0  0
  5  7  1  0  0  0  0
  5  6  1  0  0  0  0
  6 16  1  0  0  0  0
  6 17  1  0  0  0  0
  7 18  1  0  0  0  0
  8  7  2  0  0  0  0
 10  1  1  0  0  0  0
 12  2  1  0  0  0  0
 13  3  1  0  0  0  0
 14  4  1  0  0  0  0
 15  6  1  0  0  0  0
M  END
