16
title
C -0.9896674 1.9167476 -0.820976
C -0.71525675 0.4343236 -0.730994
C 0.6535702 -0.13229486 -0.8730329
O 1.7142166 0.7721133 -0.9897183
C -0.02315698 -0.14595261 0.51252586
O 0.501686 0.7142745 1.4702775
C -0.48324084 -1.4489337 1.0332664
O -1.0240573 -2.292859 0.35343033
H -0.22426419 2.5003526 -0.30760404
H -1.0198903 2.2403605 -1.866095
H -1.9549247 2.1521518 -0.3634836
H -1.4918833 -0.22362706 -1.1120769
H 0.7766291 -1.0865511 -1.3791277
H 2.537749 0.27648538 -0.92712283
H 1.2960757 1.1070703 1.0805963
H -0.2748237 -1.5999842 2.1141975
