19
title
C 0.9801573 -2.1756024 0.2553102
C 0.0014759777 -1.1940004 -0.35251412
N -1.0401045 -0.5053247 0.3862107
C -1.204654 -0.69999516 1.8199399
C 0.09115438 0.30306745 -0.11675034
C 1.1412278 0.9297288 0.7746644
C -0.32825506 1.1504962 -1.2794068
O 0.24049239 2.148683 -1.6454916
H 1.332795 -1.8859013 1.2457237
H 0.5127426 -3.162534 0.34278074
H 1.8541847 -2.2812178 -0.39536497
H -0.333511 -1.505824 -1.3434901
H -0.27695876 -0.8045324 2.3977191
H -1.7599742 0.15107179 2.2254713
H -1.8079379 -1.5992826 1.9791341
H 1.9012631 1.3977681 0.14442113
H 0.702267 1.7222627 1.3898275
H 1.630849 0.21594775 1.4369025
H -1.2355444 0.7636706 -1.794621
