title
 OpenBabel02282109593D

 19 19  0  0  1  0  0  0  0  0999 V2000
    0.9802   -2.1756    0.2553 C   0  0  0  0  0  0  0  0  0  0  0  0
    0.0015   -1.1940   -0.3525 C   0  0  1  0  0  0  0  0  0  0  0  0
   -1.0401   -0.5053    0.3862 N   0  0  0  0  0  0  0  0  0  0  0  0
   -1.2047   -0.7000    1.8199 C   0  0  0  0  0  0  0  0  0  0  0  0
    0.0912    0.3031   -0.1168 C   0  0  1  0  0  0  0  0  0  0  0  0
    1.1412    0.9297    0.7747 C   0  0  0  0  0  0  0  0  0  0  0  0
   -0.3283    1.1505   -1.2794 C   0  0  0  0  0  0  0  0  0  0  0  0
    0.2405    2.1487   -1.6455 O   0  0  0  0  0  0  0  0  0  0  0  0
    1.3328   -1.8859    1.2457 H   0  0  0  0  0  0  0  0  0  0  0  0
    0.5127   -3.1625    0.3428 H   0  0  0  0  0  0  0  0  0  0  0  0
    1.8542   -2.2812   -0.3954 H   0  0  0  0  0  0  0  0  0  0  0  0
   -0.3335   -1.5058   -1.3435 H   0  0  0  0  0  0  0  0  0  0  0  0
   -0.2770   -0.8045    2.3977 H   0  0  0  0  0  0  0  0  0  0  0  0
   -1.7600    0.1511    2.2255 H   0  0  0  0  0  0  0  0  0  0  0  0
   -1.8079   -1.5993    1.9791 H   0  0  0  0  0  0  0  0  0  0  0  0
    1.9013    1.3978    0.1444 H   0  0  0  0  0  0  0  0  0  0  0  0
    0.7023    1.7223    1.3898 H   0  0  0  0  0  0  0  0  0  0  0  0
    1.6308    0.2159    1.4369 H   0  0  0  0  0  0  0  0  0  0  0  0
   -1.2355    0.7637   -1.7946 H   0  0  0  0  0  0  0  0  0  0  0  0
  1 10  1  0  0  0  0
  1  9  1  0  0  0  0
  2  5  1  6  0  0  0
  2  1  1  0  0  0  0
  2  3  1  0  0  0  0
  3  4  1  0  0  0  0
  4 15  1  0  0  0  0
  4 14  1  0  0  0  0
  4 13  1  0  0  0  0
  5  7  1  6  0  0  0
  5  3  1  0  0  0  0
  5  6  1  0  0  0  0
  6 17  1  0  0  0  0
  6 18  1  0  0  0  0
  8  7  2  0  0  0  0
 11  1  1  0  0  0  0
 12  2  1  0  0  0  0
 16  6  1  0  0  0  0
 19  7  1  0  0  0  0
M  END
