title
 OpenBabel02282109593D

 22 22  0  0  1  0  0  0  0  0999 V2000
   -0.5267    0.9953   -2.0148 C   0  0  0  0  0  0  0  0  0  0  0  0
   -0.3245   -0.1821   -1.0850 C   0  0  1  0  0  0  0  0  0  0  0  0
    1.0385   -0.6366   -0.5960 C   0  0  1  0  0  0  0  0  0  0  0  0
    2.3322    0.0535   -0.9759 C   0  0  0  0  0  0  0  0  0  0  0  0
    0.0393   -0.0427    0.3827 C   0  0  1  0  0  0  0  0  0  0  0  0
    0.2693    1.3184    1.0140 C   0  0  0  0  0  0  0  0  0  0  0  0
   -0.6281   -1.0207    1.3247 C   0  0  0  0  0  0  0  0  0  0  0  0
   -1.9275   -0.5315    1.6430 O   0  0  0  0  0  0  0  0  0  0  0  0
    0.1908    1.8017   -1.8467 H   0  0  0  0  0  0  0  0  0  0  0  0
   -0.4249    0.6837   -3.0606 H   0  0  0  0  0  0  0  0  0  0  0  0
   -1.5296    1.4188   -1.8918 H   0  0  0  0  0  0  0  0  0  0  0  0
   -1.0212   -0.9925   -1.2888 H   0  0  0  0  0  0  0  0  0  0  0  0
    1.1532   -1.7169   -0.5236 H   0  0  0  0  0  0  0  0  0  0  0  0
    2.2248    1.1360   -1.0725 H   0  0  0  0  0  0  0  0  0  0  0  0
    3.1096   -0.1316   -0.2260 H   0  0  0  0  0  0  0  0  0  0  0  0
    2.7043   -0.3242   -1.9349 H   0  0  0  0  0  0  0  0  0  0  0  0
    0.6663    2.0551    0.3139 H   0  0  0  0  0  0  0  0  0  0  0  0
   -0.6726    1.7049    1.4131 H   0  0  0  0  0  0  0  0  0  0  0  0
    0.9781    1.2427    1.8480 H   0  0  0  0  0  0  0  0  0  0  0  0
   -0.6896   -2.0121    0.8480 H   0  0  0  0  0  0  0  0  0  0  0  0
   -0.0195   -1.1322    2.2381 H   0  0  0  0  0  0  0  0  0  0  0  0
   -2.2899   -1.0791    2.3454 H   0  0  0  0  0  0  0  0  0  0  0  0
  1 11  1  0  0  0  0
  1  9  1  0  0  0  0
  1  2  1  0  0  0  0
  2  3  1  6  0  0  0
  3 13  1  0  0  0  0
  3  5  1  1  0  0  0
  4  3  1  0  0  0  0
  4 15  1  0  0  0  0
  5  2  1  6  0  0  0
  5  6  1  0  0  0  0
  5  7  1  0  0  0  0
  6 18  1  0  0  0  0
  6 19  1  0  0  0  0
  7  8  1  0  0  0  0
  7 21  1  0  0  0  0
  8 22  1  0  0  0  0
 10  1  1  0  0  0  0
 12  2  1  0  0  0  0
 14  4  1  0  0  0  0
 16  4  1  0  0  0  0
 17  6  1  0  0  0  0
 20  7  1  0  0  0  0
M  END
