title
 OpenBabel02282109593D

 20 20  0  0  1  0  0  0  0  0999 V2000
   -0.3432    0.8335   -2.1362 C   0  0  0  0  0  0  0  0  0  0  0  0
   -0.2273   -0.3252   -1.1693 C   0  0  1  0  0  0  0  0  0  0  0  0
    1.0879   -0.7006   -0.4956 C   0  0  1  0  0  0  0  0  0  0  0  0
    2.3789    0.0515   -0.7393 C   0  0  0  0  0  0  0  0  0  0  0  0
   -0.0323   -0.1014    0.3149 C   0  0  1  0  0  0  0  0  0  0  0  0
    0.1643    1.2198    0.7666 O   0  0  0  0  0  0  0  0  0  0  0  0
   -0.7635   -0.9469    1.3354 C   0  0  0  0  0  0  0  0  0  0  0  0
   -1.9853   -0.3449    1.7439 O   0  0  0  0  0  0  0  0  0  0  0  0
    0.2258    1.7038   -1.8017 H   0  0  0  0  0  0  0  0  0  0  0  0
    0.0243    0.5570   -3.1303 H   0  0  0  0  0  0  0  0  0  0  0  0
   -1.3891    1.1416   -2.2493 H   0  0  0  0  0  0  0  0  0  0  0  0
   -0.8672   -1.1682   -1.4204 H   0  0  0  0  0  0  0  0  0  0  0  0
    1.2275   -1.7702   -0.3493 H   0  0  0  0  0  0  0  0  0  0  0  0
    2.2303    1.1315   -0.6956 H   0  0  0  0  0  0  0  0  0  0  0  0
    3.1209   -0.2056    0.0242 H   0  0  0  0  0  0  0  0  0  0  0  0
    2.8066   -0.2019   -1.7154 H   0  0  0  0  0  0  0  0  0  0  0  0
   -0.6348    1.7137    0.5530 H   0  0  0  0  0  0  0  0  0  0  0  0
   -1.0208   -1.9200    0.9050 H   0  0  0  0  0  0  0  0  0  0  0  0
   -0.1084   -1.1253    2.2025 H   0  0  0  0  0  0  0  0  0  0  0  0
   -1.7420    0.4266    2.2661 H   0  0  0  0  0  0  0  0  0  0  0  0
  1  9  1  0  0  0  0
  1  2  1  0  0  0  0
  2  3  1  6  0  0  0
  3 13  1  0  0  0  0
  3  5  1  1  0  0  0
  4 14  1  0  0  0  0
  4  3  1  0  0  0  0
  4 15  1  0  0  0  0
  5  2  1  6  0  0  0
  5  6  1  0  0  0  0
  5  7  1  0  0  0  0
  7  8  1  0  0  0  0
  7 19  1  0  0  0  0
  8 20  1  0  0  0  0
 10  1  1  0  0  0  0
 11  1  1  0  0  0  0
 12  2  1  0  0  0  0
 16  4  1  0  0  0  0
 17  6  1  0  0  0  0
 18  7  1  0  0  0  0
M  END
