20
title
C -0.34317666 0.8335318 -2.1362314
C -0.22728503 -0.32515568 -1.1692659
C 1.0878583 -0.7006136 -0.49557883
C 2.3788712 0.05153151 -0.7393094
C -0.032267302 -0.101418234 0.31494015
O 0.16434544 1.2197524 0.7666395
C -0.76350015 -0.94692516 1.3354021
O -1.9852829 -0.3449218 1.7439423
H 0.22581512 1.7038114 -1.8016868
H 0.024324553 0.55703413 -3.1303177
H -1.3891119 1.1415787 -2.2492576
H -0.8672131 -1.1682373 -1.4203883
H 1.2275016 -1.7701919 -0.34930915
H 2.2302732 1.1315181 -0.69563377
H 3.1208591 -0.20556512 0.024164934
H 2.8065999 -0.20188911 -1.7154361
H -0.63476956 1.7136538 0.5530269
H -1.0207723 -1.920017 0.9050074
H -0.10837425 -1.1252756 2.2024908
H -1.7420472 0.4265731 2.266141
