title
 OpenBabel02282109593D

 21 21  0  0  1  0  0  0  0  0999 V2000
    0.5370   -2.4464    0.3541 C   0  0  0  0  0  0  0  0  0  0  0  0
   -0.1228   -1.2854   -0.3592 C   0  0  1  0  0  0  0  0  0  0  0  0
   -0.9304   -0.2644    0.3277 N   0  0  0  0  0  0  0  0  0  0  0  0
   -1.1147   -0.3225    1.7707 C   0  0  0  0  0  0  0  0  0  0  0  0
    0.3614    0.1283   -0.2662 C   0  0  1  0  0  0  0  0  0  0  0  0
    1.5470    0.5338    0.5876 C   0  0  0  0  0  0  0  0  0  0  0  0
    0.1359    1.0496   -1.4576 C   0  0  0  0  0  0  0  0  0  0  0  0
   -0.3770    2.3033   -1.0376 O   0  0  0  0  0  0  0  0  0  0  0  0
    1.0880   -2.1546    1.2493 H   0  0  0  0  0  0  0  0  0  0  0  0
   -0.2074   -3.1960    0.6455 H   0  0  0  0  0  0  0  0  0  0  0  0
    1.2456   -2.9352   -0.3229 H   0  0  0  0  0  0  0  0  0  0  0  0
   -0.5664   -1.5849   -1.3101 H   0  0  0  0  0  0  0  0  0  0  0  0
   -0.2816   -0.7480    2.3459 H   0  0  0  0  0  0  0  0  0  0  0  0
   -1.2960    0.6896    2.1468 H   0  0  0  0  0  0  0  0  0  0  0  0
   -2.0062   -0.9214    1.9846 H   0  0  0  0  0  0  0  0  0  0  0  0
    2.4815    0.3699    0.0396 H   0  0  0  0  0  0  0  0  0  0  0  0
    1.4780    1.6026    0.8134 H   0  0  0  0  0  0  0  0  0  0  0  0
    1.6171   -0.0097    1.5307 H   0  0  0  0  0  0  0  0  0  0  0  0
    1.0796    1.2585   -1.9740 H   0  0  0  0  0  0  0  0  0  0  0  0
   -0.5437    0.5645   -2.1735 H   0  0  0  0  0  0  0  0  0  0  0  0
   -1.1895    2.0939   -0.5602 H   0  0  0  0  0  0  0  0  0  0  0  0
  1 10  1  0  0  0  0
  1  9  1  0  0  0  0
  2  5  1  6  0  0  0
  2  3  1  0  0  0  0
  2  1  1  0  0  0  0
  3  4  1  0  0  0  0
  4 15  1  0  0  0  0
  4 14  1  0  0  0  0
  4 13  1  0  0  0  0
  5  7  1  6  0  0  0
  5  3  1  0  0  0  0
  5  6  1  0  0  0  0
  6 17  1  0  0  0  0
  6 18  1  0  0  0  0
  7  8  1  0  0  0  0
  8 21  1  0  0  0  0
 11  1  1  0  0  0  0
 12  2  1  0  0  0  0
 16  6  1  0  0  0  0
 19  7  1  0  0  0  0
 20  7  1  0  0  0  0
M  END
