21
title
C 0.5370313 -2.4463983 0.3541349
C -0.122776136 -1.2853618 -0.35921887
N -0.9303646 -0.26440355 0.327733
C -1.1146787 -0.32246837 1.7707107
C 0.36136833 0.12828605 -0.26624843
C 1.5469774 0.5337584 0.58756274
C 0.13593306 1.0495968 -1.4575975
O -0.37699822 2.3033125 -1.0375706
H 1.0880364 -2.1545925 1.2493119
H -0.20735048 -3.1959558 0.6455174
H 1.2455987 -2.935205 -0.32287303
H -0.5664172 -1.5848632 -1.3101062
H -0.28164247 -0.74795383 2.34591
H -1.2960246 0.68964 2.1468482
H -2.006222 -0.92144173 1.984556
H 2.4814656 0.36985222 0.03959687
H 1.4779779 1.6026447 0.8134126
H 1.617076 -0.009691198 1.5307403
H 1.0796307 1.2585106 -1.9740009
H -0.5436618 0.5644917 -2.1735382
H -1.1894907 2.0939434 -0.5602062
