24
title
C 0.97403556 1.7883474 1.524228
C -0.20821041 0.8862203 1.1406164
C -0.22585207 0.46471354 -0.32430157
C -0.4061907 1.6221411 -1.2944945
C 0.63289934 -0.6943969 -0.8078258
C 1.585102 -1.4747308 0.075809516
C -0.87604654 -0.84956056 -0.730569
C -1.5625379 -1.7981426 0.23122859
H 1.9296051 1.2938277 1.3226452
H 0.965421 2.7310224 0.96883124
H 0.942998 2.0360026 2.5901349
H -0.20289928 0.008448281 1.7924265
H -1.1477053 1.4116924 1.3619843
H 0.42826515 2.3306525 -1.2479504
H -0.4715448 1.263387 -2.3264053
H -1.3264545 2.1790228 -1.077819
H 1.0198287 -0.5679931 -1.8174403
H 1.2250441 -1.581983 1.1013777
H 1.7424723 -2.4844449 -0.32085368
H 2.5648828 -0.9863804 0.12382624
H -1.380766 -0.80898887 -1.6942515
H -1.0458454 -1.8885905 1.1890894
H -2.5871992 -1.4711577 0.44195846
H -1.6218132 -2.8042855 -0.19947752
