22
title
C -0.6759138 2.2465284 -1.0037019
C -1.0324886 0.80193007 -0.6230604
C -0.22169349 0.24575472 0.5393083
C -0.3669066 0.9950573 1.8526956
C -0.0068393648 -1.2623432 0.64888704
C -0.5884882 -2.2727168 -0.31828192
C 1.1379603 -0.3674243 0.24877043
O 1.5883375 -0.49541324 -1.0720875
H 0.38465264 2.3403037 -1.2652261
H -1.2586733 2.5742028 -1.8702303
H -0.87471867 2.9495955 -0.18943463
H -2.0998452 0.7509497 -0.36879078
H -0.89491946 0.16768849 -1.5014887
H -1.4084926 0.98775965 2.1972508
H 0.24080482 0.5354461 2.6387055
H -0.05265066 2.041173 1.7677134
H 0.04258308 -1.6256118 1.6730908
H -0.41137573 -1.9914973 -1.3572439
H -0.12113872 -3.2514322 -0.16527902
H -1.6670172 -2.394219 -0.16922157
H 1.9334742 -0.20069772 0.9768367
H 1.8816844 0.37072873 -1.3725044
