23
title
C 1.4833195 2.0531135 -0.2220793
C 1.1985292 0.58986473 -0.59451795
C -0.2707184 0.19127838 -0.5051699
C -1.1928163 0.985596 -1.4164397
C -0.65315086 -1.2300375 -0.20231056
C 0.32805568 -2.3629038 0.017316641
N -0.90128034 -0.1665742 0.777863
C -0.16842574 -0.13688536 2.0331
H 2.556851 2.2598312 -0.2735937
H 0.98190063 2.7510805 -0.8984639
H 1.148599 2.2789915 0.79529965
H 1.533785 0.40968373 -1.6244853
H 1.813388 -0.0580649 0.033959214
H -0.874028 0.9075749 -2.4627907
H -2.216303 0.612145 -1.3362892
H -1.2074418 2.0466185 -1.1470864
H -1.5772324 -1.5809991 -0.66625553
H 1.2796036 -2.0478067 0.44792974
H -0.10382097 -3.1165428 0.68560326
H 0.5443036 -2.8584938 -0.9354926
H 0.900959 -0.3883265 1.9809228
H -0.25351852 0.86482465 2.4676075
H -0.63940245 -0.83854705 2.7302322
