20
title
C -0.61112356 2.1377602 1.1411016
C -1.0964081 0.791497 0.5878502
C -0.2639351 0.26169574 -0.5699346
C -0.42818895 0.9947718 -1.8890013
C 1.1199086 -0.29263777 -0.30075204
O 1.5284643 -0.34567398 1.0484855
C -0.0034036508 -1.2387682 -0.6660863
O -0.44698507 -2.1087136 0.3294026
H 0.41061932 2.0508652 1.520764
H -0.6233211 2.9219944 0.37688765
H -1.2525408 2.4723582 1.9627683
H -1.114641 0.052380215 1.3924048
H -2.1345682 0.8833969 0.24263752
H -0.11648165 2.0424829 -1.8127083
H 0.16940518 0.53390884 -2.682898
H -1.4753757 0.97680664 -2.21242
H 1.9182818 -0.07031762 -1.0066383
H 2.2916305 -0.931701 1.1004416
H -0.02520846 -1.7032052 -1.6484722
H 0.07654478 -1.9008714 1.1161432
