title
 OpenBabel02282109593D

 22 22  0  0  1  0  0  0  0  0999 V2000
    0.9545    1.8628    1.4815 C   0  0  0  0  0  0  0  0  0  0  0  0
   -0.1677    0.8601    1.1807 C   0  0  0  0  0  0  0  0  0  0  0  0
   -0.2080    0.4273   -0.2736 C   0  0  1  0  0  0  0  0  0  0  0  0
   -0.4360    1.4993   -1.1651 O   0  0  0  0  0  0  0  0  0  0  0  0
    0.6366   -0.7131   -0.8133 C   0  0  1  0  0  0  0  0  0  0  0  0
    1.5959   -1.5349    0.0222 C   0  0  0  0  0  0  0  0  0  0  0  0
   -0.8818   -0.8436   -0.7163 C   0  0  1  0  0  0  0  0  0  0  0  0
   -1.5804   -1.8018    0.2246 C   0  0  0  0  0  0  0  0  0  0  0  0
    1.9404    1.4386    1.2620 H   0  0  0  0  0  0  0  0  0  0  0  0
    0.8375    2.7755    0.8878 H   0  0  0  0  0  0  0  0  0  0  0  0
    0.9450    2.1584    2.5347 H   0  0  0  0  0  0  0  0  0  0  0  0
   -0.0587   -0.0121    1.8315 H   0  0  0  0  0  0  0  0  0  0  0  0
   -1.1357    1.3138    1.4275 H   0  0  0  0  0  0  0  0  0  0  0  0
    0.3824    2.0021   -1.2371 H   0  0  0  0  0  0  0  0  0  0  0  0
    0.9889   -0.5337   -1.8266 H   0  0  0  0  0  0  0  0  0  0  0  0
    1.2428   -1.6888    1.0448 H   0  0  0  0  0  0  0  0  0  0  0  0
    1.7473   -2.5258   -0.4211 H   0  0  0  0  0  0  0  0  0  0  0  0
    2.5774   -1.0517    0.0857 H   0  0  0  0  0  0  0  0  0  0  0  0
   -1.3885   -0.7273   -1.6705 H   0  0  0  0  0  0  0  0  0  0  0  0
   -1.0504   -1.9351    1.1708 H   0  0  0  0  0  0  0  0  0  0  0  0
   -2.5901   -1.4487    0.4619 H   0  0  0  0  0  0  0  0  0  0  0  0
   -1.6775   -2.7917   -0.2350 H   0  0  0  0  0  0  0  0  0  0  0  0
  1 11  1  0  0  0  0
  2 13  1  0  0  0  0
  2  1  1  0  0  0  0
  2 12  1  0  0  0  0
  3  5  1  6  0  0  0
  3  2  1  0  0  0  0
  4  3  1  0  0  0  0
  5  7  1  6  0  0  0
  5  6  1  0  0  0  0
  6 18  1  0  0  0  0
  6 16  1  0  0  0  0
  7  3  1  1  0  0  0
  7  8  1  0  0  0  0
  8 21  1  0  0  0  0
  8 20  1  0  0  0  0
  9  1  1  0  0  0  0
 10  1  1  0  0  0  0
 14  4  1  0  0  0  0
 15  5  1  0  0  0  0
 17  6  1  0  0  0  0
 19  7  1  0  0  0  0
 22  8  1  0  0  0  0
M  END
