title
 OpenBabel02282109593D

 20 20  0  0  1  0  0  0  0  0999 V2000
   -0.4177    2.2658    1.0896 C   0  0  0  0  0  0  0  0  0  0  0  0
   -0.0953    0.7729    1.2355 C   0  0  0  0  0  0  0  0  0  0  0  0
    0.5415    0.1875   -0.0096 C   0  0  1  0  0  0  0  0  0  0  0  0
    1.7614    0.7853   -0.3844 O   0  0  0  0  0  0  0  0  0  0  0  0
    0.5129   -1.2927   -0.3081 C   0  0  1  0  0  0  0  0  0  0  0  0
   -0.1440   -2.3114    0.5971 C   0  0  0  0  0  0  0  0  0  0  0  0
   -0.3137   -0.3204   -1.1440 C   0  0  1  0  0  0  0  0  0  0  0  0
   -1.7023   -0.2567   -0.9747 O   0  0  0  0  0  0  0  0  0  0  0  0
    0.4863    2.8553    0.9003 H   0  0  0  0  0  0  0  0  0  0  0  0
   -1.1197    2.4341    0.2665 H   0  0  0  0  0  0  0  0  0  0  0  0
   -0.8712    2.6585    2.0044 H   0  0  0  0  0  0  0  0  0  0  0  0
    0.5888    0.6207    2.0793 H   0  0  0  0  0  0  0  0  0  0  0  0
   -1.0162    0.2302    1.4592 H   0  0  0  0  0  0  0  0  0  0  0  0
    1.5677    1.6721   -0.7078 H   0  0  0  0  0  0  0  0  0  0  0  0
    1.4185   -1.6343   -0.8019 H   0  0  0  0  0  0  0  0  0  0  0  0
   -1.1393   -1.9905    0.9137 H   0  0  0  0  0  0  0  0  0  0  0  0
   -0.2558   -3.2703    0.0785 H   0  0  0  0  0  0  0  0  0  0  0  0
    0.4544   -2.4929    1.4960 H   0  0  0  0  0  0  0  0  0  0  0  0
    0.0402   -0.1059   -2.1526 H   0  0  0  0  0  0  0  0  0  0  0  0
   -2.0891   -1.0473   -1.3662 H   0  0  0  0  0  0  0  0  0  0  0  0
  1  2  1  0  0  0  0
  1 11  1  0  0  0  0
  2 13  1  0  0  0  0
  2 12  1  0  0  0  0
  3  7  1  6  0  0  0
  3  2  1  0  0  0  0
  4  3  1  0  0  0  0
  5  7  1  6  0  0  0
  5  3  1  0  0  0  0
  5  6  1  0  0  0  0
  6 16  1  0  0  0  0
  6 18  1  0  0  0  0
  7 19  1  6  0  0  0
  7  8  1  0  0  0  0
  9  1  1  0  0  0  0
 10  1  1  0  0  0  0
 14  4  1  0  0  0  0
 15  5  1  0  0  0  0
 17  6  1  0  0  0  0
 20  8  1  0  0  0  0
M  END
