20
title
C -0.4177047 2.2658167 1.0895977
C -0.09531979 0.7728936 1.2354776
C 0.5415449 0.18751535 -0.009604279
O 1.7614412 0.7852959 -0.384376
C 0.5128733 -1.2926791 -0.30812854
C -0.14400662 -2.3114157 0.59712607
C -0.3137401 -0.32040492 -1.1440487
O -1.7023088 -0.25665793 -0.9747006
H 0.48630282 2.8552837 0.90026
H -1.119719 2.4340732 0.26651877
H -0.87119824 2.6585274 2.0043757
H 0.5888411 0.62073445 2.0793173
H -1.0162209 0.23015979 1.459175
H 1.5677407 1.6721479 -0.707755
H 1.4184606 -1.6342996 -0.80194026
H -1.1393077 -1.9904596 0.9137038
H -0.25576046 -3.2702649 0.07851749
H 0.45441762 -2.49287 1.4960446
H 0.040243935 -0.105925 -2.152621
H -2.089063 -1.047257 -1.3661914
