title
 OpenBabel02282109593D

 18 18  0  0  1  0  0  0  0  0999 V2000
   -0.5737    2.2465   -1.0632 C   0  0  0  0  0  0  0  0  0  0  0  0
   -0.0904    0.8021   -1.2403 C   0  0  0  0  0  0  0  0  0  0  0  0
    0.5507    0.2521    0.0161 C   0  0  1  0  0  0  0  0  0  0  0  0
    1.7481    0.8766    0.4135 O   0  0  0  0  0  0  0  0  0  0  0  0
   -0.3021   -0.3135    1.1444 C   0  0  1  0  0  0  0  0  0  0  0  0
   -1.6832   -0.4346    0.9900 O   0  0  0  0  0  0  0  0  0  0  0  0
    0.5781   -1.2242    0.3044 C   0  0  1  0  0  0  0  0  0  0  0  0
   -0.1001   -2.0621   -0.5988 O   0  0  0  0  0  0  0  0  0  0  0  0
    0.2522    2.9132   -0.7907 H   0  0  0  0  0  0  0  0  0  0  0  0
   -1.0065    2.6317   -1.9911 H   0  0  0  0  0  0  0  0  0  0  0  0
   -1.3375    2.3056   -0.2817 H   0  0  0  0  0  0  0  0  0  0  0  0
   -0.9291    0.1642   -1.5287 H   0  0  0  0  0  0  0  0  0  0  0  0
    0.6446    0.7442   -2.0518 H   0  0  0  0  0  0  0  0  0  0  0  0
    1.5171    1.7226    0.8131 H   0  0  0  0  0  0  0  0  0  0  0  0
   -0.0043   -0.0906    2.1656 H   0  0  0  0  0  0  0  0  0  0  0  0
   -1.8183   -1.1396    0.3411 H   0  0  0  0  0  0  0  0  0  0  0  0
    1.5003   -1.6202    0.7222 H   0  0  0  0  0  0  0  0  0  0  0  0
   -0.1999   -2.9237   -0.1794 H   0  0  0  0  0  0  0  0  0  0  0  0
  1  9  1  0  0  0  0
  1 11  1  0  0  0  0
  2  1  1  0  0  0  0
  2  3  1  0  0  0  0
  3  4  1  1  0  0  0
  4 14  1  0  0  0  0
  5  3  1  6  0  0  0
  5 15  1  0  0  0  0
  6  5  1  0  0  0  0
  7  3  1  6  0  0  0
  7 17  1  0  0  0  0
  7  5  1  0  0  0  0
  8 18  1  0  0  0  0
  8  7  1  0  0  0  0
 10  1  1  0  0  0  0
 12  2  1  0  0  0  0
 13  2  1  0  0  0  0
 16  6  1  0  0  0  0
M  END
