title
 OpenBabel02282109593D

 22 22  0  0  1  0  0  0  0  0999 V2000
    1.0169    1.5424    1.4017 C   0  0  0  0  0  0  0  0  0  0  0  0
   -0.1145    0.7983    0.9911 O   0  0  0  0  0  0  0  0  0  0  0  0
   -0.1534    0.4793   -0.3757 C   0  0  1  0  0  0  0  0  0  0  0  0
   -0.2382    1.6689   -1.3087 C   0  0  0  0  0  0  0  0  0  0  0  0
    0.5679   -0.7841   -0.8208 C   0  0  1  0  0  0  0  0  0  0  0  0
    1.4332   -1.5978    0.1179 C   0  0  0  0  0  0  0  0  0  0  0  0
   -0.9518   -0.7613   -0.6875 C   0  0  1  0  0  0  0  0  0  0  0  0
   -1.6844   -1.5302    0.3918 C   0  0  0  0  0  0  0  0  0  0  0  0
    1.9565    1.0667    1.0901 H   0  0  0  0  0  0  0  0  0  0  0  0
    1.0011    2.5699    1.0132 H   0  0  0  0  0  0  0  0  0  0  0  0
    0.9860    1.5856    2.4935 H   0  0  0  0  0  0  0  0  0  0  0  0
    0.6719    2.2783   -1.2879 H   0  0  0  0  0  0  0  0  0  0  0  0
   -0.3818    1.3327   -2.3393 H   0  0  0  0  0  0  0  0  0  0  0  0
   -1.0843    2.3099   -1.0372 H   0  0  0  0  0  0  0  0  0  0  0  0
    0.9355   -0.7625   -1.8447 H   0  0  0  0  0  0  0  0  0  0  0  0
    1.1339   -1.4652    1.1594 H   0  0  0  0  0  0  0  0  0  0  0  0
    1.3706   -2.6667   -0.1159 H   0  0  0  0  0  0  0  0  0  0  0  0
    2.4861   -1.3067    0.0333 H   0  0  0  0  0  0  0  0  0  0  0  0
   -1.4891   -0.7216   -1.6326 H   0  0  0  0  0  0  0  0  0  0  0  0
   -1.2044   -1.4173    1.3645 H   0  0  0  0  0  0  0  0  0  0  0  0
   -2.7119   -1.1643    0.4913 H   0  0  0  0  0  0  0  0  0  0  0  0
   -1.7349   -2.5978    0.1504 H   0  0  0  0  0  0  0  0  0  0  0  0
  1 11  1  0  0  0  0
  2  1  1  0  0  0  0
  3  5  1  6  0  0  0
  3  2  1  0  0  0  0
  4 12  1  0  0  0  0
  4 14  1  0  0  0  0
  4  3  1  0  0  0  0
  5  7  1  6  0  0  0
  5  6  1  0  0  0  0
  6 16  1  0  0  0  0
  7  3  1  1  0  0  0
  7  8  1  0  0  0  0
  8 21  1  0  0  0  0
  8 20  1  0  0  0  0
  9  1  1  0  0  0  0
 10  1  1  0  0  0  0
 13  4  1  0  0  0  0
 15  5  1  0  0  0  0
 17  6  1  0  0  0  0
 18  6  1  0  0  0  0
 19  7  1  0  0  0  0
 22  8  1  0  0  0  0
M  END
