22
title
C 1.0168737 1.5423747 1.4017291
O -0.11453561 0.79833364 0.9911409
C -0.15341154 0.47926527 -0.37573
C -0.23822144 1.6688619 -1.3087391
C 0.5678564 -0.78408676 -0.8208342
C 1.4332358 -1.5977778 0.11786644
C -0.9518146 -0.7613173 -0.687547
C -1.6843506 -1.5302417 0.39178663
H 1.9565283 1.0666852 1.0901018
H 1.0011455 2.569903 1.0132107
H 0.9859746 1.5856477 2.4934661
H 0.6718567 2.278348 -1.2879143
H -0.38179997 1.332721 -2.3392875
H -1.0843039 2.309879 -1.0371504
H 0.9354773 -0.76252586 -1.8447005
H 1.1338784 -1.4652262 1.1593987
H 1.3706459 -2.666695 -0.11585523
H 2.4860697 -1.3067188 0.033317637
H -1.4891483 -0.72163254 -1.6325909
H -1.2043952 -1.4173324 1.3644913
H -2.7119248 -1.1642616 0.49126053
H -1.7349327 -2.5977879 0.1503972
