20
title
C -0.47336403 2.0844672 0.90381706
O -0.0362324 0.7353097 1.0139534
C 0.58736694 0.22557634 -0.14378361
C 1.8148401 0.9653781 -0.6212911
C 0.53595805 -1.2892433 -0.23677664
C -0.008899983 -2.1541557 0.8782436
C -0.37789637 -0.4385264 -1.1053298
O -1.7470818 -0.3700316 -0.8378965
H 0.36909166 2.7870586 0.88228124
H -1.0877408 2.2402759 0.007388194
H -1.0742321 2.290585 1.7930346
H 2.572962 1.0097605 0.16894765
H 2.2513642 0.4475158 -1.4797463
H 1.5887389 1.9887457 -0.93890077
H 1.3861676 -1.7232302 -0.75850743
H -0.861672 -1.6912483 1.3768371
H -0.33498544 -3.1228836 0.48579094
H 0.75555736 -2.3376157 1.6401736
H -0.19132254 -0.38888538 -2.1739066
H -1.8299521 -0.07087964 0.076258026
