title
 OpenBabel02282109593D

 20 20  0  0  1  0  0  0  0  0999 V2000
   -0.4734    2.0845    0.9038 C   0  0  0  0  0  0  0  0  0  0  0  0
   -0.0362    0.7353    1.0140 O   0  0  0  0  0  0  0  0  0  0  0  0
    0.5874    0.2256   -0.1438 C   0  0  1  0  0  0  0  0  0  0  0  0
    1.8148    0.9654   -0.6213 C   0  0  0  0  0  0  0  0  0  0  0  0
    0.5360   -1.2892   -0.2368 C   0  0  1  0  0  0  0  0  0  0  0  0
   -0.0089   -2.1542    0.8782 C   0  0  0  0  0  0  0  0  0  0  0  0
   -0.3779   -0.4385   -1.1053 C   0  0  1  0  0  0  0  0  0  0  0  0
   -1.7471   -0.3700   -0.8379 O   0  0  0  0  0  0  0  0  0  0  0  0
    0.3691    2.7871    0.8823 H   0  0  0  0  0  0  0  0  0  0  0  0
   -1.0877    2.2403    0.0074 H   0  0  0  0  0  0  0  0  0  0  0  0
   -1.0742    2.2906    1.7930 H   0  0  0  0  0  0  0  0  0  0  0  0
    2.5730    1.0098    0.1689 H   0  0  0  0  0  0  0  0  0  0  0  0
    2.2514    0.4475   -1.4797 H   0  0  0  0  0  0  0  0  0  0  0  0
    1.5887    1.9887   -0.9389 H   0  0  0  0  0  0  0  0  0  0  0  0
    1.3862   -1.7232   -0.7585 H   0  0  0  0  0  0  0  0  0  0  0  0
   -0.8617   -1.6912    1.3768 H   0  0  0  0  0  0  0  0  0  0  0  0
   -0.3350   -3.1229    0.4858 H   0  0  0  0  0  0  0  0  0  0  0  0
    0.7556   -2.3376    1.6402 H   0  0  0  0  0  0  0  0  0  0  0  0
   -0.1913   -0.3889   -2.1739 H   0  0  0  0  0  0  0  0  0  0  0  0
   -1.8300   -0.0709    0.0763 H   0  0  0  0  0  0  0  0  0  0  0  0
  1  2  1  0  0  0  0
  1 11  1  0  0  0  0
  3  7  1  6  0  0  0
  3  2  1  0  0  0  0
  4  3  1  0  0  0  0
  4 12  1  0  0  0  0
  5  7  1  6  0  0  0
  5  3  1  0  0  0  0
  5  6  1  0  0  0  0
  6 16  1  0  0  0  0
  6 18  1  0  0  0  0
  7 19  1  6  0  0  0
  7  8  1  0  0  0  0
  8 20  1  0  0  0  0
  9  1  1  0  0  0  0
 10  1  1  0  0  0  0
 13  4  1  0  0  0  0
 14  4  1  0  0  0  0
 15  5  1  0  0  0  0
 17  6  1  0  0  0  0
M  END
