16
title
O 1.0995529 2.113563 0.08189056
C 1.0708325 0.777154 0.58517015
C -0.3271055 0.2227625 0.46641913
O -1.2812856 0.9446757 1.1906053
C -0.79550546 -0.34822908 -0.8608103
O 0.17628632 -0.44498304 -1.878324
C -0.5963089 -1.2547551 0.34269848
O 0.45949754 -2.1655214 0.30542836
H 1.0128818 2.0493236 -0.8760779
H 1.8032624 0.13711342 0.0846244
H 1.3402435 0.84665716 1.6433039
H -1.1190883 1.8737592 0.97642106
H -1.8028084 -0.09670207 -1.183782
H -0.14901634 -1.0588186 -2.546541
H -1.4724766 -1.6393975 0.8567933
H 0.90268934 -2.0324254 -0.543529
