title
 OpenBabel02282109593D

 16 16  0  0  1  0  0  0  0  0999 V2000
    1.0996    2.1136    0.0819 O   0  0  0  0  0  0  0  0  0  0  0  0
    1.0708    0.7772    0.5852 C   0  0  0  0  0  0  0  0  0  0  0  0
   -0.3271    0.2228    0.4664 C   0  0  1  0  0  0  0  0  0  0  0  0
   -1.2813    0.9447    1.1906 O   0  0  0  0  0  0  0  0  0  0  0  0
   -0.7955   -0.3482   -0.8608 C   0  0  1  0  0  0  0  0  0  0  0  0
    0.1763   -0.4450   -1.8783 O   0  0  0  0  0  0  0  0  0  0  0  0
   -0.5963   -1.2548    0.3427 C   0  0  1  0  0  0  0  0  0  0  0  0
    0.4595   -2.1655    0.3054 O   0  0  0  0  0  0  0  0  0  0  0  0
    1.0129    2.0493   -0.8761 H   0  0  0  0  0  0  0  0  0  0  0  0
    1.8033    0.1371    0.0846 H   0  0  0  0  0  0  0  0  0  0  0  0
    1.3402    0.8467    1.6433 H   0  0  0  0  0  0  0  0  0  0  0  0
   -1.1191    1.8738    0.9764 H   0  0  0  0  0  0  0  0  0  0  0  0
   -1.8028   -0.0967   -1.1838 H   0  0  0  0  0  0  0  0  0  0  0  0
   -0.1490   -1.0588   -2.5465 H   0  0  0  0  0  0  0  0  0  0  0  0
   -1.4725   -1.6394    0.8568 H   0  0  0  0  0  0  0  0  0  0  0  0
    0.9027   -2.0324   -0.5435 H   0  0  0  0  0  0  0  0  0  0  0  0
  1  2  1  0  0  0  0
  2 11  1  0  0  0  0
  3  5  1  6  0  0  0
  3  2  1  0  0  0  0
  3  4  1  0  0  0  0
  5  7  1  1  0  0  0
  6  5  1  0  0  0  0
  7  3  1  1  0  0  0
  7 15  1  0  0  0  0
  8  7  1  0  0  0  0
  9  1  1  0  0  0  0
 10  2  1  0  0  0  0
 12  4  1  0  0  0  0
 13  5  1  0  0  0  0
 14  6  1  0  0  0  0
 16  8  1  0  0  0  0
M  END
