title
 OpenBabel02282109593D

 13 12  0  0  0  0  0  0  0  0999 V2000
   -0.5622   -2.4402   -0.0078 C   0  0  0  0  0  0  0  0  0  0  0  0
   -0.5821   -1.2406   -0.0289 C   0  0  0  0  0  0  0  0  0  0  0  0
   -0.5773    0.2238   -0.0470 C   0  0  0  0  0  0  0  0  0  0  0  0
    0.8807    0.7887   -0.0149 C   0  0  0  0  0  0  0  0  0  0  0  0
    1.5948    0.4257    1.2055 C   0  0  0  0  0  0  0  0  0  0  0  0
    2.1526    0.1516    2.1792 N   0  0  0  0  0  0  0  0  0  0  0  0
   -1.2832    0.7589   -1.2142 C   0  0  0  0  0  0  0  0  0  0  0  0
   -1.8374    1.2233   -2.1723 C   0  0  0  0  0  0  0  0  0  0  0  0
   -0.5509   -3.5023    0.0167 H   0  0  0  0  0  0  0  0  0  0  0  0
   -1.0837    0.5827    0.8594 H   0  0  0  0  0  0  0  0  0  0  0  0
    1.4288    0.4153   -0.8843 H   0  0  0  0  0  0  0  0  0  0  0  0
    0.8366    1.8790   -0.0945 H   0  0  0  0  0  0  0  0  0  0  0  0
   -2.3416    1.6221   -3.0181 H   0  0  0  0  0  0  0  0  0  0  0  0
  1  9  1  0  0  0  0
  2  1  3  0  0  0  0
  3  2  1  0  0  0  0
  3  4  1  0  0  0  0
  3 10  1  0  0  0  0
  4  5  1  0  0  0  0
  5  6  3  0  0  0  0
  7  3  1  0  0  0  0
  8  7  3  0  0  0  0
 11  4  1  0  0  0  0
 12  4  1  0  0  0  0
 13  8  1  0  0  0  0
M  END
