14
title
C -1.1453652 -2.8800802 0.4481047
C -1.1393216 -1.6791658 0.41456345
C -1.1118702 -0.22470231 0.3960474
C 0.34223095 0.35493428 0.33843195
C 1.0256146 -0.02210672 -0.9012936
C 1.5731584 -0.33585137 -1.9224288
C 0.3107511 1.8097956 0.51391447
C 0.24995926 2.9983795 0.67342424
H -1.158479 -3.9416404 0.46731928
H -1.6707038 0.16092853 -0.46284539
H -1.592901 0.17434053 1.2956125
H 0.89302194 -0.08367367 1.1816179
H 2.0628874 -0.6137685 -2.8228033
H 0.21315125 4.0511637 0.8086229
