title
 OpenBabel02282109593D

 13 12  0  0  1  0  0  0  0  0999 V2000
   -1.1474   -2.8706   -0.4332 C   0  0  0  0  0  0  0  0  0  0  0  0
   -1.1607   -1.6700   -0.4049 C   0  0  0  0  0  0  0  0  0  0  0  0
   -1.1420   -0.2161   -0.3823 C   0  0  0  0  0  0  0  0  0  0  0  0
    0.3112    0.3651   -0.3640 C   0  0  1  0  0  0  0  0  0  0  0  0
    0.2959    1.8217   -0.4949 C   0  0  0  0  0  0  0  0  0  0  0  0
    0.2462    3.0142   -0.6184 C   0  0  0  0  0  0  0  0  0  0  0  0
    1.0294   -0.0469    0.8530 C   0  0  0  0  0  0  0  0  0  0  0  0
    1.5887   -0.3714    1.8095 N   0  0  0  0  0  0  0  0  0  0  0  0
   -1.1457   -3.9327   -0.4463 H   0  0  0  0  0  0  0  0  0  0  0  0
   -1.6397    0.1898   -1.2690 H   0  0  0  0  0  0  0  0  0  0  0  0
   -1.6811    0.1673    0.4900 H   0  0  0  0  0  0  0  0  0  0  0  0
    0.8487   -0.0680   -1.2173 H   0  0  0  0  0  0  0  0  0  0  0  0
    0.2181    4.0713   -0.7223 H   0  0  0  0  0  0  0  0  0  0  0  0
  1  2  3  0  0  0  0
  2  3  1  0  0  0  0
  3  4  1  0  0  0  0
  3 11  1  0  0  0  0
  4 12  1  6  0  0  0
  4  7  1  0  0  0  0
  5  4  1  0  0  0  0
  6  5  3  0  0  0  0
  7  8  3  0  0  0  0
  9  1  1  0  0  0  0
 10  3  1  0  0  0  0
 13  6  1  0  0  0  0
M  END
