13
title
C -1.1473644 -2.870625 -0.43320698
C -1.160734 -1.670041 -0.40487146
C -1.1419662 -0.21611947 -0.38225824
C 0.31119162 0.3650592 -0.36401278
C 0.29593664 1.8216578 -0.49487922
C 0.2461986 3.0142236 -0.6184231
C 1.0293658 -0.04690414 0.8530261
N 1.5886776 -0.3714214 1.8095284
H -1.1457367 -3.932725 -0.44627196
H -1.6396765 0.18983632 -1.2690324
H -1.6810746 0.16730481 0.48996428
H 0.8486963 -0.06799107 -1.2172645
H 0.21808761 4.071269 -0.72233987
