13
title
O -1.8124796 -1.8302807 -0.59120226
C -1.1985272 -1.472423 0.37419912
C -0.01149954 -0.49243644 0.29873404
C 0.08823465 0.18819866 -1.0881999
C 1.3345847 0.9174241 -1.2646902
C 2.3736575 1.5069581 -1.3880335
C -0.09549321 0.45745715 1.4074239
N -0.2067783 1.1894513 2.2944286
H -1.4272647 -1.8396477 1.3952487
H 0.88923216 -1.1034808 0.461498
H -0.016749993 -0.5977136 -1.8424929
H -0.7708007 0.85486233 -1.2196769
H 3.2852294 2.0388725 -1.5072302
