14
title
N 1.3560393 2.1498518 -0.3124596
C 1.207244 0.9010651 -0.1443872
N -0.0056579793 0.24888901 -0.3731682
C -0.07038016 -1.2150043 -0.27992618
C 0.3611883 -1.7291557 1.0154625
C 0.7345566 -2.156185 2.0742993
C -1.1627463 0.9439546 -0.69967526
O -2.2221575 0.40773493 -0.92958874
H 2.3058386 2.428316 -0.07771064
H 1.980265 0.20489024 0.1955987
H -1.1150998 -1.4733869 -0.4739728
H 0.5310124 -1.6644286 -1.0800825
H 1.048427 -2.538235 3.0145261
H -0.9931105 2.0281572 -0.72004706
