title
 OpenBabel02282109593D

 14 13  0  0  0  0  0  0  0  0999 V2000
    1.2634    2.2355   -0.3641 N   0  0  0  0  0  0  0  0  0  0  0  0
    1.1998    0.9694   -0.3046 C   0  0  0  0  0  0  0  0  0  0  0  0
   -0.0003    0.2731   -0.4132 N   0  0  0  0  0  0  0  0  0  0  0  0
    0.0068   -1.1834   -0.3801 C   0  0  0  0  0  0  0  0  0  0  0  0
    0.3956   -1.7229    0.9294 C   0  0  0  0  0  0  0  0  0  0  0  0
    0.7272   -2.1469    1.9514 N   0  0  0  0  0  0  0  0  0  0  0  0
   -1.2149    0.9390   -0.5477 C   0  0  0  0  0  0  0  0  0  0  0  0
   -2.3064    0.2987   -0.6641 N   0  0  0  0  0  0  0  0  0  0  0  0
    2.2243    2.5507   -0.2591 H   0  0  0  0  0  0  0  0  0  0  0  0
    2.0491    0.2926   -0.1634 H   0  0  0  0  0  0  0  0  0  0  0  0
   -1.0101   -1.5056   -0.6201 H   0  0  0  0  0  0  0  0  0  0  0  0
    0.6837   -1.5850   -1.1422 H   0  0  0  0  0  0  0  0  0  0  0  0
   -1.0781    2.0201   -0.5401 H   0  0  0  0  0  0  0  0  0  0  0  0
   -3.0901    0.9410   -0.7517 H   0  0  0  0  0  0  0  0  0  0  0  0
  1  2  2  0  0  0  0
  1  9  1  0  0  0  0
  2 10  1  0  0  0  0
  3  4  1  0  0  0  0
  3  2  1  0  0  0  0
  4  5  1  0  0  0  0
  5  6  3  0  0  0  0
  7 13  1  0  0  0  0
  7  3  1  0  0  0  0
  8  7  2  0  0  0  0
 11  4  1  0  0  0  0
 12  4  1  0  0  0  0
 14  8  1  0  0  0  0
M  END
