title
 OpenBabel02282109593D

 13 12  0  0  0  0  0  0  0  0999 V2000
    1.3055    2.1995   -0.3526 N   0  0  0  0  0  0  0  0  0  0  0  0
    1.2060    0.9447   -0.2153 C   0  0  0  0  0  0  0  0  0  0  0  0
   -0.0086    0.2684   -0.3816 N   0  0  0  0  0  0  0  0  0  0  0  0
   -0.0419   -1.1889   -0.3298 C   0  0  0  0  0  0  0  0  0  0  0  0
    0.4030   -1.7225    0.9620 C   0  0  0  0  0  0  0  0  0  0  0  0
    0.7799   -2.1405    1.9705 N   0  0  0  0  0  0  0  0  0  0  0  0
   -1.2063    0.9416   -0.6132 C   0  0  0  0  0  0  0  0  0  0  0  0
   -2.2597    0.3761   -0.7844 O   0  0  0  0  0  0  0  0  0  0  0  0
    2.2593    2.5060   -0.1767 H   0  0  0  0  0  0  0  0  0  0  0  0
    2.0203    0.2605    0.0454 H   0  0  0  0  0  0  0  0  0  0  0  0
   -1.0813   -1.4759   -0.5131 H   0  0  0  0  0  0  0  0  0  0  0  0
    0.5749   -1.6240   -1.1243 H   0  0  0  0  0  0  0  0  0  0  0  0
   -1.0657    2.0294   -0.6198 H   0  0  0  0  0  0  0  0  0  0  0  0
  1  2  2  0  0  0  0
  1  9  1  0  0  0  0
  2 10  1  0  0  0  0
  3  4  1  0  0  0  0
  3  2  1  0  0  0  0
  4  5  1  0  0  0  0
  5  6  3  0  0  0  0
  7  3  1  0  0  0  0
  8  7  2  0  0  0  0
 11  4  1  0  0  0  0
 12  4  1  0  0  0  0
 13  7  1  0  0  0  0
M  END
