13
title
O -1.9354132 -1.6454681 -0.48581007
C -1.1415316 -1.388424 0.37823936
C 0.027249182 -0.419231 0.18288442
C -0.04338137 0.27540785 -1.1855183
C 1.1508669 1.0671716 -1.4671128
N 2.1032465 1.6901016 -1.6671448
C 0.07476767 0.5418654 1.3738716
O 0.12649092 0.15779619 2.511172
H -1.1923597 -1.8295599 1.3924984
H 0.9378522 -1.0301323 0.26198196
H -0.18129686 -0.47559494 -1.9681213
H -0.92444855 0.92515093 -1.2327107
H 0.035232984 1.622128 1.1172365
