title
 OpenBabel02282109593D

 13 12  0  0  0  0  0  0  0  0999 V2000
   -1.3933   -1.8824   -0.4608 O   0  0  0  0  0  0  0  0  0  0  0  0
   -1.2348   -0.6959   -0.4434 C   0  0  0  0  0  0  0  0  0  0  0  0
   -0.0040   -0.0202   -0.4626 N   0  0  0  0  0  0  0  0  0  0  0  0
   -0.0232    1.4477   -0.3916 C   0  0  0  0  0  0  0  0  0  0  0  0
   -0.0176    1.9679    0.9736 C   0  0  0  0  0  0  0  0  0  0  0  0
   -0.0128    2.3842    2.0999 C   0  0  0  0  0  0  0  0  0  0  0  0
    1.2448   -0.6624   -0.4662 C   0  0  0  0  0  0  0  0  0  0  0  0
    1.4349   -1.8441   -0.4868 O   0  0  0  0  0  0  0  0  0  0  0  0
   -2.0718    0.0303   -0.4173 H   0  0  0  0  0  0  0  0  0  0  0  0
    0.8416    1.8292   -0.9443 H   0  0  0  0  0  0  0  0  0  0  0  0
   -0.9080    1.8056   -0.9281 H   0  0  0  0  0  0  0  0  0  0  0  0
   -0.0085    2.7522    3.0967 H   0  0  0  0  0  0  0  0  0  0  0  0
    2.0622    0.0862   -0.4553 H   0  0  0  0  0  0  0  0  0  0  0  0
  1  2  2  0  0  0  0
  2  9  1  0  0  0  0
  3  2  1  0  0  0  0
  3  4  1  0  0  0  0
  4  5  1  0  0  0  0
  5  6  3  0  0  0  0
  6 12  1  0  0  0  0
  7  3  1  0  0  0  0
  7 13  1  0  0  0  0
  8  7  2  0  0  0  0
 10  4  1  0  0  0  0
 11  4  1  0  0  0  0
M  END
