title
 OpenBabel02282109593D

 12 11  0  0  0  0  0  0  0  0999 V2000
   -1.3581   -2.1318   -0.3261 O   0  0  0  0  0  0  0  0  0  0  0  0
   -1.2459   -0.9365   -0.2679 C   0  0  0  0  0  0  0  0  0  0  0  0
   -0.0362   -0.2490   -0.4063 N   0  0  0  0  0  0  0  0  0  0  0  0
    0.0018    1.2107   -0.3484 C   0  0  0  0  0  0  0  0  0  0  0  0
   -0.3049    1.7350    0.9866 C   0  0  0  0  0  0  0  0  0  0  0  0
   -0.5676    2.1482    2.0324 N   0  0  0  0  0  0  0  0  0  0  0  0
    1.1640   -0.9408   -0.6146 C   0  0  0  0  0  0  0  0  0  0  0  0
    2.2241   -0.3880   -0.7604 O   0  0  0  0  0  0  0  0  0  0  0  0
   -2.0931   -0.2472   -0.0993 H   0  0  0  0  0  0  0  0  0  0  0  0
    1.0158    1.5030   -0.6347 H   0  0  0  0  0  0  0  0  0  0  0  0
   -0.6967    1.6423   -1.0726 H   0  0  0  0  0  0  0  0  0  0  0  0
    1.0066   -2.0265   -0.6311 H   0  0  0  0  0  0  0  0  0  0  0  0
  1  2  2  0  0  0  0
  2  9  1  0  0  0  0
  3  4  1  0  0  0  0
  3  2  1  0  0  0  0
  4  5  1  0  0  0  0
  5  6  3  0  0  0  0
  7  3  1  0  0  0  0
  8  7  2  0  0  0  0
 10  4  1  0  0  0  0
 11  4  1  0  0  0  0
 12  7  1  0  0  0  0
M  END
