title
 OpenBabel02282109593D

 12 11  0  0  0  0  0  0  0  0999 V2000
    2.9748   -0.7467    0.0766 N   0  0  0  0  0  0  0  0  0  0  0  0
    2.9789   -1.7380   -0.1115 H   0  0  0  0  0  0  0  0  0  0  0  0
    3.8121   -0.2644   -0.2070 H   0  0  0  0  0  0  0  0  0  0  0  0
    1.8094   -0.0490   -0.0075 C   0  0  0  0  0  0  0  0  0  0  0  0
    0.6272   -0.6002   -0.0026 N   0  0  0  0  0  0  0  0  0  0  0  0
   -0.6402    0.0297   -0.0009 C   0  0  0  0  0  0  0  0  0  0  0  0
   -0.6576    1.4230    0.0049 C   0  0  0  0  0  0  0  0  0  0  0  0
   -0.5537    2.5849    0.0087 N   0  0  0  0  0  0  0  0  0  0  0  0
   -1.7538   -0.8109   -0.0216 C   0  0  0  0  0  0  0  0  0  0  0  0
   -2.6465   -1.5605   -0.0380 N   0  0  0  0  0  0  0  0  0  0  0  0
    1.8594    1.0328   -0.0169 H   0  0  0  0  0  0  0  0  0  0  0  0
    0.5684   -1.6130    0.0136 H   0  0  0  0  0  0  0  0  0  0  0  0
  2  1  1  0  0  0  0
  3  1  1  0  0  0  0
  4  5  1  0  0  0  0
  4  1  2  0  0  0  0
  5  6  2  0  0  0  0
  5 12  1  0  0  0  0
  6  7  1  0  0  0  0
  7  8  3  0  0  0  0
  9  6  1  0  0  0  0
 10  9  3  0  0  0  0
 11  4  1  0  0  0  0
M  END
