title
 OpenBabel02282109593D

 13 12  0  0  0  0  0  0  0  0999 V2000
    1.1143    2.7831   -0.1243 N   0  0  0  0  0  0  0  0  0  0  0  0
    1.1275    1.5241   -0.1365 C   0  0  0  0  0  0  0  0  0  0  0  0
   -0.0279    0.8465   -0.3403 O   0  0  0  0  0  0  0  0  0  0  0  0
    0.0702   -0.5866   -0.2587 C   0  0  0  0  0  0  0  0  0  0  0  0
    0.1634   -1.0402    1.1339 C   0  0  0  0  0  0  0  0  0  0  0  0
    0.2690   -1.3982    2.2747 C   0  0  0  0  0  0  0  0  0  0  0  0
   -1.0873   -1.1582   -0.9436 C   0  0  0  0  0  0  0  0  0  0  0  0
   -2.0182   -1.6558   -1.5130 C   0  0  0  0  0  0  0  0  0  0  0  0
    2.0563    3.1418    0.0174 H   0  0  0  0  0  0  0  0  0  0  0  0
    2.0029    0.8742   -0.0047 H   0  0  0  0  0  0  0  0  0  0  0  0
    0.9798   -0.9071   -0.7909 H   0  0  0  0  0  0  0  0  0  0  0  0
    0.3501   -1.7157    3.2854 H   0  0  0  0  0  0  0  0  0  0  0  0
   -2.8495   -2.0881   -2.0138 H   0  0  0  0  0  0  0  0  0  0  0  0
  1  9  1  0  0  0  0
  2  1  2  0  0  0  0
  2 10  1  0  0  0  0
  3  4  1  0  0  0  0
  3  2  1  0  0  0  0
  4  5  1  0  0  0  0
  5  6  3  0  0  0  0
  6 12  1  0  0  0  0
  7  4  1  0  0  0  0
  8  7  3  0  0  0  0
 11  4  1  0  0  0  0
 13  8  1  0  0  0  0
M  END
