title
 OpenBabel02282109593D

 12 11  0  0  1  0  0  0  0  0999 V2000
    1.1118    2.7930    0.1511 N   0  0  0  0  0  0  0  0  0  0  0  0
    1.1389    1.5377    0.1554 C   0  0  0  0  0  0  0  0  0  0  0  0
   -0.0251    0.8517    0.3347 O   0  0  0  0  0  0  0  0  0  0  0  0
    0.0703   -0.5686    0.2653 C   0  0  1  0  0  0  0  0  0  0  0  0
   -1.0722   -1.1591    0.9525 C   0  0  0  0  0  0  0  0  0  0  0  0
   -1.9940   -1.6700    1.5238 C   0  0  0  0  0  0  0  0  0  0  0  0
    0.1385   -1.0227   -1.1440 C   0  0  0  0  0  0  0  0  0  0  0  0
    0.2289   -1.3688   -2.2416 N   0  0  0  0  0  0  0  0  0  0  0  0
    2.0487    3.1701    0.0260 H   0  0  0  0  0  0  0  0  0  0  0  0
    2.0176    0.8901    0.0372 H   0  0  0  0  0  0  0  0  0  0  0  0
    0.9964   -0.9045    0.7570 H   0  0  0  0  0  0  0  0  0  0  0  0
   -2.8177   -2.1151    2.0271 H   0  0  0  0  0  0  0  0  0  0  0  0
  1  2  2  0  0  0  0
  2  3  1  0  0  0  0
  4  3  1  0  0  0  0
  4 11  1  1  0  0  0
  4  5  1  0  0  0  0
  5  6  3  0  0  0  0
  6 12  1  0  0  0  0
  7  4  1  0  0  0  0
  8  7  3  0  0  0  0
  9  1  1  0  0  0  0
 10  2  1  0  0  0  0
M  END
