title
 OpenBabel02282109593D

 14 13  0  0  0  0  0  0  0  0999 V2000
   -1.0445   -2.8243    0.6726 O   0  0  0  0  0  0  0  0  0  0  0  0
   -1.0140   -1.6243    0.5820 C   0  0  0  0  0  0  0  0  0  0  0  0
    0.2662   -0.8128    0.5755 C   0  0  0  0  0  0  0  0  0  0  0  0
    0.2798    0.3012   -0.5157 C   0  0  0  0  0  0  0  0  0  0  0  0
   -0.7960    1.2778   -0.3085 C   0  0  0  0  0  0  0  0  0  0  0  0
   -1.6838    2.0656   -0.1258 C   0  0  0  0  0  0  0  0  0  0  0  0
    1.5913    0.9534   -0.5587 C   0  0  0  0  0  0  0  0  0  0  0  0
    2.6787    1.4617   -0.5807 C   0  0  0  0  0  0  0  0  0  0  0  0
   -1.9478   -1.0258    0.5076 H   0  0  0  0  0  0  0  0  0  0  0  0
    0.3715   -0.3306    1.5555 H   0  0  0  0  0  0  0  0  0  0  0  0
    1.1130   -1.4874    0.4333 H   0  0  0  0  0  0  0  0  0  0  0  0
    0.1143   -0.1854   -1.4883 H   0  0  0  0  0  0  0  0  0  0  0  0
   -2.4642    2.7700    0.0271 H   0  0  0  0  0  0  0  0  0  0  0  0
    3.6356    1.9218   -0.6074 H   0  0  0  0  0  0  0  0  0  0  0  0
  2  1  2  0  0  0  0
  3  2  1  0  0  0  0
  3 10  1  0  0  0  0
  4  5  1  0  0  0  0
  4  3  1  0  0  0  0
  5  6  3  0  0  0  0
  6 13  1  0  0  0  0
  7  4  1  0  0  0  0
  8  7  3  0  0  0  0
  9  2  1  0  0  0  0
 11  3  1  0  0  0  0
 12  4  1  0  0  0  0
 14  8  1  0  0  0  0
M  END
