title
 OpenBabel02282109593D

 13 12  0  0  1  0  0  0  0  0999 V2000
   -1.7499   -1.6797    1.9022 O   0  0  0  0  0  0  0  0  0  0  0  0
   -1.1566   -1.3694    0.9033 C   0  0  0  0  0  0  0  0  0  0  0  0
    0.0988   -0.5144    0.9086 C   0  0  0  0  0  0  0  0  0  0  0  0
    0.0621    0.6389   -0.1387 C   0  0  1  0  0  0  0  0  0  0  0  0
    1.2467    1.4893   -0.0285 C   0  0  0  0  0  0  0  0  0  0  0  0
    2.2214    2.1780    0.0939 C   0  0  0  0  0  0  0  0  0  0  0  0
   -0.0758    0.1077   -1.5065 C   0  0  0  0  0  0  0  0  0  0  0  0
   -0.1972   -0.3291   -2.5687 N   0  0  0  0  0  0  0  0  0  0  0  0
   -1.4924   -1.7101   -0.1003 H   0  0  0  0  0  0  0  0  0  0  0  0
    0.2382   -0.0935    1.9060 H   0  0  0  0  0  0  0  0  0  0  0  0
    0.9574   -1.1583    0.6819 H   0  0  0  0  0  0  0  0  0  0  0  0
   -0.8288    1.2518    0.0572 H   0  0  0  0  0  0  0  0  0  0  0  0
    3.0826    2.7930    0.1907 H   0  0  0  0  0  0  0  0  0  0  0  0
  2  3  1  0  0  0  0
  2  1  2  0  0  0  0
  3 10  1  0  0  0  0
  4  5  1  0  0  0  0
  4 12  1  1  0  0  0
  4  3  1  0  0  0  0
  5  6  3  0  0  0  0
  6 13  1  0  0  0  0
  7  4  1  0  0  0  0
  8  7  3  0  0  0  0
  9  2  1  0  0  0  0
 11  3  1  0  0  0  0
M  END
