title
 OpenBabel02282109593D

 13 12  0  0  0  0  0  0  0  0999 V2000
   -2.0885   -1.1619    0.9855 O   0  0  0  0  0  0  0  0  0  0  0  0
   -2.0671   -0.0708    0.4595 C   0  0  0  0  0  0  0  0  0  0  0  0
   -0.9556    0.5254   -0.0548 N   0  0  0  0  0  0  0  0  0  0  0  0
    0.3540   -0.1254   -0.0135 C   0  0  0  0  0  0  0  0  0  0  0  0
    0.8708   -0.3813   -1.3640 C   0  0  0  0  0  0  0  0  0  0  0  0
    1.2848   -0.5835   -2.4725 C   0  0  0  0  0  0  0  0  0  0  0  0
    1.3132    0.6451    0.7882 C   0  0  0  0  0  0  0  0  0  0  0  0
    2.0897    1.2840    1.4437 C   0  0  0  0  0  0  0  0  0  0  0  0
   -2.9644    0.5658    0.3406 H   0  0  0  0  0  0  0  0  0  0  0  0
   -1.0228    1.4382   -0.4766 H   0  0  0  0  0  0  0  0  0  0  0  0
    0.1581   -1.0849    0.4844 H   0  0  0  0  0  0  0  0  0  0  0  0
    1.6554   -0.7716   -3.4500 H   0  0  0  0  0  0  0  0  0  0  0  0
    2.7812    1.8404    2.0273 H   0  0  0  0  0  0  0  0  0  0  0  0
  2  1  2  0  0  0  0
  3  4  1  0  0  0  0
  3  2  1  0  0  0  0
  4 11  1  0  0  0  0
  4  7  1  0  0  0  0
  5  4  1  0  0  0  0
  6  5  3  0  0  0  0
  7  8  3  0  0  0  0
  8 13  1  0  0  0  0
  9  2  1  0  0  0  0
 10  3  1  0  0  0  0
 12  6  1  0  0  0  0
M  END
