title
 OpenBabel02282109593D

 12 11  0  0  0  0  0  0  0  0999 V2000
   -1.1166   -2.7343   -0.4667 O   0  0  0  0  0  0  0  0  0  0  0  0
   -1.0817   -1.5440   -0.4787 C   0  0  0  0  0  0  0  0  0  0  0  0
   -0.0297   -0.8450    0.0059 O   0  0  0  0  0  0  0  0  0  0  0  0
   -0.1006    0.5975   -0.0624 C   0  0  0  0  0  0  0  0  0  0  0  0
   -0.0607    1.1512    1.2904 C   0  0  0  0  0  0  0  0  0  0  0  0
   -0.0486    1.6164    2.3961 C   0  0  0  0  0  0  0  0  0  0  0  0
    0.9856    1.0988   -0.9033 C   0  0  0  0  0  0  0  0  0  0  0  0
    1.8608    1.5208   -1.6070 C   0  0  0  0  0  0  0  0  0  0  0  0
   -1.8850   -0.8934   -0.8771 H   0  0  0  0  0  0  0  0  0  0  0  0
   -1.0599    0.8751   -0.5267 H   0  0  0  0  0  0  0  0  0  0  0  0
   -0.0300    2.0241    3.3773 H   0  0  0  0  0  0  0  0  0  0  0  0
    2.6421    1.8904   -2.2252 H   0  0  0  0  0  0  0  0  0  0  0  0
  2  1  2  0  0  0  0
  2  3  1  0  0  0  0
  4  3  1  0  0  0  0
  4  5  1  0  0  0  0
  5  6  3  0  0  0  0
  6 11  1  0  0  0  0
  7  4  1  0  0  0  0
  8  7  3  0  0  0  0
  9  2  1  0  0  0  0
 10  4  1  0  0  0  0
 12  8  1  0  0  0  0
M  END
