title
 OpenBabel02282109593D

 13 12  0  0  1  0  0  0  0  0999 V2000
    0.9203    2.9332   -0.1654 N   0  0  0  0  0  0  0  0  0  0  0  0
    1.0134    1.6803   -0.2288 C   0  0  0  0  0  0  0  0  0  0  0  0
   -0.1167    0.9305   -0.2919 O   0  0  0  0  0  0  0  0  0  0  0  0
    0.0459   -0.4872   -0.2024 C   0  0  1  0  0  0  0  0  0  0  0  0
   -0.1339   -0.8990    1.2749 C   0  0  0  0  0  0  0  0  0  0  0  0
    0.6319   -1.6130    1.8586 O   0  0  0  0  0  0  0  0  0  0  0  0
   -0.9665   -1.1483   -1.0105 C   0  0  0  0  0  0  0  0  0  0  0  0
   -1.8218   -1.7368   -1.6143 C   0  0  0  0  0  0  0  0  0  0  0  0
    1.8464    3.3550   -0.1514 H   0  0  0  0  0  0  0  0  0  0  0  0
    1.9355    1.0844   -0.2545 H   0  0  0  0  0  0  0  0  0  0  0  0
    1.0534   -0.7916   -0.5136 H   0  0  0  0  0  0  0  0  0  0  0  0
   -1.0344   -0.4523    1.7440 H   0  0  0  0  0  0  0  0  0  0  0  0
   -2.5694   -2.2481   -2.1701 H   0  0  0  0  0  0  0  0  0  0  0  0
  1  9  1  0  0  0  0
  2  1  2  0  0  0  0
  3  2  1  0  0  0  0
  3  4  1  0  0  0  0
  4 11  1  6  0  0  0
  4  5  1  0  0  0  0
  5 12  1  0  0  0  0
  5  6  2  0  0  0  0
  7  4  1  0  0  0  0
  8  7  3  0  0  0  0
 10  2  1  0  0  0  0
 13  8  1  0  0  0  0
M  END
