title
 OpenBabel02282109593D

 12 11  0  0  1  0  0  0  0  0999 V2000
    0.9001    3.0095   -0.0353 N   0  0  0  0  0  0  0  0  0  0  0  0
    1.0336    1.7632    0.0187 C   0  0  0  0  0  0  0  0  0  0  0  0
   -0.0626    0.9936    0.2833 O   0  0  0  0  0  0  0  0  0  0  0  0
    0.1288   -0.4067    0.3118 C   0  0  1  0  0  0  0  0  0  0  0  0
   -1.0210   -0.9910    1.1644 C   0  0  0  0  0  0  0  0  0  0  0  0
   -1.3944   -2.1226    1.0837 O   0  0  0  0  0  0  0  0  0  0  0  0
    0.1827   -0.9994   -1.0309 C   0  0  0  0  0  0  0  0  0  0  0  0
    0.2433   -1.4447   -2.0943 N   0  0  0  0  0  0  0  0  0  0  0  0
    1.7932    3.4584   -0.2268 H   0  0  0  0  0  0  0  0  0  0  0  0
    1.9526    1.1796   -0.1187 H   0  0  0  0  0  0  0  0  0  0  0  0
    1.0618   -0.6649    0.8395 H   0  0  0  0  0  0  0  0  0  0  0  0
   -1.4330   -0.2442    1.8722 H   0  0  0  0  0  0  0  0  0  0  0  0
  1  2  2  0  0  0  0
  2  3  1  0  0  0  0
  3  4  1  0  0  0  0
  4 11  1  1  0  0  0
  4  5  1  0  0  0  0
  5 12  1  0  0  0  0
  6  5  2  0  0  0  0
  7  4  1  0  0  0  0
  8  7  3  0  0  0  0
  9  1  1  0  0  0  0
 10  2  1  0  0  0  0
M  END
