title
 OpenBabel02282109593D

 14 13  0  0  1  0  0  0  0  0999 V2000
   -0.9717   -2.7836    0.9424 O   0  0  0  0  0  0  0  0  0  0  0  0
   -0.9711   -1.6190    0.6408 C   0  0  0  0  0  0  0  0  0  0  0  0
    0.2566   -0.7309    0.7431 C   0  0  0  0  0  0  0  0  0  0  0  0
    0.3685    0.2940   -0.4235 C   0  0  1  0  0  0  0  0  0  0  0  0
   -0.7161    1.3696   -0.2637 C   0  0  0  0  0  0  0  0  0  0  0  0
   -1.7274    1.4051   -0.9090 O   0  0  0  0  0  0  0  0  0  0  0  0
    1.6783    0.9305   -0.4391 C   0  0  0  0  0  0  0  0  0  0  0  0
    2.7415    1.4905   -0.4259 C   0  0  0  0  0  0  0  0  0  0  0  0
   -1.8928   -1.1186    0.2718 H   0  0  0  0  0  0  0  0  0  0  0  0
    0.2043   -0.1840    1.6957 H   0  0  0  0  0  0  0  0  0  0  0  0
    1.1464   -1.3629    0.7855 H   0  0  0  0  0  0  0  0  0  0  0  0
    0.1789   -0.2144   -1.3759 H   0  0  0  0  0  0  0  0  0  0  0  0
   -0.4924    2.1158    0.5302 H   0  0  0  0  0  0  0  0  0  0  0  0
    3.6879    1.9732   -0.4311 H   0  0  0  0  0  0  0  0  0  0  0  0
  2  3  1  0  0  0  0
  2  1  2  0  0  0  0
  3 11  1  0  0  0  0
  3 10  1  0  0  0  0
  4 12  1  6  0  0  0
  4  5  1  0  0  0  0
  4  3  1  0  0  0  0
  5 13  1  0  0  0  0
  6  5  2  0  0  0  0
  7  8  3  0  0  0  0
  7  4  1  0  0  0  0
  9  2  1  0  0  0  0
 14  8  1  0  0  0  0
M  END
