title
 OpenBabel02282109593D

 13 12  0  0  1  0  0  0  0  0999 V2000
   -1.4177   -2.2240    1.4305 O   0  0  0  0  0  0  0  0  0  0  0  0
   -1.3569   -1.0813    1.0685 C   0  0  0  0  0  0  0  0  0  0  0  0
   -0.0684   -0.2982    0.9152 C   0  0  0  0  0  0  0  0  0  0  0  0
   -0.0486    0.5858   -0.3453 C   0  0  1  0  0  0  0  0  0  0  0  0
    0.9673    1.7448   -0.2299 C   0  0  0  0  0  0  0  0  0  0  0  0
    1.3884    2.1341    0.8217 O   0  0  0  0  0  0  0  0  0  0  0  0
    0.1848   -0.1615   -1.5806 C   0  0  0  0  0  0  0  0  0  0  0  0
    0.3995   -0.7321   -2.5620 N   0  0  0  0  0  0  0  0  0  0  0  0
   -2.2798   -0.4961    0.8397 H   0  0  0  0  0  0  0  0  0  0  0  0
    0.0227    0.3796    1.7743 H   0  0  0  0  0  0  0  0  0  0  0  0
    0.7805   -0.9843    0.9399 H   0  0  0  0  0  0  0  0  0  0  0  0
   -1.0260    1.0868   -0.4512 H   0  0  0  0  0  0  0  0  0  0  0  0
    1.2524    2.2072   -1.1958 H   0  0  0  0  0  0  0  0  0  0  0  0
  2  1  2  0  0  0  0
  3 11  1  0  0  0  0
  3  2  1  0  0  0  0
  3 10  1  0  0  0  0
  4 12  1  6  0  0  0
  4  5  1  0  0  0  0
  4  3  1  0  0  0  0
  5  6  2  0  0  0  0
  7  4  1  0  0  0  0
  8  7  3  0  0  0  0
  9  2  1  0  0  0  0
 13  5  1  0  0  0  0
M  END
