13
title
O -1.4177005 -2.2239745 1.4304899
C -1.3569161 -1.0813389 1.0684912
C -0.06843602 -0.29818103 0.91515684
C -0.048635118 0.5857945 -0.34528172
C 0.96730316 1.7447813 -0.22993457
O 1.3883532 2.134055 0.82165533
C 0.18481922 -0.16153808 -1.580571
N 0.39949787 -0.73213285 -2.5620468
H -2.2798336 -0.49614462 0.83965933
H 0.022717124 0.37961462 1.77431
H 0.78045857 -0.9842612 0.9398766
H -1.0260206 1.0867646 -0.45118213
H 1.2523576 2.2071836 -1.1958371
