title
 OpenBabel02282109593D

 13 12  0  0  1  0  0  0  0  0999 V2000
   -1.8939   -1.0143    1.4337 O   0  0  0  0  0  0  0  0  0  0  0  0
   -1.9811   -0.1495    0.5898 C   0  0  0  0  0  0  0  0  0  0  0  0
   -0.9297    0.3457   -0.1225 N   0  0  0  0  0  0  0  0  0  0  0  0
    0.3821   -0.2555   -0.0341 C   0  0  1  0  0  0  0  0  0  0  0  0
    1.0079   -0.3480   -1.4343 C   0  0  0  0  0  0  0  0  0  0  0  0
    0.4770    0.0897   -2.4188 O   0  0  0  0  0  0  0  0  0  0  0  0
    1.3273    0.4650    0.8246 C   0  0  0  0  0  0  0  0  0  0  0  0
    2.1450    1.0544    1.4780 C   0  0  0  0  0  0  0  0  0  0  0  0
   -2.9334    0.3413    0.3138 H   0  0  0  0  0  0  0  0  0  0  0  0
   -1.0984    0.9251   -0.9325 H   0  0  0  0  0  0  0  0  0  0  0  0
    0.2564   -1.2747    0.3598 H   0  0  0  0  0  0  0  0  0  0  0  0
    2.0065   -0.8263   -1.4550 H   0  0  0  0  0  0  0  0  0  0  0  0
    2.8478    1.5745    2.0817 H   0  0  0  0  0  0  0  0  0  0  0  0
  2  1  2  0  0  0  0
  3  4  1  0  0  0  0
  3  2  1  0  0  0  0
  4 11  1  1  0  0  0
  4  7  1  0  0  0  0
  5  4  1  0  0  0  0
  6  5  2  0  0  0  0
  7  8  3  0  0  0  0
  8 13  1  0  0  0  0
  9  2  1  0  0  0  0
 10  3  1  0  0  0  0
 12  5  1  0  0  0  0
M  END
