12
title
O -1.2291021 -2.559334 -0.15437166
C -1.1608298 -1.3717946 -0.12389315
O -0.024193473 -0.7081873 -0.461015
C -0.03277094 0.7031968 -0.2936376
C 0.05529075 1.0796844 1.2040199
O -0.1890514 0.29901463 2.0779712
C 1.065029 1.2989031 -1.0371753
C 1.9824663 1.8360046 -1.5943288
H -1.995132 -0.69654006 0.14083065
H -0.9872721 1.1264652 -0.653479
H 0.33516318 2.1363661 1.3905896
H 2.790972 2.2970064 -2.107522
