title
 OpenBabel02282109593D

 14 13  0  0  0  0  0  0  0  0999 V2000
    1.4684    2.2403   -0.3012 N   0  0  0  0  0  0  0  0  0  0  0  0
    1.2964    0.9846   -0.2818 C   0  0  0  0  0  0  0  0  0  0  0  0
    0.0346    0.3906   -0.3836 N   0  0  0  0  0  0  0  0  0  0  0  0
   -0.0804   -1.0593   -0.3149 C   0  0  0  0  0  0  0  0  0  0  0  0
    0.0796   -1.5930    1.1030 C   0  0  0  0  0  0  0  0  0  0  0  0
    0.5901   -2.6487    1.3627 O   0  0  0  0  0  0  0  0  0  0  0  0
   -1.1178    1.1491   -0.5698 C   0  0  0  0  0  0  0  0  0  0  0  0
   -2.2199    0.6624   -0.6668 O   0  0  0  0  0  0  0  0  0  0  0  0
    2.4568    2.4678   -0.2257 H   0  0  0  0  0  0  0  0  0  0  0  0
    2.0888    0.2331   -0.1897 H   0  0  0  0  0  0  0  0  0  0  0  0
   -1.0932   -1.3056   -0.6534 H   0  0  0  0  0  0  0  0  0  0  0  0
    0.6404   -1.5519   -0.9732 H   0  0  0  0  0  0  0  0  0  0  0  0
   -0.3303   -0.9209    1.8903 H   0  0  0  0  0  0  0  0  0  0  0  0
   -0.8991    2.2232   -0.6194 H   0  0  0  0  0  0  0  0  0  0  0  0
  1  2  2  0  0  0  0
  1  9  1  0  0  0  0
  2 10  1  0  0  0  0
  3  4  1  0  0  0  0
  3  2  1  0  0  0  0
  4  5  1  0  0  0  0
  5  6  2  0  0  0  0
  5 13  1  0  0  0  0
  7  3  1  0  0  0  0
  8  7  2  0  0  0  0
 11  4  1  0  0  0  0
 12  4  1  0  0  0  0
 14  7  1  0  0  0  0
M  END
