title
 OpenBabel02282109593D

 13 12  0  0  0  0  0  0  0  0999 V2000
   -0.8929   -2.7455    1.4700 O   0  0  0  0  0  0  0  0  0  0  0  0
   -0.9100   -1.6509    0.9799 C   0  0  0  0  0  0  0  0  0  0  0  0
    0.2446   -0.6565    1.1167 C   0  0  0  0  0  0  0  0  0  0  0  0
    0.2831    0.3338    0.0478 N   0  0  0  0  0  0  0  0  0  0  0  0
   -0.1093    1.6566    0.3241 C   0  0  0  0  0  0  0  0  0  0  0  0
   -0.1536    2.5611   -0.4572 O   0  0  0  0  0  0  0  0  0  0  0  0
    0.7342   -0.0929   -1.2157 C   0  0  0  0  0  0  0  0  0  0  0  0
    0.8193    0.5775   -2.2030 O   0  0  0  0  0  0  0  0  0  0  0  0
   -1.7780   -1.2687    0.3962 H   0  0  0  0  0  0  0  0  0  0  0  0
    0.1128   -0.1330    2.0707 H   0  0  0  0  0  0  0  0  0  0  0  0
    1.1843   -1.2113    1.1887 H   0  0  0  0  0  0  0  0  0  0  0  0
   -0.3792    1.7618    1.3946 H   0  0  0  0  0  0  0  0  0  0  0  0
    1.0158   -1.1649   -1.1808 H   0  0  0  0  0  0  0  0  0  0  0  0
  2  3  1  0  0  0  0
  2  1  2  0  0  0  0
  3 11  1  0  0  0  0
  3 10  1  0  0  0  0
  4  5  1  0  0  0  0
  4  3  1  0  0  0  0
  5 12  1  0  0  0  0
  6  5  2  0  0  0  0
  7 13  1  0  0  0  0
  7  4  1  0  0  0  0
  8  7  2  0  0  0  0
  9  2  1  0  0  0  0
M  END
