13
title
O -0.89291257 -2.7455313 1.4699678
C -0.90997005 -1.6508648 0.979864
C 0.24456242 -0.656478 1.1167048
N 0.28311792 0.33379 0.047800425
C -0.10933485 1.6566353 0.32409573
O -0.1536068 2.5611286 -0.45718074
C 0.73415965 -0.092931084 -1.2157139
O 0.81931216 0.57747144 -2.2030225
H -1.7779899 -1.2687478 0.39622897
H 0.11277596 -0.13301854 2.070653
H 1.1843374 -1.2112719 1.1886976
H -0.37922534 1.7618446 1.3946028
H 1.015754 -1.164939 -1.1807638
