title
 OpenBabel02282109593D

 13 12  0  0  1  0  0  0  0  0999 V2000
    0.1965    3.4233    0.4114 C   0  0  0  0  0  0  0  0  0  0  0  0
    0.1787    1.9689    0.4103 C   0  0  0  0  0  0  0  0  0  0  0  0
    0.1619    0.7675    0.4022 C   0  0  0  0  0  0  0  0  0  0  0  0
    0.1466   -0.7008    0.4073 C   0  0  1  0  0  0  0  0  0  0  0  0
   -1.2109   -1.2539    0.2944 C   0  0  0  0  0  0  0  0  0  0  0  0
   -2.3171   -1.7106    0.2224 C   0  0  0  0  0  0  0  0  0  0  0  0
    1.0207   -1.2426   -0.6585 C   0  0  0  0  0  0  0  0  0  0  0  0
    1.7163   -1.6697   -1.4744 N   0  0  0  0  0  0  0  0  0  0  0  0
    0.8078    3.8068   -0.4121 H   0  0  0  0  0  0  0  0  0  0  0  0
   -0.8143    3.8281    0.2957 H   0  0  0  0  0  0  0  0  0  0  0  0
    0.6103    3.8134    1.3471 H   0  0  0  0  0  0  0  0  0  0  0  0
    0.5761   -1.0515    1.3588 H   0  0  0  0  0  0  0  0  0  0  0  0
   -3.2983   -2.1117    0.1506 H   0  0  0  0  0  0  0  0  0  0  0  0
  1 11  1  0  0  0  0
  2  1  1  0  0  0  0
  3  4  1  0  0  0  0
  3  2  3  0  0  0  0
  4 12  1  1  0  0  0
  5  4  1  0  0  0  0
  6  5  3  0  0  0  0
  7  4  1  0  0  0  0
  8  7  3  0  0  0  0
  9  1  1  0  0  0  0
 10  1  1  0  0  0  0
 13  6  1  0  0  0  0
M  END
