13
title
C 0.19653781 3.423315 0.41142458
C 0.17867464 1.9688818 0.41030934
C 0.16188905 0.76749414 0.4022019
C 0.14656328 -0.7008104 0.40727654
C -1.2109143 -1.2538542 0.29441717
C -2.3171463 -1.7105643 0.22237831
C 1.0206745 -1.2425519 -0.6584977
N 1.7162855 -1.6697434 -1.4744403
H 0.8078206 3.8068333 -0.41211805
H -0.81430703 3.828062 0.29571497
H 0.610345 3.813387 1.347138
H 0.5760951 -1.0514864 1.358751
H -3.2983015 -2.1116765 0.1505733
