title
 OpenBabel02282109593D

 13 12  0  0  1  0  0  0  0  0999 V2000
    0.1144    3.4816    0.3272 C   0  0  0  0  0  0  0  0  0  0  0  0
    0.1972    2.0302    0.2825 C   0  0  0  0  0  0  0  0  0  0  0  0
    0.2887    0.8312    0.2432 C   0  0  0  0  0  0  0  0  0  0  0  0
    0.3136   -0.6284    0.2149 C   0  0  1  0  0  0  0  0  0  0  0  0
   -1.1430   -1.1443    0.4158 C   0  0  0  0  0  0  0  0  0  0  0  0
   -1.4769   -1.7834    1.3687 O   0  0  0  0  0  0  0  0  0  0  0  0
    0.8372   -1.1544   -1.0527 C   0  0  0  0  0  0  0  0  0  0  0  0
    1.2127   -1.5934   -2.0531 N   0  0  0  0  0  0  0  0  0  0  0  0
    0.9231    3.9021    0.9338 H   0  0  0  0  0  0  0  0  0  0  0  0
    0.1894    3.9094   -0.6778 H   0  0  0  0  0  0  0  0  0  0  0  0
   -0.8360    3.8079    0.7623 H   0  0  0  0  0  0  0  0  0  0  0  0
    0.9056   -1.0360    1.0425 H   0  0  0  0  0  0  0  0  0  0  0  0
   -1.8369   -0.8363   -0.3908 H   0  0  0  0  0  0  0  0  0  0  0  0
  1 11  1  0  0  0  0
  1  9  1  0  0  0  0
  2  1  1  0  0  0  0
  3  2  3  0  0  0  0
  4  3  1  0  0  0  0
  4  5  1  0  0  0  0
  4 12  1  1  0  0  0
  5  6  2  0  0  0  0
  7  4  1  0  0  0  0
  8  7  3  0  0  0  0
 10  1  1  0  0  0  0
 13  5  1  0  0  0  0
M  END
