title
 OpenBabel02282109593D

 14 13  0  0  0  0  0  0  0  0999 V2000
    0.0469    3.6355    0.1762 C   0  0  0  0  0  0  0  0  0  0  0  0
    0.0880    2.1812    0.2066 C   0  0  0  0  0  0  0  0  0  0  0  0
    0.1348    0.9784    0.2532 C   0  0  0  0  0  0  0  0  0  0  0  0
    0.1585   -0.4759    0.2544 C   0  0  0  0  0  0  0  0  0  0  0  0
   -1.2834   -1.0309    0.2644 C   0  0  0  0  0  0  0  0  0  0  0  0
   -1.6279   -1.9582    0.9401 O   0  0  0  0  0  0  0  0  0  0  0  0
    0.8737   -0.9974   -1.0119 C   0  0  0  0  0  0  0  0  0  0  0  0
    1.6512   -1.9087   -1.0013 O   0  0  0  0  0  0  0  0  0  0  0  0
    1.0569    4.0585    0.1562 H   0  0  0  0  0  0  0  0  0  0  0  0
   -0.4842    3.9973   -0.7107 H   0  0  0  0  0  0  0  0  0  0  0  0
   -0.4657    4.0344    1.0580 H   0  0  0  0  0  0  0  0  0  0  0  0
    0.6762   -0.9013    1.1183 H   0  0  0  0  0  0  0  0  0  0  0  0
   -1.9799   -0.4915   -0.4113 H   0  0  0  0  0  0  0  0  0  0  0  0
    0.6059   -0.4501   -1.9400 H   0  0  0  0  0  0  0  0  0  0  0  0
  1  2  1  0  0  0  0
  1 11  1  0  0  0  0
  2  3  3  0  0  0  0
  3  4  1  0  0  0  0
  4  5  1  0  0  0  0
  4 12  1  0  0  0  0
  5  6  2  0  0  0  0
  7  8  2  0  0  0  0
  7  4  1  0  0  0  0
  9  1  1  0  0  0  0
 10  1  1  0  0  0  0
 13  5  1  0  0  0  0
 14  7  1  0  0  0  0
M  END
