title
 OpenBabel02282109593D

 14 13  0  0  0  0  0  0  0  0999 V2000
    0.5513    2.5075    0.6011 C   0  0  0  0  0  0  0  0  0  0  0  0
    0.7873    1.0981    0.3828 N   0  0  0  0  0  0  0  0  0  0  0  0
   -0.1502    0.3188    0.0283 C   0  0  0  0  0  0  0  0  0  0  0  0
    0.0421   -1.0348   -0.1888 N   0  0  0  0  0  0  0  0  0  0  0  0
    1.2522   -1.6940   -0.0504 C   0  0  0  0  0  0  0  0  0  0  0  0
    1.3155   -2.9426   -0.2759 N   0  0  0  0  0  0  0  0  0  0  0  0
   -1.5309    0.7324   -0.1949 C   0  0  0  0  0  0  0  0  0  0  0  0
   -2.6197    1.0813   -0.3665 N   0  0  0  0  0  0  0  0  0  0  0  0
    1.2077    3.0846   -0.0599 H   0  0  0  0  0  0  0  0  0  0  0  0
   -0.4854    2.8290    0.4346 H   0  0  0  0  0  0  0  0  0  0  0  0
    0.8359    2.7608    1.6286 H   0  0  0  0  0  0  0  0  0  0  0  0
   -0.7452   -1.6014   -0.4698 H   0  0  0  0  0  0  0  0  0  0  0  0
    2.0596   -1.0268    0.2541 H   0  0  0  0  0  0  0  0  0  0  0  0
    2.2651   -3.2801   -0.1328 H   0  0  0  0  0  0  0  0  0  0  0  0
  1 11  1  0  0  0  0
  2  1  1  0  0  0  0
  3  2  2  0  0  0  0
  4  5  1  0  0  0  0
  4  3  1  0  0  0  0
  5 13  1  0  0  0  0
  6 14  1  0  0  0  0
  6  5  2  0  0  0  0
  7  3  1  0  0  0  0
  8  7  3  0  0  0  0
  9  1  1  0  0  0  0
 10  1  1  0  0  0  0
 12  4  1  0  0  0  0
M  END
