title
 OpenBabel02282109593D

 13 12  0  0  0  0  0  0  0  0999 V2000
    0.9455    2.4427   -0.0695 C   0  0  0  0  0  0  0  0  0  0  0  0
    0.9161    1.0018   -0.2063 N   0  0  0  0  0  0  0  0  0  0  0  0
   -0.1595    0.3582   -0.0538 C   0  0  0  0  0  0  0  0  0  0  0  0
   -0.1885   -1.0161   -0.1817 O   0  0  0  0  0  0  0  0  0  0  0  0
    0.9630   -1.7268    0.0637 C   0  0  0  0  0  0  0  0  0  0  0  0
    1.0196   -2.8918   -0.1700 O   0  0  0  0  0  0  0  0  0  0  0  0
   -1.4681    0.8719    0.2257 C   0  0  0  0  0  0  0  0  0  0  0  0
   -2.5565    1.3281    0.4558 C   0  0  0  0  0  0  0  0  0  0  0  0
    1.6499    2.7072    0.7268 H   0  0  0  0  0  0  0  0  0  0  0  0
    1.3392    2.8730   -0.9965 H   0  0  0  0  0  0  0  0  0  0  0  0
   -0.0283    2.8959    0.1510 H   0  0  0  0  0  0  0  0  0  0  0  0
    1.7563   -1.1039    0.4960 H   0  0  0  0  0  0  0  0  0  0  0  0
   -3.5232    1.7203    0.6602 H   0  0  0  0  0  0  0  0  0  0  0  0
  1 11  1  0  0  0  0
  1  9  1  0  0  0  0
  2  1  1  0  0  0  0
  2  3  2  0  0  0  0
  3  7  1  0  0  0  0
  4  3  1  0  0  0  0
  4  5  1  0  0  0  0
  5 12  1  0  0  0  0
  6  5  2  0  0  0  0
  7  8  3  0  0  0  0
  8 13  1  0  0  0  0
 10  1  1  0  0  0  0
M  END
