12
title
C -0.37721065 2.4162014 0.93070567
N -0.22336178 0.9758187 0.9436543
C 0.09805178 0.33910793 -0.09263931
O 0.25054228 -1.0196855 -0.11798678
C -0.42149773 -1.7808738 0.8257468
O -0.19605055 -2.9403882 0.9319129
C 0.3859098 0.9078123 -1.3960867
N 0.6057843 1.4155577 -2.4108443
H 0.28861165 2.8399382 1.6890584
H -0.1672621 2.8856773 -0.03775041
H -1.4010862 2.6597521 1.2324381
H -1.1488168 -1.1894076 1.395286
