14
title
C 0.5855237 2.5231802 0.86651546
N 0.50790215 1.1228888 1.230968
C 0.26873937 0.20026042 0.39446115
N 0.26995364 -1.1186724 0.8907181
C -0.3201823 -2.197984 0.28905478
O -0.8401581 -2.18321 -0.8047095
C 0.09490679 0.34294477 -1.1079544
O -0.48175222 1.2764876 -1.6044681
H 0.69499654 2.7237988 -0.20264713
H -0.3304965 3.0209656 1.2067407
H 1.4160746 2.9745924 1.41855
H 0.55775756 -1.1963581 1.857567
H -0.2578018 -3.1037922 0.919267
H 0.59709543 -0.43387428 -1.7111938
