12
title
N -0.81191444 2.9562829 0.118429564
C -0.8470445 1.5995308 0.018026687
N 0.21425384 0.8412252 0.0061652814
H 1.1251153 1.2878784 0.021331774
C 0.28890306 -0.57202566 -0.009955861
C 1.568265 -1.1280109 -0.046478555
N 2.6597402 -1.5364329 -0.07551285
C -0.9157491 -1.2722875 -0.004221682
N -1.9784888 -1.753193 0.0012995851
H 0.04791164 3.4495819 -0.069731124
H -1.6455275 3.4516096 -0.15325321
H -1.8136009 1.1112432 0.009516789
