title
 OpenBabel02282109593D

 12 11  0  0  0  0  0  0  0  0999 V2000
   -0.8119    2.9563    0.1184 N   0  0  0  0  0  0  0  0  0  0  0  0
   -0.8470    1.5995    0.0180 C   0  0  0  0  0  0  0  0  0  0  0  0
    0.2143    0.8412    0.0062 N   0  0  0  0  0  0  0  0  0  0  0  0
    1.1251    1.2879    0.0213 H   0  0  0  0  0  0  0  0  0  0  0  0
    0.2889   -0.5720   -0.0100 C   0  0  0  0  0  0  0  0  0  0  0  0
    1.5683   -1.1280   -0.0465 C   0  0  0  0  0  0  0  0  0  0  0  0
    2.6597   -1.5364   -0.0755 N   0  0  0  0  0  0  0  0  0  0  0  0
   -0.9157   -1.2723   -0.0042 C   0  0  0  0  0  0  0  0  0  0  0  0
   -1.9785   -1.7532    0.0013 N   0  0  0  0  0  0  0  0  0  0  0  0
    0.0479    3.4496   -0.0697 H   0  0  0  0  0  0  0  0  0  0  0  0
   -1.6455    3.4516   -0.1533 H   0  0  0  0  0  0  0  0  0  0  0  0
   -1.8136    1.1112    0.0095 H   0  0  0  0  0  0  0  0  0  0  0  0
  2  1  2  0  0  0  0
  3  2  1  0  0  0  0
  3  4  1  0  0  0  0
  5  8  1  0  0  0  0
  5  3  2  0  0  0  0
  6  5  1  0  0  0  0
  7  6  3  0  0  0  0
  8  9  3  0  0  0  0
 10  1  1  0  0  0  0
 11  1  1  0  0  0  0
 12  2  1  0  0  0  0
M  END
