title
 OpenBabel02282109593D

 16 15  0  0  0  0  0  0  0  0999 V2000
    0.5689    3.1093    0.2893 C   0  0  0  0  0  0  0  0  0  0  0  0
    0.8064    1.6940    0.0932 N   0  0  0  0  0  0  0  0  0  0  0  0
   -0.1961    0.9253    0.1335 C   0  0  0  0  0  0  0  0  0  0  0  0
   -0.0786   -0.4629   -0.0439 N   0  0  0  0  0  0  0  0  0  0  0  0
    1.1782   -1.0373   -0.2744 C   0  0  0  0  0  0  0  0  0  0  0  0
    1.3204   -2.2883   -0.4389 N   0  0  0  0  0  0  0  0  0  0  0  0
   -1.2198   -1.2735    0.0098 C   0  0  0  0  0  0  0  0  0  0  0  0
   -2.3742   -0.7865    0.2168 N   0  0  0  0  0  0  0  0  0  0  0  0
    0.9261    3.6644   -0.5857 H   0  0  0  0  0  0  0  0  0  0  0  0
   -0.4893    3.3624    0.4562 H   0  0  0  0  0  0  0  0  0  0  0  0
    1.1512    3.4620    1.1481 H   0  0  0  0  0  0  0  0  0  0  0  0
   -1.2318    1.2274    0.3031 H   0  0  0  0  0  0  0  0  0  0  0  0
    1.9580   -0.2758   -0.2870 H   0  0  0  0  0  0  0  0  0  0  0  0
    2.3016   -2.5105   -0.5926 H   0  0  0  0  0  0  0  0  0  0  0  0
   -0.9628   -2.3211   -0.1461 H   0  0  0  0  0  0  0  0  0  0  0  0
   -3.0699   -1.5293    0.2204 H   0  0  0  0  0  0  0  0  0  0  0  0
  1 10  1  0  0  0  0
  1 11  1  0  0  0  0
  2  3  2  0  0  0  0
  2  1  1  0  0  0  0
  3 12  1  0  0  0  0
  4  7  1  0  0  0  0
  4  3  1  0  0  0  0
  5  4  1  0  0  0  0
  6  5  2  0  0  0  0
  7  8  2  0  0  0  0
  8 16  1  0  0  0  0
  9  1  1  0  0  0  0
 13  5  1  0  0  0  0
 14  6  1  0  0  0  0
 15  7  1  0  0  0  0
M  END
