15
title
C -0.61568326 3.1150584 -0.3360678
N -0.46702582 1.7108138 -0.6597375
C -0.08679991 0.93776983 0.26227626
N 0.08805112 -0.4455949 0.048026286
C 0.5124676 -1.2732431 1.098798
N 0.748129 -0.80985796 2.2552516
C -0.1558474 -1.0207213 -1.2080985
O -0.020400785 -2.1968193 -1.4389791
H 0.030139782 3.708907 -0.9923342
H -1.6465667 3.4266076 -0.53766966
H -0.37267712 3.3563378 0.7098893
H 0.14419582 1.2233033 1.2912341
H 0.5971179 -2.3087525 0.768088
H 1.0435019 -1.5567535 2.8805466
H -0.4804256 -0.26734602 -1.9369417
