14
title
C -0.41608045 3.2806706 -0.68026227
N -0.394676 1.8366113 -0.7857836
C 0.02834081 1.1772747 0.2002947
N 0.09602331 -0.2305129 0.2150521
C -0.33028358 -0.962035 -0.9320086
O -0.31491444 -2.1545188 -1.0218784
C 0.5910506 -0.84332925 1.3852047
O 0.7173176 -2.0174634 1.5707718
H 0.19314724 3.711572 -1.4819622
H -1.4401373 3.6395962 -0.8287795
H -0.0465166 3.6591368 0.28554472
H 0.38321728 1.6259005 1.1377902
H -0.6718034 -0.2683659 -1.713289
H 0.85813177 -0.07540314 2.1384387
