title
 OpenBabel02282109593D

 15 14  0  0  1  0  0  0  0  0999 V2000
    0.2026    3.6569    0.3985 C   0  0  0  0  0  0  0  0  0  0  0  0
    0.2279    2.2023    0.3741 C   0  0  0  0  0  0  0  0  0  0  0  0
    0.2640    1.0002    0.3486 C   0  0  0  0  0  0  0  0  0  0  0  0
    0.2488   -0.4597    0.3383 C   0  0  1  0  0  0  0  0  0  0  0  0
   -1.1889   -1.0261    0.5703 C   0  0  0  0  0  0  0  0  0  0  0  0
   -1.1994   -2.4286    0.6261 O   0  0  0  0  0  0  0  0  0  0  0  0
    0.7717   -1.0094   -0.9232 C   0  0  0  0  0  0  0  0  0  0  0  0
    1.1297   -1.4895   -1.9116 N   0  0  0  0  0  0  0  0  0  0  0  0
    0.8349    4.0504    1.2014 H   0  0  0  0  0  0  0  0  0  0  0  0
    0.5668    4.0704   -0.5478 H   0  0  0  0  0  0  0  0  0  0  0  0
   -0.8138    4.0323    0.5580 H   0  0  0  0  0  0  0  0  0  0  0  0
    0.8790   -0.8534    1.1466 H   0  0  0  0  0  0  0  0  0  0  0  0
   -1.5351   -0.6618    1.5405 H   0  0  0  0  0  0  0  0  0  0  0  0
   -1.8535   -0.6244   -0.2060 H   0  0  0  0  0  0  0  0  0  0  0  0
   -1.0075   -2.7702   -0.2550 H   0  0  0  0  0  0  0  0  0  0  0  0
  1 11  1  0  0  0  0
  1  9  1  0  0  0  0
  2  1  1  0  0  0  0
  3  2  3  0  0  0  0
  4  3  1  0  0  0  0
  4  5  1  0  0  0  0
  4 12  1  1  0  0  0
  5  6  1  0  0  0  0
  5 13  1  0  0  0  0
  7  4  1  0  0  0  0
  8  7  3  0  0  0  0
 10  1  1  0  0  0  0
 14  5  1  0  0  0  0
 15  6  1  0  0  0  0
M  END
