15
title
C 0.20257755 3.6569014 0.3985484
C 0.22787465 2.2022722 0.3741101
C 0.26395673 1.0002477 0.34864762
C 0.24876253 -0.4596966 0.3382817
C -1.188905 -1.0261455 0.57033074
O -1.1993948 -2.4286344 0.62613267
C 0.7717272 -1.0093553 -0.923208
N 1.1297109 -1.4895453 -1.9115642
H 0.8349333 4.0503535 1.2013662
H 0.5668179 4.070354 -0.5478234
H -0.81378275 4.032294 0.55801094
H 0.87902427 -0.85343724 1.1465602
H -1.5351049 -0.6617773 1.5404724
H -1.8534529 -0.6244319 -0.20599836
H -1.0074574 -2.7702105 -0.2550069
