18
title
C -0.500135 2.6073916 -1.3131627
C -0.45918974 1.0809383 -1.2497904
C 0.33182114 0.5387209 -0.02325137
C -0.27880317 0.96118474 1.2433326
C -0.7898925 1.3227277 2.2688649
C 0.47027332 -0.9204819 -0.08618207
C 0.5755357 -2.1164718 -0.1662689
C 0.7057932 -3.5641387 -0.2493424
H 0.50864553 3.0291576 -1.387338
H -1.0656261 2.9420083 -2.1878412
H -0.9740445 3.026486 -0.42103803
H -1.4729812 0.66987276 -1.2109067
H 0.016164493 0.6729022 -2.1477509
H 1.3392612 0.9805122 -0.06845422
H -1.2343132 1.6314955 3.1824377
H 0.2811147 -4.050625 0.6356365
H 0.18524022 -3.961496 -1.1276586
H 1.7563744 -3.8663614 -0.3217131
