title
 OpenBabel02282109593D

 16 15  0  0  1  0  0  0  0  0999 V2000
   -0.4626    2.6229    1.0247 C   0  0  0  0  0  0  0  0  0  0  0  0
   -0.8359    1.2429    0.7230 N   0  0  0  0  0  0  0  0  0  0  0  0
    0.0255    0.5882   -0.2592 C   0  0  1  0  0  0  0  0  0  0  0  0
    1.4617    0.5585    0.1477 C   0  0  0  0  0  0  0  0  0  0  0  0
    2.5579    0.5835    0.5138 N   0  0  0  0  0  0  0  0  0  0  0  0
   -0.4359   -0.7698   -0.5493 C   0  0  0  0  0  0  0  0  0  0  0  0
   -0.8105   -1.8896   -0.7765 C   0  0  0  0  0  0  0  0  0  0  0  0
   -1.2657   -3.2430   -1.0543 C   0  0  0  0  0  0  0  0  0  0  0  0
    0.5665    2.7443    1.3970 H   0  0  0  0  0  0  0  0  0  0  0  0
   -0.5710    3.2317    0.1201 H   0  0  0  0  0  0  0  0  0  0  0  0
   -1.1533    3.0151    1.7750 H   0  0  0  0  0  0  0  0  0  0  0  0
   -0.8556    0.6824    1.5685 H   0  0  0  0  0  0  0  0  0  0  0  0
   -0.0204    1.1901   -1.1785 H   0  0  0  0  0  0  0  0  0  0  0  0
   -1.3735   -3.4096   -2.1313 H   0  0  0  0  0  0  0  0  0  0  0  0
   -0.5575   -3.9842   -0.6692 H   0  0  0  0  0  0  0  0  0  0  0  0
   -2.2381   -3.4338   -0.5879 H   0  0  0  0  0  0  0  0  0  0  0  0
  1  9  1  0  0  0  0
  1 11  1  0  0  0  0
  2  1  1  0  0  0  0
  2 12  1  0  0  0  0
  3 13  1  6  0  0  0
  3  4  1  0  0  0  0
  3  2  1  0  0  0  0
  4  5  3  0  0  0  0
  6  3  1  0  0  0  0
  7  6  3  0  0  0  0
  8  7  1  0  0  0  0
  8 15  1  0  0  0  0
  8 16  1  0  0  0  0
 10  1  1  0  0  0  0
 14  8  1  0  0  0  0
M  END
