title
 OpenBabel02282109593D

 16 15  0  0  1  0  0  0  0  0999 V2000
   -0.2452    2.0832    1.3496 C   0  0  0  0  0  0  0  0  0  0  0  0
    0.1668    0.7411    1.5153 O   0  0  0  0  0  0  0  0  0  0  0  0
    0.7118    0.1733    0.3299 C   0  0  1  0  0  0  0  0  0  0  0  0
    1.3241   -1.1109    0.6831 C   0  0  0  0  0  0  0  0  0  0  0  0
    1.8496   -2.1557    0.9520 C   0  0  0  0  0  0  0  0  0  0  0  0
   -0.2874    0.0135   -0.7396 C   0  0  0  0  0  0  0  0  0  0  0  0
   -1.1087   -0.0966   -1.6126 C   0  0  0  0  0  0  0  0  0  0  0  0
   -2.1003   -0.2470   -2.6670 C   0  0  0  0  0  0  0  0  0  0  0  0
    0.5936    2.7277    1.0425 H   0  0  0  0  0  0  0  0  0  0  0  0
   -1.0479    2.1760    0.6061 H   0  0  0  0  0  0  0  0  0  0  0  0
   -0.6132    2.4187    2.3213 H   0  0  0  0  0  0  0  0  0  0  0  0
    1.5105    0.8385   -0.0475 H   0  0  0  0  0  0  0  0  0  0  0  0
    2.3055   -3.0836    1.1950 H   0  0  0  0  0  0  0  0  0  0  0  0
   -1.9280   -1.1653   -3.2388 H   0  0  0  0  0  0  0  0  0  0  0  0
   -3.1122   -0.3005   -2.2512 H   0  0  0  0  0  0  0  0  0  0  0  0
   -2.0705    0.5940   -3.3682 H   0  0  0  0  0  0  0  0  0  0  0  0
  1  2  1  0  0  0  0
  1 11  1  0  0  0  0
  3 12  1  6  0  0  0
  3  4  1  0  0  0  0
  3  2  1  0  0  0  0
  4  5  3  0  0  0  0
  5 13  1  0  0  0  0
  6  3  1  0  0  0  0
  7  6  3  0  0  0  0
  8 15  1  0  0  0  0
  8  7  1  0  0  0  0
  9  1  1  0  0  0  0
 10  1  1  0  0  0  0
 14  8  1  0  0  0  0
 16  8  1  0  0  0  0
M  END
