title
 OpenBabel02282109593D

 15 14  0  0  1  0  0  0  0  0999 V2000
   -0.6228    2.6191   -0.6789 C   0  0  0  0  0  0  0  0  0  0  0  0
   -0.2648    1.2687   -0.9296 O   0  0  0  0  0  0  0  0  0  0  0  0
    0.1387    0.5695    0.2284 C   0  0  1  0  0  0  0  0  0  0  0  0
   -1.0006    0.3837    1.1699 C   0  0  0  0  0  0  0  0  0  0  0  0
   -1.8897    0.2785    1.8998 N   0  0  0  0  0  0  0  0  0  0  0  0
    0.7073   -0.7206   -0.1479 C   0  0  0  0  0  0  0  0  0  0  0  0
    1.1907   -1.7829   -0.4357 C   0  0  0  0  0  0  0  0  0  0  0  0
    1.7653   -3.0695   -0.7943 C   0  0  0  0  0  0  0  0  0  0  0  0
    0.2132    3.1779   -0.2325 H   0  0  0  0  0  0  0  0  0  0  0  0
   -0.8701    3.0564   -1.6473 H   0  0  0  0  0  0  0  0  0  0  0  0
   -1.4944    2.6933   -0.0154 H   0  0  0  0  0  0  0  0  0  0  0  0
    0.8980    1.1566    0.7756 H   0  0  0  0  0  0  0  0  0  0  0  0
    2.8371   -3.1020   -0.5722 H   0  0  0  0  0  0  0  0  0  0  0  0
    1.2810   -3.8823   -0.2432 H   0  0  0  0  0  0  0  0  0  0  0  0
    1.6375   -3.2674   -1.8637 H   0  0  0  0  0  0  0  0  0  0  0  0
  1  9  1  0  0  0  0
  1 11  1  0  0  0  0
  2  1  1  0  0  0  0
  2  3  1  0  0  0  0
  3 12  1  1  0  0  0
  3  4  1  0  0  0  0
  4  5  3  0  0  0  0
  6  3  1  0  0  0  0
  7  6  3  0  0  0  0
  8 13  1  0  0  0  0
  8  7  1  0  0  0  0
  8 14  1  0  0  0  0
 10  1  1  0  0  0  0
 15  8  1  0  0  0  0
M  END
