18
title
C -0.91455853 2.5178783 1.1646311
C -0.811967 0.99115175 1.1483064
C -0.23114634 0.430704 -0.18112426
C 1.238087 0.8420612 -0.30074388
O 1.6525093 1.6879452 -1.0465816
C -0.32058483 -1.0243148 -0.24490623
C -0.34785736 -2.228196 -0.28089148
C -0.4005707 -3.681911 -0.33806926
H 0.058994293 2.9929771 1.0104705
H -1.5829793 2.8762817 0.37475675
H -1.3111539 2.8662653 2.1227314
H -0.18838882 0.6372481 1.9785184
H -1.798659 0.5404527 1.294026
H -0.7607471 0.8897421 -1.0244569
H 1.9105576 0.29091728 0.3952126
H 0.575167 -4.103682 -0.6029541
H -0.69637173 -4.109027 0.62636113
H -1.1227435 -4.022285 -1.088164
