title
 OpenBabel02282109593D

 16 15  0  0  1  0  0  0  0  0999 V2000
   -0.5306    2.4332    1.2534 C   0  0  0  0  0  0  0  0  0  0  0  0
   -0.7576    1.0558    1.0082 O   0  0  0  0  0  0  0  0  0  0  0  0
   -0.0121    0.5579   -0.0921 C   0  0  1  0  0  0  0  0  0  0  0  0
    1.4611    0.3791    0.3281 C   0  0  0  0  0  0  0  0  0  0  0  0
    2.4005    0.8175   -0.2772 O   0  0  0  0  0  0  0  0  0  0  0  0
   -0.5286   -0.7452   -0.4863 C   0  0  0  0  0  0  0  0  0  0  0  0
   -0.8825   -1.8501   -0.8086 C   0  0  0  0  0  0  0  0  0  0  0  0
   -1.3353   -3.1750   -1.2024 C   0  0  0  0  0  0  0  0  0  0  0  0
    0.5196    2.6496    1.4964 H   0  0  0  0  0  0  0  0  0  0  0  0
   -0.8177    3.0471    0.3871 H   0  0  0  0  0  0  0  0  0  0  0  0
   -1.1538    2.7057    2.1073 H   0  0  0  0  0  0  0  0  0  0  0  0
   -0.0351    1.2614   -0.9388 H   0  0  0  0  0  0  0  0  0  0  0  0
    1.5657   -0.1949    1.2749 H   0  0  0  0  0  0  0  0  0  0  0  0
   -0.4894   -3.8583   -1.3337 H   0  0  0  0  0  0  0  0  0  0  0  0
   -1.9956   -3.6046   -0.4415 H   0  0  0  0  0  0  0  0  0  0  0  0
   -1.8889   -3.1415   -2.1467 H   0  0  0  0  0  0  0  0  0  0  0  0
  1  9  1  0  0  0  0
  1 11  1  0  0  0  0
  2  1  1  0  0  0  0
  3 12  1  6  0  0  0
  3  4  1  0  0  0  0
  3  2  1  0  0  0  0
  4 13  1  0  0  0  0
  5  4  2  0  0  0  0
  6  3  1  0  0  0  0
  7  6  3  0  0  0  0
  8  7  1  0  0  0  0
  8 15  1  0  0  0  0
 10  1  1  0  0  0  0
 14  8  1  0  0  0  0
 16  8  1  0  0  0  0
M  END
