16
title
C -0.53057027 2.4332347 1.2534126
O -0.7575659 1.0557925 1.0082169
C -0.01205244 0.5579123 -0.09206588
C 1.4610584 0.37909037 0.3281135
O 2.4004974 0.8175368 -0.27716893
C -0.5286132 -0.7451771 -0.48625416
C -0.88247657 -1.8501208 -0.80858284
C -1.3353051 -3.1749754 -1.2023854
H 0.51957405 2.6495984 1.4963995
H -0.8177139 3.0471241 0.387074
H -1.1538361 2.7056599 2.1073246
H -0.03505998 1.2614465 -0.9388159
H 1.5657253 -0.19491297 1.274916
H -0.48940304 -3.8582973 -1.3337169
H -1.9956232 -3.6045566 -0.4414981
H -1.8889457 -3.141541 -2.1467276
