title
 OpenBabel02282109593D

 18 17  0  0  0  0  0  0  0  0999 V2000
   -0.6425    2.1204    1.1718 C   0  0  0  0  0  0  0  0  0  0  0  0
   -0.6580    0.6139    1.4344 C   0  0  0  0  0  0  0  0  0  0  0  0
    0.2595   -0.1321    0.5696 N   0  0  0  0  0  0  0  0  0  0  0  0
    1.4878   -0.5540    1.0414 C   0  0  0  0  0  0  0  0  0  0  0  0
    2.3183   -1.1531    0.3988 O   0  0  0  0  0  0  0  0  0  0  0  0
   -0.1036   -0.4241   -0.7443 C   0  0  0  0  0  0  0  0  0  0  0  0
   -1.2200   -0.0633   -1.2209 N   0  0  0  0  0  0  0  0  0  0  0  0
   -1.5069   -0.4347   -2.5920 C   0  0  0  0  0  0  0  0  0  0  0  0
    0.3561    2.5385    1.3320 H   0  0  0  0  0  0  0  0  0  0  0  0
   -0.9517    2.3296    0.1460 H   0  0  0  0  0  0  0  0  0  0  0  0
   -1.3370    2.6238    1.8515 H   0  0  0  0  0  0  0  0  0  0  0  0
   -0.3733    0.4004    2.4693 H   0  0  0  0  0  0  0  0  0  0  0  0
   -1.6610    0.2138    1.2698 H   0  0  0  0  0  0  0  0  0  0  0  0
    1.6289   -0.2782    2.1033 H   0  0  0  0  0  0  0  0  0  0  0  0
    0.6696   -0.9854   -1.2756 H   0  0  0  0  0  0  0  0  0  0  0  0
   -2.4226   -1.0362   -2.6242 H   0  0  0  0  0  0  0  0  0  0  0  0
   -1.7003    0.4676   -3.1836 H   0  0  0  0  0  0  0  0  0  0  0  0
   -0.6988   -1.0037   -3.0773 H   0  0  0  0  0  0  0  0  0  0  0  0
  1  9  1  0  0  0  0
  1  2  1  0  0  0  0
  1 11  1  0  0  0  0
  2 12  1  0  0  0  0
  3  4  1  0  0  0  0
  3  2  1  0  0  0  0
  4 14  1  0  0  0  0
  5  4  2  0  0  0  0
  6  3  1  0  0  0  0
  7  6  2  0  0  0  0
  8  7  1  0  0  0  0
 10  1  1  0  0  0  0
 13  2  1  0  0  0  0
 15  6  1  0  0  0  0
 16  8  1  0  0  0  0
 17  8  1  0  0  0  0
 18  8  1  0  0  0  0
M  END
