title
 OpenBabel02282109593D

 17 16  0  0  0  0  0  0  0  0999 V2000
    0.7149    0.6993   -1.7324 C   0  0  0  0  0  0  0  0  0  0  0  0
   -0.5032    0.3141   -1.0914 O   0  0  0  0  0  0  0  0  0  0  0  0
   -0.4888    0.2582    0.2838 C   0  0  0  0  0  0  0  0  0  0  0  0
   -0.5740   -1.1632    0.8099 C   0  0  0  0  0  0  0  0  0  0  0  0
    0.5463   -2.0015    0.3913 C   0  0  0  0  0  0  0  0  0  0  0  0
    1.4723   -2.6914    0.0582 C   0  0  0  0  0  0  0  0  0  0  0  0
   -0.5047    1.2364    1.0795 N   0  0  0  0  0  0  0  0  0  0  0  0
   -0.5421    2.5968    0.5726 C   0  0  0  0  0  0  0  0  0  0  0  0
    1.5092   -0.0204   -1.5097 H   0  0  0  0  0  0  0  0  0  0  0  0
    0.5085    0.6938   -2.8043 H   0  0  0  0  0  0  0  0  0  0  0  0
    1.0364    1.7028   -1.4339 H   0  0  0  0  0  0  0  0  0  0  0  0
   -0.6389   -1.1176    1.8998 H   0  0  0  0  0  0  0  0  0  0  0  0
   -1.5097   -1.6024    0.4381 H   0  0  0  0  0  0  0  0  0  0  0  0
    2.2860   -3.3088   -0.2321 H   0  0  0  0  0  0  0  0  0  0  0  0
    0.4526    3.0520    0.6543 H   0  0  0  0  0  0  0  0  0  0  0  0
   -0.8829    2.6757   -0.4667 H   0  0  0  0  0  0  0  0  0  0  0  0
   -1.2102    3.1848    1.2096 H   0  0  0  0  0  0  0  0  0  0  0  0
  1  9  1  0  0  0  0
  1 11  1  0  0  0  0
  1  2  1  0  0  0  0
  2  3  1  0  0  0  0
  3  4  1  0  0  0  0
  3  7  2  0  0  0  0
  4 12  1  0  0  0  0
  5  4  1  0  0  0  0
  6  5  3  0  0  0  0
  8 15  1  0  0  0  0
  8  7  1  0  0  0  0
  8 17  1  0  0  0  0
 10  1  1  0  0  0  0
 13  4  1  0  0  0  0
 14  6  1  0  0  0  0
 16  8  1  0  0  0  0
M  END
