title
 OpenBabel02282109593D

 18 17  0  0  1  0  0  0  0  0999 V2000
    1.9363    0.1360    1.7214 C   0  0  0  0  0  0  0  0  0  0  0  0
    1.2789    0.3037    0.3509 C   0  0  0  0  0  0  0  0  0  0  0  0
   -0.1655   -0.2417    0.2906 C   0  0  1  0  0  0  0  0  0  0  0  0
   -0.8534    0.0854   -1.0690 C   0  0  0  0  0  0  0  0  0  0  0  0
   -1.0137    1.5150   -1.3014 C   0  0  0  0  0  0  0  0  0  0  0  0
   -1.1490    2.6974   -1.4715 C   0  0  0  0  0  0  0  0  0  0  0  0
   -0.2115   -1.6835    0.5250 C   0  0  0  0  0  0  0  0  0  0  0  0
   -0.2450   -2.8748    0.6858 C   0  0  0  0  0  0  0  0  0  0  0  0
    2.9574    0.5290    1.7137 H   0  0  0  0  0  0  0  0  0  0  0  0
    1.3786    0.6740    2.4960 H   0  0  0  0  0  0  0  0  0  0  0  0
    1.9804   -0.9179    2.0117 H   0  0  0  0  0  0  0  0  0  0  0  0
    1.2446    1.3634    0.0771 H   0  0  0  0  0  0  0  0  0  0  0  0
    1.8753   -0.2055   -0.4160 H   0  0  0  0  0  0  0  0  0  0  0  0
   -0.7488    0.2553    1.0776 H   0  0  0  0  0  0  0  0  0  0  0  0
   -0.2649   -0.3638   -1.8784 H   0  0  0  0  0  0  0  0  0  0  0  0
   -1.8337   -0.4032   -1.0942 H   0  0  0  0  0  0  0  0  0  0  0  0
   -1.2722    3.7392   -1.6354 H   0  0  0  0  0  0  0  0  0  0  0  0
   -0.2785   -3.9244    0.8437 H   0  0  0  0  0  0  0  0  0  0  0  0
  1 11  1  0  0  0  0
  1 10  1  0  0  0  0
  2  1  1  0  0  0  0
  3  2  1  0  0  0  0
  3  7  1  0  0  0  0
  3 14  1  1  0  0  0
  4  3  1  0  0  0  0
  5  4  1  0  0  0  0
  6  5  3  0  0  0  0
  7  8  3  0  0  0  0
  8 18  1  0  0  0  0
  9  1  1  0  0  0  0
 12  2  1  0  0  0  0
 13  2  1  0  0  0  0
 15  4  1  0  0  0  0
 16  4  1  0  0  0  0
 17  6  1  0  0  0  0
M  END
