title
 OpenBabel02282109593D

 16 15  0  0  1  0  0  0  0  0999 V2000
   -0.2048    2.1756   -1.1064 C   0  0  0  0  0  0  0  0  0  0  0  0
   -0.4153    0.7437   -0.9158 N   0  0  0  0  0  0  0  0  0  0  0  0
    0.3256    0.1771    0.2014 C   0  0  1  0  0  0  0  0  0  0  0  0
   -0.1408   -1.2794    0.4671 C   0  0  0  0  0  0  0  0  0  0  0  0
   -1.5430   -1.3287    0.8590 C   0  0  0  0  0  0  0  0  0  0  0  0
   -2.7034   -1.3344    1.1731 C   0  0  0  0  0  0  0  0  0  0  0  0
    1.7694    0.1789   -0.0962 C   0  0  0  0  0  0  0  0  0  0  0  0
    2.9055    0.1765   -0.3054 N   0  0  0  0  0  0  0  0  0  0  0  0
    0.8339    2.3590   -1.3986 H   0  0  0  0  0  0  0  0  0  0  0  0
   -0.8471    2.5237   -1.9190 H   0  0  0  0  0  0  0  0  0  0  0  0
   -0.4173    2.7822   -0.2091 H   0  0  0  0  0  0  0  0  0  0  0  0
   -1.3996    0.5537   -0.7547 H   0  0  0  0  0  0  0  0  0  0  0  0
    0.1979    0.7496    1.1395 H   0  0  0  0  0  0  0  0  0  0  0  0
    0.0196   -1.8633   -0.4456 H   0  0  0  0  0  0  0  0  0  0  0  0
    0.4875   -1.7170    1.2497 H   0  0  0  0  0  0  0  0  0  0  0  0
   -3.7261   -1.3633    1.4587 H   0  0  0  0  0  0  0  0  0  0  0  0
  1  2  1  0  0  0  0
  1 11  1  0  0  0  0
  2 12  1  0  0  0  0
  2  3  1  0  0  0  0
  3  4  1  0  0  0  0
  3 13  1  1  0  0  0
  4  5  1  0  0  0  0
  4 15  1  0  0  0  0
  5  6  3  0  0  0  0
  6 16  1  0  0  0  0
  7  3  1  0  0  0  0
  8  7  3  0  0  0  0
  9  1  1  0  0  0  0
 10  1  1  0  0  0  0
 14  4  1  0  0  0  0
M  END
