title
 OpenBabel02282109593D

 16 15  0  0  1  0  0  0  0  0999 V2000
   -0.2376    1.5326    1.5315 C   0  0  0  0  0  0  0  0  0  0  0  0
   -0.2779    0.0850    1.3369 N   0  0  0  0  0  0  0  0  0  0  0  0
    0.4565   -0.4393    0.1867 C   0  0  1  0  0  0  0  0  0  0  0  0
   -0.2774   -0.1025   -1.1401 C   0  0  0  0  0  0  0  0  0  0  0  0
   -1.6357   -0.6382   -1.1770 C   0  0  0  0  0  0  0  0  0  0  0  0
   -2.7042   -1.0737   -1.2308 N   0  0  0  0  0  0  0  0  0  0  0  0
    1.8595   -0.0012    0.0951 C   0  0  0  0  0  0  0  0  0  0  0  0
    2.9990    0.3803    0.0465 C   0  0  0  0  0  0  0  0  0  0  0  0
    0.7784    1.9544    1.5678 H   0  0  0  0  0  0  0  0  0  0  0  0
   -0.7890    2.0378    0.7320 H   0  0  0  0  0  0  0  0  0  0  0  0
   -0.7475    1.7673    2.4691 H   0  0  0  0  0  0  0  0  0  0  0  0
    0.0560   -0.3793    2.1732 H   0  0  0  0  0  0  0  0  0  0  0  0
    0.4456   -1.5308    0.2882 H   0  0  0  0  0  0  0  0  0  0  0  0
   -0.3118    0.9816   -1.2837 H   0  0  0  0  0  0  0  0  0  0  0  0
    0.2926   -0.5131   -1.9789 H   0  0  0  0  0  0  0  0  0  0  0  0
    4.0105    0.7027    0.0054 H   0  0  0  0  0  0  0  0  0  0  0  0
  1  9  1  0  0  0  0
  1 11  1  0  0  0  0
  2  1  1  0  0  0  0
  2 12  1  0  0  0  0
  3 13  1  1  0  0  0
  3  2  1  0  0  0  0
  4  3  1  0  0  0  0
  5  4  1  0  0  0  0
  6  5  3  0  0  0  0
  7  3  1  0  0  0  0
  8  7  3  0  0  0  0
 10  1  1  0  0  0  0
 14  4  1  0  0  0  0
 15  4  1  0  0  0  0
 16  8  1  0  0  0  0
M  END
