title
 OpenBabel02282109593D

 15 14  0  0  1  0  0  0  0  0999 V2000
   -0.9428    2.1734    0.6875 C   0  0  0  0  0  0  0  0  0  0  0  0
   -0.6050    0.7558    0.8044 N   0  0  0  0  0  0  0  0  0  0  0  0
    0.0186    0.1941   -0.3839 C   0  0  1  0  0  0  0  0  0  0  0  0
    0.4781   -1.2621   -0.1074 C   0  0  0  0  0  0  0  0  0  0  0  0
    1.5023   -1.3004    0.9331 C   0  0  0  0  0  0  0  0  0  0  0  0
    2.3040   -1.2949    1.7653 N   0  0  0  0  0  0  0  0  0  0  0  0
   -0.9404    0.1785   -1.5031 C   0  0  0  0  0  0  0  0  0  0  0  0
   -1.6732    0.1602   -2.3954 N   0  0  0  0  0  0  0  0  0  0  0  0
   -0.0878    2.8140    0.4135 H   0  0  0  0  0  0  0  0  0  0  0  0
   -1.7219    2.3038   -0.0695 H   0  0  0  0  0  0  0  0  0  0  0  0
   -1.3424    2.5191    1.6435 H   0  0  0  0  0  0  0  0  0  0  0  0
    0.0273    0.6171    1.5869 H   0  0  0  0  0  0  0  0  0  0  0  0
    0.8971    0.7696   -0.7312 H   0  0  0  0  0  0  0  0  0  0  0  0
   -0.3851   -1.8536    0.2117 H   0  0  0  0  0  0  0  0  0  0  0  0
    0.8748   -1.7079   -1.0239 H   0  0  0  0  0  0  0  0  0  0  0  0
  1  2  1  0  0  0  0
  1 11  1  0  0  0  0
  2 12  1  0  0  0  0
  3 13  1  6  0  0  0
  3  4  1  0  0  0  0
  3  2  1  0  0  0  0
  4 14  1  0  0  0  0
  4  5  1  0  0  0  0
  5  6  3  0  0  0  0
  7  3  1  0  0  0  0
  8  7  3  0  0  0  0
  9  1  1  0  0  0  0
 10  1  1  0  0  0  0
 15  4  1  0  0  0  0
M  END
