15
title
C -0.07279609 2.135666 -1.0441012
O -0.3762525 0.7610486 -0.87175906
C 0.34487662 0.13657475 0.15610436
C -0.28562093 -1.2500807 0.40448442
C -1.6281624 -1.1478993 0.95775497
C -2.7274024 -1.0582333 1.4329603
C 1.7781799 -0.006763577 -0.19819805
N 2.893705 -0.10927713 -0.48127282
H 0.9759325 2.2856395 -1.3334283
H -0.7209289 2.4993155 -1.843032
H -0.2754283 2.7060783 -0.1262612
H 0.29332665 0.725217 1.085747
H -0.29967812 -1.7871354 -0.55026585
H 0.3643671 -1.8145053 1.0824041
H -3.7035203 -0.9870691 1.8451588
