title
 OpenBabel02282109593D

 15 14  0  0  1  0  0  0  0  0999 V2000
   -0.0728    2.1357   -1.0441 C   0  0  0  0  0  0  0  0  0  0  0  0
   -0.3763    0.7610   -0.8718 O   0  0  0  0  0  0  0  0  0  0  0  0
    0.3449    0.1366    0.1561 C   0  0  1  0  0  0  0  0  0  0  0  0
   -0.2856   -1.2501    0.4045 C   0  0  0  0  0  0  0  0  0  0  0  0
   -1.6282   -1.1479    0.9578 C   0  0  0  0  0  0  0  0  0  0  0  0
   -2.7274   -1.0582    1.4330 C   0  0  0  0  0  0  0  0  0  0  0  0
    1.7782   -0.0068   -0.1982 C   0  0  0  0  0  0  0  0  0  0  0  0
    2.8937   -0.1093   -0.4813 N   0  0  0  0  0  0  0  0  0  0  0  0
    0.9759    2.2856   -1.3334 H   0  0  0  0  0  0  0  0  0  0  0  0
   -0.7209    2.4993   -1.8430 H   0  0  0  0  0  0  0  0  0  0  0  0
   -0.2754    2.7061   -0.1263 H   0  0  0  0  0  0  0  0  0  0  0  0
    0.2933    0.7252    1.0857 H   0  0  0  0  0  0  0  0  0  0  0  0
   -0.2997   -1.7871   -0.5503 H   0  0  0  0  0  0  0  0  0  0  0  0
    0.3644   -1.8145    1.0824 H   0  0  0  0  0  0  0  0  0  0  0  0
   -3.7035   -0.9871    1.8452 H   0  0  0  0  0  0  0  0  0  0  0  0
  1  2  1  0  0  0  0
  1 11  1  0  0  0  0
  2  3  1  0  0  0  0
  3  4  1  0  0  0  0
  3 12  1  1  0  0  0
  4  5  1  0  0  0  0
  4 14  1  0  0  0  0
  5  6  3  0  0  0  0
  6 15  1  0  0  0  0
  7  3  1  0  0  0  0
  8  7  3  0  0  0  0
  9  1  1  0  0  0  0
 10  1  1  0  0  0  0
 13  4  1  0  0  0  0
M  END
