15
title
C -0.061732706 2.1352794 -1.0489302
O -0.34487206 0.7602489 -0.8641764
C 0.38797045 0.1568566 0.17880446
C -0.24559882 -1.2326118 0.40758437
C -1.6279337 -1.1346612 0.8694715
N -2.7140372 -1.0618663 1.2556485
C 1.8169999 0.021729177 -0.13366818
C 2.9831674 -0.096276335 -0.39829057
H 0.9864622 2.2972746 -1.3324467
H -0.7114987 2.482529 -1.854127
H -0.277634 2.7131655 -0.13831234
H 0.2833708 0.74776304 1.1037813
H -0.21304305 -1.7869722 -0.5351199
H 0.34392703 -1.7876819 1.1429156
H 4.0158744 -0.19366282 -0.6289456
