14
title
O 1.7583646 2.147053 -0.34838307
C 1.6990414 0.7458431 -0.3727331
C 0.24131301 0.21582073 -0.32585624
C 0.21460012 -1.3312938 -0.40417
C -1.1330256 -1.8761775 -0.54129946
N -2.2012846 -2.298012 -0.6623669
C -0.40425846 0.7101578 0.89233434
N -0.84735435 1.1342643 1.8719789
H 1.4739099 2.451952 0.52123684
H 2.1471086 0.43000785 -1.3200839
H 2.275345 0.28611603 0.44454154
H -0.29594335 0.6316275 -1.1847979
H 0.80864996 -1.647327 -1.2688379
H 0.68554425 -1.7609086 0.48622414
