18
title
C -0.69477075 2.2028012 1.7696267
C -0.70967543 0.67671585 1.6485106
C 0.06862441 0.1421008 0.4233195
C 0.23888597 -1.3924448 0.50664955
C 0.9829764 -1.9476643 -0.61757904
C 1.596376 -2.3716638 -1.560052
C -0.6866356 0.5191855 -0.839135
O -0.44254732 1.4698191 -1.5344788
H 0.32702556 2.5756896 1.894703
H -1.1115555 2.6823864 0.87946296
H -1.2792214 2.5273747 2.6355932
H -0.2741589 0.22865672 2.55009
H -1.7456311 0.31296405 1.6016551
H 1.0511488 0.6224322 0.3758389
H 0.7429866 -1.6424625 1.4478112
H -0.75263005 -1.8632991 0.55988103
H 2.1369128 -2.7545693 -2.3899937
H -1.5530211 -0.14960982 -1.0635768
