title
 OpenBabel02282109593D

 18 17  0  0  1  0  0  0  0  0999 V2000
   -0.6948    2.2028    1.7696 C   0  0  0  0  0  0  0  0  0  0  0  0
   -0.7097    0.6767    1.6485 C   0  0  0  0  0  0  0  0  0  0  0  0
    0.0686    0.1421    0.4233 C   0  0  1  0  0  0  0  0  0  0  0  0
    0.2389   -1.3924    0.5066 C   0  0  0  0  0  0  0  0  0  0  0  0
    0.9830   -1.9477   -0.6176 C   0  0  0  0  0  0  0  0  0  0  0  0
    1.5964   -2.3717   -1.5601 C   0  0  0  0  0  0  0  0  0  0  0  0
   -0.6866    0.5192   -0.8391 C   0  0  0  0  0  0  0  0  0  0  0  0
   -0.4425    1.4698   -1.5345 O   0  0  0  0  0  0  0  0  0  0  0  0
    0.3270    2.5757    1.8947 H   0  0  0  0  0  0  0  0  0  0  0  0
   -1.1116    2.6824    0.8795 H   0  0  0  0  0  0  0  0  0  0  0  0
   -1.2792    2.5274    2.6356 H   0  0  0  0  0  0  0  0  0  0  0  0
   -0.2742    0.2287    2.5501 H   0  0  0  0  0  0  0  0  0  0  0  0
   -1.7456    0.3130    1.6017 H   0  0  0  0  0  0  0  0  0  0  0  0
    1.0511    0.6224    0.3758 H   0  0  0  0  0  0  0  0  0  0  0  0
    0.7430   -1.6425    1.4478 H   0  0  0  0  0  0  0  0  0  0  0  0
   -0.7526   -1.8633    0.5599 H   0  0  0  0  0  0  0  0  0  0  0  0
    2.1369   -2.7546   -2.3900 H   0  0  0  0  0  0  0  0  0  0  0  0
   -1.5530   -0.1496   -1.0636 H   0  0  0  0  0  0  0  0  0  0  0  0
  1  9  1  0  0  0  0
  1 11  1  0  0  0  0
  2  1  1  0  0  0  0
  2 12  1  0  0  0  0
  3 14  1  6  0  0  0
  3  4  1  0  0  0  0
  3  2  1  0  0  0  0
  4 16  1  0  0  0  0
  4 15  1  0  0  0  0
  5  4  1  0  0  0  0
  6  5  3  0  0  0  0
  7  3  1  0  0  0  0
  8  7  2  0  0  0  0
 10  1  1  0  0  0  0
 13  2  1  0  0  0  0
 17  6  1  0  0  0  0
 18  7  1  0  0  0  0
M  END
