title
 OpenBabel02282109593D

 17 16  0  0  1  0  0  0  0  0999 V2000
   -0.6660    2.2274    1.7575 C   0  0  0  0  0  0  0  0  0  0  0  0
   -0.6998    0.7017    1.6394 C   0  0  0  0  0  0  0  0  0  0  0  0
    0.0614    0.1583    0.4056 C   0  0  1  0  0  0  0  0  0  0  0  0
    0.2078   -1.3766    0.5023 C   0  0  0  0  0  0  0  0  0  0  0  0
    0.9700   -1.9541   -0.6036 C   0  0  0  0  0  0  0  0  0  0  0  0
    1.5730   -2.3955   -1.4849 N   0  0  0  0  0  0  0  0  0  0  0  0
   -0.7015    0.5497   -0.8510 C   0  0  0  0  0  0  0  0  0  0  0  0
   -0.4688    1.5229   -1.5163 O   0  0  0  0  0  0  0  0  0  0  0  0
    0.3611    2.5887    1.8715 H   0  0  0  0  0  0  0  0  0  0  0  0
   -1.0881    2.7111    0.8725 H   0  0  0  0  0  0  0  0  0  0  0  0
   -1.2372    2.5564    2.6303 H   0  0  0  0  0  0  0  0  0  0  0  0
   -0.2591    0.2507    2.5368 H   0  0  0  0  0  0  0  0  0  0  0  0
   -1.7396    0.3484    1.6025 H   0  0  0  0  0  0  0  0  0  0  0  0
    1.0498    0.6250    0.3524 H   0  0  0  0  0  0  0  0  0  0  0  0
    0.7021   -1.6403    1.4432 H   0  0  0  0  0  0  0  0  0  0  0  0
   -0.7826   -1.8482    0.5263 H   0  0  0  0  0  0  0  0  0  0  0  0
   -1.5566   -0.1258   -1.0957 H   0  0  0  0  0  0  0  0  0  0  0  0
  1  9  1  0  0  0  0
  1 11  1  0  0  0  0
  2  1  1  0  0  0  0
  2 12  1  0  0  0  0
  3 14  1  6  0  0  0
  3  4  1  0  0  0  0
  3  2  1  0  0  0  0
  4 16  1  0  0  0  0
  4 15  1  0  0  0  0
  5  4  1  0  0  0  0
  6  5  3  0  0  0  0
  7  3  1  0  0  0  0
  8  7  2  0  0  0  0
 10  1  1  0  0  0  0
 13  2  1  0  0  0  0
 17  7  1  0  0  0  0
M  END
