17
title
C -0.68340635 1.9802595 1.531298
C -1.0411967 0.57768774 1.0299364
N -0.39530432 0.22072549 -0.22548518
C 1.0437595 -0.034006886 -0.25189313
C 1.4506015 -1.1152622 0.6435982
C 1.7889942 -1.9924321 1.391878
C -1.0986983 0.10345466 -1.3892437
O -0.63081646 -0.17673747 -2.4730332
H 0.387029 2.0745177 1.7364112
H -0.95972544 2.7416594 0.7957033
H -1.2168143 2.1907706 2.4633062
H -0.7772819 -0.17147498 1.7855313
H -2.1217175 0.50480187 0.87050277
H 1.2823592 -0.2812351 -1.2907962
H 1.5965143 0.8797885 0.0023466605
H 2.0947306 -2.777573 2.0385044
H -2.1772048 0.29984912 -1.2338179
