title
 OpenBabel02282109593D

 16 15  0  0  0  0  0  0  0  0999 V2000
   -0.7586    2.0537    1.4212 C   0  0  0  0  0  0  0  0  0  0  0  0
   -1.0705    0.6145    1.0018 C   0  0  0  0  0  0  0  0  0  0  0  0
   -0.4118    0.2058   -0.2342 N   0  0  0  0  0  0  0  0  0  0  0  0
    1.0279    0.0111   -0.2586 C   0  0  0  0  0  0  0  0  0  0  0  0
    1.4683   -1.0261    0.6844 C   0  0  0  0  0  0  0  0  0  0  0  0
    1.8076   -1.8256    1.4460 N   0  0  0  0  0  0  0  0  0  0  0  0
   -1.1079   -0.0153   -1.3923 C   0  0  0  0  0  0  0  0  0  0  0  0
   -0.6181   -0.3456   -2.4499 O   0  0  0  0  0  0  0  0  0  0  0  0
    0.3066    2.1956    1.6265 H   0  0  0  0  0  0  0  0  0  0  0  0
   -1.0559    2.7621    0.6424 H   0  0  0  0  0  0  0  0  0  0  0  0
   -1.3033    2.2989    2.3377 H   0  0  0  0  0  0  0  0  0  0  0  0
   -0.7895   -0.0833    1.7999 H   0  0  0  0  0  0  0  0  0  0  0  0
   -2.1469    0.4971    0.8433 H   0  0  0  0  0  0  0  0  0  0  0  0
    1.2846   -0.2825   -1.2811 H   0  0  0  0  0  0  0  0  0  0  0  0
    1.5629    0.9398   -0.0273 H   0  0  0  0  0  0  0  0  0  0  0  0
   -2.1924    0.1489   -1.2522 H   0  0  0  0  0  0  0  0  0  0  0  0
  1  9  1  0  0  0  0
  1 11  1  0  0  0  0
  2  1  1  0  0  0  0
  2 12  1  0  0  0  0
  3  2  1  0  0  0  0
  4  3  1  0  0  0  0
  4 15  1  0  0  0  0
  4  5  1  0  0  0  0
  5  6  3  0  0  0  0
  7 16  1  0  0  0  0
  7  3  1  0  0  0  0
  8  7  2  0  0  0  0
 10  1  1  0  0  0  0
 13  2  1  0  0  0  0
 14  4  1  0  0  0  0
M  END
