title
 OpenBabel02282109593D

 16 15  0  0  1  0  0  0  0  0999 V2000
   -0.5568    1.6440    1.5708 C   0  0  0  0  0  0  0  0  0  0  0  0
   -1.1736    0.7756    0.6363 O   0  0  0  0  0  0  0  0  0  0  0  0
   -0.3343    0.2641   -0.3691 C   0  0  1  0  0  0  0  0  0  0  0  0
    0.5117   -0.9597    0.0494 C   0  0  0  0  0  0  0  0  0  0  0  0
    1.7188   -0.6387    0.7980 C   0  0  0  0  0  0  0  0  0  0  0  0
    2.7258   -0.3706    1.3979 C   0  0  0  0  0  0  0  0  0  0  0  0
   -1.2594   -0.0919   -1.5341 C   0  0  0  0  0  0  0  0  0  0  0  0
   -1.0063   -0.9085   -2.3793 O   0  0  0  0  0  0  0  0  0  0  0  0
    0.1685    1.1211    2.2035 H   0  0  0  0  0  0  0  0  0  0  0  0
   -0.0431    2.4741    1.0631 H   0  0  0  0  0  0  0  0  0  0  0  0
   -1.3561    2.0498    2.1953 H   0  0  0  0  0  0  0  0  0  0  0  0
    0.3432    1.0524   -0.7458 H   0  0  0  0  0  0  0  0  0  0  0  0
   -0.1339   -1.6287    0.6308 H   0  0  0  0  0  0  0  0  0  0  0  0
    0.7726   -1.4942   -0.8718 H   0  0  0  0  0  0  0  0  0  0  0  0
    3.6164   -0.1422    1.9291 H   0  0  0  0  0  0  0  0  0  0  0  0
   -2.2003    0.4982   -1.5323 H   0  0  0  0  0  0  0  0  0  0  0  0
  1 11  1  0  0  0  0
  1  9  1  0  0  0  0
  2  1  1  0  0  0  0
  3 12  1  6  0  0  0
  3  4  1  0  0  0  0
  3  2  1  0  0  0  0
  4 13  1  0  0  0  0
  4  5  1  0  0  0  0
  5  6  3  0  0  0  0
  6 15  1  0  0  0  0
  7 16  1  0  0  0  0
  7  3  1  0  0  0  0
  8  7  2  0  0  0  0
 10  1  1  0  0  0  0
 14  4  1  0  0  0  0
M  END
