title
 OpenBabel02282109593D

 15 14  0  0  1  0  0  0  0  0999 V2000
   -0.4776    1.6745    1.5704 C   0  0  0  0  0  0  0  0  0  0  0  0
   -1.1298    0.7632    0.6973 O   0  0  0  0  0  0  0  0  0  0  0  0
   -0.3562    0.2743   -0.3646 C   0  0  1  0  0  0  0  0  0  0  0  0
    0.5111   -0.9563   -0.0149 C   0  0  0  0  0  0  0  0  0  0  0  0
    1.7323   -0.6317    0.7129 C   0  0  0  0  0  0  0  0  0  0  0  0
    2.7004   -0.3609    1.2835 N   0  0  0  0  0  0  0  0  0  0  0  0
   -1.3426   -0.0836   -1.4804 C   0  0  0  0  0  0  0  0  0  0  0  0
   -1.1415   -0.9227   -2.3166 O   0  0  0  0  0  0  0  0  0  0  0  0
    0.3169    1.1937    2.1518 H   0  0  0  0  0  0  0  0  0  0  0  0
   -0.0455    2.5170    1.0118 H   0  0  0  0  0  0  0  0  0  0  0  0
   -1.2423    2.0530    2.2517 H   0  0  0  0  0  0  0  0  0  0  0  0
    0.2949    1.0685   -0.7728 H   0  0  0  0  0  0  0  0  0  0  0  0
   -0.0931   -1.6521    0.5767 H   0  0  0  0  0  0  0  0  0  0  0  0
    0.7667   -1.4613   -0.9525 H   0  0  0  0  0  0  0  0  0  0  0  0
   -2.2696    0.5254   -1.4465 H   0  0  0  0  0  0  0  0  0  0  0  0
  1  9  1  0  0  0  0
  1 11  1  0  0  0  0
  2  1  1  0  0  0  0
  3 12  1  6  0  0  0
  3  4  1  0  0  0  0
  3  2  1  0  0  0  0
  4 13  1  0  0  0  0
  4  5  1  0  0  0  0
  5  6  3  0  0  0  0
  7 15  1  0  0  0  0
  7  3  1  0  0  0  0
  8  7  2  0  0  0  0
 10  1  1  0  0  0  0
 14  4  1  0  0  0  0
M  END
