title
 OpenBabel02282109593D

 18 17  0  0  0  0  0  0  0  0999 V2000
   -0.0659    3.5831    0.4228 C   0  0  0  0  0  0  0  0  0  0  0  0
   -0.0454    2.1280    0.3762 C   0  0  0  0  0  0  0  0  0  0  0  0
   -0.0099    0.9250    0.3387 C   0  0  0  0  0  0  0  0  0  0  0  0
   -0.0028   -0.5333    0.2704 C   0  0  0  0  0  0  0  0  0  0  0  0
   -1.4390   -1.0819    0.3049 C   0  0  0  0  0  0  0  0  0  0  0  0
   -1.3599   -2.4946    0.4255 O   0  0  0  0  0  0  0  0  0  0  0  0
    0.7559   -1.0515   -0.9729 C   0  0  0  0  0  0  0  0  0  0  0  0
    2.1167   -0.6665   -0.9960 O   0  0  0  0  0  0  0  0  0  0  0  0
    0.7240    4.0101   -0.2050 H   0  0  0  0  0  0  0  0  0  0  0  0
   -1.0226    3.9813    0.0666 H   0  0  0  0  0  0  0  0  0  0  0  0
    0.0862    3.9526    1.4431 H   0  0  0  0  0  0  0  0  0  0  0  0
    0.5049   -0.9372    1.1596 H   0  0  0  0  0  0  0  0  0  0  0  0
   -1.9736   -0.6339    1.1543 H   0  0  0  0  0  0  0  0  0  0  0  0
   -1.9645   -0.7818   -0.6150 H   0  0  0  0  0  0  0  0  0  0  0  0
   -2.2518   -2.8516    0.3900 H   0  0  0  0  0  0  0  0  0  0  0  0
    0.6358   -2.1412   -1.0208 H   0  0  0  0  0  0  0  0  0  0  0  0
    0.3063   -0.6189   -1.8727 H   0  0  0  0  0  0  0  0  0  0  0  0
    2.5609   -1.1057   -0.2638 H   0  0  0  0  0  0  0  0  0  0  0  0
  1 11  1  0  0  0  0
  2  1  1  0  0  0  0
  3  2  3  0  0  0  0
  4  5  1  0  0  0  0
  4  3  1  0  0  0  0
  4 12  1  0  0  0  0
  5  6  1  0  0  0  0
  5 13  1  0  0  0  0
  7  4  1  0  0  0  0
  8  7  1  0  0  0  0
  8 18  1  0  0  0  0
  9  1  1  0  0  0  0
 10  1  1  0  0  0  0
 14  5  1  0  0  0  0
 15  6  1  0  0  0  0
 16  7  1  0  0  0  0
 17  7  1  0  0  0  0
M  END
