title
 OpenBabel02282109593D

 20 19  0  0  1  0  0  0  0  0999 V2000
    2.2335    2.0155   -0.3906 C   0  0  0  0  0  0  0  0  0  0  0  0
    1.7208    0.6085   -0.0786 C   0  0  0  0  0  0  0  0  0  0  0  0
    0.2007    0.5632    0.1374 C   0  0  1  0  0  0  0  0  0  0  0  0
   -0.4071    0.9906   -1.0751 O   0  0  0  0  0  0  0  0  0  0  0  0
   -1.7962    1.2125   -0.9743 C   0  0  0  0  0  0  0  0  0  0  0  0
   -0.2518   -0.7745    0.5440 C   0  0  0  0  0  0  0  0  0  0  0  0
   -0.6141   -1.8761    0.8703 C   0  0  0  0  0  0  0  0  0  0  0  0
   -1.0502   -3.2077    1.2658 C   0  0  0  0  0  0  0  0  0  0  0  0
    3.3140    2.0065   -0.5621 H   0  0  0  0  0  0  0  0  0  0  0  0
    1.7456    2.4146   -1.2827 H   0  0  0  0  0  0  0  0  0  0  0  0
    2.0338    2.7031    0.4393 H   0  0  0  0  0  0  0  0  0  0  0  0
    1.9620   -0.0786   -0.8969 H   0  0  0  0  0  0  0  0  0  0  0  0
    2.2010    0.2125    0.8224 H   0  0  0  0  0  0  0  0  0  0  0  0
   -0.0624    1.2778    0.9389 H   0  0  0  0  0  0  0  0  0  0  0  0
   -2.3376    0.2955   -0.7042 H   0  0  0  0  0  0  0  0  0  0  0  0
   -2.0292    1.9872   -0.2264 H   0  0  0  0  0  0  0  0  0  0  0  0
   -2.1371    1.5545   -1.9545 H   0  0  0  0  0  0  0  0  0  0  0  0
   -1.9161   -3.1644    1.9356 H   0  0  0  0  0  0  0  0  0  0  0  0
   -1.3339   -3.8063    0.3933 H   0  0  0  0  0  0  0  0  0  0  0  0
   -0.2522   -3.7458    1.7893 H   0  0  0  0  0  0  0  0  0  0  0  0
  1  2  1  0  0  0  0
  1 11  1  0  0  0  0
  2  3  1  0  0  0  0
  2 13  1  0  0  0  0
  3  6  1  0  0  0  0
  3 14  1  1  0  0  0
  4  5  1  0  0  0  0
  4  3  1  0  0  0  0
  5 15  1  0  0  0  0
  5 16  1  0  0  0  0
  6  7  3  0  0  0  0
  7  8  1  0  0  0  0
  8 20  1  0  0  0  0
  8 18  1  0  0  0  0
  9  1  1  0  0  0  0
 10  1  1  0  0  0  0
 12  2  1  0  0  0  0
 17  5  1  0  0  0  0
 19  8  1  0  0  0  0
M  END
