title
 OpenBabel02282109593D

 18 17  0  0  1  0  0  0  0  0999 V2000
   -0.9682    2.0115   -0.8617 C   0  0  0  0  0  0  0  0  0  0  0  0
   -1.2055    0.6425   -0.6062 O   0  0  0  0  0  0  0  0  0  0  0  0
   -0.3967    0.0943    0.4330 C   0  0  1  0  0  0  0  0  0  0  0  0
   -1.0145   -1.2801    0.7329 C   0  0  0  0  0  0  0  0  0  0  0  0
   -2.3712   -1.1515    1.0900 O   0  0  0  0  0  0  0  0  0  0  0  0
    1.0156   -0.0057    0.0623 C   0  0  0  0  0  0  0  0  0  0  0  0
    2.1747   -0.1185   -0.2459 C   0  0  0  0  0  0  0  0  0  0  0  0
    3.5767   -0.2511   -0.6138 C   0  0  0  0  0  0  0  0  0  0  0  0
    0.0633    2.1854   -1.1951 H   0  0  0  0  0  0  0  0  0  0  0  0
   -1.6573    2.3131   -1.6540 H   0  0  0  0  0  0  0  0  0  0  0  0
   -1.1572    2.6265    0.0314 H   0  0  0  0  0  0  0  0  0  0  0  0
   -0.5009    0.7212    1.3344 H   0  0  0  0  0  0  0  0  0  0  0  0
   -0.8760   -1.9208   -0.1511 H   0  0  0  0  0  0  0  0  0  0  0  0
   -0.4899   -1.7398    1.5749 H   0  0  0  0  0  0  0  0  0  0  0  0
   -2.7670   -0.6032    0.4013 H   0  0  0  0  0  0  0  0  0  0  0  0
    4.0269   -1.1292   -0.1381 H   0  0  0  0  0  0  0  0  0  0  0  0
    3.6915   -0.3669   -1.6970 H   0  0  0  0  0  0  0  0  0  0  0  0
    4.1561    0.6268   -0.3082 H   0  0  0  0  0  0  0  0  0  0  0  0
  1  2  1  0  0  0  0
  1 11  1  0  0  0  0
  2  3  1  0  0  0  0
  3  4  1  0  0  0  0
  3 12  1  1  0  0  0
  4  5  1  0  0  0  0
  4 14  1  0  0  0  0
  6  3  1  0  0  0  0
  7  6  3  0  0  0  0
  8 18  1  0  0  0  0
  8  7  1  0  0  0  0
  8 16  1  0  0  0  0
  9  1  1  0  0  0  0
 10  1  1  0  0  0  0
 13  4  1  0  0  0  0
 15  5  1  0  0  0  0
 17  8  1  0  0  0  0
M  END
