18
title
C -0.968234 2.0115197 -0.86173534
O -1.2054993 0.6424563 -0.6061812
C -0.39674833 0.09428756 0.43303487
C -1.0144589 -1.2801278 0.732904
O -2.3712165 -1.151505 1.0899975
C 1.0156028 -0.005716103 0.06231746
C 2.1746867 -0.11846788 -0.24593952
C 3.5766652 -0.25112292 -0.61383915
H 0.06329426 2.1854498 -1.1951299
H -1.6572703 2.313094 -1.653982
H -1.1571846 2.6264892 0.031392366
H -0.50087076 0.72122353 1.334429
H -0.876032 -1.9208438 -0.15113077
H -0.48988816 -1.7398 1.5748734
H -2.7669542 -0.60316896 0.40130052
H 4.026878 -1.1292219 -0.13812134
H 3.6914656 -0.36691347 -1.6970336
H 4.1560955 0.6268325 -0.30824566
