title
 OpenBabel02282109593D

 20 19  0  0  1  0  0  0  0  0999 V2000
   -1.0762    1.5897    2.2840 C   0  0  0  0  0  0  0  0  0  0  0  0
   -0.7903    0.1607    1.8192 C   0  0  0  0  0  0  0  0  0  0  0  0
   -0.0520    0.1022    0.4775 C   0  0  1  0  0  0  0  0  0  0  0  0
    0.2606   -1.3675    0.0940 C   0  0  0  0  0  0  0  0  0  0  0  0
    1.2124   -1.5395   -0.9970 C   0  0  0  0  0  0  0  0  0  0  0  0
    2.0198   -1.6966   -1.8745 C   0  0  0  0  0  0  0  0  0  0  0  0
   -0.8864    0.7228   -0.4856 O   0  0  0  0  0  0  0  0  0  0  0  0
   -0.2268    1.3781   -1.5511 C   0  0  0  0  0  0  0  0  0  0  0  0
   -0.1464    2.1479    2.4423 H   0  0  0  0  0  0  0  0  0  0  0  0
   -1.6669    2.1233    1.5358 H   0  0  0  0  0  0  0  0  0  0  0  0
   -1.6302    1.5924    3.2274 H   0  0  0  0  0  0  0  0  0  0  0  0
   -0.1922   -0.3682    2.5709 H   0  0  0  0  0  0  0  0  0  0  0  0
   -1.7317   -0.3938    1.7160 H   0  0  0  0  0  0  0  0  0  0  0  0
    0.8967    0.6562    0.5603 H   0  0  0  0  0  0  0  0  0  0  0  0
    0.6493   -1.8835    0.9812 H   0  0  0  0  0  0  0  0  0  0  0  0
   -0.6908   -1.8509   -0.1593 H   0  0  0  0  0  0  0  0  0  0  0  0
    2.7262   -1.8332   -2.6553 H   0  0  0  0  0  0  0  0  0  0  0  0
    0.4934    2.1234   -1.1805 H   0  0  0  0  0  0  0  0  0  0  0  0
    0.3032    0.6783   -2.2068 H   0  0  0  0  0  0  0  0  0  0  0  0
   -0.9987    1.8947   -2.1279 H   0  0  0  0  0  0  0  0  0  0  0  0
  1  9  1  0  0  0  0
  1 11  1  0  0  0  0
  2  1  1  0  0  0  0
  2 12  1  0  0  0  0
  3 14  1  1  0  0  0
  3  2  1  0  0  0  0
  4  3  1  0  0  0  0
  4 15  1  0  0  0  0
  5  4  1  0  0  0  0
  6  5  3  0  0  0  0
  7  3  1  0  0  0  0
  8 18  1  0  0  0  0
  8  7  1  0  0  0  0
 10  1  1  0  0  0  0
 13  2  1  0  0  0  0
 16  4  1  0  0  0  0
 17  6  1  0  0  0  0
 19  8  1  0  0  0  0
 20  8  1  0  0  0  0
M  END
