title
 OpenBabel02282109593D

 22 21  0  0  0  0  0  0  0  0999 V2000
    1.4150    2.2692   -0.4433 C   0  0  0  0  0  0  0  0  0  0  0  0
    1.2749    0.7447   -0.3855 C   0  0  0  0  0  0  0  0  0  0  0  0
   -0.1682    0.2377   -0.2028 C   0  0  0  0  0  0  0  0  0  0  0  0
   -1.0231    0.4546   -1.4660 C   0  0  0  0  0  0  0  0  0  0  0  0
   -2.5323    0.2728   -1.2680 C   0  0  0  0  0  0  0  0  0  0  0  0
   -0.1684   -1.2588    0.2062 C   0  0  0  0  0  0  0  0  0  0  0  0
    0.4507   -1.5164    1.5010 C   0  0  0  0  0  0  0  0  0  0  0  0
    0.9543   -1.7103    2.5757 C   0  0  0  0  0  0  0  0  0  0  0  0
    2.4667    2.5586   -0.5340 H   0  0  0  0  0  0  0  0  0  0  0  0
    0.8839    2.7062   -1.2946 H   0  0  0  0  0  0  0  0  0  0  0  0
    1.0214    2.7343    0.4674 H   0  0  0  0  0  0  0  0  0  0  0  0
    1.6951    0.2992   -1.2985 H   0  0  0  0  0  0  0  0  0  0  0  0
    1.8813    0.3678    0.4455 H   0  0  0  0  0  0  0  0  0  0  0  0
   -0.6248    0.8013    0.6232 H   0  0  0  0  0  0  0  0  0  0  0  0
   -0.8453    1.4683   -1.8410 H   0  0  0  0  0  0  0  0  0  0  0  0
   -0.6684   -0.2235   -2.2551 H   0  0  0  0  0  0  0  0  0  0  0  0
   -2.7963   -0.7486   -0.9763 H   0  0  0  0  0  0  0  0  0  0  0  0
   -2.9110    0.9465   -0.4913 H   0  0  0  0  0  0  0  0  0  0  0  0
   -3.0752    0.4946   -2.1922 H   0  0  0  0  0  0  0  0  0  0  0  0
   -1.1963   -1.6382    0.2290 H   0  0  0  0  0  0  0  0  0  0  0  0
    0.3519   -1.8384   -0.5694 H   0  0  0  0  0  0  0  0  0  0  0  0
    1.3989   -1.8923    3.5225 H   0  0  0  0  0  0  0  0  0  0  0  0
  1  2  1  0  0  0  0
  1 11  1  0  0  0  0
  2  3  1  0  0  0  0
  2 13  1  0  0  0  0
  3  6  1  0  0  0  0
  3 14  1  0  0  0  0
  4  5  1  0  0  0  0
  4  3  1  0  0  0  0
  5 17  1  0  0  0  0
  5 18  1  0  0  0  0
  6 20  1  0  0  0  0
  6  7  1  0  0  0  0
  7  8  3  0  0  0  0
  8 22  1  0  0  0  0
  9  1  1  0  0  0  0
 10  1  1  0  0  0  0
 12  2  1  0  0  0  0
 15  4  1  0  0  0  0
 16  4  1  0  0  0  0
 19  5  1  0  0  0  0
 21  6  1  0  0  0  0
M  END
