21
title
C -0.13976051 2.0753298 -2.1397655
C -0.06397117 0.58614624 -1.7902683
C 0.33367065 0.29534283 -0.33067518
C -0.6136956 0.9087054 0.72236735
C -2.0805225 0.46753153 0.64357215
C 0.49842885 -1.2362199 -0.1517989
C 1.0053936 -1.6150506 1.1652375
N 1.4097114 -1.8969977 2.2108247
H 0.80271447 2.5848377 -1.9101022
H -0.3391825 2.2120302 -3.206864
H -0.9357705 2.5855236 -1.5893453
H -1.0254464 0.10622076 -2.0139828
H 0.6698259 0.10385034 -2.4488862
H 1.323738 0.7401519 -0.16321188
H -0.21958716 0.6703889 1.7169381
H -0.5622357 1.9995248 0.6361545
H -2.6639538 0.95386344 1.4308885
H -2.5402083 0.73167074 -0.31414455
H -2.1953332 -0.61266804 0.78168446
H -0.45756352 -1.7469752 -0.31486934
H 1.189947 -1.6245286 -0.90818137
