title
 OpenBabel02282109593D

 21 20  0  0  0  0  0  0  0  0999 V2000
   -0.1398    2.0753   -2.1398 C   0  0  0  0  0  0  0  0  0  0  0  0
   -0.0640    0.5861   -1.7903 C   0  0  0  0  0  0  0  0  0  0  0  0
    0.3337    0.2953   -0.3307 C   0  0  0  0  0  0  0  0  0  0  0  0
   -0.6137    0.9087    0.7224 C   0  0  0  0  0  0  0  0  0  0  0  0
   -2.0805    0.4675    0.6436 C   0  0  0  0  0  0  0  0  0  0  0  0
    0.4984   -1.2362   -0.1518 C   0  0  0  0  0  0  0  0  0  0  0  0
    1.0054   -1.6151    1.1652 C   0  0  0  0  0  0  0  0  0  0  0  0
    1.4097   -1.8970    2.2108 N   0  0  0  0  0  0  0  0  0  0  0  0
    0.8027    2.5848   -1.9101 H   0  0  0  0  0  0  0  0  0  0  0  0
   -0.3392    2.2120   -3.2069 H   0  0  0  0  0  0  0  0  0  0  0  0
   -0.9358    2.5855   -1.5893 H   0  0  0  0  0  0  0  0  0  0  0  0
   -1.0254    0.1062   -2.0140 H   0  0  0  0  0  0  0  0  0  0  0  0
    0.6698    0.1039   -2.4489 H   0  0  0  0  0  0  0  0  0  0  0  0
    1.3237    0.7402   -0.1632 H   0  0  0  0  0  0  0  0  0  0  0  0
   -0.2196    0.6704    1.7169 H   0  0  0  0  0  0  0  0  0  0  0  0
   -0.5622    1.9995    0.6362 H   0  0  0  0  0  0  0  0  0  0  0  0
   -2.6640    0.9539    1.4309 H   0  0  0  0  0  0  0  0  0  0  0  0
   -2.5402    0.7317   -0.3141 H   0  0  0  0  0  0  0  0  0  0  0  0
   -2.1953   -0.6127    0.7817 H   0  0  0  0  0  0  0  0  0  0  0  0
   -0.4576   -1.7470   -0.3149 H   0  0  0  0  0  0  0  0  0  0  0  0
    1.1899   -1.6245   -0.9082 H   0  0  0  0  0  0  0  0  0  0  0  0
  1  9  1  0  0  0  0
  1  2  1  0  0  0  0
  1 11  1  0  0  0  0
  2  3  1  0  0  0  0
  3 14  1  0  0  0  0
  3  6  1  0  0  0  0
  3  4  1  0  0  0  0
  4 15  1  0  0  0  0
  5  4  1  0  0  0  0
  5 19  1  0  0  0  0
  5 17  1  0  0  0  0
  6  7  1  0  0  0  0
  7  8  3  0  0  0  0
 10  1  1  0  0  0  0
 12  2  1  0  0  0  0
 13  2  1  0  0  0  0
 16  4  1  0  0  0  0
 18  5  1  0  0  0  0
 20  6  1  0  0  0  0
 21  6  1  0  0  0  0
M  END
