title
 OpenBabel02282109593D

 19 18  0  0  1  0  0  0  0  0999 V2000
   -1.3486    2.3287    1.5845 C   0  0  0  0  0  0  0  0  0  0  0  0
   -1.1431    0.8114    1.5301 C   0  0  0  0  0  0  0  0  0  0  0  0
   -0.4246    0.3160    0.2599 C   0  0  1  0  0  0  0  0  0  0  0  0
    1.0812    0.6529    0.2798 C   0  0  0  0  0  0  0  0  0  0  0  0
    1.6796    0.6934   -0.9984 O   0  0  0  0  0  0  0  0  0  0  0  0
   -0.6777   -1.2061    0.1080 C   0  0  0  0  0  0  0  0  0  0  0  0
    0.0229   -1.8234   -1.0167 C   0  0  0  0  0  0  0  0  0  0  0  0
    0.6016   -2.2988   -1.8983 N   0  0  0  0  0  0  0  0  0  0  0  0
   -0.4019    2.8765    1.5658 H   0  0  0  0  0  0  0  0  0  0  0  0
   -1.9475    2.6740    0.7351 H   0  0  0  0  0  0  0  0  0  0  0  0
   -1.8736    2.6144    2.5009 H   0  0  0  0  0  0  0  0  0  0  0  0
   -0.5790    0.4793    2.4130 H   0  0  0  0  0  0  0  0  0  0  0  0
   -2.1225    0.3215    1.5999 H   0  0  0  0  0  0  0  0  0  0  0  0
   -0.8498    0.8219   -0.6153 H   0  0  0  0  0  0  0  0  0  0  0  0
    1.2178    1.6548    0.6968 H   0  0  0  0  0  0  0  0  0  0  0  0
    1.6025   -0.0457    0.9571 H   0  0  0  0  0  0  0  0  0  0  0  0
    1.7184   -0.1996   -1.3584 H   0  0  0  0  0  0  0  0  0  0  0  0
   -0.3630   -1.7238    1.0233 H   0  0  0  0  0  0  0  0  0  0  0  0
   -1.7498   -1.3992   -0.0092 H   0  0  0  0  0  0  0  0  0  0  0  0
  1 11  1  0  0  0  0
  2  1  1  0  0  0  0
  2 13  1  0  0  0  0
  2 12  1  0  0  0  0
  3 14  1  6  0  0  0
  3  4  1  0  0  0  0
  3  2  1  0  0  0  0
  4 15  1  0  0  0  0
  4 16  1  0  0  0  0
  5  4  1  0  0  0  0
  6  3  1  0  0  0  0
  6 18  1  0  0  0  0
  7  6  1  0  0  0  0
  8  7  3  0  0  0  0
  9  1  1  0  0  0  0
 10  1  1  0  0  0  0
 17  5  1  0  0  0  0
 19  6  1  0  0  0  0
M  END
