20
title
C 1.3683798 2.3072295 1.0605683
C 1.3808858 0.7908437 0.8753449
N 0.10761461 0.2595736 0.38503036
C -0.3466988 0.7876944 -0.9076004
C 0.5530785 0.51686084 -2.125052
C 0.0830048 -1.1931759 0.46720663
C -1.2658007 -1.7406818 0.27075496
N -2.318004 -2.1888604 0.10837665
H 2.2817574 2.6224732 1.5735779
H 1.3281465 2.8427932 0.10789731
H 0.50852984 2.6130779 1.663629
H 2.2334118 0.50449437 0.23123081
H 1.5659424 0.32106778 1.848935
H -1.3430882 0.3730174 -1.0925052
H -0.4862862 1.8660991 -0.79147947
H 1.5451245 0.9648331 -2.011286
H 0.6849659 -0.55389136 -2.31008
H 0.09650311 0.947799 -3.0214028
H 0.75691813 -1.7030655 -0.24715516
H 0.41857728 -1.4910456 1.4674141
