18
title
C 1.242911 1.6118594 -0.47952113
O 1.114778 0.20060624 -0.5058064
C -0.19313063 -0.3109926 -0.29291874
C -0.20996512 -1.6678777 -1.0042377
O 0.17810677 -1.5419705 -2.3519769
C -0.52678263 -0.47673094 1.2076018
C -0.8840288 0.753533 1.9029878
C -1.2048695 1.7615724 2.4745896
H 2.2663448 1.8401897 -0.7878977
H 0.5437276 2.0893884 -1.181279
H 1.0677048 2.0211837 0.5210955
H -0.9313247 0.35132965 -0.7683551
H 0.44556683 -2.3650043 -0.45448178
H -1.2238655 -2.0809023 -0.99145305
H 0.9771076 -0.99978954 -2.3314667
H -1.3600681 -1.1866397 1.2980505
H 0.33796602 -0.946642 1.6914173
H -1.4832191 2.6516314 2.9823058
