17
title
C -0.26705137 2.180115 0.86839265
O -0.19016503 0.7672897 0.8096888
C 0.4398885 0.25233582 -0.35668734
C 1.9328768 0.053827483 -0.06752363
O 2.1201642 -0.7805472 1.0567963
C -0.2467752 -1.0869379 -0.67605716
C -1.6706448 -0.9250378 -0.9530118
N -2.7927775 -0.7869533 -1.190693
H 0.724729 2.6536849 0.8533208
H -0.86147684 2.5789785 0.03523722
H -0.76156837 2.4315906 1.808969
H 0.30782512 0.94287944 -1.2018172
H 2.4312496 -0.42610648 -0.9165099
H 2.4031243 1.0394063 0.076734334
H 1.5598158 -0.41203383 1.7520217
H 0.23486395 -1.5529634 -1.5424019
H -0.10723157 -1.7612776 0.17395183
