title
 OpenBabel02282109593D

 18 17  0  0  0  0  0  0  0  0999 V2000
    1.1734    1.9592   -0.2390 O   0  0  0  0  0  0  0  0  0  0  0  0
    1.0923    0.5384   -0.0812 C   0  0  0  0  0  0  0  0  0  0  0  0
   -0.3482    0.0085   -0.0805 C   0  0  0  0  0  0  0  0  0  0  0  0
   -1.0877    0.3734   -1.3795 C   0  0  0  0  0  0  0  0  0  0  0  0
   -1.2938    1.7604   -1.5336 O   0  0  0  0  0  0  0  0  0  0  0  0
   -0.3599   -1.5252    0.1264 C   0  0  0  0  0  0  0  0  0  0  0  0
    0.2019   -1.9539    1.4019 C   0  0  0  0  0  0  0  0  0  0  0  0
    0.6612   -2.2885    2.4614 C   0  0  0  0  0  0  0  0  0  0  0  0
    0.8336    2.3639    0.5666 H   0  0  0  0  0  0  0  0  0  0  0  0
    1.6374    0.1231   -0.9373 H   0  0  0  0  0  0  0  0  0  0  0  0
    1.6152    0.2209    0.8293 H   0  0  0  0  0  0  0  0  0  0  0  0
   -0.8907    0.4721    0.7548 H   0  0  0  0  0  0  0  0  0  0  0  0
   -0.5326   -0.0537   -2.2354 H   0  0  0  0  0  0  0  0  0  0  0  0
   -2.0806   -0.0921   -1.3811 H   0  0  0  0  0  0  0  0  0  0  0  0
   -0.4333    2.1773   -1.3848 H   0  0  0  0  0  0  0  0  0  0  0  0
   -1.3939   -1.8840    0.0498 H   0  0  0  0  0  0  0  0  0  0  0  0
    0.1881   -2.0076   -0.6949 H   0  0  0  0  0  0  0  0  0  0  0  0
    1.0652   -2.5978    3.3934 H   0  0  0  0  0  0  0  0  0  0  0  0
  1  2  1  0  0  0  0
  1  9  1  0  0  0  0
  2  3  1  0  0  0  0
  2 11  1  0  0  0  0
  3  6  1  0  0  0  0
  3 12  1  0  0  0  0
  4  3  1  0  0  0  0
  5 15  1  0  0  0  0
  5  4  1  0  0  0  0
  6  7  1  0  0  0  0
  7  8  3  0  0  0  0
  8 18  1  0  0  0  0
 10  2  1  0  0  0  0
 13  4  1  0  0  0  0
 14  4  1  0  0  0  0
 16  6  1  0  0  0  0
 17  6  1  0  0  0  0
M  END
