title
 OpenBabel02282109593D

 17 16  0  0  0  0  0  0  0  0999 V2000
    1.2175    1.9467    0.0527 O   0  0  0  0  0  0  0  0  0  0  0  0
    1.1179    0.5522   -0.1109 C   0  0  0  0  0  0  0  0  0  0  0  0
   -0.3353    0.0401   -0.1048 C   0  0  0  0  0  0  0  0  0  0  0  0
   -1.0890    0.4320   -1.3789 C   0  0  0  0  0  0  0  0  0  0  0  0
   -1.0765    1.8519   -1.4992 O   0  0  0  0  0  0  0  0  0  0  0  0
   -0.3879   -1.4984    0.0385 C   0  0  0  0  0  0  0  0  0  0  0  0
    0.1127   -1.9729    1.3264 C   0  0  0  0  0  0  0  0  0  0  0  0
    0.5060   -2.3437    2.3477 N   0  0  0  0  0  0  0  0  0  0  0  0
    0.6020    2.3418   -0.5785 H   0  0  0  0  0  0  0  0  0  0  0  0
    1.6069    0.2094   -1.0427 H   0  0  0  0  0  0  0  0  0  0  0  0
    1.6666    0.1004    0.7224 H   0  0  0  0  0  0  0  0  0  0  0  0
   -0.8452    0.4950    0.7521 H   0  0  0  0  0  0  0  0  0  0  0  0
   -0.6020   -0.0369   -2.2493 H   0  0  0  0  0  0  0  0  0  0  0  0
   -2.1239    0.0595   -1.3353 H   0  0  0  0  0  0  0  0  0  0  0  0
   -1.4295    2.0950   -2.3601 H   0  0  0  0  0  0  0  0  0  0  0  0
   -1.4172   -1.8569   -0.0789 H   0  0  0  0  0  0  0  0  0  0  0  0
    0.2014   -1.9728   -0.7566 H   0  0  0  0  0  0  0  0  0  0  0  0
  2  3  1  0  0  0  0
  2  1  1  0  0  0  0
  2 11  1  0  0  0  0
  3  6  1  0  0  0  0
  3 12  1  0  0  0  0
  4 14  1  0  0  0  0
  4  3  1  0  0  0  0
  5  4  1  0  0  0  0
  6  7  1  0  0  0  0
  7  8  3  0  0  0  0
  9  1  1  0  0  0  0
 10  2  1  0  0  0  0
 13  4  1  0  0  0  0
 15  5  1  0  0  0  0
 16  6  1  0  0  0  0
 17  6  1  0  0  0  0
M  END
