22
title
C 1.8625729 2.1571994 1.2235726
C 1.5529307 0.67381436 0.9980837
C 0.10247467 0.37672356 0.56877035
C -0.3103706 1.048205 -0.76146257
C 0.42461595 0.55871814 -2.0154932
C -0.13246216 -1.1529226 0.54582494
C -1.5691749 -1.5105441 0.25364378
O -1.944847 -2.1719298 -0.68092513
H 2.8769228 2.2855608 1.613907
H 1.793106 2.7380872 0.29901716
H 1.1700808 2.601019 1.9477988
H 2.2477922 0.26147774 0.25577742
H 1.7517906 0.12513466 1.9275242
H -0.5551168 0.79335666 1.3468751
H -1.387499 0.8974485 -0.90713954
H -0.17818953 2.1311433 -0.6611296
H 1.5091499 0.6849359 -1.9339488
H 0.22106503 -0.49736086 -2.2154431
H 0.09570096 1.1248021 -2.8922737
H 0.50874484 -1.6506557 -0.18706903
H 0.11231885 -1.5575228 1.538269
H -2.3014498 -1.097425 0.9887696
