21
title
C -0.7953237 1.5376796 2.0307403
C -0.6312906 0.032446507 1.8096082
C 0.06203761 -0.33702347 0.48644808
C 0.31433627 -1.8513067 0.38004914
C 1.1135142 -2.26686 -0.856945
N -0.7036837 0.14905754 -0.6601147
C -0.24083763 1.0599123 -1.5577848
O 0.85197365 1.5858436 -1.5322654
H 0.17518368 2.0443778 2.0338383
H -1.4006901 1.9916918 1.240799
H -1.2850134 1.7410442 2.9878316
H -0.045244493 -0.39998582 2.6293972
H -1.6132134 -0.4610848 1.8483758
H 1.0193138 0.1907007 0.42415407
H 0.84375346 -2.1691325 1.2862551
H -0.65169865 -2.3764412 0.39573744
H 1.2697289 -3.3496444 -0.8757269
H 0.5942575 -1.9865935 -1.7780368
H 2.0958683 -1.783806 -0.87303036
H -1.6358029 -0.21234599 -0.7971949
H -0.9949247 1.2773052 -2.3415053
