title
 OpenBabel02282109593D

 21 20  0  0  0  0  0  0  0  0999 V2000
   -0.7953    1.5377    2.0307 C   0  0  0  0  0  0  0  0  0  0  0  0
   -0.6313    0.0324    1.8096 C   0  0  0  0  0  0  0  0  0  0  0  0
    0.0620   -0.3370    0.4864 C   0  0  0  0  0  0  0  0  0  0  0  0
    0.3143   -1.8513    0.3800 C   0  0  0  0  0  0  0  0  0  0  0  0
    1.1135   -2.2669   -0.8569 C   0  0  0  0  0  0  0  0  0  0  0  0
   -0.7037    0.1491   -0.6601 N   0  0  0  0  0  0  0  0  0  0  0  0
   -0.2408    1.0599   -1.5578 C   0  0  0  0  0  0  0  0  0  0  0  0
    0.8520    1.5858   -1.5323 O   0  0  0  0  0  0  0  0  0  0  0  0
    0.1752    2.0444    2.0338 H   0  0  0  0  0  0  0  0  0  0  0  0
   -1.4007    1.9917    1.2408 H   0  0  0  0  0  0  0  0  0  0  0  0
   -1.2850    1.7410    2.9878 H   0  0  0  0  0  0  0  0  0  0  0  0
   -0.0452   -0.4000    2.6294 H   0  0  0  0  0  0  0  0  0  0  0  0
   -1.6132   -0.4611    1.8484 H   0  0  0  0  0  0  0  0  0  0  0  0
    1.0193    0.1907    0.4242 H   0  0  0  0  0  0  0  0  0  0  0  0
    0.8438   -2.1691    1.2863 H   0  0  0  0  0  0  0  0  0  0  0  0
   -0.6517   -2.3764    0.3957 H   0  0  0  0  0  0  0  0  0  0  0  0
    1.2697   -3.3496   -0.8757 H   0  0  0  0  0  0  0  0  0  0  0  0
    0.5943   -1.9866   -1.7780 H   0  0  0  0  0  0  0  0  0  0  0  0
    2.0959   -1.7838   -0.8730 H   0  0  0  0  0  0  0  0  0  0  0  0
   -1.6358   -0.2123   -0.7972 H   0  0  0  0  0  0  0  0  0  0  0  0
   -0.9949    1.2773   -2.3415 H   0  0  0  0  0  0  0  0  0  0  0  0
  1  9  1  0  0  0  0
  1 11  1  0  0  0  0
  2 13  1  0  0  0  0
  2  1  1  0  0  0  0
  2 12  1  0  0  0  0
  3  2  1  0  0  0  0
  4 16  1  0  0  0  0
  4  3  1  0  0  0  0
  4 15  1  0  0  0  0
  5  4  1  0  0  0  0
  6  3  1  0  0  0  0
  7  8  2  0  0  0  0
  7  6  1  0  0  0  0
 10  1  1  0  0  0  0
 14  3  1  0  0  0  0
 17  5  1  0  0  0  0
 18  5  1  0  0  0  0
 19  5  1  0  0  0  0
 20  6  1  0  0  0  0
 21  7  1  0  0  0  0
M  END
