20
title
C 1.5609303 1.9498403 -0.4059569
C 1.1684884 0.47161427 -0.3092495
C -0.33926404 0.18819948 -0.13322969
C -1.1628637 0.41639534 -1.4044816
O -1.1797674 1.800429 -1.7203857
C -0.5610974 -1.2598041 0.356513
C -0.05835663 -1.4737827 1.7664189
O 0.6765554 -2.3600652 2.1171353
H 2.648046 2.0509548 -0.48683226
H 1.0974944 2.4308507 -1.2677891
H 1.2433202 2.4974241 0.48851374
H 1.5197709 -0.0674025 -1.2002838
H 1.7060808 0.021166129 0.5348706
H -0.7394421 0.8720929 0.62995976
H -0.73030305 -0.1757545 -2.2281456
H -2.1880972 0.0468186 -1.2407476
H -1.6538529 1.9140377 -2.5492928
H -1.6393301 -1.4785615 0.372964
H -0.08037637 -1.9913348 -0.3011483
H -0.43910515 -0.722625 2.4995813
