19
title
C -1.7292362 1.6491268 -1.2151084
C -1.5660564 0.15011463 -0.9577309
C -0.70061964 -0.17137 0.25806028
C -0.5221658 -1.6743864 0.49737924
O 0.11355208 -2.31048 -0.59041303
O 0.61187685 0.38311473 0.026218828
C 1.264471 0.9319244 1.0699215
N 2.4805741 1.2493006 0.95886356
H -0.76064235 2.1220005 -1.3969715
H -2.3618865 1.8263826 -2.0895565
H -2.1958919 2.1530268 -0.36059573
H -2.545888 -0.31505486 -0.79449725
H -1.1274757 -0.3474413 -1.8281767
H -1.1308118 0.29077163 1.1592634
H 0.03816532 -1.822706 1.4352196
H -1.5018772 -2.14909 0.6181151
H 0.93376994 -1.8273697 -0.74959385
H 0.6300684 1.0705256 1.9567672
H 2.8077204 1.679819 1.821158
