title
 OpenBabel02282109593D

 18 17  0  0  1  0  0  0  0  0999 V2000
   -0.2387    1.7175    1.9366 C   0  0  0  0  0  0  0  0  0  0  0  0
   -0.0784    0.2033    1.7895 C   0  0  0  0  0  0  0  0  0  0  0  0
    0.5727   -0.2234    0.4757 C   0  0  1  0  0  0  0  0  0  0  0  0
    0.7014   -1.7410    0.3209 C   0  0  0  0  0  0  0  0  0  0  0  0
   -0.5516   -2.3899    0.3543 O   0  0  0  0  0  0  0  0  0  0  0  0
   -0.2567    0.2311   -0.6224 O   0  0  0  0  0  0  0  0  0  0  0  0
    0.2902    0.9997   -1.5833 C   0  0  0  0  0  0  0  0  0  0  0  0
   -0.3183    1.3644   -2.5434 O   0  0  0  0  0  0  0  0  0  0  0  0
    0.7278    2.2314    1.8776 H   0  0  0  0  0  0  0  0  0  0  0  0
   -0.8855    2.1243    1.1544 H   0  0  0  0  0  0  0  0  0  0  0  0
   -0.6865    1.9667    2.9027 H   0  0  0  0  0  0  0  0  0  0  0  0
    0.5433   -0.1903    2.6030 H   0  0  0  0  0  0  0  0  0  0  0  0
   -1.0472   -0.2991    1.8683 H   0  0  0  0  0  0  0  0  0  0  0  0
    1.5682    0.2340    0.3791 H   0  0  0  0  0  0  0  0  0  0  0  0
    1.2460   -1.9596   -0.6114 H   0  0  0  0  0  0  0  0  0  0  0  0
    1.2898   -2.1431    1.1524 H   0  0  0  0  0  0  0  0  0  0  0  0
   -1.0853   -2.0024   -0.3495 H   0  0  0  0  0  0  0  0  0  0  0  0
    1.3486    1.2532   -1.3783 H   0  0  0  0  0  0  0  0  0  0  0  0
  1 11  1  0  0  0  0
  2 13  1  0  0  0  0
  2  1  1  0  0  0  0
  2 12  1  0  0  0  0
  3 14  1  6  0  0  0
  3  2  1  0  0  0  0
  4  5  1  0  0  0  0
  4  3  1  0  0  0  0
  4 16  1  0  0  0  0
  6  3  1  0  0  0  0
  7 18  1  0  0  0  0
  7  6  1  0  0  0  0
  8  7  2  0  0  0  0
  9  1  1  0  0  0  0
 10  1  1  0  0  0  0
 15  4  1  0  0  0  0
 17  5  1  0  0  0  0
M  END
