title
 OpenBabel02282109593D

 18 17  0  0  0  0  0  0  0  0999 V2000
    1.8349    0.7141    0.6227 O   0  0  0  0  0  0  0  0  0  0  0  0
    0.9602    0.8941   -0.4766 C   0  0  0  0  0  0  0  0  0  0  0  0
   -0.3442    0.0845   -0.3620 C   0  0  0  0  0  0  0  0  0  0  0  0
   -1.1272    0.1282   -1.6742 C   0  0  0  0  0  0  0  0  0  0  0  0
   -1.4140    1.4847   -1.9744 O   0  0  0  0  0  0  0  0  0  0  0  0
   -0.0782   -1.3646    0.0651 C   0  0  0  0  0  0  0  0  0  0  0  0
    0.0981   -1.5720    1.5512 C   0  0  0  0  0  0  0  0  0  0  0  0
    0.0548   -0.7077    2.3927 O   0  0  0  0  0  0  0  0  0  0  0  0
    1.3130    0.7937    1.4305 H   0  0  0  0  0  0  0  0  0  0  0  0
    0.7119    1.9515   -0.6329 H   0  0  0  0  0  0  0  0  0  0  0  0
    1.5189    0.5580   -1.3608 H   0  0  0  0  0  0  0  0  0  0  0  0
   -0.9702    0.5526    0.4084 H   0  0  0  0  0  0  0  0  0  0  0  0
   -0.5325   -0.3407   -2.4766 H   0  0  0  0  0  0  0  0  0  0  0  0
   -2.0539   -0.4593   -1.5680 H   0  0  0  0  0  0  0  0  0  0  0  0
   -1.8525    1.5215   -2.8291 H   0  0  0  0  0  0  0  0  0  0  0  0
   -0.9034   -2.0301   -0.2336 H   0  0  0  0  0  0  0  0  0  0  0  0
    0.8139   -1.7793   -0.4261 H   0  0  0  0  0  0  0  0  0  0  0  0
    0.2578   -2.6332    1.8457 H   0  0  0  0  0  0  0  0  0  0  0  0
  1  9  1  0  0  0  0
  2  3  1  0  0  0  0
  2  1  1  0  0  0  0
  3  6  1  0  0  0  0
  3 12  1  0  0  0  0
  4 14  1  0  0  0  0
  4  3  1  0  0  0  0
  5  4  1  0  0  0  0
  6  7  1  0  0  0  0
  7 18  1  0  0  0  0
  7  8  2  0  0  0  0
 10  2  1  0  0  0  0
 11  2  1  0  0  0  0
 13  4  1  0  0  0  0
 15  5  1  0  0  0  0
 16  6  1  0  0  0  0
 17  6  1  0  0  0  0
M  END
