17
title
O 1.7509612 0.8870241 -0.09966423
C 1.6036747 -0.21639608 0.7586824
C 0.187119 -0.8018366 0.7837115
C -0.86643136 0.16514859 1.3447739
O -0.808107 1.4790603 0.831234
O -0.10719073 -1.4101751 -0.5098336
C -0.6517018 -0.79310465 -1.5501503
N -1.1654462 0.36902353 -1.5758604
H 1.061809 1.5152332 0.16649863
H 2.2998676 -0.98830104 0.41390458
H 1.8705406 0.024327373 1.8031327
H 0.19822943 -1.6778355 1.4430892
H -1.8662561 -0.2769091 1.2218499
H -0.67225635 0.23452552 2.421582
H -1.0660421 1.3689129 -0.11480262
H -0.62128794 -1.4721832 -2.4072847
H -1.5223659 0.5875766 -2.5009432
