title
 OpenBabel02282109593D

 17 16  0  0  0  0  0  0  0  0999 V2000
    1.7510    0.8870   -0.0997 O   0  0  0  0  0  0  0  0  0  0  0  0
    1.6037   -0.2164    0.7587 C   0  0  0  0  0  0  0  0  0  0  0  0
    0.1871   -0.8018    0.7837 C   0  0  0  0  0  0  0  0  0  0  0  0
   -0.8664    0.1651    1.3448 C   0  0  0  0  0  0  0  0  0  0  0  0
   -0.8081    1.4791    0.8312 O   0  0  0  0  0  0  0  0  0  0  0  0
   -0.1072   -1.4102   -0.5098 O   0  0  0  0  0  0  0  0  0  0  0  0
   -0.6517   -0.7931   -1.5502 C   0  0  0  0  0  0  0  0  0  0  0  0
   -1.1654    0.3690   -1.5759 N   0  0  0  0  0  0  0  0  0  0  0  0
    1.0618    1.5152    0.1665 H   0  0  0  0  0  0  0  0  0  0  0  0
    2.2999   -0.9883    0.4139 H   0  0  0  0  0  0  0  0  0  0  0  0
    1.8705    0.0243    1.8031 H   0  0  0  0  0  0  0  0  0  0  0  0
    0.1982   -1.6778    1.4431 H   0  0  0  0  0  0  0  0  0  0  0  0
   -1.8663   -0.2769    1.2218 H   0  0  0  0  0  0  0  0  0  0  0  0
   -0.6723    0.2345    2.4216 H   0  0  0  0  0  0  0  0  0  0  0  0
   -1.0660    1.3689   -0.1148 H   0  0  0  0  0  0  0  0  0  0  0  0
   -0.6213   -1.4722   -2.4073 H   0  0  0  0  0  0  0  0  0  0  0  0
   -1.5224    0.5876   -2.5009 H   0  0  0  0  0  0  0  0  0  0  0  0
  1  9  1  0  0  0  0
  1  2  1  0  0  0  0
  2  3  1  0  0  0  0
  2 11  1  0  0  0  0
  3  4  1  0  0  0  0
  3 12  1  0  0  0  0
  4 14  1  0  0  0  0
  5  4  1  0  0  0  0
  6  3  1  0  0  0  0
  7  6  1  0  0  0  0
  8  7  2  0  0  0  0
 10  2  1  0  0  0  0
 13  4  1  0  0  0  0
 15  5  1  0  0  0  0
 16  7  1  0  0  0  0
 17  8  1  0  0  0  0
M  END
