title
 OpenBabel02282109593D

 16 15  0  0  0  0  0  0  0  0999 V2000
    1.7790    0.9622    0.1317 O   0  0  0  0  0  0  0  0  0  0  0  0
    1.5833   -0.3603    0.5902 C   0  0  0  0  0  0  0  0  0  0  0  0
    0.1230   -0.7894    0.7791 C   0  0  0  0  0  0  0  0  0  0  0  0
   -0.6557    0.1220    1.7329 C   0  0  0  0  0  0  0  0  0  0  0  0
   -0.7268    1.4678    1.2656 O   0  0  0  0  0  0  0  0  0  0  0  0
   -0.6679   -0.9477   -0.4186 O   0  0  0  0  0  0  0  0  0  0  0  0
   -0.3703   -0.3225   -1.5860 C   0  0  0  0  0  0  0  0  0  0  0  0
   -1.0712   -0.4586   -2.5457 O   0  0  0  0  0  0  0  0  0  0  0  0
    1.1175    1.5187    0.5693 H   0  0  0  0  0  0  0  0  0  0  0  0
    2.0715   -1.0286   -0.1283 H   0  0  0  0  0  0  0  0  0  0  0  0
    2.0770   -0.5215    1.5633 H   0  0  0  0  0  0  0  0  0  0  0  0
    0.1462   -1.7926    1.2230 H   0  0  0  0  0  0  0  0  0  0  0  0
   -1.6593   -0.2903    1.8916 H   0  0  0  0  0  0  0  0  0  0  0  0
   -0.1445    0.1596    2.7002 H   0  0  0  0  0  0  0  0  0  0  0  0
   -1.3471    1.4939    0.5284 H   0  0  0  0  0  0  0  0  0  0  0  0
    0.5344    0.3005   -1.5418 H   0  0  0  0  0  0  0  0  0  0  0  0
  1  9  1  0  0  0  0
  1  2  1  0  0  0  0
  2  3  1  0  0  0  0
  2 11  1  0  0  0  0
  3 12  1  0  0  0  0
  3  4  1  0  0  0  0
  4 13  1  0  0  0  0
  4 14  1  0  0  0  0
  5  4  1  0  0  0  0
  6  3  1  0  0  0  0
  7 16  1  0  0  0  0
  7  6  1  0  0  0  0
  8  7  2  0  0  0  0
 10  2  1  0  0  0  0
 15  5  1  0  0  0  0
M  END
