title
 OpenBabel02282109593D

 18 17  0  0  0  0  0  0  0  0999 V2000
    1.1643    2.4067    0.0134 C   0  0  0  0  0  0  0  0  0  0  0  0
    1.1247    0.8806   -0.0267 C   0  0  0  0  0  0  0  0  0  0  0  0
   -0.2756    0.3174    0.0212 C   0  0  0  0  0  0  0  0  0  0  0  0
   -0.4078   -1.0906   -0.0112 N   0  0  0  0  0  0  0  0  0  0  0  0
    0.5510   -2.0780   -0.0818 C   0  0  0  0  0  0  0  0  0  0  0  0
    1.7475   -1.9307   -0.1320 O   0  0  0  0  0  0  0  0  0  0  0  0
   -1.2850    1.0890    0.0877 N   0  0  0  0  0  0  0  0  0  0  0  0
   -2.6278    0.5408    0.1335 C   0  0  0  0  0  0  0  0  0  0  0  0
    2.2022    2.7503   -0.0241 H   0  0  0  0  0  0  0  0  0  0  0  0
    0.6223    2.8391   -0.8308 H   0  0  0  0  0  0  0  0  0  0  0  0
    0.7017    2.7909    0.9254 H   0  0  0  0  0  0  0  0  0  0  0  0
    1.6217    0.4973   -0.9247 H   0  0  0  0  0  0  0  0  0  0  0  0
    1.6997    0.4500    0.8004 H   0  0  0  0  0  0  0  0  0  0  0  0
   -1.3565   -1.4329    0.0222 H   0  0  0  0  0  0  0  0  0  0  0  0
    0.0701   -3.0769   -0.0873 H   0  0  0  0  0  0  0  0  0  0  0  0
   -2.8761   -0.0492   -0.7633 H   0  0  0  0  0  0  0  0  0  0  0  0
   -2.7953   -0.0997    1.0142 H   0  0  0  0  0  0  0  0  0  0  0  0
   -3.3480    1.3603    0.1896 H   0  0  0  0  0  0  0  0  0  0  0  0
  1 11  1  0  0  0  0
  2  1  1  0  0  0  0
  2  3  1  0  0  0  0
  2 13  1  0  0  0  0
  3  7  2  0  0  0  0
  4  3  1  0  0  0  0
  4 14  1  0  0  0  0
  5  4  1  0  0  0  0
  6  5  2  0  0  0  0
  7  8  1  0  0  0  0
  8 18  1  0  0  0  0
  8 17  1  0  0  0  0
  9  1  1  0  0  0  0
 10  1  1  0  0  0  0
 12  2  1  0  0  0  0
 15  5  1  0  0  0  0
 16  8  1  0  0  0  0
M  END
