17
title
C -0.45661384 -2.753248 1.1805385
C -0.41174752 -1.8383464 -0.04035073
C -0.25495273 -0.38045505 0.28507897
O -0.34234315 0.4099898 -0.8831888
C 0.77699107 1.0487157 -1.3118722
O 0.7791042 1.7591878 -2.2683794
N -0.11934955 0.077140674 1.4454708
C -0.03806479 1.4963955 1.7313011
H -0.5764275 -3.7943602 0.86819994
H 0.46055192 -2.668977 1.7681645
H -1.289641 -2.488612 1.8362743
H 0.40859646 -2.120867 -0.71495056
H -1.3211434 -1.9388137 -0.64699966
H 1.6590856 0.82206595 -0.6865309
H -0.7311936 1.7207431 2.5481925
H 0.9668407 1.7332736 2.0978613
H -0.2702518 2.1529827 0.8847388
