title
 OpenBabel02282109593D

 17 16  0  0  0  0  0  0  0  0999 V2000
    1.5887    2.1803    0.5323 C   0  0  0  0  0  0  0  0  0  0  0  0
    1.4112    0.7644    0.4740 O   0  0  0  0  0  0  0  0  0  0  0  0
    0.1320    0.3177    0.4743 C   0  0  0  0  0  0  0  0  0  0  0  0
    0.1387   -1.1947    0.3332 C   0  0  0  0  0  0  0  0  0  0  0  0
    0.2567   -1.6010   -1.1279 C   0  0  0  0  0  0  0  0  0  0  0  0
   -0.5088   -2.3399   -1.6880 O   0  0  0  0  0  0  0  0  0  0  0  0
   -0.8398    1.1199    0.5515 N   0  0  0  0  0  0  0  0  0  0  0  0
   -2.2150    0.6728    0.5037 C   0  0  0  0  0  0  0  0  0  0  0  0
    2.6670    2.3425    0.5040 H   0  0  0  0  0  0  0  0  0  0  0  0
    1.1028    2.6694   -0.3167 H   0  0  0  0  0  0  0  0  0  0  0  0
    1.1627    2.5877    1.4531 H   0  0  0  0  0  0  0  0  0  0  0  0
    1.0277   -1.5663    0.8554 H   0  0  0  0  0  0  0  0  0  0  0  0
   -0.7505   -1.6569    0.7603 H   0  0  0  0  0  0  0  0  0  0  0  0
    1.1253   -1.1501   -1.6554 H   0  0  0  0  0  0  0  0  0  0  0  0
   -2.3584   -0.3925    0.2808 H   0  0  0  0  0  0  0  0  0  0  0  0
   -2.7047    0.8949    1.4594 H   0  0  0  0  0  0  0  0  0  0  0  0
   -2.7478    1.2467   -0.2625 H   0  0  0  0  0  0  0  0  0  0  0  0
  1 11  1  0  0  0  0
  2  3  1  0  0  0  0
  2  1  1  0  0  0  0
  3  7  2  0  0  0  0
  4  3  1  0  0  0  0
  4 13  1  0  0  0  0
  4 12  1  0  0  0  0
  5  4  1  0  0  0  0
  6  5  2  0  0  0  0
  8  7  1  0  0  0  0
  8 16  1  0  0  0  0
  9  1  1  0  0  0  0
 10  1  1  0  0  0  0
 14  5  1  0  0  0  0
 15  8  1  0  0  0  0
 17  8  1  0  0  0  0
M  END
