17
title
C -0.8504103 2.3914278 1.6519765
C -0.7162276 0.869146 1.5891815
C 0.026524685 0.36147293 0.33021253
C 0.22599187 -1.1744262 0.36835426
C 1.0407118 -1.7099826 -0.7939002
O 2.0081491 -2.413851 -0.6641745
C -0.6862282 0.7625656 -0.8889238
N -1.2644358 1.0702877 -1.8416156
H 0.1314514 2.8768768 1.6527764
H -1.416072 2.7768152 0.7985971
H -1.3716512 2.6923912 2.5648956
H -0.16231838 0.5036962 2.460968
H -1.7059679 0.39952227 1.6241423
H 1.0142605 0.84051627 0.29784697
H 0.72512543 -1.4587502 1.2980169
H -0.7596576 -1.6585624 0.3432588
H 0.6765616 -1.4082801 -1.8004233
