title
 OpenBabel02282109593D

 17 16  0  0  1  0  0  0  0  0999 V2000
   -0.8504    2.3914    1.6520 C   0  0  0  0  0  0  0  0  0  0  0  0
   -0.7162    0.8691    1.5892 C   0  0  0  0  0  0  0  0  0  0  0  0
    0.0265    0.3615    0.3302 C   0  0  1  0  0  0  0  0  0  0  0  0
    0.2260   -1.1744    0.3684 C   0  0  0  0  0  0  0  0  0  0  0  0
    1.0407   -1.7100   -0.7939 C   0  0  0  0  0  0  0  0  0  0  0  0
    2.0081   -2.4139   -0.6642 O   0  0  0  0  0  0  0  0  0  0  0  0
   -0.6862    0.7626   -0.8889 C   0  0  0  0  0  0  0  0  0  0  0  0
   -1.2644    1.0703   -1.8416 N   0  0  0  0  0  0  0  0  0  0  0  0
    0.1315    2.8769    1.6528 H   0  0  0  0  0  0  0  0  0  0  0  0
   -1.4161    2.7768    0.7986 H   0  0  0  0  0  0  0  0  0  0  0  0
   -1.3717    2.6924    2.5649 H   0  0  0  0  0  0  0  0  0  0  0  0
   -0.1623    0.5037    2.4610 H   0  0  0  0  0  0  0  0  0  0  0  0
   -1.7060    0.3995    1.6241 H   0  0  0  0  0  0  0  0  0  0  0  0
    1.0143    0.8405    0.2978 H   0  0  0  0  0  0  0  0  0  0  0  0
    0.7251   -1.4588    1.2980 H   0  0  0  0  0  0  0  0  0  0  0  0
   -0.7597   -1.6586    0.3433 H   0  0  0  0  0  0  0  0  0  0  0  0
    0.6766   -1.4083   -1.8004 H   0  0  0  0  0  0  0  0  0  0  0  0
  1  9  1  0  0  0  0
  1 11  1  0  0  0  0
  2 13  1  0  0  0  0
  2  1  1  0  0  0  0
  2 12  1  0  0  0  0
  3 14  1  6  0  0  0
  3  4  1  0  0  0  0
  3  2  1  0  0  0  0
  4 15  1  0  0  0  0
  5  6  2  0  0  0  0
  5  4  1  0  0  0  0
  7  3  1  0  0  0  0
  8  7  3  0  0  0  0
 10  1  1  0  0  0  0
 16  4  1  0  0  0  0
 17  5  1  0  0  0  0
M  END
