17
title
C -1.2655022 1.5058533 1.4775052
C -1.159143 -0.0030974478 1.2542917
C -0.34357005 -0.37874442 -0.0050033005
N 1.0371803 0.10423495 0.05924574
C 1.4995986 1.1086679 -0.7343064
O 0.82295895 1.7629972 -1.4986143
C -0.3615086 -1.8244209 -0.2327039
C -0.37164402 -3.0174565 -0.37726447
H -0.28052282 1.9558597 1.6301066
H -1.7270342 2.0034697 0.61905164
H -1.8730295 1.7198026 2.3616652
H -0.7032241 -0.49022135 2.124818
H -2.1559336 -0.44323644 1.1412886
H -0.7789576 0.13509876 -0.8697359
H 1.6990153 -0.4268036 0.60372543
H 2.5857244 1.2742431 -0.59311336
H -0.3881142 -4.0686193 -0.5286779
