16
title
C -1.0928466 1.9632531 1.1267738
C -1.1196438 0.44020298 1.2572619
C -0.3684989 -0.27097216 0.10940054
N 1.0479614 0.06291064 0.055204544
C 1.5956477 0.71475226 -1.0130064
O 0.97179544 1.1254145 -1.9655144
C -0.5389981 -1.7302356 0.20942286
N -0.668921 -2.872529 0.32482955
H -0.069269754 2.347344 1.1504867
H -1.550164 2.289934 0.1875861
H -1.6444386 2.424516 1.9504433
H -0.6826128 0.12596436 2.2126455
H -2.1518595 0.07389351 1.2544397
H -0.7755869 0.060515128 -0.85234255
H 1.6566986 -0.2900534 0.7775617
H 2.689325 0.83745384 -0.900757
