17
title
C 2.0729737 1.6094077 0.81389505
C 1.7655561 0.11724913 0.67779255
C 0.26191616 -0.1746105 0.59126955
O -0.22210157 0.48142633 -0.5940709
C -1.561701 0.5967875 -0.71823514
N -2.0480795 1.1641979 -1.7341626
C -0.022338511 -1.6103626 0.55740964
C -0.25033247 -2.7898052 0.531754
H 3.1526759 1.7749218 0.86683464
H 1.6818246 2.1669705 -0.04015417
H 1.6269575 2.025139 1.7245177
H 2.238826 -0.29520273 -0.21920742
H 2.160499 -0.44090512 1.5330693
H -0.23783731 0.268197 1.466154
H -2.1216364 0.16423436 0.12103988
H -3.0640051 1.1762143 -1.6709995
H -0.4541335 -3.8321173 0.50578356
