title
 OpenBabel02282109593D

 17 16  0  0  1  0  0  0  0  0999 V2000
    2.0730    1.6094    0.8139 C   0  0  0  0  0  0  0  0  0  0  0  0
    1.7656    0.1172    0.6778 C   0  0  0  0  0  0  0  0  0  0  0  0
    0.2619   -0.1746    0.5913 C   0  0  1  0  0  0  0  0  0  0  0  0
   -0.2221    0.4814   -0.5941 O   0  0  0  0  0  0  0  0  0  0  0  0
   -1.5617    0.5968   -0.7182 C   0  0  0  0  0  0  0  0  0  0  0  0
   -2.0481    1.1642   -1.7342 N   0  0  0  0  0  0  0  0  0  0  0  0
   -0.0223   -1.6104    0.5574 C   0  0  0  0  0  0  0  0  0  0  0  0
   -0.2503   -2.7898    0.5318 C   0  0  0  0  0  0  0  0  0  0  0  0
    3.1527    1.7749    0.8668 H   0  0  0  0  0  0  0  0  0  0  0  0
    1.6818    2.1670   -0.0402 H   0  0  0  0  0  0  0  0  0  0  0  0
    1.6270    2.0251    1.7245 H   0  0  0  0  0  0  0  0  0  0  0  0
    2.2388   -0.2952   -0.2192 H   0  0  0  0  0  0  0  0  0  0  0  0
    2.1605   -0.4409    1.5331 H   0  0  0  0  0  0  0  0  0  0  0  0
   -0.2378    0.2682    1.4662 H   0  0  0  0  0  0  0  0  0  0  0  0
   -2.1216    0.1642    0.1210 H   0  0  0  0  0  0  0  0  0  0  0  0
   -3.0640    1.1762   -1.6710 H   0  0  0  0  0  0  0  0  0  0  0  0
   -0.4541   -3.8321    0.5058 H   0  0  0  0  0  0  0  0  0  0  0  0
  1  9  1  0  0  0  0
  1 11  1  0  0  0  0
  2  1  1  0  0  0  0
  2 13  1  0  0  0  0
  3  2  1  0  0  0  0
  3 14  1  1  0  0  0
  4  3  1  0  0  0  0
  5  4  1  0  0  0  0
  5 15  1  0  0  0  0
  6 16  1  0  0  0  0
  6  5  2  0  0  0  0
  7  3  1  0  0  0  0
  8  7  3  0  0  0  0
 10  1  1  0  0  0  0
 12  2  1  0  0  0  0
 17  8  1  0  0  0  0
M  END
