16
title
C -0.43298987 1.9451457 -1.8959043
C -0.42194942 0.41883162 -1.7970983
C 0.32932928 -0.07781608 -0.555982
O -0.36524844 0.39878374 0.59360147
C 0.2921578 0.3356817 1.7804174
N -0.2735662 0.7636376 2.8191354
C 0.42281798 -1.5513968 -0.5377648
N 0.50730354 -2.7034764 -0.52782464
H 0.58409125 2.3459103 -1.9687257
H -0.98103416 2.263064 -2.7867131
H -0.91304415 2.3893685 -1.0211228
H -1.4423823 0.025300581 -1.7524661
H 0.05636458 -0.025765102 -2.6760383
H 1.3540678 0.32096177 -0.5639926
H 1.295885 -0.102049805 1.705512
H 0.3388876 0.6542952 3.624688
