title
 OpenBabel02282109593D

 16 15  0  0  1  0  0  0  0  0999 V2000
   -0.4330    1.9451   -1.8959 C   0  0  0  0  0  0  0  0  0  0  0  0
   -0.4219    0.4188   -1.7971 C   0  0  0  0  0  0  0  0  0  0  0  0
    0.3293   -0.0778   -0.5560 C   0  0  1  0  0  0  0  0  0  0  0  0
   -0.3652    0.3988    0.5936 O   0  0  0  0  0  0  0  0  0  0  0  0
    0.2922    0.3357    1.7804 C   0  0  0  0  0  0  0  0  0  0  0  0
   -0.2736    0.7636    2.8191 N   0  0  0  0  0  0  0  0  0  0  0  0
    0.4228   -1.5514   -0.5378 C   0  0  0  0  0  0  0  0  0  0  0  0
    0.5073   -2.7035   -0.5278 N   0  0  0  0  0  0  0  0  0  0  0  0
    0.5841    2.3459   -1.9687 H   0  0  0  0  0  0  0  0  0  0  0  0
   -0.9810    2.2631   -2.7867 H   0  0  0  0  0  0  0  0  0  0  0  0
   -0.9130    2.3894   -1.0211 H   0  0  0  0  0  0  0  0  0  0  0  0
   -1.4424    0.0253   -1.7525 H   0  0  0  0  0  0  0  0  0  0  0  0
    0.0564   -0.0258   -2.6760 H   0  0  0  0  0  0  0  0  0  0  0  0
    1.3541    0.3210   -0.5640 H   0  0  0  0  0  0  0  0  0  0  0  0
    1.2959   -0.1020    1.7055 H   0  0  0  0  0  0  0  0  0  0  0  0
    0.3389    0.6543    3.6247 H   0  0  0  0  0  0  0  0  0  0  0  0
  1  2  1  0  0  0  0
  1 11  1  0  0  0  0
  2 12  1  0  0  0  0
  2  3  1  0  0  0  0
  3 14  1  6  0  0  0
  3  7  1  0  0  0  0
  3  4  1  0  0  0  0
  4  5  1  0  0  0  0
  5  6  2  0  0  0  0
  6 16  1  0  0  0  0
  7  8  3  0  0  0  0
  9  1  1  0  0  0  0
 10  1  1  0  0  0  0
 13  2  1  0  0  0  0
 15  5  1  0  0  0  0
M  END
