15
title
C 1.7280816 1.9727039 0.5938504
C 1.7439699 0.4445358 0.5363424
C 0.3321659 -0.15453415 0.54355675
O -0.34971243 0.27526268 -0.6418001
C -1.688656 0.48416796 -0.56069237
O -2.332666 0.8312392 -1.4989904
C 0.36658984 -1.6266242 0.59006506
N 0.40124017 -2.7797675 0.64371437
H 2.7493334 2.3619297 0.5848444
H 1.1972857 2.3928432 -0.2638608
H 1.2421402 2.3324275 1.5075399
H 2.2549446 0.09436531 -0.36600932
H 2.2845762 0.027919844 1.3927422
H -0.21412595 0.19788222 1.4295914
H -2.0914586 0.30886784 0.45503145
