16
title
C 1.177381 2.0522156 0.5069871
N 1.0515852 0.63630676 0.16454707
C -0.3262319 0.15085354 0.15991971
C -0.37411493 -1.3294655 -0.26259935
C 0.0250404 -1.5669519 -1.7000383
O 0.44104242 -0.7171091 -2.4485443
C -0.9194291 0.28351837 1.502431
N -1.4077668 0.37540153 2.5453188
H 2.2250159 2.3461015 0.40541697
H 0.56690675 2.7208323 -0.12384295
H 0.88373935 2.2093005 1.5490924
H 1.4036161 0.49119982 -0.7763587
H -0.9765553 0.7244978 -0.5273305
H 0.29189366 -1.92251 0.37806776
H -1.3800876 -1.7438043 -0.1200534
H -0.09226458 -2.6187775 -2.0404532
