16
title
C 0.064146526 2.3593464 -0.953065
O -0.28860965 0.9902392 -0.89019406
C 0.383063 0.26562116 0.12718892
C -0.2984827 -1.1113514 0.20496392
C -1.7485856 -1.0199363 0.6393213
O -2.2791252 -1.8129773 1.3740418
C 1.8219532 0.13371159 -0.13308877
C 2.997619 0.016399106 -0.3534959
H 1.129617 2.4918065 -1.1811886
H -0.53344285 2.8025665 -1.7521303
H -0.16094868 2.8759754 -0.007695737
H 0.25583476 0.78815603 1.0919662
H -0.27096888 -1.5467849 -0.8023617
H 0.23810433 -1.780602 0.88061535
H -2.3057132 -0.15812092 0.21484661
H 4.0376124 -0.085678615 -0.54506993
