title
 OpenBabel02282109593D

 16 15  0  0  1  0  0  0  0  0999 V2000
    0.0641    2.3593   -0.9531 C   0  0  0  0  0  0  0  0  0  0  0  0
   -0.2886    0.9902   -0.8902 O   0  0  0  0  0  0  0  0  0  0  0  0
    0.3831    0.2656    0.1272 C   0  0  1  0  0  0  0  0  0  0  0  0
   -0.2985   -1.1114    0.2050 C   0  0  0  0  0  0  0  0  0  0  0  0
   -1.7486   -1.0199    0.6393 C   0  0  0  0  0  0  0  0  0  0  0  0
   -2.2791   -1.8130    1.3740 O   0  0  0  0  0  0  0  0  0  0  0  0
    1.8220    0.1337   -0.1331 C   0  0  0  0  0  0  0  0  0  0  0  0
    2.9976    0.0164   -0.3535 C   0  0  0  0  0  0  0  0  0  0  0  0
    1.1296    2.4918   -1.1812 H   0  0  0  0  0  0  0  0  0  0  0  0
   -0.5334    2.8026   -1.7521 H   0  0  0  0  0  0  0  0  0  0  0  0
   -0.1609    2.8760   -0.0077 H   0  0  0  0  0  0  0  0  0  0  0  0
    0.2558    0.7882    1.0920 H   0  0  0  0  0  0  0  0  0  0  0  0
   -0.2710   -1.5468   -0.8024 H   0  0  0  0  0  0  0  0  0  0  0  0
    0.2381   -1.7806    0.8806 H   0  0  0  0  0  0  0  0  0  0  0  0
   -2.3057   -0.1581    0.2148 H   0  0  0  0  0  0  0  0  0  0  0  0
    4.0376   -0.0857   -0.5451 H   0  0  0  0  0  0  0  0  0  0  0  0
  1  2  1  0  0  0  0
  1 11  1  0  0  0  0
  2  3  1  0  0  0  0
  3  4  1  0  0  0  0
  3 12  1  1  0  0  0
  4  5  1  0  0  0  0
  4 14  1  0  0  0  0
  5  6  2  0  0  0  0
  7  3  1  0  0  0  0
  8  7  3  0  0  0  0
  9  1  1  0  0  0  0
 10  1  1  0  0  0  0
 13  4  1  0  0  0  0
 15  5  1  0  0  0  0
 16  8  1  0  0  0  0
M  END
