15
title
O 1.796975 2.224608 -0.08743798
C 1.7053839 0.82562894 -0.17324203
C 0.23714563 0.32462275 -0.20754655
C 0.16891512 -1.2117425 -0.3673221
C -1.2488941 -1.7368516 -0.5004064
O -1.6180056 -2.4464185 -1.3984132
C -0.44367138 0.77970856 1.00859
N -0.9283411 1.1597056 1.9873717
H 1.4856577 2.4989781 0.7829053
H 2.1842322 0.5375284 -1.1136718
H 2.2366557 0.3191046 0.6464678
H -0.25322035 0.8067676 -1.061655
H 0.7337265 -1.5178403 -1.2516546
H 0.6236828 -1.6824666 0.5148198
H -1.9424995 -1.4188575 0.30896038
