15
title
O 1.5753199 1.6324427 -0.6593424
C 1.7025028 0.24806312 -0.8557629
C 0.40558302 -0.5046951 -0.51748097
O 0.17209774 -0.20074108 0.8712267
C -0.8605065 -0.8284243 1.4801989
N -1.0743643 -0.61918277 2.7042503
C -0.72062796 -0.111746386 -1.3618941
C -1.6474525 0.18818928 -2.0647323
H 1.2805253 1.7592998 0.25039577
H 1.9457806 0.08663788 -1.9095405
H 2.5050323 -0.18742132 -0.24107532
H 0.58746624 -1.5838803 -0.625235
H -1.4325606 -1.4824528 0.8116117
H -1.877855 -1.1612262 3.0153303
H -2.462728 0.46741164 -2.6862037
