title
 OpenBabel02282109593D

 17 16  0  0  1  0  0  0  0  0999 V2000
   -1.1869    1.9642    0.9283 C   0  0  0  0  0  0  0  0  0  0  0  0
   -1.1744    0.4522    1.1607 C   0  0  0  0  0  0  0  0  0  0  0  0
   -0.4650   -0.3410    0.0358 C   0  0  1  0  0  0  0  0  0  0  0  0
    0.9487   -0.0530   -0.0926 N   0  0  0  0  0  0  0  0  0  0  0  0
    1.4295    0.7969   -1.0412 C   0  0  0  0  0  0  0  0  0  0  0  0
    0.7486    1.5288   -1.7288 O   0  0  0  0  0  0  0  0  0  0  0  0
   -0.6436   -1.8246    0.2965 C   0  0  0  0  0  0  0  0  0  0  0  0
    0.2685   -2.5895    0.4868 O   0  0  0  0  0  0  0  0  0  0  0  0
   -0.1723    2.3675    0.8891 H   0  0  0  0  0  0  0  0  0  0  0  0
   -1.6756    2.2162   -0.0169 H   0  0  0  0  0  0  0  0  0  0  0  0
   -1.7218    2.4670    1.7397 H   0  0  0  0  0  0  0  0  0  0  0  0
   -0.6821    0.2195    2.1131 H   0  0  0  0  0  0  0  0  0  0  0  0
   -2.2043    0.0806    1.2406 H   0  0  0  0  0  0  0  0  0  0  0  0
   -0.9557   -0.0933   -0.9159 H   0  0  0  0  0  0  0  0  0  0  0  0
    1.5648   -0.7668    0.2740 H   0  0  0  0  0  0  0  0  0  0  0  0
    2.5343    0.7598   -1.1064 H   0  0  0  0  0  0  0  0  0  0  0  0
   -1.7006   -2.1626    0.3369 H   0  0  0  0  0  0  0  0  0  0  0  0
  1  2  1  0  0  0  0
  1 11  1  0  0  0  0
  2 13  1  0  0  0  0
  2 12  1  0  0  0  0
  3 14  1  6  0  0  0
  3  7  1  0  0  0  0
  3  2  1  0  0  0  0
  4  3  1  0  0  0  0
  4 15  1  0  0  0  0
  5  4  1  0  0  0  0
  6  5  2  0  0  0  0
  7 17  1  0  0  0  0
  7  8  2  0  0  0  0
  9  1  1  0  0  0  0
 10  1  1  0  0  0  0
 16  5  1  0  0  0  0
M  END
