title
 OpenBabel02282109593D

 16 15  0  0  1  0  0  0  0  0999 V2000
   -1.6748    1.9610    1.2454 C   0  0  0  0  0  0  0  0  0  0  0  0
   -1.4702    0.4453    1.2927 C   0  0  0  0  0  0  0  0  0  0  0  0
   -0.7612   -0.0993    0.0494 C   0  0  1  0  0  0  0  0  0  0  0  0
    0.5417    0.4658   -0.0023 O   0  0  0  0  0  0  0  0  0  0  0  0
    1.2461    0.3258   -1.1504 C   0  0  0  0  0  0  0  0  0  0  0  0
    2.3673    0.7154   -1.2575 O   0  0  0  0  0  0  0  0  0  0  0  0
   -0.6994   -1.6236    0.0582 C   0  0  0  0  0  0  0  0  0  0  0  0
    0.2964   -2.2581   -0.1602 O   0  0  0  0  0  0  0  0  0  0  0  0
   -0.7167    2.4782    1.1550 H   0  0  0  0  0  0  0  0  0  0  0  0
   -2.2991    2.2491    0.3925 H   0  0  0  0  0  0  0  0  0  0  0  0
   -2.1685    2.3112    2.1559 H   0  0  0  0  0  0  0  0  0  0  0  0
   -0.8772    0.1694    2.1722 H   0  0  0  0  0  0  0  0  0  0  0  0
   -2.4355   -0.0664    1.3840 H   0  0  0  0  0  0  0  0  0  0  0  0
   -1.3400    0.1873   -0.8462 H   0  0  0  0  0  0  0  0  0  0  0  0
    0.6644   -0.1485   -1.9617 H   0  0  0  0  0  0  0  0  0  0  0  0
   -1.6763   -2.1134    0.2696 H   0  0  0  0  0  0  0  0  0  0  0  0
  1  2  1  0  0  0  0
  1 11  1  0  0  0  0
  2 13  1  0  0  0  0
  2 12  1  0  0  0  0
  3 14  1  6  0  0  0
  3  7  1  0  0  0  0
  3  2  1  0  0  0  0
  4  3  1  0  0  0  0
  5  4  1  0  0  0  0
  6  5  2  0  0  0  0
  7 16  1  0  0  0  0
  8  7  2  0  0  0  0
  9  1  1  0  0  0  0
 10  1  1  0  0  0  0
 15  5  1  0  0  0  0
M  END
