title
 OpenBabel02282109593D

 16 15  0  0  1  0  0  0  0  0999 V2000
   -0.9855    2.2268    0.8848 C   0  0  0  0  0  0  0  0  0  0  0  0
   -0.7276    0.8360    0.9622 O   0  0  0  0  0  0  0  0  0  0  0  0
   -0.2157    0.2876   -0.2334 C   0  0  1  0  0  0  0  0  0  0  0  0
    0.3598   -1.0985    0.1029 C   0  0  0  0  0  0  0  0  0  0  0  0
    1.5412   -1.0148    1.0530 C   0  0  0  0  0  0  0  0  0  0  0  0
    2.5546   -1.6494    0.9182 O   0  0  0  0  0  0  0  0  0  0  0  0
   -1.3259    0.1206   -1.2732 C   0  0  0  0  0  0  0  0  0  0  0  0
   -1.1491    0.1019   -2.4612 O   0  0  0  0  0  0  0  0  0  0  0  0
   -0.0667    2.7932    0.6748 H   0  0  0  0  0  0  0  0  0  0  0  0
   -1.7255    2.4675    0.1078 H   0  0  0  0  0  0  0  0  0  0  0  0
   -1.3815    2.5327    1.8551 H   0  0  0  0  0  0  0  0  0  0  0  0
    0.5693    0.9263   -0.6676 H   0  0  0  0  0  0  0  0  0  0  0  0
   -0.4296   -1.6817    0.5977 H   0  0  0  0  0  0  0  0  0  0  0  0
    0.6662   -1.6245   -0.8041 H   0  0  0  0  0  0  0  0  0  0  0  0
    1.3995   -0.3166    1.9042 H   0  0  0  0  0  0  0  0  0  0  0  0
   -2.3322   -0.0185   -0.8130 H   0  0  0  0  0  0  0  0  0  0  0  0
  1  2  1  0  0  0  0
  1 11  1  0  0  0  0
  3 12  1  6  0  0  0
  3  4  1  0  0  0  0
  3  2  1  0  0  0  0
  4 13  1  0  0  0  0
  4  5  1  0  0  0  0
  5 15  1  0  0  0  0
  6  5  2  0  0  0  0
  7 16  1  0  0  0  0
  7  3  1  0  0  0  0
  8  7  2  0  0  0  0
  9  1  1  0  0  0  0
 10  1  1  0  0  0  0
 14  4  1  0  0  0  0
M  END
