title
 OpenBabel02282109593D

 16 15  0  0  1  0  0  0  0  0999 V2000
    2.0799    1.9526   -0.1915 O   0  0  0  0  0  0  0  0  0  0  0  0
    1.8682    0.5565   -0.0874 C   0  0  0  0  0  0  0  0  0  0  0  0
    0.3751    0.1695   -0.1581 C   0  0  1  0  0  0  0  0  0  0  0  0
    0.1433   -1.3393   -0.1445 C   0  0  0  0  0  0  0  0  0  0  0  0
   -1.2022   -1.7403   -0.7141 C   0  0  0  0  0  0  0  0  0  0  0  0
   -1.9243   -1.0056   -1.3376 O   0  0  0  0  0  0  0  0  0  0  0  0
   -0.3977    0.8501    0.9608 C   0  0  0  0  0  0  0  0  0  0  0  0
   -1.1189    0.2697    1.7333 O   0  0  0  0  0  0  0  0  0  0  0  0
    1.8334    2.2272   -1.0809 H   0  0  0  0  0  0  0  0  0  0  0  0
    2.4190    0.0030   -0.8629 H   0  0  0  0  0  0  0  0  0  0  0  0
    2.2907    0.2624    0.8797 H   0  0  0  0  0  0  0  0  0  0  0  0
   -0.0305    0.5783   -1.0961 H   0  0  0  0  0  0  0  0  0  0  0  0
    0.9057   -1.8657   -0.7382 H   0  0  0  0  0  0  0  0  0  0  0  0
    0.2144   -1.7430    0.8718 H   0  0  0  0  0  0  0  0  0  0  0  0
   -1.4805   -2.8025   -0.5371 H   0  0  0  0  0  0  0  0  0  0  0  0
   -0.2355    1.9445    1.0311 H   0  0  0  0  0  0  0  0  0  0  0  0
  1  2  1  0  0  0  0
  2 11  1  0  0  0  0
  3 12  1  6  0  0  0
  3  4  1  0  0  0  0
  3  2  1  0  0  0  0
  3  7  1  0  0  0  0
  4 14  1  0  0  0  0
  5 15  1  0  0  0  0
  5  4  1  0  0  0  0
  6  5  2  0  0  0  0
  7 16  1  0  0  0  0
  7  8  2  0  0  0  0
  9  1  1  0  0  0  0
 10  2  1  0  0  0  0
 13  4  1  0  0  0  0
M  END
