15
title
O 1.973495 1.3435416 -0.32107517
C 1.9314423 -0.04557787 -0.55402464
C 0.49196082 -0.5642749 -0.50925994
O 0.032824226 -0.32312924 0.80774593
C -1.1768856 -0.8227509 1.1658303
N -1.6268058 -0.57144755 2.3140948
C -0.36236268 0.14298163 -1.5595886
O -1.4231548 0.65711075 -1.3342265
H 1.5352305 1.5000849 0.5243726
H 2.3543134 -0.21883735 -1.548974
H 2.530117 -0.6115021 0.1737116
H 0.48603648 -1.6424569 -0.746305
H -1.6440926 -1.440269 0.39098626
H -2.527161 -1.0274372 2.4445221
H 0.08007533 0.12218681 -2.580515
