14
title
O 1.9985049 1.3483049 -0.35768193
C 1.9663254 -0.053160366 -0.5013455
C 0.5290429 -0.5743093 -0.475477
O 0.015499061 -0.26583254 0.81499404
C -1.1952014 -0.7737773 1.1628817
O -1.7189865 -0.49620262 2.195663
C -0.30750257 0.080570586 -1.573619
O -1.3942809 0.55497307 -1.3886575
H 1.5572393 1.5601838 0.4737171
H 2.4214828 -0.28698084 -1.4693265
H 2.5432937 -0.5696797 0.278655
H 0.5280126 -1.6623675 -0.6538693
H -1.5987885 -1.4779686 0.41517007
H 0.16803473 0.05972967 -2.5779135
