title
 OpenBabel02282109593D

 14 13  0  0  1  0  0  0  0  0999 V2000
    1.9985    1.3483   -0.3577 O   0  0  0  0  0  0  0  0  0  0  0  0
    1.9663   -0.0532   -0.5013 C   0  0  0  0  0  0  0  0  0  0  0  0
    0.5290   -0.5743   -0.4755 C   0  0  1  0  0  0  0  0  0  0  0  0
    0.0155   -0.2658    0.8150 O   0  0  0  0  0  0  0  0  0  0  0  0
   -1.1952   -0.7738    1.1629 C   0  0  0  0  0  0  0  0  0  0  0  0
   -1.7190   -0.4962    2.1957 O   0  0  0  0  0  0  0  0  0  0  0  0
   -0.3075    0.0806   -1.5736 C   0  0  0  0  0  0  0  0  0  0  0  0
   -1.3943    0.5550   -1.3887 O   0  0  0  0  0  0  0  0  0  0  0  0
    1.5572    1.5602    0.4737 H   0  0  0  0  0  0  0  0  0  0  0  0
    2.4215   -0.2870   -1.4693 H   0  0  0  0  0  0  0  0  0  0  0  0
    2.5433   -0.5697    0.2787 H   0  0  0  0  0  0  0  0  0  0  0  0
    0.5280   -1.6624   -0.6539 H   0  0  0  0  0  0  0  0  0  0  0  0
   -1.5988   -1.4780    0.4152 H   0  0  0  0  0  0  0  0  0  0  0  0
    0.1680    0.0597   -2.5779 H   0  0  0  0  0  0  0  0  0  0  0  0
  1  9  1  0  0  0  0
  2  3  1  0  0  0  0
  2  1  1  0  0  0  0
  2 11  1  0  0  0  0
  3 12  1  6  0  0  0
  3  4  1  0  0  0  0
  4  5  1  0  0  0  0
  5  6  2  0  0  0  0
  7  8  2  0  0  0  0
  7  3  1  0  0  0  0
 10  2  1  0  0  0  0
 13  5  1  0  0  0  0
 14  7  1  0  0  0  0
M  END
