title
 OpenBabel02282109593D

 17 16  0  0  0  0  0  0  0  0999 V2000
   -1.4122    2.3761    0.9253 C   0  0  0  0  0  0  0  0  0  0  0  0
   -1.4467    0.8455    0.8739 C   0  0  0  0  0  0  0  0  0  0  0  0
   -0.7655    0.3591   -0.3109 N   0  0  0  0  0  0  0  0  0  0  0  0
    0.2637   -0.3868   -0.2242 C   0  0  0  0  0  0  0  0  0  0  0  0
    0.9745   -0.7891   -1.3262 N   0  0  0  0  0  0  0  0  0  0  0  0
    0.4748   -0.5081   -2.6587 C   0  0  0  0  0  0  0  0  0  0  0  0
    0.8306   -0.8778    1.0302 C   0  0  0  0  0  0  0  0  0  0  0  0
    1.2635   -1.2709    2.0278 N   0  0  0  0  0  0  0  0  0  0  0  0
   -0.3849    2.7382    1.0309 H   0  0  0  0  0  0  0  0  0  0  0  0
   -1.8292    2.8003    0.0077 H   0  0  0  0  0  0  0  0  0  0  0  0
   -1.9943    2.7427    1.7764 H   0  0  0  0  0  0  0  0  0  0  0  0
   -1.0343    0.4319    1.8066 H   0  0  0  0  0  0  0  0  0  0  0  0
   -2.4917    0.5157    0.8105 H   0  0  0  0  0  0  0  0  0  0  0  0
    1.5914   -1.5750   -1.2061 H   0  0  0  0  0  0  0  0  0  0  0  0
   -0.4976   -0.9814   -2.8460 H   0  0  0  0  0  0  0  0  0  0  0  0
    0.3469    0.5697   -2.7848 H   0  0  0  0  0  0  0  0  0  0  0  0
    1.2019   -0.8711   -3.3873 H   0  0  0  0  0  0  0  0  0  0  0  0
  1  9  1  0  0  0  0
  1 11  1  0  0  0  0
  2  1  1  0  0  0  0
  2 12  1  0  0  0  0
  3  4  2  0  0  0  0
  3  2  1  0  0  0  0
  4  7  1  0  0  0  0
  5 14  1  0  0  0  0
  5  4  1  0  0  0  0
  6  5  1  0  0  0  0
  7  8  3  0  0  0  0
 10  1  1  0  0  0  0
 13  2  1  0  0  0  0
 15  6  1  0  0  0  0
 16  6  1  0  0  0  0
 17  6  1  0  0  0  0
M  END
