17
title
C -1.4122142 2.3760781 0.92532957
C -1.4466531 0.84546125 0.8739293
N -0.76554924 0.35908633 -0.31094325
C 0.26365972 -0.3868161 -0.22423936
N 0.9745238 -0.78909326 -1.3262318
C 0.47476208 -0.50807667 -2.658678
C 0.830616 -0.87775266 1.0302498
N 1.2634645 -1.270907 2.0278318
H -0.38486683 2.7381816 1.0308901
H -1.8291756 2.8003001 0.0076680672
H -1.9943163 2.742669 1.7764411
H -1.0342591 0.43191856 1.8066319
H -2.4916816 0.5156996 0.810489
H 1.5914395 -1.5750302 -1.2060689
H -0.4975984 -0.98135114 -2.8460228
H 0.34694254 0.5697467 -2.7848005
H 1.2019386 -0.8710655 -3.3873308
