title
 OpenBabel02282109593D

 17 16  0  0  0  0  0  0  0  0999 V2000
   -0.6061    3.0606    1.2318 C   0  0  0  0  0  0  0  0  0  0  0  0
   -0.7243    1.5412    1.1912 C   0  0  0  0  0  0  0  0  0  0  0  0
   -0.0173    1.0058    0.0365 N   0  0  0  0  0  0  0  0  0  0  0  0
    0.0833   -0.3484   -0.1569 C   0  0  0  0  0  0  0  0  0  0  0  0
   -0.2899   -1.1955    0.7188 N   0  0  0  0  0  0  0  0  0  0  0  0
   -0.0908   -2.6135    0.5174 C   0  0  0  0  0  0  0  0  0  0  0  0
    0.6866   -0.6993   -1.4411 C   0  0  0  0  0  0  0  0  0  0  0  0
    1.1484   -0.9939   -2.4595 N   0  0  0  0  0  0  0  0  0  0  0  0
    0.4408    3.3732    1.2892 H   0  0  0  0  0  0  0  0  0  0  0  0
   -1.0527    3.5198    0.3423 H   0  0  0  0  0  0  0  0  0  0  0  0
   -1.1307    3.4559    2.1054 H   0  0  0  0  0  0  0  0  0  0  0  0
   -0.2891    1.0901    2.0879 H   0  0  0  0  0  0  0  0  0  0  0  0
   -1.7794    1.2318    1.1752 H   0  0  0  0  0  0  0  0  0  0  0  0
    0.0294    1.5844   -0.7874 H   0  0  0  0  0  0  0  0  0  0  0  0
    0.3542   -2.8826   -0.4507 H   0  0  0  0  0  0  0  0  0  0  0  0
    0.5537   -3.0057    1.3133 H   0  0  0  0  0  0  0  0  0  0  0  0
   -1.0541   -3.1279    0.6112 H   0  0  0  0  0  0  0  0  0  0  0  0
  1  9  1  0  0  0  0
  1 11  1  0  0  0  0
  2  1  1  0  0  0  0
  2 12  1  0  0  0  0
  3  2  1  0  0  0  0
  4  3  1  0  0  0  0
  4  5  2  0  0  0  0
  6 17  1  0  0  0  0
  6  5  1  0  0  0  0
  6 16  1  0  0  0  0
  7  4  1  0  0  0  0
  8  7  3  0  0  0  0
 10  1  1  0  0  0  0
 13  2  1  0  0  0  0
 14  3  1  0  0  0  0
 15  6  1  0  0  0  0
M  END
