title
 OpenBabel02282109593D

 17 16  0  0  0  0  0  0  0  0999 V2000
   -0.5868    3.0209    1.0390 C   0  0  0  0  0  0  0  0  0  0  0  0
   -0.5830    1.5077    1.1489 C   0  0  0  0  0  0  0  0  0  0  0  0
   -0.0084    0.9933   -0.0625 O   0  0  0  0  0  0  0  0  0  0  0  0
    0.0860   -0.3500   -0.1600 C   0  0  0  0  0  0  0  0  0  0  0  0
   -0.3101   -1.1225    0.7650 N   0  0  0  0  0  0  0  0  0  0  0  0
   -0.1959   -2.5587    0.6319 C   0  0  0  0  0  0  0  0  0  0  0  0
    0.6772   -0.7328   -1.4169 C   0  0  0  0  0  0  0  0  0  0  0  0
    1.1674   -1.0880   -2.4558 C   0  0  0  0  0  0  0  0  0  0  0  0
    0.4298    3.4063    0.9206 H   0  0  0  0  0  0  0  0  0  0  0  0
   -1.1803    3.3485    0.1808 H   0  0  0  0  0  0  0  0  0  0  0  0
   -1.0186    3.4571    1.9447 H   0  0  0  0  0  0  0  0  0  0  0  0
    0.0069    1.1579    2.0029 H   0  0  0  0  0  0  0  0  0  0  0  0
   -1.5929    1.1007    1.2684 H   0  0  0  0  0  0  0  0  0  0  0  0
    0.2509   -2.8945   -0.3126 H   0  0  0  0  0  0  0  0  0  0  0  0
    0.4054   -2.9489    1.4614 H   0  0  0  0  0  0  0  0  0  0  0  0
   -1.1914   -3.0079    0.7271 H   0  0  0  0  0  0  0  0  0  0  0  0
    1.6016   -1.3915   -3.3769 H   0  0  0  0  0  0  0  0  0  0  0  0
  1  2  1  0  0  0  0
  1 11  1  0  0  0  0
  2 13  1  0  0  0  0
  2 12  1  0  0  0  0
  3  2  1  0  0  0  0
  4  3  1  0  0  0  0
  4  5  2  0  0  0  0
  6 16  1  0  0  0  0
  6  5  1  0  0  0  0
  6 15  1  0  0  0  0
  7  4  1  0  0  0  0
  8  7  3  0  0  0  0
  9  1  1  0  0  0  0
 10  1  1  0  0  0  0
 14  6  1  0  0  0  0
 17  8  1  0  0  0  0
M  END
