16
title
C -0.58538175 3.04275 1.0342683
C -0.60675675 1.5313584 1.1491207
O -0.0004404003 1.0015153 -0.0468682
C 0.07401253 -0.33456585 -0.1334163
N -0.34817433 -1.1273127 0.75481415
C -0.23680703 -2.5629818 0.59901917
C 0.7055195 -0.7269919 -1.3863271
N 1.1992561 -1.0991533 -2.362827
H 0.4394221 3.4136717 0.94744027
H -1.1489232 3.3761888 0.1587196
H -1.0387723 3.484742 1.9263105
H -0.04462157 1.1726933 2.0175817
H -1.6241122 1.1354363 1.233349
H 0.3374357 -2.9664032 1.4400245
H -1.2379156 -3.0036552 0.6572454
H 0.2361883 -2.8848984 -0.33759546
