title
 OpenBabel02282109593D

 18 17  0  0  0  0  0  0  0  0999 V2000
   -0.3285    2.9747    1.3827 C   0  0  0  0  0  0  0  0  0  0  0  0
   -0.3323    1.4443    1.3373 C   0  0  0  0  0  0  0  0  0  0  0  0
    0.3660    0.8936    0.0920 C   0  0  0  0  0  0  0  0  0  0  0  0
    0.3723   -0.6614    0.0240 C   0  0  0  0  0  0  0  0  0  0  0  0
   -0.9863   -1.2120   -0.0456 C   0  0  0  0  0  0  0  0  0  0  0  0
   -2.1054   -1.6455   -0.0970 C   0  0  0  0  0  0  0  0  0  0  0  0
    1.1911   -1.1327   -1.0979 C   0  0  0  0  0  0  0  0  0  0  0  0
    1.8788   -1.4883   -2.0160 C   0  0  0  0  0  0  0  0  0  0  0  0
    0.6928    3.3715    1.3833 H   0  0  0  0  0  0  0  0  0  0  0  0
   -0.8465    3.3973    0.5149 H   0  0  0  0  0  0  0  0  0  0  0  0
   -0.8300    3.3448    2.2821 H   0  0  0  0  0  0  0  0  0  0  0  0
    0.1624    1.0487    2.2346 H   0  0  0  0  0  0  0  0  0  0  0  0
   -1.3632    1.0740    1.3663 H   0  0  0  0  0  0  0  0  0  0  0  0
   -0.1142    1.2758   -0.8154 H   0  0  0  0  0  0  0  0  0  0  0  0
    1.4094    1.2269    0.0645 H   0  0  0  0  0  0  0  0  0  0  0  0
    0.8341   -1.0268    0.9537 H   0  0  0  0  0  0  0  0  0  0  0  0
   -3.0902   -2.0398   -0.1464 H   0  0  0  0  0  0  0  0  0  0  0  0
    2.4807   -1.8152   -2.8274 H   0  0  0  0  0  0  0  0  0  0  0  0
  1  9  1  0  0  0  0
  1 11  1  0  0  0  0
  2 13  1  0  0  0  0
  2  1  1  0  0  0  0
  2 12  1  0  0  0  0
  3  2  1  0  0  0  0
  4  3  1  0  0  0  0
  4 16  1  0  0  0  0
  5  4  1  0  0  0  0
  6  5  3  0  0  0  0
  7  4  1  0  0  0  0
  8  7  3  0  0  0  0
 10  1  1  0  0  0  0
 14  3  1  0  0  0  0
 15  3  1  0  0  0  0
 17  6  1  0  0  0  0
 18  8  1  0  0  0  0
M  END
