title
 OpenBabel02282109593D

 17 16  0  0  1  0  0  0  0  0999 V2000
   -1.0449    2.9752    0.9753 C   0  0  0  0  0  0  0  0  0  0  0  0
   -0.9854    1.4453    0.9624 C   0  0  0  0  0  0  0  0  0  0  0  0
   -0.2794    0.9017   -0.2822 C   0  0  0  0  0  0  0  0  0  0  0  0
   -0.2145   -0.6523   -0.3269 C   0  0  1  0  0  0  0  0  0  0  0  0
    0.3523   -1.1381   -1.5856 C   0  0  0  0  0  0  0  0  0  0  0  0
    0.8068   -1.5051   -2.6340 C   0  0  0  0  0  0  0  0  0  0  0  0
    0.5393   -1.1827    0.8227 C   0  0  0  0  0  0  0  0  0  0  0  0
    1.1211   -1.5783    1.7389 N   0  0  0  0  0  0  0  0  0  0  0  0
   -0.0397    3.4099    0.9629 H   0  0  0  0  0  0  0  0  0  0  0  0
   -1.5844    3.3608    0.1034 H   0  0  0  0  0  0  0  0  0  0  0  0
   -1.5545    3.3407    1.8715 H   0  0  0  0  0  0  0  0  0  0  0  0
   -0.4680    1.0882    1.8604 H   0  0  0  0  0  0  0  0  0  0  0  0
   -2.0035    1.0364    1.0094 H   0  0  0  0  0  0  0  0  0  0  0  0
   -0.8012    1.2241   -1.1894 H   0  0  0  0  0  0  0  0  0  0  0  0
    0.7418    1.2918   -0.3468 H   0  0  0  0  0  0  0  0  0  0  0  0
   -1.2405   -1.0360   -0.2334 H   0  0  0  0  0  0  0  0  0  0  0  0
    1.2120   -1.8417   -3.5565 H   0  0  0  0  0  0  0  0  0  0  0  0
  1 11  1  0  0  0  0
  2  1  1  0  0  0  0
  2 13  1  0  0  0  0
  2 12  1  0  0  0  0
  3  2  1  0  0  0  0
  4  3  1  0  0  0  0
  4 16  1  1  0  0  0
  4  7  1  0  0  0  0
  5  4  1  0  0  0  0
  6  5  3  0  0  0  0
  7  8  3  0  0  0  0
  9  1  1  0  0  0  0
 10  1  1  0  0  0  0
 14  3  1  0  0  0  0
 15  3  1  0  0  0  0
 17  6  1  0  0  0  0
M  END
