title
 OpenBabel02282109593D

 16 15  0  0  1  0  0  0  0  0999 V2000
   -1.1403    2.8833    0.8367 C   0  0  0  0  0  0  0  0  0  0  0  0
   -1.2665    1.4080    0.4726 C   0  0  0  0  0  0  0  0  0  0  0  0
    0.0444    0.7556    0.5406 N   0  0  0  0  0  0  0  0  0  0  0  0
    0.0163   -0.6655    0.1916 C   0  0  1  0  0  0  0  0  0  0  0  0
   -0.3742   -0.9678   -1.1983 C   0  0  0  0  0  0  0  0  0  0  0  0
   -0.7066   -1.1576   -2.3369 C   0  0  0  0  0  0  0  0  0  0  0  0
    1.3334   -1.2642    0.4890 C   0  0  0  0  0  0  0  0  0  0  0  0
    2.3640   -1.7303    0.7197 N   0  0  0  0  0  0  0  0  0  0  0  0
   -0.6999    3.0017    1.8304 H   0  0  0  0  0  0  0  0  0  0  0  0
   -0.5054    3.4137    0.1180 H   0  0  0  0  0  0  0  0  0  0  0  0
   -2.1224    3.3646    0.8280 H   0  0  0  0  0  0  0  0  0  0  0  0
   -1.9224    0.9012    1.1923 H   0  0  0  0  0  0  0  0  0  0  0  0
   -1.7388    1.3019   -0.5176 H   0  0  0  0  0  0  0  0  0  0  0  0
    0.6999    1.2316   -0.0730 H   0  0  0  0  0  0  0  0  0  0  0  0
   -0.7083   -1.1450    0.8652 H   0  0  0  0  0  0  0  0  0  0  0  0
   -0.9950   -1.3399   -3.3432 H   0  0  0  0  0  0  0  0  0  0  0  0
  1  9  1  0  0  0  0
  2  3  1  0  0  0  0
  2  1  1  0  0  0  0
  2 12  1  0  0  0  0
  4  7  1  0  0  0  0
  4  3  1  0  0  0  0
  4 15  1  1  0  0  0
  5  4  1  0  0  0  0
  6  5  3  0  0  0  0
  7  8  3  0  0  0  0
 10  1  1  0  0  0  0
 11  1  1  0  0  0  0
 13  2  1  0  0  0  0
 14  3  1  0  0  0  0
 16  6  1  0  0  0  0
M  END
