16
title
C -1.1403477 2.88334 0.83669865
C -1.2665124 1.4079623 0.4726371
N 0.04440781 0.7556438 0.5406474
C 0.0163106 -0.6654636 0.19157311
C -0.37416968 -0.9677989 -1.1983037
C -0.7065918 -1.1576474 -2.336887
C 1.3334013 -1.2642214 0.48899725
N 2.364003 -1.7303126 0.71965855
H -0.69992524 3.0016677 1.8303871
H -0.5053951 3.4137409 0.1180059
H -2.1223674 3.364564 0.8279678
H -1.9223884 0.90115696 1.1923054
H -1.7388391 1.301897 -0.5175702
H 0.69994456 1.2316093 -0.07297978
H -0.708257 -1.1450312 0.8652001
H -0.9950104 -1.3399086 -3.3432105
