title
 OpenBabel02282109593D

 15 14  0  0  0  0  0  0  0  0999 V2000
    1.1845    2.9436    0.4858 C   0  0  0  0  0  0  0  0  0  0  0  0
    1.0175    1.4604    0.7954 C   0  0  0  0  0  0  0  0  0  0  0  0
    0.4007    0.7726   -0.3455 N   0  0  0  0  0  0  0  0  0  0  0  0
    0.1942   -0.6520   -0.1438 C   0  0  0  0  0  0  0  0  0  0  0  0
   -0.7366   -0.9890    0.9684 C   0  0  0  0  0  0  0  0  0  0  0  0
   -1.4461   -1.1709    1.8617 N   0  0  0  0  0  0  0  0  0  0  0  0
   -0.2723   -1.2811   -1.3922 C   0  0  0  0  0  0  0  0  0  0  0  0
   -0.6335   -1.7654   -2.3752 N   0  0  0  0  0  0  0  0  0  0  0  0
    1.6793    3.4511    1.3181 H   0  0  0  0  0  0  0  0  0  0  0  0
    1.7819    3.0872   -0.4185 H   0  0  0  0  0  0  0  0  0  0  0  0
    0.2126    3.4264    0.3345 H   0  0  0  0  0  0  0  0  0  0  0  0
    1.9992    0.9994    0.9629 H   0  0  0  0  0  0  0  0  0  0  0  0
    0.4394    1.3305    1.7245 H   0  0  0  0  0  0  0  0  0  0  0  0
   -0.4799    1.2139   -0.5940 H   0  0  0  0  0  0  0  0  0  0  0  0
    1.1659   -1.0998    0.1067 H   0  0  0  0  0  0  0  0  0  0  0  0
  1  2  1  0  0  0  0
  1  9  1  0  0  0  0
  2 12  1  0  0  0  0
  2 13  1  0  0  0  0
  3  4  1  0  0  0  0
  3  2  1  0  0  0  0
  4 15  1  0  0  0  0
  4  5  1  0  0  0  0
  5  6  3  0  0  0  0
  7  4  1  0  0  0  0
  8  7  3  0  0  0  0
 10  1  1  0  0  0  0
 11  1  1  0  0  0  0
 14  3  1  0  0  0  0
M  END
