title
 OpenBabel02282109593D

 15 14  0  0  1  0  0  0  0  0999 V2000
   -0.5854    2.7657   -1.3081 C   0  0  0  0  0  0  0  0  0  0  0  0
   -0.6961    1.2546   -1.2322 C   0  0  0  0  0  0  0  0  0  0  0  0
    0.2580    0.7946   -0.2733 O   0  0  0  0  0  0  0  0  0  0  0  0
    0.2915   -0.6051   -0.1310 C   0  0  1  0  0  0  0  0  0  0  0  0
    1.4608   -0.9880    0.6584 C   0  0  0  0  0  0  0  0  0  0  0  0
    2.4239   -1.3251    1.2882 C   0  0  0  0  0  0  0  0  0  0  0  0
   -0.9539   -1.1207    0.5019 C   0  0  0  0  0  0  0  0  0  0  0  0
   -1.9418   -1.5014    0.9633 N   0  0  0  0  0  0  0  0  0  0  0  0
    0.4225    3.0644   -1.6087 H   0  0  0  0  0  0  0  0  0  0  0  0
   -1.2984    3.1566   -2.0396 H   0  0  0  0  0  0  0  0  0  0  0  0
   -0.8038    3.2150   -0.3357 H   0  0  0  0  0  0  0  0  0  0  0  0
   -1.7082    0.9494   -0.9308 H   0  0  0  0  0  0  0  0  0  0  0  0
   -0.4846    0.7927   -2.2099 H   0  0  0  0  0  0  0  0  0  0  0  0
    0.3586   -1.0885   -1.1220 H   0  0  0  0  0  0  0  0  0  0  0  0
    3.2752   -1.6169    1.8532 H   0  0  0  0  0  0  0  0  0  0  0  0
  1  2  1  0  0  0  0
  1 11  1  0  0  0  0
  2 12  1  0  0  0  0
  2  3  1  0  0  0  0
  3  4  1  0  0  0  0
  4 14  1  6  0  0  0
  4  7  1  0  0  0  0
  4  5  1  0  0  0  0
  5  6  3  0  0  0  0
  6 15  1  0  0  0  0
  7  8  3  0  0  0  0
  9  1  1  0  0  0  0
 10  1  1  0  0  0  0
 13  2  1  0  0  0  0
M  END
