14
title
C 1.3645637 2.799985 0.2262116
C 1.4010134 1.2943039 0.053368457
O 0.09441979 0.7894419 0.36224452
C -0.0048900107 -0.60361683 0.28424156
C -1.2821912 -1.0142727 0.8939724
N -2.265195 -1.354991 1.3919954
C 0.081207946 -1.1037881 -1.1124231
N 0.19470711 -1.4642994 -2.2032273
H 2.3484893 3.2222524 0.0036112291
H 0.63332224 3.2463605 -0.4524675
H 1.09461 3.0650532 1.2517138
H 1.6695704 1.0197978 -0.9758991
H 2.1358736 0.83226824 0.7305189
H 0.80573124 -1.0949714 0.85038453
