title
 OpenBabel02282109593D

 14 13  0  0  0  0  0  0  0  0999 V2000
    1.3646    2.8000    0.2262 C   0  0  0  0  0  0  0  0  0  0  0  0
    1.4010    1.2943    0.0534 C   0  0  0  0  0  0  0  0  0  0  0  0
    0.0944    0.7894    0.3622 O   0  0  0  0  0  0  0  0  0  0  0  0
   -0.0049   -0.6036    0.2842 C   0  0  0  0  0  0  0  0  0  0  0  0
   -1.2822   -1.0143    0.8940 C   0  0  0  0  0  0  0  0  0  0  0  0
   -2.2652   -1.3550    1.3920 N   0  0  0  0  0  0  0  0  0  0  0  0
    0.0812   -1.1038   -1.1124 C   0  0  0  0  0  0  0  0  0  0  0  0
    0.1947   -1.4643   -2.2032 N   0  0  0  0  0  0  0  0  0  0  0  0
    2.3485    3.2223    0.0036 H   0  0  0  0  0  0  0  0  0  0  0  0
    0.6333    3.2464   -0.4525 H   0  0  0  0  0  0  0  0  0  0  0  0
    1.0946    3.0651    1.2517 H   0  0  0  0  0  0  0  0  0  0  0  0
    1.6696    1.0198   -0.9759 H   0  0  0  0  0  0  0  0  0  0  0  0
    2.1359    0.8323    0.7305 H   0  0  0  0  0  0  0  0  0  0  0  0
    0.8057   -1.0950    0.8504 H   0  0  0  0  0  0  0  0  0  0  0  0
  1 11  1  0  0  0  0
  2  1  1  0  0  0  0
  2  3  1  0  0  0  0
  2 13  1  0  0  0  0
  4  3  1  0  0  0  0
  4 14  1  0  0  0  0
  4  5  1  0  0  0  0
  5  6  3  0  0  0  0
  7  4  1  0  0  0  0
  8  7  3  0  0  0  0
  9  1  1  0  0  0  0
 10  1  1  0  0  0  0
 12  2  1  0  0  0  0
M  END
