16
title
C -0.2601331 2.8205962 1.165466
O -0.18612106 1.4137076 1.1567093
C 0.40323475 0.9038883 -0.010425157
C 0.34077922 -0.63940346 0.06579786
C -1.0413513 -1.1279315 0.050924353
C -2.1735523 -1.5262829 0.030728037
C 1.1359444 -1.230404 -1.0144274
C 1.8026884 -1.6845607 -1.9037342
H 0.73771614 3.2826097 1.103022
H -0.86859375 3.200864 0.33047217
H -0.7278675 3.114861 2.1076484
H -0.124023356 1.2485783 -0.9130904
H 1.4576505 1.2115 -0.09394402
H 0.79435545 -0.91529024 1.0283493
H -3.1743796 -1.8807799 0.017785722
H 2.3854454 -2.101041 -2.6877592
