title
 OpenBabel02282109593D

 15 14  0  0  1  0  0  0  0  0999 V2000
   -0.3447    2.8369   -1.0992 C   0  0  0  0  0  0  0  0  0  0  0  0
   -0.2050    1.4321   -1.1185 O   0  0  0  0  0  0  0  0  0  0  0  0
    0.4160    0.9240    0.0293 C   0  0  0  0  0  0  0  0  0  0  0  0
    0.3815   -0.6181   -0.0776 C   0  0  1  0  0  0  0  0  0  0  0  0
    1.1624   -1.2404    0.9907 C   0  0  0  0  0  0  0  0  0  0  0  0
    1.8208   -1.7194    1.8720 C   0  0  0  0  0  0  0  0  0  0  0  0
   -1.0070   -1.1088   -0.0803 C   0  0  0  0  0  0  0  0  0  0  0  0
   -2.0947   -1.4957   -0.0760 N   0  0  0  0  0  0  0  0  0  0  0  0
    0.6322    3.3408   -1.0433 H   0  0  0  0  0  0  0  0  0  0  0  0
   -0.8401    3.1230   -2.0290 H   0  0  0  0  0  0  0  0  0  0  0  0
   -0.9580    3.1698   -0.2488 H   0  0  0  0  0  0  0  0  0  0  0  0
    1.4675    1.2427    0.1008 H   0  0  0  0  0  0  0  0  0  0  0  0
   -0.0993    1.2418    0.9482 H   0  0  0  0  0  0  0  0  0  0  0  0
    0.8191   -0.8763   -1.0511 H   0  0  0  0  0  0  0  0  0  0  0  0
    2.3971   -2.1572    2.6498 H   0  0  0  0  0  0  0  0  0  0  0  0
  1  9  1  0  0  0  0
  1 11  1  0  0  0  0
  2  1  1  0  0  0  0
  2  3  1  0  0  0  0
  3 12  1  0  0  0  0
  3 13  1  0  0  0  0
  4 14  1  6  0  0  0
  4  3  1  0  0  0  0
  4  5  1  0  0  0  0
  5  6  3  0  0  0  0
  6 15  1  0  0  0  0
  7  4  1  0  0  0  0
  7  8  3  0  0  0  0
 10  1  1  0  0  0  0
M  END
