16
title
O 1.1695719 2.8393333 -0.45570707
C 1.2817516 1.428684 -0.35333633
C -0.13310124 0.8638877 -0.3564237
C -0.1645198 -0.6884185 -0.31973872
C 0.46252096 -1.2245771 0.89494354
C 0.9853729 -1.649355 1.8894224
C -1.5369186 -1.1837934 -0.46822003
C -2.6675088 -1.5646511 -0.6040444
H 2.049934 3.2171187 -0.37436017
H 1.8504347 1.0104465 -1.2014786
H 1.8003187 1.129532 0.56869984
H -0.68650603 1.2573241 0.50081956
H -0.6503539 1.1960655 -1.2613974
H 0.41605115 -1.0507368 -1.1819446
H 1.4405758 -2.03441 2.768277
H -3.6645467 -1.9114634 -0.7192949
