title
 OpenBabel02282109593D

 15 14  0  0  1  0  0  0  0  0999 V2000
    1.1749    2.8397    0.4509 O   0  0  0  0  0  0  0  0  0  0  0  0
    1.2853    1.4329    0.3291 C   0  0  0  0  0  0  0  0  0  0  0  0
   -0.1326    0.8740    0.3714 C   0  0  0  0  0  0  0  0  0  0  0  0
   -0.1745   -0.6772    0.3394 C   0  0  1  0  0  0  0  0  0  0  0  0
   -1.5397   -1.1842    0.4839 C   0  0  0  0  0  0  0  0  0  0  0  0
   -2.6667   -1.5738    0.6177 C   0  0  0  0  0  0  0  0  0  0  0  0
    0.4491   -1.2025   -0.8888 C   0  0  0  0  0  0  0  0  0  0  0  0
    0.9597   -1.5948   -1.8478 N   0  0  0  0  0  0  0  0  0  0  0  0
    2.0462    3.2242    0.3187 H   0  0  0  0  0  0  0  0  0  0  0  0
    1.7743    1.1443   -0.6129 H   0  0  0  0  0  0  0  0  0  0  0  0
    1.8794    1.0031    1.1537 H   0  0  0  0  0  0  0  0  0  0  0  0
   -0.6234    1.2022    1.2919 H   0  0  0  0  0  0  0  0  0  0  0  0
   -0.7106    1.2705   -0.4676 H   0  0  0  0  0  0  0  0  0  0  0  0
    0.4271   -1.0528    1.1797 H   0  0  0  0  0  0  0  0  0  0  0  0
   -3.6617   -1.9281    0.7315 H   0  0  0  0  0  0  0  0  0  0  0  0
  2  3  1  0  0  0  0
  2  1  1  0  0  0  0
  2 11  1  0  0  0  0
  3 12  1  0  0  0  0
  4  3  1  0  0  0  0
  4  5  1  0  0  0  0
  4 14  1  1  0  0  0
  5  6  3  0  0  0  0
  6 15  1  0  0  0  0
  7  4  1  0  0  0  0
  8  7  3  0  0  0  0
  9  1  1  0  0  0  0
 10  2  1  0  0  0  0
 13  3  1  0  0  0  0
M  END
