15
title
O 1.1749065 2.8396978 0.45087177
C 1.2853451 1.4329449 0.32905695
C -0.13260703 0.8739508 0.3714103
C -0.17448883 -0.67723817 0.33937106
C -1.5397457 -1.1841613 0.48389545
C -2.6666844 -1.5738257 0.61765105
C 0.44909516 -1.2025224 -0.8888051
N 0.95965004 -1.594827 -1.8477914
H 2.0462437 3.2242339 0.31869844
H 1.7743336 1.1442666 -0.61286193
H 1.8793911 1.0031426 1.1536562
H -0.62335986 1.2022375 1.2918594
H -0.7105939 1.27048 -0.4675861
H 0.42709962 -1.0528427 1.179728
H -3.6617124 -1.928147 0.7315257
