17
title
C -0.6160378 3.1700983 -0.9517617
C -0.6568926 1.6586812 -1.0718042
O 0.021360507 1.1126951 0.06846817
C 0.091441326 -0.2344082 0.14780529
C 0.83678764 -0.5971218 1.4092937
O 1.059722 -1.7275542 1.7601748
N -0.41014856 -0.993069 -0.73177373
C -0.32863748 -2.4418545 -0.6365857
H 0.41538733 3.5333397 -0.93300027
H -1.1254543 3.623467 -1.8072011
H -1.1149603 3.503569 -0.037428547
H -1.6819165 1.272359 -1.0933287
H -0.16307564 1.3020694 -1.982525
H 1.1675361 0.28472418 1.9961467
H -0.8270772 -2.870902 -1.5096483
H 0.7070431 -2.798429 -0.6129552
H -0.81380665 -2.8251991 0.2679023
