18
title
C 1.2174814 3.0682287 -0.27807227
C 1.2006692 1.5388919 -0.34922373
C -0.21826172 0.9663476 -0.2683044
C -0.26201677 -0.58765346 -0.31980488
C 0.3608805 -1.1543918 0.95988005
O 1.443948 -1.6698303 1.0171951
C -1.6274157 -1.0835431 -0.4427083
C -2.7565997 -1.4928079 -0.4961792
H 2.2384465 3.4552956 -0.34658885
H 0.63713753 3.5107527 -1.0951878
H 0.787977 3.4263954 0.6639924
H 1.6686491 1.2073164 -1.2849065
H 1.8169764 1.124652 0.45737034
H -0.71384025 1.3020834 0.65196383
H -0.8262973 1.3453001 -1.0968244
H 0.35026985 -0.9391914 -1.1583023
H -0.27925348 -1.0251145 1.8612376
H -3.7511294 -1.8589277 -0.56546503
