16
title
C -0.8089318 2.9211972 1.1153884
C -0.56135404 1.4211986 1.2282703
N -0.34990323 0.83984387 -0.10414143
C -0.16840611 -0.60993254 -0.12265237
C 0.074210785 -0.9945898 -1.598894
O -0.73983747 -1.5758581 -2.2584562
C 1.0059005 -1.0022655 0.66677773
N 1.9354848 -1.3423705 1.2626946
H 0.030613264 3.414873 0.61861587
H -1.7176622 3.1317723 0.53972036
H -0.93663925 3.3620846 2.1078377
H 0.3408318 1.2340078 1.8201805
H -1.3986356 0.9380488 1.7616433
H -1.1496472 1.0553057 -0.6932835
H -1.0349042 -1.1891401 0.23824392
H 1.040081 -0.632807 -2.003746
