title
 OpenBabel02282109593D

 16 15  0  0  1  0  0  0  0  0999 V2000
   -0.8089    2.9212    1.1154 C   0  0  0  0  0  0  0  0  0  0  0  0
   -0.5614    1.4212    1.2283 C   0  0  0  0  0  0  0  0  0  0  0  0
   -0.3499    0.8398   -0.1041 N   0  0  0  0  0  0  0  0  0  0  0  0
   -0.1684   -0.6099   -0.1227 C   0  0  1  0  0  0  0  0  0  0  0  0
    0.0742   -0.9946   -1.5989 C   0  0  0  0  0  0  0  0  0  0  0  0
   -0.7398   -1.5759   -2.2585 O   0  0  0  0  0  0  0  0  0  0  0  0
    1.0059   -1.0023    0.6668 C   0  0  0  0  0  0  0  0  0  0  0  0
    1.9355   -1.3424    1.2627 N   0  0  0  0  0  0  0  0  0  0  0  0
    0.0306    3.4149    0.6186 H   0  0  0  0  0  0  0  0  0  0  0  0
   -1.7177    3.1318    0.5397 H   0  0  0  0  0  0  0  0  0  0  0  0
   -0.9366    3.3621    2.1078 H   0  0  0  0  0  0  0  0  0  0  0  0
    0.3408    1.2340    1.8202 H   0  0  0  0  0  0  0  0  0  0  0  0
   -1.3986    0.9380    1.7616 H   0  0  0  0  0  0  0  0  0  0  0  0
   -1.1496    1.0553   -0.6933 H   0  0  0  0  0  0  0  0  0  0  0  0
   -1.0349   -1.1891    0.2382 H   0  0  0  0  0  0  0  0  0  0  0  0
    1.0401   -0.6328   -2.0037 H   0  0  0  0  0  0  0  0  0  0  0  0
  1  2  1  0  0  0  0
  1 11  1  0  0  0  0
  2 13  1  0  0  0  0
  2 12  1  0  0  0  0
  3  2  1  0  0  0  0
  4  3  1  0  0  0  0
  4 15  1  1  0  0  0
  4  7  1  0  0  0  0
  5  4  1  0  0  0  0
  6  5  2  0  0  0  0
  7  8  3  0  0  0  0
  9  1  1  0  0  0  0
 10  1  1  0  0  0  0
 14  3  1  0  0  0  0
 16  5  1  0  0  0  0
M  END
