title
 OpenBabel02282109593D

 15 14  0  0  1  0  0  0  0  0999 V2000
   -0.7322    2.9261    1.1544 C   0  0  0  0  0  0  0  0  0  0  0  0
   -0.6165    1.4167    1.2499 C   0  0  0  0  0  0  0  0  0  0  0  0
   -0.3385    0.9112   -0.0582 O   0  0  0  0  0  0  0  0  0  0  0  0
   -0.2414   -0.4817   -0.1403 C   0  0  1  0  0  0  0  0  0  0  0  0
   -0.1615   -0.8249   -1.6459 C   0  0  0  0  0  0  0  0  0  0  0  0
   -0.4312   -1.9012   -2.0915 O   0  0  0  0  0  0  0  0  0  0  0  0
    0.9523   -1.0116    0.5531 C   0  0  0  0  0  0  0  0  0  0  0  0
    1.8965   -1.4015    1.0934 N   0  0  0  0  0  0  0  0  0  0  0  0
    0.2021    3.3604    0.7889 H   0  0  0  0  0  0  0  0  0  0  0  0
   -1.5375    3.2104    0.4715 H   0  0  0  0  0  0  0  0  0  0  0  0
   -0.9477    3.3467    2.1406 H   0  0  0  0  0  0  0  0  0  0  0  0
    0.1897    1.1251    1.9374 H   0  0  0  0  0  0  0  0  0  0  0  0
   -1.5516    0.9698    1.6213 H   0  0  0  0  0  0  0  0  0  0  0  0
   -1.1270   -0.9912    0.2713 H   0  0  0  0  0  0  0  0  0  0  0  0
    0.1585    0.0411   -2.2601 H   0  0  0  0  0  0  0  0  0  0  0  0
  1  2  1  0  0  0  0
  1 11  1  0  0  0  0
  2 13  1  0  0  0  0
  2 12  1  0  0  0  0
  3  2  1  0  0  0  0
  4  3  1  0  0  0  0
  4 14  1  1  0  0  0
  4  7  1  0  0  0  0
  5  4  1  0  0  0  0
  6  5  2  0  0  0  0
  7  8  3  0  0  0  0
  9  1  1  0  0  0  0
 10  1  1  0  0  0  0
 15  5  1  0  0  0  0
M  END
