15
title
C -0.7322139 2.92606 1.1543528
C -0.6165048 1.4166552 1.2499304
O -0.33854806 0.91123027 -0.05822663
C -0.24135783 -0.48167905 -0.14026003
C -0.16146436 -0.82485783 -1.645883
O -0.43118063 -1.9011594 -2.0915482
C 0.9523375 -1.0115863 0.5530873
N 1.8965127 -1.401462 1.0934467
H 0.20207796 3.3604143 0.7888509
H -1.537462 3.2104068 0.47154704
H -0.94767755 3.3466568 2.1406295
H 0.18968913 1.125112 1.9374206
H -1.5516046 0.96975726 1.6213131
H -1.1269975 -0.9911829 0.271274
H 0.15854988 0.04111579 -2.2600775
