16
title
C 1.1333861 2.8864474 0.51610565
N 1.1896067 1.4461336 0.2913047
C -0.11576874 0.81314147 0.34774935
C 0.019617612 -0.7130476 0.20319492
C -1.2867299 -1.4613117 0.5185759
O -2.2128105 -0.9510211 1.0842088
C 0.5159264 -1.109598 -1.1148479
N 0.888904 -1.4132336 -2.1660945
H 2.1358714 3.3091822 0.4086754
H 0.45564932 3.424551 -0.16921528
H 0.79531235 3.0831099 1.5395671
H 1.6163884 1.2640071 -0.6122446
H -0.5652866 1.0073345 1.3261714
H -0.83282334 1.1827915 -0.40635023
H 0.75753874 -1.0608069 0.94301087
H -1.2982191 -2.5252404 0.20392713
