16
title
C -0.29765195 2.918436 1.0022303
O -0.2531155 1.508966 0.98831034
C 0.46702194 0.9896571 -0.10160013
C 0.40225273 -0.5424867 0.0005519756
C -1.0662544 -0.99831635 -0.031317435
O -1.5713471 -1.7091811 0.78999645
C 1.1097006 -1.1690967 -1.1089801
C 1.6526922 -1.6790729 -2.0523484
H 0.71033686 3.3548605 1.0746682
H -0.7832975 3.3186994 0.098996796
H -0.87717557 3.2155282 1.8787743
H 0.029657278 1.3172065 -1.0599335
H 1.5171791 1.3197645 -0.09001883
H 0.81914485 -0.860874 0.9616637
H -1.6276724 -0.6174026 -0.91383094
H 2.1478372 -2.1399603 -2.871309
