title
 OpenBabel02282109593D

 16 15  0  0  1  0  0  0  0  0999 V2000
   -0.2977    2.9184    1.0022 C   0  0  0  0  0  0  0  0  0  0  0  0
   -0.2531    1.5090    0.9883 O   0  0  0  0  0  0  0  0  0  0  0  0
    0.4670    0.9897   -0.1016 C   0  0  0  0  0  0  0  0  0  0  0  0
    0.4023   -0.5425    0.0006 C   0  0  1  0  0  0  0  0  0  0  0  0
   -1.0663   -0.9983   -0.0313 C   0  0  0  0  0  0  0  0  0  0  0  0
   -1.5713   -1.7092    0.7900 O   0  0  0  0  0  0  0  0  0  0  0  0
    1.1097   -1.1691   -1.1090 C   0  0  0  0  0  0  0  0  0  0  0  0
    1.6527   -1.6791   -2.0523 C   0  0  0  0  0  0  0  0  0  0  0  0
    0.7103    3.3549    1.0747 H   0  0  0  0  0  0  0  0  0  0  0  0
   -0.7833    3.3187    0.0990 H   0  0  0  0  0  0  0  0  0  0  0  0
   -0.8772    3.2155    1.8788 H   0  0  0  0  0  0  0  0  0  0  0  0
    0.0297    1.3172   -1.0599 H   0  0  0  0  0  0  0  0  0  0  0  0
    1.5172    1.3198   -0.0900 H   0  0  0  0  0  0  0  0  0  0  0  0
    0.8191   -0.8609    0.9617 H   0  0  0  0  0  0  0  0  0  0  0  0
   -1.6277   -0.6174   -0.9138 H   0  0  0  0  0  0  0  0  0  0  0  0
    2.1478   -2.1400   -2.8713 H   0  0  0  0  0  0  0  0  0  0  0  0
  1  9  1  0  0  0  0
  1 11  1  0  0  0  0
  2  1  1  0  0  0  0
  3 13  1  0  0  0  0
  3  4  1  0  0  0  0
  3  2  1  0  0  0  0
  4 14  1  1  0  0  0
  5  4  1  0  0  0  0
  5  6  2  0  0  0  0
  7  4  1  0  0  0  0
  8  7  3  0  0  0  0
 10  1  1  0  0  0  0
 12  3  1  0  0  0  0
 15  5  1  0  0  0  0
 16  8  1  0  0  0  0
M  END
