16
title
O 1.1127952 2.8990123 -0.25392854
C 1.2023575 1.4861107 -0.32858774
C -0.22088572 0.9446201 -0.24279413
C -0.28357968 -0.6041976 -0.3168485
C 0.34312496 -1.2016157 0.94862545
O 1.4284648 -1.7144309 0.98696077
C -1.6562029 -1.0800222 -0.43825656
C -2.7884984 -1.4801852 -0.48909017
H 2.0042264 3.2589793 -0.27509922
H 1.6642603 1.1605599 -1.2749918
H 1.8177582 1.0780224 0.4873712
H -0.6858661 1.2894559 0.68772507
H -0.81367445 1.3595005 -1.0629323
H 0.31691864 -0.9541453 -1.1649816
H -0.29410204 -1.0985705 1.8547425
H -3.787264 -1.8352226 -0.55622387
