title
 OpenBabel02282109593D

 16 15  0  0  1  0  0  0  0  0999 V2000
    1.1128    2.8990   -0.2539 O   0  0  0  0  0  0  0  0  0  0  0  0
    1.2024    1.4861   -0.3286 C   0  0  0  0  0  0  0  0  0  0  0  0
   -0.2209    0.9446   -0.2428 C   0  0  0  0  0  0  0  0  0  0  0  0
   -0.2836   -0.6042   -0.3168 C   0  0  1  0  0  0  0  0  0  0  0  0
    0.3431   -1.2016    0.9486 C   0  0  0  0  0  0  0  0  0  0  0  0
    1.4285   -1.7144    0.9870 O   0  0  0  0  0  0  0  0  0  0  0  0
   -1.6562   -1.0800   -0.4383 C   0  0  0  0  0  0  0  0  0  0  0  0
   -2.7885   -1.4802   -0.4891 C   0  0  0  0  0  0  0  0  0  0  0  0
    2.0042    3.2590   -0.2751 H   0  0  0  0  0  0  0  0  0  0  0  0
    1.6643    1.1606   -1.2750 H   0  0  0  0  0  0  0  0  0  0  0  0
    1.8178    1.0780    0.4874 H   0  0  0  0  0  0  0  0  0  0  0  0
   -0.6859    1.2895    0.6877 H   0  0  0  0  0  0  0  0  0  0  0  0
   -0.8137    1.3595   -1.0629 H   0  0  0  0  0  0  0  0  0  0  0  0
    0.3169   -0.9541   -1.1650 H   0  0  0  0  0  0  0  0  0  0  0  0
   -0.2941   -1.0986    1.8547 H   0  0  0  0  0  0  0  0  0  0  0  0
   -3.7873   -1.8352   -0.5562 H   0  0  0  0  0  0  0  0  0  0  0  0
  2  1  1  0  0  0  0
  2  3  1  0  0  0  0
  2 11  1  0  0  0  0
  3 12  1  0  0  0  0
  4 14  1  6  0  0  0
  4  3  1  0  0  0  0
  4  5  1  0  0  0  0
  5  6  2  0  0  0  0
  5 15  1  0  0  0  0
  7  4  1  0  0  0  0
  8  7  3  0  0  0  0
  9  1  1  0  0  0  0
 10  2  1  0  0  0  0
 13  3  1  0  0  0  0
 16  8  1  0  0  0  0
M  END
