title
 OpenBabel02282109593D

 17 16  0  0  0  0  0  0  0  0999 V2000
   -0.5241    3.1817   -1.0753 C   0  0  0  0  0  0  0  0  0  0  0  0
   -0.6841    1.6657   -1.0767 C   0  0  0  0  0  0  0  0  0  0  0  0
    0.3050    1.0364   -0.1993 N   0  0  0  0  0  0  0  0  0  0  0  0
    0.2463   -0.4134   -0.1713 C   0  0  0  0  0  0  0  0  0  0  0  0
    1.5734   -0.9672    0.3485 C   0  0  0  0  0  0  0  0  0  0  0  0
    1.6875   -1.9479    1.0296 O   0  0  0  0  0  0  0  0  0  0  0  0
   -0.8929   -0.8794    0.7390 C   0  0  0  0  0  0  0  0  0  0  0  0
   -1.6871   -1.7298    0.4472 O   0  0  0  0  0  0  0  0  0  0  0  0
    0.4589    3.4752   -1.4618 H   0  0  0  0  0  0  0  0  0  0  0  0
   -1.2818    3.6494   -1.7100 H   0  0  0  0  0  0  0  0  0  0  0  0
   -0.6222    3.5803   -0.0617 H   0  0  0  0  0  0  0  0  0  0  0  0
   -1.6819    1.3980   -0.7082 H   0  0  0  0  0  0  0  0  0  0  0  0
   -0.6234    1.2784   -2.1102 H   0  0  0  0  0  0  0  0  0  0  0  0
    1.2371    1.3468   -0.4590 H   0  0  0  0  0  0  0  0  0  0  0  0
    0.0836   -0.8797   -1.1638 H   0  0  0  0  0  0  0  0  0  0  0  0
    2.4627   -0.3748    0.0241 H   0  0  0  0  0  0  0  0  0  0  0  0
   -0.9243   -0.3333    1.7066 H   0  0  0  0  0  0  0  0  0  0  0  0
  1 11  1  0  0  0  0
  2  1  1  0  0  0  0
  2 12  1  0  0  0  0
  2  3  1  0  0  0  0
  3  4  1  0  0  0  0
  4  5  1  0  0  0  0
  4  7  1  0  0  0  0
  5  6  2  0  0  0  0
  7 17  1  0  0  0  0
  8  7  2  0  0  0  0
  9  1  1  0  0  0  0
 10  1  1  0  0  0  0
 13  2  1  0  0  0  0
 14  3  1  0  0  0  0
 15  4  1  0  0  0  0
 16  5  1  0  0  0  0
M  END
