17
title
C -0.5241213 3.181671 -1.0752764
C -0.6841457 1.6657075 -1.0767313
N 0.30499306 1.0364407 -0.19929717
C 0.24632022 -0.41341406 -0.17129527
C 1.5734409 -0.9671833 0.34845948
O 1.6874713 -1.9478902 1.0296273
C -0.89291644 -0.87936515 0.73895025
O -1.6870718 -1.7298495 0.44717562
H 0.45892337 3.475165 -1.4617695
H -1.2817842 3.6493886 -1.7100313
H -0.62218374 3.5802538 -0.061748732
H -1.6819166 1.3979824 -0.70816696
H -0.6233688 1.2783662 -2.11016
H 1.2371005 1.3467566 -0.45900702
H 0.08361337 -0.8796572 -1.1637568
H 2.4627326 -0.3747546 0.024065746
H -0.92425376 -0.33334297 1.7066236
