16
title
C 1.351998 2.868927 0.16952981
C 1.3934349 1.3652167 -0.030255951
O 0.12818155 0.8346187 0.36426285
C 0.017679784 -0.55030435 0.30024216
C -1.1722176 -0.97298366 1.1633753
O -1.5210688 -2.1152375 1.2965457
C -0.17241517 -1.112285 -1.1170671
O -0.0893692 -0.4478373 -2.1131027
H 2.3121972 3.312044 -0.1101483
H 0.57063 3.3148007 -0.45176867
H 1.1457453 3.1156993 1.2148386
H 1.5933287 1.115538 -1.0780026
H 2.1852546 0.91093683 0.5879707
H 0.9029038 -1.0704905 0.71642894
H -1.6860969 -0.11339587 1.642362
H -0.3996934 -2.1990879 -1.1317828
