title
 OpenBabel02282109593D

 16 15  0  0  0  0  0  0  0  0999 V2000
    2.6563   -0.3031    0.2261 O   0  0  0  0  0  0  0  0  0  0  0  0
    1.7204    0.3425    1.0441 C   0  0  0  0  0  0  0  0  0  0  0  0
    0.3696   -0.3938    1.1479 C   0  0  0  0  0  0  0  0  0  0  0  0
   -0.6364   -0.0228    0.1413 N   0  0  0  0  0  0  0  0  0  0  0  0
   -0.4612   -0.3023   -1.2034 C   0  0  0  0  0  0  0  0  0  0  0  0
    0.6300   -0.7753   -1.6602 N   0  0  0  0  0  0  0  0  0  0  0  0
   -1.8343    0.5646    0.5375 C   0  0  0  0  0  0  0  0  0  0  0  0
   -2.7281    0.8892   -0.2045 O   0  0  0  0  0  0  0  0  0  0  0  0
    2.1857   -0.5388   -0.5953 H   0  0  0  0  0  0  0  0  0  0  0  0
    2.1547    0.3815    2.0504 H   0  0  0  0  0  0  0  0  0  0  0  0
    1.5274    1.3856    0.7369 H   0  0  0  0  0  0  0  0  0  0  0  0
    0.5587   -1.4706    1.0837 H   0  0  0  0  0  0  0  0  0  0  0  0
   -0.0886   -0.1867    2.1194 H   0  0  0  0  0  0  0  0  0  0  0  0
   -1.3538   -0.0702   -1.7845 H   0  0  0  0  0  0  0  0  0  0  0  0
    0.5662   -0.9302   -2.6631 H   0  0  0  0  0  0  0  0  0  0  0  0
   -1.8739    0.7039    1.6326 H   0  0  0  0  0  0  0  0  0  0  0  0
  1  2  1  0  0  0  0
  2  3  1  0  0  0  0
  2 10  1  0  0  0  0
  3 13  1  0  0  0  0
  4  7  1  0  0  0  0
  4  3  1  0  0  0  0
  5  4  1  0  0  0  0
  6  5  2  0  0  0  0
  7 16  1  0  0  0  0
  8  7  2  0  0  0  0
  9  1  1  0  0  0  0
 11  2  1  0  0  0  0
 12  3  1  0  0  0  0
 14  5  1  0  0  0  0
 15  6  1  0  0  0  0
M  END
