title
 OpenBabel02282109593D

 15 14  0  0  0  0  0  0  0  0999 V2000
    1.6512    1.2344    1.3942 O   0  0  0  0  0  0  0  0  0  0  0  0
    1.7953   -0.1698    1.2917 C   0  0  0  0  0  0  0  0  0  0  0  0
    0.3932   -0.7701    1.2414 C   0  0  0  0  0  0  0  0  0  0  0  0
   -0.3490   -0.3880    0.0403 N   0  0  0  0  0  0  0  0  0  0  0  0
   -0.3246   -1.2552   -1.0585 C   0  0  0  0  0  0  0  0  0  0  0  0
   -0.8330   -1.0761   -2.1291 O   0  0  0  0  0  0  0  0  0  0  0  0
   -1.0092    0.8565    0.0356 C   0  0  0  0  0  0  0  0  0  0  0  0
   -1.5799    1.3464   -0.8971 O   0  0  0  0  0  0  0  0  0  0  0  0
    2.4881    1.6535    1.1755 H   0  0  0  0  0  0  0  0  0  0  0  0
    2.3470   -0.4572    0.3845 H   0  0  0  0  0  0  0  0  0  0  0  0
    2.3303   -0.5881    2.1590 H   0  0  0  0  0  0  0  0  0  0  0  0
    0.4588   -1.8607    1.2839 H   0  0  0  0  0  0  0  0  0  0  0  0
   -0.1667   -0.4436    2.1230 H   0  0  0  0  0  0  0  0  0  0  0  0
    0.2393   -2.1775   -0.8059 H   0  0  0  0  0  0  0  0  0  0  0  0
   -0.9386    1.3324    1.0293 H   0  0  0  0  0  0  0  0  0  0  0  0
  2  1  1  0  0  0  0
  2 11  1  0  0  0  0
  3 12  1  0  0  0  0
  3  2  1  0  0  0  0
  3 13  1  0  0  0  0
  4  3  1  0  0  0  0
  5 14  1  0  0  0  0
  5  4  1  0  0  0  0
  6  5  2  0  0  0  0
  7  4  1  0  0  0  0
  7 15  1  0  0  0  0
  8  7  2  0  0  0  0
  9  1  1  0  0  0  0
 10  2  1  0  0  0  0
M  END
