15
title
O 1.6511736 1.2343886 1.3942145
C 1.7952725 -0.16980135 1.2917099
C 0.39318076 -0.77011365 1.2413512
N -0.3490182 -0.38799375 0.040260997
C -0.32464537 -1.2551584 -1.058451
O -0.8330415 -1.0760928 -2.129143
C -1.0092052 0.85645056 0.03557488
O -1.5799481 1.3464473 -0.89708966
H 2.4880607 1.6535057 1.1754876
H 2.3470483 -0.457224 0.3844519
H 2.3303163 -0.5880535 2.1589785
H 0.45883134 -1.8606935 1.283893
H -0.16670115 -0.4436493 2.1229556
H 0.23929362 -2.1774867 -0.80594414
H -0.93855506 1.3323731 1.0292741
