21
title
C -0.31321934 0.63125074 -3.3336637
C 0.08200702 0.899423 -1.8793027
C -0.2974005 -0.25681722 -0.9517719
C 0.07723352 -0.028567445 0.49392468
O -0.22087088 -1.0074757 1.4047712
C -0.86470175 -2.2092237 1.0094163
N 0.6516075 1.0334178 0.8700612
C 0.9819634 1.1826085 2.2794898
H -0.032694962 1.4700949 -3.9778683
H 0.17986056 -0.26600516 -3.7255414
H -1.3945911 0.4830345 -3.4357955
H 1.158838 1.0773162 -1.8023202
H -0.39331785 1.8157798 -1.5166831
H -1.3786097 -0.44428217 -1.0158343
H 0.17702731 -1.1844062 -1.3021324
H -0.26692238 -2.7813354 0.29089016
H -0.9786594 -2.80059 1.9200593
H -1.857233 -2.0253835 0.5827885
H 1.4703335 2.1484492 2.4314442
H 0.089325994 1.140251 2.9174013
H 1.6589202 0.39190996 2.6288366
