title
 OpenBabel02282109593D

 21 20  0  0  0  0  0  0  0  0999 V2000
   -0.6066    3.0155   -0.9078 C   0  0  0  0  0  0  0  0  0  0  0  0
   -0.7990    1.5106   -0.9598 C   0  0  0  0  0  0  0  0  0  0  0  0
   -0.0546    0.9447    0.1253 O   0  0  0  0  0  0  0  0  0  0  0  0
   -0.0882   -0.4048    0.2630 C   0  0  0  0  0  0  0  0  0  0  0  0
    0.7976   -0.8017    1.4246 C   0  0  0  0  0  0  0  0  0  0  0  0
    2.2912   -0.7081    1.0694 C   0  0  0  0  0  0  0  0  0  0  0  0
   -0.7763   -1.1086   -0.5336 N   0  0  0  0  0  0  0  0  0  0  0  0
   -0.8313   -2.5494   -0.4462 C   0  0  0  0  0  0  0  0  0  0  0  0
    0.4501    3.2790   -1.0112 H   0  0  0  0  0  0  0  0  0  0  0  0
   -1.1615    3.4913   -1.7221 H   0  0  0  0  0  0  0  0  0  0  0  0
   -0.9693    3.4230    0.0403 H   0  0  0  0  0  0  0  0  0  0  0  0
   -1.8529    1.2291   -0.8609 H   0  0  0  0  0  0  0  0  0  0  0  0
   -0.4436    1.0838   -1.9041 H   0  0  0  0  0  0  0  0  0  0  0  0
    0.5772   -0.1213    2.2533 H   0  0  0  0  0  0  0  0  0  0  0  0
    0.5516   -1.8110    1.7601 H   0  0  0  0  0  0  0  0  0  0  0  0
    2.5488   -1.4005    0.2619 H   0  0  0  0  0  0  0  0  0  0  0  0
    2.5442    0.3035    0.7418 H   0  0  0  0  0  0  0  0  0  0  0  0
    2.9110   -0.9541    1.9366 H   0  0  0  0  0  0  0  0  0  0  0  0
   -0.4986   -2.9818   -1.3976 H   0  0  0  0  0  0  0  0  0  0  0  0
   -0.2311   -3.0051    0.3538 H   0  0  0  0  0  0  0  0  0  0  0  0
   -1.8722   -2.8662   -0.3079 H   0  0  0  0  0  0  0  0  0  0  0  0
  1 11  1  0  0  0  0
  2  1  1  0  0  0  0
  2 12  1  0  0  0  0
  2  3  1  0  0  0  0
  3  4  1  0  0  0  0
  4  5  1  0  0  0  0
  5 15  1  0  0  0  0
  5 14  1  0  0  0  0
  6  5  1  0  0  0  0
  6 18  1  0  0  0  0
  7  8  1  0  0  0  0
  7  4  2  0  0  0  0
  8 21  1  0  0  0  0
  8 20  1  0  0  0  0
  9  1  1  0  0  0  0
 10  1  1  0  0  0  0
 13  2  1  0  0  0  0
 16  6  1  0  0  0  0
 17  6  1  0  0  0  0
 19  8  1  0  0  0  0
M  END
