21
title
C -0.60660744 3.0154502 -0.90784234
C -0.79898083 1.510592 -0.9597514
O -0.054640666 0.9447289 0.12531255
C -0.08823885 -0.40478057 0.2629894
C 0.7976423 -0.80171245 1.4246242
C 2.2912054 -0.7080633 1.0694425
N -0.7762731 -1.108578 -0.5336247
C -0.8312665 -2.5493636 -0.44616497
H 0.45013013 3.278984 -1.0111996
H -1.1614895 3.491253 -1.7221107
H -0.969315 3.4230282 0.040306915
H -1.8529167 1.2291424 -0.8608891
H -0.4436398 1.0837612 -1.9041058
H 0.57720345 -0.12126834 2.2533207
H 0.5515956 -1.8110168 1.7601256
H 2.548757 -1.400495 0.26190567
H 2.5441964 0.30347413 0.74177885
H 2.9109678 -0.9541473 1.9366152
H -0.49860114 -2.9818487 -1.3976283
H -0.23110546 -3.0050583 0.3537922
H -1.8722084 -2.8661828 -0.30790395
