title
 OpenBabel02282109593D

 19 18  0  0  0  0  0  0  0  0999 V2000
    1.1965    2.9076   -0.0495 C   0  0  0  0  0  0  0  0  0  0  0  0
    1.3384    1.3971   -0.0422 C   0  0  0  0  0  0  0  0  0  0  0  0
    0.0170    0.8372   -0.0760 O   0  0  0  0  0  0  0  0  0  0  0  0
   -0.0884   -0.5145   -0.0662 C   0  0  0  0  0  0  0  0  0  0  0  0
   -1.5623   -0.8973   -0.1323 C   0  0  0  0  0  0  0  0  0  0  0  0
   -2.4170    0.0549    0.4557 O   0  0  0  0  0  0  0  0  0  0  0  0
    0.9435   -1.2432   -0.0556 N   0  0  0  0  0  0  0  0  0  0  0  0
    0.8537   -2.6883   -0.0685 C   0  0  0  0  0  0  0  0  0  0  0  0
    2.1864    3.3729   -0.0288 H   0  0  0  0  0  0  0  0  0  0  0  0
    0.6762    3.2481   -0.9495 H   0  0  0  0  0  0  0  0  0  0  0  0
    0.6367    3.2536    0.8243 H   0  0  0  0  0  0  0  0  0  0  0  0
    1.9011    1.0310   -0.9070 H   0  0  0  0  0  0  0  0  0  0  0  0
    1.8539    1.0353    0.8533 H   0  0  0  0  0  0  0  0  0  0  0  0
   -1.8119   -1.0675   -1.1947 H   0  0  0  0  0  0  0  0  0  0  0  0
   -1.7223   -1.8463    0.3862 H   0  0  0  0  0  0  0  0  0  0  0  0
   -2.0264    0.9178    0.2762 H   0  0  0  0  0  0  0  0  0  0  0  0
    1.6108   -3.0979    0.6083 H   0  0  0  0  0  0  0  0  0  0  0  0
   -0.1206   -3.1036    0.2237 H   0  0  0  0  0  0  0  0  0  0  0  0
    1.0888   -3.0661   -1.0716 H   0  0  0  0  0  0  0  0  0  0  0  0
  1  2  1  0  0  0  0
  1  9  1  0  0  0  0
  1 11  1  0  0  0  0
  2 13  1  0  0  0  0
  3  4  1  0  0  0  0
  3  2  1  0  0  0  0
  4  7  2  0  0  0  0
  5  4  1  0  0  0  0
  5 15  1  0  0  0  0
  5  6  1  0  0  0  0
  8  7  1  0  0  0  0
  8 18  1  0  0  0  0
  8 17  1  0  0  0  0
 10  1  1  0  0  0  0
 12  2  1  0  0  0  0
 14  5  1  0  0  0  0
 16  6  1  0  0  0  0
 19  8  1  0  0  0  0
M  END
