title
 OpenBabel02282109593D

 19 18  0  0  1  0  0  0  0  0999 V2000
   -0.6676    2.5343    1.7018 C   0  0  0  0  0  0  0  0  0  0  0  0
   -0.5795    1.0097    1.6193 C   0  0  0  0  0  0  0  0  0  0  0  0
    0.1264    0.4901    0.3447 C   0  0  1  0  0  0  0  0  0  0  0  0
    0.2864   -1.0441    0.3601 C   0  0  0  0  0  0  0  0  0  0  0  0
    1.0606   -1.5971   -0.8309 C   0  0  0  0  0  0  0  0  0  0  0  0
    1.1896   -2.9953   -0.6325 O   0  0  0  0  0  0  0  0  0  0  0  0
   -0.5923    0.9295   -0.8583 C   0  0  0  0  0  0  0  0  0  0  0  0
   -1.1690    1.2702   -1.8009 N   0  0  0  0  0  0  0  0  0  0  0  0
    0.3282    2.9910    1.6909 H   0  0  0  0  0  0  0  0  0  0  0  0
   -1.2345    2.9461    0.8615 H   0  0  0  0  0  0  0  0  0  0  0  0
   -1.1648    2.8423    2.6260 H   0  0  0  0  0  0  0  0  0  0  0  0
   -0.0232    0.6183    2.4786 H   0  0  0  0  0  0  0  0  0  0  0  0
   -1.5822    0.5702    1.6678 H   0  0  0  0  0  0  0  0  0  0  0  0
    1.1256    0.9457    0.2975 H   0  0  0  0  0  0  0  0  0  0  0  0
    0.8121   -1.3240    1.2792 H   0  0  0  0  0  0  0  0  0  0  0  0
   -0.6997   -1.5193    0.3959 H   0  0  0  0  0  0  0  0  0  0  0  0
    0.5246   -1.3695   -1.7640 H   0  0  0  0  0  0  0  0  0  0  0  0
    2.0479   -1.1086   -0.8917 H   0  0  0  0  0  0  0  0  0  0  0  0
    1.5893   -3.3758   -1.4199 H   0  0  0  0  0  0  0  0  0  0  0  0
  1 11  1  0  0  0  0
  2 13  1  0  0  0  0
  2  1  1  0  0  0  0
  2 12  1  0  0  0  0
  3 14  1  6  0  0  0
  3  4  1  0  0  0  0
  3  2  1  0  0  0  0
  4 16  1  0  0  0  0
  4 15  1  0  0  0  0
  5  6  1  0  0  0  0
  5  4  1  0  0  0  0
  7  3  1  0  0  0  0
  8  7  3  0  0  0  0
  9  1  1  0  0  0  0
 10  1  1  0  0  0  0
 17  5  1  0  0  0  0
 18  5  1  0  0  0  0
 19  6  1  0  0  0  0
M  END
