title
 OpenBabel02282109593D

 19 18  0  0  1  0  0  0  0  0999 V2000
   -0.6344    2.5134    1.6528 C   0  0  0  0  0  0  0  0  0  0  0  0
   -0.5748    0.9855    1.6045 C   0  0  0  0  0  0  0  0  0  0  0  0
    0.1400    0.4328    0.3507 C   0  0  1  0  0  0  0  0  0  0  0  0
    0.2643   -1.0970    0.3932 C   0  0  0  0  0  0  0  0  0  0  0  0
    1.0545   -1.5068   -0.6922 O   0  0  0  0  0  0  0  0  0  0  0  0
    1.1572   -2.9081   -0.8059 C   0  0  0  0  0  0  0  0  0  0  0  0
   -0.5480    0.8536   -0.8751 C   0  0  0  0  0  0  0  0  0  0  0  0
   -1.1193    1.2007   -1.8179 N   0  0  0  0  0  0  0  0  0  0  0  0
    0.3705    2.9492    1.6500 H   0  0  0  0  0  0  0  0  0  0  0  0
   -1.1775    2.9158    0.7928 H   0  0  0  0  0  0  0  0  0  0  0  0
   -1.1422    2.8503    2.5609 H   0  0  0  0  0  0  0  0  0  0  0  0
   -0.0403    0.6043    2.4822 H   0  0  0  0  0  0  0  0  0  0  0  0
   -1.5881    0.5695    1.6464 H   0  0  0  0  0  0  0  0  0  0  0  0
    1.1581    0.8404    0.3089 H   0  0  0  0  0  0  0  0  0  0  0  0
    0.7256   -1.3892    1.3516 H   0  0  0  0  0  0  0  0  0  0  0  0
   -0.7365   -1.5574    0.3524 H   0  0  0  0  0  0  0  0  0  0  0  0
    1.6271   -3.3561    0.0837 H   0  0  0  0  0  0  0  0  0  0  0  0
    0.1717   -3.3768   -0.9497 H   0  0  0  0  0  0  0  0  0  0  0  0
    1.7797   -3.1171   -1.6784 H   0  0  0  0  0  0  0  0  0  0  0  0
  1 11  1  0  0  0  0
  2 13  1  0  0  0  0
  2  1  1  0  0  0  0
  2 12  1  0  0  0  0
  3 14  1  6  0  0  0
  3  4  1  0  0  0  0
  3  2  1  0  0  0  0
  4 15  1  0  0  0  0
  5  4  1  0  0  0  0
  6  5  1  0  0  0  0
  6 17  1  0  0  0  0
  7  3  1  0  0  0  0
  8  7  3  0  0  0  0
  9  1  1  0  0  0  0
 10  1  1  0  0  0  0
 16  4  1  0  0  0  0
 18  6  1  0  0  0  0
 19  6  1  0  0  0  0
M  END
