22
title
C -0.34515 3.2243469 1.3387625
C -0.41379017 1.6942852 1.3171189
C 0.21383381 1.0991688 0.05126965
C 0.2684149 -0.4493257 0.022295475
C -1.1330445 -1.1010493 -0.06441605
C -1.10846 -2.628722 0.016940117
C 1.1210968 -0.8972646 -1.0793008
C 1.81083 -1.2413944 -2.0027235
H 0.6918904 3.574821 1.2926308
H -0.877057 3.6564932 0.48393023
H -0.79461247 3.6304662 2.2502189
H 0.10231376 1.2922308 2.1994286
H -1.4603477 1.3808372 1.4065458
H -0.32831782 1.449263 -0.83666885
H 1.2376356 1.4778302 -0.04932058
H 0.733525 -0.78331006 0.96254134
H -1.7503105 -0.7046915 0.748698
H -1.604606 -0.78403795 -1.002627
H -2.1206312 -3.0392344 -0.04993534
H -0.51317775 -3.056877 -0.7944952
H -0.67424655 -2.9670227 0.9646043
H 2.428056 -1.5525943 -2.8086443
