title
 OpenBabel02282109593D

 21 20  0  0  1  0  0  0  0  0999 V2000
    1.2060    3.2444    0.3600 C   0  0  0  0  0  0  0  0  0  0  0  0
    1.2307    1.7139    0.3291 C   0  0  0  0  0  0  0  0  0  0  0  0
   -0.1734    1.1019    0.3554 C   0  0  0  0  0  0  0  0  0  0  0  0
   -0.1940   -0.4434    0.3440 C   0  0  1  0  0  0  0  0  0  0  0  0
   -1.6248   -1.0108    0.4957 C   0  0  0  0  0  0  0  0  0  0  0  0
   -1.6820   -2.5363    0.5937 C   0  0  0  0  0  0  0  0  0  0  0  0
    0.4378   -0.9608   -0.8760 C   0  0  0  0  0  0  0  0  0  0  0  0
    0.9212   -1.3622   -1.8468 N   0  0  0  0  0  0  0  0  0  0  0  0
    2.2193    3.6565    0.3439 H   0  0  0  0  0  0  0  0  0  0  0  0
    0.6687    3.6488   -0.5049 H   0  0  0  0  0  0  0  0  0  0  0  0
    0.7086    3.6169    1.2625 H   0  0  0  0  0  0  0  0  0  0  0  0
    1.7594    1.3714   -0.5682 H   0  0  0  0  0  0  0  0  0  0  0  0
    1.8047    1.3376    1.1863 H   0  0  0  0  0  0  0  0  0  0  0  0
   -0.7021    1.4287    1.2595 H   0  0  0  0  0  0  0  0  0  0  0  0
   -0.7564    1.4702   -0.4979 H   0  0  0  0  0  0  0  0  0  0  0  0
    0.4100   -0.8035    1.1889 H   0  0  0  0  0  0  0  0  0  0  0  0
   -2.0571   -0.5609    1.3969 H   0  0  0  0  0  0  0  0  0  0  0  0
   -2.2308   -0.6644   -0.3495 H   0  0  0  0  0  0  0  0  0  0  0  0
   -2.7146   -2.8776    0.7103 H   0  0  0  0  0  0  0  0  0  0  0  0
   -1.2709   -3.0078   -0.3040 H   0  0  0  0  0  0  0  0  0  0  0  0
   -1.1112   -2.9002    1.4551 H   0  0  0  0  0  0  0  0  0  0  0  0
  1 11  1  0  0  0  0
  2  3  1  0  0  0  0
  2  1  1  0  0  0  0
  2 13  1  0  0  0  0
  3 14  1  0  0  0  0
  4  3  1  0  0  0  0
  4  5  1  0  0  0  0
  4 16  1  1  0  0  0
  5  6  1  0  0  0  0
  5 17  1  0  0  0  0
  6 19  1  0  0  0  0
  6 21  1  0  0  0  0
  7  4  1  0  0  0  0
  8  7  3  0  0  0  0
  9  1  1  0  0  0  0
 10  1  1  0  0  0  0
 12  2  1  0  0  0  0
 15  3  1  0  0  0  0
 18  5  1  0  0  0  0
 20  6  1  0  0  0  0
M  END
