19
title
C -0.9809552 3.2192373 1.0358058
C -0.9534021 1.6891754 0.9984969
C -0.2549683 1.1434029 -0.25143346
C -0.22104926 -0.39675376 -0.33033738
C 0.3843186 -0.9012429 -1.663872
O 0.3738246 -2.3044057 -1.7763433
C 0.5380627 -0.98244804 0.77910227
N 1.1721432 -1.4676719 1.6160052
H 0.033100653 3.6336234 1.0342555
H -1.5081018 3.6293657 0.1672527
H -1.4870622 3.582829 1.9348351
H -0.44648147 1.3069808 1.8925526
H -1.97923 1.3001953 1.0372187
H -0.7683792 1.5075445 -1.1501946
H 0.77162135 1.5270498 -0.3005694
H -1.2438614 -0.7889387 -0.26532814
H -0.23183973 -0.5197963 -2.4837232
H 1.3956056 -0.48308346 -1.7803929
H 0.97381616 -2.664092 -1.1127512
