title
 OpenBabel02282109593D

 19 18  0  0  1  0  0  0  0  0999 V2000
   -0.9810    3.2192    1.0358 C   0  0  0  0  0  0  0  0  0  0  0  0
   -0.9534    1.6892    0.9985 C   0  0  0  0  0  0  0  0  0  0  0  0
   -0.2550    1.1434   -0.2514 C   0  0  0  0  0  0  0  0  0  0  0  0
   -0.2210   -0.3968   -0.3303 C   0  0  1  0  0  0  0  0  0  0  0  0
    0.3843   -0.9012   -1.6639 C   0  0  0  0  0  0  0  0  0  0  0  0
    0.3738   -2.3044   -1.7763 O   0  0  0  0  0  0  0  0  0  0  0  0
    0.5381   -0.9824    0.7791 C   0  0  0  0  0  0  0  0  0  0  0  0
    1.1721   -1.4677    1.6160 N   0  0  0  0  0  0  0  0  0  0  0  0
    0.0331    3.6336    1.0343 H   0  0  0  0  0  0  0  0  0  0  0  0
   -1.5081    3.6294    0.1673 H   0  0  0  0  0  0  0  0  0  0  0  0
   -1.4871    3.5828    1.9348 H   0  0  0  0  0  0  0  0  0  0  0  0
   -0.4465    1.3070    1.8926 H   0  0  0  0  0  0  0  0  0  0  0  0
   -1.9792    1.3002    1.0372 H   0  0  0  0  0  0  0  0  0  0  0  0
   -0.7684    1.5075   -1.1502 H   0  0  0  0  0  0  0  0  0  0  0  0
    0.7716    1.5270   -0.3006 H   0  0  0  0  0  0  0  0  0  0  0  0
   -1.2439   -0.7889   -0.2653 H   0  0  0  0  0  0  0  0  0  0  0  0
   -0.2318   -0.5198   -2.4837 H   0  0  0  0  0  0  0  0  0  0  0  0
    1.3956   -0.4831   -1.7804 H   0  0  0  0  0  0  0  0  0  0  0  0
    0.9738   -2.6641   -1.1128 H   0  0  0  0  0  0  0  0  0  0  0  0
  1 11  1  0  0  0  0
  2  1  1  0  0  0  0
  2 13  1  0  0  0  0
  2 12  1  0  0  0  0
  3  2  1  0  0  0  0
  4 16  1  1  0  0  0
  4  3  1  0  0  0  0
  4  7  1  0  0  0  0
  5  4  1  0  0  0  0
  6  5  1  0  0  0  0
  6 19  1  0  0  0  0
  7  8  3  0  0  0  0
  9  1  1  0  0  0  0
 10  1  1  0  0  0  0
 14  3  1  0  0  0  0
 15  3  1  0  0  0  0
 17  5  1  0  0  0  0
 18  5  1  0  0  0  0
M  END
