20
title
C -0.32806578 3.2736766 1.1675382
C -0.40136173 1.7445922 1.2226444
C 0.21754435 1.0901501 -0.018582992
C 0.26444355 -0.45111445 0.046418972
N -1.0736073 -1.0315278 -0.017994337
C -1.1158344 -2.4677682 0.24085684
C 1.0728488 -0.9677425 -1.0746552
N 1.7266264 -1.363976 -1.9410051
H 0.71014255 3.6167989 1.104147
H -0.85971606 3.6632662 0.29291666
H -0.77562594 3.7236269 2.0585668
H 0.1166614 1.3827589 2.1206856
H -1.4520416 1.4464803 1.3303843
H -0.33548486 1.3785752 -0.91918224
H 1.2432246 1.4544843 -0.14209335
H 0.8060942 -0.74055964 0.9693808
H -1.6609225 -0.5475758 0.65055305
H -0.5899494 -2.9993057 -0.5581017
H -0.6592402 -2.764039 1.2015935
H -2.156775 -2.8011594 0.23602821
