title
 OpenBabel02282109593D

 20 19  0  0  1  0  0  0  0  0999 V2000
   -0.4549    3.4139   -0.0655 C   0  0  0  0  0  0  0  0  0  0  0  0
   -0.4731    1.9965    0.5124 C   0  0  0  0  0  0  0  0  0  0  0  0
    0.3423    1.0082   -0.3269 C   0  0  0  0  0  0  0  0  0  0  0  0
    0.3097   -0.4224    0.2295 C   0  0  1  0  0  0  0  0  0  0  0  0
   -1.0391   -0.8633    0.1906 O   0  0  0  0  0  0  0  0  0  0  0  0
   -1.2680   -2.0800    0.8695 C   0  0  0  0  0  0  0  0  0  0  0  0
    1.2013   -1.3151   -0.5257 C   0  0  0  0  0  0  0  0  0  0  0  0
    1.9275   -2.0393   -1.1532 C   0  0  0  0  0  0  0  0  0  0  0  0
    0.5658    3.8087   -0.1233 H   0  0  0  0  0  0  0  0  0  0  0  0
   -0.8735    3.4335   -1.0779 H   0  0  0  0  0  0  0  0  0  0  0  0
   -1.0430    4.1012    0.5505 H   0  0  0  0  0  0  0  0  0  0  0  0
   -0.0777    2.0124    1.5371 H   0  0  0  0  0  0  0  0  0  0  0  0
   -1.5030    1.6331    0.5845 H   0  0  0  0  0  0  0  0  0  0  0  0
   -0.0371    0.9779   -1.3549 H   0  0  0  0  0  0  0  0  0  0  0  0
    1.3892    1.3277   -0.3833 H   0  0  0  0  0  0  0  0  0  0  0  0
    0.6535   -0.4030    1.2796 H   0  0  0  0  0  0  0  0  0  0  0  0
   -0.7000   -2.9082    0.4248 H   0  0  0  0  0  0  0  0  0  0  0  0
   -0.9994   -2.0044    1.9349 H   0  0  0  0  0  0  0  0  0  0  0  0
   -2.3362   -2.2933    0.7879 H   0  0  0  0  0  0  0  0  0  0  0  0
    2.5709   -2.6794   -1.7049 H   0  0  0  0  0  0  0  0  0  0  0  0
  1  2  1  0  0  0  0
  1 11  1  0  0  0  0
  2 13  1  0  0  0  0
  2 12  1  0  0  0  0
  3  4  1  0  0  0  0
  3  2  1  0  0  0  0
  4 16  1  1  0  0  0
  5  4  1  0  0  0  0
  5  6  1  0  0  0  0
  6 18  1  0  0  0  0
  7  4  1  0  0  0  0
  8  7  3  0  0  0  0
  9  1  1  0  0  0  0
 10  1  1  0  0  0  0
 14  3  1  0  0  0  0
 15  3  1  0  0  0  0
 17  6  1  0  0  0  0
 19  6  1  0  0  0  0
 20  8  1  0  0  0  0
M  END
