title
 OpenBabel02282109593D

 20 19  0  0  1  0  0  0  0  0999 V2000
   -0.7227    2.8235    1.2155 C   0  0  0  0  0  0  0  0  0  0  0  0
   -0.6049    1.3033    1.2444 C   0  0  0  0  0  0  0  0  0  0  0  0
   -0.1792    0.7942   -0.0605 N   0  0  0  0  0  0  0  0  0  0  0  0
   -0.0872   -0.6599   -0.1427 C   0  0  1  0  0  0  0  0  0  0  0  0
    0.1404   -1.1320   -1.5951 C   0  0  0  0  0  0  0  0  0  0  0  0
   -1.0580   -0.8786   -2.5143 C   0  0  0  0  0  0  0  0  0  0  0  0
    1.0263   -1.1278    0.7049 C   0  0  0  0  0  0  0  0  0  0  0  0
    1.8900   -1.5185    1.3656 N   0  0  0  0  0  0  0  0  0  0  0  0
    0.2296    3.2780    0.9290 H   0  0  0  0  0  0  0  0  0  0  0  0
   -1.4842    3.1489    0.4969 H   0  0  0  0  0  0  0  0  0  0  0  0
   -1.0112    3.2062    2.1985 H   0  0  0  0  0  0  0  0  0  0  0  0
    0.1481    1.0035    1.9821 H   0  0  0  0  0  0  0  0  0  0  0  0
   -1.5619    0.8576    1.5743 H   0  0  0  0  0  0  0  0  0  0  0  0
   -0.8299    1.1122   -0.7708 H   0  0  0  0  0  0  0  0  0  0  0  0
   -0.9959   -1.1637    0.2433 H   0  0  0  0  0  0  0  0  0  0  0  0
    1.0340   -0.6306   -1.9805 H   0  0  0  0  0  0  0  0  0  0  0  0
    0.3591   -2.2040   -1.5688 H   0  0  0  0  0  0  0  0  0  0  0  0
   -1.9706   -1.3349   -2.1151 H   0  0  0  0  0  0  0  0  0  0  0  0
   -1.2515    0.1882   -2.6671 H   0  0  0  0  0  0  0  0  0  0  0  0
   -0.8750   -1.3117   -3.5017 H   0  0  0  0  0  0  0  0  0  0  0  0
  1  2  1  0  0  0  0
  1 11  1  0  0  0  0
  2 13  1  0  0  0  0
  2 12  1  0  0  0  0
  3  2  1  0  0  0  0
  4  3  1  0  0  0  0
  4 15  1  1  0  0  0
  4  7  1  0  0  0  0
  5 17  1  0  0  0  0
  5  4  1  0  0  0  0
  6 18  1  0  0  0  0
  6  5  1  0  0  0  0
  7  8  3  0  0  0  0
  9  1  1  0  0  0  0
 10  1  1  0  0  0  0
 14  3  1  0  0  0  0
 16  5  1  0  0  0  0
 19  6  1  0  0  0  0
 20  6  1  0  0  0  0
M  END
