title
 OpenBabel02282109593D

 18 17  0  0  1  0  0  0  0  0999 V2000
    1.3980    2.9020    0.5500 C   0  0  0  0  0  0  0  0  0  0  0  0
    1.2956    1.4098    0.8498 C   0  0  0  0  0  0  0  0  0  0  0  0
    0.5029    0.7396   -0.1816 N   0  0  0  0  0  0  0  0  0  0  0  0
    0.3194   -0.6913    0.0256 C   0  0  1  0  0  0  0  0  0  0  0  0
   -0.7730   -1.0527    1.0665 C   0  0  0  0  0  0  0  0  0  0  0  0
   -2.0200   -0.4914    0.7104 O   0  0  0  0  0  0  0  0  0  0  0  0
   -0.0484   -1.3295   -1.2539 C   0  0  0  0  0  0  0  0  0  0  0  0
   -0.4086   -1.8445   -2.2239 N   0  0  0  0  0  0  0  0  0  0  0  0
    2.0250    3.4025    1.2934 H   0  0  0  0  0  0  0  0  0  0  0  0
    1.8278    3.0661   -0.4419 H   0  0  0  0  0  0  0  0  0  0  0  0
    0.4104    3.3761    0.5748 H   0  0  0  0  0  0  0  0  0  0  0  0
    2.2972    0.9611    0.8415 H   0  0  0  0  0  0  0  0  0  0  0  0
    0.8968    1.2692    1.8702 H   0  0  0  0  0  0  0  0  0  0  0  0
   -0.4182    1.1651   -0.2484 H   0  0  0  0  0  0  0  0  0  0  0  0
    1.2749   -1.1222    0.3507 H   0  0  0  0  0  0  0  0  0  0  0  0
   -0.8276   -2.1433    1.1924 H   0  0  0  0  0  0  0  0  0  0  0  0
   -0.4994   -0.6125    2.0296 H   0  0  0  0  0  0  0  0  0  0  0  0
   -2.3503   -0.9645   -0.0628 H   0  0  0  0  0  0  0  0  0  0  0  0
  1 11  1  0  0  0  0
  1  2  1  0  0  0  0
  1  9  1  0  0  0  0
  2 13  1  0  0  0  0
  3  4  1  0  0  0  0
  3  2  1  0  0  0  0
  4 15  1  1  0  0  0
  4  5  1  0  0  0  0
  5 16  1  0  0  0  0
  5 17  1  0  0  0  0
  6  5  1  0  0  0  0
  7  4  1  0  0  0  0
  8  7  3  0  0  0  0
 10  1  1  0  0  0  0
 12  2  1  0  0  0  0
 14  3  1  0  0  0  0
 18  6  1  0  0  0  0
M  END
