19
title
C -0.74173725 2.6963756 1.1996746
C -0.55840546 1.1917076 1.277423
O -0.23453782 0.7175034 -0.026291238
C -0.059470642 -0.6753908 -0.11955939
C 0.014687192 -1.057807 -1.6044185
C -1.2844173 -0.7397627 -2.3465185
C 1.164049 -1.1103165 0.5975351
N 2.1177142 -1.4431956 1.1590374
H 0.17917503 3.1775362 0.85935444
H -1.5434142 2.952676 0.5013467
H -0.99810916 3.095473 2.1852806
H 0.24524136 0.93220705 1.9817952
H -1.4797252 0.7006508 1.6299348
H -0.90960526 -1.2002289 0.34970123
H 0.85582453 -0.5158364 -2.0489497
H 0.24884792 -2.1254885 -1.6706896
H -2.125835 -1.3078492 -1.9344528
H -1.5227858 0.32337368 -2.2702792
H -1.1944542 -0.9983111 -3.4051468
