title
 OpenBabel02282109593D

 19 18  0  0  1  0  0  0  0  0999 V2000
   -0.7417    2.6964    1.1997 C   0  0  0  0  0  0  0  0  0  0  0  0
   -0.5584    1.1917    1.2774 C   0  0  0  0  0  0  0  0  0  0  0  0
   -0.2345    0.7175   -0.0263 O   0  0  0  0  0  0  0  0  0  0  0  0
   -0.0595   -0.6754   -0.1196 C   0  0  1  0  0  0  0  0  0  0  0  0
    0.0147   -1.0578   -1.6044 C   0  0  0  0  0  0  0  0  0  0  0  0
   -1.2844   -0.7398   -2.3465 C   0  0  0  0  0  0  0  0  0  0  0  0
    1.1640   -1.1103    0.5975 C   0  0  0  0  0  0  0  0  0  0  0  0
    2.1177   -1.4432    1.1590 N   0  0  0  0  0  0  0  0  0  0  0  0
    0.1792    3.1775    0.8594 H   0  0  0  0  0  0  0  0  0  0  0  0
   -1.5434    2.9527    0.5013 H   0  0  0  0  0  0  0  0  0  0  0  0
   -0.9981    3.0955    2.1853 H   0  0  0  0  0  0  0  0  0  0  0  0
    0.2452    0.9322    1.9818 H   0  0  0  0  0  0  0  0  0  0  0  0
   -1.4797    0.7007    1.6299 H   0  0  0  0  0  0  0  0  0  0  0  0
   -0.9096   -1.2002    0.3497 H   0  0  0  0  0  0  0  0  0  0  0  0
    0.8558   -0.5158   -2.0489 H   0  0  0  0  0  0  0  0  0  0  0  0
    0.2488   -2.1255   -1.6707 H   0  0  0  0  0  0  0  0  0  0  0  0
   -2.1258   -1.3078   -1.9345 H   0  0  0  0  0  0  0  0  0  0  0  0
   -1.5228    0.3234   -2.2703 H   0  0  0  0  0  0  0  0  0  0  0  0
   -1.1945   -0.9983   -3.4051 H   0  0  0  0  0  0  0  0  0  0  0  0
  1  2  1  0  0  0  0
  1 11  1  0  0  0  0
  2 13  1  0  0  0  0
  2 12  1  0  0  0  0
  3  2  1  0  0  0  0
  4  3  1  0  0  0  0
  4 14  1  1  0  0  0
  4  7  1  0  0  0  0
  5  4  1  0  0  0  0
  6 18  1  0  0  0  0
  6 17  1  0  0  0  0
  6  5  1  0  0  0  0
  7  8  3  0  0  0  0
  9  1  1  0  0  0  0
 10  1  1  0  0  0  0
 15  5  1  0  0  0  0
 16  5  1  0  0  0  0
 19  6  1  0  0  0  0
M  END
