title
 OpenBabel02282109593D

 18 17  0  0  1  0  0  0  0  0999 V2000
   -0.7486    2.6903    1.2167 C   0  0  0  0  0  0  0  0  0  0  0  0
   -0.5890    1.1824    1.2807 C   0  0  0  0  0  0  0  0  0  0  0  0
   -0.2080    0.7211   -0.0130 O   0  0  0  0  0  0  0  0  0  0  0  0
   -0.0560   -0.6758   -0.1175 C   0  0  1  0  0  0  0  0  0  0  0  0
    0.0405   -1.0173   -1.6081 C   0  0  0  0  0  0  0  0  0  0  0  0
   -1.2255   -0.6704   -2.2442 N   0  0  0  0  0  0  0  0  0  0  0  0
    1.1436   -1.1442    0.6139 C   0  0  0  0  0  0  0  0  0  0  0  0
    2.0793   -1.5047    1.1882 N   0  0  0  0  0  0  0  0  0  0  0  0
    0.1925    3.1640    0.9245 H   0  0  0  0  0  0  0  0  0  0  0  0
   -1.5162    2.9677    0.4886 H   0  0  0  0  0  0  0  0  0  0  0  0
   -1.0430    3.0787    2.1959 H   0  0  0  0  0  0  0  0  0  0  0  0
    0.1779    0.9021    2.0173 H   0  0  0  0  0  0  0  0  0  0  0  0
   -1.5317    0.6986    1.5806 H   0  0  0  0  0  0  0  0  0  0  0  0
   -0.9340   -1.1919    0.3014 H   0  0  0  0  0  0  0  0  0  0  0  0
    0.9262   -0.5026   -2.0138 H   0  0  0  0  0  0  0  0  0  0  0  0
    0.2102   -2.0944   -1.7060 H   0  0  0  0  0  0  0  0  0  0  0  0
   -1.3525    0.3355   -2.1919 H   0  0  0  0  0  0  0  0  0  0  0  0
   -1.1973   -0.9155   -3.2282 H   0  0  0  0  0  0  0  0  0  0  0  0
  1  2  1  0  0  0  0
  1 11  1  0  0  0  0
  2 13  1  0  0  0  0
  2 12  1  0  0  0  0
  3  2  1  0  0  0  0
  4  3  1  0  0  0  0
  4 14  1  1  0  0  0
  4  7  1  0  0  0  0
  5  4  1  0  0  0  0
  6 17  1  0  0  0  0
  6  5  1  0  0  0  0
  7  8  3  0  0  0  0
  9  1  1  0  0  0  0
 10  1  1  0  0  0  0
 15  5  1  0  0  0  0
 16  5  1  0  0  0  0
 18  6  1  0  0  0  0
M  END
