title
 OpenBabel02282109593D

 17 16  0  0  1  0  0  0  0  0999 V2000
   -0.4918    2.7275   -1.3500 C   0  0  0  0  0  0  0  0  0  0  0  0
   -0.6656    1.2203   -1.3235 C   0  0  0  0  0  0  0  0  0  0  0  0
    0.3169    0.6764   -0.4426 O   0  0  0  0  0  0  0  0  0  0  0  0
    0.3050   -0.7276   -0.3172 C   0  0  1  0  0  0  0  0  0  0  0  0
    1.5236   -1.0833    0.5481 C   0  0  0  0  0  0  0  0  0  0  0  0
    1.4684   -0.4523    1.8013 O   0  0  0  0  0  0  0  0  0  0  0  0
   -0.9544   -1.2086    0.2954 C   0  0  0  0  0  0  0  0  0  0  0  0
   -1.9501   -1.5827    0.7464 N   0  0  0  0  0  0  0  0  0  0  0  0
    0.5084    2.9970   -1.7007 H   0  0  0  0  0  0  0  0  0  0  0  0
   -1.2283    3.1773   -2.0219 H   0  0  0  0  0  0  0  0  0  0  0  0
   -0.6338    3.1485   -0.3508 H   0  0  0  0  0  0  0  0  0  0  0  0
   -1.6709    0.9467   -0.9746 H   0  0  0  0  0  0  0  0  0  0  0  0
   -0.5315    0.7900   -2.3281 H   0  0  0  0  0  0  0  0  0  0  0  0
    0.4013   -1.2126   -1.3025 H   0  0  0  0  0  0  0  0  0  0  0  0
    1.5526   -2.1625    0.7223 H   0  0  0  0  0  0  0  0  0  0  0  0
    2.4186   -0.7972   -0.0254 H   0  0  0  0  0  0  0  0  0  0  0  0
    1.3192    0.4854    1.6306 H   0  0  0  0  0  0  0  0  0  0  0  0
  1  2  1  0  0  0  0
  1 11  1  0  0  0  0
  2 12  1  0  0  0  0
  2  3  1  0  0  0  0
  3  4  1  0  0  0  0
  4 14  1  6  0  0  0
  4  7  1  0  0  0  0
  4  5  1  0  0  0  0
  5 15  1  0  0  0  0
  5  6  1  0  0  0  0
  7  8  3  0  0  0  0
  9  1  1  0  0  0  0
 10  1  1  0  0  0  0
 13  2  1  0  0  0  0
 16  5  1  0  0  0  0
 17  6  1  0  0  0  0
M  END
