18
title
C 1.1307341 2.2571344 -0.2842155
N 0.9110464 1.1570284 0.64353186
C -0.32601342 0.40066123 0.48860648
C -0.22567055 -0.90840787 -0.33219486
C 0.14670464 -0.6993374 -1.8024192
O 0.24237469 -1.924008 -2.5054593
C -0.8778848 0.07927775 1.8237494
N -1.3088421 -0.1968071 2.8596826
H 2.0837982 2.7349832 -0.041396946
H 1.152586 1.9805018 -1.3511974
H 0.34627596 3.009636 -0.14963737
H 1.7103066 0.5386349 0.700326
H -1.0552472 1.0626836 0.0034201136
H 0.5109252 -1.5715996 0.13620426
H -1.1917437 -1.427087 -0.2745927
H -0.57230836 -0.012602756 -2.279184
H 1.1354553 -0.23856695 -1.8849673
H -0.6265909 -2.3384647 -2.5036433
