title
 OpenBabel02282109593D

 18 17  0  0  1  0  0  0  0  0999 V2000
    0.1202    2.3514    1.4389 C   0  0  0  0  0  0  0  0  0  0  0  0
   -0.5737    1.3872    0.5907 N   0  0  0  0  0  0  0  0  0  0  0  0
    0.2791    0.7206   -0.3872 C   0  0  1  0  0  0  0  0  0  0  0  0
    1.1814   -0.3907    0.2144 C   0  0  0  0  0  0  0  0  0  0  0  0
    0.4324   -1.2868    1.0042 O   0  0  0  0  0  0  0  0  0  0  0  0
    0.0918   -2.5137    0.3740 C   0  0  0  0  0  0  0  0  0  0  0  0
   -0.5584    0.1796   -1.4749 C   0  0  0  0  0  0  0  0  0  0  0  0
   -1.1948   -0.2639   -2.3315 N   0  0  0  0  0  0  0  0  0  0  0  0
    0.9636    1.9452    2.0214 H   0  0  0  0  0  0  0  0  0  0  0  0
    0.5013    3.1713    0.8201 H   0  0  0  0  0  0  0  0  0  0  0  0
   -0.5985    2.7767    2.1442 H   0  0  0  0  0  0  0  0  0  0  0  0
   -1.0099    0.6671    1.1589 H   0  0  0  0  0  0  0  0  0  0  0  0
    0.9355    1.4755   -0.8402 H   0  0  0  0  0  0  0  0  0  0  0  0
    1.7349   -0.9093   -0.5800 H   0  0  0  0  0  0  0  0  0  0  0  0
    1.9106    0.0915    0.8754 H   0  0  0  0  0  0  0  0  0  0  0  0
   -0.5517   -2.3689   -0.5011 H   0  0  0  0  0  0  0  0  0  0  0  0
    0.9934   -3.0623    0.0661 H   0  0  0  0  0  0  0  0  0  0  0  0
   -0.4448   -3.1072    1.1177 H   0  0  0  0  0  0  0  0  0  0  0  0
  1  9  1  0  0  0  0
  1 11  1  0  0  0  0
  2 12  1  0  0  0  0
  2  1  1  0  0  0  0
  3 13  1  6  0  0  0
  3  4  1  0  0  0  0
  3  2  1  0  0  0  0
  4 15  1  0  0  0  0
  4  5  1  0  0  0  0
  6  5  1  0  0  0  0
  6 18  1  0  0  0  0
  7  3  1  0  0  0  0
  8  7  3  0  0  0  0
 10  1  1  0  0  0  0
 14  4  1  0  0  0  0
 16  6  1  0  0  0  0
 17  6  1  0  0  0  0
M  END
