19
title
C -0.45714253 3.0761516 1.0861236
N -0.18141732 1.6443928 1.1556174
C 0.35348836 1.0927166 -0.08201971
C 0.34572986 -0.44760713 -0.0013623489
N -1.0197419 -0.91838133 0.16277054
C -1.1314092 -2.3129451 0.56861585
C 0.94969857 -1.0176567 -1.2186278
N 1.4424021 -1.4599785 -2.1653965
H 0.41352418 3.6885173 0.7961662
H -1.2509732 3.2578275 0.35413316
H -0.81270856 3.4250984 2.0595567
H 0.4713991 1.4650482 1.9127808
H -0.30417955 1.3930445 -0.9044901
H 1.3700994 1.4420989 -0.32621005
H 1.0063607 -0.74964035 0.8382279
H -1.4485902 -0.3015606 0.84646213
H -0.7591883 -2.962319 -0.23060039
H -0.5724858 -2.5586662 1.489552
H -2.1848214 -2.5553312 0.731299
