title
 OpenBabel02282109593D

 18 17  0  0  1  0  0  0  0  0999 V2000
    0.1195    3.1741    0.9504 C   0  0  0  0  0  0  0  0  0  0  0  0
    0.4403    1.7557    0.8445 N   0  0  0  0  0  0  0  0  0  0  0  0
   -0.5573    0.9982    0.1113 C   0  0  0  0  0  0  0  0  0  0  0  0
   -0.2535   -0.5060    0.1762 C   0  0  1  0  0  0  0  0  0  0  0  0
   -1.2822   -1.1806   -0.5025 O   0  0  0  0  0  0  0  0  0  0  0  0
   -1.2468   -2.5905   -0.3603 C   0  0  0  0  0  0  0  0  0  0  0  0
    1.0733   -0.7963   -0.4221 C   0  0  0  0  0  0  0  0  0  0  0  0
    2.1056   -1.0101   -0.8965 N   0  0  0  0  0  0  0  0  0  0  0  0
   -0.0518    3.6730   -0.0196 H   0  0  0  0  0  0  0  0  0  0  0  0
   -0.7871    3.3003    1.5528 H   0  0  0  0  0  0  0  0  0  0  0  0
    0.9346    3.6929    1.4622 H   0  0  0  0  0  0  0  0  0  0  0  0
    1.3446    1.6483    0.3952 H   0  0  0  0  0  0  0  0  0  0  0  0
   -1.5333    1.1414    0.5873 H   0  0  0  0  0  0  0  0  0  0  0  0
   -0.6678    1.2861   -0.9487 H   0  0  0  0  0  0  0  0  0  0  0  0
   -0.2037   -0.8080    1.2339 H   0  0  0  0  0  0  0  0  0  0  0  0
   -0.3304   -3.0182   -0.7885 H   0  0  0  0  0  0  0  0  0  0  0  0
   -1.3169   -2.8874    0.6964 H   0  0  0  0  0  0  0  0  0  0  0  0
   -2.1108   -2.9813   -0.9005 H   0  0  0  0  0  0  0  0  0  0  0  0
  1 11  1  0  0  0  0
  1 10  1  0  0  0  0
  2  1  1  0  0  0  0
  3  4  1  0  0  0  0
  3 13  1  0  0  0  0
  3  2  1  0  0  0  0
  4 15  1  1  0  0  0
  5  6  1  0  0  0  0
  5  4  1  0  0  0  0
  6 17  1  0  0  0  0
  7  4  1  0  0  0  0
  8  7  3  0  0  0  0
  9  1  1  0  0  0  0
 12  2  1  0  0  0  0
 14  3  1  0  0  0  0
 16  6  1  0  0  0  0
 18  6  1  0  0  0  0
M  END
