18
title
C 0.11945548 3.17411 0.9503721
N 0.44030848 1.7557021 0.8445451
C -0.55729526 0.99818784 0.11133324
C -0.2534724 -0.50597256 0.17620479
O -1.2821599 -1.180627 -0.5025345
C -1.2467883 -2.5905385 -0.3602594
C 1.0733458 -0.7962672 -0.42212892
N 2.1055882 -1.0100707 -0.8965101
H -0.051840104 3.6729598 -0.019597897
H -0.78713804 3.30034 1.5527934
H 0.93455094 3.6928678 1.462208
H 1.3445979 1.648307 0.39517808
H -1.5332932 1.1414131 0.5872735
H -0.6677949 1.2860967 -0.9486809
H -0.20367366 -0.8080203 1.2339251
H -0.3304382 -3.0181575 -0.78850687
H -1.3168865 -2.8874454 0.69643337
H -2.110834 -2.9812593 -0.900537
