18
title
C -1.0730469 2.3129816 0.55797017
O -0.6480978 0.97668946 0.73170143
C -0.124786645 0.3773057 -0.44477922
C 0.4987655 -0.9627304 -0.033576317
C 1.6613771 -0.7977414 0.9488642
O 2.2713468 -2.0387354 1.2690655
C -1.1535065 0.19896322 -1.4791709
C -1.9988306 0.04502827 -2.319967
H -0.24577954 2.9587932 0.22479247
H -1.8904754 2.3881805 -0.17133273
H -1.4260178 2.6625664 1.5306729
H 0.6673893 1.0269637 -0.8593125
H -0.2886769 -1.5802859 0.41519663
H 0.8516977 -1.4823285 -0.929539
H 2.4511108 -0.19016814 0.491597
H 1.3191682 -0.26765668 1.846939
H 1.6360515 -2.5554383 1.7746805
H -2.7430515 -0.09051299 -3.0656428
