18
title
C -0.28833318 3.0357738 1.134541
O -0.29749072 1.6282004 1.0992173
C 0.36771604 1.1031412 -0.027584419
C 0.29460052 -0.43126902 0.034111872
C -1.1603729 -0.9220603 -0.017209038
O -1.1560817 -2.3141212 0.24346651
C 1.1051313 -1.0088443 -1.0343996
C 1.7738153 -1.4386944 -1.9357153
H 0.737195 3.4355462 1.1699483
H -0.7949327 3.469653 0.25800875
H -0.8191924 3.3435843 2.0384738
H -0.09578855 1.4655554 -0.96081483
H 1.4220531 1.4196372 -0.042530164
H 0.7022495 -0.7434564 1.0042372
H -1.7338642 -0.36683115 0.73613805
H -1.5812554 -0.69575006 -1.0095342
H -2.0646148 -2.6270201 0.21427746
H 2.3650577 -1.8420197 -2.719936
