title
 OpenBabel02282109593D

 17 16  0  0  1  0  0  0  0  0999 V2000
   -0.8103    3.0555    0.8638 C   0  0  0  0  0  0  0  0  0  0  0  0
   -0.8606    1.6497    0.7576 O   0  0  0  0  0  0  0  0  0  0  0  0
   -0.1682    1.1564   -0.3590 C   0  0  0  0  0  0  0  0  0  0  0  0
   -0.2282   -0.3752   -0.3189 C   0  0  1  0  0  0  0  0  0  0  0  0
    0.3717   -1.0156   -1.5952 C   0  0  0  0  0  0  0  0  0  0  0  0
    0.2883   -2.4198   -1.5859 O   0  0  0  0  0  0  0  0  0  0  0  0
    0.4714   -0.9062    0.8543 C   0  0  0  0  0  0  0  0  0  0  0  0
    1.0663   -1.3764    1.7271 N   0  0  0  0  0  0  0  0  0  0  0  0
    0.2243    3.4179    0.9612 H   0  0  0  0  0  0  0  0  0  0  0  0
   -1.2693    3.5459   -0.0086 H   0  0  0  0  0  0  0  0  0  0  0  0
   -1.3689    3.3311    1.7605 H   0  0  0  0  0  0  0  0  0  0  0  0
   -0.6283    1.5067   -1.2987 H   0  0  0  0  0  0  0  0  0  0  0  0
    0.8806    1.4957   -0.3573 H   0  0  0  0  0  0  0  0  0  0  0  0
   -1.2793   -0.6759   -0.2451 H   0  0  0  0  0  0  0  0  0  0  0  0
   -0.2096   -0.6765   -2.4579 H   0  0  0  0  0  0  0  0  0  0  0  0
    1.4063   -0.6634   -1.7256 H   0  0  0  0  0  0  0  0  0  0  0  0
    0.8429   -2.7492   -0.8688 H   0  0  0  0  0  0  0  0  0  0  0  0
  1  9  1  0  0  0  0
  1 11  1  0  0  0  0
  2  1  1  0  0  0  0
  3 13  1  0  0  0  0
  3  4  1  0  0  0  0
  3  2  1  0  0  0  0
  4 14  1  1  0  0  0
  4  7  1  0  0  0  0
  5  6  1  0  0  0  0
  5  4  1  0  0  0  0
  6 17  1  0  0  0  0
  7  8  3  0  0  0  0
 10  1  1  0  0  0  0
 12  3  1  0  0  0  0
 15  5  1  0  0  0  0
 16  5  1  0  0  0  0
M  END
