title
 OpenBabel02282109593D

 17 16  0  0  1  0  0  0  0  0999 V2000
   -1.1141    2.6063    0.1125 C   0  0  0  0  0  0  0  0  0  0  0  0
   -0.1761    1.9419   -0.7187 O   0  0  0  0  0  0  0  0  0  0  0  0
    0.7216    1.0942   -0.0476 C   0  0  0  0  0  0  0  0  0  0  0  0
    0.3855   -0.3850   -0.3209 C   0  0  1  0  0  0  0  0  0  0  0  0
    1.4073   -1.1570    0.2561 O   0  0  0  0  0  0  0  0  0  0  0  0
    1.3700   -2.5318   -0.0906 C   0  0  0  0  0  0  0  0  0  0  0  0
   -0.9444   -0.7478    0.2219 C   0  0  0  0  0  0  0  0  0  0  0  0
   -1.9692   -1.0501    0.6630 N   0  0  0  0  0  0  0  0  0  0  0  0
   -1.7619    1.9026    0.6495 H   0  0  0  0  0  0  0  0  0  0  0  0
   -0.6110    3.2573    0.8418 H   0  0  0  0  0  0  0  0  0  0  0  0
   -1.7309    3.2238   -0.5441 H   0  0  0  0  0  0  0  0  0  0  0  0
    1.7326    1.2637   -0.4344 H   0  0  0  0  0  0  0  0  0  0  0  0
    0.7365    1.2691    1.0352 H   0  0  0  0  0  0  0  0  0  0  0  0
    0.3420   -0.5273   -1.4125 H   0  0  0  0  0  0  0  0  0  0  0  0
    0.4514   -3.0144    0.2683 H   0  0  0  0  0  0  0  0  0  0  0  0
    1.4429   -2.6701   -1.1791 H   0  0  0  0  0  0  0  0  0  0  0  0
    2.2319   -2.9987    0.3891 H   0  0  0  0  0  0  0  0  0  0  0  0
  1  9  1  0  0  0  0
  1 10  1  0  0  0  0
  2  3  1  0  0  0  0
  2  1  1  0  0  0  0
  3 13  1  0  0  0  0
  4 14  1  6  0  0  0
  4  3  1  0  0  0  0
  4  7  1  0  0  0  0
  4  5  1  0  0  0  0
  6  5  1  0  0  0  0
  6 15  1  0  0  0  0
  6 17  1  0  0  0  0
  7  8  3  0  0  0  0
 11  1  1  0  0  0  0
 12  3  1  0  0  0  0
 16  6  1  0  0  0  0
M  END
