17
title
C -1.1140577 2.6062663 0.11253615
O -0.17608804 1.941948 -0.7187336
C 0.7215843 1.0942165 -0.047561124
C 0.3855291 -0.3850471 -0.32089353
O 1.407307 -1.1570369 0.2561228
C 1.3699595 -2.531788 -0.09058584
C -0.9444207 -0.7477962 0.22190003
N -1.9691758 -1.0500528 0.66303474
H -1.7619035 1.9025853 0.6495138
H -0.61097866 3.2573457 0.84182
H -1.7309083 3.223808 -0.54409343
H 1.7326292 1.2637435 -0.43438894
H 0.7365235 1.2690512 1.0351725
H 0.3420335 -0.5273062 -1.4124589
H 0.45143902 -3.014418 0.26829293
H 1.4428532 -2.670078 -1.1791002
H 2.2318785 -2.9986908 0.38913736
