18
title
O 1.0990198 3.1226907 -0.48276836
C 1.2806277 1.7241559 -0.32748413
C -0.10861939 1.0960947 -0.2724614
C -0.09830922 -0.44762066 -0.27139056
C 0.54772 -1.0470974 1.0032196
O 0.5387961 -2.4564738 1.0033859
C -1.4537472 -0.9802737 -0.40699938
C -2.5631862 -1.4426103 -0.46574804
H 1.9642143 3.5422206 -0.47374862
H 1.8463802 1.2972541 -1.1727872
H 1.8470163 1.5008266 0.58947724
H -0.6391068 1.4635941 0.6129925
H -0.67032844 1.4496676 -1.1425704
H 0.49151766 -0.8011358 -1.1287099
H 1.5992801 -0.75132155 1.057041
H 0.03488845 -0.63201094 1.8861216
H -0.3784185 -2.7323236 0.88382804
H -3.5467312 -1.8352978 -0.5470059
