17
title
O 1.1817738 3.0881054 0.33349633
C 1.2937692 1.676186 0.28731897
C -0.12238439 1.1132505 0.33077198
C -0.1751301 -0.42549536 0.35118926
C -1.6252747 -0.950977 0.50119436
O -1.6928389 -2.3544219 0.5783537
C 0.41351822 -1.0124142 -0.85747516
N 0.8310122 -1.501055 -1.8190967
H 2.0602055 3.464952 0.22893636
H 1.8006754 1.3406873 -0.62995726
H 1.8729041 1.2904514 1.1428908
H -0.6201709 1.4871368 1.2321174
H -0.6826573 1.4956656 -0.5289966
H 0.39844844 -0.80477136 1.2064048
H -2.0299413 -0.56764334 1.442578
H -2.239473 -0.5490698 -0.3183411
H -1.4281123 -2.7168646 -0.27497408
