title
 OpenBabel02282109593D

 17 16  0  0  1  0  0  0  0  0999 V2000
    1.1818    3.0881    0.3335 O   0  0  0  0  0  0  0  0  0  0  0  0
    1.2938    1.6762    0.2873 C   0  0  0  0  0  0  0  0  0  0  0  0
   -0.1224    1.1133    0.3308 C   0  0  0  0  0  0  0  0  0  0  0  0
   -0.1751   -0.4255    0.3512 C   0  0  1  0  0  0  0  0  0  0  0  0
   -1.6253   -0.9510    0.5012 C   0  0  0  0  0  0  0  0  0  0  0  0
   -1.6928   -2.3544    0.5784 O   0  0  0  0  0  0  0  0  0  0  0  0
    0.4135   -1.0124   -0.8575 C   0  0  0  0  0  0  0  0  0  0  0  0
    0.8310   -1.5011   -1.8191 N   0  0  0  0  0  0  0  0  0  0  0  0
    2.0602    3.4650    0.2289 H   0  0  0  0  0  0  0  0  0  0  0  0
    1.8007    1.3407   -0.6300 H   0  0  0  0  0  0  0  0  0  0  0  0
    1.8729    1.2905    1.1429 H   0  0  0  0  0  0  0  0  0  0  0  0
   -0.6202    1.4871    1.2321 H   0  0  0  0  0  0  0  0  0  0  0  0
   -0.6827    1.4957   -0.5290 H   0  0  0  0  0  0  0  0  0  0  0  0
    0.3984   -0.8048    1.2064 H   0  0  0  0  0  0  0  0  0  0  0  0
   -2.0299   -0.5676    1.4426 H   0  0  0  0  0  0  0  0  0  0  0  0
   -2.2395   -0.5491   -0.3183 H   0  0  0  0  0  0  0  0  0  0  0  0
   -1.4281   -2.7169   -0.2750 H   0  0  0  0  0  0  0  0  0  0  0  0
  2  3  1  0  0  0  0
  2  1  1  0  0  0  0
  2 11  1  0  0  0  0
  3  4  1  0  0  0  0
  3 12  1  0  0  0  0
  4  5  1  0  0  0  0
  4 14  1  1  0  0  0
  5  6  1  0  0  0  0
  5 15  1  0  0  0  0
  7  4  1  0  0  0  0
  8  7  3  0  0  0  0
  9  1  1  0  0  0  0
 10  2  1  0  0  0  0
 13  3  1  0  0  0  0
 16  5  1  0  0  0  0
 17  6  1  0  0  0  0
M  END
