20
title
C -0.70314026 2.436038 1.782719
C -0.68914884 0.9112647 1.6393332
C 0.034911685 0.41196933 0.36957198
C 0.17936067 -1.1212953 0.37660295
C 1.0299784 -1.6585716 -0.76915675
O 1.0900933 -3.068899 -0.62972456
C -0.7520051 0.84250283 -0.8531466
O -0.36886117 1.5925452 -1.7134035
H 0.31525862 2.8352156 1.835642
H -1.1994317 2.9197361 0.9351712
H -1.2287883 2.7370796 2.6937516
H -0.19917057 0.46111834 2.510468
H -1.7177289 0.52544725 1.638417
H 1.0231373 0.8830466 0.303109
H 0.62942016 -1.4391576 1.3235226
H -0.8109655 -1.5926892 0.3302043
H 0.5896956 -1.371261 -1.7375667
H 2.0344782 -1.2069727 -0.7265952
H 1.6165489 -3.421 -1.3532429
H -1.77524 0.39289877 -0.8990951
