title
 OpenBabel02282109593D

 20 19  0  0  1  0  0  0  0  0999 V2000
   -0.6645    2.4381    1.6689 C   0  0  0  0  0  0  0  0  0  0  0  0
   -0.7244    0.9120    1.5608 C   0  0  0  0  0  0  0  0  0  0  0  0
    0.0713    0.3476    0.3604 C   0  0  1  0  0  0  0  0  0  0  0  0
    0.2236   -1.1668    0.4625 C   0  0  0  0  0  0  0  0  0  0  0  0
    0.9298   -1.6129   -0.6732 O   0  0  0  0  0  0  0  0  0  0  0  0
    1.1024   -3.0102   -0.7060 C   0  0  0  0  0  0  0  0  0  0  0  0
   -0.6528    0.7013   -0.9264 C   0  0  0  0  0  0  0  0  0  0  0  0
   -0.3799    1.6263   -1.6453 O   0  0  0  0  0  0  0  0  0  0  0  0
    0.3638    2.7788    1.8278 H   0  0  0  0  0  0  0  0  0  0  0  0
   -1.0321    2.9202    0.7585 H   0  0  0  0  0  0  0  0  0  0  0  0
   -1.2696    2.7916    2.5091 H   0  0  0  0  0  0  0  0  0  0  0  0
   -0.3301    0.4598    2.4792 H   0  0  0  0  0  0  0  0  0  0  0  0
   -1.7697    0.5822    1.4870 H   0  0  0  0  0  0  0  0  0  0  0  0
    1.0621    0.8125    0.3222 H   0  0  0  0  0  0  0  0  0  0  0  0
    0.7569   -1.4360    1.3892 H   0  0  0  0  0  0  0  0  0  0  0  0
   -0.7707   -1.6475    0.5121 H   0  0  0  0  0  0  0  0  0  0  0  0
    1.6742   -3.3698    0.1638 H   0  0  0  0  0  0  0  0  0  0  0  0
    0.1372   -3.5406   -0.7252 H   0  0  0  0  0  0  0  0  0  0  0  0
    1.6561   -3.2496   -1.6167 H   0  0  0  0  0  0  0  0  0  0  0  0
   -1.5275    0.0416   -1.1453 H   0  0  0  0  0  0  0  0  0  0  0  0
  1  9  1  0  0  0  0
  1 11  1  0  0  0  0
  2  1  1  0  0  0  0
  2 12  1  0  0  0  0
  3 14  1  6  0  0  0
  3  4  1  0  0  0  0
  3  2  1  0  0  0  0
  4 16  1  0  0  0  0
  4 15  1  0  0  0  0
  5  4  1  0  0  0  0
  6  5  1  0  0  0  0
  6 17  1  0  0  0  0
  7  3  1  0  0  0  0
  8  7  2  0  0  0  0
 10  1  1  0  0  0  0
 13  2  1  0  0  0  0
 18  6  1  0  0  0  0
 19  6  1  0  0  0  0
 20  7  1  0  0  0  0
M  END
