title
 OpenBabel02282109593D

 22 21  0  0  1  0  0  0  0  0999 V2000
   -0.8891    3.2831    0.8878 C   0  0  0  0  0  0  0  0  0  0  0  0
   -0.8661    1.7525    0.8826 C   0  0  0  0  0  0  0  0  0  0  0  0
   -0.1283    1.1728   -0.3306 C   0  0  0  0  0  0  0  0  0  0  0  0
   -0.0974   -0.3684   -0.3720 C   0  0  1  0  0  0  0  0  0  0  0  0
    0.5099   -0.8874   -1.6937 C   0  0  0  0  0  0  0  0  0  0  0  0
    0.3931   -2.4039   -1.8755 C   0  0  0  0  0  0  0  0  0  0  0  0
    0.7275   -0.8890    0.7881 C   0  0  0  0  0  0  0  0  0  0  0  0
    0.3483   -1.6407    1.6485 O   0  0  0  0  0  0  0  0  0  0  0  0
    0.1259    3.6953    0.9125 H   0  0  0  0  0  0  0  0  0  0  0  0
   -1.3823    3.6754   -0.0086 H   0  0  0  0  0  0  0  0  0  0  0  0
   -1.4262    3.6698    1.7592 H   0  0  0  0  0  0  0  0  0  0  0  0
   -0.4009    1.3894    1.8078 H   0  0  0  0  0  0  0  0  0  0  0  0
   -1.8939    1.3677    0.8947 H   0  0  0  0  0  0  0  0  0  0  0  0
   -0.6008    1.5345   -1.2527 H   0  0  0  0  0  0  0  0  0  0  0  0
    0.9029    1.5546   -0.3519 H   0  0  0  0  0  0  0  0  0  0  0  0
   -1.1133   -0.7644   -0.2545 H   0  0  0  0  0  0  0  0  0  0  0  0
    0.0091   -0.3755   -2.5241 H   0  0  0  0  0  0  0  0  0  0  0  0
    1.5650   -0.5848   -1.7455 H   0  0  0  0  0  0  0  0  0  0  0  0
    0.8395   -2.7192   -2.8234 H   0  0  0  0  0  0  0  0  0  0  0  0
    0.8964   -2.9495   -1.0709 H   0  0  0  0  0  0  0  0  0  0  0  0
   -0.6555   -2.7196   -1.8771 H   0  0  0  0  0  0  0  0  0  0  0  0
    1.7799   -0.5084    0.7843 H   0  0  0  0  0  0  0  0  0  0  0  0
  1  9  1  0  0  0  0
  1 11  1  0  0  0  0
  2  1  1  0  0  0  0
  2 13  1  0  0  0  0
  2 12  1  0  0  0  0
  3  2  1  0  0  0  0
  4  3  1  0  0  0  0
  4 16  1  1  0  0  0
  4  7  1  0  0  0  0
  5  4  1  0  0  0  0
  6  5  1  0  0  0  0
  6 20  1  0  0  0  0
  7  8  2  0  0  0  0
 10  1  1  0  0  0  0
 14  3  1  0  0  0  0
 15  3  1  0  0  0  0
 17  5  1  0  0  0  0
 18  5  1  0  0  0  0
 19  6  1  0  0  0  0
 21  6  1  0  0  0  0
 22  7  1  0  0  0  0
M  END
