title
 OpenBabel02282109593D

 20 19  0  0  1  0  0  0  0  0999 V2000
   -0.5059    3.2512   -1.1535 C   0  0  0  0  0  0  0  0  0  0  0  0
   -0.3399    1.7301   -1.1950 C   0  0  0  0  0  0  0  0  0  0  0  0
    0.2702    1.1671    0.0941 C   0  0  0  0  0  0  0  0  0  0  0  0
    0.4071   -0.3727    0.0985 C   0  0  1  0  0  0  0  0  0  0  0  0
    1.2961   -0.8487    1.2434 C   0  0  0  0  0  0  0  0  0  0  0  0
    1.3474   -2.2651    1.1810 O   0  0  0  0  0  0  0  0  0  0  0  0
   -0.9719   -0.9946    0.2337 C   0  0  0  0  0  0  0  0  0  0  0  0
   -1.6380   -1.4139   -0.6758 O   0  0  0  0  0  0  0  0  0  0  0  0
    0.4558    3.7529   -0.9969 H   0  0  0  0  0  0  0  0  0  0  0  0
   -0.9295    3.6289   -2.0889 H   0  0  0  0  0  0  0  0  0  0  0  0
   -1.1733    3.5560   -0.3396 H   0  0  0  0  0  0  0  0  0  0  0  0
   -1.3092    1.2542   -1.3816 H   0  0  0  0  0  0  0  0  0  0  0  0
    0.2992    1.4512   -2.0423 H   0  0  0  0  0  0  0  0  0  0  0  0
    1.2646    1.6060    0.2498 H   0  0  0  0  0  0  0  0  0  0  0  0
   -0.3348    1.4809    0.9572 H   0  0  0  0  0  0  0  0  0  0  0  0
    0.8309   -0.7101   -0.8534 H   0  0  0  0  0  0  0  0  0  0  0  0
    2.2963   -0.3998    1.1450 H   0  0  0  0  0  0  0  0  0  0  0  0
    0.8757   -0.5051    2.2038 H   0  0  0  0  0  0  0  0  0  0  0  0
    1.8457   -2.5889    1.9371 H   0  0  0  0  0  0  0  0  0  0  0  0
   -1.3646   -0.9920    1.2799 H   0  0  0  0  0  0  0  0  0  0  0  0
  1  9  1  0  0  0  0
  1 11  1  0  0  0  0
  2  1  1  0  0  0  0
  2  3  1  0  0  0  0
  3  4  1  0  0  0  0
  3 14  1  0  0  0  0
  3 15  1  0  0  0  0
  4 16  1  6  0  0  0
  4  7  1  0  0  0  0
  4  5  1  0  0  0  0
  5 18  1  0  0  0  0
  6  5  1  0  0  0  0
  6 19  1  0  0  0  0
  7 20  1  0  0  0  0
  8  7  2  0  0  0  0
 10  1  1  0  0  0  0
 12  2  1  0  0  0  0
 13  2  1  0  0  0  0
 17  5  1  0  0  0  0
M  END
