21
title
C -0.6843285 3.2004597 1.1489056
C -0.6764147 1.6698002 1.1306281
C 0.19348657 1.1076424 -0.0027518417
N 0.20933503 -0.34526902 -0.074214235
C -0.91423076 -1.0539432 -0.6847948
C -0.75810534 -1.2274737 -2.198282
C 1.2711502 -1.0645087 0.38242126
O 1.365225 -2.2751863 0.35059452
H 0.3256209 3.602393 1.2868524
H -1.076556 3.6078947 0.21041481
H -1.307387 3.5824935 1.9624691
H -0.30221707 1.2803527 2.0848222
H -1.7020164 1.2960956 1.0261276
H -0.14574102 1.5094285 -0.9666389
H 1.2263663 1.4508641 0.12774692
H -0.97286093 -2.033151 -0.20436706
H -1.8339809 -0.50735265 -0.45256042
H -1.6296203 -1.7444451 -2.6123197
H -0.6658554 -0.26297504 -2.7083154
H 0.13153261 -1.8226783 -2.4196703
H 2.063997 -0.4110816 0.7996696
