title
 OpenBabel02282109593D

 19 18  0  0  0  0  0  0  0  0999 V2000
   -0.7695    2.6549    1.2263 C   0  0  0  0  0  0  0  0  0  0  0  0
   -1.1465    1.1712    1.2514 C   0  0  0  0  0  0  0  0  0  0  0  0
   -0.4570    0.3704    0.2419 N   0  0  0  0  0  0  0  0  0  0  0  0
    0.9782    0.0944    0.4164 C   0  0  0  0  0  0  0  0  0  0  0  0
    1.3603   -1.3972    0.4730 C   0  0  0  0  0  0  0  0  0  0  0  0
    1.5931   -1.9731   -0.7841 O   0  0  0  0  0  0  0  0  0  0  0  0
   -1.1061   -0.0230   -0.8764 C   0  0  0  0  0  0  0  0  0  0  0  0
   -0.6301   -0.6841   -1.7879 O   0  0  0  0  0  0  0  0  0  0  0  0
    0.3016    2.8010    1.3954 H   0  0  0  0  0  0  0  0  0  0  0  0
   -1.0243    3.1036    0.2615 H   0  0  0  0  0  0  0  0  0  0  0  0
   -1.3090    3.1938    2.0113 H   0  0  0  0  0  0  0  0  0  0  0  0
   -0.9351    0.7428    2.2384 H   0  0  0  0  0  0  0  0  0  0  0  0
   -2.2225    1.0587    1.0869 H   0  0  0  0  0  0  0  0  0  0  0  0
    1.5467    0.5588   -0.3978 H   0  0  0  0  0  0  0  0  0  0  0  0
    1.2728    0.5791    1.3509 H   0  0  0  0  0  0  0  0  0  0  0  0
    2.2985   -1.4812    1.0351 H   0  0  0  0  0  0  0  0  0  0  0  0
    0.5879   -1.9344    1.0517 H   0  0  0  0  0  0  0  0  0  0  0  0
    0.8508   -1.7038   -1.3517 H   0  0  0  0  0  0  0  0  0  0  0  0
   -2.1572    0.3178   -0.8987 H   0  0  0  0  0  0  0  0  0  0  0  0
  1  2  1  0  0  0  0
  1  9  1  0  0  0  0
  1 11  1  0  0  0  0
  2 12  1  0  0  0  0
  3  4  1  0  0  0  0
  3  2  1  0  0  0  0
  4  5  1  0  0  0  0
  4 15  1  0  0  0  0
  5 16  1  0  0  0  0
  5 17  1  0  0  0  0
  6  5  1  0  0  0  0
  7  3  1  0  0  0  0
  8  7  2  0  0  0  0
 10  1  1  0  0  0  0
 13  2  1  0  0  0  0
 14  4  1  0  0  0  0
 18  6  1  0  0  0  0
 19  7  1  0  0  0  0
M  END
