title
 OpenBabel02282109593D

 18 17  0  0  1  0  0  0  0  0999 V2000
   -1.0875    2.2224    0.9749 C   0  0  0  0  0  0  0  0  0  0  0  0
   -0.7019    0.8617    0.9782 O   0  0  0  0  0  0  0  0  0  0  0  0
   -0.2460    0.3988   -0.2775 C   0  0  1  0  0  0  0  0  0  0  0  0
    0.4791   -0.9351   -0.0607 C   0  0  0  0  0  0  0  0  0  0  0  0
    1.7240   -0.7918    0.8219 C   0  0  0  0  0  0  0  0  0  0  0  0
    2.4072   -2.0229    0.9878 O   0  0  0  0  0  0  0  0  0  0  0  0
   -1.4218    0.1779   -1.2273 C   0  0  0  0  0  0  0  0  0  0  0  0
   -1.3394    0.1789   -2.4268 O   0  0  0  0  0  0  0  0  0  0  0  0
   -0.2451    2.8782    0.7091 H   0  0  0  0  0  0  0  0  0  0  0  0
   -1.9113    2.4204    0.2729 H   0  0  0  0  0  0  0  0  0  0  0  0
   -1.4228    2.4643    1.9856 H   0  0  0  0  0  0  0  0  0  0  0  0
    0.4416    1.1232   -0.7431 H   0  0  0  0  0  0  0  0  0  0  0  0
   -0.2202   -1.6435    0.4036 H   0  0  0  0  0  0  0  0  0  0  0  0
    0.7658   -1.3443   -1.0344 H   0  0  0  0  0  0  0  0  0  0  0  0
    2.4404   -0.1165    0.3405 H   0  0  0  0  0  0  0  0  0  0  0  0
    1.4459   -0.3451    1.7851 H   0  0  0  0  0  0  0  0  0  0  0  0
    1.8586   -2.5942    1.5346 H   0  0  0  0  0  0  0  0  0  0  0  0
   -2.3801   -0.0275   -0.6943 H   0  0  0  0  0  0  0  0  0  0  0  0
  1  2  1  0  0  0  0
  1 11  1  0  0  0  0
  3 12  1  6  0  0  0
  3  4  1  0  0  0  0
  3  2  1  0  0  0  0
  4 13  1  0  0  0  0
  4  5  1  0  0  0  0
  5  6  1  0  0  0  0
  5 16  1  0  0  0  0
  6 17  1  0  0  0  0
  7 18  1  0  0  0  0
  7  3  1  0  0  0  0
  8  7  2  0  0  0  0
  9  1  1  0  0  0  0
 10  1  1  0  0  0  0
 14  4  1  0  0  0  0
 15  5  1  0  0  0  0
M  END
