title
 OpenBabel02282109593D

 18 17  0  0  1  0  0  0  0  0999 V2000
   -0.3350    3.2403   -0.9444 C   0  0  0  0  0  0  0  0  0  0  0  0
   -0.2210    1.8378   -1.0366 O   0  0  0  0  0  0  0  0  0  0  0  0
    0.3172    1.2494    0.1262 C   0  0  0  0  0  0  0  0  0  0  0  0
    0.3422   -0.2707   -0.0684 C   0  0  1  0  0  0  0  0  0  0  0  0
    1.1193   -1.0002    1.0399 C   0  0  0  0  0  0  0  0  0  0  0  0
    1.2600   -2.3785    0.7833 O   0  0  0  0  0  0  0  0  0  0  0  0
   -1.0690   -0.8083   -0.2154 C   0  0  0  0  0  0  0  0  0  0  0  0
   -1.4555   -1.8505    0.2647 O   0  0  0  0  0  0  0  0  0  0  0  0
    0.6451    3.7170   -0.7894 H   0  0  0  0  0  0  0  0  0  0  0  0
   -0.7565    3.5952   -1.8873 H   0  0  0  0  0  0  0  0  0  0  0  0
   -0.9991    3.5417   -0.1195 H   0  0  0  0  0  0  0  0  0  0  0  0
    1.3405    1.6162    0.3119 H   0  0  0  0  0  0  0  0  0  0  0  0
   -0.2862    1.5192    1.0107 H   0  0  0  0  0  0  0  0  0  0  0  0
    0.8399   -0.4614   -1.0312 H   0  0  0  0  0  0  0  0  0  0  0  0
    2.1308   -0.5848    1.1069 H   0  0  0  0  0  0  0  0  0  0  0  0
    0.6257   -0.8149    2.0084 H   0  0  0  0  0  0  0  0  0  0  0  0
    0.3595   -2.7291    0.7577 H   0  0  0  0  0  0  0  0  0  0  0  0
   -1.7543   -0.1707   -0.8093 H   0  0  0  0  0  0  0  0  0  0  0  0
  1  9  1  0  0  0  0
  1 11  1  0  0  0  0
  2  1  1  0  0  0  0
  2  3  1  0  0  0  0
  3 12  1  0  0  0  0
  3 13  1  0  0  0  0
  4 14  1  6  0  0  0
  4  3  1  0  0  0  0
  4  5  1  0  0  0  0
  5 15  1  0  0  0  0
  5 16  1  0  0  0  0
  6  5  1  0  0  0  0
  7  4  1  0  0  0  0
  7  8  2  0  0  0  0
 10  1  1  0  0  0  0
 17  6  1  0  0  0  0
 18  7  1  0  0  0  0
M  END
