18
title
O 1.2086136 2.9739444 0.44751322
C 1.2857534 1.5552894 0.41345498
C -0.13257898 1.0314091 0.21086597
C -0.25109923 -0.49347472 0.29743668
C -1.7099649 -0.9503486 0.47011754
O -1.7041727 -2.3422422 0.7480209
C 0.3620311 -1.2162285 -0.89239264
O 0.9636431 -0.67820644 -1.7894709
H 2.1038213 3.3225646 0.41495138
H 1.9286517 1.2061397 -0.40352687
H 1.694145 1.1602743 1.359764
H -0.77037954 1.4905913 0.97526693
H -0.4948368 1.3780783 -0.7627467
H 0.28014976 -0.8697293 1.1863712
H -2.1645427 -0.37940764 1.2934526
H -2.2827275 -0.7236662 -0.44311216
H -2.6120343 -2.6589484 0.7424024
H 0.2010182 -2.313728 -0.88751566
