title
 OpenBabel02282109593D

 18 17  0  0  1  0  0  0  0  0999 V2000
    1.2086    2.9739    0.4475 O   0  0  0  0  0  0  0  0  0  0  0  0
    1.2858    1.5553    0.4135 C   0  0  0  0  0  0  0  0  0  0  0  0
   -0.1326    1.0314    0.2109 C   0  0  0  0  0  0  0  0  0  0  0  0
   -0.2511   -0.4935    0.2974 C   0  0  1  0  0  0  0  0  0  0  0  0
   -1.7100   -0.9503    0.4701 C   0  0  0  0  0  0  0  0  0  0  0  0
   -1.7042   -2.3422    0.7480 O   0  0  0  0  0  0  0  0  0  0  0  0
    0.3620   -1.2162   -0.8924 C   0  0  0  0  0  0  0  0  0  0  0  0
    0.9636   -0.6782   -1.7895 O   0  0  0  0  0  0  0  0  0  0  0  0
    2.1038    3.3226    0.4150 H   0  0  0  0  0  0  0  0  0  0  0  0
    1.9287    1.2061   -0.4035 H   0  0  0  0  0  0  0  0  0  0  0  0
    1.6941    1.1603    1.3598 H   0  0  0  0  0  0  0  0  0  0  0  0
   -0.7704    1.4906    0.9753 H   0  0  0  0  0  0  0  0  0  0  0  0
   -0.4948    1.3781   -0.7627 H   0  0  0  0  0  0  0  0  0  0  0  0
    0.2801   -0.8697    1.1864 H   0  0  0  0  0  0  0  0  0  0  0  0
   -2.1645   -0.3794    1.2935 H   0  0  0  0  0  0  0  0  0  0  0  0
   -2.2827   -0.7237   -0.4431 H   0  0  0  0  0  0  0  0  0  0  0  0
   -2.6120   -2.6589    0.7424 H   0  0  0  0  0  0  0  0  0  0  0  0
    0.2010   -2.3137   -0.8875 H   0  0  0  0  0  0  0  0  0  0  0  0
  2  1  1  0  0  0  0
  2 11  1  0  0  0  0
  3  4  1  0  0  0  0
  3  2  1  0  0  0  0
  3 12  1  0  0  0  0
  4  5  1  0  0  0  0
  4 14  1  1  0  0  0
  5  6  1  0  0  0  0
  5 15  1  0  0  0  0
  7 18  1  0  0  0  0
  7  4  1  0  0  0  0
  8  7  2  0  0  0  0
  9  1  1  0  0  0  0
 10  2  1  0  0  0  0
 13  3  1  0  0  0  0
 16  5  1  0  0  0  0
 17  6  1  0  0  0  0
M  END
