title
 OpenBabel02282109593D

 24 23  0  0  0  0  0  0  0  0999 V2000
   -0.6005    2.9648    0.9797 C   0  0  0  0  0  0  0  0  0  0  0  0
   -0.8646    1.4658    1.1532 C   0  0  0  0  0  0  0  0  0  0  0  0
   -0.1397    0.5692    0.1260 C   0  0  0  0  0  0  0  0  0  0  0  0
    1.3746    0.4807    0.4193 C   0  0  0  0  0  0  0  0  0  0  0  0
    2.2552    0.1081   -0.7790 C   0  0  0  0  0  0  0  0  0  0  0  0
   -0.8183   -0.8028    0.1083 C   0  0  0  0  0  0  0  0  0  0  0  0
   -0.2824   -1.6182   -0.9131 O   0  0  0  0  0  0  0  0  0  0  0  0
   -0.8787   -2.8906   -0.9631 C   0  0  0  0  0  0  0  0  0  0  0  0
    0.4614    3.2114    1.0773 H   0  0  0  0  0  0  0  0  0  0  0  0
   -0.9299    3.3089   -0.0070 H   0  0  0  0  0  0  0  0  0  0  0  0
   -1.1415    3.5466    1.7326 H   0  0  0  0  0  0  0  0  0  0  0  0
   -0.5769    1.1551    2.1670 H   0  0  0  0  0  0  0  0  0  0  0  0
   -1.9464    1.2940    1.0809 H   0  0  0  0  0  0  0  0  0  0  0  0
   -0.2788    1.0115   -0.8711 H   0  0  0  0  0  0  0  0  0  0  0  0
    1.7149    1.4459    0.8123 H   0  0  0  0  0  0  0  0  0  0  0  0
    1.5299   -0.2420    1.2326 H   0  0  0  0  0  0  0  0  0  0  0  0
    3.3120    0.0876   -0.4920 H   0  0  0  0  0  0  0  0  0  0  0  0
    1.9828   -0.8688   -1.1801 H   0  0  0  0  0  0  0  0  0  0  0  0
    2.1466    0.8429   -1.5851 H   0  0  0  0  0  0  0  0  0  0  0  0
   -0.6921   -1.2939    1.0909 H   0  0  0  0  0  0  0  0  0  0  0  0
   -1.9041   -0.6788   -0.0490 H   0  0  0  0  0  0  0  0  0  0  0  0
   -0.7289   -3.4512   -0.0263 H   0  0  0  0  0  0  0  0  0  0  0  0
   -1.9627   -2.8261   -1.1508 H   0  0  0  0  0  0  0  0  0  0  0  0
   -0.4114   -3.4420   -1.7828 H   0  0  0  0  0  0  0  0  0  0  0  0
  1  9  1  0  0  0  0
  1  2  1  0  0  0  0
  1 11  1  0  0  0  0
  2 12  1  0  0  0  0
  3  4  1  0  0  0  0
  3  2  1  0  0  0  0
  4 15  1  0  0  0  0
  4 16  1  0  0  0  0
  5 17  1  0  0  0  0
  5  4  1  0  0  0  0
  6  3  1  0  0  0  0
  6 20  1  0  0  0  0
  7  6  1  0  0  0  0
  8  7  1  0  0  0  0
  8 22  1  0  0  0  0
 10  1  1  0  0  0  0
 13  2  1  0  0  0  0
 14  3  1  0  0  0  0
 18  5  1  0  0  0  0
 19  5  1  0  0  0  0
 21  6  1  0  0  0  0
 23  8  1  0  0  0  0
 24  8  1  0  0  0  0
M  END
