title
 OpenBabel02282109593D

 22 21  0  0  1  0  0  0  0  0999 V2000
    2.4091    1.9264    0.0204 C   0  0  0  0  0  0  0  0  0  0  0  0
    1.9530    0.4741   -0.1328 C   0  0  0  0  0  0  0  0  0  0  0  0
    0.4299    0.3096   -0.1912 C   0  0  1  0  0  0  0  0  0  0  0  0
    0.0226   -1.1559   -0.3782 C   0  0  0  0  0  0  0  0  0  0  0  0
   -1.4837   -1.3654   -0.5358 C   0  0  0  0  0  0  0  0  0  0  0  0
   -1.8274   -2.7272   -0.7478 O   0  0  0  0  0  0  0  0  0  0  0  0
   -0.1421    0.8004    1.0262 O   0  0  0  0  0  0  0  0  0  0  0  0
   -1.0384    1.8789    0.8809 C   0  0  0  0  0  0  0  0  0  0  0  0
    3.4999    1.9924    0.0747 H   0  0  0  0  0  0  0  0  0  0  0  0
    2.0823    2.5400   -0.8270 H   0  0  0  0  0  0  0  0  0  0  0  0
    2.0000    2.3648    0.9348 H   0  0  0  0  0  0  0  0  0  0  0  0
    2.3843    0.0377   -1.0421 H   0  0  0  0  0  0  0  0  0  0  0  0
    2.3269   -0.1214    0.7095 H   0  0  0  0  0  0  0  0  0  0  0  0
    0.0414    0.9009   -1.0359 H   0  0  0  0  0  0  0  0  0  0  0  0
    0.5299   -1.5691   -1.2579 H   0  0  0  0  0  0  0  0  0  0  0  0
    0.3769   -1.7226    0.4942 H   0  0  0  0  0  0  0  0  0  0  0  0
   -2.0095   -0.9513    0.3365 H   0  0  0  0  0  0  0  0  0  0  0  0
   -1.8473   -0.8316   -1.4217 H   0  0  0  0  0  0  0  0  0  0  0  0
   -1.5846   -3.2153    0.0455 H   0  0  0  0  0  0  0  0  0  0  0  0
   -0.5589    2.7610    0.4317 H   0  0  0  0  0  0  0  0  0  0  0  0
   -1.9136    1.6135    0.2686 H   0  0  0  0  0  0  0  0  0  0  0  0
   -1.3855    2.1449    1.8833 H   0  0  0  0  0  0  0  0  0  0  0  0
  1  9  1  0  0  0  0
  1 11  1  0  0  0  0
  2  1  1  0  0  0  0
  2 13  1  0  0  0  0
  3 14  1  6  0  0  0
  3  2  1  0  0  0  0
  3  7  1  0  0  0  0
  4  3  1  0  0  0  0
  4 16  1  0  0  0  0
  5  4  1  0  0  0  0
  5 17  1  0  0  0  0
  6  5  1  0  0  0  0
  6 19  1  0  0  0  0
  8  7  1  0  0  0  0
  8 22  1  0  0  0  0
 10  1  1  0  0  0  0
 12  2  1  0  0  0  0
 15  4  1  0  0  0  0
 18  5  1  0  0  0  0
 20  8  1  0  0  0  0
 21  8  1  0  0  0  0
M  END
