22
title
C 2.4090748 1.9263985 0.020424329
C 1.9530168 0.47410947 -0.1327661
C 0.42986798 0.3096409 -0.191242
C 0.022633202 -1.1559227 -0.3782059
C -1.4836991 -1.3653679 -0.53580856
O -1.82738 -2.7272449 -0.74780345
O -0.14207362 0.80044496 1.0261787
C -1.038368 1.8788627 0.8808597
H 3.4999435 1.9923999 0.07466488
H 2.082263 2.5400076 -0.8270136
H 2.0000193 2.364829 0.9348267
H 2.384292 0.03770358 -1.0421379
H 2.3269057 -0.12138628 0.7095241
H 0.04136146 0.90092194 -1.035913
H 0.5298817 -1.5691185 -1.2578698
H 0.37692535 -1.7226174 0.49416777
H -2.0094595 -0.951298 0.3364593
H -1.8472698 -0.83164966 -1.4217279
H -1.5845902 -3.2152672 0.045464687
H -0.5588844 2.760981 0.43173924
H -1.9136393 1.613492 0.26860163
H -1.3855238 2.1449218 1.8833016
