title
 OpenBabel02282109593D

 22 21  0  0  1  0  0  0  0  0999 V2000
   -0.0701    2.8764   -0.8406 C   0  0  0  0  0  0  0  0  0  0  0  0
   -0.5039    1.4106   -0.9590 C   0  0  0  0  0  0  0  0  0  0  0  0
   -0.0433    0.5010    0.1978 C   0  0  1  0  0  0  0  0  0  0  0  0
   -0.8418    0.7850    1.4727 C   0  0  0  0  0  0  0  0  0  0  0  0
   -0.2315    0.0856    2.5494 O   0  0  0  0  0  0  0  0  0  0  0  0
   -0.1389   -0.9933   -0.1627 C   0  0  0  0  0  0  0  0  0  0  0  0
    0.9893   -1.4883   -1.0591 C   0  0  0  0  0  0  0  0  0  0  0  0
    0.7435   -2.8578   -1.3487 O   0  0  0  0  0  0  0  0  0  0  0  0
    1.0211    2.9597   -0.7865 H   0  0  0  0  0  0  0  0  0  0  0  0
   -0.4040    3.4540   -1.7085 H   0  0  0  0  0  0  0  0  0  0  0  0
   -0.4814    3.3610    0.0503 H   0  0  0  0  0  0  0  0  0  0  0  0
   -1.5983    1.3533   -1.0419 H   0  0  0  0  0  0  0  0  0  0  0  0
   -0.1161    1.0082   -1.9016 H   0  0  0  0  0  0  0  0  0  0  0  0
    1.0057    0.7360    0.4313 H   0  0  0  0  0  0  0  0  0  0  0  0
   -0.8621    1.8657    1.6766 H   0  0  0  0  0  0  0  0  0  0  0  0
   -1.8850    0.4578    1.3262 H   0  0  0  0  0  0  0  0  0  0  0  0
   -0.7874    0.1850    3.3272 H   0  0  0  0  0  0  0  0  0  0  0  0
   -0.1246   -1.5856    0.7565 H   0  0  0  0  0  0  0  0  0  0  0  0
   -1.0956   -1.1961   -0.6620 H   0  0  0  0  0  0  0  0  0  0  0  0
    1.0400   -0.8959   -1.9870 H   0  0  0  0  0  0  0  0  0  0  0  0
    1.9527   -1.3583   -0.5392 H   0  0  0  0  0  0  0  0  0  0  0  0
    1.4599   -3.1794   -1.9035 H   0  0  0  0  0  0  0  0  0  0  0  0
  1  9  1  0  0  0  0
  1 11  1  0  0  0  0
  2  1  1  0  0  0  0
  2  3  1  0  0  0  0
  3 14  1  1  0  0  0
  3  4  1  0  0  0  0
  4 15  1  0  0  0  0
  4  5  1  0  0  0  0
  5 17  1  0  0  0  0
  6  3  1  0  0  0  0
  6 18  1  0  0  0  0
  7 21  1  0  0  0  0
  7  6  1  0  0  0  0
  8  7  1  0  0  0  0
 10  1  1  0  0  0  0
 12  2  1  0  0  0  0
 13  2  1  0  0  0  0
 16  4  1  0  0  0  0
 19  6  1  0  0  0  0
 20  7  1  0  0  0  0
 22  8  1  0  0  0  0
M  END
