22
title
C -0.07005783 2.8764162 -0.84064186
C -0.5038699 1.410559 -0.95897675
C -0.043306015 0.5009682 0.19778429
C -0.8418019 0.78497803 1.4727364
O -0.23148264 0.08558982 2.5494406
C -0.13891412 -0.99332875 -0.1626587
C 0.9892921 -1.4882681 -1.0590674
O 0.7435462 -2.857793 -1.3487129
H 1.021131 2.959656 -0.786507
H -0.4039729 3.4539635 -1.7085003
H -0.48136112 3.361047 0.050337292
H -1.5982891 1.3533355 -1.0419486
H -0.116145454 1.0081791 -1.9015844
H 1.0057179 0.73596793 0.43129453
H -0.862102 1.8657264 1.6766241
H -1.8849583 0.45779073 1.3261871
H -0.78741634 0.18500362 3.3272448
H -0.12455007 -1.585639 0.7565484
H -1.0956489 -1.1960771 -0.6620077
H 1.0400261 -0.895932 -1.9869735
H 1.9527458 -1.35833 -0.5391834
H 1.459906 -3.179436 -1.9035298
