26
title
C -0.48528993 3.0990796 1.4432921
C -0.38669395 1.5721774 1.3756076
C -0.005491855 1.0600241 -0.019268397
C 0.09864807 -0.47439724 -0.14495215
C -1.2997103 -1.1275394 -0.16840093
C -1.308595 -2.6303039 0.13213693
C 0.9202344 -0.8772877 -1.3877954
C 2.4294758 -0.64447695 -1.2608801
H -0.74596834 3.4396212 2.4504359
H 0.4651711 3.5702212 1.1682429
H -1.2502279 3.4773548 0.75583524
H 0.35994685 1.2217813 2.10071
H -1.342135 1.1362615 1.6921458
H -0.7354748 1.426181 -0.7562116
H 0.9521994 1.5170335 -0.2978373
H 0.629909 -0.8498071 0.74402666
H -1.9476125 -0.626782 0.56006765
H -1.7559493 -0.9436763 -1.1512582
H -0.71112394 -3.200006 -0.58662933
H -0.904104 -2.8328624 1.1302705
H -2.3267653 -3.03118 0.09988103
H 0.7530209 -1.9384341 -1.6054868
H 0.5325072 -0.3285151 -2.2574859
H 2.6734014 0.40782267 -1.0834228
H 2.8472006 -1.2238326 -0.42973122
H 2.951923 -0.95040876 -2.1729798
