24
title
C 2.0310812 2.812382 0.51042074
C 1.5845337 1.3504823 0.42166442
C 0.062801085 1.1946242 0.34478194
C -0.41552475 -0.2573143 0.23230353
C -1.9456251 -0.35428557 0.21571293
C -2.471977 -1.7890831 0.14386132
O 0.09997555 -0.82967865 -0.9744111
C 0.95576453 -1.935582 -0.80112606
H 3.1214619 2.8951755 0.5593891
H 1.6932068 3.3819094 -0.36257058
H 1.6201962 3.30145 1.4010477
H 2.0314286 0.88242024 -0.46242929
H 1.9645797 0.7990812 1.2925547
H -0.40092745 1.6482708 1.231017
H -0.3173925 1.7475926 -0.5245264
H -0.032044448 -0.82790005 1.0934956
H -2.335326 0.14485015 1.1117142
H -2.3124685 0.21689798 -0.6463317
H -3.565788 -1.8069161 0.11527595
H -2.1040173 -2.2895951 -0.7560592
H -2.1541295 -2.3760772 1.013357
H 1.2648351 -2.2620983 -1.798365
H 1.8566298 -1.6788741 -0.22387478
H 0.4535233 -2.7760758 -0.29921728
