22
title
C -1.0582818 3.083869 1.0581195
C -1.0184304 1.5540615 1.0180877
C -0.4098562 1.0098947 -0.27750596
C -0.34391564 -0.5163465 -0.3354101
C 0.2732504 -1.0303805 -1.6434633
O 1.6263947 -0.6351767 -1.7576011
O 0.4744225 -0.9543689 0.7565626
C 0.18994468 -2.2560923 1.2249215
H -0.051099725 3.5073085 0.97562677
H -1.6537443 3.4896796 0.23231368
H -1.4961141 3.44724 1.9931765
H -0.4402178 1.173006 1.8660868
H -2.0365126 1.1578811 1.1362464
H -0.9959605 1.354928 -1.1394416
H 0.6035349 1.403081 -0.4166598
H -1.3577174 -0.93464595 -0.22281535
H 0.17426878 -2.1273353 -1.6956693
H -0.26453108 -0.61536294 -2.5027845
H 2.0127356 -0.7963963 -0.8870519
H -0.84711826 -2.334746 1.5831687
H 0.3487025 -3.0272124 0.45762268
H 0.86739725 -2.4526103 2.0597916
