24
title
C -0.17911807 2.577535 -1.4192642
C -0.055418435 1.0640086 -1.3531128
O -0.055676017 0.67923003 0.009210576
C 0.05381882 -0.724214 0.26032412
C 1.3302443 -0.9926476 1.0666276
C 2.614278 -0.57249194 0.3488437
C -1.1998032 -1.2024987 1.0026511
C -2.497982 -0.99452037 0.22022365
H 0.6579097 3.0541925 -0.9008556
H -0.18226936 2.9154975 -2.4600358
H -1.1068187 2.907956 -0.9430541
H -0.8926347 0.58950406 -1.889633
H 0.8726854 0.73540765 -1.8477136
H 0.12207377 -1.2576046 -0.70163983
H 1.2487437 -0.45641312 2.020468
H 1.3690748 -2.0618746 1.3101829
H 3.4950683 -0.77010316 0.9675728
H 2.7427053 -1.1172631 -0.59359825
H 2.5963569 0.4971362 0.12213492
H -1.0743735 -2.2648962 1.2467669
H -1.2552059 -0.6655145 1.9579455
H -3.3642726 -1.3368618 0.794644
H -2.6438165 0.06482605 -0.008430134
H -2.488202 -1.5480359 -0.72581154
