title
 OpenBabel02282109593D

 24 23  0  0  0  0  0  0  0  0999 V2000
   -0.1791    2.5775   -1.4193 C   0  0  0  0  0  0  0  0  0  0  0  0
   -0.0554    1.0640   -1.3531 C   0  0  0  0  0  0  0  0  0  0  0  0
   -0.0557    0.6792    0.0092 O   0  0  0  0  0  0  0  0  0  0  0  0
    0.0538   -0.7242    0.2603 C   0  0  0  0  0  0  0  0  0  0  0  0
    1.3302   -0.9926    1.0666 C   0  0  0  0  0  0  0  0  0  0  0  0
    2.6143   -0.5725    0.3488 C   0  0  0  0  0  0  0  0  0  0  0  0
   -1.1998   -1.2025    1.0027 C   0  0  0  0  0  0  0  0  0  0  0  0
   -2.4980   -0.9945    0.2202 C   0  0  0  0  0  0  0  0  0  0  0  0
    0.6579    3.0542   -0.9009 H   0  0  0  0  0  0  0  0  0  0  0  0
   -0.1823    2.9155   -2.4600 H   0  0  0  0  0  0  0  0  0  0  0  0
   -1.1068    2.9080   -0.9431 H   0  0  0  0  0  0  0  0  0  0  0  0
   -0.8926    0.5895   -1.8896 H   0  0  0  0  0  0  0  0  0  0  0  0
    0.8727    0.7354   -1.8477 H   0  0  0  0  0  0  0  0  0  0  0  0
    0.1221   -1.2576   -0.7016 H   0  0  0  0  0  0  0  0  0  0  0  0
    1.2487   -0.4564    2.0205 H   0  0  0  0  0  0  0  0  0  0  0  0
    1.3691   -2.0619    1.3102 H   0  0  0  0  0  0  0  0  0  0  0  0
    3.4951   -0.7701    0.9676 H   0  0  0  0  0  0  0  0  0  0  0  0
    2.7427   -1.1173   -0.5936 H   0  0  0  0  0  0  0  0  0  0  0  0
    2.5964    0.4971    0.1221 H   0  0  0  0  0  0  0  0  0  0  0  0
   -1.0744   -2.2649    1.2468 H   0  0  0  0  0  0  0  0  0  0  0  0
   -1.2552   -0.6655    1.9579 H   0  0  0  0  0  0  0  0  0  0  0  0
   -3.3643   -1.3369    0.7946 H   0  0  0  0  0  0  0  0  0  0  0  0
   -2.6438    0.0648   -0.0084 H   0  0  0  0  0  0  0  0  0  0  0  0
   -2.4882   -1.5480   -0.7258 H   0  0  0  0  0  0  0  0  0  0  0  0
  1  2  1  0  0  0  0
  1 11  1  0  0  0  0
  1  9  1  0  0  0  0
  2  3  1  0  0  0  0
  3  4  1  0  0  0  0
  4  7  1  0  0  0  0
  4  5  1  0  0  0  0
  5 16  1  0  0  0  0
  5 15  1  0  0  0  0
  6 17  1  0  0  0  0
  6  5  1  0  0  0  0
  7 20  1  0  0  0  0
  7 21  1  0  0  0  0
  8 22  1  0  0  0  0
  8  7  1  0  0  0  0
 10  1  1  0  0  0  0
 12  2  1  0  0  0  0
 13  2  1  0  0  0  0
 14  4  1  0  0  0  0
 18  6  1  0  0  0  0
 19  6  1  0  0  0  0
 23  8  1  0  0  0  0
 24  8  1  0  0  0  0
M  END
