title
 OpenBabel02282109593D

 22 21  0  0  1  0  0  0  0  0999 V2000
    0.3418    2.7337    1.2615 C   0  0  0  0  0  0  0  0  0  0  0  0
    0.5284    1.2285    1.3536 C   0  0  0  0  0  0  0  0  0  0  0  0
   -0.0748    0.6329    0.2157 O   0  0  0  0  0  0  0  0  0  0  0  0
   -0.0047   -0.7964    0.1633 C   0  0  1  0  0  0  0  0  0  0  0  0
   -1.2133   -1.2895   -0.6342 C   0  0  0  0  0  0  0  0  0  0  0  0
   -2.5546   -0.8932   -0.0150 C   0  0  0  0  0  0  0  0  0  0  0  0
    1.3291   -1.1948   -0.4843 C   0  0  0  0  0  0  0  0  0  0  0  0
    1.4916   -0.5637   -1.7396 O   0  0  0  0  0  0  0  0  0  0  0  0
    0.8245    3.1295    0.3631 H   0  0  0  0  0  0  0  0  0  0  0  0
   -0.7213    2.9864    1.2176 H   0  0  0  0  0  0  0  0  0  0  0  0
    0.7815    3.2254    2.1343 H   0  0  0  0  0  0  0  0  0  0  0  0
    1.5995    0.9799    1.4082 H   0  0  0  0  0  0  0  0  0  0  0  0
    0.0583    0.8356    2.2692 H   0  0  0  0  0  0  0  0  0  0  0  0
   -0.0484   -1.2033    1.1868 H   0  0  0  0  0  0  0  0  0  0  0  0
   -1.1303   -0.8995   -1.6540 H   0  0  0  0  0  0  0  0  0  0  0  0
   -1.1403   -2.3812   -0.7127 H   0  0  0  0  0  0  0  0  0  0  0  0
   -2.6706   -1.3168    0.9895 H   0  0  0  0  0  0  0  0  0  0  0  0
   -2.6342    0.1935    0.0684 H   0  0  0  0  0  0  0  0  0  0  0  0
   -3.3896   -1.2520   -0.6243 H   0  0  0  0  0  0  0  0  0  0  0  0
    2.1610   -0.9466    0.1954 H   0  0  0  0  0  0  0  0  0  0  0  0
    1.3595   -2.2769   -0.6529 H   0  0  0  0  0  0  0  0  0  0  0  0
    1.2094    0.3498   -1.6005 H   0  0  0  0  0  0  0  0  0  0  0  0
  1  2  1  0  0  0  0
  1 11  1  0  0  0  0
  2 12  1  0  0  0  0
  2 13  1  0  0  0  0
  3  2  1  0  0  0  0
  4  3  1  0  0  0  0
  4 14  1  1  0  0  0
  5  6  1  0  0  0  0
  5  4  1  0  0  0  0
  6 18  1  0  0  0  0
  6 17  1  0  0  0  0
  7  4  1  0  0  0  0
  7 20  1  0  0  0  0
  8 22  1  0  0  0  0
  8  7  1  0  0  0  0
  9  1  1  0  0  0  0
 10  1  1  0  0  0  0
 15  5  1  0  0  0  0
 16  5  1  0  0  0  0
 19  6  1  0  0  0  0
 21  7  1  0  0  0  0
M  END
