20
title
C -0.8958131 2.3767922 -0.5379823
O -0.6940531 0.9782249 -0.5687156
C -0.0028983392 0.4461837 0.5688549
C -1.0209979 0.19726035 1.6902143
O -2.0777502 -0.62869936 1.2423463
C 0.6955114 -0.8367942 0.12065858
C 1.7073755 -0.6218149 -1.0058671
O 2.3969069 -1.8148072 -1.3497752
H 0.060658153 2.9177685 -0.49101502
H -1.4092524 2.6472046 -1.4639655
H -1.5153568 2.6969025 0.31154513
H 0.7476228 1.1758317 0.9147514
H -0.5386241 -0.31253085 2.5308993
H -1.4014285 1.1609188 2.0668828
H -2.3312097 -0.27506575 0.3800041
H 1.2108265 -1.2776277 0.981655
H -0.070843704 -1.5555022 -0.19359574
H 1.206269 -0.17796227 -1.8764892
H 2.4840243 0.081927866 -0.683545
H 1.7502899 -2.4327178 -1.7054011
