title
 OpenBabel02282109593D

 20 19  0  0  1  0  0  0  0  0999 V2000
   -0.8958    2.3768   -0.5380 C   0  0  0  0  0  0  0  0  0  0  0  0
   -0.6941    0.9782   -0.5687 O   0  0  0  0  0  0  0  0  0  0  0  0
   -0.0029    0.4462    0.5689 C   0  0  1  0  0  0  0  0  0  0  0  0
   -1.0210    0.1973    1.6902 C   0  0  0  0  0  0  0  0  0  0  0  0
   -2.0778   -0.6287    1.2423 O   0  0  0  0  0  0  0  0  0  0  0  0
    0.6955   -0.8368    0.1207 C   0  0  0  0  0  0  0  0  0  0  0  0
    1.7074   -0.6218   -1.0059 C   0  0  0  0  0  0  0  0  0  0  0  0
    2.3969   -1.8148   -1.3498 O   0  0  0  0  0  0  0  0  0  0  0  0
    0.0607    2.9178   -0.4910 H   0  0  0  0  0  0  0  0  0  0  0  0
   -1.4093    2.6472   -1.4640 H   0  0  0  0  0  0  0  0  0  0  0  0
   -1.5154    2.6969    0.3115 H   0  0  0  0  0  0  0  0  0  0  0  0
    0.7476    1.1758    0.9148 H   0  0  0  0  0  0  0  0  0  0  0  0
   -0.5386   -0.3125    2.5309 H   0  0  0  0  0  0  0  0  0  0  0  0
   -1.4014    1.1609    2.0669 H   0  0  0  0  0  0  0  0  0  0  0  0
   -2.3312   -0.2751    0.3800 H   0  0  0  0  0  0  0  0  0  0  0  0
    1.2108   -1.2776    0.9817 H   0  0  0  0  0  0  0  0  0  0  0  0
   -0.0708   -1.5555   -0.1936 H   0  0  0  0  0  0  0  0  0  0  0  0
    1.2063   -0.1780   -1.8765 H   0  0  0  0  0  0  0  0  0  0  0  0
    2.4840    0.0819   -0.6835 H   0  0  0  0  0  0  0  0  0  0  0  0
    1.7503   -2.4327   -1.7054 H   0  0  0  0  0  0  0  0  0  0  0  0
  1  9  1  0  0  0  0
  1 11  1  0  0  0  0
  2  1  1  0  0  0  0
  2  3  1  0  0  0  0
  3 12  1  1  0  0  0
  3  4  1  0  0  0  0
  4 14  1  0  0  0  0
  4 13  1  0  0  0  0
  5  4  1  0  0  0  0
  6  3  1  0  0  0  0
  6 16  1  0  0  0  0
  7 19  1  0  0  0  0
  7  6  1  0  0  0  0
  8  7  1  0  0  0  0
 10  1  1  0  0  0  0
 15  5  1  0  0  0  0
 17  6  1  0  0  0  0
 18  7  1  0  0  0  0
 20  8  1  0  0  0  0
M  END
