20
title
C 0.8478387 3.045463 0.2149875
O 0.8736359 1.63555 0.22814977
C -0.41671386 1.0540679 0.33402702
C -0.29694238 -0.4690037 0.28445262
C -1.6823133 -1.0970573 0.44580898
O -1.5150455 -2.4967458 0.60762596
C 0.3830931 -0.9544566 -1.0087296
O 1.7653612 -0.6724189 -1.0571184
H 1.8810993 3.3914049 0.1404979
H 0.27620706 3.4333982 -0.64191055
H 0.40243578 3.4460738 1.1380453
H -0.8921513 1.3781508 1.274863
H -1.053617 1.4126735 -0.49409068
H 0.3210229 -0.79755193 1.129196
H -2.1915693 -0.65662676 1.3185109
H -2.2990162 -0.8702436 -0.44022024
H -2.3846593 -2.9064896 0.6151074
H 0.27619687 -2.0402384 -1.0756696
H -0.1523935 -0.5181132 -1.8734342
H 1.8592744 0.2541313 -0.8014829
