title
 OpenBabel02282109593D

 20 19  0  0  1  0  0  0  0  0999 V2000
    1.2232    2.9999    0.1048 C   0  0  0  0  0  0  0  0  0  0  0  0
    1.0861    1.6077    0.2706 O   0  0  0  0  0  0  0  0  0  0  0  0
   -0.2487    1.1675    0.1313 C   0  0  0  0  0  0  0  0  0  0  0  0
   -0.3102   -0.3466    0.2973 C   0  0  1  0  0  0  0  0  0  0  0  0
   -1.7522   -0.8337    0.4750 C   0  0  0  0  0  0  0  0  0  0  0  0
   -1.8081   -2.2409    0.5243 O   0  0  0  0  0  0  0  0  0  0  0  0
    0.1802   -1.0399   -0.8451 O   0  0  0  0  0  0  0  0  0  0  0  0
    1.5871   -1.2084   -0.8996 C   0  0  0  0  0  0  0  0  0  0  0  0
    2.2800    3.2431    0.2376 H   0  0  0  0  0  0  0  0  0  0  0  0
    0.9050    3.3258   -0.8978 H   0  0  0  0  0  0  0  0  0  0  0  0
    0.6332    3.5570    0.8495 H   0  0  0  0  0  0  0  0  0  0  0  0
   -0.8893    1.6492    0.8915 H   0  0  0  0  0  0  0  0  0  0  0  0
   -0.6470    1.4381   -0.8602 H   0  0  0  0  0  0  0  0  0  0  0  0
    0.2787   -0.6322    1.1824 H   0  0  0  0  0  0  0  0  0  0  0  0
   -2.1601   -0.4538    1.4171 H   0  0  0  0  0  0  0  0  0  0  0  0
   -2.3711   -0.4333   -0.3462 H   0  0  0  0  0  0  0  0  0  0  0  0
   -1.2415   -2.5344   -0.2012 H   0  0  0  0  0  0  0  0  0  0  0  0
    1.9598   -1.7339   -0.0079 H   0  0  0  0  0  0  0  0  0  0  0  0
    1.7969   -1.8177   -1.7825 H   0  0  0  0  0  0  0  0  0  0  0  0
    2.1064   -0.2487   -0.9810 H   0  0  0  0  0  0  0  0  0  0  0  0
  1  9  1  0  0  0  0
  1  2  1  0  0  0  0
  1 11  1  0  0  0  0
  3  2  1  0  0  0  0
  3  4  1  0  0  0  0
  3 12  1  0  0  0  0
  4  5  1  0  0  0  0
  4 14  1  1  0  0  0
  5  6  1  0  0  0  0
  5 15  1  0  0  0  0
  7  4  1  0  0  0  0
  8  7  1  0  0  0  0
  8 18  1  0  0  0  0
 10  1  1  0  0  0  0
 13  3  1  0  0  0  0
 16  5  1  0  0  0  0
 17  6  1  0  0  0  0
 19  8  1  0  0  0  0
 20  8  1  0  0  0  0
M  END
