title
 OpenBabel02282109593D

 20 19  0  0  0  0  0  0  0  0999 V2000
   -0.4375    2.9615    1.4835 O   0  0  0  0  0  0  0  0  0  0  0  0
   -0.3404    1.5473    1.4237 C   0  0  0  0  0  0  0  0  0  0  0  0
   -0.0127    1.0391    0.0181 C   0  0  0  0  0  0  0  0  0  0  0  0
    0.0697   -0.4909   -0.1078 C   0  0  0  0  0  0  0  0  0  0  0  0
   -1.3127   -1.1451   -0.1327 C   0  0  0  0  0  0  0  0  0  0  0  0
   -1.1395   -2.5537   -0.0458 O   0  0  0  0  0  0  0  0  0  0  0  0
    0.8741   -0.8988   -1.3536 C   0  0  0  0  0  0  0  0  0  0  0  0
    2.2151   -0.4274   -1.3264 O   0  0  0  0  0  0  0  0  0  0  0  0
    0.4037    3.3232    1.1860 H   0  0  0  0  0  0  0  0  0  0  0  0
    0.4091    1.1671    2.1380 H   0  0  0  0  0  0  0  0  0  0  0  0
   -1.3149    1.1776    1.7600 H   0  0  0  0  0  0  0  0  0  0  0  0
   -0.7568    1.4378   -0.6843 H   0  0  0  0  0  0  0  0  0  0  0  0
    0.9589    1.4488   -0.2848 H   0  0  0  0  0  0  0  0  0  0  0  0
    0.5965   -0.8953    0.7705 H   0  0  0  0  0  0  0  0  0  0  0  0
   -1.9230   -0.7737    0.7038 H   0  0  0  0  0  0  0  0  0  0  0  0
   -1.8321   -0.8641   -1.0644 H   0  0  0  0  0  0  0  0  0  0  0  0
   -2.0038   -2.9696   -0.1105 H   0  0  0  0  0  0  0  0  0  0  0  0
    0.8333   -1.9880   -1.4746 H   0  0  0  0  0  0  0  0  0  0  0  0
    0.4220   -0.4473   -2.2453 H   0  0  0  0  0  0  0  0  0  0  0  0
    2.6830   -0.9213   -0.6456 H   0  0  0  0  0  0  0  0  0  0  0  0
  2  1  1  0  0  0  0
  2 11  1  0  0  0  0
  2 10  1  0  0  0  0
  3  2  1  0  0  0  0
  4  3  1  0  0  0  0
  4 14  1  0  0  0  0
  5  4  1  0  0  0  0
  5  6  1  0  0  0  0
  5 15  1  0  0  0  0
  7  8  1  0  0  0  0
  7  4  1  0  0  0  0
  8 20  1  0  0  0  0
  9  1  1  0  0  0  0
 12  3  1  0  0  0  0
 13  3  1  0  0  0  0
 16  5  1  0  0  0  0
 17  6  1  0  0  0  0
 18  7  1  0  0  0  0
 19  7  1  0  0  0  0
M  END
