title
 OpenBabel02282109593D

 12 11  0  0  0  0  0  0  0  0999 V2000
    0.6329    1.0751    1.5498 C   0  0  0  0  0  0  0  0  0  0  0  0
   -0.5514    0.8660    0.6462 C   0  0  0  0  0  0  0  0  0  0  0  0
   -1.5919    1.4536    0.7070 O   0  0  0  0  0  0  0  0  0  0  0  0
   -0.3870   -0.2401   -0.4865 C   0  0  0  0  0  0  0  0  0  0  0  0
    0.6946    0.1241   -1.4038 C   0  0  0  0  0  0  0  0  0  0  0  0
    1.5436    0.4636   -2.1093 N   0  0  0  0  0  0  0  0  0  0  0  0
   -0.1694   -1.5577    0.1138 C   0  0  0  0  0  0  0  0  0  0  0  0
   -0.0184   -2.5773    0.6348 N   0  0  0  0  0  0  0  0  0  0  0  0
    0.8844    0.1396    2.0605 H   0  0  0  0  0  0  0  0  0  0  0  0
    1.5083    1.3646    0.9589 H   0  0  0  0  0  0  0  0  0  0  0  0
    0.4008    1.8500    2.2799 H   0  0  0  0  0  0  0  0  0  0  0  0
   -1.3378   -0.2413   -1.0291 H   0  0  0  0  0  0  0  0  0  0  0  0
  1  9  1  0  0  0  0
  1 11  1  0  0  0  0
  2  3  2  0  0  0  0
  2  1  1  0  0  0  0
  4  7  1  0  0  0  0
  4  2  1  0  0  0  0
  5  4  1  0  0  0  0
  6  5  3  0  0  0  0
  7  8  3  0  0  0  0
 10  1  1  0  0  0  0
 12  4  1  0  0  0  0
M  END
