title
 OpenBabel02282109593D

 13 12  0  0  1  0  0  0  0  0999 V2000
    0.9424    1.9120    0.1496 N   0  0  0  0  0  0  0  0  0  0  0  0
    0.9086    0.5547   -0.0033 C   0  0  0  0  0  0  0  0  0  0  0  0
    2.1216   -0.0563   -0.1604 N   0  0  0  0  0  0  0  0  0  0  0  0
    2.1077   -1.0665   -0.1377 H   0  0  0  0  0  0  0  0  0  0  0  0
    2.9010    0.3594    0.3273 H   0  0  0  0  0  0  0  0  0  0  0  0
   -0.2878   -0.1477   -0.0012 C   0  0  2  0  0  0  0  0  0  0  0  0
   -1.5280    0.5345    0.0099 C   0  0  0  0  0  0  0  0  0  0  0  0
   -2.5658    1.1507    0.0225 C   0  0  0  0  0  0  0  0  0  0  0  0
   -0.2330   -1.5643   -0.0036 C   0  0  0  0  0  0  0  0  0  0  0  0
   -0.1188   -2.7205   -0.0103 N   0  0  0  0  0  0  0  0  0  0  0  0
    1.6774    2.4030   -0.3370 H   0  0  0  0  0  0  0  0  0  0  0  0
    0.0385    2.3628    0.1143 H   0  0  0  0  0  0  0  0  0  0  0  0
   -3.4920    1.6690    0.0359 H   0  0  0  0  0  0  0  0  0  0  0  0
  2  6  1  0  0  0  0
  2  1  1  0  0  0  0
  3  4  1  0  0  0  0
  3  2  2  0  0  0  0
  3  5  1  0  0  0  0
  6  9  1  1  0  0  0
  6  7  1  0  0  0  0
  7  8  3  0  0  0  0
  8 13  1  0  0  0  0
 10  9  3  0  0  0  0
 11  1  1  0  0  0  0
 12  1  1  0  0  0  0
M  RAD  1   6   2
M  END
