14
title
C -0.11044951 2.2014542 0.6497406
C -0.24375828 0.709835 0.8480597
O -0.28791803 0.16823015 1.9188834
C -0.30260557 -0.116579734 -0.48270684
C 1.1511323 -0.24492595 -0.9856556
O 1.7406433 0.6492168 -1.5291125
C -0.9212319 -1.4173753 -0.31842023
C -1.3964857 -2.514043 -0.20267923
H 0.63858944 2.4207523 -0.116975315
H -1.0665568 2.5998755 0.28893942
H 0.14462198 2.6811323 1.5951129
H -0.8301419 0.49206835 -1.2259206
H 1.616071 -1.2296182 -0.7798156
H -1.8332509 -3.4756348 -0.08931673
