title
 OpenBabel02282109593D

 13 12  0  0  1  0  0  0  0  0999 V2000
    0.5990    1.9568    0.3428 N   0  0  0  0  0  0  0  0  0  0  0  0
    0.8898    0.6290    0.3051 C   0  0  0  0  0  0  0  0  0  0  0  0
    2.0027    0.1611    0.3183 O   0  0  0  0  0  0  0  0  0  0  0  0
   -0.3903   -0.2788    0.3300 C   0  0  1  0  0  0  0  0  0  0  0  0
   -1.3939    0.0958   -0.7719 C   0  0  0  0  0  0  0  0  0  0  0  0
   -1.8229    1.2113   -0.9304 O   0  0  0  0  0  0  0  0  0  0  0  0
   -0.0714   -1.6943    0.2967 C   0  0  0  0  0  0  0  0  0  0  0  0
    0.1304   -2.8755    0.2279 C   0  0  0  0  0  0  0  0  0  0  0  0
    1.3731    2.5899    0.2156 H   0  0  0  0  0  0  0  0  0  0  0  0
   -0.3266    2.2638    0.0766 H   0  0  0  0  0  0  0  0  0  0  0  0
   -0.8966   -0.0270    1.2738 H   0  0  0  0  0  0  0  0  0  0  0  0
   -1.7084   -0.7467   -1.4177 H   0  0  0  0  0  0  0  0  0  0  0  0
    0.3368   -3.9166    0.1837 H   0  0  0  0  0  0  0  0  0  0  0  0
  2  3  2  0  0  0  0
  2  4  1  0  0  0  0
  2  1  1  0  0  0  0
  4 11  1  1  0  0  0
  5  4  1  0  0  0  0
  6  5  2  0  0  0  0
  7  4  1  0  0  0  0
  8  7  3  0  0  0  0
  9  1  1  0  0  0  0
 10  1  1  0  0  0  0
 12  5  1  0  0  0  0
 13  8  1  0  0  0  0
M  END
