title
 OpenBabel02282109593D

 15 14  0  0  0  0  0  0  0  0999 V2000
    0.0640    2.0379    0.9891 C   0  0  0  0  0  0  0  0  0  0  0  0
   -0.2287    0.5614    1.0477 C   0  0  0  0  0  0  0  0  0  0  0  0
   -0.6776   -0.0809    2.0481 N   0  0  0  0  0  0  0  0  0  0  0  0
    0.0883   -0.2175   -0.1102 N   0  0  0  0  0  0  0  0  0  0  0  0
   -0.0624    0.2181   -1.4319 C   0  0  0  0  0  0  0  0  0  0  0  0
   -0.5818    1.3332   -1.7434 N   0  0  0  0  0  0  0  0  0  0  0  0
    0.5402   -1.5381    0.0839 C   0  0  0  0  0  0  0  0  0  0  0  0
    0.7913   -2.3002   -0.8151 O   0  0  0  0  0  0  0  0  0  0  0  0
    1.0527    2.2250    0.5602 H   0  0  0  0  0  0  0  0  0  0  0  0
   -0.6565    2.5462    0.3470 H   0  0  0  0  0  0  0  0  0  0  0  0
    0.0231    2.4522    1.9990 H   0  0  0  0  0  0  0  0  0  0  0  0
   -0.7932    0.5421    2.8467 H   0  0  0  0  0  0  0  0  0  0  0  0
    0.3051   -0.5430   -2.1213 H   0  0  0  0  0  0  0  0  0  0  0  0
   -0.5924    1.4356   -2.7566 H   0  0  0  0  0  0  0  0  0  0  0  0
    0.6445   -1.7714    1.1506 H   0  0  0  0  0  0  0  0  0  0  0  0
  1  2  1  0  0  0  0
  1 11  1  0  0  0  0
  2  3  2  0  0  0  0
  3 12  1  0  0  0  0
  4  7  1  0  0  0  0
  4  2  1  0  0  0  0
  5  4  1  0  0  0  0
  6  5  2  0  0  0  0
  7 15  1  0  0  0  0
  8  7  2  0  0  0  0
  9  1  1  0  0  0  0
 10  1  1  0  0  0  0
 13  5  1  0  0  0  0
 14  6  1  0  0  0  0
M  END
