14
title
C -0.22559737 2.1411912 1.2134985
C 0.038045384 0.6508078 1.2259669
N 0.25712907 -0.049082577 2.2641475
N 0.0071136067 -0.027374206 -0.025996579
C 0.22424883 0.66497076 -1.2352709
O 0.10242744 0.20606443 -2.3346915
C -0.2539412 -1.4362427 -0.006993665
O -0.124781094 -2.1639524 -0.9458672
H 0.63689494 2.7013018 0.8374278
H -1.0866047 2.399291 0.59056896
H -0.4158566 2.4764826 2.234681
H 0.19072188 0.52103823 3.1053314
H 0.5357068 1.7074298 -1.0570825
H -0.5893238 -1.7457944 0.99174947
