15
title
C -0.90400565 1.3030672 1.2468052
C 0.2558742 0.47457418 0.78446525
O 1.3314655 0.3984375 1.2886993
N -0.033147678 -0.31529897 -0.44368157
C -0.565069 -1.5817572 -0.30915365
N -0.88120246 -2.0462096 0.8311514
C 0.20935194 0.25905067 -1.675101
N 0.5955633 1.4660343 -1.7748911
H -1.1869375 1.995758 0.44801816
H -1.7534573 0.6435622 1.4502134
H -0.63070583 1.8550996 2.1460552
H -0.6754874 -2.0962086 -1.2714946
H -1.2510087 -2.9896939 0.7473056
H 0.024929216 -0.4329266 -2.505825
H 0.730957 1.7229031 -2.7493887
