title
 OpenBabel02282109593D

 14 13  0  0  0  0  0  0  0  0999 V2000
    0.0147    2.1221    1.2549 C   0  0  0  0  0  0  0  0  0  0  0  0
   -0.0276    0.6068    1.2105 C   0  0  0  0  0  0  0  0  0  0  0  0
   -0.0854   -0.0504    2.2235 O   0  0  0  0  0  0  0  0  0  0  0  0
   -0.0003   -0.0366   -0.0556 N   0  0  0  0  0  0  0  0  0  0  0  0
   -0.1214   -1.4580   -0.0340 C   0  0  0  0  0  0  0  0  0  0  0  0
    0.2601   -2.1793   -0.9965 N   0  0  0  0  0  0  0  0  0  0  0  0
    0.0607    0.6954   -1.2629 C   0  0  0  0  0  0  0  0  0  0  0  0
   -0.0770    0.2430   -2.3623 O   0  0  0  0  0  0  0  0  0  0  0  0
    0.9440    2.5140    0.8307 H   0  0  0  0  0  0  0  0  0  0  0  0
   -0.8207    2.5742    0.7133 H   0  0  0  0  0  0  0  0  0  0  0  0
   -0.0415    2.4044    2.3057 H   0  0  0  0  0  0  0  0  0  0  0  0
   -0.5515   -1.7930    0.9090 H   0  0  0  0  0  0  0  0  0  0  0  0
    0.0706   -3.1584   -0.7809 H   0  0  0  0  0  0  0  0  0  0  0  0
    0.2445    1.7646   -1.0795 H   0  0  0  0  0  0  0  0  0  0  0  0
  1 11  1  0  0  0  0
  2  1  1  0  0  0  0
  2  3  2  0  0  0  0
  4  5  1  0  0  0  0
  4  2  1  0  0  0  0
  5 12  1  0  0  0  0
  6 13  1  0  0  0  0
  6  5  2  0  0  0  0
  7 14  1  0  0  0  0
  7  4  1  0  0  0  0
  8  7  2  0  0  0  0
  9  1  1  0  0  0  0
 10  1  1  0  0  0  0
M  END
