title
 OpenBabel02282109593D

 13 12  0  0  0  0  0  0  0  0999 V2000
    1.1838    2.1855   -0.0001 C   0  0  0  0  0  0  0  0  0  0  0  0
    1.2068    0.6695   -0.0080 C   0  0  0  0  0  0  0  0  0  0  0  0
    2.2459    0.0570   -0.0208 O   0  0  0  0  0  0  0  0  0  0  0  0
   -0.0409   -0.0285    0.0003 N   0  0  0  0  0  0  0  0  0  0  0  0
    0.0266   -1.4635   -0.0079 C   0  0  0  0  0  0  0  0  0  0  0  0
   -0.9226   -2.1887   -0.0034 O   0  0  0  0  0  0  0  0  0  0  0  0
   -1.2822    0.6556    0.0159 C   0  0  0  0  0  0  0  0  0  0  0  0
   -2.3606    0.1385    0.0237 O   0  0  0  0  0  0  0  0  0  0  0  0
    2.2228    2.5129   -0.0086 H   0  0  0  0  0  0  0  0  0  0  0  0
    0.6714    2.5893   -0.8781 H   0  0  0  0  0  0  0  0  0  0  0  0
    0.6886    2.5804    0.8918 H   0  0  0  0  0  0  0  0  0  0  0  0
    1.0738   -1.7905   -0.0198 H   0  0  0  0  0  0  0  0  0  0  0  0
   -1.1470    1.7478    0.0200 H   0  0  0  0  0  0  0  0  0  0  0  0
  1 11  1  0  0  0  0
  2  1  1  0  0  0  0
  2  4  1  0  0  0  0
  3  2  2  0  0  0  0
  4  7  1  0  0  0  0
  5  6  2  0  0  0  0
  5  4  1  0  0  0  0
  7 13  1  0  0  0  0
  7  8  2  0  0  0  0
  9  1  1  0  0  0  0
 10  1  1  0  0  0  0
 12  5  1  0  0  0  0
M  END
