title
 OpenBabel02282109593D

 13 12  0  0  0  0  0  0  0  0999 V2000
    2.0625   -0.1821   -0.2811 N   0  0  0  0  0  0  0  0  0  0  0  0
    1.0302    0.6541   -0.0861 C   0  0  0  0  0  0  0  0  0  0  0  0
    1.0990    1.8622   -0.0066 O   0  0  0  0  0  0  0  0  0  0  0  0
   -0.2597   -0.0051    0.0332 N   0  0  0  0  0  0  0  0  0  0  0  0
   -0.5155   -1.3750   -0.0332 C   0  0  0  0  0  0  0  0  0  0  0  0
    0.3806   -2.2602   -0.2134 N   0  0  0  0  0  0  0  0  0  0  0  0
   -1.3749    0.8389    0.2392 C   0  0  0  0  0  0  0  0  0  0  0  0
   -2.5029    0.4321    0.3559 O   0  0  0  0  0  0  0  0  0  0  0  0
    2.9712    0.2395   -0.3681 H   0  0  0  0  0  0  0  0  0  0  0  0
    1.9064   -1.1867   -0.3345 H   0  0  0  0  0  0  0  0  0  0  0  0
   -1.5820   -1.5655    0.0911 H   0  0  0  0  0  0  0  0  0  0  0  0
   -0.0311   -3.1897   -0.2274 H   0  0  0  0  0  0  0  0  0  0  0  0
   -1.0719    1.8905    0.2765 H   0  0  0  0  0  0  0  0  0  0  0  0
  1  2  1  0  0  0  0
  2  3  2  0  0  0  0
  2  4  1  0  0  0  0
  4  7  1  0  0  0  0
  5  4  1  0  0  0  0
  5 11  1  0  0  0  0
  6  5  2  0  0  0  0
  7 13  1  0  0  0  0
  7  8  2  0  0  0  0
  9  1  1  0  0  0  0
 10  1  1  0  0  0  0
 12  6  1  0  0  0  0
M  END
