17
title
C -0.74360776 2.0448127 0.7771315
C -0.7293973 0.5129667 0.76859117
C -2.151216 -0.058848824 0.7863085
C 0.06623453 -0.015031841 -0.4738442
C 1.4431497 0.4810697 -0.52355915
C 2.5700822 0.8935622 -0.55349654
C 0.066774964 -1.4872574 -0.5185754
N 0.049760997 -2.642003 -0.54342896
H 0.2674458 2.4583776 0.78033394
H -1.2701904 2.4367123 -0.10128312
H -1.266051 2.4095967 1.6662201
H -0.19236106 0.15883279 1.656171
H -2.7146392 0.2633393 -0.097638175
H -2.1523175 -1.1516079 0.8098951
H -2.6883461 0.29946563 1.6691903
H -0.4645236 0.32992774 -1.3735334
H 3.5692866 1.2528684 -0.586489
