title
 OpenBabel02282109593D

 17 16  0  0  1  0  0  0  0  0999 V2000
   -0.7436    2.0448    0.7771 C   0  0  0  0  0  0  0  0  0  0  0  0
   -0.7294    0.5130    0.7686 C   0  0  0  0  0  0  0  0  0  0  0  0
   -2.1512   -0.0588    0.7863 C   0  0  0  0  0  0  0  0  0  0  0  0
    0.0662   -0.0150   -0.4738 C   0  0  1  0  0  0  0  0  0  0  0  0
    1.4431    0.4811   -0.5236 C   0  0  0  0  0  0  0  0  0  0  0  0
    2.5701    0.8936   -0.5535 C   0  0  0  0  0  0  0  0  0  0  0  0
    0.0668   -1.4873   -0.5186 C   0  0  0  0  0  0  0  0  0  0  0  0
    0.0498   -2.6420   -0.5434 N   0  0  0  0  0  0  0  0  0  0  0  0
    0.2674    2.4584    0.7803 H   0  0  0  0  0  0  0  0  0  0  0  0
   -1.2702    2.4367   -0.1013 H   0  0  0  0  0  0  0  0  0  0  0  0
   -1.2661    2.4096    1.6662 H   0  0  0  0  0  0  0  0  0  0  0  0
   -0.1924    0.1588    1.6562 H   0  0  0  0  0  0  0  0  0  0  0  0
   -2.7146    0.2633   -0.0976 H   0  0  0  0  0  0  0  0  0  0  0  0
   -2.1523   -1.1516    0.8099 H   0  0  0  0  0  0  0  0  0  0  0  0
   -2.6883    0.2995    1.6692 H   0  0  0  0  0  0  0  0  0  0  0  0
   -0.4645    0.3299   -1.3735 H   0  0  0  0  0  0  0  0  0  0  0  0
    3.5693    1.2529   -0.5865 H   0  0  0  0  0  0  0  0  0  0  0  0
  1  9  1  0  0  0  0
  1 11  1  0  0  0  0
  2  1  1  0  0  0  0
  2  3  1  0  0  0  0
  2 12  1  0  0  0  0
  3 14  1  0  0  0  0
  3 15  1  0  0  0  0
  4 16  1  6  0  0  0
  4  2  1  0  0  0  0
  5  4  1  0  0  0  0
  6  5  3  0  0  0  0
  7  4  1  0  0  0  0
  8  7  3  0  0  0  0
 10  1  1  0  0  0  0
 13  3  1  0  0  0  0
 17  6  1  0  0  0  0
M  END
