16
title
C -0.350118 2.052143 -0.98048687
C -0.3137682 0.520861 -1.014166
C 0.39755675 -0.0012788889 -2.2666318
C 0.3842441 -0.033153187 0.27617887
C -0.2688611 0.44559085 1.5028539
N -0.78803164 0.84954953 2.451679
C 0.43991467 -1.5019366 0.28328958
N 0.4874991 -2.6552074 0.25699106
H 0.66366744 2.4693534 -0.98009294
H -0.8635233 2.4300652 -1.8688545
H -0.8756012 2.4299998 -0.099808075
H -1.3408948 0.13900505 -1.0015912
H 1.4344081 0.35258293 -2.3059604
H 0.40736023 -1.0934342 -2.306668
H -0.11184504 0.36554137 -3.1619308
H 1.4193279 0.33628187 0.28779867
