title
 OpenBabel02282109593D

 16 15  0  0  1  0  0  0  0  0999 V2000
    1.0117    2.0382    0.3069 C   0  0  0  0  0  0  0  0  0  0  0  0
    0.9755    0.5219    0.2012 C   0  0  1  0  0  0  0  0  0  0  0  0
    1.6522    0.0032    1.3257 O   0  0  0  0  0  0  0  0  0  0  0  0
   -0.4967   -0.0276    0.1658 C   0  0  0  0  0  0  0  0  0  0  0  0
   -1.2304    0.4428   -1.0095 C   0  0  0  0  0  0  0  0  0  0  0  0
   -1.8080    0.8430   -1.9836 C   0  0  0  0  0  0  0  0  0  0  0  0
   -0.4739   -1.4924    0.2336 C   0  0  0  0  0  0  0  0  0  0  0  0
   -0.3867   -2.6892    0.3065 C   0  0  0  0  0  0  0  0  0  0  0  0
    2.0496    2.3792    0.3266 H   0  0  0  0  0  0  0  0  0  0  0  0
    0.5023    2.4995   -0.5417 H   0  0  0  0  0  0  0  0  0  0  0  0
    0.5284    2.3647    1.2334 H   0  0  0  0  0  0  0  0  0  0  0  0
    1.4583    0.2004   -0.7343 H   0  0  0  0  0  0  0  0  0  0  0  0
    1.5989   -0.9596    1.2804 H   0  0  0  0  0  0  0  0  0  0  0  0
   -0.9876    0.3520    1.0733 H   0  0  0  0  0  0  0  0  0  0  0  0
   -2.3290    1.1924   -2.8407 H   0  0  0  0  0  0  0  0  0  0  0  0
   -0.3456   -3.7493    0.3613 H   0  0  0  0  0  0  0  0  0  0  0  0
  1  9  1  0  0  0  0
  1 11  1  0  0  0  0
  2 12  1  6  0  0  0
  2  1  1  0  0  0  0
  2  3  1  0  0  0  0
  4  2  1  0  0  0  0
  4  7  1  0  0  0  0
  4 14  1  0  0  0  0
  5  4  1  0  0  0  0
  6  5  3  0  0  0  0
  7  8  3  0  0  0  0
  8 16  1  0  0  0  0
 10  1  1  0  0  0  0
 13  3  1  0  0  0  0
 15  6  1  0  0  0  0
M  END
