18
title
C 1.0628259 2.0024173 0.18116556
C 1.1038479 0.46865013 0.1849874
C 1.8997018 -0.05829808 1.3846471
C -0.34182382 -0.124153465 0.16864383
C -1.0834945 0.33629435 -1.0914024
O -1.9984099 1.113889 -1.097004
C -0.355047 -1.5827911 0.17821445
C -0.38629282 -2.7836075 0.11927307
H 2.078802 2.4080052 0.16206452
H 0.5239559 2.4037197 -0.6816082
H 0.5689743 2.381137 1.0833377
H 1.6002284 0.12605882 -0.73305535
H 1.439891 0.26071608 2.327286
H 1.9494627 -1.1497383 1.384538
H 2.92176 0.33276412 1.3640645
H -0.89687383 0.2686457 1.0292441
H -0.6882291 -0.11490747 -2.0289361
H -0.41557705 -3.8450615 0.09330153
