title
 OpenBabel02282109593D

 16 15  0  0  1  0  0  0  0  0999 V2000
   -0.0579    2.0124    1.2010 C   0  0  0  0  0  0  0  0  0  0  0  0
   -0.1065    0.4943    1.0488 C   0  0  1  0  0  0  0  0  0  0  0  0
   -1.4227   -0.0161    1.1561 O   0  0  0  0  0  0  0  0  0  0  0  0
    0.5570    0.0088   -0.2851 C   0  0  1  0  0  0  0  0  0  0  0  0
    0.6563   -1.5238   -0.2378 C   0  0  0  0  0  0  0  0  0  0  0  0
    1.5641   -2.0923    0.3052 O   0  0  0  0  0  0  0  0  0  0  0  0
   -0.2063    0.4523   -1.4432 C   0  0  0  0  0  0  0  0  0  0  0  0
   -0.8891    0.7800   -2.3781 C   0  0  0  0  0  0  0  0  0  0  0  0
    0.9746    2.3751    1.2261 H   0  0  0  0  0  0  0  0  0  0  0  0
   -0.5714    2.5036    0.3676 H   0  0  0  0  0  0  0  0  0  0  0  0
   -0.5519    2.3002    2.1326 H   0  0  0  0  0  0  0  0  0  0  0  0
    0.4546    0.0222    1.8618 H   0  0  0  0  0  0  0  0  0  0  0  0
   -1.9372    0.3594    0.4304 H   0  0  0  0  0  0  0  0  0  0  0  0
    1.5828    0.3931   -0.3171 H   0  0  0  0  0  0  0  0  0  0  0  0
   -0.1822   -2.0677   -0.7179 H   0  0  0  0  0  0  0  0  0  0  0  0
   -1.4613    1.0785   -3.2221 H   0  0  0  0  0  0  0  0  0  0  0  0
  1  9  1  0  0  0  0
  1 11  1  0  0  0  0
  2  3  1  0  0  0  0
  2  1  1  0  0  0  0
  2 12  1  1  0  0  0
  4 14  1  6  0  0  0
  4  5  1  0  0  0  0
  4  2  1  0  0  0  0
  5  6  2  0  0  0  0
  7  4  1  0  0  0  0
  8  7  3  0  0  0  0
 10  1  1  0  0  0  0
 13  3  1  0  0  0  0
 15  5  1  0  0  0  0
 16  8  1  0  0  0  0
M  END
