16
title
C -0.057904594 2.0123577 1.2009532
C -0.10646841 0.49427423 1.0488428
O -1.4226907 -0.016091652 1.1561283
C 0.5570224 0.008832209 -0.28508937
C 0.65632594 -1.5238204 -0.23781668
O 1.564105 -2.0923398 0.3052169
C -0.20627359 0.45234537 -1.4431959
C -0.8890611 0.7800403 -2.378076
H 0.9745966 2.3750665 1.2261343
H -0.571415 2.503581 0.36764777
H -0.55193466 2.3001595 2.132594
H 0.4545644 0.022232704 1.8617947
H -1.9372494 0.35936683 0.43040413
H 1.5828087 0.3930585 -0.31710756
H -0.18224084 -2.0676625 -0.71789694
H -1.4612592 1.0784607 -3.2220993
