15
title
C -0.31217012 1.9943503 -1.0009913
C -0.46673274 0.4778354 -0.9359617
O -0.10885852 -0.14949712 -2.1467638
C 0.35277492 -0.13106784 0.26368764
C -0.26736468 0.28691983 1.6045191
O 0.021109942 1.3064214 2.1687012
C 0.4062698 -1.5883106 0.17878488
N 0.4342689 -2.7432446 0.17176154
H 0.73294544 2.2649987 -1.1960784
H -0.9264016 2.3859835 -1.8153411
H -0.60756975 2.4773912 -0.06714097
H -1.5193645 0.21249983 -0.78627247
H 0.7654526 0.16199335 -2.408333
H 1.3695469 0.27702856 0.22784653
H -1.0339365 -0.41200826 1.999176
