title
 OpenBabel02282109593D

 17 16  0  0  1  0  0  0  0  0999 V2000
    0.8835    2.0801   -0.8103 C   0  0  0  0  0  0  0  0  0  0  0  0
    1.0087    0.6691   -0.4679 N   0  0  0  0  0  0  0  0  0  0  0  0
    1.7161    0.4734    0.7942 C   0  0  0  0  0  0  0  0  0  0  0  0
   -0.2632   -0.0502   -0.5310 C   0  0  1  0  0  0  0  0  0  0  0  0
    0.0306   -1.5574   -0.6437 C   0  0  0  0  0  0  0  0  0  0  0  0
   -0.6102   -2.4349   -0.1387 O   0  0  0  0  0  0  0  0  0  0  0  0
   -1.2328    0.2731    0.5199 C   0  0  0  0  0  0  0  0  0  0  0  0
   -1.9902    0.5816    1.4006 C   0  0  0  0  0  0  0  0  0  0  0  0
    1.8811    2.5274   -0.8547 H   0  0  0  0  0  0  0  0  0  0  0  0
    0.4218    2.1819   -1.7975 H   0  0  0  0  0  0  0  0  0  0  0  0
    0.2810    2.6533   -0.0854 H   0  0  0  0  0  0  0  0  0  0  0  0
    1.2009    0.9275    1.6564 H   0  0  0  0  0  0  0  0  0  0  0  0
    1.8343   -0.5959    0.9970 H   0  0  0  0  0  0  0  0  0  0  0  0
    2.7143    0.9136    0.7145 H   0  0  0  0  0  0  0  0  0  0  0  0
   -0.7110    0.1982   -1.5077 H   0  0  0  0  0  0  0  0  0  0  0  0
    0.9179   -1.7487   -1.2865 H   0  0  0  0  0  0  0  0  0  0  0  0
   -2.6724    0.8358    2.1740 H   0  0  0  0  0  0  0  0  0  0  0  0
  1  2  1  0  0  0  0
  1 11  1  0  0  0  0
  2  3  1  0  0  0  0
  3 13  1  0  0  0  0
  3 12  1  0  0  0  0
  4 15  1  6  0  0  0
  4  2  1  0  0  0  0
  4  7  1  0  0  0  0
  5  4  1  0  0  0  0
  5  6  2  0  0  0  0
  7  8  3  0  0  0  0
  8 17  1  0  0  0  0
  9  1  1  0  0  0  0
 10  1  1  0  0  0  0
 14  3  1  0  0  0  0
 16  5  1  0  0  0  0
M  END
