title
 OpenBabel02282109593D

 16 15  0  0  1  0  0  0  0  0999 V2000
    1.1508    2.0515   -0.4924 C   0  0  0  0  0  0  0  0  0  0  0  0
    1.0845    0.5965   -0.4006 N   0  0  0  0  0  0  0  0  0  0  0  0
    1.7878    0.0820    0.7732 C   0  0  0  0  0  0  0  0  0  0  0  0
   -0.2621    0.0719   -0.5382 C   0  0  1  0  0  0  0  0  0  0  0  0
   -0.2086   -1.4237   -0.9033 C   0  0  0  0  0  0  0  0  0  0  0  0
   -0.9702   -2.2578   -0.5071 O   0  0  0  0  0  0  0  0  0  0  0  0
   -1.1511    0.3311    0.6155 C   0  0  0  0  0  0  0  0  0  0  0  0
   -1.7821    0.5932    1.5472 N   0  0  0  0  0  0  0  0  0  0  0  0
    2.2003    2.3586   -0.5088 H   0  0  0  0  0  0  0  0  0  0  0  0
    0.6848    2.3849   -1.4247 H   0  0  0  0  0  0  0  0  0  0  0  0
    0.6548    2.5640    0.3485 H   0  0  0  0  0  0  0  0  0  0  0  0
    1.3573    0.4343    1.7246 H   0  0  0  0  0  0  0  0  0  0  0  0
    1.7665   -1.0124    0.7751 H   0  0  0  0  0  0  0  0  0  0  0  0
    2.8330    0.3986    0.7262 H   0  0  0  0  0  0  0  0  0  0  0  0
   -0.7158    0.5545   -1.4175 H   0  0  0  0  0  0  0  0  0  0  0  0
    0.6212   -1.6384   -1.6095 H   0  0  0  0  0  0  0  0  0  0  0  0
  1  2  1  0  0  0  0
  1 11  1  0  0  0  0
  2  3  1  0  0  0  0
  3 13  1  0  0  0  0
  3 12  1  0  0  0  0
  4 15  1  6  0  0  0
  4  2  1  0  0  0  0
  4  7  1  0  0  0  0
  5  4  1  0  0  0  0
  5  6  2  0  0  0  0
  7  8  3  0  0  0  0
  9  1  1  0  0  0  0
 10  1  1  0  0  0  0
 14  3  1  0  0  0  0
 16  5  1  0  0  0  0
M  END
