16
title
C 1.150849 2.0515423 -0.49243036
N 1.0845153 0.5964688 -0.4006314
C 1.7877961 0.082018375 0.7732142
C -0.26211444 0.07189372 -0.538208
C -0.20860292 -1.423664 -0.90333873
O -0.97021437 -2.257812 -0.50714105
C -1.1511217 0.33105403 0.61552083
N -1.7821015 0.5932101 1.5471941
H 2.2003112 2.3586462 -0.5088428
H 0.68478745 2.3848567 -1.4247352
H 0.6548034 2.5640194 0.3485203
H 1.3573369 0.43427703 1.7246474
H 1.7664824 -1.0123508 0.77508605
H 2.833041 0.3985856 0.72617984
H -0.71575975 0.55451095 -1.4174755
H 0.6211727 -1.6383684 -1.6095434
