title
 OpenBabel02282109593D

 18 17  0  0  0  0  0  0  0  0999 V2000
    1.1943    2.0051    0.0131 C   0  0  0  0  0  0  0  0  0  0  0  0
    1.1791    0.4705    0.0497 C   0  0  0  0  0  0  0  0  0  0  0  0
    1.9639   -0.0556    1.2596 C   0  0  0  0  0  0  0  0  0  0  0  0
   -0.2827   -0.0751    0.0504 C   0  0  0  0  0  0  0  0  0  0  0  0
   -1.0195    0.4181   -1.1864 C   0  0  0  0  0  0  0  0  0  0  0  0
   -2.0083    1.1012   -1.1677 O   0  0  0  0  0  0  0  0  0  0  0  0
   -0.2670   -1.5966    0.0331 C   0  0  0  0  0  0  0  0  0  0  0  0
   -0.7398   -2.2963    0.8884 O   0  0  0  0  0  0  0  0  0  0  0  0
    2.2244    2.3738   -0.0064 H   0  0  0  0  0  0  0  0  0  0  0  0
    0.6773    2.4050   -0.8641 H   0  0  0  0  0  0  0  0  0  0  0  0
    0.7062    2.4198    0.9019 H   0  0  0  0  0  0  0  0  0  0  0  0
    1.6656    0.0993   -0.8643 H   0  0  0  0  0  0  0  0  0  0  0  0
    2.9919    0.3188    1.2368 H   0  0  0  0  0  0  0  0  0  0  0  0
    1.5052    0.2802    2.1960 H   0  0  0  0  0  0  0  0  0  0  0  0
    2.0045   -1.1484    1.2854 H   0  0  0  0  0  0  0  0  0  0  0  0
   -0.8257    0.2597    0.9385 H   0  0  0  0  0  0  0  0  0  0  0  0
   -0.5572    0.1003   -2.1504 H   0  0  0  0  0  0  0  0  0  0  0  0
    0.2413   -2.0380   -0.8562 H   0  0  0  0  0  0  0  0  0  0  0  0
  1  2  1  0  0  0  0
  1 11  1  0  0  0  0
  2  4  1  0  0  0  0
  2  3  1  0  0  0  0
  3 15  1  0  0  0  0
  3 14  1  0  0  0  0
  4 16  1  0  0  0  0
  5  6  2  0  0  0  0
  5  4  1  0  0  0  0
  7  4  1  0  0  0  0
  7  8  2  0  0  0  0
  9  1  1  0  0  0  0
 10  1  1  0  0  0  0
 12  2  1  0  0  0  0
 13  3  1  0  0  0  0
 17  5  1  0  0  0  0
 18  7  1  0  0  0  0
M  END
