title
 OpenBabel02282109593D

 18 17  0  0  0  0  0  0  0  0999 V2000
    0.9723    2.0454   -0.1724 C   0  0  0  0  0  0  0  0  0  0  0  0
    1.0825    0.5172   -0.2237 C   0  0  0  0  0  0  0  0  0  0  0  0
    2.1523   -0.0366    0.7243 C   0  0  0  0  0  0  0  0  0  0  0  0
   -0.2311   -0.1286    0.0054 N   0  0  0  0  0  0  0  0  0  0  0  0
   -0.8215   -0.8955   -0.9984 C   0  0  0  0  0  0  0  0  0  0  0  0
   -0.2654   -1.0669   -2.1285 N   0  0  0  0  0  0  0  0  0  0  0  0
   -0.8978    0.0114    1.2080 C   0  0  0  0  0  0  0  0  0  0  0  0
   -1.9703   -0.4816    1.4758 O   0  0  0  0  0  0  0  0  0  0  0  0
    1.9283    2.4946   -0.4578 H   0  0  0  0  0  0  0  0  0  0  0  0
    0.2067    2.4029   -0.8664 H   0  0  0  0  0  0  0  0  0  0  0  0
    0.7239    2.4083    0.8304 H   0  0  0  0  0  0  0  0  0  0  0  0
    1.3399    0.2243   -1.2427 H   0  0  0  0  0  0  0  0  0  0  0  0
    1.9579    0.2311    1.7681 H   0  0  0  0  0  0  0  0  0  0  0  0
    2.2071   -1.1263    0.6537 H   0  0  0  0  0  0  0  0  0  0  0  0
    3.1311    0.3725    0.4562 H   0  0  0  0  0  0  0  0  0  0  0  0
   -1.7810   -1.2993   -0.6733 H   0  0  0  0  0  0  0  0  0  0  0  0
   -0.8504   -1.6533   -2.7202 H   0  0  0  0  0  0  0  0  0  0  0  0
   -0.3368    0.6369    1.9231 H   0  0  0  0  0  0  0  0  0  0  0  0
  1 11  1  0  0  0  0
  2  1  1  0  0  0  0
  2  4  1  0  0  0  0
  2  3  1  0  0  0  0
  3 13  1  0  0  0  0
  4  7  1  0  0  0  0
  5 16  1  0  0  0  0
  5  4  1  0  0  0  0
  6  5  2  0  0  0  0
  7  8  2  0  0  0  0
  7 18  1  0  0  0  0
  9  1  1  0  0  0  0
 10  1  1  0  0  0  0
 12  2  1  0  0  0  0
 14  3  1  0  0  0  0
 15  3  1  0  0  0  0
 17  6  1  0  0  0  0
M  END
