17
title
C 1.389542 1.9671878 -0.19870317
C 1.35917 0.4357371 -0.118535936
C 2.1668534 -0.11331631 1.0642068
N -0.024994325 -0.09291412 -0.1374915
C -0.41740817 -0.89590925 -1.2191604
O -1.491347 -1.3997017 -1.3882865
C -0.88826424 0.22535239 0.9182356
O -2.029149 -0.12634523 1.0403991
H 2.4214742 2.313302 -0.3093907
H 0.81280386 2.3242643 -1.0562681
H 0.9809625 2.4309323 0.7043959
H 1.8155838 0.049388725 -1.0358969
H 1.792097 0.26000977 2.0222077
H 2.1317222 -1.2059321 1.0866523
H 3.212544 0.19596362 0.97583896
H 0.4239465 -1.014643 -1.9325662
H -0.3807283 0.86719257 1.6623603
