title
 OpenBabel02282109593D

 16 15  0  0  1  0  0  0  0  0999 V2000
    1.0952    1.9216   -0.5310 C   0  0  0  0  0  0  0  0  0  0  0  0
    1.0686    0.4205   -0.2630 C   0  0  1  0  0  0  0  0  0  0  0  0
    1.6816    0.0779    0.9738 O   0  0  0  0  0  0  0  0  0  0  0  0
   -0.3890   -0.1682   -0.3397 C   0  0  0  0  0  0  0  0  0  0  0  0
   -0.2962   -1.6750   -0.4776 C   0  0  0  0  0  0  0  0  0  0  0  0
   -0.5475   -2.2745   -1.4905 O   0  0  0  0  0  0  0  0  0  0  0  0
   -1.1567    0.2374    0.9074 C   0  0  0  0  0  0  0  0  0  0  0  0
   -1.6534    1.3245    1.0643 O   0  0  0  0  0  0  0  0  0  0  0  0
    2.1196    2.2899   -0.4231 H   0  0  0  0  0  0  0  0  0  0  0  0
    0.7525    2.1427   -1.5458 H   0  0  0  0  0  0  0  0  0  0  0  0
    0.4432    2.4591    0.1648 H   0  0  0  0  0  0  0  0  0  0  0  0
    1.6592   -0.0937   -1.0297 H   0  0  0  0  0  0  0  0  0  0  0  0
    1.4739    0.7674    1.6140 H   0  0  0  0  0  0  0  0  0  0  0  0
   -0.8855    0.2412   -1.2241 H   0  0  0  0  0  0  0  0  0  0  0  0
    0.0617   -2.2028    0.4339 H   0  0  0  0  0  0  0  0  0  0  0  0
   -1.2181   -0.5337    1.7064 H   0  0  0  0  0  0  0  0  0  0  0  0
  1  9  1  0  0  0  0
  1  2  1  0  0  0  0
  1 11  1  0  0  0  0
  2 12  1  6  0  0  0
  2  3  1  0  0  0  0
  3 13  1  0  0  0  0
  4  2  1  0  0  0  0
  4  7  1  0  0  0  0
  5  4  1  0  0  0  0
  5 15  1  0  0  0  0
  6  5  2  0  0  0  0
  7  8  2  0  0  0  0
  7 16  1  0  0  0  0
 10  1  1  0  0  0  0
 14  4  1  0  0  0  0
M  END
