title
 OpenBabel02282109593D

 17 16  0  0  0  0  0  0  0  0999 V2000
   -0.5920    2.2313   -1.1447 C   0  0  0  0  0  0  0  0  0  0  0  0
   -0.5305    0.7872   -1.1263 N   0  0  0  0  0  0  0  0  0  0  0  0
   -0.0881    0.1474   -0.1133 C   0  0  0  0  0  0  0  0  0  0  0  0
    0.4537    0.8190    1.0656 C   0  0  0  0  0  0  0  0  0  0  0  0
    0.8741    1.4171    1.9621 N   0  0  0  0  0  0  0  0  0  0  0  0
   -0.1319   -1.2260   -0.0364 N   0  0  0  0  0  0  0  0  0  0  0  0
   -0.6542   -1.9404   -1.1884 C   0  0  0  0  0  0  0  0  0  0  0  0
    0.7456   -1.9751    0.8462 C   0  0  0  0  0  0  0  0  0  0  0  0
   -0.0710    2.5984   -2.0364 H   0  0  0  0  0  0  0  0  0  0  0  0
   -1.6376    2.5490   -1.2398 H   0  0  0  0  0  0  0  0  0  0  0  0
   -0.1619    2.7244   -0.2624 H   0  0  0  0  0  0  0  0  0  0  0  0
    0.0850   -2.0154   -1.9989 H   0  0  0  0  0  0  0  0  0  0  0  0
   -0.9378   -2.9488   -0.8757 H   0  0  0  0  0  0  0  0  0  0  0  0
   -1.5245   -1.4133   -1.5792 H   0  0  0  0  0  0  0  0  0  0  0  0
    1.0112   -1.3763    1.7183 H   0  0  0  0  0  0  0  0  0  0  0  0
    0.2296   -2.8756    1.1934 H   0  0  0  0  0  0  0  0  0  0  0  0
    1.6737   -2.2842    0.3425 H   0  0  0  0  0  0  0  0  0  0  0  0
  1  2  1  0  0  0  0
  1 11  1  0  0  0  0
  2  3  2  0  0  0  0
  3  6  1  0  0  0  0
  3  4  1  0  0  0  0
  4  5  3  0  0  0  0
  6  8  1  0  0  0  0
  7 13  1  0  0  0  0
  7  6  1  0  0  0  0
  8 16  1  0  0  0  0
  8 15  1  0  0  0  0
  9  1  1  0  0  0  0
 10  1  1  0  0  0  0
 12  7  1  0  0  0  0
 14  7  1  0  0  0  0
 17  8  1  0  0  0  0
M  END
