18
title
C -0.6073212 2.0651896 1.2625402
N -0.50340015 0.62873584 1.1092972
C -0.11417068 0.06114333 0.03425958
C 0.26587608 0.7792096 -1.2445571
O 0.82961076 1.8434625 -1.2879021
N -0.1675991 -1.3231882 -0.09312711
C -0.6994095 -2.0655508 1.0384607
C 0.908403 -2.0048807 -0.80010545
H 0.26007703 2.431131 1.826573
H -0.65385365 2.6393332 0.33133158
H -1.4940519 2.2862468 1.8665987
H -0.075042404 0.2696834 -2.173228
H -1.6282406 -1.6041112 1.3732331
H -0.88895655 -3.0956507 0.72224224
H -0.007167439 -2.0786064 1.8932757
H 1.7726101 -2.2054965 -0.14721414
H 0.5460276 -2.9612856 -1.1899214
H 1.2637601 -1.4102907 -1.6444805
