title
 OpenBabel02282109593D

 18 17  0  0  0  0  0  0  0  0999 V2000
   -1.2782    0.3347    2.0489 C   0  0  0  0  0  0  0  0  0  0  0  0
   -0.5485    0.9170    0.9297 N   0  0  0  0  0  0  0  0  0  0  0  0
    0.0865    0.3070   -0.1175 C   0  0  0  0  0  0  0  0  0  0  0  0
    0.7099    0.9124   -1.0677 N   0  0  0  0  0  0  0  0  0  0  0  0
    0.7528    2.3582   -1.0426 C   0  0  0  0  0  0  0  0  0  0  0  0
    0.0748   -1.2095   -0.1964 C   0  0  0  0  0  0  0  0  0  0  0  0
    0.7929   -1.8261   -1.3756 C   0  0  0  0  0  0  0  0  0  0  0  0
   -0.4819   -1.8838    0.6438 O   0  0  0  0  0  0  0  0  0  0  0  0
   -2.1382   -0.2535    1.7205 H   0  0  0  0  0  0  0  0  0  0  0  0
   -0.6475   -0.3140    2.6609 H   0  0  0  0  0  0  0  0  0  0  0  0
   -1.6354    1.1618    2.6684 H   0  0  0  0  0  0  0  0  0  0  0  0
   -0.5022    1.9207    0.9207 H   0  0  0  0  0  0  0  0  0  0  0  0
   -0.2532    2.8104   -1.0825 H   0  0  0  0  0  0  0  0  0  0  0  0
    1.2476    2.7494   -0.1369 H   0  0  0  0  0  0  0  0  0  0  0  0
    1.3122    2.7246   -1.9067 H   0  0  0  0  0  0  0  0  0  0  0  0
    1.8429   -1.5231   -1.3825 H   0  0  0  0  0  0  0  0  0  0  0  0
    0.7054   -2.9111   -1.3084 H   0  0  0  0  0  0  0  0  0  0  0  0
    0.3671   -1.4615   -2.3137 H   0  0  0  0  0  0  0  0  0  0  0  0
  1 10  1  0  0  0  0
  1 11  1  0  0  0  0
  2  1  1  0  0  0  0
  3  2  1  0  0  0  0
  4  5  1  0  0  0  0
  4  3  2  0  0  0  0
  5 14  1  0  0  0  0
  6  3  1  0  0  0  0
  6  8  2  0  0  0  0
  7 17  1  0  0  0  0
  7  6  1  0  0  0  0
  9  1  1  0  0  0  0
 12  2  1  0  0  0  0
 13  5  1  0  0  0  0
 15  5  1  0  0  0  0
 16  7  1  0  0  0  0
 18  7  1  0  0  0  0
M  END
