16
title
C 1.302439 2.3950348 -0.27787122
N 1.1480398 0.96551937 -0.12629169
C 0.024501633 0.28753224 -0.03045978
N -1.1539388 0.8863822 -0.06523177
H -1.165946 1.893066 -0.1684349
C -2.465749 0.24168225 0.03099538
C 0.30884212 -1.2971004 0.1272212
O 1.5312805 -1.5026673 0.119893044
O -0.68119377 -2.0189638 0.22574544
H 2.3649526 2.6337295 -0.32775977
H 0.8283712 2.7540684 -1.2004033
H 0.8703986 2.9376044 0.5728144
H 1.9282204 0.29453555 -0.074785635
H -3.0048263 0.6361847 0.89774275
H -3.0449054 0.45340106 -0.8729907
H -2.2972791 -0.8294684 0.13792807
