title
 OpenBabel02282109593D

 16 15  0  0  0  0  0  0  0  0999 V2000
    1.3024    2.3950   -0.2779 C   0  0  0  0  0  0  0  0  0  0  0  0
    1.1480    0.9655   -0.1263 N   0  0  0  0  0  0  0  0  0  0  0  0
    0.0245    0.2875   -0.0305 C   0  0  0  0  0  0  0  0  0  0  0  0
   -1.1539    0.8864   -0.0652 N   0  0  0  0  0  0  0  0  0  0  0  0
   -1.1659    1.8931   -0.1684 H   0  0  0  0  0  0  0  0  0  0  0  0
   -2.4657    0.2417    0.0310 C   0  0  0  0  0  0  0  0  0  0  0  0
    0.3088   -1.2971    0.1272 C   0  0  0  0  0  0  0  0  0  0  0  0
    1.5313   -1.5027    0.1199 O   0  0  0  0  0  0  0  0  0  0  0  0
   -0.6812   -2.0190    0.2257 O   0  0  0  0  0  0  0  0  0  0  0  0
    2.3650    2.6337   -0.3278 H   0  0  0  0  0  0  0  0  0  0  0  0
    0.8284    2.7541   -1.2004 H   0  0  0  0  0  0  0  0  0  0  0  0
    0.8704    2.9376    0.5728 H   0  0  0  0  0  0  0  0  0  0  0  0
    1.9282    0.2945   -0.0748 H   0  0  0  0  0  0  0  0  0  0  0  0
   -3.0048    0.6362    0.8977 H   0  0  0  0  0  0  0  0  0  0  0  0
   -3.0449    0.4534   -0.8730 H   0  0  0  0  0  0  0  0  0  0  0  0
   -2.2973   -0.8295    0.1379 H   0  0  0  0  0  0  0  0  0  0  0  0
  1  2  1  0  0  0  0
  1 12  1  0  0  0  0
  2 13  1  0  0  0  0
  2  3  1  0  0  0  0
  3  7  1  0  0  0  0
  4  3  1  0  0  0  0
  4  6  1  0  0  0  0
  5  4  1  0  0  0  0
  6 16  1  0  0  0  0
  6 14  1  0  0  0  0
  7  9  1  0  0  0  0
  8  7  2  0  0  0  0
 10  1  1  0  0  0  0
 11  1  1  0  0  0  0
 15  6  1  0  0  0  0
M  RAD  2   3   2   9   2
M  END
