
     RDKit          3D

 33 32  0  0  0  0  0  0  0  0999 V2000
    4.5667    1.7648    0.7417 C   0  0  0  0  0  0  0  0  0  0  0  0
    3.9948    0.8099   -0.3022 C   0  0  0  0  0  0  0  0  0  0  0  0
    2.7012    0.1546    0.1956 C   0  0  0  0  0  0  0  0  0  0  0  0
    2.1246   -0.7962   -0.8640 C   0  0  0  0  0  0  0  0  0  0  0  0
    0.9028   -1.5784   -0.3564 C   0  0  0  0  0  0  0  0  0  0  0  0
   -0.3390   -0.6909   -0.1823 C   0  0  0  0  0  0  0  0  0  0  0  0
   -1.5698   -1.5362    0.1790 C   0  0  0  0  0  0  0  0  0  0  0  0
   -2.8018   -0.6781    0.5078 C   0  0  0  0  0  0  0  0  0  0  0  0
   -3.3869    0.0186   -0.7336 C   0  0  0  0  0  0  0  0  0  0  0  0
   -4.7112    0.7285   -0.4271 C   0  0  0  0  0  0  0  0  0  0  0  0
   -4.5099    1.8849    0.4561 C   0  0  0  0  0  0  0  0  0  0  0  0
   -4.3510    2.7957    1.1521 N   0  0  0  0  0  0  0  0  0  0  0  0
    4.8011    1.2164    1.6789 H   0  0  0  0  0  0  0  0  0  0  0  0
    5.5016    2.2221    0.3546 H   0  0  0  0  0  0  0  0  0  0  0  0
    3.8400    2.5755    0.9626 H   0  0  0  0  0  0  0  0  0  0  0  0
    3.7916    1.3780   -1.2363 H   0  0  0  0  0  0  0  0  0  0  0  0
    4.7516    0.0262   -0.5242 H   0  0  0  0  0  0  0  0  0  0  0  0
    2.9136   -0.4142    1.1276 H   0  0  0  0  0  0  0  0  0  0  0  0
    1.9619    0.9512    0.4256 H   0  0  0  0  0  0  0  0  0  0  0  0
    2.9075   -1.5330   -1.1490 H   0  0  0  0  0  0  0  0  0  0  0  0
    1.8526   -0.2242   -1.7783 H   0  0  0  0  0  0  0  0  0  0  0  0
    0.6733   -2.3738   -1.0992 H   0  0  0  0  0  0  0  0  0  0  0  0
    1.1496   -2.0782    0.6061 H   0  0  0  0  0  0  0  0  0  0  0  0
   -0.5278   -0.1441   -1.1304 H   0  0  0  0  0  0  0  0  0  0  0  0
   -0.1584    0.0478    0.6272 H   0  0  0  0  0  0  0  0  0  0  0  0
   -1.3320   -2.1508    1.0750 H   0  0  0  0  0  0  0  0  0  0  0  0
   -1.8085   -2.2339   -0.6536 H   0  0  0  0  0  0  0  0  0  0  0  0
   -2.5357    0.0759    1.2803 H   0  0  0  0  0  0  0  0  0  0  0  0
   -3.5771   -1.3460    0.9431 H   0  0  0  0  0  0  0  0  0  0  0  0
   -3.5763   -0.7423   -1.5219 H   0  0  0  0  0  0  0  0  0  0  0  0
   -2.6632    0.7576   -1.1398 H   0  0  0  0  0  0  0  0  0  0  0  0
   -5.1584    1.0887   -1.3776 H   0  0  0  0  0  0  0  0  0  0  0  0
   -5.4279    0.0239    0.0461 H   0  0  0  0  0  0  0  0  0  0  0  0
  1  2  1  0
  2  3  1  0
  3  4  1  0
  4  5  1  0
  5  6  1  0
  6  7  1  0
  7  8  1  0
  8  9  1  0
  9 10  1  0
 10 11  1  0
 11 12  3  0
  1 13  1  0
  1 14  1  0
  1 15  1  0
  2 16  1  0
  2 17  1  0
  3 18  1  0
  3 19  1  0
  4 20  1  0
  4 21  1  0
  5 22  1  0
  5 23  1  0
  6 24  1  0
  6 25  1  0
  7 26  1  0
  7 27  1  0
  8 28  1  0
  8 29  1  0
  9 30  1  0
  9 31  1  0
 10 32  1  0
 10 33  1  0
M  END
