
     RDKit          3D

 20 20  0  0  0  0  0  0  0  0999 V2000
    4.6821    1.9995   -1.1304 S   0  0  0  0  0  0  0  0  0  0  0  0
    3.2856    1.4410   -0.5529 C   0  0  0  0  0  0  0  0  0  0  0  0
    2.1830    0.9993   -0.0974 N   0  0  0  0  0  0  0  0  0  0  0  0
    2.0478   -0.3619    0.4133 C   0  0  0  0  0  0  0  0  0  0  0  0
    1.0069   -1.1349   -0.3997 C   0  0  0  0  0  0  0  0  0  0  0  0
   -0.3674   -0.5348   -0.2508 C   0  0  0  0  0  0  0  0  0  0  0  0
   -0.8431    0.3954   -1.1906 C   0  0  0  0  0  0  0  0  0  0  0  0
   -2.1078    0.9711   -1.0336 C   0  0  0  0  0  0  0  0  0  0  0  0
   -2.9022    0.6286    0.0640 C   0  0  0  0  0  0  0  0  0  0  0  0
   -2.4320   -0.2880    1.0085 C   0  0  0  0  0  0  0  0  0  0  0  0
   -1.1678   -0.8659    0.8556 C   0  0  0  0  0  0  0  0  0  0  0  0
    1.7404   -0.3209    1.4804 H   0  0  0  0  0  0  0  0  0  0  0  0
    3.0192   -0.9049    0.3615 H   0  0  0  0  0  0  0  0  0  0  0  0
    1.3097   -1.1514   -1.4698 H   0  0  0  0  0  0  0  0  0  0  0  0
    0.9891   -2.1911   -0.0525 H   0  0  0  0  0  0  0  0  0  0  0  0
   -0.2346    0.6757   -2.0416 H   0  0  0  0  0  0  0  0  0  0  0  0
   -2.4708    1.6851   -1.7616 H   0  0  0  0  0  0  0  0  0  0  0  0
   -3.8804    1.0759    0.1845 H   0  0  0  0  0  0  0  0  0  0  0  0
   -3.0460   -0.5486    1.8609 H   0  0  0  0  0  0  0  0  0  0  0  0
   -0.8117   -1.5692    1.5983 H   0  0  0  0  0  0  0  0  0  0  0  0
  1  2  2  0
  2  3  2  0
  3  4  1  0
  4  5  1  0
  5  6  1  0
  6  7  2  0
  7  8  1  0
  8  9  2  0
  9 10  1  0
 10 11  2  0
 11  6  1  0
  4 12  1  0
  4 13  1  0
  5 14  1  0
  5 15  1  0
  7 16  1  0
  8 17  1  0
  9 18  1  0
 10 19  1  0
 11 20  1  0
M  END
