
     RDKit          3D

 46 46  0  0  0  0  0  0  0  0999 V2000
   -0.4569    4.8932    0.7685 C   0  0  0  0  0  0  0  0  0  0  0  0
   -0.2234    3.4915    0.3863 N   0  0  0  0  0  0  0  0  0  0  0  0
    0.6552    3.4438   -0.7960 C   0  0  0  0  0  0  0  0  0  0  0  0
    0.3753    2.7533    1.5177 C   0  0  0  0  0  0  0  0  0  0  0  0
    0.2809    1.2667    1.2901 C   0  0  0  0  0  0  0  0  0  0  0  0
    1.4258    0.5194    0.9893 C   0  0  0  0  0  0  0  0  0  0  0  0
    1.3341   -0.8562    0.7323 C   0  0  0  0  0  0  0  0  0  0  0  0
    0.0781   -1.4939    0.7690 C   0  0  0  0  0  0  0  0  0  0  0  0
    0.0121   -2.8629    0.4891 O   0  0  0  0  0  0  0  0  0  0  0  0
   -1.0824   -0.7445    1.0785 C   0  0  0  0  0  0  0  0  0  0  0  0
   -0.9661    0.6320    1.3309 C   0  0  0  0  0  0  0  0  0  0  0  0
   -2.4536   -1.3797    1.1029 C   0  0  0  0  0  0  0  0  0  0  0  0
   -2.8703   -1.7773   -0.2581 N   0  0  0  0  0  0  0  0  0  0  0  0
   -3.2440   -0.5979   -1.0588 C   0  0  0  0  0  0  0  0  0  0  0  0
   -4.0111   -2.7035   -0.1843 C   0  0  0  0  0  0  0  0  0  0  0  0
    2.5769   -1.6328    0.3682 C   0  0  0  0  0  0  0  0  0  0  0  0
    2.5522   -2.0156   -1.0589 N   0  0  0  0  0  0  0  0  0  0  0  0
    2.8255   -0.8512   -1.9199 C   0  0  0  0  0  0  0  0  0  0  0  0
    3.5534   -3.0627   -1.3159 C   0  0  0  0  0  0  0  0  0  0  0  0
    0.4920    5.3942    1.0647 H   0  0  0  0  0  0  0  0  0  0  0  0
   -1.1743    4.9441    1.6157 H   0  0  0  0  0  0  0  0  0  0  0  0
   -0.9141    5.4519   -0.0766 H   0  0  0  0  0  0  0  0  0  0  0  0
    0.7850    2.3959   -1.1395 H   0  0  0  0  0  0  0  0  0  0  0  0
    0.1944    4.0021   -1.6393 H   0  0  0  0  0  0  0  0  0  0  0  0
    1.6549    3.8813   -0.5770 H   0  0  0  0  0  0  0  0  0  0  0  0
   -0.1749    2.9783    2.4593 H   0  0  0  0  0  0  0  0  0  0  0  0
    1.4309    3.0685    1.6859 H   0  0  0  0  0  0  0  0  0  0  0  0
    2.3887    1.0136    0.9363 H   0  0  0  0  0  0  0  0  0  0  0  0
   -0.8499   -3.3916    0.4867 H   0  0  0  0  0  0  0  0  0  0  0  0
   -1.8513    1.2191    1.5467 H   0  0  0  0  0  0  0  0  0  0  0  0
   -3.2063   -0.6975    1.5614 H   0  0  0  0  0  0  0  0  0  0  0  0
   -2.4031   -2.2657    1.7743 H   0  0  0  0  0  0  0  0  0  0  0  0
   -3.5494   -0.9095   -2.0809 H   0  0  0  0  0  0  0  0  0  0  0  0
   -2.3730    0.0807   -1.1776 H   0  0  0  0  0  0  0  0  0  0  0  0
   -4.0812   -0.0360   -0.5876 H   0  0  0  0  0  0  0  0  0  0  0  0
   -3.7180   -3.6283    0.3578 H   0  0  0  0  0  0  0  0  0  0  0  0
   -4.8774   -2.2362    0.3357 H   0  0  0  0  0  0  0  0  0  0  0  0
   -4.3236   -3.0120   -1.2053 H   0  0  0  0  0  0  0  0  0  0  0  0
    2.6027   -2.5403    1.0126 H   0  0  0  0  0  0  0  0  0  0  0  0
    3.4990   -1.0550    0.6089 H   0  0  0  0  0  0  0  0  0  0  0  0
    2.8027   -1.1513   -2.9898 H   0  0  0  0  0  0  0  0  0  0  0  0
    3.8180   -0.4018   -1.6923 H   0  0  0  0  0  0  0  0  0  0  0  0
    2.0386   -0.0790   -1.7876 H   0  0  0  0  0  0  0  0  0  0  0  0
    3.5347   -3.3593   -2.3869 H   0  0  0  0  0  0  0  0  0  0  0  0
    3.3153   -3.9726   -0.7240 H   0  0  0  0  0  0  0  0  0  0  0  0
    4.5777   -2.7151   -1.0526 H   0  0  0  0  0  0  0  0  0  0  0  0
  1  2  1  0
  2  3  1  0
  2  4  1  0
  4  5  1  0
  5  6  2  0
  6  7  1  0
  7  8  2  0
  8  9  1  0
  8 10  1  0
 10 11  2  0
 10 12  1  0
 12 13  1  0
 13 14  1  0
 13 15  1  0
  7 16  1  0
 16 17  1  0
 17 18  1  0
 17 19  1  0
 11  5  1  0
  1 20  1  0
  1 21  1  0
  1 22  1  0
  3 23  1  0
  3 24  1  0
  3 25  1  0
  4 26  1  0
  4 27  1  0
  6 28  1  0
  9 29  1  0
 11 30  1  0
 12 31  1  0
 12 32  1  0
 14 33  1  0
 14 34  1  0
 14 35  1  0
 15 36  1  0
 15 37  1  0
 15 38  1  0
 16 39  1  0
 16 40  1  0
 18 41  1  0
 18 42  1  0
 18 43  1  0
 19 44  1  0
 19 45  1  0
 19 46  1  0
M  END
