
     RDKit          3D

 22 23  0  0  0  0  0  0  0  0999 V2000
    2.7210   -1.1711    0.6246 C   0  0  0  0  0  0  0  0  0  0  0  0
    1.4122   -0.5398    0.2529 C   0  0  0  0  0  0  0  0  0  0  0  0
    0.2707   -1.2730    0.3654 N   0  0  0  0  0  0  0  0  0  0  0  0
   -0.9423   -0.7546    0.0436 C   0  0  0  0  0  0  0  0  0  0  0  0
   -2.1038   -1.5251    0.1664 C   0  0  0  0  0  0  0  0  0  0  0  0
   -3.3445   -0.9721   -0.1704 C   0  0  0  0  0  0  0  0  0  0  0  0
   -3.4255    0.3481   -0.6293 C   0  0  0  0  0  0  0  0  0  0  0  0
   -2.2663    1.1222   -0.7537 C   0  0  0  0  0  0  0  0  0  0  0  0
   -1.0238    0.5733   -0.4180 C   0  0  0  0  0  0  0  0  0  0  0  0
    0.1122    1.3083   -0.5318 N   0  0  0  0  0  0  0  0  0  0  0  0
    1.3304    0.7926   -0.2102 C   0  0  0  0  0  0  0  0  0  0  0  0
    2.5474    1.6567   -0.3583 C   0  0  0  0  0  0  0  0  0  0  0  0
    2.5664   -2.2179    0.9623 H   0  0  0  0  0  0  0  0  0  0  0  0
    3.3991   -1.1828   -0.2542 H   0  0  0  0  0  0  0  0  0  0  0  0
    3.1945   -0.6023    1.4519 H   0  0  0  0  0  0  0  0  0  0  0  0
   -2.0483   -2.5469    0.5208 H   0  0  0  0  0  0  0  0  0  0  0  0
   -4.2438   -1.5668   -0.0760 H   0  0  0  0  0  0  0  0  0  0  0  0
   -4.3874    0.7712   -0.8886 H   0  0  0  0  0  0  0  0  0  0  0  0
   -2.3362    2.1427   -1.1093 H   0  0  0  0  0  0  0  0  0  0  0  0
    3.2530    1.1966   -1.0812 H   0  0  0  0  0  0  0  0  0  0  0  0
    3.0484    1.7771    0.6249 H   0  0  0  0  0  0  0  0  0  0  0  0
    2.2667    2.6635   -0.7345 H   0  0  0  0  0  0  0  0  0  0  0  0
  1  2  1  0
  2  3  2  0
  3  4  1  0
  4  5  2  0
  5  6  1  0
  6  7  2  0
  7  8  1  0
  8  9  2  0
  9 10  1  0
 10 11  2  0
 11 12  1  0
 11  2  1  0
  9  4  1  0
  1 13  1  0
  1 14  1  0
  1 15  1  0
  5 16  1  0
  6 17  1  0
  7 18  1  0
  8 19  1  0
 12 20  1  0
 12 21  1  0
 12 22  1  0
M  END
