
     RDKit          3D

 38 38  0  0  0  0  0  0  0  0999 V2000
   -2.5333   -1.7987   -0.7939 C   0  0  0  0  0  0  0  0  0  0  0  0
   -2.5594   -0.4640   -0.0169 C   0  0  0  0  0  0  0  0  0  0  0  0
   -2.7770   -0.7488    1.4856 C   0  0  0  0  0  0  0  0  0  0  0  0
   -3.7782    0.3467   -0.5206 C   0  0  0  0  0  0  0  0  0  0  0  0
   -1.2163    0.2728   -0.2126 C   0  0  0  0  0  0  0  0  0  0  0  0
   -1.1289    1.5555   -0.7941 C   0  0  0  0  0  0  0  0  0  0  0  0
    0.1057    2.1910   -0.9548 C   0  0  0  0  0  0  0  0  0  0  0  0
    1.2791    1.5564   -0.5371 C   0  0  0  0  0  0  0  0  0  0  0  0
    1.2427    0.2737    0.0498 C   0  0  0  0  0  0  0  0  0  0  0  0
   -0.0167   -0.3465    0.2009 C   0  0  0  0  0  0  0  0  0  0  0  0
    2.5147   -0.4622    0.5248 C   0  0  0  0  0  0  0  0  0  0  0  0
    3.8118    0.3495    0.2896 C   0  0  0  0  0  0  0  0  0  0  0  0
    2.6542   -1.7968   -0.2401 C   0  0  0  0  0  0  0  0  0  0  0  0
    2.4105   -0.7470    2.0393 C   0  0  0  0  0  0  0  0  0  0  0  0
    0.1685    3.4923   -1.5475 N   0  0  0  0  0  0  0  0  0  0  0  0
   -2.3319   -1.6142   -1.8713 H   0  0  0  0  0  0  0  0  0  0  0  0
   -1.7515   -2.4843   -0.4059 H   0  0  0  0  0  0  0  0  0  0  0  0
   -3.5084   -2.3254   -0.7060 H   0  0  0  0  0  0  0  0  0  0  0  0
   -3.7609   -1.2375    1.6559 H   0  0  0  0  0  0  0  0  0  0  0  0
   -1.9972   -1.4259    1.8922 H   0  0  0  0  0  0  0  0  0  0  0  0
   -2.7528    0.1991    2.0655 H   0  0  0  0  0  0  0  0  0  0  0  0
   -3.8701    1.3078    0.0303 H   0  0  0  0  0  0  0  0  0  0  0  0
   -4.7218   -0.2193   -0.3608 H   0  0  0  0  0  0  0  0  0  0  0  0
   -3.6948    0.5524   -1.6097 H   0  0  0  0  0  0  0  0  0  0  0  0
   -2.0082    2.0835   -1.1313 H   0  0  0  0  0  0  0  0  0  0  0  0
    2.2093    2.0851   -0.6811 H   0  0  0  0  0  0  0  0  0  0  0  0
   -0.0641   -1.3278    0.6477 H   0  0  0  0  0  0  0  0  0  0  0  0
    3.9600    0.5552   -0.7926 H   0  0  0  0  0  0  0  0  0  0  0  0
    4.7008   -0.2158    0.6450 H   0  0  0  0  0  0  0  0  0  0  0  0
    3.7846    1.3106    0.8474 H   0  0  0  0  0  0  0  0  0  0  0  0
    1.8086   -2.4830   -0.0259 H   0  0  0  0  0  0  0  0  0  0  0  0
    2.6846   -1.6123   -1.3359 H   0  0  0  0  0  0  0  0  0  0  0  0
    3.5891   -2.3228    0.0516 H   0  0  0  0  0  0  0  0  0  0  0  0
    3.3366   -1.2350    2.4135 H   0  0  0  0  0  0  0  0  0  0  0  0
    2.2637    0.2009    2.6010 H   0  0  0  0  0  0  0  0  0  0  0  0
    1.5629   -1.4246    2.2722 H   0  0  0  0  0  0  0  0  0  0  0  0
    1.0833    3.9801   -1.6744 H   0  0  0  0  0  0  0  0  0  0  0  0
   -0.6993    3.9795   -1.8647 H   0  0  0  0  0  0  0  0  0  0  0  0
  1  2  1  0
  2  3  1  0
  2  4  1  0
  2  5  1  0
  5  6  2  0
  6  7  1  0
  7  8  2  0
  8  9  1  0
  9 10  2  0
  9 11  1  0
 11 12  1  0
 11 13  1  0
 11 14  1  0
  7 15  1  0
 10  5  1  0
  1 16  1  0
  1 17  1  0
  1 18  1  0
  3 19  1  0
  3 20  1  0
  3 21  1  0
  4 22  1  0
  4 23  1  0
  4 24  1  0
  6 25  1  0
  8 26  1  0
 10 27  1  0
 12 28  1  0
 12 29  1  0
 12 30  1  0
 13 31  1  0
 13 32  1  0
 13 33  1  0
 14 34  1  0
 14 35  1  0
 14 36  1  0
 15 37  1  0
 15 38  1  0
M  END
