
     RDKit          3D

 24 24  0  0  0  0  0  0  0  0999 V2000
    2.9540    0.7603    1.6564 C   0  0  0  0  0  0  0  0  0  0  0  0
    2.6830    0.8349    0.2605 O   0  0  0  0  0  0  0  0  0  0  0  0
    1.5121    0.3563   -0.3483 C   0  0  0  0  0  0  0  0  0  0  0  0
    1.3748    0.4984   -1.7367 C   0  0  0  0  0  0  0  0  0  0  0  0
    2.3942    1.1016   -2.4716 O   0  0  0  0  0  0  0  0  0  0  0  0
    0.2182    0.0387   -2.3800 C   0  0  0  0  0  0  0  0  0  0  0  0
   -0.8031   -0.5658   -1.6449 C   0  0  0  0  0  0  0  0  0  0  0  0
   -0.6761   -0.7262   -0.2576 C   0  0  0  0  0  0  0  0  0  0  0  0
    0.4785   -0.2556    0.3887 C   0  0  0  0  0  0  0  0  0  0  0  0
   -1.7934   -1.3514    0.5375 C   0  0  0  0  0  0  0  0  0  0  0  0
   -2.8464   -0.3135    0.9259 C   0  0  0  0  0  0  0  0  0  0  0  0
   -2.2889    0.6389    1.7891 O   0  0  0  0  0  0  0  0  0  0  0  0
    2.1849    1.3242    2.2254 H   0  0  0  0  0  0  0  0  0  0  0  0
    2.9731   -0.3001    1.9856 H   0  0  0  0  0  0  0  0  0  0  0  0
    3.9468    1.2123    1.8575 H   0  0  0  0  0  0  0  0  0  0  0  0
    2.3256    1.2201   -3.4756 H   0  0  0  0  0  0  0  0  0  0  0  0
    0.1089    0.1525   -3.4510 H   0  0  0  0  0  0  0  0  0  0  0  0
   -1.6942   -0.9082   -2.1566 H   0  0  0  0  0  0  0  0  0  0  0  0
    0.5624   -0.3677    1.4615 H   0  0  0  0  0  0  0  0  0  0  0  0
   -2.2777   -2.1512   -0.0643 H   0  0  0  0  0  0  0  0  0  0  0  0
   -1.3925   -1.8343    1.4556 H   0  0  0  0  0  0  0  0  0  0  0  0
   -3.2409    0.1840    0.0112 H   0  0  0  0  0  0  0  0  0  0  0  0
   -3.6880   -0.8310    1.4378 H   0  0  0  0  0  0  0  0  0  0  0  0
   -3.0155    1.2829    1.9938 H   0  0  0  0  0  0  0  0  0  0  0  0
  1  2  1  0
  2  3  1  0
  3  4  2  0
  4  5  1  0
  4  6  1  0
  6  7  2  0
  7  8  1  0
  8  9  2  0
  8 10  1  0
 10 11  1  0
 11 12  1  0
  9  3  1  0
  1 13  1  0
  1 14  1  0
  1 15  1  0
  5 16  1  0
  6 17  1  0
  7 18  1  0
  9 19  1  0
 10 20  1  0
 10 21  1  0
 11 22  1  0
 11 23  1  0
 12 24  1  0
M  END
