
     RDKit          3D

 18 17  0  0  0  0  0  0  0  0999 V2000
    2.8480   -0.2940    0.7237 C   0  0  0  0  0  0  0  0  0  0  0  0
    2.0139   -0.5869   -0.5177 C   0  0  0  0  0  0  0  0  0  0  0  0
    0.8636    0.3635   -0.6138 C   0  0  0  0  0  0  0  0  0  0  0  0
    0.9892    1.4363   -1.2655 O   0  0  0  0  0  0  0  0  0  0  0  0
   -0.3268    0.0718    0.0579 O   0  0  0  0  0  0  0  0  0  0  0  0
   -1.4557    0.9392    0.0310 C   0  0  0  0  0  0  0  0  0  0  0  0
   -2.5677    0.3452    0.8411 C   0  0  0  0  0  0  0  0  0  0  0  0
   -3.1524   -0.8011    0.4837 C   0  0  0  0  0  0  0  0  0  0  0  0
    2.2281   -0.4024    1.6395 H   0  0  0  0  0  0  0  0  0  0  0  0
    3.6940   -1.0109    0.7804 H   0  0  0  0  0  0  0  0  0  0  0  0
    3.2584    0.7375    0.6780 H   0  0  0  0  0  0  0  0  0  0  0  0
    1.6279   -1.6275   -0.4657 H   0  0  0  0  0  0  0  0  0  0  0  0
    2.6531   -0.4990   -1.4229 H   0  0  0  0  0  0  0  0  0  0  0  0
   -1.7959    1.0894   -1.0169 H   0  0  0  0  0  0  0  0  0  0  0  0
   -1.1766    1.9243    0.4632 H   0  0  0  0  0  0  0  0  0  0  0  0
   -2.9093    0.8616    1.7333 H   0  0  0  0  0  0  0  0  0  0  0  0
   -3.9581   -1.2103    1.0845 H   0  0  0  0  0  0  0  0  0  0  0  0
   -2.8337   -1.3366   -0.4057 H   0  0  0  0  0  0  0  0  0  0  0  0
  1  2  1  0
  2  3  1  0
  3  4  2  0
  3  5  1  0
  5  6  1  0
  6  7  1  0
  7  8  2  3
  1  9  1  0
  1 10  1  0
  1 11  1  0
  2 12  1  0
  2 13  1  0
  6 14  1  0
  6 15  1  0
  7 16  1  0
  8 17  1  0
  8 18  1  0
M  END
