
     RDKit          3D

 28 28  0  0  0  0  0  0  0  0999 V2000
    2.8319    2.3956   -0.0013 C   0  0  0  0  0  0  0  0  0  0  0  0
    2.1132    1.0777   -0.0204 C   0  0  0  0  0  0  0  0  0  0  0  0
    0.7114    1.0393   -0.0205 C   0  0  0  0  0  0  0  0  0  0  0  0
    0.0011   -0.1899   -0.0038 C   0  0  0  0  0  0  0  0  0  0  0  0
    0.7696   -1.3884    0.0290 C   0  0  0  0  0  0  0  0  0  0  0  0
    0.1544   -2.6391    0.0458 O   0  0  0  0  0  0  0  0  0  0  0  0
    2.1701   -1.3352    0.0482 C   0  0  0  0  0  0  0  0  0  0  0  0
    2.8366   -0.1149    0.0303 C   0  0  0  0  0  0  0  0  0  0  0  0
   -1.5512   -0.2300   -0.0169 C   0  0  0  0  0  0  0  0  0  0  0  0
   -2.1942    1.1807   -0.0519 C   0  0  0  0  0  0  0  0  0  0  0  0
   -2.0741   -0.9304    1.2581 C   0  0  0  0  0  0  0  0  0  0  0  0
   -2.0511   -0.9822   -1.2716 C   0  0  0  0  0  0  0  0  0  0  0  0
    3.8496    2.2981   -0.4359 H   0  0  0  0  0  0  0  0  0  0  0  0
    2.9188    2.7533    1.0459 H   0  0  0  0  0  0  0  0  0  0  0  0
    2.2771    3.1509   -0.5978 H   0  0  0  0  0  0  0  0  0  0  0  0
    0.1979    1.9884   -0.0341 H   0  0  0  0  0  0  0  0  0  0  0  0
    0.6890   -3.4997    0.0700 H   0  0  0  0  0  0  0  0  0  0  0  0
    2.7480   -2.2503    0.0803 H   0  0  0  0  0  0  0  0  0  0  0  0
    3.9194   -0.1012    0.0549 H   0  0  0  0  0  0  0  0  0  0  0  0
   -3.3040    1.1113   -0.0629 H   0  0  0  0  0  0  0  0  0  0  0  0
   -1.9120    1.7690    0.8481 H   0  0  0  0  0  0  0  0  0  0  0  0
   -1.8911    1.7334   -0.9676 H   0  0  0  0  0  0  0  0  0  0  0  0
   -1.8031   -2.0034    1.2919 H   0  0  0  0  0  0  0  0  0  0  0  0
   -3.1835   -0.8799    1.3090 H   0  0  0  0  0  0  0  0  0  0  0  0
   -1.6618   -0.4371    2.1648 H   0  0  0  0  0  0  0  0  0  0  0  0
   -3.1594   -0.9337   -1.3450 H   0  0  0  0  0  0  0  0  0  0  0  0
   -1.6218   -0.5266   -2.1901 H   0  0  0  0  0  0  0  0  0  0  0  0
   -1.7808   -2.0557   -1.2563 H   0  0  0  0  0  0  0  0  0  0  0  0
  1  2  1  0
  2  3  2  0
  3  4  1  0
  4  5  2  0
  5  6  1  0
  5  7  1  0
  7  8  2  0
  4  9  1  0
  9 10  1  0
  9 11  1  0
  9 12  1  0
  8  2  1  0
  1 13  1  0
  1 14  1  0
  1 15  1  0
  3 16  1  0
  6 17  1  0
  7 18  1  0
  8 19  1  0
 10 20  1  0
 10 21  1  0
 10 22  1  0
 11 23  1  0
 11 24  1  0
 11 25  1  0
 12 26  1  0
 12 27  1  0
 12 28  1  0
M  END
