
     RDKit          3D

 33 35  0  0  0  0  0  0  0  0999 V2000
   -0.0700   -0.5602    1.3739 O   0  0  0  0  0  0  0  0  0  0  0  0
   -0.0260    0.0949    0.1389 C   0  0  0  0  0  0  0  0  0  0  0  0
    1.2070    0.3782   -0.4984 C   0  0  0  0  0  0  0  0  0  0  0  0
    1.2135    1.1272   -1.6855 C   0  0  0  0  0  0  0  0  0  0  0  0
    0.0187    1.5679   -2.2516 C   0  0  0  0  0  0  0  0  0  0  0  0
   -1.1986    1.2614   -1.6461 C   0  0  0  0  0  0  0  0  0  0  0  0
   -1.2360    0.5180   -0.4550 C   0  0  0  0  0  0  0  0  0  0  0  0
   -2.5455    0.2056    0.1676 C   0  0  0  0  0  0  0  0  0  0  0  0
   -3.5005    1.2200    0.3609 C   0  0  0  0  0  0  0  0  0  0  0  0
   -4.7385    0.9239    0.9395 C   0  0  0  0  0  0  0  0  0  0  0  0
   -5.0367   -0.3855    1.3248 C   0  0  0  0  0  0  0  0  0  0  0  0
   -4.0982   -1.4019    1.1301 C   0  0  0  0  0  0  0  0  0  0  0  0
   -2.8586   -1.1107    0.5523 C   0  0  0  0  0  0  0  0  0  0  0  0
    2.4953   -0.1090    0.0417 C   0  0  0  0  0  0  0  0  0  0  0  0
    2.7155   -1.4853    0.2227 C   0  0  0  0  0  0  0  0  0  0  0  0
    3.9425   -1.9440    0.7118 C   0  0  0  0  0  0  0  0  0  0  0  0
    4.9601   -1.0350    1.0143 C   0  0  0  0  0  0  0  0  0  0  0  0
    4.7535    0.3342    0.8250 C   0  0  0  0  0  0  0  0  0  0  0  0
    3.5279    0.7974    0.3362 C   0  0  0  0  0  0  0  0  0  0  0  0
    0.7572   -0.7965    1.9061 H   0  0  0  0  0  0  0  0  0  0  0  0
    2.1477    1.3564   -2.1842 H   0  0  0  0  0  0  0  0  0  0  0  0
    0.0354    2.1384   -3.1713 H   0  0  0  0  0  0  0  0  0  0  0  0
   -2.1163    1.5959   -2.1143 H   0  0  0  0  0  0  0  0  0  0  0  0
   -3.2827    2.2418    0.0751 H   0  0  0  0  0  0  0  0  0  0  0  0
   -5.4667    1.7103    1.0901 H   0  0  0  0  0  0  0  0  0  0  0  0
   -5.9958   -0.6130    1.7719 H   0  0  0  0  0  0  0  0  0  0  0  0
   -4.3328   -2.4172    1.4230 H   0  0  0  0  0  0  0  0  0  0  0  0
   -2.1501   -1.9141    0.3922 H   0  0  0  0  0  0  0  0  0  0  0  0
    1.9389   -2.2008   -0.0187 H   0  0  0  0  0  0  0  0  0  0  0  0
    4.1058   -3.0046    0.8528 H   0  0  0  0  0  0  0  0  0  0  0  0
    5.9095   -1.3918    1.3920 H   0  0  0  0  0  0  0  0  0  0  0  0
    5.5437    1.0369    1.0560 H   0  0  0  0  0  0  0  0  0  0  0  0
    3.3807    1.8611    0.1946 H   0  0  0  0  0  0  0  0  0  0  0  0
  1  2  1  0
  2  3  2  0
  3  4  1  0
  4  5  2  0
  5  6  1  0
  6  7  2  0
  7  8  1  0
  8  9  2  0
  9 10  1  0
 10 11  2  0
 11 12  1  0
 12 13  2  0
  3 14  1  0
 14 15  2  0
 15 16  1  0
 16 17  2  0
 17 18  1  0
 18 19  2  0
  7  2  1  0
 13  8  1  0
 19 14  1  0
  1 20  1  0
  4 21  1  0
  5 22  1  0
  6 23  1  0
  9 24  1  0
 10 25  1  0
 11 26  1  0
 12 27  1  0
 13 28  1  0
 15 29  1  0
 16 30  1  0
 17 31  1  0
 18 32  1  0
 19 33  1  0
M  END
