
     RDKit          3D

 14 14  0  0  0  0  0  0  0  0999 V2000
    2.1927    1.6151    0.1160 O   0  0  0  0  0  0  0  0  0  0  0  0
    1.1221    0.7206    0.0588 C   0  0  0  0  0  0  0  0  0  0  0  0
   -0.1855    1.2278   -0.0022 C   0  0  0  0  0  0  0  0  0  0  0  0
   -0.4722    3.1247   -0.0057 Br  0  0  0  0  0  0  0  0  0  0  0  0
   -1.2849    0.3566   -0.0607 C   0  0  0  0  0  0  0  0  0  0  0  0
   -1.0705   -1.0352   -0.0580 C   0  0  0  0  0  0  0  0  0  0  0  0
   -2.5202   -2.2864   -0.1357 Br  0  0  0  0  0  0  0  0  0  0  0  0
    0.2324   -1.5377    0.0028 C   0  0  0  0  0  0  0  0  0  0  0  0
    1.3285   -0.6724    0.0611 C   0  0  0  0  0  0  0  0  0  0  0  0
    3.0832   -1.4392    0.1425 Br  0  0  0  0  0  0  0  0  0  0  0  0
   -2.5720    0.8946   -0.1206 O   0  0  0  0  0  0  0  0  0  0  0  0
    3.1581    1.3161    0.1615 H   0  0  0  0  0  0  0  0  0  0  0  0
    0.3942   -2.6083    0.0048 H   0  0  0  0  0  0  0  0  0  0  0  0
   -3.4059    0.3236   -0.1645 H   0  0  0  0  0  0  0  0  0  0  0  0
  1  2  1  0
  2  3  2  0
  3  4  1  0
  3  5  1  0
  5  6  2  0
  6  7  1  0
  6  8  1  0
  8  9  2  0
  9 10  1  0
  5 11  1  0
  9  2  1  0
  1 12  1  0
  8 13  1  0
 11 14  1  0
M  END
