
     RDKit          3D

 22 22  0  0  0  0  0  0  0  0999 V2000
    3.8042    0.3136   -1.0236 C   0  0  0  0  0  0  0  0  0  0  0  0
    3.0843   -0.8029   -0.9428 C   0  0  0  0  0  0  0  0  0  0  0  0
    1.9217   -0.9221   -0.0513 C   0  0  0  0  0  0  0  0  0  0  0  0
    1.2762   -2.0048   -0.0265 O   0  0  0  0  0  0  0  0  0  0  0  0
    1.5396    0.1525    0.7622 O   0  0  0  0  0  0  0  0  0  0  0  0
    0.3963    0.1230    1.6140 C   0  0  0  0  0  0  0  0  0  0  0  0
   -0.8666    0.1955    0.7999 C   0  0  0  0  0  0  0  0  0  0  0  0
   -1.7298   -0.9099    0.7156 C   0  0  0  0  0  0  0  0  0  0  0  0
   -2.8921   -0.8373   -0.0589 C   0  0  0  0  0  0  0  0  0  0  0  0
   -3.1981    0.3352   -0.7553 C   0  0  0  0  0  0  0  0  0  0  0  0
   -2.3415    1.4369   -0.6798 C   0  0  0  0  0  0  0  0  0  0  0  0
   -1.1782    1.3685    0.0934 C   0  0  0  0  0  0  0  0  0  0  0  0
    3.5628    1.1875   -0.4319 H   0  0  0  0  0  0  0  0  0  0  0  0
    4.6527    0.3603   -1.6938 H   0  0  0  0  0  0  0  0  0  0  0  0
    3.3629   -1.6515   -1.5557 H   0  0  0  0  0  0  0  0  0  0  0  0
    0.4218   -0.7876    2.2521 H   0  0  0  0  0  0  0  0  0  0  0  0
    0.4371    1.0010    2.2928 H   0  0  0  0  0  0  0  0  0  0  0  0
   -1.5035   -1.8266    1.2457 H   0  0  0  0  0  0  0  0  0  0  0  0
   -3.5548   -1.6909   -0.1205 H   0  0  0  0  0  0  0  0  0  0  0  0
   -4.0977    0.3893   -1.3547 H   0  0  0  0  0  0  0  0  0  0  0  0
   -2.5779    2.3436   -1.2216 H   0  0  0  0  0  0  0  0  0  0  0  0
   -0.5195    2.2269    0.1409 H   0  0  0  0  0  0  0  0  0  0  0  0
  1  2  2  3
  2  3  1  0
  3  4  2  0
  3  5  1  0
  5  6  1  0
  6  7  1  0
  7  8  2  0
  8  9  1  0
  9 10  2  0
 10 11  1  0
 11 12  2  0
 12  7  1  0
  1 13  1  0
  1 14  1  0
  2 15  1  0
  6 16  1  0
  6 17  1  0
  8 18  1  0
  9 19  1  0
 10 20  1  0
 11 21  1  0
 12 22  1  0
M  END
