
     RDKit          3D

 17 16  0  0  0  0  0  0  0  0999 V2000
   -2.2045    0.7304   -0.0434 C   0  0  0  0  0  0  0  0  0  0  0  0
   -1.5701   -0.2952    0.8909 C   0  0  0  0  0  0  0  0  0  0  0  0
   -0.6799   -1.2402    0.1285 C   0  0  0  0  0  0  0  0  0  0  0  0
   -1.1548   -2.3481   -0.2385 O   0  0  0  0  0  0  0  0  0  0  0  0
    0.7169   -0.9211   -0.2404 C   0  0  0  0  0  0  0  0  0  0  0  0
    1.3138    0.2442    0.0333 C   0  0  0  0  0  0  0  0  0  0  0  0
    2.7301    0.4915   -0.3765 C   0  0  0  0  0  0  0  0  0  0  0  0
   -2.8623    1.4077    0.5409 H   0  0  0  0  0  0  0  0  0  0  0  0
   -1.4239    1.3406   -0.5444 H   0  0  0  0  0  0  0  0  0  0  0  0
   -2.8179    0.2186   -0.8156 H   0  0  0  0  0  0  0  0  0  0  0  0
   -1.0013    0.2180    1.6943 H   0  0  0  0  0  0  0  0  0  0  0  0
   -2.3797   -0.8723    1.3884 H   0  0  0  0  0  0  0  0  0  0  0  0
    1.2789   -1.6828   -0.7692 H   0  0  0  0  0  0  0  0  0  0  0  0
    0.7904    1.0368    0.5498 H   0  0  0  0  0  0  0  0  0  0  0  0
    3.4000   -0.2503    0.1075 H   0  0  0  0  0  0  0  0  0  0  0  0
    2.8253    0.4114   -1.4800 H   0  0  0  0  0  0  0  0  0  0  0  0
    3.0391    1.5109   -0.0635 H   0  0  0  0  0  0  0  0  0  0  0  0
  1  2  1  0
  2  3  1  0
  3  4  2  0
  3  5  1  0
  5  6  2  0
  6  7  1  0
  1  8  1  0
  1  9  1  0
  1 10  1  0
  2 11  1  0
  2 12  1  0
  5 13  1  0
  6 14  1  0
  7 15  1  0
  7 16  1  0
  7 17  1  0
M  END
