
     RDKit          3D

 30 29  0  0  0  0  0  0  0  0999 V2000
   -5.1771    0.2887   -0.4892 C   0  0  0  0  0  0  0  0  0  0  0  0
   -3.7469    0.6043   -0.0602 C   0  0  0  0  0  0  0  0  0  0  0  0
   -2.9553   -0.6833    0.2132 C   0  0  0  0  0  0  0  0  0  0  0  0
   -1.5512   -0.4086    0.7757 C   0  0  0  0  0  0  0  0  0  0  0  0
   -0.5831    0.1308   -0.2915 C   0  0  0  0  0  0  0  0  0  0  0  0
    0.8196    0.4104    0.2715 C   0  0  0  0  0  0  0  0  0  0  0  0
    1.6109   -0.8723    0.5592 C   0  0  0  0  0  0  0  0  0  0  0  0
    2.9406   -0.5563    0.9679 O   0  0  0  0  0  0  0  0  0  0  0  0
    3.9476   -0.1621    0.0801 C   0  0  0  0  0  0  0  0  0  0  0  0
    3.7259   -0.1158   -1.1618 O   0  0  0  0  0  0  0  0  0  0  0  0
    5.2705    0.1896    0.6191 C   0  0  0  0  0  0  0  0  0  0  0  0
    6.2825    0.5738   -0.1569 C   0  0  0  0  0  0  0  0  0  0  0  0
   -5.7087   -0.2641    0.3145 H   0  0  0  0  0  0  0  0  0  0  0  0
   -5.7228    1.2349   -0.6890 H   0  0  0  0  0  0  0  0  0  0  0  0
   -5.1753   -0.3232   -1.4164 H   0  0  0  0  0  0  0  0  0  0  0  0
   -3.2611    1.1887   -0.8694 H   0  0  0  0  0  0  0  0  0  0  0  0
   -3.7787    1.2300    0.8582 H   0  0  0  0  0  0  0  0  0  0  0  0
   -2.8778   -1.2864   -0.7182 H   0  0  0  0  0  0  0  0  0  0  0  0
   -3.5107   -1.2908    0.9614 H   0  0  0  0  0  0  0  0  0  0  0  0
   -1.1583   -1.3681    1.1723 H   0  0  0  0  0  0  0  0  0  0  0  0
   -1.6187    0.3053    1.6256 H   0  0  0  0  0  0  0  0  0  0  0  0
   -0.9777    1.0881   -0.6917 H   0  0  0  0  0  0  0  0  0  0  0  0
   -0.5123   -0.5854   -1.1393 H   0  0  0  0  0  0  0  0  0  0  0  0
    0.7442    1.0191    1.1989 H   0  0  0  0  0  0  0  0  0  0  0  0
    1.3755    1.0138   -0.4778 H   0  0  0  0  0  0  0  0  0  0  0  0
    1.1258   -1.4310    1.3854 H   0  0  0  0  0  0  0  0  0  0  0  0
    1.6344   -1.5320   -0.3360 H   0  0  0  0  0  0  0  0  0  0  0  0
    5.4242    0.1337    1.6896 H   0  0  0  0  0  0  0  0  0  0  0  0
    6.1764    0.6453   -1.2320 H   0  0  0  0  0  0  0  0  0  0  0  0
    7.2376    0.8228    0.2869 H   0  0  0  0  0  0  0  0  0  0  0  0
  1  2  1  0
  2  3  1  0
  3  4  1  0
  4  5  1  0
  5  6  1  0
  6  7  1  0
  7  8  1  0
  8  9  1  0
  9 10  2  0
  9 11  1  0
 11 12  2  3
  1 13  1  0
  1 14  1  0
  1 15  1  0
  2 16  1  0
  2 17  1  0
  3 18  1  0
  3 19  1  0
  4 20  1  0
  4 21  1  0
  5 22  1  0
  5 23  1  0
  6 24  1  0
  6 25  1  0
  7 26  1  0
  7 27  1  0
 11 28  1  0
 12 29  1  0
 12 30  1  0
M  END
