
     RDKit          3D

 16 15  0  0  0  0  0  0  0  0999 V2000
   -1.9436    0.6947   -0.2998 C   0  0  0  0  0  0  0  0  0  0  0  0
   -0.5580    0.4272    0.0921 N   0  0  0  0  0  0  0  0  0  0  0  0
   -0.1993    0.3172    1.5103 C   0  0  0  0  0  0  0  0  0  0  0  0
    0.4720    0.4755   -0.9140 C   0  0  0  0  0  0  0  0  0  0  0  0
    0.3723    1.2961   -1.8654 O   0  0  0  0  0  0  0  0  0  0  0  0
    1.6627   -0.3921   -0.8617 C   0  0  0  0  0  0  0  0  0  0  0  0
    1.6244   -1.6328   -0.3822 C   0  0  0  0  0  0  0  0  0  0  0  0
   -2.0353    1.7351   -0.6771 H   0  0  0  0  0  0  0  0  0  0  0  0
   -2.2473   -0.0126   -1.1002 H   0  0  0  0  0  0  0  0  0  0  0  0
   -2.6405    0.5639    0.5548 H   0  0  0  0  0  0  0  0  0  0  0  0
    0.6604    0.9834    1.7358 H   0  0  0  0  0  0  0  0  0  0  0  0
    0.0703   -0.7274    1.7618 H   0  0  0  0  0  0  0  0  0  0  0  0
   -1.0430    0.6209    2.1653 H   0  0  0  0  0  0  0  0  0  0  0  0
    2.5823   -0.0370   -1.3104 H   0  0  0  0  0  0  0  0  0  0  0  0
    0.7059   -2.0675   -0.0110 H   0  0  0  0  0  0  0  0  0  0  0  0
    2.5168   -2.2447   -0.3983 H   0  0  0  0  0  0  0  0  0  0  0  0
  1  2  1  0
  2  3  1  0
  2  4  1  0
  4  5  2  0
  4  6  1  0
  6  7  2  3
  1  8  1  0
  1  9  1  0
  1 10  1  0
  3 11  1  0
  3 12  1  0
  3 13  1  0
  6 14  1  0
  7 15  1  0
  7 16  1  0
M  END
