
     RDKit          3D

 18 18  0  0  0  0  0  0  0  0999 V2000
   -2.1361   -1.0230    0.4320 C   0  0  0  0  0  0  0  0  0  0  0  0
   -0.8632   -0.2746    0.1467 C   0  0  0  0  0  0  0  0  0  0  0  0
   -0.8766    1.1119   -0.1298 C   0  0  0  0  0  0  0  0  0  0  0  0
   -2.0615    1.8506   -0.1521 O   0  0  0  0  0  0  0  0  0  0  0  0
    0.3257    1.7785   -0.3912 C   0  0  0  0  0  0  0  0  0  0  0  0
    1.5380    1.0860   -0.3811 C   0  0  0  0  0  0  0  0  0  0  0  0
    1.5628   -0.2866   -0.1085 C   0  0  0  0  0  0  0  0  0  0  0  0
    0.3634   -0.9623    0.1544 C   0  0  0  0  0  0  0  0  0  0  0  0
    2.8052   -0.9950   -0.0985 N   0  0  0  0  0  0  0  0  0  0  0  0
   -2.8190   -0.9487   -0.4403 H   0  0  0  0  0  0  0  0  0  0  0  0
   -1.9443   -2.0996    0.6275 H   0  0  0  0  0  0  0  0  0  0  0  0
   -2.6311   -0.5940    1.3285 H   0  0  0  0  0  0  0  0  0  0  0  0
   -2.9698    1.4416    0.0264 H   0  0  0  0  0  0  0  0  0  0  0  0
    0.3195    2.8402   -0.6034 H   0  0  0  0  0  0  0  0  0  0  0  0
    2.4578    1.6194   -0.5858 H   0  0  0  0  0  0  0  0  0  0  0  0
    0.3892   -2.0248    0.3647 H   0  0  0  0  0  0  0  0  0  0  0  0
    3.7043   -0.5004   -0.2931 H   0  0  0  0  0  0  0  0  0  0  0  0
    2.8355   -2.0192    0.1037 H   0  0  0  0  0  0  0  0  0  0  0  0
  1  2  1  0
  2  3  2  0
  3  4  1  0
  3  5  1  0
  5  6  2  0
  6  7  1  0
  7  8  2  0
  7  9  1  0
  8  2  1  0
  1 10  1  0
  1 11  1  0
  1 12  1  0
  4 13  1  0
  5 14  1  0
  6 15  1  0
  8 16  1  0
  9 17  1  0
  9 18  1  0
M  END
