
     RDKit          3D

 20 19  0  0  0  0  0  0  0  0999 V2000
   -3.4486    0.1558    0.2718 C   0  0  0  0  0  0  0  0  0  0  0  0
   -2.4592   -0.8969   -0.2144 C   0  0  0  0  0  0  0  0  0  0  0  0
   -1.1463   -0.6138    0.2653 O   0  0  0  0  0  0  0  0  0  0  0  0
   -0.3336    0.3948   -0.2645 C   0  0  0  0  0  0  0  0  0  0  0  0
   -0.7115    1.0738   -1.2581 O   0  0  0  0  0  0  0  0  0  0  0  0
    1.0219    0.6294    0.3221 C   0  0  0  0  0  0  0  0  0  0  0  0
    2.0581   -0.2804   -0.3477 C   0  0  0  0  0  0  0  0  0  0  0  0
    3.4533   -0.1011    0.2546 C   0  0  0  0  0  0  0  0  0  0  0  0
    4.2257    1.6121   -0.2327 Br  0  0  0  0  0  0  0  0  0  0  0  0
   -3.1875    1.1528   -0.1404 H   0  0  0  0  0  0  0  0  0  0  0  0
   -3.4346    0.2050    1.3811 H   0  0  0  0  0  0  0  0  0  0  0  0
   -4.4727   -0.1113   -0.0638 H   0  0  0  0  0  0  0  0  0  0  0  0
   -2.4636   -0.9476   -1.3250 H   0  0  0  0  0  0  0  0  0  0  0  0
   -2.7722   -1.8878    0.1767 H   0  0  0  0  0  0  0  0  0  0  0  0
    1.3002    1.6966    0.1852 H   0  0  0  0  0  0  0  0  0  0  0  0
    0.9838    0.4187    1.4128 H   0  0  0  0  0  0  0  0  0  0  0  0
    2.0989   -0.0717   -1.4394 H   0  0  0  0  0  0  0  0  0  0  0  0
    1.7514   -1.3410   -0.2118 H   0  0  0  0  0  0  0  0  0  0  0  0
    3.4145   -0.1891    1.3613 H   0  0  0  0  0  0  0  0  0  0  0  0
    4.1220   -0.8983   -0.1333 H   0  0  0  0  0  0  0  0  0  0  0  0
  1  2  1  0
  2  3  1  0
  3  4  1  0
  4  5  2  0
  4  6  1  0
  6  7  1  0
  7  8  1  0
  8  9  1  0
  1 10  1  0
  1 11  1  0
  1 12  1  0
  2 13  1  0
  2 14  1  0
  6 15  1  0
  6 16  1  0
  7 17  1  0
  7 18  1  0
  8 19  1  0
  8 20  1  0
M  END
