
     RDKit          3D

 19 19  0  0  0  0  0  0  0  0999 V2000
    1.0420    2.3857    0.8492 O   0  0  0  0  0  0  0  0  0  0  0  0
    0.5150    1.1696    0.4033 C   0  0  0  0  0  0  0  0  0  0  0  0
    1.3350    0.0414    0.1565 C   0  0  0  0  0  0  0  0  0  0  0  0
    2.7257    0.1046    0.2853 O   0  0  0  0  0  0  0  0  0  0  0  0
    0.7476   -1.1741   -0.2548 C   0  0  0  0  0  0  0  0  0  0  0  0
   -0.6416   -1.2362   -0.4469 C   0  0  0  0  0  0  0  0  0  0  0  0
   -1.4643   -0.1217   -0.2217 C   0  0  0  0  0  0  0  0  0  0  0  0
   -0.8760    1.0868    0.2028 C   0  0  0  0  0  0  0  0  0  0  0  0
   -1.6771    2.2111    0.4159 O   0  0  0  0  0  0  0  0  0  0  0  0
   -2.8897   -0.2331   -0.4243 N   0  0  0  0  0  4  0  0  0  0  0  0
   -3.7570    0.7094    0.0783 O   0  0  0  0  0  1  0  0  0  0  0  0
   -3.3674   -1.2188   -1.0241 O   0  0  0  0  0  0  0  0  0  0  0  0
    1.5506   -2.3502   -0.4897 N   0  0  0  0  0  4  0  0  0  0  0  0
    2.8009   -2.4800    0.0700 O   0  0  0  0  0  1  0  0  0  0  0  0
    1.0936   -3.3051   -1.1520 O   0  0  0  0  0  0  0  0  0  0  0  0
    2.0105    2.5368    1.0896 H   0  0  0  0  0  0  0  0  0  0  0  0
    3.2442    0.9422    0.5045 H   0  0  0  0  0  0  0  0  0  0  0  0
   -1.0903   -2.1710   -0.7576 H   0  0  0  0  0  0  0  0  0  0  0  0
   -1.3018    3.1028    0.7156 H   0  0  0  0  0  0  0  0  0  0  0  0
  1  2  1  0
  2  3  2  0
  3  4  1  0
  3  5  1  0
  5  6  2  0
  6  7  1  0
  7  8  2  0
  8  9  1  0
  7 10  1  0
 10 11  1  0
 10 12  2  0
  5 13  1  0
 13 14  1  0
 13 15  2  0
  8  2  1  0
  1 16  1  0
  4 17  1  0
  6 18  1  0
  9 19  1  0
M  CHG  4  10   1  11  -1  13   1  14  -1
M  END
