
     RDKit          3D

 14 13  0  0  0  0  0  0  0  0999 V2000
    2.4852    0.0858    0.4313 C   0  0  0  0  0  0  0  0  0  0  0  0
    1.2510    0.2861   -0.2466 O   0  0  0  0  0  0  0  0  0  0  0  0
    0.1671   -0.5859   -0.1097 C   0  0  0  0  0  0  0  0  0  0  0  0
    0.2460   -1.5985    0.6386 O   0  0  0  0  0  0  0  0  0  0  0  0
   -1.1118   -0.2930   -0.8308 C   0  0  0  0  0  0  0  0  0  0  0  0
   -2.1196    0.4021    0.0840 C   0  0  0  0  0  0  0  0  0  0  0  0
   -1.5308    2.1905    0.5584 Br  0  0  0  0  0  0  0  0  0  0  0  0
    2.9326   -0.8844    0.1280 H   0  0  0  0  0  0  0  0  0  0  0  0
    3.1849    0.9040    0.1639 H   0  0  0  0  0  0  0  0  0  0  0  0
    2.3214    0.0969    1.5298 H   0  0  0  0  0  0  0  0  0  0  0  0
   -0.9062    0.3466   -1.7158 H   0  0  0  0  0  0  0  0  0  0  0  0
   -1.5496   -1.2470   -1.1961 H   0  0  0  0  0  0  0  0  0  0  0  0
   -2.2779   -0.1920    1.0095 H   0  0  0  0  0  0  0  0  0  0  0  0
   -3.0923    0.4888   -0.4446 H   0  0  0  0  0  0  0  0  0  0  0  0
  1  2  1  0
  2  3  1  0
  3  4  2  0
  3  5  1  0
  5  6  1  0
  6  7  1  0
  1  8  1  0
  1  9  1  0
  1 10  1  0
  5 11  1  0
  5 12  1  0
  6 13  1  0
  6 14  1  0
M  END
