
     RDKit          3D

 11 11  0  0  0  0  0  0  0  0999 V2000
   -2.4901   -1.4691    0.1896 F   0  0  0  0  0  0  0  0  0  0  0  0
   -1.3866   -0.6872    0.1009 C   0  0  0  0  0  0  0  0  0  0  0  0
   -1.5195    0.6655    0.0590 N   0  0  0  0  0  0  0  0  0  0  0  0
   -0.4394    1.4870   -0.0299 C   0  0  0  0  0  0  0  0  0  0  0  0
    0.8492    0.9466   -0.0808 C   0  0  0  0  0  0  0  0  0  0  0  0
    1.9269    1.7657   -0.1696 F   0  0  0  0  0  0  0  0  0  0  0  0
    1.0115   -0.4430   -0.0393 C   0  0  0  0  0  0  0  0  0  0  0  0
   -0.1156   -1.2679    0.0523 C   0  0  0  0  0  0  0  0  0  0  0  0
    0.0174   -2.6173    0.0940 F   0  0  0  0  0  0  0  0  0  0  0  0
    2.7633   -1.2103   -0.1074 Br  0  0  0  0  0  0  0  0  0  0  0  0
   -0.6171    2.8301   -0.0689 F   0  0  0  0  0  0  0  0  0  0  0  0
  1  2  1  0
  2  3  2  0
  3  4  1  0
  4  5  2  0
  5  6  1  0
  5  7  1  0
  7  8  2  0
  8  9  1  0
  7 10  1  0
  4 11  1  0
  8  2  1  0
M  END
