
     RDKit          3D

 17 16  0  0  0  0  0  0  0  0999 V2000
   -1.4978    1.0605    1.0238 C   0  0  0  0  0  0  0  0  0  0  0  0
   -1.6901   -0.3907    0.5845 C   0  0  0  0  0  0  0  0  0  0  0  0
   -0.3776   -1.1847    0.5965 C   0  0  0  0  0  0  0  0  0  0  0  0
    0.5682   -0.7128   -0.4696 C   0  0  0  0  0  0  0  0  0  0  0  0
    0.4159   -1.1104   -1.6562 O   0  0  0  0  0  0  0  0  0  0  0  0
    1.6156    0.2099   -0.1519 N   0  0  0  0  0  0  0  0  0  0  0  0
    2.4818    0.6815   -1.1511 N   0  0  0  0  0  0  0  0  0  0  0  0
   -1.0339    1.1015    2.0323 H   0  0  0  0  0  0  0  0  0  0  0  0
   -0.8555    1.6054    0.3005 H   0  0  0  0  0  0  0  0  0  0  0  0
   -2.4844    1.5680    1.0666 H   0  0  0  0  0  0  0  0  0  0  0  0
   -2.1406   -0.4148   -0.4319 H   0  0  0  0  0  0  0  0  0  0  0  0
   -2.4049   -0.8777    1.2826 H   0  0  0  0  0  0  0  0  0  0  0  0
   -0.6072   -2.2578    0.4199 H   0  0  0  0  0  0  0  0  0  0  0  0
    0.1030   -1.1123    1.5962 H   0  0  0  0  0  0  0  0  0  0  0  0
    1.7062    0.5689    0.8262 H   0  0  0  0  0  0  0  0  0  0  0  0
    3.1170    1.3874   -0.7137 H   0  0  0  0  0  0  0  0  0  0  0  0
    3.0842   -0.1220   -1.4418 H   0  0  0  0  0  0  0  0  0  0  0  0
  1  2  1  0
  2  3  1  0
  3  4  1  0
  4  5  2  0
  4  6  1  0
  6  7  1  0
  1  8  1  0
  1  9  1  0
  1 10  1  0
  2 11  1  0
  2 12  1  0
  3 13  1  0
  3 14  1  0
  6 15  1  0
  7 16  1  0
  7 17  1  0
M  END
