
     RDKit          3D

 26 26  0  0  0  0  0  0  0  0999 V2000
   -1.3078   -2.4789   -0.2587 C   0  0  0  0  0  0  0  0  0  0  0  0
   -1.3605   -1.1816   -1.0581 C   0  0  0  0  0  0  0  0  0  0  0  0
   -0.8848   -0.0548   -0.2423 N   0  0  0  0  0  0  0  0  0  0  0  0
   -1.8228    0.9844    0.2068 C   0  0  0  0  0  0  0  0  0  0  0  0
   -1.5399    2.3026   -0.5056 C   0  0  0  0  0  0  0  0  0  0  0  0
    0.5077    0.0314    0.1190 C   0  0  0  0  0  0  0  0  0  0  0  0
    0.8881    0.1104    1.4695 C   0  0  0  0  0  0  0  0  0  0  0  0
    2.2397    0.1934    1.8179 C   0  0  0  0  0  0  0  0  0  0  0  0
    3.2206    0.1994    0.8229 C   0  0  0  0  0  0  0  0  0  0  0  0
    2.8513    0.1219   -0.5224 C   0  0  0  0  0  0  0  0  0  0  0  0
    1.5009    0.0375   -0.8751 C   0  0  0  0  0  0  0  0  0  0  0  0
   -0.2602   -2.7158    0.0238 H   0  0  0  0  0  0  0  0  0  0  0  0
   -1.9223   -2.3832    0.6616 H   0  0  0  0  0  0  0  0  0  0  0  0
   -1.7078   -3.3129   -0.8730 H   0  0  0  0  0  0  0  0  0  0  0  0
   -0.7408   -1.2829   -1.9735 H   0  0  0  0  0  0  0  0  0  0  0  0
   -2.4062   -1.0146   -1.3950 H   0  0  0  0  0  0  0  0  0  0  0  0
   -1.7406    1.1293    1.3043 H   0  0  0  0  0  0  0  0  0  0  0  0
   -2.8735    0.6876   -0.0002 H   0  0  0  0  0  0  0  0  0  0  0  0
   -0.5220    2.6673   -0.2522 H   0  0  0  0  0  0  0  0  0  0  0  0
   -1.6158    2.1641   -1.6050 H   0  0  0  0  0  0  0  0  0  0  0  0
   -2.2807    3.0659   -0.1873 H   0  0  0  0  0  0  0  0  0  0  0  0
    0.1417    0.0890    2.2526 H   0  0  0  0  0  0  0  0  0  0  0  0
    2.5268    0.2495    2.8600 H   0  0  0  0  0  0  0  0  0  0  0  0
    4.2664    0.2642    1.0942 H   0  0  0  0  0  0  0  0  0  0  0  0
    3.6116    0.1306   -1.2927 H   0  0  0  0  0  0  0  0  0  0  0  0
    1.2306   -0.0040   -1.9219 H   0  0  0  0  0  0  0  0  0  0  0  0
  1  2  1  0
  2  3  1  0
  3  4  1  0
  4  5  1  0
  3  6  1  0
  6  7  2  0
  7  8  1  0
  8  9  2  0
  9 10  1  0
 10 11  2  0
 11  6  1  0
  1 12  1  0
  1 13  1  0
  1 14  1  0
  2 15  1  0
  2 16  1  0
  4 17  1  0
  4 18  1  0
  5 19  1  0
  5 20  1  0
  5 21  1  0
  7 22  1  0
  8 23  1  0
  9 24  1  0
 10 25  1  0
 11 26  1  0
M  END
