
     RDKit          3D

 22 22  0  0  0  0  0  0  0  0999 V2000
    0.6876   -2.5186   -0.9329 O   0  0  0  0  0  0  0  0  0  0  0  0
   -0.2743   -1.5812   -0.5581 C   0  0  0  0  0  0  0  0  0  0  0  0
   -1.6272   -1.9407   -0.5244 C   0  0  0  0  0  0  0  0  0  0  0  0
   -2.5964   -1.0088   -0.1494 C   0  0  0  0  0  0  0  0  0  0  0  0
   -2.2287    0.3046    0.1898 C   0  0  0  0  0  0  0  0  0  0  0  0
   -0.8694    0.6624    0.1528 C   0  0  0  0  0  0  0  0  0  0  0  0
    0.1150   -0.2778   -0.2039 C   0  0  0  0  0  0  0  0  0  0  0  0
    1.5036    0.0942   -0.2654 N   0  0  0  0  0  0  0  0  0  0  0  0
    2.1340    0.9874    0.6660 C   0  0  0  0  0  0  0  0  0  0  0  0
    1.5455    1.3290    1.7275 O   0  0  0  0  0  0  0  0  0  0  0  0
    3.5357    1.4471    0.4261 C   0  0  0  0  0  0  0  0  0  0  0  0
    4.7780    0.1145    1.0786 Br  0  0  0  0  0  0  0  0  0  0  0  0
   -3.2271    1.2731    0.5614 N   0  0  0  0  0  4  0  0  0  0  0  0
   -2.8650    2.5567    0.9008 O   0  0  0  0  0  1  0  0  0  0  0  0
   -4.4366    0.9638    0.5857 O   0  0  0  0  0  0  0  0  0  0  0  0
    0.4346   -3.4657   -1.1897 H   0  0  0  0  0  0  0  0  0  0  0  0
   -1.9296   -2.9459   -0.7893 H   0  0  0  0  0  0  0  0  0  0  0  0
   -3.6348   -1.3140   -0.1315 H   0  0  0  0  0  0  0  0  0  0  0  0
   -0.5788    1.6799    0.3764 H   0  0  0  0  0  0  0  0  0  0  0  0
    2.1103   -0.3694   -0.9790 H   0  0  0  0  0  0  0  0  0  0  0  0
    3.7031    1.6026   -0.6603 H   0  0  0  0  0  0  0  0  0  0  0  0
    3.7206    2.4069    0.9534 H   0  0  0  0  0  0  0  0  0  0  0  0
  1  2  1  0
  2  3  2  0
  3  4  1  0
  4  5  2  0
  5  6  1  0
  6  7  2  0
  7  8  1  0
  8  9  1  0
  9 10  2  0
  9 11  1  0
 11 12  1  0
  5 13  1  0
 13 14  1  0
 13 15  2  0
  7  2  1  0
  1 16  1  0
  3 17  1  0
  4 18  1  0
  6 19  1  0
  8 20  1  0
 11 21  1  0
 11 22  1  0
M  CHG  2  13   1  14  -1
M  END
