
     RDKit          3D

 20 19  0  0  0  0  0  0  0  0999 V2000
   -3.2431    1.6306    0.0895 O   0  0  0  0  0  0  0  0  0  0  0  0
   -2.9816    0.2639    0.1164 C   0  0  0  0  0  0  0  0  0  0  0  0
   -3.7107   -0.4928    0.8102 O   0  0  0  0  0  0  0  0  0  0  0  0
   -1.8153   -0.3037   -0.6345 C   0  0  0  0  0  0  0  0  0  0  0  0
   -0.5307   -0.1681    0.1882 C   0  0  0  0  0  0  0  0  0  0  0  0
    0.6742   -0.7347   -0.5776 C   0  0  0  0  0  0  0  0  0  0  0  0
    1.9618   -0.7323    0.2609 C   0  0  0  0  0  0  0  0  0  0  0  0
    2.5176    0.6757    0.4844 C   0  0  0  0  0  0  0  0  0  0  0  0
    4.2248    0.5780    1.3955 Br  0  0  0  0  0  0  0  0  0  0  0  0
   -2.6603    2.2647   -0.4439 H   0  0  0  0  0  0  0  0  0  0  0  0
   -2.0078   -1.3754   -0.8612 H   0  0  0  0  0  0  0  0  0  0  0  0
   -1.7053    0.2382   -1.5988 H   0  0  0  0  0  0  0  0  0  0  0  0
   -0.3596    0.9066    0.4124 H   0  0  0  0  0  0  0  0  0  0  0  0
   -0.6511   -0.7171    1.1483 H   0  0  0  0  0  0  0  0  0  0  0  0
    0.8338   -0.1567   -1.5144 H   0  0  0  0  0  0  0  0  0  0  0  0
    0.4547   -1.7866   -0.8643 H   0  0  0  0  0  0  0  0  0  0  0  0
    2.7272   -1.3315   -0.2786 H   0  0  0  0  0  0  0  0  0  0  0  0
    1.7782   -1.2236    1.2413 H   0  0  0  0  0  0  0  0  0  0  0  0
    2.6659    1.1912   -0.4882 H   0  0  0  0  0  0  0  0  0  0  0  0
    1.8272    1.2735    1.1143 H   0  0  0  0  0  0  0  0  0  0  0  0
  1  2  1  0
  2  3  2  0
  2  4  1  0
  4  5  1  0
  5  6  1  0
  6  7  1  0
  7  8  1  0
  8  9  1  0
  1 10  1  0
  4 11  1  0
  4 12  1  0
  5 13  1  0
  5 14  1  0
  6 15  1  0
  6 16  1  0
  7 17  1  0
  7 18  1  0
  8 19  1  0
  8 20  1  0
M  END
