
     RDKit          3D

 21 20  0  0  0  0  0  0  0  0999 V2000
    3.9218   -0.0316   -0.5111 O   0  0  0  0  0  0  0  0  0  0  0  0
    2.7489   -0.1523    0.2441 C   0  0  0  0  0  0  0  0  0  0  0  0
    1.5371   -0.0943   -0.6849 C   0  0  0  0  0  0  0  0  0  0  0  0
    0.2277   -0.2251    0.1027 C   0  0  0  0  0  0  0  0  0  0  0  0
   -0.9868   -0.1541   -0.8353 C   0  0  0  0  0  0  0  0  0  0  0  0
   -2.3162   -0.4285   -0.1101 C   0  0  0  0  0  0  0  0  0  0  0  0
   -2.7494    0.6936    0.8405 C   0  0  0  0  0  0  0  0  0  0  0  0
   -3.1928    2.3218   -0.1195 Br  0  0  0  0  0  0  0  0  0  0  0  0
    4.6720   -0.0754    0.1372 H   0  0  0  0  0  0  0  0  0  0  0  0
    2.6934    0.6795    0.9821 H   0  0  0  0  0  0  0  0  0  0  0  0
    2.7547   -1.1229    0.7894 H   0  0  0  0  0  0  0  0  0  0  0  0
    1.6099   -0.9201   -1.4265 H   0  0  0  0  0  0  0  0  0  0  0  0
    1.5460    0.8735   -1.2329 H   0  0  0  0  0  0  0  0  0  0  0  0
    0.2215   -1.1965    0.6444 H   0  0  0  0  0  0  0  0  0  0  0  0
    0.1750    0.5975    0.8471 H   0  0  0  0  0  0  0  0  0  0  0  0
   -0.8697   -0.9247   -1.6287 H   0  0  0  0  0  0  0  0  0  0  0  0
   -1.0184    0.8359   -1.3383 H   0  0  0  0  0  0  0  0  0  0  0  0
   -2.2354   -1.3782    0.4623 H   0  0  0  0  0  0  0  0  0  0  0  0
   -3.1140   -0.5730   -0.8706 H   0  0  0  0  0  0  0  0  0  0  0  0
   -1.9655    0.9070    1.5949 H   0  0  0  0  0  0  0  0  0  0  0  0
   -3.6599    0.3680    1.3864 H   0  0  0  0  0  0  0  0  0  0  0  0
  1  2  1  0
  2  3  1  0
  3  4  1  0
  4  5  1  0
  5  6  1  0
  6  7  1  0
  7  8  1  0
  1  9  1  0
  2 10  1  0
  2 11  1  0
  3 12  1  0
  3 13  1  0
  4 14  1  0
  4 15  1  0
  5 16  1  0
  5 17  1  0
  6 18  1  0
  6 19  1  0
  7 20  1  0
  7 21  1  0
M  END
