
     RDKit          3D

 22 21  0  0  0  0  0  0  0  0999 V2000
   -3.0610    1.0023   -0.4591 C   0  0  0  0  0  0  0  0  0  0  0  0
   -2.6438   -0.2765    0.2666 C   0  0  0  0  0  0  0  0  0  0  0  0
   -1.3175   -0.8506   -0.2551 C   0  0  0  0  0  0  0  0  0  0  0  0
   -0.1071    0.0095    0.1374 C   0  0  0  0  0  0  0  0  0  0  0  0
    1.2038   -0.6590   -0.2941 C   0  0  0  0  0  0  0  0  0  0  0  0
    2.4111    0.1983    0.0857 C   0  0  0  0  0  0  0  0  0  0  0  0
    3.6354   -0.4674   -0.3375 N   0  0  0  0  0  0  0  0  0  0  0  0
    4.7746    0.0579   -0.1285 C   0  0  0  0  0  0  0  0  0  0  0  0
    6.2174    0.7241    0.1368 S   0  0  0  0  0  0  0  0  0  0  0  0
   -2.3631    1.8328   -0.2258 H   0  0  0  0  0  0  0  0  0  0  0  0
   -4.0767    1.3012   -0.1245 H   0  0  0  0  0  0  0  0  0  0  0  0
   -3.0859    0.8361   -1.5571 H   0  0  0  0  0  0  0  0  0  0  0  0
   -2.5728   -0.0793    1.3584 H   0  0  0  0  0  0  0  0  0  0  0  0
   -3.4394   -1.0378    0.1143 H   0  0  0  0  0  0  0  0  0  0  0  0
   -1.1911   -1.8673    0.1775 H   0  0  0  0  0  0  0  0  0  0  0  0
   -1.3633   -0.9584   -1.3612 H   0  0  0  0  0  0  0  0  0  0  0  0
   -0.1812    1.0041   -0.3521 H   0  0  0  0  0  0  0  0  0  0  0  0
   -0.0988    0.1554    1.2401 H   0  0  0  0  0  0  0  0  0  0  0  0
    1.1972   -0.8109   -1.3960 H   0  0  0  0  0  0  0  0  0  0  0  0
    1.2941   -1.6522    0.1987 H   0  0  0  0  0  0  0  0  0  0  0  0
    2.3366    1.1904   -0.4127 H   0  0  0  0  0  0  0  0  0  0  0  0
    2.4314    0.3472    1.1884 H   0  0  0  0  0  0  0  0  0  0  0  0
  1  2  1  0
  2  3  1  0
  3  4  1  0
  4  5  1  0
  5  6  1  0
  6  7  1  0
  7  8  2  0
  8  9  2  0
  1 10  1  0
  1 11  1  0
  1 12  1  0
  2 13  1  0
  2 14  1  0
  3 15  1  0
  3 16  1  0
  4 17  1  0
  4 18  1  0
  5 19  1  0
  5 20  1  0
  6 21  1  0
  6 22  1  0
M  END
