
     RDKit          3D

 18 17  0  0  0  0  0  0  0  0999 V2000
    2.5054   -0.4250   -0.7173 C   0  0  0  0  0  0  0  0  0  0  0  0
    1.9149    0.2731    0.5029 C   0  0  0  0  0  0  0  0  0  0  0  0
    0.4918    0.6796    0.2456 C   0  0  0  0  0  0  0  0  0  0  0  0
    0.2561    1.8421   -0.1818 O   0  0  0  0  0  0  0  0  0  0  0  0
   -0.6224   -0.2725    0.4404 C   0  0  0  0  0  0  0  0  0  0  0  0
   -0.3826   -1.4478    0.8287 O   0  0  0  0  0  0  0  0  0  0  0  0
   -2.0407    0.1191    0.1377 C   0  0  0  0  0  0  0  0  0  0  0  0
   -2.3473   -0.0679   -1.3441 C   0  0  0  0  0  0  0  0  0  0  0  0
    3.5591   -0.7073   -0.5102 H   0  0  0  0  0  0  0  0  0  0  0  0
    1.9307   -1.3462   -0.9522 H   0  0  0  0  0  0  0  0  0  0  0  0
    2.4851    0.2537   -1.5968 H   0  0  0  0  0  0  0  0  0  0  0  0
    1.9669   -0.4052    1.3816 H   0  0  0  0  0  0  0  0  0  0  0  0
    2.5236    1.1733    0.7374 H   0  0  0  0  0  0  0  0  0  0  0  0
   -2.7368   -0.5084    0.7356 H   0  0  0  0  0  0  0  0  0  0  0  0
   -2.2150    1.1788    0.4234 H   0  0  0  0  0  0  0  0  0  0  0  0
   -1.6831    0.5744   -1.9610 H   0  0  0  0  0  0  0  0  0  0  0  0
   -2.2039   -1.1303   -1.6361 H   0  0  0  0  0  0  0  0  0  0  0  0
   -3.4017    0.2167   -1.5442 H   0  0  0  0  0  0  0  0  0  0  0  0
  1  2  1  0
  2  3  1  0
  3  4  2  0
  3  5  1  0
  5  6  2  0
  5  7  1  0
  7  8  1  0
  1  9  1  0
  1 10  1  0
  1 11  1  0
  2 12  1  0
  2 13  1  0
  7 14  1  0
  7 15  1  0
  8 16  1  0
  8 17  1  0
  8 18  1  0
M  END
