
     RDKit          3D

 13 13  0  0  0  0  0  0  0  0999 V2000
   -2.8943    1.1340    0.2202 O   0  0  0  0  0  1  0  0  0  0  0  0
   -2.2294   -0.0486   -0.0105 N   0  0  0  0  0  4  0  0  0  0  0  0
   -2.8896   -1.0566   -0.3377 O   0  0  0  0  0  0  0  0  0  0  0  0
   -0.7985   -0.1204    0.1233 C   0  0  0  0  0  0  0  0  0  0  0  0
   -0.1089   -1.3237   -0.1101 C   0  0  0  0  0  0  0  0  0  0  0  0
    1.2437   -1.3760    0.0203 N   0  0  0  0  0  0  0  0  0  0  0  0
    1.9719   -0.2852    0.3758 C   0  0  0  0  0  0  0  0  0  0  0  0
    3.7125   -0.4145    0.5279 Cl  0  0  0  0  0  0  0  0  0  0  0  0
    1.3324    0.9321    0.6180 C   0  0  0  0  0  0  0  0  0  0  0  0
   -0.0555    1.0131    0.4912 C   0  0  0  0  0  0  0  0  0  0  0  0
   -0.6427   -2.2203   -0.3954 H   0  0  0  0  0  0  0  0  0  0  0  0
    1.9038    1.8067    0.9017 H   0  0  0  0  0  0  0  0  0  0  0  0
   -0.5455    1.9594    0.6803 H   0  0  0  0  0  0  0  0  0  0  0  0
  1  2  1  0
  2  3  2  0
  2  4  1  0
  4  5  2  0
  5  6  1  0
  6  7  2  0
  7  8  1  0
  7  9  1  0
  9 10  2  0
 10  4  1  0
  5 11  1  0
  9 12  1  0
 10 13  1  0
M  CHG  2   1  -1   2   1
M  END
