
     RDKit          3D

 13 12  0  0  0  0  0  0  0  0999 V2000
   -2.2013    0.3196   -0.2605 O   0  0  0  0  0  0  0  0  0  0  0  0
   -0.9562   -0.1082    0.2176 C   0  0  0  0  0  0  0  0  0  0  0  0
    0.0897   -0.0075   -0.9050 C   0  0  0  0  0  0  0  0  0  0  0  0
    0.2152    1.3123   -1.3746 O   0  0  0  0  0  0  0  0  0  0  0  0
    1.4568   -0.5771   -0.4891 C   0  0  0  0  0  0  0  0  0  0  0  0
    2.2779    0.3873    0.9873 Br  0  0  0  0  0  0  0  0  0  0  0  0
   -2.8340    0.2291    0.4988 H   0  0  0  0  0  0  0  0  0  0  0  0
   -1.0339   -1.1660    0.5558 H   0  0  0  0  0  0  0  0  0  0  0  0
   -0.6550    0.5211    1.0843 H   0  0  0  0  0  0  0  0  0  0  0  0
   -0.2743   -0.6284   -1.7527 H   0  0  0  0  0  0  0  0  0  0  0  0
    0.4200    1.8952   -0.5981 H   0  0  0  0  0  0  0  0  0  0  0  0
    2.1495   -0.5351   -1.3562 H   0  0  0  0  0  0  0  0  0  0  0  0
    1.3456   -1.6423   -0.1941 H   0  0  0  0  0  0  0  0  0  0  0  0
  1  2  1  0
  2  3  1  0
  3  4  1  0
  3  5  1  0
  5  6  1  0
  1  7  1  0
  2  8  1  0
  2  9  1  0
  3 10  1  0
  4 11  1  0
  5 12  1  0
  5 13  1  0
M  END
