
     RDKit          3D

 20 19  0  0  0  0  0  0  0  0999 V2000
    3.8656    0.1950   -0.0701 C   0  0  0  0  0  0  0  0  0  0  0  0
    2.4701    0.6404   -0.3475 C   0  0  0  0  0  0  0  0  0  0  0  0
    2.2686    1.7585   -0.8951 O   0  0  0  0  0  0  0  0  0  0  0  0
    1.4022   -0.2068   -0.0391 O   0  0  0  0  0  0  0  0  0  0  0  0
    0.0459    0.1444   -0.2938 C   0  0  0  0  0  0  0  0  0  0  0  0
   -0.8672   -0.9929    0.1639 C   0  0  0  0  0  0  0  0  0  0  0  0
   -2.3351   -0.7939   -0.2501 C   0  0  0  0  0  0  0  0  0  0  0  0
   -3.0269    0.3701    0.4738 C   0  0  0  0  0  0  0  0  0  0  0  0
   -2.8471    2.0379   -0.5049 Br  0  0  0  0  0  0  0  0  0  0  0  0
    3.8663   -0.5733    0.7312 H   0  0  0  0  0  0  0  0  0  0  0  0
    4.4825    1.0574    0.2598 H   0  0  0  0  0  0  0  0  0  0  0  0
    4.3051   -0.2395   -0.9918 H   0  0  0  0  0  0  0  0  0  0  0  0
   -0.0901    0.3227   -1.3831 H   0  0  0  0  0  0  0  0  0  0  0  0
   -0.1992    1.0711    0.2672 H   0  0  0  0  0  0  0  0  0  0  0  0
   -0.5053   -1.9397   -0.2933 H   0  0  0  0  0  0  0  0  0  0  0  0
   -0.7961   -1.1066    1.2677 H   0  0  0  0  0  0  0  0  0  0  0  0
   -2.8810   -1.7286    0.0045 H   0  0  0  0  0  0  0  0  0  0  0  0
   -2.4122   -0.6667   -1.3517 H   0  0  0  0  0  0  0  0  0  0  0  0
   -2.6320    0.4953    1.5044 H   0  0  0  0  0  0  0  0  0  0  0  0
   -4.1140    0.1552    0.5498 H   0  0  0  0  0  0  0  0  0  0  0  0
  1  2  1  0
  2  3  2  0
  2  4  1  0
  4  5  1  0
  5  6  1  0
  6  7  1  0
  7  8  1  0
  8  9  1  0
  1 10  1  0
  1 11  1  0
  1 12  1  0
  5 13  1  0
  5 14  1  0
  6 15  1  0
  6 16  1  0
  7 17  1  0
  7 18  1  0
  8 19  1  0
  8 20  1  0
M  END
