
     RDKit          3D

 18 18  0  0  0  0  0  0  0  0999 V2000
    2.0006   -1.0933    0.1513 C   0  0  0  0  0  0  0  0  0  0  0  0
    0.5530   -0.6981    0.0328 C   0  0  0  0  0  0  0  0  0  0  0  0
    0.1578    0.6626    0.0432 C   0  0  0  0  0  0  0  0  0  0  0  0
   -1.2125    0.9884   -0.0795 C   0  0  0  0  0  0  0  0  0  0  0  0
   -2.1614   -0.0287   -0.2210 C   0  0  0  0  0  0  0  0  0  0  0  0
   -1.7700   -1.3664   -0.2176 C   0  0  0  0  0  0  0  0  0  0  0  0
   -0.4231   -1.7013   -0.0832 C   0  0  0  0  0  0  0  0  0  0  0  0
   -1.6616    2.3093   -0.0380 O   0  0  0  0  0  0  0  0  0  0  0  0
    1.1375    1.7050    0.1530 N   0  0  0  0  0  4  0  0  0  0  0  0
    1.2257    2.6744   -0.8190 O   0  0  0  0  0  1  0  0  0  0  0  0
    1.9473    1.7140    1.1026 O   0  0  0  0  0  0  0  0  0  0  0  0
    2.1584   -2.1499   -0.1535 H   0  0  0  0  0  0  0  0  0  0  0  0
    2.3331   -0.9776    1.2039 H   0  0  0  0  0  0  0  0  0  0  0  0
    2.6289   -0.4576   -0.5075 H   0  0  0  0  0  0  0  0  0  0  0  0
   -3.2108    0.2203   -0.3168 H   0  0  0  0  0  0  0  0  0  0  0  0
   -2.5136   -2.1468   -0.3159 H   0  0  0  0  0  0  0  0  0  0  0  0
   -0.1409   -2.7470   -0.0809 H   0  0  0  0  0  0  0  0  0  0  0  0
   -1.0484    3.0927    0.1460 H   0  0  0  0  0  0  0  0  0  0  0  0
  1  2  1  0
  2  3  2  0
  3  4  1  0
  4  5  2  0
  5  6  1  0
  6  7  2  0
  4  8  1  0
  3  9  1  0
  9 10  1  0
  9 11  2  0
  7  2  1  0
  1 12  1  0
  1 13  1  0
  1 14  1  0
  5 15  1  0
  6 16  1  0
  7 17  1  0
  8 18  1  0
M  CHG  2   9   1  10  -1
M  END
