
     RDKit          3D

 12 11  0  0  0  0  0  0  0  0999 V2000
   -2.2829    0.9842    1.0685 Br  0  0  0  0  0  0  0  0  0  0  0  0
   -1.5648   -0.3205   -0.1770 C   0  0  0  0  0  0  0  0  0  0  0  0
   -0.0762   -0.5748    0.0710 C   0  0  0  0  0  0  0  0  0  0  0  0
    0.7859    0.6245   -0.3376 C   0  0  0  0  0  0  0  0  0  0  0  0
    2.2066    0.3293   -0.1210 C   0  0  0  0  0  0  0  0  0  0  0  0
    3.3273    0.0966    0.0498 N   0  0  0  0  0  0  0  0  0  0  0  0
   -1.7324    0.0294   -1.2179 H   0  0  0  0  0  0  0  0  0  0  0  0
   -2.1243   -1.2693   -0.0359 H   0  0  0  0  0  0  0  0  0  0  0  0
    0.2307   -1.4632   -0.5241 H   0  0  0  0  0  0  0  0  0  0  0  0
    0.0822   -0.8099    1.1467 H   0  0  0  0  0  0  0  0  0  0  0  0
    0.5164    1.5177    0.2639 H   0  0  0  0  0  0  0  0  0  0  0  0
    0.6314    0.8559   -1.4131 H   0  0  0  0  0  0  0  0  0  0  0  0
  1  2  1  0
  2  3  1  0
  3  4  1  0
  4  5  1  0
  5  6  3  0
  2  7  1  0
  2  8  1  0
  3  9  1  0
  3 10  1  0
  4 11  1  0
  4 12  1  0
M  END
