
     RDKit          3D

 17 16  0  0  0  0  0  0  0  0999 V2000
   -0.9891   -1.0212   -1.0731 C   0  0  0  0  0  0  0  0  0  0  0  0
   -0.9394    0.2550   -0.2248 C   0  0  0  0  0  0  0  0  0  0  0  0
   -1.5992    0.0389    1.1423 C   0  0  0  0  0  0  0  0  0  0  0  0
    0.4739    0.7666   -0.0804 C   0  0  0  0  0  0  0  0  0  0  0  0
    1.4400    0.0642    0.5217 C   0  0  0  0  0  0  0  0  0  0  0  0
    2.8011    0.5968    0.6417 C   0  0  0  0  0  0  0  0  0  0  0  0
    3.6937   -0.0824    1.2125 O   0  0  0  0  0  0  0  0  0  0  0  0
   -0.4669   -1.8596   -0.5649 H   0  0  0  0  0  0  0  0  0  0  0  0
   -2.0448   -1.3182   -1.2505 H   0  0  0  0  0  0  0  0  0  0  0  0
   -0.5087   -0.8430   -2.0590 H   0  0  0  0  0  0  0  0  0  0  0  0
   -1.5258    1.0347   -0.7594 H   0  0  0  0  0  0  0  0  0  0  0  0
   -1.0925   -0.7725    1.7068 H   0  0  0  0  0  0  0  0  0  0  0  0
   -1.5547    0.9748    1.7395 H   0  0  0  0  0  0  0  0  0  0  0  0
   -2.6670   -0.2370    1.0090 H   0  0  0  0  0  0  0  0  0  0  0  0
    0.7003    1.7460   -0.4868 H   0  0  0  0  0  0  0  0  0  0  0  0
    1.2289   -0.9154    0.9324 H   0  0  0  0  0  0  0  0  0  0  0  0
    3.0504    1.5724    0.2435 H   0  0  0  0  0  0  0  0  0  0  0  0
  1  2  1  0
  2  3  1  0
  2  4  1  0
  4  5  2  0
  5  6  1  0
  6  7  2  0
  1  8  1  0
  1  9  1  0
  1 10  1  0
  2 11  1  0
  3 12  1  0
  3 13  1  0
  3 14  1  0
  4 15  1  0
  5 16  1  0
  6 17  1  0
M  END
