
     RDKit          3D

 14 13  0  0  0  0  0  0  0  0999 V2000
   -1.8526   -0.7321   -0.8393 O   0  0  0  0  0  0  0  0  0  0  0  0
   -1.3073   -0.3412    0.3906 C   0  0  0  0  0  0  0  0  0  0  0  0
   -0.4560    0.9207    0.2139 C   0  0  0  0  0  0  0  0  0  0  0  0
    0.7590    0.7012   -0.6980 C   0  0  0  0  0  0  0  0  0  0  0  0
    1.7478   -0.1883   -0.0744 C   0  0  0  0  0  0  0  0  0  0  0  0
    2.5591   -0.9187    0.4371 C   0  0  0  0  0  0  0  0  0  0  0  0
   -2.3835   -1.5505   -0.6570 H   0  0  0  0  0  0  0  0  0  0  0  0
   -0.6896   -1.1642    0.8143 H   0  0  0  0  0  0  0  0  0  0  0  0
   -2.1300   -0.1185    1.1059 H   0  0  0  0  0  0  0  0  0  0  0  0
   -0.1149    1.2759    1.2114 H   0  0  0  0  0  0  0  0  0  0  0  0
   -1.0916    1.7209   -0.2240 H   0  0  0  0  0  0  0  0  0  0  0  0
    1.2455    1.6802   -0.8934 H   0  0  0  0  0  0  0  0  0  0  0  0
    0.4431    0.2745   -1.6734 H   0  0  0  0  0  0  0  0  0  0  0  0
    3.2710   -1.5600    0.8863 H   0  0  0  0  0  0  0  0  0  0  0  0
  1  2  1  0
  2  3  1  0
  3  4  1  0
  4  5  1  0
  5  6  3  0
  1  7  1  0
  2  8  1  0
  2  9  1  0
  3 10  1  0
  3 11  1  0
  4 12  1  0
  4 13  1  0
  6 14  1  0
M  END
