
     RDKit          3D

 17 16  0  0  0  0  0  0  0  0999 V2000
   -2.9571    0.2279   -0.1217 C   0  0  0  0  0  0  0  0  0  0  0  0
   -1.5507    0.3113    0.4639 C   0  0  0  0  0  0  0  0  0  0  0  0
   -0.5001   -0.1339   -0.5508 C   0  0  0  0  0  0  0  0  0  0  0  0
    0.7940   -0.0402    0.0355 O   0  0  0  0  0  0  0  0  0  0  0  0
    1.9603   -0.3821   -0.6546 C   0  0  0  0  0  0  0  0  0  0  0  0
    1.9087   -0.7758   -1.8518 O   0  0  0  0  0  0  0  0  0  0  0  0
    3.2821   -0.2320    0.0196 C   0  0  0  0  0  0  0  0  0  0  0  0
    3.8860    1.4250   -0.2153 Cl  0  0  0  0  0  0  0  0  0  0  0  0
   -3.1915   -0.8175   -0.4154 H   0  0  0  0  0  0  0  0  0  0  0  0
   -3.6962    0.5574    0.6387 H   0  0  0  0  0  0  0  0  0  0  0  0
   -3.0445    0.8876   -1.0112 H   0  0  0  0  0  0  0  0  0  0  0  0
   -1.4920   -0.3373    1.3648 H   0  0  0  0  0  0  0  0  0  0  0  0
   -1.3456    1.3596    0.7717 H   0  0  0  0  0  0  0  0  0  0  0  0
   -0.5471    0.5194   -1.4498 H   0  0  0  0  0  0  0  0  0  0  0  0
   -0.6937   -1.1866   -0.8534 H   0  0  0  0  0  0  0  0  0  0  0  0
    4.0136   -0.9526   -0.4036 H   0  0  0  0  0  0  0  0  0  0  0  0
    3.1739   -0.4302    1.1064 H   0  0  0  0  0  0  0  0  0  0  0  0
  1  2  1  0
  2  3  1  0
  3  4  1  0
  4  5  1  0
  5  6  2  0
  5  7  1  0
  7  8  1  0
  1  9  1  0
  1 10  1  0
  1 11  1  0
  2 12  1  0
  2 13  1  0
  3 14  1  0
  3 15  1  0
  7 16  1  0
  7 17  1  0
M  END
