
     RDKit          3D

 33 33  0  0  0  0  0  0  0  0999 V2000
    5.6211    0.6397   -0.3538 C   0  0  0  0  0  0  0  0  0  0  0  0
    5.0227   -0.5219    0.4311 C   0  0  0  0  0  0  0  0  0  0  0  0
    3.6054   -0.3906    0.5220 O   0  0  0  0  0  0  0  0  0  0  0  0
    2.7335   -0.6664   -0.5393 C   0  0  0  0  0  0  0  0  0  0  0  0
    3.1861   -1.1068   -1.6322 O   0  0  0  0  0  0  0  0  0  0  0  0
    1.2795   -0.4470   -0.3730 C   0  0  0  0  0  0  0  0  0  0  0  0
    0.3878   -0.7225   -1.4199 C   0  0  0  0  0  0  0  0  0  0  0  0
   -0.9837   -0.5130   -1.2588 C   0  0  0  0  0  0  0  0  0  0  0  0
   -1.5116   -0.0206   -0.0452 C   0  0  0  0  0  0  0  0  0  0  0  0
   -0.6016    0.2534    1.0023 C   0  0  0  0  0  0  0  0  0  0  0  0
    0.7704    0.0428    0.8379 C   0  0  0  0  0  0  0  0  0  0  0  0
   -3.0330    0.1969    0.0916 C   0  0  0  0  0  0  0  0  0  0  0  0
   -3.7665   -1.1447   -0.1245 C   0  0  0  0  0  0  0  0  0  0  0  0
   -3.4462    0.7394    1.4811 C   0  0  0  0  0  0  0  0  0  0  0  0
   -3.5049    1.2159   -0.9684 C   0  0  0  0  0  0  0  0  0  0  0  0
    6.7279    0.5510   -0.3658 H   0  0  0  0  0  0  0  0  0  0  0  0
    5.3422    1.6028    0.1235 H   0  0  0  0  0  0  0  0  0  0  0  0
    5.2518    0.6315   -1.4004 H   0  0  0  0  0  0  0  0  0  0  0  0
    5.2931   -1.4899   -0.0440 H   0  0  0  0  0  0  0  0  0  0  0  0
    5.4447   -0.5127    1.4581 H   0  0  0  0  0  0  0  0  0  0  0  0
    0.7488   -1.1013   -2.3681 H   0  0  0  0  0  0  0  0  0  0  0  0
   -1.6323   -0.7398   -2.0940 H   0  0  0  0  0  0  0  0  0  0  0  0
   -0.9285    0.6320    1.9590 H   0  0  0  0  0  0  0  0  0  0  0  0
    1.4330    0.2657    1.6649 H   0  0  0  0  0  0  0  0  0  0  0  0
   -3.6021   -1.5400   -1.1487 H   0  0  0  0  0  0  0  0  0  0  0  0
   -3.4070   -1.9032    0.6042 H   0  0  0  0  0  0  0  0  0  0  0  0
   -4.8629   -1.0213    0.0117 H   0  0  0  0  0  0  0  0  0  0  0  0
   -2.9731    1.7258    1.6781 H   0  0  0  0  0  0  0  0  0  0  0  0
   -4.5475    0.8814    1.5374 H   0  0  0  0  0  0  0  0  0  0  0  0
   -3.1611    0.0271    2.2854 H   0  0  0  0  0  0  0  0  0  0  0  0
   -4.5923    1.4213   -0.8615 H   0  0  0  0  0  0  0  0  0  0  0  0
   -2.9552    2.1751   -0.8537 H   0  0  0  0  0  0  0  0  0  0  0  0
   -3.3384    0.8398   -1.9994 H   0  0  0  0  0  0  0  0  0  0  0  0
  1  2  1  0
  2  3  1  0
  3  4  1  0
  4  5  2  0
  4  6  1  0
  6  7  2  0
  7  8  1  0
  8  9  2  0
  9 10  1  0
 10 11  2  0
  9 12  1  0
 12 13  1  0
 12 14  1  0
 12 15  1  0
 11  6  1  0
  1 16  1  0
  1 17  1  0
  1 18  1  0
  2 19  1  0
  2 20  1  0
  7 21  1  0
  8 22  1  0
 10 23  1  0
 11 24  1  0
 13 25  1  0
 13 26  1  0
 13 27  1  0
 14 28  1  0
 14 29  1  0
 14 30  1  0
 15 31  1  0
 15 32  1  0
 15 33  1  0
M  END
