
     RDKit          3D

 14 13  0  0  0  0  0  0  0  0999 V2000
    2.3957    0.2454   -0.5255 C   0  0  0  0  0  0  0  0  0  0  0  0
    1.0064   -0.0548   -0.5772 O   0  0  0  0  0  0  0  0  0  0  0  0
    0.2541   -0.3395    0.5670 C   0  0  0  0  0  0  0  0  0  0  0  0
    0.7939   -0.3345    1.7071 O   0  0  0  0  0  0  0  0  0  0  0  0
   -1.2080   -0.6408    0.4386 C   0  0  0  0  0  0  0  0  0  0  0  0
   -1.9651    0.5760   -0.0854 C   0  0  0  0  0  0  0  0  0  0  0  0
   -1.4610   -2.1471   -0.7577 Br  0  0  0  0  0  0  0  0  0  0  0  0
    2.5655    1.1539    0.0903 H   0  0  0  0  0  0  0  0  0  0  0  0
    2.7664    0.4336   -1.5539 H   0  0  0  0  0  0  0  0  0  0  0  0
    2.9539   -0.6117   -0.0927 H   0  0  0  0  0  0  0  0  0  0  0  0
   -1.6229   -0.9212    1.4314 H   0  0  0  0  0  0  0  0  0  0  0  0
   -1.8305    1.4368    0.6042 H   0  0  0  0  0  0  0  0  0  0  0  0
   -3.0493    0.3445   -0.1505 H   0  0  0  0  0  0  0  0  0  0  0  0
   -1.5992    0.8594   -1.0956 H   0  0  0  0  0  0  0  0  0  0  0  0
  1  2  1  0
  2  3  1  0
  3  4  2  0
  3  5  1  0
  5  6  1  0
  5  7  1  0
  1  8  1  0
  1  9  1  0
  1 10  1  0
  5 11  1  0
  6 12  1  0
  6 13  1  0
  6 14  1  0
M  END
