
     RDKit          3D

 23 23  0  0  0  0  0  0  0  0999 V2000
    4.3574    0.8164    0.7505 C   0  0  0  0  0  0  0  0  0  0  0  0
    2.9500    0.7379    0.5587 O   0  0  0  0  0  0  0  0  0  0  0  0
    2.3099   -0.4253    0.1178 C   0  0  0  0  0  0  0  0  0  0  0  0
    2.9931   -1.4589   -0.1253 O   0  0  0  0  0  0  0  0  0  0  0  0
    0.8350   -0.4528   -0.0660 C   0  0  0  0  0  0  0  0  0  0  0  0
    0.0311    0.6808    0.1941 C   0  0  0  0  0  0  0  0  0  0  0  0
    0.6024    1.8741    0.6363 O   0  0  0  0  0  0  0  0  0  0  0  0
   -1.3586    0.6139    0.0081 C   0  0  0  0  0  0  0  0  0  0  0  0
   -1.9665   -0.5732   -0.4365 C   0  0  0  0  0  0  0  0  0  0  0  0
   -3.3510   -0.6826   -0.6352 O   0  0  0  0  0  0  0  0  0  0  0  0
   -4.2815    0.3724   -0.4148 C   0  0  0  0  0  0  0  0  0  0  0  0
   -1.1697   -1.6908   -0.6924 C   0  0  0  0  0  0  0  0  0  0  0  0
    0.2133   -1.6350   -0.5107 C   0  0  0  0  0  0  0  0  0  0  0  0
    4.6210    1.8352    1.1013 H   0  0  0  0  0  0  0  0  0  0  0  0
    4.8833    0.6184   -0.2075 H   0  0  0  0  0  0  0  0  0  0  0  0
    4.6787    0.0780    1.5153 H   0  0  0  0  0  0  0  0  0  0  0  0
    0.0415    2.6961    0.8276 H   0  0  0  0  0  0  0  0  0  0  0  0
   -1.9554    1.4923    0.2128 H   0  0  0  0  0  0  0  0  0  0  0  0
   -4.0482    1.2322   -1.0778 H   0  0  0  0  0  0  0  0  0  0  0  0
   -4.2533    0.6905    0.6488 H   0  0  0  0  0  0  0  0  0  0  0  0
   -5.3031    0.0097   -0.6498 H   0  0  0  0  0  0  0  0  0  0  0  0
   -1.6261   -2.6109   -1.0353 H   0  0  0  0  0  0  0  0  0  0  0  0
    0.7964   -2.5232   -0.7200 H   0  0  0  0  0  0  0  0  0  0  0  0
  1  2  1  0
  2  3  1  0
  3  4  2  0
  3  5  1  0
  5  6  2  0
  6  7  1  0
  6  8  1  0
  8  9  2  0
  9 10  1  0
 10 11  1  0
  9 12  1  0
 12 13  2  0
 13  5  1  0
  1 14  1  0
  1 15  1  0
  1 16  1  0
  7 17  1  0
  8 18  1  0
 11 19  1  0
 11 20  1  0
 11 21  1  0
 12 22  1  0
 13 23  1  0
M  END
