
     RDKit          3D

 12 11  0  0  0  0  0  0  0  0999 V2000
   -2.0158   -0.7869    1.0209 O   0  0  0  0  0  0  0  0  0  0  0  0
   -1.7510    0.0844   -0.0449 C   0  0  0  0  0  0  0  0  0  0  0  0
   -0.3062    0.0082   -0.4388 C   0  0  0  0  0  0  0  0  0  0  0  0
    0.6610    0.3631    0.4076 C   0  0  0  0  0  0  0  0  0  0  0  0
    2.0426    0.2917    0.0148 C   0  0  0  0  0  0  0  0  0  0  0  0
    3.2010    0.2322   -0.3137 C   0  0  0  0  0  0  0  0  0  0  0  0
   -2.0223   -1.7048    0.6421 H   0  0  0  0  0  0  0  0  0  0  0  0
   -1.9953    1.1224    0.2658 H   0  0  0  0  0  0  0  0  0  0  0  0
   -2.3936   -0.1687   -0.9181 H   0  0  0  0  0  0  0  0  0  0  0  0
   -0.0575   -0.3322   -1.4380 H   0  0  0  0  0  0  0  0  0  0  0  0
    0.4193    0.7108    1.4044 H   0  0  0  0  0  0  0  0  0  0  0  0
    4.2179    0.1798   -0.6021 H   0  0  0  0  0  0  0  0  0  0  0  0
  1  2  1  0
  2  3  1  0
  3  4  2  0
  4  5  1  0
  5  6  3  0
  1  7  1  0
  2  8  1  0
  2  9  1  0
  3 10  1  0
  4 11  1  0
  6 12  1  0
M  END
