
     RDKit          3D

 22 22  0  0  0  0  0  0  0  0999 V2000
    3.2014    0.7161    0.1917 C   0  0  0  0  0  0  0  0  0  0  0  0
    2.2746    0.1749   -0.8558 C   0  0  0  0  0  0  0  0  0  0  0  0
    2.0685    0.8297   -1.8661 O   0  0  0  0  0  0  0  0  0  0  0  0
    1.5958   -1.1558   -0.6766 C   0  0  0  0  0  0  0  0  0  0  0  0
    0.5928   -1.0981    0.4448 C   0  0  0  0  0  0  0  0  0  0  0  0
    0.9189   -1.6035    1.5538 O   0  0  0  0  0  0  0  0  0  0  0  0
   -0.7407   -0.4469    0.3025 C   0  0  0  0  0  0  0  0  0  0  0  0
   -1.6153   -0.3945    1.4069 C   0  0  0  0  0  0  0  0  0  0  0  0
   -2.8692    0.2137    1.2955 C   0  0  0  0  0  0  0  0  0  0  0  0
   -3.2693    0.7774    0.0834 C   0  0  0  0  0  0  0  0  0  0  0  0
   -2.4163    0.7339   -1.0201 C   0  0  0  0  0  0  0  0  0  0  0  0
   -1.1608    0.1269   -0.9157 C   0  0  0  0  0  0  0  0  0  0  0  0
    4.2041    0.8891   -0.2519 H   0  0  0  0  0  0  0  0  0  0  0  0
    3.3045    0.0039    1.0373 H   0  0  0  0  0  0  0  0  0  0  0  0
    2.8029    1.6768    0.5797 H   0  0  0  0  0  0  0  0  0  0  0  0
    1.1017   -1.4796   -1.6174 H   0  0  0  0  0  0  0  0  0  0  0  0
    2.3691   -1.9216   -0.4499 H   0  0  0  0  0  0  0  0  0  0  0  0
   -1.3317   -0.8227    2.3602 H   0  0  0  0  0  0  0  0  0  0  0  0
   -3.5314    0.2477    2.1511 H   0  0  0  0  0  0  0  0  0  0  0  0
   -4.2404    1.2480   -0.0008 H   0  0  0  0  0  0  0  0  0  0  0  0
   -2.7281    1.1714   -1.9599 H   0  0  0  0  0  0  0  0  0  0  0  0
   -0.5308    0.1134   -1.7927 H   0  0  0  0  0  0  0  0  0  0  0  0
  1  2  1  0
  2  3  2  0
  2  4  1  0
  4  5  1  0
  5  6  2  0
  5  7  1  0
  7  8  2  0
  8  9  1  0
  9 10  2  0
 10 11  1  0
 11 12  2  0
 12  7  1  0
  1 13  1  0
  1 14  1  0
  1 15  1  0
  4 16  1  0
  4 17  1  0
  8 18  1  0
  9 19  1  0
 10 20  1  0
 11 21  1  0
 12 22  1  0
M  END
