
     RDKit          3D

 22 21  0  0  0  0  0  0  0  0999 V2000
   -2.6607    0.2088    1.8056 C   0  0  0  0  0  0  0  0  0  0  0  0
   -2.0527   -0.3682    0.5303 C   0  0  0  0  0  0  0  0  0  0  0  0
   -1.1935    0.6779   -0.1947 C   0  0  0  0  0  0  0  0  0  0  0  0
   -0.6883    0.1876   -1.5646 C   0  0  0  0  0  0  0  0  0  0  0  0
    0.3388   -0.9521   -1.4860 C   0  0  0  0  0  0  0  0  0  0  0  0
    1.5668   -0.5296   -0.8006 C   0  0  0  0  0  0  0  0  0  0  0  0
    2.5732   -0.1814   -0.2355 C   0  0  0  0  0  0  0  0  0  0  0  0
    3.7698    0.2344    0.4381 C   0  0  0  0  0  0  0  0  0  0  0  0
    4.9565   -0.4601    0.2325 O   0  0  0  0  0  0  0  0  0  0  0  0
    3.7408    1.2269    1.2120 O   0  0  0  0  0  0  0  0  0  0  0  0
   -3.3210    1.0689    1.5643 H   0  0  0  0  0  0  0  0  0  0  0  0
   -3.2659   -0.5706    2.3147 H   0  0  0  0  0  0  0  0  0  0  0  0
   -1.8588    0.5444    2.4974 H   0  0  0  0  0  0  0  0  0  0  0  0
   -2.8745   -0.7099   -0.1357 H   0  0  0  0  0  0  0  0  0  0  0  0
   -1.4318   -1.2461    0.8068 H   0  0  0  0  0  0  0  0  0  0  0  0
   -0.3360    0.9736    0.4475 H   0  0  0  0  0  0  0  0  0  0  0  0
   -1.8080    1.5887   -0.3669 H   0  0  0  0  0  0  0  0  0  0  0  0
   -0.2298    1.0468   -2.1023 H   0  0  0  0  0  0  0  0  0  0  0  0
   -1.5541   -0.1504   -2.1747 H   0  0  0  0  0  0  0  0  0  0  0  0
   -0.0877   -1.8366   -0.9706 H   0  0  0  0  0  0  0  0  0  0  0  0
    0.6072   -1.2634   -2.5178 H   0  0  0  0  0  0  0  0  0  0  0  0
    5.8101   -0.1793    0.7003 H   0  0  0  0  0  0  0  0  0  0  0  0
  1  2  1  0
  2  3  1  0
  3  4  1  0
  4  5  1  0
  5  6  1  0
  6  7  3  0
  7  8  1  0
  8  9  1  0
  8 10  2  0
  1 11  1  0
  1 12  1  0
  1 13  1  0
  2 14  1  0
  2 15  1  0
  3 16  1  0
  3 17  1  0
  4 18  1  0
  4 19  1  0
  5 20  1  0
  5 21  1  0
  9 22  1  0
M  END
