
     RDKit          3D

 12 11  0  0  0  0  0  0  0  0999 V2000
    1.5386    0.3617   -0.0735 C   0  0  0  0  0  0  0  0  0  0  0  0
    0.3574   -0.4309    0.4790 C   0  0  0  0  0  0  0  0  0  0  0  0
    0.8609   -2.2903    0.7258 Br  0  0  0  0  0  0  0  0  0  0  0  0
   -0.8249   -0.3325   -0.4429 C   0  0  0  0  0  0  0  0  0  0  0  0
   -1.9605    0.4546   -0.0826 N   0  0  0  0  0  0  0  0  0  0  0  0
   -0.8061   -0.9221   -1.5570 O   0  0  0  0  0  0  0  0  0  0  0  0
    1.2590    1.4301   -0.1954 H   0  0  0  0  0  0  0  0  0  0  0  0
    1.8560   -0.0453   -1.0576 H   0  0  0  0  0  0  0  0  0  0  0  0
    2.3948    0.3011    0.6311 H   0  0  0  0  0  0  0  0  0  0  0  0
    0.0909   -0.0239    1.4780 H   0  0  0  0  0  0  0  0  0  0  0  0
   -1.9897    0.9697    0.8251 H   0  0  0  0  0  0  0  0  0  0  0  0
   -2.7764    0.5277   -0.7300 H   0  0  0  0  0  0  0  0  0  0  0  0
  1  2  1  0
  2  3  1  0
  2  4  1  0
  4  5  1  0
  4  6  2  0
  1  7  1  0
  1  8  1  0
  1  9  1  0
  2 10  1  0
  5 11  1  0
  5 12  1  0
M  END
