
     RDKit          3D

 30 29  0  0  0  0  0  0  0  0999 V2000
   -4.0821   -0.6967    0.3140 C   0  0  0  0  0  0  0  0  0  0  0  0
   -2.8204   -0.3943    1.1174 C   0  0  0  0  0  0  0  0  0  0  0  0
   -1.6756    0.0574    0.2030 C   0  0  0  0  0  0  0  0  0  0  0  0
   -0.4086    0.3626    1.0218 C   0  0  0  0  0  0  0  0  0  0  0  0
    0.8090    0.7960    0.1740 C   0  0  0  0  0  0  0  0  0  0  0  0
    0.5522    2.1114   -0.5980 C   0  0  0  0  0  0  0  0  0  0  0  0
    1.8419    2.7101   -1.1603 C   0  0  0  0  0  0  0  0  0  0  0  0
    1.2713   -0.3239   -0.7249 C   0  0  0  0  0  0  0  0  0  0  0  0
    0.7870   -0.4555   -1.8835 O   0  0  0  0  0  0  0  0  0  0  0  0
    2.2094   -1.2394   -0.2376 O   0  0  0  0  0  0  0  0  0  0  0  0
    2.6815   -2.3185   -0.9873 C   0  0  0  0  0  0  0  0  0  0  0  0
    3.5705   -3.1500   -0.4605 C   0  0  0  0  0  0  0  0  0  0  0  0
   -3.8888   -1.5113   -0.4161 H   0  0  0  0  0  0  0  0  0  0  0  0
   -4.4202    0.2111   -0.2298 H   0  0  0  0  0  0  0  0  0  0  0  0
   -4.8917   -1.0208    1.0014 H   0  0  0  0  0  0  0  0  0  0  0  0
   -2.5193   -1.3104    1.6710 H   0  0  0  0  0  0  0  0  0  0  0  0
   -3.0479    0.4048    1.8563 H   0  0  0  0  0  0  0  0  0  0  0  0
   -1.9958    0.9676   -0.3473 H   0  0  0  0  0  0  0  0  0  0  0  0
   -1.4641   -0.7487   -0.5316 H   0  0  0  0  0  0  0  0  0  0  0  0
   -0.6370    1.1672    1.7554 H   0  0  0  0  0  0  0  0  0  0  0  0
   -0.1286   -0.5411    1.6078 H   0  0  0  0  0  0  0  0  0  0  0  0
    1.6311    0.9950    0.8976 H   0  0  0  0  0  0  0  0  0  0  0  0
    0.0974    2.8589    0.0882 H   0  0  0  0  0  0  0  0  0  0  0  0
   -0.1590    1.9444   -1.4353 H   0  0  0  0  0  0  0  0  0  0  0  0
    1.6119    3.6642   -1.6798 H   0  0  0  0  0  0  0  0  0  0  0  0
    2.5612    2.9190   -0.3401 H   0  0  0  0  0  0  0  0  0  0  0  0
    2.3095    2.0164   -1.8904 H   0  0  0  0  0  0  0  0  0  0  0  0
    2.3311   -2.4883   -1.9985 H   0  0  0  0  0  0  0  0  0  0  0  0
    3.9339   -2.9990    0.5480 H   0  0  0  0  0  0  0  0  0  0  0  0
    3.9401   -3.9882   -1.0366 H   0  0  0  0  0  0  0  0  0  0  0  0
  1  2  1  0
  2  3  1  0
  3  4  1  0
  4  5  1  0
  5  6  1  0
  6  7  1  0
  5  8  1  0
  8  9  2  0
  8 10  1  0
 10 11  1  0
 11 12  2  3
  1 13  1  0
  1 14  1  0
  1 15  1  0
  2 16  1  0
  2 17  1  0
  3 18  1  0
  3 19  1  0
  4 20  1  0
  4 21  1  0
  5 22  1  0
  6 23  1  0
  6 24  1  0
  7 25  1  0
  7 26  1  0
  7 27  1  0
 11 28  1  0
 12 29  1  0
 12 30  1  0
M  END
