
     RDKit          3D

 37 36  0  0  0  0  0  0  0  0999 V2000
    4.8000   -0.5081   -1.9459 C   0  0  0  0  0  0  0  0  0  0  0  0
    4.3138    0.0216   -0.6000 C   0  0  0  0  0  0  0  0  0  0  0  0
    3.1927   -0.8600   -0.0313 C   0  0  0  0  0  0  0  0  0  0  0  0
    2.7792   -0.4545    1.3946 C   0  0  0  0  0  0  0  0  0  0  0  0
    2.2228    0.9775    1.5319 C   0  0  0  0  0  0  0  0  0  0  0  0
    1.0183    1.2993    0.6294 C   0  0  0  0  0  0  0  0  0  0  0  0
   -0.1973    0.4056    0.9152 C   0  0  0  0  0  0  0  0  0  0  0  0
   -1.4173    0.8632    0.1069 C   0  0  0  0  0  0  0  0  0  0  0  0
   -2.6278   -0.0379    0.3787 C   0  0  0  0  0  0  0  0  0  0  0  0
   -3.8498    0.4213   -0.4307 C   0  0  0  0  0  0  0  0  0  0  0  0
   -5.0708   -0.4366   -0.1979 C   0  0  0  0  0  0  0  0  0  0  0  0
   -6.3504   -0.1276   -0.9134 C   0  0  0  0  0  0  0  0  0  0  0  0
   -5.0350   -1.3869    0.5705 O   0  0  0  0  0  0  0  0  0  0  0  0
    3.9640   -0.5271   -2.6773 H   0  0  0  0  0  0  0  0  0  0  0  0
    5.2118   -1.5335   -1.8319 H   0  0  0  0  0  0  0  0  0  0  0  0
    5.6007    0.1536   -2.3386 H   0  0  0  0  0  0  0  0  0  0  0  0
    5.1705    0.0455    0.1081 H   0  0  0  0  0  0  0  0  0  0  0  0
    3.9447    1.0588   -0.7460 H   0  0  0  0  0  0  0  0  0  0  0  0
    2.3123   -0.8429   -0.7080 H   0  0  0  0  0  0  0  0  0  0  0  0
    3.5497   -1.9125    0.0087 H   0  0  0  0  0  0  0  0  0  0  0  0
    2.0255   -1.1796    1.7685 H   0  0  0  0  0  0  0  0  0  0  0  0
    3.6626   -0.5509    2.0628 H   0  0  0  0  0  0  0  0  0  0  0  0
    1.9265    1.1363    2.5917 H   0  0  0  0  0  0  0  0  0  0  0  0
    3.0324    1.7084    1.3219 H   0  0  0  0  0  0  0  0  0  0  0  0
    0.7353    2.3591    0.8124 H   0  0  0  0  0  0  0  0  0  0  0  0
    1.3066    1.2220   -0.4403 H   0  0  0  0  0  0  0  0  0  0  0  0
    0.0398   -0.6446    0.6409 H   0  0  0  0  0  0  0  0  0  0  0  0
   -0.4388    0.4453    2.0002 H   0  0  0  0  0  0  0  0  0  0  0  0
   -1.6701    1.9108    0.3826 H   0  0  0  0  0  0  0  0  0  0  0  0
   -1.1717    0.8323   -0.9778 H   0  0  0  0  0  0  0  0  0  0  0  0
   -2.8724   -0.0060    1.4636 H   0  0  0  0  0  0  0  0  0  0  0  0
   -2.3755   -1.0852    0.1004 H   0  0  0  0  0  0  0  0  0  0  0  0
   -4.0988    1.4693   -0.1559 H   0  0  0  0  0  0  0  0  0  0  0  0
   -3.6027    0.3947   -1.5142 H   0  0  0  0  0  0  0  0  0  0  0  0
   -7.1496    0.0838   -0.1724 H   0  0  0  0  0  0  0  0  0  0  0  0
   -6.6494   -0.9979   -1.5343 H   0  0  0  0  0  0  0  0  0  0  0  0
   -6.2317    0.7580   -1.5731 H   0  0  0  0  0  0  0  0  0  0  0  0
  1  2  1  0
  2  3  1  0
  3  4  1  0
  4  5  1  0
  5  6  1  0
  6  7  1  0
  7  8  1  0
  8  9  1  0
  9 10  1  0
 10 11  1  0
 11 12  1  0
 11 13  2  0
  1 14  1  0
  1 15  1  0
  1 16  1  0
  2 17  1  0
  2 18  1  0
  3 19  1  0
  3 20  1  0
  4 21  1  0
  4 22  1  0
  5 23  1  0
  5 24  1  0
  6 25  1  0
  6 26  1  0
  7 27  1  0
  7 28  1  0
  8 29  1  0
  8 30  1  0
  9 31  1  0
  9 32  1  0
 10 33  1  0
 10 34  1  0
 12 35  1  0
 12 36  1  0
 12 37  1  0
M  END
