
     RDKit          3D

 34 33  0  0  0  0  0  0  0  0999 V2000
    5.0601    0.6065    2.1095 C   0  0  0  0  0  0  0  0  0  0  0  0
    5.1284    1.0154    0.6427 C   0  0  0  0  0  0  0  0  0  0  0  0
    3.9370    0.6331   -0.0414 O   0  0  0  0  0  0  0  0  0  0  0  0
    3.6570   -0.6838   -0.4230 C   0  0  0  0  0  0  0  0  0  0  0  0
    4.4904   -1.6078   -0.2162 O   0  0  0  0  0  0  0  0  0  0  0  0
    2.3345   -1.0021   -1.0440 C   0  0  0  0  0  0  0  0  0  0  0  0
    1.2830   -1.2483    0.0401 C   0  0  0  0  0  0  0  0  0  0  0  0
   -0.0567   -1.5515   -0.5769 C   0  0  0  0  0  0  0  0  0  0  0  0
   -0.2172   -2.6057   -1.1744 O   0  0  0  0  0  0  0  0  0  0  0  0
   -1.2020   -0.5796   -0.4720 C   0  0  0  0  0  0  0  0  0  0  0  0
   -2.3041   -1.1373    0.4313 C   0  0  0  0  0  0  0  0  0  0  0  0
   -3.4349   -0.1643    0.5334 C   0  0  0  0  0  0  0  0  0  0  0  0
   -3.4563    0.6743    1.4754 O   0  0  0  0  0  0  0  0  0  0  0  0
   -4.4367   -0.1709   -0.4437 O   0  0  0  0  0  0  0  0  0  0  0  0
   -5.5001    0.7784   -0.4834 C   0  0  0  0  0  0  0  0  0  0  0  0
   -5.0029    2.1199   -1.0094 C   0  0  0  0  0  0  0  0  0  0  0  0
    5.0046   -0.4981    2.2018 H   0  0  0  0  0  0  0  0  0  0  0  0
    5.9684    0.9632    2.6393 H   0  0  0  0  0  0  0  0  0  0  0  0
    4.1643    1.0572    2.5868 H   0  0  0  0  0  0  0  0  0  0  0  0
    6.0184    0.5610    0.1556 H   0  0  0  0  0  0  0  0  0  0  0  0
    5.2301    2.1196    0.5850 H   0  0  0  0  0  0  0  0  0  0  0  0
    2.4347   -1.9025   -1.6893 H   0  0  0  0  0  0  0  0  0  0  0  0
    2.0209   -0.1488   -1.6841 H   0  0  0  0  0  0  0  0  0  0  0  0
    1.2116   -0.3528    0.6955 H   0  0  0  0  0  0  0  0  0  0  0  0
    1.5887   -2.1079    0.6760 H   0  0  0  0  0  0  0  0  0  0  0  0
   -0.8472    0.3921   -0.0642 H   0  0  0  0  0  0  0  0  0  0  0  0
   -1.6066   -0.3902   -1.4904 H   0  0  0  0  0  0  0  0  0  0  0  0
   -2.6884   -2.0937    0.0148 H   0  0  0  0  0  0  0  0  0  0  0  0
   -1.8941   -1.3394    1.4455 H   0  0  0  0  0  0  0  0  0  0  0  0
   -5.9488    0.9011    0.5263 H   0  0  0  0  0  0  0  0  0  0  0  0
   -6.2882    0.3977   -1.1667 H   0  0  0  0  0  0  0  0  0  0  0  0
   -4.2440    2.5485   -0.3222 H   0  0  0  0  0  0  0  0  0  0  0  0
   -4.5503    1.9880   -2.0148 H   0  0  0  0  0  0  0  0  0  0  0  0
   -5.8539    2.8288   -1.0875 H   0  0  0  0  0  0  0  0  0  0  0  0
  1  2  1  0
  2  3  1  0
  3  4  1  0
  4  5  2  0
  4  6  1  0
  6  7  1  0
  7  8  1  0
  8  9  2  0
  8 10  1  0
 10 11  1  0
 11 12  1  0
 12 13  2  0
 12 14  1  0
 14 15  1  0
 15 16  1  0
  1 17  1  0
  1 18  1  0
  1 19  1  0
  2 20  1  0
  2 21  1  0
  6 22  1  0
  6 23  1  0
  7 24  1  0
  7 25  1  0
 10 26  1  0
 10 27  1  0
 11 28  1  0
 11 29  1  0
 15 30  1  0
 15 31  1  0
 16 32  1  0
 16 33  1  0
 16 34  1  0
M  END
