
     RDKit          3D

 21 22  0  0  0  0  0  0  0  0999 V2000
    3.4225    0.0818   -0.2078 C   0  0  0  0  0  0  0  0  0  0  0  0
    1.9477   -0.2011   -0.1216 C   0  0  0  0  0  0  0  0  0  0  0  0
    1.5170   -1.4512    0.1148 C   0  0  0  0  0  0  0  0  0  0  0  0
    0.0808   -1.7590    0.2366 C   0  0  0  0  0  0  0  0  0  0  0  0
   -0.2803   -2.9478    0.4481 O   0  0  0  0  0  0  0  0  0  0  0  0
   -0.9199   -0.6759    0.1118 C   0  0  0  0  0  0  0  0  0  0  0  0
   -0.4789    0.6440   -0.1155 C   0  0  0  0  0  0  0  0  0  0  0  0
   -1.4224    1.6800   -0.2320 C   0  0  0  0  0  0  0  0  0  0  0  0
   -2.7879    1.4044   -0.1244 C   0  0  0  0  0  0  0  0  0  0  0  0
   -3.2238    0.0971    0.1002 C   0  0  0  0  0  0  0  0  0  0  0  0
   -2.2963   -0.9410    0.2185 C   0  0  0  0  0  0  0  0  0  0  0  0
    0.9745    0.9148   -0.2263 C   0  0  0  0  0  0  0  0  0  0  0  0
    1.3875    2.0930   -0.4065 O   0  0  0  0  0  0  0  0  0  0  0  0
    3.6238    0.8298   -1.0033 H   0  0  0  0  0  0  0  0  0  0  0  0
    3.7785    0.4820    0.7644 H   0  0  0  0  0  0  0  0  0  0  0  0
    4.0005   -0.8352   -0.4531 H   0  0  0  0  0  0  0  0  0  0  0  0
    2.2285   -2.2620    0.2200 H   0  0  0  0  0  0  0  0  0  0  0  0
   -1.1056    2.7006   -0.4065 H   0  0  0  0  0  0  0  0  0  0  0  0
   -3.5097    2.2058   -0.2153 H   0  0  0  0  0  0  0  0  0  0  0  0
   -4.2825   -0.1122    0.1830 H   0  0  0  0  0  0  0  0  0  0  0  0
   -2.6543   -1.9478    0.3931 H   0  0  0  0  0  0  0  0  0  0  0  0
  1  2  1  0
  2  3  2  0
  3  4  1  0
  4  5  2  0
  4  6  1  0
  6  7  2  0
  7  8  1  0
  8  9  2  0
  9 10  1  0
 10 11  2  0
  7 12  1  0
 12 13  2  0
 12  2  1  0
 11  6  1  0
  1 14  1  0
  1 15  1  0
  1 16  1  0
  3 17  1  0
  8 18  1  0
  9 19  1  0
 10 20  1  0
 11 21  1  0
M  END
