
     RDKit          3D

 16 16  0  0  0  0  0  0  0  0999 V2000
    2.0675   -0.6663    0.2041 C   0  0  0  0  0  0  0  0  0  0  0  0
    0.5978   -0.3764    0.0442 C   0  0  0  0  0  0  0  0  0  0  0  0
   -0.2999   -1.4392   -0.1534 C   0  0  0  0  0  0  0  0  0  0  0  0
   -1.6655   -1.1937   -0.3039 C   0  0  0  0  0  0  0  0  0  0  0  0
   -2.1519    0.1127   -0.2593 C   0  0  0  0  0  0  0  0  0  0  0  0
   -1.2763    1.1855   -0.0636 C   0  0  0  0  0  0  0  0  0  0  0  0
    0.1044    0.9486    0.0895 C   0  0  0  0  0  0  0  0  0  0  0  0
    1.0062    2.0608    0.2916 C   0  0  0  0  0  0  0  0  0  0  0  0
    1.7283    2.9505    0.4534 N   0  0  0  0  0  0  0  0  0  0  0  0
   -1.9414    2.8159   -0.0151 Cl  0  0  0  0  0  0  0  0  0  0  0  0
    2.2811   -1.7547    0.1430 H   0  0  0  0  0  0  0  0  0  0  0  0
    2.4164   -0.2994    1.1923 H   0  0  0  0  0  0  0  0  0  0  0  0
    2.6397   -0.1550   -0.5985 H   0  0  0  0  0  0  0  0  0  0  0  0
    0.0559   -2.4614   -0.1915 H   0  0  0  0  0  0  0  0  0  0  0  0
   -2.3490   -2.0192   -0.4557 H   0  0  0  0  0  0  0  0  0  0  0  0
   -3.2132    0.2912   -0.3772 H   0  0  0  0  0  0  0  0  0  0  0  0
  1  2  1  0
  2  3  2  0
  3  4  1  0
  4  5  2  0
  5  6  1  0
  6  7  2  0
  7  8  1  0
  8  9  3  0
  6 10  1  0
  7  2  1  0
  1 11  1  0
  1 12  1  0
  1 13  1  0
  3 14  1  0
  4 15  1  0
  5 16  1  0
M  END
