
     RDKit          3D

 12 12  0  0  0  0  0  0  0  0999 V2000
    2.1962    0.8838   -0.1335 O   0  0  0  0  0  0  0  0  0  0  0  0
    0.9505    0.2636   -0.0550 C   0  0  0  0  0  0  0  0  0  0  0  0
   -0.2246    1.0243   -0.0119 C   0  0  0  0  0  0  0  0  0  0  0  0
   -1.4641    0.3865    0.0666 C   0  0  0  0  0  0  0  0  0  0  0  0
   -1.5136   -1.0086    0.1011 C   0  0  0  0  0  0  0  0  0  0  0  0
   -0.3630   -1.7322    0.0584 N   0  0  0  0  0  0  0  0  0  0  0  0
    0.8568   -1.1346   -0.0182 C   0  0  0  0  0  0  0  0  0  0  0  0
    2.2992   -2.1320   -0.0698 Cl  0  0  0  0  0  0  0  0  0  0  0  0
    2.2843    1.8929   -0.1611 H   0  0  0  0  0  0  0  0  0  0  0  0
   -0.1782    2.1056   -0.0390 H   0  0  0  0  0  0  0  0  0  0  0  0
   -2.3769    0.9671    0.1004 H   0  0  0  0  0  0  0  0  0  0  0  0
   -2.4667   -1.5165    0.1619 H   0  0  0  0  0  0  0  0  0  0  0  0
  1  2  1  0
  2  3  2  0
  3  4  1  0
  4  5  2  0
  5  6  1  0
  6  7  2  0
  7  8  1  0
  7  2  1  0
  1  9  1  0
  3 10  1  0
  4 11  1  0
  5 12  1  0
M  END
