
     RDKit          3D

 33 33  0  0  0  0  0  0  0  0999 V2000
    4.2666   -1.0558   -1.3261 C   0  0  0  0  0  0  0  0  0  0  0  0
    3.2079   -1.5284   -0.3300 C   0  0  0  0  0  0  0  0  0  0  0  0
    2.7570   -0.4187    0.6328 C   0  0  0  0  0  0  0  0  0  0  0  0
    1.8653    0.6296   -0.0540 C   0  0  0  0  0  0  0  0  0  0  0  0
    1.4374    1.7599    0.8982 C   0  0  0  0  0  0  0  0  0  0  0  0
    0.4828    1.3030    2.0117 C   0  0  0  0  0  0  0  0  0  0  0  0
   -0.6374    0.5963    1.4810 O   0  0  0  0  0  0  0  0  0  0  0  0
   -1.6902    1.2162    0.7965 C   0  0  0  0  0  0  0  0  0  0  0  0
   -1.7337    2.4743    0.7065 O   0  0  0  0  0  0  0  0  0  0  0  0
   -2.7527    0.3907    0.1822 C   0  0  0  0  0  0  0  0  0  0  0  0
   -3.8380    0.9929   -0.4821 C   0  0  0  0  0  0  0  0  0  0  0  0
   -4.8367    0.2051   -1.0632 C   0  0  0  0  0  0  0  0  0  0  0  0
   -4.7629   -1.1877   -0.9888 C   0  0  0  0  0  0  0  0  0  0  0  0
   -3.6901   -1.7959   -0.3333 C   0  0  0  0  0  0  0  0  0  0  0  0
   -2.6887   -1.0131    0.2499 C   0  0  0  0  0  0  0  0  0  0  0  0
    5.1251   -0.5952   -0.7926 H   0  0  0  0  0  0  0  0  0  0  0  0
    4.6391   -1.9254   -1.9075 H   0  0  0  0  0  0  0  0  0  0  0  0
    3.8383   -0.3232   -2.0406 H   0  0  0  0  0  0  0  0  0  0  0  0
    3.6433   -2.3570    0.2698 H   0  0  0  0  0  0  0  0  0  0  0  0
    2.3329   -1.9374   -0.8807 H   0  0  0  0  0  0  0  0  0  0  0  0
    3.6460    0.0731    1.0850 H   0  0  0  0  0  0  0  0  0  0  0  0
    2.1841   -0.9025    1.4516 H   0  0  0  0  0  0  0  0  0  0  0  0
    2.4266    1.0966   -0.8902 H   0  0  0  0  0  0  0  0  0  0  0  0
    0.9679    0.1383   -0.4889 H   0  0  0  0  0  0  0  0  0  0  0  0
    2.3382    2.2216    1.3579 H   0  0  0  0  0  0  0  0  0  0  0  0
    0.9354    2.5504    0.3002 H   0  0  0  0  0  0  0  0  0  0  0  0
    0.1352    2.1842    2.5935 H   0  0  0  0  0  0  0  0  0  0  0  0
    1.0216    0.6404    2.7196 H   0  0  0  0  0  0  0  0  0  0  0  0
   -3.9160    2.0706   -0.5526 H   0  0  0  0  0  0  0  0  0  0  0  0
   -5.6683    0.6753   -1.5719 H   0  0  0  0  0  0  0  0  0  0  0  0
   -5.5368   -1.7955   -1.4395 H   0  0  0  0  0  0  0  0  0  0  0  0
   -3.6335   -2.8753   -0.2772 H   0  0  0  0  0  0  0  0  0  0  0  0
   -1.8656   -1.5073    0.7507 H   0  0  0  0  0  0  0  0  0  0  0  0
  1  2  1  0
  2  3  1  0
  3  4  1  0
  4  5  1  0
  5  6  1  0
  6  7  1  0
  7  8  1  0
  8  9  2  0
  8 10  1  0
 10 11  2  0
 11 12  1  0
 12 13  2  0
 13 14  1  0
 14 15  2  0
 15 10  1  0
  1 16  1  0
  1 17  1  0
  1 18  1  0
  2 19  1  0
  2 20  1  0
  3 21  1  0
  3 22  1  0
  4 23  1  0
  4 24  1  0
  5 25  1  0
  5 26  1  0
  6 27  1  0
  6 28  1  0
 11 29  1  0
 12 30  1  0
 13 31  1  0
 14 32  1  0
 15 33  1  0
M  END
