
     RDKit          3D

 22 22  0  0  0  0  0  0  0  0999 V2000
   -2.4268   -1.1839    0.2602 C   0  0  0  0  0  0  0  0  0  0  0  0
   -1.0542   -0.5821    0.1058 C   0  0  0  0  0  0  0  0  0  0  0  0
    0.0644   -1.4279    0.0539 C   0  0  0  0  0  0  0  0  0  0  0  0
    1.3603   -0.9095   -0.0754 C   0  0  0  0  0  0  0  0  0  0  0  0
    1.5441    0.4878   -0.1825 C   0  0  0  0  0  0  0  0  0  0  0  0
    0.4281    1.3346   -0.1001 C   0  0  0  0  0  0  0  0  0  0  0  0
   -0.8678    0.8173    0.0539 C   0  0  0  0  0  0  0  0  0  0  0  0
   -2.0371    1.7654    0.1178 C   0  0  0  0  0  0  0  0  0  0  0  0
    2.8428    1.0633   -0.3992 N   0  0  0  0  0  4  0  0  0  0  0  0
    3.1389    2.3039    0.1171 O   0  0  0  0  0  1  0  0  0  0  0  0
    3.6284    0.5519   -1.2235 O   0  0  0  0  0  0  0  0  0  0  0  0
    2.4732   -1.8128   -0.0408 N   0  0  0  0  0  0  0  0  0  0  0  0
   -2.4062   -2.2876    0.1359 H   0  0  0  0  0  0  0  0  0  0  0  0
   -2.8236   -0.9540    1.2710 H   0  0  0  0  0  0  0  0  0  0  0  0
   -3.1141   -0.7720   -0.5080 H   0  0  0  0  0  0  0  0  0  0  0  0
   -0.0690   -2.5004    0.1321 H   0  0  0  0  0  0  0  0  0  0  0  0
    0.5697    2.4056   -0.1799 H   0  0  0  0  0  0  0  0  0  0  0  0
   -2.6443    1.6720   -0.8066 H   0  0  0  0  0  0  0  0  0  0  0  0
   -2.6702    1.5335    0.9996 H   0  0  0  0  0  0  0  0  0  0  0  0
   -1.7038    2.8210    0.2114 H   0  0  0  0  0  0  0  0  0  0  0  0
    3.4497   -1.4803    0.1124 H   0  0  0  0  0  0  0  0  0  0  0  0
    2.3175   -2.8456   -0.0550 H   0  0  0  0  0  0  0  0  0  0  0  0
  1  2  1  0
  2  3  2  0
  3  4  1  0
  4  5  2  0
  5  6  1  0
  6  7  2  0
  7  8  1  0
  5  9  1  0
  9 10  1  0
  9 11  2  0
  4 12  1  0
  7  2  1  0
  1 13  1  0
  1 14  1  0
  1 15  1  0
  3 16  1  0
  6 17  1  0
  8 18  1  0
  8 19  1  0
  8 20  1  0
 12 21  1  0
 12 22  1  0
M  CHG  2   9   1  10  -1
M  END
