
     RDKit          3D

 14 14  0  0  0  0  0  0  0  0999 V2000
    4.5262   -0.5981    0.0306 N   0  0  0  0  0  0  0  0  0  0  0  0
    3.4095   -0.3559   -0.1527 C   0  0  0  0  0  0  0  0  0  0  0  0
    2.0218   -0.0545   -0.3810 C   0  0  0  0  0  0  0  0  0  0  0  0
    1.0954   -0.4156    0.5101 C   0  0  0  0  0  0  0  0  0  0  0  0
   -0.3417   -0.1368    0.3354 C   0  0  0  0  0  0  0  0  0  0  0  0
   -0.9527    0.5129   -0.7247 C   0  0  0  0  0  0  0  0  0  0  0  0
   -2.2983    0.5258   -0.4277 C   0  0  0  0  0  0  0  0  0  0  0  0
   -2.4290   -0.1125    0.7880 C   0  0  0  0  0  0  0  0  0  0  0  0
   -1.2481   -0.4948    1.2159 O   0  0  0  0  0  0  0  0  0  0  0  0
    1.7566    0.4688   -1.2890 H   0  0  0  0  0  0  0  0  0  0  0  0
    1.3971   -0.9394    1.4103 H   0  0  0  0  0  0  0  0  0  0  0  0
   -0.4888    0.9294   -1.6082 H   0  0  0  0  0  0  0  0  0  0  0  0
   -3.0921    0.9509   -1.0272 H   0  0  0  0  0  0  0  0  0  0  0  0
   -3.3557   -0.2802    1.3203 H   0  0  0  0  0  0  0  0  0  0  0  0
  1  2  3  0
  2  3  1  0
  3  4  2  0
  4  5  1  0
  5  6  2  0
  6  7  1  0
  7  8  2  0
  8  9  1  0
  9  5  1  0
  3 10  1  0
  4 11  1  0
  6 12  1  0
  7 13  1  0
  8 14  1  0
M  END
