
     RDKit          3D

 29 30  0  0  0  0  0  0  0  0999 V2000
   -5.8060    0.4063    1.2779 O   0  0  0  0  0  0  0  0  0  0  0  0
   -4.5853    0.2003    0.6391 C   0  0  0  0  0  0  0  0  0  0  0  0
   -4.5393   -0.1996   -0.7024 C   0  0  0  0  0  0  0  0  0  0  0  0
   -3.3084   -0.4034   -1.3336 C   0  0  0  0  0  0  0  0  0  0  0  0
   -2.1057   -0.2092   -0.6292 C   0  0  0  0  0  0  0  0  0  0  0  0
   -2.1619    0.1924    0.7175 C   0  0  0  0  0  0  0  0  0  0  0  0
   -3.3949    0.3952    1.3451 C   0  0  0  0  0  0  0  0  0  0  0  0
   -0.7996   -0.4229   -1.2903 C   0  0  0  0  0  0  0  0  0  0  0  0
   -0.7518   -0.7834   -2.4990 O   0  0  0  0  0  0  0  0  0  0  0  0
    0.3842   -0.2243   -0.5718 O   0  0  0  0  0  0  0  0  0  0  0  0
    1.6738   -0.4112   -1.1440 C   0  0  0  0  0  0  0  0  0  0  0  0
    2.7196   -0.1167   -0.1093 C   0  0  0  0  0  0  0  0  0  0  0  0
    3.2027    1.1918    0.0565 C   0  0  0  0  0  0  0  0  0  0  0  0
    4.1485    1.4725    1.0478 C   0  0  0  0  0  0  0  0  0  0  0  0
    4.6080    0.4532    1.8865 C   0  0  0  0  0  0  0  0  0  0  0  0
    4.1186   -0.8477    1.7386 C   0  0  0  0  0  0  0  0  0  0  0  0
    3.1727   -1.1325    0.7486 C   0  0  0  0  0  0  0  0  0  0  0  0
   -6.6861    0.2734    0.7935 H   0  0  0  0  0  0  0  0  0  0  0  0
   -5.4564   -0.3529   -1.2569 H   0  0  0  0  0  0  0  0  0  0  0  0
   -3.2989   -0.7125   -2.3714 H   0  0  0  0  0  0  0  0  0  0  0  0
   -1.2547    0.3503    1.2872 H   0  0  0  0  0  0  0  0  0  0  0  0
   -3.4249    0.7044    2.3823 H   0  0  0  0  0  0  0  0  0  0  0  0
    1.7984    0.2659   -2.0174 H   0  0  0  0  0  0  0  0  0  0  0  0
    1.7762   -1.4585   -1.5040 H   0  0  0  0  0  0  0  0  0  0  0  0
    2.8472    1.9928   -0.5799 H   0  0  0  0  0  0  0  0  0  0  0  0
    4.5222    2.4811    1.1684 H   0  0  0  0  0  0  0  0  0  0  0  0
    5.3388    0.6723    2.6542 H   0  0  0  0  0  0  0  0  0  0  0  0
    4.4691   -1.6346    2.3938 H   0  0  0  0  0  0  0  0  0  0  0  0
    2.7938   -2.1424    0.6512 H   0  0  0  0  0  0  0  0  0  0  0  0
  1  2  1  0
  2  3  2  0
  3  4  1  0
  4  5  2  0
  5  6  1  0
  6  7  2  0
  5  8  1  0
  8  9  2  0
  8 10  1  0
 10 11  1  0
 11 12  1  0
 12 13  2  0
 13 14  1  0
 14 15  2  0
 15 16  1  0
 16 17  2  0
  7  2  1  0
 17 12  1  0
  1 18  1  0
  3 19  1  0
  4 20  1  0
  6 21  1  0
  7 22  1  0
 11 23  1  0
 11 24  1  0
 13 25  1  0
 14 26  1  0
 15 27  1  0
 16 28  1  0
 17 29  1  0
M  END
