
     RDKit          3D

 24 23  0  0  0  0  0  0  0  0999 V2000
   -2.8318    0.8459    1.2228 C   0  0  0  0  0  0  0  0  0  0  0  0
   -2.2277   -0.4103    0.5967 C   0  0  0  0  0  0  0  0  0  0  0  0
   -2.1282   -0.3237   -0.9354 C   0  0  0  0  0  0  0  0  0  0  0  0
   -1.1235    0.7293   -1.4250 C   0  0  0  0  0  0  0  0  0  0  0  0
    0.1670    0.5236   -0.8520 O   0  0  0  0  0  0  0  0  0  0  0  0
    1.0314   -0.5067   -1.2435 C   0  0  0  0  0  0  0  0  0  0  0  0
    0.7273   -1.2685   -2.2009 O   0  0  0  0  0  0  0  0  0  0  0  0
    2.3095   -0.7095   -0.5461 C   0  0  0  0  0  0  0  0  0  0  0  0
    2.6818    0.0507    0.4868 C   0  0  0  0  0  0  0  0  0  0  0  0
    3.9862   -0.1809    1.1789 C   0  0  0  0  0  0  0  0  0  0  0  0
   -3.8087    1.0846    0.7512 H   0  0  0  0  0  0  0  0  0  0  0  0
   -2.9956    0.6749    2.3077 H   0  0  0  0  0  0  0  0  0  0  0  0
   -2.1442    1.7096    1.1101 H   0  0  0  0  0  0  0  0  0  0  0  0
   -2.8764   -1.2750    0.8556 H   0  0  0  0  0  0  0  0  0  0  0  0
   -1.2264   -0.6023    1.0391 H   0  0  0  0  0  0  0  0  0  0  0  0
   -3.1295   -0.0972   -1.3621 H   0  0  0  0  0  0  0  0  0  0  0  0
   -1.8249   -1.3188   -1.3251 H   0  0  0  0  0  0  0  0  0  0  0  0
   -1.0560    0.6974   -2.5343 H   0  0  0  0  0  0  0  0  0  0  0  0
   -1.4798    1.7434   -1.1499 H   0  0  0  0  0  0  0  0  0  0  0  0
    2.9615   -1.5063   -0.8859 H   0  0  0  0  0  0  0  0  0  0  0  0
    2.0424    0.8497    0.8431 H   0  0  0  0  0  0  0  0  0  0  0  0
    4.1072    0.5503    2.0055 H   0  0  0  0  0  0  0  0  0  0  0  0
    4.0144   -1.2075    1.6014 H   0  0  0  0  0  0  0  0  0  0  0  0
    4.8242   -0.0529    0.4615 H   0  0  0  0  0  0  0  0  0  0  0  0
  1  2  1  0
  2  3  1  0
  3  4  1  0
  4  5  1  0
  5  6  1  0
  6  7  2  0
  6  8  1  0
  8  9  2  0
  9 10  1  0
  1 11  1  0
  1 12  1  0
  1 13  1  0
  2 14  1  0
  2 15  1  0
  3 16  1  0
  3 17  1  0
  4 18  1  0
  4 19  1  0
  8 20  1  0
  9 21  1  0
 10 22  1  0
 10 23  1  0
 10 24  1  0
M  END
