
     RDKit          3D

 15 14  0  0  0  0  0  0  0  0999 V2000
   -2.1230    0.1464   -0.5742 C   0  0  0  0  0  0  0  0  0  0  0  0
   -1.1187   -0.9740   -0.3188 C   0  0  0  0  0  0  0  0  0  0  0  0
    0.2959   -0.4846   -0.4617 C   0  0  0  0  0  0  0  0  0  0  0  0
    0.8502    0.3372    0.4421 C   0  0  0  0  0  0  0  0  0  0  0  0
    2.2621    0.8200    0.2955 C   0  0  0  0  0  0  0  0  0  0  0  0
    3.5091   -0.6453    0.5307 Br  0  0  0  0  0  0  0  0  0  0  0  0
   -3.1549   -0.2576   -0.5039 H   0  0  0  0  0  0  0  0  0  0  0  0
   -1.9757    0.5710   -1.5903 H   0  0  0  0  0  0  0  0  0  0  0  0
   -2.0082    0.9530    0.1806 H   0  0  0  0  0  0  0  0  0  0  0  0
   -1.2725   -1.3948    0.6985 H   0  0  0  0  0  0  0  0  0  0  0  0
   -1.2950   -1.7858   -1.0567 H   0  0  0  0  0  0  0  0  0  0  0  0
    0.8839   -0.8347   -1.3061 H   0  0  0  0  0  0  0  0  0  0  0  0
    0.2666    0.6839    1.2906 H   0  0  0  0  0  0  0  0  0  0  0  0
    2.4077    1.2782   -0.7057 H   0  0  0  0  0  0  0  0  0  0  0  0
    2.4725    1.5871    1.0698 H   0  0  0  0  0  0  0  0  0  0  0  0
  1  2  1  0
  2  3  1  0
  3  4  2  0
  4  5  1  0
  5  6  1  0
  1  7  1  0
  1  8  1  0
  1  9  1  0
  2 10  1  0
  2 11  1  0
  3 12  1  0
  4 13  1  0
  5 14  1  0
  5 15  1  0
M  END
