
     RDKit          3D

 21 20  0  0  0  0  0  0  0  0999 V2000
    3.0642    1.3018    0.3985 C   0  0  0  0  0  0  0  0  0  0  0  0
    1.8464    0.4089    0.6134 C   0  0  0  0  0  0  0  0  0  0  0  0
    1.2771   -0.0480   -0.7032 C   0  0  0  0  0  0  0  0  0  0  0  0
    1.9164   -0.8240   -1.3975 O   0  0  0  0  0  0  0  0  0  0  0  0
   -0.0734    0.4181   -1.1707 C   0  0  0  0  0  0  0  0  0  0  0  0
   -1.0745   -0.6973   -1.0576 C   0  0  0  0  0  0  0  0  0  0  0  0
   -1.3320   -1.3781   -2.0388 O   0  0  0  0  0  0  0  0  0  0  0  0
   -1.7204   -1.0218    0.2623 C   0  0  0  0  0  0  0  0  0  0  0  0
   -3.2183   -0.7441    0.2174 C   0  0  0  0  0  0  0  0  0  0  0  0
    2.7830    2.1987   -0.1940 H   0  0  0  0  0  0  0  0  0  0  0  0
    3.4593    1.6341    1.3814 H   0  0  0  0  0  0  0  0  0  0  0  0
    3.8637    0.7454   -0.1356 H   0  0  0  0  0  0  0  0  0  0  0  0
    2.1379   -0.4799    1.2129 H   0  0  0  0  0  0  0  0  0  0  0  0
    1.0853    0.9726    1.1938 H   0  0  0  0  0  0  0  0  0  0  0  0
   -0.4212    1.2849   -0.5694 H   0  0  0  0  0  0  0  0  0  0  0  0
    0.0007    0.7621   -2.2250 H   0  0  0  0  0  0  0  0  0  0  0  0
   -1.2662   -0.4128    1.0739 H   0  0  0  0  0  0  0  0  0  0  0  0
   -1.5480   -2.0932    0.5013 H   0  0  0  0  0  0  0  0  0  0  0  0
   -3.7071   -1.3785   -0.5530 H   0  0  0  0  0  0  0  0  0  0  0  0
   -3.6693   -0.9758    1.2052 H   0  0  0  0  0  0  0  0  0  0  0  0
   -3.4035    0.3266   -0.0157 H   0  0  0  0  0  0  0  0  0  0  0  0
  1  2  1  0
  2  3  1  0
  3  4  2  0
  3  5  1  0
  5  6  1  0
  6  7  2  0
  6  8  1  0
  8  9  1  0
  1 10  1  0
  1 11  1  0
  1 12  1  0
  2 13  1  0
  2 14  1  0
  5 15  1  0
  5 16  1  0
  8 17  1  0
  8 18  1  0
  9 19  1  0
  9 20  1  0
  9 21  1  0
M  END
