
     RDKit          3D

 23 22  0  0  0  0  0  0  0  0999 V2000
   -2.0879    0.7456    0.9662 C   0  0  0  0  0  0  0  0  0  0  0  0
   -1.4039   -0.5532    0.5158 C   0  0  0  0  0  0  0  0  0  0  0  0
   -1.8118   -0.9184   -0.9170 C   0  0  0  0  0  0  0  0  0  0  0  0
    0.1320   -0.5218    0.7232 C   0  0  0  0  0  0  0  0  0  0  0  0
    0.9071    0.5091   -0.1359 C   0  0  0  0  0  0  0  0  0  0  0  0
    0.9919    0.0636   -1.5301 N   0  0  0  0  0  0  0  0  0  0  0  0
    2.3148    0.7726    0.4404 C   0  0  0  0  0  0  0  0  0  0  0  0
    3.0967   -0.3932    0.4371 O   0  0  0  0  0  0  0  0  0  0  0  0
   -3.1888    0.5993    0.9954 H   0  0  0  0  0  0  0  0  0  0  0  0
   -1.7512    1.0273    1.9864 H   0  0  0  0  0  0  0  0  0  0  0  0
   -1.8714    1.5810    0.2685 H   0  0  0  0  0  0  0  0  0  0  0  0
   -1.7903   -1.3627    1.1749 H   0  0  0  0  0  0  0  0  0  0  0  0
   -1.6044   -0.0823   -1.6173 H   0  0  0  0  0  0  0  0  0  0  0  0
   -1.2665   -1.8253   -1.2549 H   0  0  0  0  0  0  0  0  0  0  0  0
   -2.9006   -1.1360   -0.9541 H   0  0  0  0  0  0  0  0  0  0  0  0
    0.5390   -1.5391    0.5314 H   0  0  0  0  0  0  0  0  0  0  0  0
    0.3197   -0.3114    1.7995 H   0  0  0  0  0  0  0  0  0  0  0  0
    0.3695    1.4799   -0.1110 H   0  0  0  0  0  0  0  0  0  0  0  0
    1.5769   -0.8013   -1.5909 H   0  0  0  0  0  0  0  0  0  0  0  0
    1.4650    0.8059   -2.0953 H   0  0  0  0  0  0  0  0  0  0  0  0
    2.8252    1.5400   -0.1798 H   0  0  0  0  0  0  0  0  0  0  0  0
    2.2356    1.1925    1.4701 H   0  0  0  0  0  0  0  0  0  0  0  0
    2.9035   -0.8721    1.2847 H   0  0  0  0  0  0  0  0  0  0  0  0
  1  2  1  0
  2  3  1  0
  2  4  1  0
  4  5  1  0
  5  6  1  0
  5  7  1  0
  7  8  1  0
  1  9  1  0
  1 10  1  0
  1 11  1  0
  2 12  1  0
  3 13  1  0
  3 14  1  0
  3 15  1  0
  4 16  1  0
  4 17  1  0
  5 18  1  0
  6 19  1  0
  6 20  1  0
  7 21  1  0
  7 22  1  0
  8 23  1  0
M  END
