
     RDKit          3D

 28 28  0  0  0  0  0  0  0  0999 V2000
    3.9734    1.1629   -0.0829 C   0  0  0  0  0  0  0  0  0  0  0  0
    4.1696   -0.3272    0.1866 C   0  0  0  0  0  0  0  0  0  0  0  0
    3.3362   -1.1924   -0.7650 C   0  0  0  0  0  0  0  0  0  0  0  0
    1.9415   -0.9316   -0.6119 O   0  0  0  0  0  0  0  0  0  0  0  0
    1.1844   -1.3881    0.4747 C   0  0  0  0  0  0  0  0  0  0  0  0
    1.7058   -2.1307    1.3503 O   0  0  0  0  0  0  0  0  0  0  0  0
   -0.2314   -1.0115    0.6073 C   0  0  0  0  0  0  0  0  0  0  0  0
   -0.8439   -0.2316   -0.2940 C   0  0  0  0  0  0  0  0  0  0  0  0
   -2.2705    0.1670   -0.2062 C   0  0  0  0  0  0  0  0  0  0  0  0
   -2.9190    0.6067   -1.3735 C   0  0  0  0  0  0  0  0  0  0  0  0
   -4.2598    1.0013   -1.3364 C   0  0  0  0  0  0  0  0  0  0  0  0
   -4.9656    0.9713   -0.1321 C   0  0  0  0  0  0  0  0  0  0  0  0
   -4.3301    0.5525    1.0385 C   0  0  0  0  0  0  0  0  0  0  0  0
   -2.9892    0.1558    1.0076 C   0  0  0  0  0  0  0  0  0  0  0  0
    2.9155    1.4532    0.0916 H   0  0  0  0  0  0  0  0  0  0  0  0
    4.2536    1.4065   -1.1298 H   0  0  0  0  0  0  0  0  0  0  0  0
    4.6181    1.7517    0.6031 H   0  0  0  0  0  0  0  0  0  0  0  0
    5.2439   -0.5786    0.0528 H   0  0  0  0  0  0  0  0  0  0  0  0
    3.8957   -0.5496    1.2398 H   0  0  0  0  0  0  0  0  0  0  0  0
    3.6273   -0.9697   -1.8136 H   0  0  0  0  0  0  0  0  0  0  0  0
    3.5452   -2.2686   -0.5805 H   0  0  0  0  0  0  0  0  0  0  0  0
   -0.7735   -1.4083    1.4545 H   0  0  0  0  0  0  0  0  0  0  0  0
   -0.2878    0.1021   -1.1627 H   0  0  0  0  0  0  0  0  0  0  0  0
   -2.3890    0.6371   -2.3179 H   0  0  0  0  0  0  0  0  0  0  0  0
   -4.7514    1.3317   -2.2423 H   0  0  0  0  0  0  0  0  0  0  0  0
   -6.0030    1.2788   -0.1048 H   0  0  0  0  0  0  0  0  0  0  0  0
   -4.8751    0.5420    1.9737 H   0  0  0  0  0  0  0  0  0  0  0  0
   -2.5208   -0.1328    1.9380 H   0  0  0  0  0  0  0  0  0  0  0  0
  1  2  1  0
  2  3  1  0
  3  4  1  0
  4  5  1  0
  5  6  2  0
  5  7  1  0
  7  8  2  0
  8  9  1  0
  9 10  2  0
 10 11  1  0
 11 12  2  0
 12 13  1  0
 13 14  2  0
 14  9  1  0
  1 15  1  0
  1 16  1  0
  1 17  1  0
  2 18  1  0
  2 19  1  0
  3 20  1  0
  3 21  1  0
  7 22  1  0
  8 23  1  0
 10 24  1  0
 11 25  1  0
 12 26  1  0
 13 27  1  0
 14 28  1  0
M  END
