
     RDKit          3D

 21 21  0  0  0  0  0  0  0  0999 V2000
    3.1611    0.7430    0.0541 C   0  0  0  0  0  0  0  0  0  0  0  0
    2.7190   -0.7092    0.1997 C   0  0  0  0  0  0  0  0  0  0  0  0
    1.5917   -0.9814   -0.6332 O   0  0  0  0  0  0  0  0  0  0  0  0
    0.2698   -0.5814   -0.3765 C   0  0  0  0  0  0  0  0  0  0  0  0
   -0.1174    0.0549    0.8189 C   0  0  0  0  0  0  0  0  0  0  0  0
   -1.4497    0.4292    1.0195 C   0  0  0  0  0  0  0  0  0  0  0  0
   -2.4160    0.1736    0.0358 C   0  0  0  0  0  0  0  0  0  0  0  0
   -3.8155    0.5762    0.2665 C   0  0  0  0  0  0  0  0  0  0  0  0
   -4.7059    0.3596   -0.5981 O   0  0  0  0  0  0  0  0  0  0  0  0
   -2.0303   -0.4649   -1.1543 C   0  0  0  0  0  0  0  0  0  0  0  0
   -0.6983   -0.8386   -1.3542 C   0  0  0  0  0  0  0  0  0  0  0  0
    4.0637    0.9219    0.6754 H   0  0  0  0  0  0  0  0  0  0  0  0
    3.4072    0.9578   -1.0072 H   0  0  0  0  0  0  0  0  0  0  0  0
    2.3589    1.4338    0.3851 H   0  0  0  0  0  0  0  0  0  0  0  0
    2.4982   -0.9548    1.2599 H   0  0  0  0  0  0  0  0  0  0  0  0
    3.5563   -1.3629   -0.1236 H   0  0  0  0  0  0  0  0  0  0  0  0
    0.5971    0.2638    1.6018 H   0  0  0  0  0  0  0  0  0  0  0  0
   -1.7264    0.9183    1.9457 H   0  0  0  0  0  0  0  0  0  0  0  0
   -4.0922    1.0666    1.1911 H   0  0  0  0  0  0  0  0  0  0  0  0
   -2.7562   -0.6755   -1.9298 H   0  0  0  0  0  0  0  0  0  0  0  0
   -0.4152   -1.3300   -2.2765 H   0  0  0  0  0  0  0  0  0  0  0  0
  1  2  1  0
  2  3  1  0
  3  4  1  0
  4  5  2  0
  5  6  1  0
  6  7  2  0
  7  8  1  0
  8  9  2  0
  7 10  1  0
 10 11  2  0
 11  4  1  0
  1 12  1  0
  1 13  1  0
  1 14  1  0
  2 15  1  0
  2 16  1  0
  5 17  1  0
  6 18  1  0
  8 19  1  0
 10 20  1  0
 11 21  1  0
M  END
