
     RDKit          3D

 24 23  0  0  0  0  0  0  0  0999 V2000
   -2.2192    1.1697   -1.0371 C   0  0  0  0  0  0  0  0  0  0  0  0
   -2.4739    0.6400    0.3723 C   0  0  0  0  0  0  0  0  0  0  0  0
   -1.6397   -0.6145    0.6919 C   0  0  0  0  0  0  0  0  0  0  0  0
   -2.0452   -1.1819    2.0517 C   0  0  0  0  0  0  0  0  0  0  0  0
   -0.2470   -0.2932    0.7343 O   0  0  0  0  0  0  0  0  0  0  0  0
    0.6252   -0.4424   -0.3504 C   0  0  0  0  0  0  0  0  0  0  0  0
    0.2183   -0.9307   -1.4409 O   0  0  0  0  0  0  0  0  0  0  0  0
    2.0267   -0.0232   -0.1936 C   0  0  0  0  0  0  0  0  0  0  0  0
    2.9217   -0.1276   -1.1803 C   0  0  0  0  0  0  0  0  0  0  0  0
    4.3368    0.3112   -0.9817 C   0  0  0  0  0  0  0  0  0  0  0  0
   -2.9165    2.0076   -1.2484 H   0  0  0  0  0  0  0  0  0  0  0  0
   -2.3893    0.3704   -1.7893 H   0  0  0  0  0  0  0  0  0  0  0  0
   -1.1815    1.5527   -1.1281 H   0  0  0  0  0  0  0  0  0  0  0  0
   -2.2443    1.4423    1.1073 H   0  0  0  0  0  0  0  0  0  0  0  0
   -3.5553    0.3947    0.4577 H   0  0  0  0  0  0  0  0  0  0  0  0
   -1.8391   -1.4031   -0.0681 H   0  0  0  0  0  0  0  0  0  0  0  0
   -3.1176   -1.4722    2.0462 H   0  0  0  0  0  0  0  0  0  0  0  0
   -1.4391   -2.0852    2.2763 H   0  0  0  0  0  0  0  0  0  0  0  0
   -1.8748   -0.4312    2.8530 H   0  0  0  0  0  0  0  0  0  0  0  0
    2.3315    0.3858    0.7626 H   0  0  0  0  0  0  0  0  0  0  0  0
    2.6365   -0.5327   -2.1439 H   0  0  0  0  0  0  0  0  0  0  0  0
    4.9160    0.1431   -1.9137 H   0  0  0  0  0  0  0  0  0  0  0  0
    4.8030   -0.2722   -0.1597 H   0  0  0  0  0  0  0  0  0  0  0  0
    4.3669    1.3927   -0.7310 H   0  0  0  0  0  0  0  0  0  0  0  0
  1  2  1  0
  2  3  1  0
  3  4  1  0
  3  5  1  0
  5  6  1  0
  6  7  2  0
  6  8  1  0
  8  9  2  0
  9 10  1  0
  1 11  1  0
  1 12  1  0
  1 13  1  0
  2 14  1  0
  2 15  1  0
  3 16  1  0
  4 17  1  0
  4 18  1  0
  4 19  1  0
  8 20  1  0
  9 21  1  0
 10 22  1  0
 10 23  1  0
 10 24  1  0
M  END
