
     RDKit          3D

 14 13  0  0  0  0  0  0  0  0999 V2000
    2.5888    0.4705   -0.7166 C   0  0  0  0  0  0  0  0  0  0  0  0
    2.0012    0.6216    0.4680 C   0  0  0  0  0  0  0  0  0  0  0  0
    0.6719    0.0659    0.7597 C   0  0  0  0  0  0  0  0  0  0  0  0
    0.1689    0.2456    1.9018 O   0  0  0  0  0  0  0  0  0  0  0  0
   -0.0254   -0.6559   -0.2184 O   0  0  0  0  0  0  0  0  0  0  0  0
   -1.3251   -1.2031   -0.0103 C   0  0  0  0  0  0  0  0  0  0  0  0
   -2.3289   -0.1340    0.0241 C   0  0  0  0  0  0  0  0  0  0  0  0
   -3.1531    0.7451    0.0531 C   0  0  0  0  0  0  0  0  0  0  0  0
    3.5687    0.8959   -0.8904 H   0  0  0  0  0  0  0  0  0  0  0  0
    2.1096   -0.0721   -1.5217 H   0  0  0  0  0  0  0  0  0  0  0  0
    2.5194    1.1730    1.2431 H   0  0  0  0  0  0  0  0  0  0  0  0
   -1.3545   -1.7817    0.9375 H   0  0  0  0  0  0  0  0  0  0  0  0
   -1.5650   -1.8879   -0.8494 H   0  0  0  0  0  0  0  0  0  0  0  0
   -3.8765    1.5171    0.0786 H   0  0  0  0  0  0  0  0  0  0  0  0
  1  2  2  3
  2  3  1  0
  3  4  2  0
  3  5  1  0
  5  6  1  0
  6  7  1  0
  7  8  3  0
  1  9  1  0
  1 10  1  0
  2 11  1  0
  6 12  1  0
  6 13  1  0
  8 14  1  0
M  END
