
     RDKit          3D

 17 16  0  0  0  0  0  0  0  0999 V2000
   -2.6333    1.1220   -0.4299 N   0  0  0  0  0  0  0  0  0  0  0  0
   -1.8089    0.0726    0.1656 C   0  0  0  0  0  0  0  0  0  0  0  0
   -0.3245    0.2677   -0.1751 C   0  0  0  0  0  0  0  0  0  0  0  0
    0.5339   -0.8374    0.4547 C   0  0  0  0  0  0  0  0  0  0  0  0
    2.0141   -0.6739    0.1058 C   0  0  0  0  0  0  0  0  0  0  0  0
    2.5173    0.5024    0.6765 O   0  0  0  0  0  0  0  0  0  0  0  0
   -2.3048    2.0506   -0.0777 H   0  0  0  0  0  0  0  0  0  0  0  0
   -2.4990    1.1094   -1.4673 H   0  0  0  0  0  0  0  0  0  0  0  0
   -1.9464    0.0884    1.2689 H   0  0  0  0  0  0  0  0  0  0  0  0
   -2.1546   -0.9148   -0.2109 H   0  0  0  0  0  0  0  0  0  0  0  0
   -0.1966    0.2496   -1.2798 H   0  0  0  0  0  0  0  0  0  0  0  0
    0.0095    1.2586    0.2030 H   0  0  0  0  0  0  0  0  0  0  0  0
    0.4160   -0.8229    1.5605 H   0  0  0  0  0  0  0  0  0  0  0  0
    0.1900   -1.8273    0.0826 H   0  0  0  0  0  0  0  0  0  0  0  0
    2.5746   -1.5485    0.5047 H   0  0  0  0  0  0  0  0  0  0  0  0
    2.1409   -0.6476   -1.0000 H   0  0  0  0  0  0  0  0  0  0  0  0
    3.4717    0.5512    0.4089 H   0  0  0  0  0  0  0  0  0  0  0  0
  1  2  1  0
  2  3  1  0
  3  4  1  0
  4  5  1  0
  5  6  1  0
  1  7  1  0
  1  8  1  0
  2  9  1  0
  2 10  1  0
  3 11  1  0
  3 12  1  0
  4 13  1  0
  4 14  1  0
  5 15  1  0
  5 16  1  0
  6 17  1  0
M  END
