
     RDKit          3D

 16 15  0  0  0  0  0  0  0  0999 V2000
   -2.5159    1.3331   -0.1016 C   0  0  0  0  0  0  0  0  0  0  0  0
   -2.3067    0.1063   -0.5862 C   0  0  0  0  0  0  0  0  0  0  0  0
   -0.9507   -0.3260   -1.0554 C   0  0  0  0  0  0  0  0  0  0  0  0
   -0.0450   -0.3391    0.0432 O   0  0  0  0  0  0  0  0  0  0  0  0
    1.2995   -0.6961   -0.0928 C   0  0  0  0  0  0  0  0  0  0  0  0
    1.7710   -1.0126   -1.2194 O   0  0  0  0  0  0  0  0  0  0  0  0
    2.1935   -0.6581    1.1019 C   0  0  0  0  0  0  0  0  0  0  0  0
    2.7188    0.6972    1.2842 C   0  0  0  0  0  0  0  0  0  0  0  0
    3.1338    1.7678    1.4287 N   0  0  0  0  0  0  0  0  0  0  0  0
   -1.7044    2.0515   -0.0318 H   0  0  0  0  0  0  0  0  0  0  0  0
   -3.5074    1.6247    0.2292 H   0  0  0  0  0  0  0  0  0  0  0  0
   -3.1373   -0.5906   -0.6482 H   0  0  0  0  0  0  0  0  0  0  0  0
   -1.0233   -1.3469   -1.4884 H   0  0  0  0  0  0  0  0  0  0  0  0
   -0.5874    0.3727   -1.8405 H   0  0  0  0  0  0  0  0  0  0  0  0
    1.6213   -0.9526    2.0064 H   0  0  0  0  0  0  0  0  0  0  0  0
    3.0400   -1.3651    0.9710 H   0  0  0  0  0  0  0  0  0  0  0  0
  1  2  2  3
  2  3  1  0
  3  4  1  0
  4  5  1  0
  5  6  2  0
  5  7  1  0
  7  8  1  0
  8  9  3  0
  1 10  1  0
  1 11  1  0
  2 12  1  0
  3 13  1  0
  3 14  1  0
  7 15  1  0
  7 16  1  0
M  END
