
     RDKit          3D

 33 32  0  0  0  0  0  0  0  0999 V2000
   -4.9996   -0.1061    0.2228 C   0  0  0  0  0  0  0  0  0  0  0  0
   -3.7608    0.1482   -0.6312 C   0  0  0  0  0  0  0  0  0  0  0  0
   -2.4797    0.0388    0.2042 C   0  0  0  0  0  0  0  0  0  0  0  0
   -1.2340    0.2763   -0.6641 C   0  0  0  0  0  0  0  0  0  0  0  0
    0.0739    0.3671    0.1599 C   0  0  0  0  0  0  0  0  0  0  0  0
    0.3784   -0.9039    0.9994 C   0  0  0  0  0  0  0  0  0  0  0  0
    0.4978   -2.1956    0.1861 C   0  0  0  0  0  0  0  0  0  0  0  0
    1.2483    0.7492   -0.7612 C   0  0  0  0  0  0  0  0  0  0  0  0
    2.4440    0.9038   -0.0019 O   0  0  0  0  0  0  0  0  0  0  0  0
    3.6725    1.2254   -0.5854 C   0  0  0  0  0  0  0  0  0  0  0  0
    3.7700    1.3902   -1.8323 O   0  0  0  0  0  0  0  0  0  0  0  0
    4.8876    1.3285    0.2749 C   0  0  0  0  0  0  0  0  0  0  0  0
    5.4439   -0.0068    0.5061 C   0  0  0  0  0  0  0  0  0  0  0  0
    5.8833   -1.0617    0.6891 N   0  0  0  0  0  0  0  0  0  0  0  0
   -4.9660   -1.1279    0.6573 H   0  0  0  0  0  0  0  0  0  0  0  0
   -5.9098   -0.0182   -0.4072 H   0  0  0  0  0  0  0  0  0  0  0  0
   -5.0623    0.6400    1.0435 H   0  0  0  0  0  0  0  0  0  0  0  0
   -3.8343    1.1648   -1.0754 H   0  0  0  0  0  0  0  0  0  0  0  0
   -3.7341   -0.5960   -1.4570 H   0  0  0  0  0  0  0  0  0  0  0  0
   -2.5101    0.7908    1.0231 H   0  0  0  0  0  0  0  0  0  0  0  0
   -2.4344   -0.9767    0.6525 H   0  0  0  0  0  0  0  0  0  0  0  0
   -1.3690    1.2374   -1.2084 H   0  0  0  0  0  0  0  0  0  0  0  0
   -1.1536   -0.5229   -1.4319 H   0  0  0  0  0  0  0  0  0  0  0  0
   -0.0484    1.2061    0.8814 H   0  0  0  0  0  0  0  0  0  0  0  0
    1.3252   -0.7559    1.5620 H   0  0  0  0  0  0  0  0  0  0  0  0
   -0.4095   -1.0391    1.7699 H   0  0  0  0  0  0  0  0  0  0  0  0
   -0.4607   -2.4401   -0.3155 H   0  0  0  0  0  0  0  0  0  0  0  0
    0.7464   -3.0342    0.8701 H   0  0  0  0  0  0  0  0  0  0  0  0
    1.3074   -2.1190   -0.5678 H   0  0  0  0  0  0  0  0  0  0  0  0
    1.0205    1.7122   -1.2690 H   0  0  0  0  0  0  0  0  0  0  0  0
    1.3965   -0.0248   -1.5444 H   0  0  0  0  0  0  0  0  0  0  0  0
    5.6540    1.9656   -0.2153 H   0  0  0  0  0  0  0  0  0  0  0  0
    4.6165    1.7847    1.2499 H   0  0  0  0  0  0  0  0  0  0  0  0
  1  2  1  0
  2  3  1  0
  3  4  1  0
  4  5  1  0
  5  6  1  0
  6  7  1  0
  5  8  1  0
  8  9  1  0
  9 10  1  0
 10 11  2  0
 10 12  1  0
 12 13  1  0
 13 14  3  0
  1 15  1  0
  1 16  1  0
  1 17  1  0
  2 18  1  0
  2 19  1  0
  3 20  1  0
  3 21  1  0
  4 22  1  0
  4 23  1  0
  5 24  1  0
  6 25  1  0
  6 26  1  0
  7 27  1  0
  7 28  1  0
  7 29  1  0
  8 30  1  0
  8 31  1  0
 12 32  1  0
 12 33  1  0
M  END
