
     RDKit          3D

 17 17  0  0  0  0  0  0  0  0999 V2000
   -2.6639   -0.5959    0.5596 C   0  0  0  0  0  0  0  0  0  0  0  0
   -1.7836    0.4003   -0.1319 C   0  0  0  0  0  0  0  0  0  0  0  0
   -2.3262    1.3445   -0.7661 O   0  0  0  0  0  0  0  0  0  0  0  0
   -0.3051    0.2474   -0.1419 C   0  0  0  0  0  0  0  0  0  0  0  0
    0.2491   -1.0447   -0.1604 C   0  0  0  0  0  0  0  0  0  0  0  0
    1.6302   -1.2283   -0.1924 C   0  0  0  0  0  0  0  0  0  0  0  0
    2.4882   -0.1288   -0.2045 C   0  0  0  0  0  0  0  0  0  0  0  0
    4.2239   -0.4142   -0.2479 Cl  0  0  0  0  0  0  0  0  0  0  0  0
    1.9610    1.1730   -0.1778 C   0  0  0  0  0  0  0  0  0  0  0  0
    0.5643    1.3670   -0.1438 C   0  0  0  0  0  0  0  0  0  0  0  0
   -0.0698    3.0140   -0.0384 Cl  0  0  0  0  0  0  0  0  0  0  0  0
    3.0542    2.5589   -0.1787 Cl  0  0  0  0  0  0  0  0  0  0  0  0
   -2.1735   -0.9670    1.4842 H   0  0  0  0  0  0  0  0  0  0  0  0
   -2.8670   -1.4495   -0.1201 H   0  0  0  0  0  0  0  0  0  0  0  0
   -3.6287   -0.1235    0.8417 H   0  0  0  0  0  0  0  0  0  0  0  0
   -0.3873   -1.9205   -0.1690 H   0  0  0  0  0  0  0  0  0  0  0  0
    2.0343   -2.2326   -0.2127 H   0  0  0  0  0  0  0  0  0  0  0  0
  1  2  1  0
  2  3  2  0
  2  4  1  0
  4  5  2  0
  5  6  1  0
  6  7  2  0
  7  8  1  0
  7  9  1  0
  9 10  2  0
 10 11  1  0
  9 12  1  0
 10  4  1  0
  1 13  1  0
  1 14  1  0
  1 15  1  0
  5 16  1  0
  6 17  1  0
M  END
