
     RDKit          3D

 17 17  0  0  0  0  0  0  0  0999 V2000
   -1.5955   -1.9250    1.0939 O   0  0  0  0  0  0  0  0  0  0  0  0
   -0.7858   -0.9341    0.5342 C   0  0  0  0  0  0  0  0  0  0  0  0
   -1.2595    0.3687    0.2444 C   0  0  0  0  0  0  0  0  0  0  0  0
   -2.5776    0.7564    0.4996 O   0  0  0  0  0  0  0  0  0  0  0  0
   -0.3812    1.3128   -0.3199 C   0  0  0  0  0  0  0  0  0  0  0  0
    0.9456    0.9661   -0.5910 C   0  0  0  0  0  0  0  0  0  0  0  0
    1.4184   -0.3228   -0.3055 C   0  0  0  0  0  0  0  0  0  0  0  0
    0.5458   -1.2636    0.2560 C   0  0  0  0  0  0  0  0  0  0  0  0
    2.8158   -0.7019   -0.5865 C   0  0  0  0  0  0  0  0  0  0  0  0
    3.6248    0.1215   -1.0911 O   0  0  0  0  0  0  0  0  0  0  0  0
   -0.8101    2.6061   -0.6196 O   0  0  0  0  0  0  0  0  0  0  0  0
   -2.5676   -1.7948    1.3332 H   0  0  0  0  0  0  0  0  0  0  0  0
   -3.2794    0.1520    0.9013 H   0  0  0  0  0  0  0  0  0  0  0  0
    1.6041    1.7084   -1.0254 H   0  0  0  0  0  0  0  0  0  0  0  0
    0.8994   -2.2631    0.4812 H   0  0  0  0  0  0  0  0  0  0  0  0
    3.1615   -1.7022   -0.3588 H   0  0  0  0  0  0  0  0  0  0  0  0
   -1.7587    2.9157   -0.4459 H   0  0  0  0  0  0  0  0  0  0  0  0
  1  2  1  0
  2  3  2  0
  3  4  1  0
  3  5  1  0
  5  6  2  0
  6  7  1  0
  7  8  2  0
  7  9  1  0
  9 10  2  0
  5 11  1  0
  8  2  1  0
  1 12  1  0
  4 13  1  0
  6 14  1  0
  8 15  1  0
  9 16  1  0
 11 17  1  0
M  END
