
     RDKit          3D

 15 14  0  0  0  0  0  0  0  0999 V2000
   -1.8408   -0.4892   -0.2448 C   0  0  0  0  0  0  0  0  0  0  0  0
   -1.0821    0.1567    0.9123 C   0  0  0  0  0  0  0  0  0  0  0  0
   -0.0897    1.1746    0.4185 C   0  0  0  0  0  0  0  0  0  0  0  0
    1.1023    0.9084   -0.1416 C   0  0  0  0  0  0  0  0  0  0  0  0
    1.7019   -0.4261   -0.3506 C   0  0  0  0  0  0  0  0  0  0  0  0
    2.8977   -0.5178   -1.0552 O   0  0  0  0  0  0  0  0  0  0  0  0
    1.1735   -1.4742    0.1057 O   0  0  0  0  0  0  0  0  0  0  0  0
   -1.1488   -1.0134   -0.9354 H   0  0  0  0  0  0  0  0  0  0  0  0
   -2.5674   -1.2274    0.1549 H   0  0  0  0  0  0  0  0  0  0  0  0
   -2.3989    0.2845   -0.8143 H   0  0  0  0  0  0  0  0  0  0  0  0
   -0.5917   -0.6089    1.5481 H   0  0  0  0  0  0  0  0  0  0  0  0
   -1.8228    0.6763    1.5578 H   0  0  0  0  0  0  0  0  0  0  0  0
   -0.3673    2.2164    0.5281 H   0  0  0  0  0  0  0  0  0  0  0  0
    1.6921    1.7549   -0.4715 H   0  0  0  0  0  0  0  0  0  0  0  0
    3.3419   -1.4148   -1.2120 H   0  0  0  0  0  0  0  0  0  0  0  0
  1  2  1  0
  2  3  1  0
  3  4  2  0
  4  5  1  0
  5  6  1  0
  5  7  2  0
  1  8  1  0
  1  9  1  0
  1 10  1  0
  2 11  1  0
  2 12  1  0
  3 13  1  0
  4 14  1  0
  6 15  1  0
M  END
