
     RDKit          3D

 16 15  0  0  0  0  0  0  0  0999 V2000
    3.1176    0.2742   -0.4889 C   0  0  0  0  0  0  0  0  0  0  0  0
    1.6660    0.3788   -0.1480 C   0  0  0  0  0  0  0  0  0  0  0  0
    0.9856   -0.6853    0.2858 C   0  0  0  0  0  0  0  0  0  0  0  0
   -0.4430   -0.6138    0.6275 C   0  0  0  0  0  0  0  0  0  0  0  0
   -1.0222   -1.6526    1.0449 O   0  0  0  0  0  0  0  0  0  0  0  0
   -1.1300    0.6069    0.5415 O   0  0  0  0  0  0  0  0  0  0  0  0
   -2.5240    0.7642    0.5747 C   0  0  0  0  0  0  0  0  0  0  0  0
   -3.3760   -0.1634    0.1379 C   0  0  0  0  0  0  0  0  0  0  0  0
    3.6953   -0.0432    0.4050 H   0  0  0  0  0  0  0  0  0  0  0  0
    3.2634   -0.4647   -1.3050 H   0  0  0  0  0  0  0  0  0  0  0  0
    3.4955    1.2616   -0.8277 H   0  0  0  0  0  0  0  0  0  0  0  0
    1.1766    1.3387   -0.2613 H   0  0  0  0  0  0  0  0  0  0  0  0
    1.4933   -1.6376    0.3905 H   0  0  0  0  0  0  0  0  0  0  0  0
   -2.9229    1.7038    0.9342 H   0  0  0  0  0  0  0  0  0  0  0  0
   -3.0341   -1.0918   -0.2973 H   0  0  0  0  0  0  0  0  0  0  0  0
   -4.4412    0.0242    0.1769 H   0  0  0  0  0  0  0  0  0  0  0  0
  1  2  1  0
  2  3  2  0
  3  4  1  0
  4  5  2  0
  4  6  1  0
  6  7  1  0
  7  8  2  3
  1  9  1  0
  1 10  1  0
  1 11  1  0
  2 12  1  0
  3 13  1  0
  7 14  1  0
  8 15  1  0
  8 16  1  0
M  END
