
     RDKit          3D

 33 32  0  0  0  0  0  0  0  0999 V2000
   -3.7283   -0.7274   -1.6630 C   0  0  0  0  0  0  0  0  0  0  0  0
   -3.7742   -1.1887   -0.2067 C   0  0  0  0  0  0  0  0  0  0  0  0
   -3.5596   -0.0405    0.7956 C   0  0  0  0  0  0  0  0  0  0  0  0
   -2.1919    0.6581    0.6911 C   0  0  0  0  0  0  0  0  0  0  0  0
   -1.0144   -0.2905    0.9759 C   0  0  0  0  0  0  0  0  0  0  0  0
    0.3156    0.4568    1.1602 C   0  0  0  0  0  0  0  0  0  0  0  0
    0.8274    1.0805   -0.1482 C   0  0  0  0  0  0  0  0  0  0  0  0
    2.2058    1.7263    0.0346 C   0  0  0  0  0  0  0  0  0  0  0  0
    3.1862    0.7584    0.4073 O   0  0  0  0  0  0  0  0  0  0  0  0
    3.7261   -0.1749   -0.4847 C   0  0  0  0  0  0  0  0  0  0  0  0
    3.4217   -0.1500   -1.7086 O   0  0  0  0  0  0  0  0  0  0  0  0
    4.7122   -1.1785    0.0132 C   0  0  0  0  0  0  0  0  0  0  0  0
    6.0605   -0.6067   -0.0188 C   0  0  0  0  0  0  0  0  0  0  0  0
    7.1259   -0.1553   -0.0439 N   0  0  0  0  0  0  0  0  0  0  0  0
   -4.0449   -1.5614   -2.3242 H   0  0  0  0  0  0  0  0  0  0  0  0
   -2.6963   -0.4357   -1.9488 H   0  0  0  0  0  0  0  0  0  0  0  0
   -4.4156    0.1306   -1.8216 H   0  0  0  0  0  0  0  0  0  0  0  0
   -4.7757   -1.6311   -0.0144 H   0  0  0  0  0  0  0  0  0  0  0  0
   -3.0275   -1.9941   -0.0448 H   0  0  0  0  0  0  0  0  0  0  0  0
   -3.6821   -0.4415    1.8254 H   0  0  0  0  0  0  0  0  0  0  0  0
   -4.3578    0.7194    0.6482 H   0  0  0  0  0  0  0  0  0  0  0  0
   -2.1789    1.4845    1.4350 H   0  0  0  0  0  0  0  0  0  0  0  0
   -2.0828    1.1189   -0.3122 H   0  0  0  0  0  0  0  0  0  0  0  0
   -1.2227   -0.8557    1.9106 H   0  0  0  0  0  0  0  0  0  0  0  0
   -0.9075   -1.0263    0.1502 H   0  0  0  0  0  0  0  0  0  0  0  0
    1.0665   -0.2741    1.5317 H   0  0  0  0  0  0  0  0  0  0  0  0
    0.2013    1.2449    1.9364 H   0  0  0  0  0  0  0  0  0  0  0  0
    0.1225    1.8686   -0.4873 H   0  0  0  0  0  0  0  0  0  0  0  0
    0.8826    0.3043   -0.9413 H   0  0  0  0  0  0  0  0  0  0  0  0
    2.1466    2.4988    0.8306 H   0  0  0  0  0  0  0  0  0  0  0  0
    2.5131    2.2359   -0.9045 H   0  0  0  0  0  0  0  0  0  0  0  0
    4.6850   -2.0901   -0.6206 H   0  0  0  0  0  0  0  0  0  0  0  0
    4.4610   -1.4635    1.0562 H   0  0  0  0  0  0  0  0  0  0  0  0
  1  2  1  0
  2  3  1  0
  3  4  1  0
  4  5  1  0
  5  6  1  0
  6  7  1  0
  7  8  1  0
  8  9  1  0
  9 10  1  0
 10 11  2  0
 10 12  1  0
 12 13  1  0
 13 14  3  0
  1 15  1  0
  1 16  1  0
  1 17  1  0
  2 18  1  0
  2 19  1  0
  3 20  1  0
  3 21  1  0
  4 22  1  0
  4 23  1  0
  5 24  1  0
  5 25  1  0
  6 26  1  0
  6 27  1  0
  7 28  1  0
  7 29  1  0
  8 30  1  0
  8 31  1  0
 12 32  1  0
 12 33  1  0
M  END
