
     RDKit          3D

 38 38  0  0  0  0  0  0  0  0999 V2000
   -5.7807    0.5853    0.2550 C   0  0  0  0  0  0  0  0  0  0  0  0
   -4.6849   -0.1247   -0.5347 C   0  0  0  0  0  0  0  0  0  0  0  0
   -3.3296    0.5666   -0.3465 C   0  0  0  0  0  0  0  0  0  0  0  0
   -2.2283   -0.1611   -1.1311 C   0  0  0  0  0  0  0  0  0  0  0  0
   -0.8822    0.5846   -1.1053 C   0  0  0  0  0  0  0  0  0  0  0  0
   -0.2693    0.7838    0.2959 C   0  0  0  0  0  0  0  0  0  0  0  0
   -0.0547   -0.5097    1.1065 C   0  0  0  0  0  0  0  0  0  0  0  0
    0.9191   -1.5086    0.4586 C   0  0  0  0  0  0  0  0  0  0  0  0
    2.3161   -0.9514    0.3480 C   0  0  0  0  0  0  0  0  0  0  0  0
    2.8161   -0.5171   -0.8905 C   0  0  0  0  0  0  0  0  0  0  0  0
    4.1039    0.0192   -0.9829 C   0  0  0  0  0  0  0  0  0  0  0  0
    4.9072    0.1289    0.1604 C   0  0  0  0  0  0  0  0  0  0  0  0
    6.2240    0.6782    0.0650 N   0  0  0  0  0  0  0  0  0  0  0  0
    4.4108   -0.3031    1.3979 C   0  0  0  0  0  0  0  0  0  0  0  0
    3.1232   -0.8392    1.4918 C   0  0  0  0  0  0  0  0  0  0  0  0
   -6.7487    0.0644    0.0983 H   0  0  0  0  0  0  0  0  0  0  0  0
   -5.5432    0.5745    1.3401 H   0  0  0  0  0  0  0  0  0  0  0  0
   -5.8836    1.6370   -0.0879 H   0  0  0  0  0  0  0  0  0  0  0  0
   -4.6184   -1.1795   -0.1891 H   0  0  0  0  0  0  0  0  0  0  0  0
   -4.9609   -0.1236   -1.6118 H   0  0  0  0  0  0  0  0  0  0  0  0
   -3.4015    1.6192   -0.6989 H   0  0  0  0  0  0  0  0  0  0  0  0
   -3.0770    0.5691    0.7354 H   0  0  0  0  0  0  0  0  0  0  0  0
   -2.5432   -0.2479   -2.1942 H   0  0  0  0  0  0  0  0  0  0  0  0
   -2.1034   -1.1952   -0.7463 H   0  0  0  0  0  0  0  0  0  0  0  0
   -1.0207    1.5852   -1.5699 H   0  0  0  0  0  0  0  0  0  0  0  0
   -0.1626    0.0400   -1.7506 H   0  0  0  0  0  0  0  0  0  0  0  0
    0.7037    1.3083    0.1829 H   0  0  0  0  0  0  0  0  0  0  0  0
   -0.9176    1.4672    0.8842 H   0  0  0  0  0  0  0  0  0  0  0  0
   -1.0290   -1.0117    1.2816 H   0  0  0  0  0  0  0  0  0  0  0  0
    0.3318   -0.2313    2.1111 H   0  0  0  0  0  0  0  0  0  0  0  0
    0.5383   -1.8300   -0.5339 H   0  0  0  0  0  0  0  0  0  0  0  0
    0.9516   -2.4250    1.0871 H   0  0  0  0  0  0  0  0  0  0  0  0
    2.2116   -0.5932   -1.7850 H   0  0  0  0  0  0  0  0  0  0  0  0
    4.4752    0.3495   -1.9449 H   0  0  0  0  0  0  0  0  0  0  0  0
    6.8300    0.7642    0.9113 H   0  0  0  0  0  0  0  0  0  0  0  0
    6.6026    1.0030   -0.8526 H   0  0  0  0  0  0  0  0  0  0  0  0
    5.0207   -0.2231    2.2891 H   0  0  0  0  0  0  0  0  0  0  0  0
    2.7536   -1.1655    2.4561 H   0  0  0  0  0  0  0  0  0  0  0  0
  1  2  1  0
  2  3  1  0
  3  4  1  0
  4  5  1  0
  5  6  1  0
  6  7  1  0
  7  8  1  0
  8  9  1  0
  9 10  2  0
 10 11  1  0
 11 12  2  0
 12 13  1  0
 12 14  1  0
 14 15  2  0
 15  9  1  0
  1 16  1  0
  1 17  1  0
  1 18  1  0
  2 19  1  0
  2 20  1  0
  3 21  1  0
  3 22  1  0
  4 23  1  0
  4 24  1  0
  5 25  1  0
  5 26  1  0
  6 27  1  0
  6 28  1  0
  7 29  1  0
  7 30  1  0
  8 31  1  0
  8 32  1  0
 10 33  1  0
 11 34  1  0
 13 35  1  0
 13 36  1  0
 14 37  1  0
 15 38  1  0
M  END
