
     RDKit          3D

 25 24  0  0  0  0  0  0  0  0999 V2000
   -4.7885   -0.1266    0.0276 C   0  0  0  0  0  0  0  0  0  0  0  0
   -3.8750    0.2749   -1.1302 C   0  0  0  0  0  0  0  0  0  0  0  0
   -2.4550    0.6366   -0.6684 C   0  0  0  0  0  0  0  0  0  0  0  0
   -1.6611   -0.5879   -0.1975 C   0  0  0  0  0  0  0  0  0  0  0  0
   -0.2808   -0.2081    0.1224 C   0  0  0  0  0  0  0  0  0  0  0  0
    0.8535    0.1043    0.3853 C   0  0  0  0  0  0  0  0  0  0  0  0
    2.2034    0.4761    0.6977 C   0  0  0  0  0  0  0  0  0  0  0  0
    2.5045    1.6958    0.7966 O   0  0  0  0  0  0  0  0  0  0  0  0
    3.1623   -0.5224    0.8957 O   0  0  0  0  0  0  0  0  0  0  0  0
    4.5357   -0.2487    1.1665 C   0  0  0  0  0  0  0  0  0  0  0  0
    5.2586    0.1865   -0.1031 C   0  0  0  0  0  0  0  0  0  0  0  0
   -4.4552   -1.0844    0.4779 H   0  0  0  0  0  0  0  0  0  0  0  0
   -4.8002    0.6651    0.8066 H   0  0  0  0  0  0  0  0  0  0  0  0
   -5.8234   -0.2648   -0.3504 H   0  0  0  0  0  0  0  0  0  0  0  0
   -3.8368   -0.5475   -1.8775 H   0  0  0  0  0  0  0  0  0  0  0  0
   -4.3181    1.1630   -1.6308 H   0  0  0  0  0  0  0  0  0  0  0  0
   -2.5055    1.3931    0.1461 H   0  0  0  0  0  0  0  0  0  0  0  0
   -1.9233    1.1017   -1.5283 H   0  0  0  0  0  0  0  0  0  0  0  0
   -1.6407   -1.3605   -0.9954 H   0  0  0  0  0  0  0  0  0  0  0  0
   -2.1221   -1.0217    0.7138 H   0  0  0  0  0  0  0  0  0  0  0  0
    4.6279    0.5336    1.9511 H   0  0  0  0  0  0  0  0  0  0  0  0
    5.0124   -1.1764    1.5476 H   0  0  0  0  0  0  0  0  0  0  0  0
    4.8333    1.1382   -0.4845 H   0  0  0  0  0  0  0  0  0  0  0  0
    6.3364    0.3402    0.1153 H   0  0  0  0  0  0  0  0  0  0  0  0
    5.1576   -0.5967   -0.8840 H   0  0  0  0  0  0  0  0  0  0  0  0
  1  2  1  0
  2  3  1  0
  3  4  1  0
  4  5  1  0
  5  6  3  0
  6  7  1  0
  7  8  2  0
  7  9  1  0
  9 10  1  0
 10 11  1  0
  1 12  1  0
  1 13  1  0
  1 14  1  0
  2 15  1  0
  2 16  1  0
  3 17  1  0
  3 18  1  0
  4 19  1  0
  4 20  1  0
 10 21  1  0
 10 22  1  0
 11 23  1  0
 11 24  1  0
 11 25  1  0
M  END
