
     RDKit          3D

 23 23  0  0  0  0  0  0  0  0999 V2000
    4.2560    0.2655   -0.3518 C   0  0  0  0  0  0  0  0  0  0  0  0
    3.1831   -0.7181   -0.2486 N   0  0  0  0  0  0  0  0  0  0  0  0
    1.7882   -0.3694   -0.1743 C   0  0  0  0  0  0  0  0  0  0  0  0
    1.3572    0.9699   -0.1968 C   0  0  0  0  0  0  0  0  0  0  0  0
   -0.0047    1.2771   -0.1230 C   0  0  0  0  0  0  0  0  0  0  0  0
   -0.9637    0.2540   -0.0255 C   0  0  0  0  0  0  0  0  0  0  0  0
   -0.5319   -1.0824   -0.0032 C   0  0  0  0  0  0  0  0  0  0  0  0
    0.8298   -1.3890   -0.0770 C   0  0  0  0  0  0  0  0  0  0  0  0
   -2.4063    0.5748    0.0528 C   0  0  0  0  0  0  0  0  0  0  0  0
   -2.7900    1.7772    0.0324 O   0  0  0  0  0  0  0  0  0  0  0  0
   -3.3457   -0.4577    0.1494 O   0  0  0  0  0  0  0  0  0  0  0  0
   -4.7456   -0.2175    0.2280 C   0  0  0  0  0  0  0  0  0  0  0  0
    4.2446    0.9322    0.5360 H   0  0  0  0  0  0  0  0  0  0  0  0
    5.2380   -0.2512   -0.3941 H   0  0  0  0  0  0  0  0  0  0  0  0
    4.1314    0.8654   -1.2777 H   0  0  0  0  0  0  0  0  0  0  0  0
    3.4533   -1.7278   -0.2283 H   0  0  0  0  0  0  0  0  0  0  0  0
    2.0659    1.7834   -0.2710 H   0  0  0  0  0  0  0  0  0  0  0  0
   -0.3058    2.3172   -0.1425 H   0  0  0  0  0  0  0  0  0  0  0  0
   -1.2451   -1.8937    0.0712 H   0  0  0  0  0  0  0  0  0  0  0  0
    1.1387   -2.4267   -0.0580 H   0  0  0  0  0  0  0  0  0  0  0  0
   -4.9777    0.3858    1.1311 H   0  0  0  0  0  0  0  0  0  0  0  0
   -5.0909    0.3190   -0.6811 H   0  0  0  0  0  0  0  0  0  0  0  0
   -5.2786   -1.1879    0.2970 H   0  0  0  0  0  0  0  0  0  0  0  0
  1  2  1  0
  2  3  1  0
  3  4  2  0
  4  5  1  0
  5  6  2  0
  6  7  1  0
  7  8  2  0
  6  9  1  0
  9 10  2  0
  9 11  1  0
 11 12  1  0
  8  3  1  0
  1 13  1  0
  1 14  1  0
  1 15  1  0
  2 16  1  0
  4 17  1  0
  5 18  1  0
  7 19  1  0
  8 20  1  0
 12 21  1  0
 12 22  1  0
 12 23  1  0
M  END
