
     RDKit          3D

 16 16  0  0  0  0  0  0  0  0999 V2000
   -2.0717   -1.0583   -0.0579 C   0  0  0  0  0  0  0  0  0  0  0  0
   -0.7953   -0.2643   -0.0202 C   0  0  0  0  0  0  0  0  0  0  0  0
   -0.8221    1.1458   -0.0009 C   0  0  0  0  0  0  0  0  0  0  0  0
   -2.3400    2.0374   -0.0198 Cl  0  0  0  0  0  0  0  0  0  0  0  0
    0.3775    1.8664    0.0342 C   0  0  0  0  0  0  0  0  0  0  0  0
    1.6028    1.1966    0.0501 C   0  0  0  0  0  0  0  0  0  0  0  0
    1.6403   -0.1999    0.0312 C   0  0  0  0  0  0  0  0  0  0  0  0
    0.4435   -0.9287   -0.0039 C   0  0  0  0  0  0  0  0  0  0  0  0
    2.8701   -0.8541    0.0474 O   0  0  0  0  0  0  0  0  0  0  0  0
   -1.8745   -2.1514   -0.0692 H   0  0  0  0  0  0  0  0  0  0  0  0
   -2.6843   -0.8255    0.8384 H   0  0  0  0  0  0  0  0  0  0  0  0
   -2.6468   -0.8000   -0.9719 H   0  0  0  0  0  0  0  0  0  0  0  0
    0.3612    2.9489    0.0491 H   0  0  0  0  0  0  0  0  0  0  0  0
    2.5248    1.7636    0.0772 H   0  0  0  0  0  0  0  0  0  0  0  0
    0.4821   -2.0111   -0.0184 H   0  0  0  0  0  0  0  0  0  0  0  0
    2.9324   -1.8655    0.0345 H   0  0  0  0  0  0  0  0  0  0  0  0
  1  2  1  0
  2  3  2  0
  3  4  1  0
  3  5  1  0
  5  6  2  0
  6  7  1  0
  7  8  2  0
  7  9  1  0
  8  2  1  0
  1 10  1  0
  1 11  1  0
  1 12  1  0
  5 13  1  0
  6 14  1  0
  8 15  1  0
  9 16  1  0
M  END
