
     RDKit          3D

 29 29  0  0  0  0  0  0  0  0999 V2000
   -4.8596    0.7033    0.2805 C   0  0  0  0  0  0  0  0  0  0  0  0
   -3.6206   -0.1198   -0.0601 C   0  0  0  0  0  0  0  0  0  0  0  0
   -2.3712    0.7694   -0.1396 C   0  0  0  0  0  0  0  0  0  0  0  0
   -1.1267   -0.0004   -0.6071 C   0  0  0  0  0  0  0  0  0  0  0  0
   -0.6218   -1.0011    0.4414 C   0  0  0  0  0  0  0  0  0  0  0  0
    0.6253   -1.5661    0.0364 O   0  0  0  0  0  0  0  0  0  0  0  0
    1.8730   -0.9239    0.1031 C   0  0  0  0  0  0  0  0  0  0  0  0
    2.0455    0.3532    0.6746 C   0  0  0  0  0  0  0  0  0  0  0  0
    3.3136    0.9417    0.7141 C   0  0  0  0  0  0  0  0  0  0  0  0
    4.4217    0.2649    0.1883 C   0  0  0  0  0  0  0  0  0  0  0  0
    5.6891    0.8420    0.2225 O   0  0  0  0  0  0  0  0  0  0  0  0
    4.2549   -1.0030   -0.3761 C   0  0  0  0  0  0  0  0  0  0  0  0
    2.9882   -1.5931   -0.4170 C   0  0  0  0  0  0  0  0  0  0  0  0
   -4.7287    1.2098    1.2605 H   0  0  0  0  0  0  0  0  0  0  0  0
   -5.7446    0.0354    0.3411 H   0  0  0  0  0  0  0  0  0  0  0  0
   -5.0447    1.4664   -0.5053 H   0  0  0  0  0  0  0  0  0  0  0  0
   -3.7846   -0.6281   -1.0351 H   0  0  0  0  0  0  0  0  0  0  0  0
   -3.4879   -0.8939    0.7251 H   0  0  0  0  0  0  0  0  0  0  0  0
   -2.1741    1.2357    0.8508 H   0  0  0  0  0  0  0  0  0  0  0  0
   -2.5597    1.5898   -0.8665 H   0  0  0  0  0  0  0  0  0  0  0  0
   -0.3272    0.7393   -0.8232 H   0  0  0  0  0  0  0  0  0  0  0  0
   -1.3451   -0.5358   -1.5568 H   0  0  0  0  0  0  0  0  0  0  0  0
   -0.5287   -0.5318    1.4440 H   0  0  0  0  0  0  0  0  0  0  0  0
   -1.3533   -1.8305    0.5311 H   0  0  0  0  0  0  0  0  0  0  0  0
    1.2122    0.9011    1.0905 H   0  0  0  0  0  0  0  0  0  0  0  0
    3.4337    1.9235    1.1542 H   0  0  0  0  0  0  0  0  0  0  0  0
    5.8424    1.7593    0.6249 H   0  0  0  0  0  0  0  0  0  0  0  0
    5.1074   -1.5317   -0.7833 H   0  0  0  0  0  0  0  0  0  0  0  0
    2.8713   -2.5756   -0.8566 H   0  0  0  0  0  0  0  0  0  0  0  0
  1  2  1  0
  2  3  1  0
  3  4  1  0
  4  5  1  0
  5  6  1  0
  6  7  1  0
  7  8  2  0
  8  9  1  0
  9 10  2  0
 10 11  1  0
 10 12  1  0
 12 13  2  0
 13  7  1  0
  1 14  1  0
  1 15  1  0
  1 16  1  0
  2 17  1  0
  2 18  1  0
  3 19  1  0
  3 20  1  0
  4 21  1  0
  4 22  1  0
  5 23  1  0
  5 24  1  0
  8 25  1  0
  9 26  1  0
 11 27  1  0
 12 28  1  0
 13 29  1  0
M  END
