
     RDKit          3D

 16 16  0  0  0  0  0  0  0  0999 V2000
    2.5973   -0.4229    0.8863 O   0  0  0  0  0  0  0  0  0  0  0  0
    2.0170   -0.0646   -0.3379 C   0  0  0  0  0  0  0  0  0  0  0  0
    0.5145   -0.0391   -0.2121 C   0  0  0  0  0  0  0  0  0  0  0  0
   -0.2129   -1.2137   -0.4738 C   0  0  0  0  0  0  0  0  0  0  0  0
   -1.6033   -1.2324   -0.3380 C   0  0  0  0  0  0  0  0  0  0  0  0
   -2.2815   -0.0837    0.0713 C   0  0  0  0  0  0  0  0  0  0  0  0
   -1.5707    1.0852    0.3514 C   0  0  0  0  0  0  0  0  0  0  0  0
   -0.1766    1.1162    0.2193 C   0  0  0  0  0  0  0  0  0  0  0  0
    0.7283    2.7540    0.6456 Br  0  0  0  0  0  0  0  0  0  0  0  0
    2.5778    0.3873    1.4593 H   0  0  0  0  0  0  0  0  0  0  0  0
    2.4116    0.9138   -0.6908 H   0  0  0  0  0  0  0  0  0  0  0  0
    2.3200   -0.8113   -1.1028 H   0  0  0  0  0  0  0  0  0  0  0  0
    0.2973   -2.1174   -0.7840 H   0  0  0  0  0  0  0  0  0  0  0  0
   -2.1549   -2.1398   -0.5473 H   0  0  0  0  0  0  0  0  0  0  0  0
   -3.3586   -0.1004    0.1771 H   0  0  0  0  0  0  0  0  0  0  0  0
   -2.1054    1.9686    0.6764 H   0  0  0  0  0  0  0  0  0  0  0  0
  1  2  1  0
  2  3  1  0
  3  4  2  0
  4  5  1  0
  5  6  2  0
  6  7  1  0
  7  8  2  0
  8  9  1  0
  8  3  1  0
  1 10  1  0
  2 11  1  0
  2 12  1  0
  4 13  1  0
  5 14  1  0
  6 15  1  0
  7 16  1  0
M  END
