
     RDKit          3D

 12 11  0  0  0  0  0  0  0  0999 V2000
   -1.2648   -0.5641    0.1747 C   0  0  0  0  0  0  0  0  0  0  0  0
   -0.0269    0.0429   -0.4874 C   0  0  0  0  0  0  0  0  0  0  0  0
   -0.2874    1.3810   -0.8220 O   0  0  0  0  0  0  0  0  0  0  0  0
    1.2076   -0.0530    0.4227 C   0  0  0  0  0  0  0  0  0  0  0  0
    1.0533    1.0678    2.0038 Br  0  0  0  0  0  0  0  0  0  0  0  0
   -1.5464    0.0051    1.0855 H   0  0  0  0  0  0  0  0  0  0  0  0
   -1.0749   -1.6232    0.4512 H   0  0  0  0  0  0  0  0  0  0  0  0
   -2.1190   -0.5357   -0.5346 H   0  0  0  0  0  0  0  0  0  0  0  0
    0.1755   -0.5413   -1.4152 H   0  0  0  0  0  0  0  0  0  0  0  0
    0.4081    1.6530   -1.4764 H   0  0  0  0  0  0  0  0  0  0  0  0
    1.3686   -1.1054    0.7402 H   0  0  0  0  0  0  0  0  0  0  0  0
    2.1064    0.2729   -0.1426 H   0  0  0  0  0  0  0  0  0  0  0  0
  1  2  1  0
  2  3  1  0
  2  4  1  0
  4  5  1  0
  1  6  1  0
  1  7  1  0
  1  8  1  0
  2  9  1  0
  3 10  1  0
  4 11  1  0
  4 12  1  0
M  END
