
     RDKit          3D

 14 14  0  0  0  0  0  0  0  0999 V2000
   -3.0624    1.3070    0.0563 O   0  0  0  0  0  1  0  0  0  0  0  0
   -2.4031    0.1119    0.2321 N   0  0  0  0  0  4  0  0  0  0  0  0
   -3.0695   -0.9063    0.5121 O   0  0  0  0  0  0  0  0  0  0  0  0
   -0.9719    0.0385    0.0952 C   0  0  0  0  0  0  0  0  0  0  0  0
   -0.2956   -1.1808    0.2741 C   0  0  0  0  0  0  0  0  0  0  0  0
    1.0954   -1.2521    0.1412 C   0  0  0  0  0  0  0  0  0  0  0  0
    1.8325   -0.0978   -0.1744 C   0  0  0  0  0  0  0  0  0  0  0  0
    3.5858   -0.1826   -0.3431 Cl  0  0  0  0  0  0  0  0  0  0  0  0
    1.1626    1.1246   -0.3546 C   0  0  0  0  0  0  0  0  0  0  0  0
   -0.2287    1.1880   -0.2200 C   0  0  0  0  0  0  0  0  0  0  0  0
    2.0410    2.5966   -0.7505 Cl  0  0  0  0  0  0  0  0  0  0  0  0
    1.8882   -2.8050    0.3764 Cl  0  0  0  0  0  0  0  0  0  0  0  0
   -0.8470   -2.0802    0.5176 H   0  0  0  0  0  0  0  0  0  0  0  0
   -0.7273    2.1382   -0.3624 H   0  0  0  0  0  0  0  0  0  0  0  0
  1  2  1  0
  2  3  2  0
  2  4  1  0
  4  5  2  0
  5  6  1  0
  6  7  2  0
  7  8  1  0
  7  9  1  0
  9 10  2  0
  9 11  1  0
  6 12  1  0
 10  4  1  0
  5 13  1  0
 10 14  1  0
M  CHG  2   1  -1   2   1
M  END
