
     RDKit          3D

 23 22  0  0  0  0  0  0  0  0999 V2000
    4.3566   -0.7004    0.3687 C   0  0  0  0  0  0  0  0  0  0  0  0
    3.0465   -0.1098   -0.0277 C   0  0  0  0  0  0  0  0  0  0  0  0
    2.7175   -0.0828   -1.2449 O   0  0  0  0  0  0  0  0  0  0  0  0
    2.2222    0.4568    0.9509 O   0  0  0  0  0  0  0  0  0  0  0  0
    0.9420    1.0194    0.6696 C   0  0  0  0  0  0  0  0  0  0  0  0
   -0.0922   -0.0867    0.4406 C   0  0  0  0  0  0  0  0  0  0  0  0
   -1.4842    0.5031    0.1865 C   0  0  0  0  0  0  0  0  0  0  0  0
   -2.5184   -0.6081   -0.0421 C   0  0  0  0  0  0  0  0  0  0  0  0
   -3.9111   -0.0448   -0.3350 C   0  0  0  0  0  0  0  0  0  0  0  0
   -4.6234    0.7140    1.1146 Cl  0  0  0  0  0  0  0  0  0  0  0  0
    4.3227   -1.0182    1.4319 H   0  0  0  0  0  0  0  0  0  0  0  0
    5.1576    0.0568    0.2399 H   0  0  0  0  0  0  0  0  0  0  0  0
    4.5828   -1.5855   -0.2626 H   0  0  0  0  0  0  0  0  0  0  0  0
    1.0049    1.6885   -0.2167 H   0  0  0  0  0  0  0  0  0  0  0  0
    0.6330    1.6330    1.5425 H   0  0  0  0  0  0  0  0  0  0  0  0
   -0.1241   -0.7426    1.3382 H   0  0  0  0  0  0  0  0  0  0  0  0
    0.2123   -0.7022   -0.4332 H   0  0  0  0  0  0  0  0  0  0  0  0
   -1.7848    1.1181    1.0624 H   0  0  0  0  0  0  0  0  0  0  0  0
   -1.4457    1.1604   -0.7102 H   0  0  0  0  0  0  0  0  0  0  0  0
   -2.2015   -1.2263   -0.9105 H   0  0  0  0  0  0  0  0  0  0  0  0
   -2.5691   -1.2699    0.8502 H   0  0  0  0  0  0  0  0  0  0  0  0
   -4.5790   -0.8727   -0.6539 H   0  0  0  0  0  0  0  0  0  0  0  0
   -3.8645    0.7001   -1.1578 H   0  0  0  0  0  0  0  0  0  0  0  0
  1  2  1  0
  2  3  2  0
  2  4  1  0
  4  5  1  0
  5  6  1  0
  6  7  1  0
  7  8  1  0
  8  9  1  0
  9 10  1  0
  1 11  1  0
  1 12  1  0
  1 13  1  0
  5 14  1  0
  5 15  1  0
  6 16  1  0
  6 17  1  0
  7 18  1  0
  7 19  1  0
  8 20  1  0
  8 21  1  0
  9 22  1  0
  9 23  1  0
M  END
