
     RDKit          3D

 19 18  0  0  0  0  0  0  0  0999 V2000
    3.8268    0.3099   -1.0612 C   0  0  0  0  0  0  0  0  0  0  0  0
    2.7298   -0.3373   -0.2789 C   0  0  0  0  0  0  0  0  0  0  0  0
    1.4840    0.1445   -0.3171 C   0  0  0  0  0  0  0  0  0  0  0  0
    0.3777   -0.4643    0.4382 C   0  0  0  0  0  0  0  0  0  0  0  0
    0.5727   -1.4811    1.1607 O   0  0  0  0  0  0  0  0  0  0  0  0
   -0.8962    0.1021    0.3429 O   0  0  0  0  0  0  0  0  0  0  0  0
   -2.0242   -0.4221    1.0363 C   0  0  0  0  0  0  0  0  0  0  0  0
   -3.2363    0.4020    0.7241 C   0  0  0  0  0  0  0  0  0  0  0  0
   -3.7373    0.4605   -0.5125 C   0  0  0  0  0  0  0  0  0  0  0  0
    4.7786   -0.2371   -0.8959 H   0  0  0  0  0  0  0  0  0  0  0  0
    3.9567    1.3628   -0.7327 H   0  0  0  0  0  0  0  0  0  0  0  0
    3.5841    0.2877   -2.1447 H   0  0  0  0  0  0  0  0  0  0  0  0
    2.9669   -1.2078    0.3213 H   0  0  0  0  0  0  0  0  0  0  0  0
    1.2671    1.0162   -0.9236 H   0  0  0  0  0  0  0  0  0  0  0  0
   -2.2017   -1.4770    0.7330 H   0  0  0  0  0  0  0  0  0  0  0  0
   -1.8343   -0.3900    2.1309 H   0  0  0  0  0  0  0  0  0  0  0  0
   -3.7210    0.9571    1.5218 H   0  0  0  0  0  0  0  0  0  0  0  0
   -3.2753   -0.0876   -1.3283 H   0  0  0  0  0  0  0  0  0  0  0  0
   -4.6180    1.0616   -0.7139 H   0  0  0  0  0  0  0  0  0  0  0  0
  1  2  1  0
  2  3  2  0
  3  4  1  0
  4  5  2  0
  4  6  1  0
  6  7  1  0
  7  8  1  0
  8  9  2  3
  1 10  1  0
  1 11  1  0
  1 12  1  0
  2 13  1  0
  3 14  1  0
  7 15  1  0
  7 16  1  0
  8 17  1  0
  9 18  1  0
  9 19  1  0
M  END
