
     RDKit          3D

 37 36  0  0  0  0  0  0  0  0999 V2000
   -4.8090   -0.0530    1.7523 C   0  0  0  0  0  0  0  0  0  0  0  0
   -4.6565   -0.6799    0.3667 C   0  0  0  0  0  0  0  0  0  0  0  0
   -3.9087    0.2311   -0.6190 C   0  0  0  0  0  0  0  0  0  0  0  0
   -2.4159    0.3658   -0.2830 C   0  0  0  0  0  0  0  0  0  0  0  0
   -1.6809    1.1689   -1.3668 C   0  0  0  0  0  0  0  0  0  0  0  0
   -0.2162    1.4571   -1.0008 C   0  0  0  0  0  0  0  0  0  0  0  0
    0.6648    0.1999   -1.0504 C   0  0  0  0  0  0  0  0  0  0  0  0
    2.1375    0.5523   -0.8090 C   0  0  0  0  0  0  0  0  0  0  0  0
    3.0176   -0.7011   -0.8495 C   0  0  0  0  0  0  0  0  0  0  0  0
    4.4606   -0.3397   -0.6015 C   0  0  0  0  0  0  0  0  0  0  0  0
    5.0855   -0.4554    0.5848 C   0  0  0  0  0  0  0  0  0  0  0  0
    4.4522   -1.0225    1.8290 C   0  0  0  0  0  0  0  0  0  0  0  0
    3.3799   -0.2249    2.2509 O   0  0  0  0  0  0  0  0  0  0  0  0
   -3.8232    0.0379    2.2535 H   0  0  0  0  0  0  0  0  0  0  0  0
   -5.4566   -0.7003    2.3804 H   0  0  0  0  0  0  0  0  0  0  0  0
   -5.2803    0.9499    1.6760 H   0  0  0  0  0  0  0  0  0  0  0  0
   -5.6723   -0.8767   -0.0396 H   0  0  0  0  0  0  0  0  0  0  0  0
   -4.1354   -1.6579    0.4554 H   0  0  0  0  0  0  0  0  0  0  0  0
   -4.3855    1.2358   -0.6375 H   0  0  0  0  0  0  0  0  0  0  0  0
   -4.0095   -0.2084   -1.6356 H   0  0  0  0  0  0  0  0  0  0  0  0
   -1.9712   -0.6490   -0.2048 H   0  0  0  0  0  0  0  0  0  0  0  0
   -2.2994    0.8837    0.6928 H   0  0  0  0  0  0  0  0  0  0  0  0
   -1.7265    0.6269   -2.3369 H   0  0  0  0  0  0  0  0  0  0  0  0
   -2.1977    2.1445   -1.5021 H   0  0  0  0  0  0  0  0  0  0  0  0
    0.1780    2.2002   -1.7283 H   0  0  0  0  0  0  0  0  0  0  0  0
   -0.1640    1.9166    0.0107 H   0  0  0  0  0  0  0  0  0  0  0  0
    0.5623   -0.2857   -2.0458 H   0  0  0  0  0  0  0  0  0  0  0  0
    0.3362   -0.5178   -0.2688 H   0  0  0  0  0  0  0  0  0  0  0  0
    2.4798    1.2649   -1.5920 H   0  0  0  0  0  0  0  0  0  0  0  0
    2.2385    1.0462    0.1820 H   0  0  0  0  0  0  0  0  0  0  0  0
    2.9460   -1.1646   -1.8570 H   0  0  0  0  0  0  0  0  0  0  0  0
    2.6522   -1.4513   -0.1176 H   0  0  0  0  0  0  0  0  0  0  0  0
    5.0147    0.0939   -1.4293 H   0  0  0  0  0  0  0  0  0  0  0  0
    6.1227   -0.1393    0.6488 H   0  0  0  0  0  0  0  0  0  0  0  0
    5.2154   -1.0896    2.6366 H   0  0  0  0  0  0  0  0  0  0  0  0
    4.0909   -2.0534    1.6323 H   0  0  0  0  0  0  0  0  0  0  0  0
    3.7740    0.6070    2.6231 H   0  0  0  0  0  0  0  0  0  0  0  0
  1  2  1  0
  2  3  1  0
  3  4  1  0
  4  5  1  0
  5  6  1  0
  6  7  1  0
  7  8  1  0
  8  9  1  0
  9 10  1  0
 10 11  2  0
 11 12  1  0
 12 13  1  0
  1 14  1  0
  1 15  1  0
  1 16  1  0
  2 17  1  0
  2 18  1  0
  3 19  1  0
  3 20  1  0
  4 21  1  0
  4 22  1  0
  5 23  1  0
  5 24  1  0
  6 25  1  0
  6 26  1  0
  7 27  1  0
  7 28  1  0
  8 29  1  0
  8 30  1  0
  9 31  1  0
  9 32  1  0
 10 33  1  0
 11 34  1  0
 12 35  1  0
 12 36  1  0
 13 37  1  0
M  END
