
     RDKit          3D

 21 20  0  0  0  0  0  0  0  0999 V2000
    4.0495    0.4908    1.1428 Cl  0  0  0  0  0  0  0  0  0  0  0  0
    3.2309   -0.0563   -0.3456 C   0  0  0  0  0  0  0  0  0  0  0  0
    1.7926   -0.4972   -0.0619 C   0  0  0  0  0  0  0  0  0  0  0  0
    0.8800    0.6968    0.2645 C   0  0  0  0  0  0  0  0  0  0  0  0
   -0.5404    0.2646    0.6622 C   0  0  0  0  0  0  0  0  0  0  0  0
   -1.3543   -0.2669   -0.5309 C   0  0  0  0  0  0  0  0  0  0  0  0
   -2.8001   -0.5990   -0.1413 C   0  0  0  0  0  0  0  0  0  0  0  0
   -3.5773    0.6167    0.1339 C   0  0  0  0  0  0  0  0  0  0  0  0
   -4.1894    1.5745    0.3509 N   0  0  0  0  0  0  0  0  0  0  0  0
    3.2461    0.7603   -1.0986 H   0  0  0  0  0  0  0  0  0  0  0  0
    3.8016   -0.9166   -0.7549 H   0  0  0  0  0  0  0  0  0  0  0  0
    1.4118   -1.0170   -0.9660 H   0  0  0  0  0  0  0  0  0  0  0  0
    1.7904   -1.2230    0.7805 H   0  0  0  0  0  0  0  0  0  0  0  0
    1.3124    1.2630    1.1175 H   0  0  0  0  0  0  0  0  0  0  0  0
    0.8334    1.3871   -0.6062 H   0  0  0  0  0  0  0  0  0  0  0  0
   -1.0573    1.1520    1.0878 H   0  0  0  0  0  0  0  0  0  0  0  0
   -0.4893   -0.5082    1.4603 H   0  0  0  0  0  0  0  0  0  0  0  0
   -1.3515    0.4766   -1.3587 H   0  0  0  0  0  0  0  0  0  0  0  0
   -0.8848   -1.1992   -0.9093 H   0  0  0  0  0  0  0  0  0  0  0  0
   -2.8176   -1.2582    0.7528 H   0  0  0  0  0  0  0  0  0  0  0  0
   -3.2868   -1.1408   -0.9797 H   0  0  0  0  0  0  0  0  0  0  0  0
  1  2  1  0
  2  3  1  0
  3  4  1  0
  4  5  1  0
  5  6  1  0
  6  7  1  0
  7  8  1  0
  8  9  3  0
  2 10  1  0
  2 11  1  0
  3 12  1  0
  3 13  1  0
  4 14  1  0
  4 15  1  0
  5 16  1  0
  5 17  1  0
  6 18  1  0
  6 19  1  0
  7 20  1  0
  7 21  1  0
M  END
