
     RDKit          3D

 25 25  0  0  0  0  0  0  0  0999 V2000
   -3.9408    0.8113    0.9111 C   0  0  0  0  0  0  0  0  0  0  0  0
   -3.6039    0.9987   -0.5643 C   0  0  0  0  0  0  0  0  0  0  0  0
   -2.7798   -0.0680   -1.0351 O   0  0  0  0  0  0  0  0  0  0  0  0
   -1.4089   -0.2211   -0.7690 C   0  0  0  0  0  0  0  0  0  0  0  0
   -0.6518    0.7461   -0.0811 C   0  0  0  0  0  0  0  0  0  0  0  0
    0.7111    0.5402    0.1541 C   0  0  0  0  0  0  0  0  0  0  0  0
    1.3443   -0.6311   -0.2942 C   0  0  0  0  0  0  0  0  0  0  0  0
    0.5859   -1.5924   -0.9846 C   0  0  0  0  0  0  0  0  0  0  0  0
   -0.7763   -1.3850   -1.2186 C   0  0  0  0  0  0  0  0  0  0  0  0
    2.7869   -0.8443   -0.0426 C   0  0  0  0  0  0  0  0  0  0  0  0
    3.3519   -1.8979   -0.4480 O   0  0  0  0  0  0  0  0  0  0  0  0
    3.5251    0.1246    0.6462 O   0  0  0  0  0  0  0  0  0  0  0  0
    4.9135   -0.0190    0.9204 C   0  0  0  0  0  0  0  0  0  0  0  0
   -4.6167    1.6263    1.2454 H   0  0  0  0  0  0  0  0  0  0  0  0
   -4.4518   -0.1632    1.0605 H   0  0  0  0  0  0  0  0  0  0  0  0
   -3.0213    0.8350    1.5310 H   0  0  0  0  0  0  0  0  0  0  0  0
   -3.1200    1.9824   -0.7415 H   0  0  0  0  0  0  0  0  0  0  0  0
   -4.5515    0.9875   -1.1428 H   0  0  0  0  0  0  0  0  0  0  0  0
   -1.1004    1.6622    0.2751 H   0  0  0  0  0  0  0  0  0  0  0  0
    1.2682    1.3008    0.6866 H   0  0  0  0  0  0  0  0  0  0  0  0
    1.0438   -2.5053   -1.3445 H   0  0  0  0  0  0  0  0  0  0  0  0
   -1.3457   -2.1358   -1.7519 H   0  0  0  0  0  0  0  0  0  0  0  0
    5.2699    0.8739    1.4738 H   0  0  0  0  0  0  0  0  0  0  0  0
    5.0865   -0.9217    1.5439 H   0  0  0  0  0  0  0  0  0  0  0  0
    5.4819   -0.1041   -0.0299 H   0  0  0  0  0  0  0  0  0  0  0  0
  1  2  1  0
  2  3  1  0
  3  4  1  0
  4  5  2  0
  5  6  1  0
  6  7  2  0
  7  8  1  0
  8  9  2  0
  7 10  1  0
 10 11  2  0
 10 12  1  0
 12 13  1  0
  9  4  1  0
  1 14  1  0
  1 15  1  0
  1 16  1  0
  2 17  1  0
  2 18  1  0
  5 19  1  0
  6 20  1  0
  8 21  1  0
  9 22  1  0
 13 23  1  0
 13 24  1  0
 13 25  1  0
M  END
