
     RDKit          3D

 15 15  0  0  0  0  0  0  0  0999 V2000
    3.3622   -0.6531    0.4651 O   0  0  0  0  0  0  0  0  0  0  0  0
    2.2361   -1.1902    0.2908 C   0  0  0  0  0  0  0  0  0  0  0  0
    1.0183   -0.3732    0.1366 C   0  0  0  0  0  0  0  0  0  0  0  0
    1.0759    1.0312    0.1792 C   0  0  0  0  0  0  0  0  0  0  0  0
   -0.0896    1.7888    0.0310 C   0  0  0  0  0  0  0  0  0  0  0  0
   -1.3198    1.1547   -0.1606 C   0  0  0  0  0  0  0  0  0  0  0  0
   -1.3882   -0.2430   -0.2046 C   0  0  0  0  0  0  0  0  0  0  0  0
   -0.2212   -1.0049   -0.0563 C   0  0  0  0  0  0  0  0  0  0  0  0
   -2.6558   -0.8963   -0.4020 C   0  0  0  0  0  0  0  0  0  0  0  0
   -3.6748   -1.4214   -0.5606 N   0  0  0  0  0  0  0  0  0  0  0  0
    2.1713   -2.2703    0.2551 H   0  0  0  0  0  0  0  0  0  0  0  0
    2.0189    1.5426    0.3267 H   0  0  0  0  0  0  0  0  0  0  0  0
   -0.0391    2.8695    0.0647 H   0  0  0  0  0  0  0  0  0  0  0  0
   -2.2160    1.7529   -0.2742 H   0  0  0  0  0  0  0  0  0  0  0  0
   -0.2782   -2.0872   -0.0909 H   0  0  0  0  0  0  0  0  0  0  0  0
  1  2  2  0
  2  3  1  0
  3  4  2  0
  4  5  1  0
  5  6  2  0
  6  7  1  0
  7  8  2  0
  7  9  1  0
  9 10  3  0
  8  3  1  0
  2 11  1  0
  4 12  1  0
  5 13  1  0
  6 14  1  0
  8 15  1  0
M  END
