
     RDKit          3D

 12 11  0  0  0  0  0  0  0  0999 V2000
   -1.5186   -0.0651   -0.4288 C   0  0  0  0  0  0  0  0  0  0  0  0
   -0.3091    0.6685    0.1443 C   0  0  0  0  0  0  0  0  0  0  0  0
   -0.8115    1.6961    1.5152 Cl  0  0  0  0  0  0  0  0  0  0  0  0
    0.7412   -0.3095    0.5896 C   0  0  0  0  0  0  0  0  0  0  0  0
    1.9385   -0.4811   -0.1694 N   0  0  0  0  0  0  0  0  0  0  0  0
    0.5542   -1.0095    1.6213 O   0  0  0  0  0  0  0  0  0  0  0  0
   -1.9822   -0.7172    0.3425 H   0  0  0  0  0  0  0  0  0  0  0  0
   -1.2117   -0.6898   -1.2950 H   0  0  0  0  0  0  0  0  0  0  0  0
   -2.2750    0.6698   -0.7771 H   0  0  0  0  0  0  0  0  0  0  0  0
    0.1074    1.3361   -0.6403 H   0  0  0  0  0  0  0  0  0  0  0  0
    2.1050    0.0704   -1.0401 H   0  0  0  0  0  0  0  0  0  0  0  0
    2.6617   -1.1687    0.1378 H   0  0  0  0  0  0  0  0  0  0  0  0
  1  2  1  0
  2  3  1  0
  2  4  1  0
  4  5  1  0
  4  6  2  0
  1  7  1  0
  1  8  1  0
  1  9  1  0
  2 10  1  0
  5 11  1  0
  5 12  1  0
M  END
