
     RDKit          3D

 32 33  0  0  0  0  0  0  0  0999 V2000
   -1.1912    2.7792   -0.8323 C   0  0  0  0  0  0  0  0  0  0  0  0
    0.0230    1.8459   -0.9489 C   0  0  0  0  0  0  0  0  0  0  0  0
    1.2057    2.6070   -0.9785 O   0  0  0  0  0  0  0  0  0  0  0  0
    0.0656    0.8028    0.2060 C   0  0  0  0  0  0  0  0  0  0  0  0
   -1.1324   -0.1321    0.1871 C   0  0  0  0  0  0  0  0  0  0  0  0
   -1.9961   -0.1885    1.2971 C   0  0  0  0  0  0  0  0  0  0  0  0
   -3.0977   -1.0492    1.2957 C   0  0  0  0  0  0  0  0  0  0  0  0
   -3.3484   -1.8649    0.1904 C   0  0  0  0  0  0  0  0  0  0  0  0
   -2.4969   -1.8227   -0.9155 C   0  0  0  0  0  0  0  0  0  0  0  0
   -1.3938   -0.9640   -0.9197 C   0  0  0  0  0  0  0  0  0  0  0  0
    1.3539   -0.0066    0.2511 C   0  0  0  0  0  0  0  0  0  0  0  0
    1.9765   -0.4901   -0.9186 C   0  0  0  0  0  0  0  0  0  0  0  0
    3.1373   -1.2648   -0.8352 C   0  0  0  0  0  0  0  0  0  0  0  0
    3.6840   -1.5782    0.4106 C   0  0  0  0  0  0  0  0  0  0  0  0
    3.0680   -1.1218    1.5772 C   0  0  0  0  0  0  0  0  0  0  0  0
    1.9073   -0.3466    1.5002 C   0  0  0  0  0  0  0  0  0  0  0  0
   -1.1849    3.3115    0.1428 H   0  0  0  0  0  0  0  0  0  0  0  0
   -2.1357    2.2022   -0.9226 H   0  0  0  0  0  0  0  0  0  0  0  0
   -1.1655    3.5318   -1.6486 H   0  0  0  0  0  0  0  0  0  0  0  0
   -0.0637    1.3252   -1.9251 H   0  0  0  0  0  0  0  0  0  0  0  0
    1.2821    3.0771   -0.1069 H   0  0  0  0  0  0  0  0  0  0  0  0
    0.0286    1.4020    1.1447 H   0  0  0  0  0  0  0  0  0  0  0  0
   -1.8191    0.4336    2.1656 H   0  0  0  0  0  0  0  0  0  0  0  0
   -3.7573   -1.0842    2.1532 H   0  0  0  0  0  0  0  0  0  0  0  0
   -4.2017   -2.5307    0.1914 H   0  0  0  0  0  0  0  0  0  0  0  0
   -2.6910   -2.4570   -1.7708 H   0  0  0  0  0  0  0  0  0  0  0  0
   -0.7486   -0.9517   -1.7870 H   0  0  0  0  0  0  0  0  0  0  0  0
    1.5732   -0.2736   -1.8974 H   0  0  0  0  0  0  0  0  0  0  0  0
    3.6115   -1.6263   -1.7386 H   0  0  0  0  0  0  0  0  0  0  0  0
    4.5818   -2.1795    0.4721 H   0  0  0  0  0  0  0  0  0  0  0  0
    3.4874   -1.3725    2.5429 H   0  0  0  0  0  0  0  0  0  0  0  0
    1.4379   -0.0134    2.4176 H   0  0  0  0  0  0  0  0  0  0  0  0
  1  2  1  0
  2  3  1  0
  2  4  1  0
  4  5  1  0
  5  6  2  0
  6  7  1  0
  7  8  2  0
  8  9  1  0
  9 10  2  0
  4 11  1  0
 11 12  2  0
 12 13  1  0
 13 14  2  0
 14 15  1  0
 15 16  2  0
 10  5  1  0
 16 11  1  0
  1 17  1  0
  1 18  1  0
  1 19  1  0
  2 20  1  0
  3 21  1  0
  4 22  1  0
  6 23  1  0
  7 24  1  0
  8 25  1  0
  9 26  1  0
 10 27  1  0
 12 28  1  0
 13 29  1  0
 14 30  1  0
 15 31  1  0
 16 32  1  0
M  END
