
     RDKit          3D

 19 19  0  0  0  0  0  0  0  0999 V2000
   -2.5581    0.6435    0.0380 O   0  0  0  0  0  0  0  0  0  0  0  0
   -1.1998    0.3155    0.0522 C   0  0  0  0  0  0  0  0  0  0  0  0
   -0.2386    1.3507    0.1265 C   0  0  0  0  0  0  0  0  0  0  0  0
    1.1260    1.0274    0.0342 C   0  0  0  0  0  0  0  0  0  0  0  0
    1.5500   -0.3020   -0.1163 C   0  0  0  0  0  0  0  0  0  0  0  0
    0.5893   -1.3214   -0.1552 C   0  0  0  0  0  0  0  0  0  0  0  0
   -0.7792   -1.0303   -0.0527 C   0  0  0  0  0  0  0  0  0  0  0  0
   -1.7261   -2.1101   -0.0303 N   0  0  0  0  0  4  0  0  0  0  0  0
   -2.7273   -2.1287    0.9131 O   0  0  0  0  0  1  0  0  0  0  0  0
   -1.5242   -3.1345   -0.7149 O   0  0  0  0  0  0  0  0  0  0  0  0
    2.9515   -0.6196   -0.2144 N   0  0  0  0  0  4  0  0  0  0  0  0
    3.3650   -1.9242   -0.3598 O   0  0  0  0  0  1  0  0  0  0  0  0
    3.8142    0.2822   -0.1741 O   0  0  0  0  0  0  0  0  0  0  0  0
   -0.6294    2.7325    0.2711 N   0  0  0  0  0  4  0  0  0  0  0  0
    0.2864    3.7391    0.0646 O   0  0  0  0  0  1  0  0  0  0  0  0
   -1.7801    3.0422    0.6428 O   0  0  0  0  0  0  0  0  0  0  0  0
   -3.2884   -0.0256   -0.1664 H   0  0  0  0  0  0  0  0  0  0  0  0
    1.8647    1.8167    0.0830 H   0  0  0  0  0  0  0  0  0  0  0  0
    0.9042   -2.3535   -0.2416 H   0  0  0  0  0  0  0  0  0  0  0  0
  1  2  1  0
  2  3  2  0
  3  4  1  0
  4  5  2  0
  5  6  1  0
  6  7  2  0
  7  8  1  0
  8  9  1  0
  8 10  2  0
  5 11  1  0
 11 12  1  0
 11 13  2  0
  3 14  1  0
 14 15  1  0
 14 16  2  0
  7  2  1  0
  1 17  1  0
  4 18  1  0
  6 19  1  0
M  CHG  6   8   1   9  -1  11   1  12  -1  14   1  15  -1
M  END
