
     RDKit          3D

 12 11  0  0  0  0  0  0  0  0999 V2000
   -1.5663    0.2624    0.2997 C   0  0  0  0  0  0  0  0  0  0  0  0
   -0.8042   -0.5991   -0.6084 N   0  0  0  0  0  0  0  0  0  0  0  0
    0.4953   -0.9780   -0.0345 C   0  0  0  0  0  0  0  0  0  0  0  0
    1.4428    0.1493   -0.0331 C   0  0  0  0  0  0  0  0  0  0  0  0
    2.2181    1.0723   -0.0317 C   0  0  0  0  0  0  0  0  0  0  0  0
   -2.5514    0.4946   -0.1569 H   0  0  0  0  0  0  0  0  0  0  0  0
   -1.0319    1.2196    0.4844 H   0  0  0  0  0  0  0  0  0  0  0  0
   -1.7501   -0.2573    1.2645 H   0  0  0  0  0  0  0  0  0  0  0  0
   -0.6531   -0.0864   -1.5094 H   0  0  0  0  0  0  0  0  0  0  0  0
    0.9296   -1.7968   -0.6452 H   0  0  0  0  0  0  0  0  0  0  0  0
    0.3726   -1.3634    1.0010 H   0  0  0  0  0  0  0  0  0  0  0  0
    2.8985    1.8829   -0.0304 H   0  0  0  0  0  0  0  0  0  0  0  0
  1  2  1  0
  2  3  1  0
  3  4  1  0
  4  5  3  0
  1  6  1  0
  1  7  1  0
  1  8  1  0
  2  9  1  0
  3 10  1  0
  3 11  1  0
  5 12  1  0
M  END
