
     RDKit          3D

 12 12  0  0  0  0  0  0  0  0999 V2000
    1.4980   -0.0026    0.3403 C   0  0  0  0  0  0  0  0  0  0  0  0
    0.2175    0.4403   -0.3716 C   0  0  0  0  0  0  0  0  0  0  0  0
   -0.7958   -0.5773   -0.4646 C   0  0  0  0  0  0  0  0  0  0  0  0
   -1.6461    0.2838    0.4030 C   0  0  0  0  0  0  0  0  0  0  0  0
   -2.8064    0.1985    0.8826 O   0  0  0  0  0  0  0  0  0  0  0  0
   -0.5781    1.2611    0.4675 O   0  0  0  0  0  0  0  0  0  0  0  0
    2.1683    0.8724    0.4729 H   0  0  0  0  0  0  0  0  0  0  0  0
    2.0248   -0.7652   -0.2715 H   0  0  0  0  0  0  0  0  0  0  0  0
    1.2698   -0.4300    1.3407 H   0  0  0  0  0  0  0  0  0  0  0  0
    0.4233    0.9406   -1.3449 H   0  0  0  0  0  0  0  0  0  0  0  0
   -1.2240   -0.6788   -1.4851 H   0  0  0  0  0  0  0  0  0  0  0  0
   -0.5513   -1.5427    0.0308 H   0  0  0  0  0  0  0  0  0  0  0  0
  1  2  1  0
  2  3  1  0
  3  4  1  0
  4  5  2  0
  4  6  1  0
  6  2  1  0
  1  7  1  0
  1  8  1  0
  1  9  1  0
  2 10  1  0
  3 11  1  0
  3 12  1  0
M  END
