
     RDKit          3D

 19 19  0  0  0  0  0  0  0  0999 V2000
    3.2141   -0.5323    0.0771 C   0  0  0  0  0  0  0  0  0  0  0  0
    2.2167    0.4833    0.0390 O   0  0  0  0  0  0  0  0  0  0  0  0
    0.8335    0.2420    0.0137 C   0  0  0  0  0  0  0  0  0  0  0  0
    0.3078   -1.0601    0.0242 C   0  0  0  0  0  0  0  0  0  0  0  0
   -1.0705   -1.2664   -0.0016 C   0  0  0  0  0  0  0  0  0  0  0  0
   -1.9622   -0.1837   -0.0386 C   0  0  0  0  0  0  0  0  0  0  0  0
   -3.4121   -0.4948   -0.0642 C   0  0  0  0  0  0  0  0  0  0  0  0
   -4.2939    0.4022   -0.0978 O   0  0  0  0  0  0  0  0  0  0  0  0
   -1.4388    1.1342   -0.0494 C   0  0  0  0  0  0  0  0  0  0  0  0
   -0.0470    1.3376   -0.0233 C   0  0  0  0  0  0  0  0  0  0  0  0
    0.4507    2.6426   -0.0345 O   0  0  0  0  0  0  0  0  0  0  0  0
   -2.4746    2.5635   -0.0952 Cl  0  0  0  0  0  0  0  0  0  0  0  0
    3.1000   -1.1454    0.9959 H   0  0  0  0  0  0  0  0  0  0  0  0
    4.2157   -0.0561    0.0904 H   0  0  0  0  0  0  0  0  0  0  0  0
    3.1386   -1.1758   -0.8249 H   0  0  0  0  0  0  0  0  0  0  0  0
    0.9573   -1.9243    0.0524 H   0  0  0  0  0  0  0  0  0  0  0  0
   -1.4430   -2.2840    0.0074 H   0  0  0  0  0  0  0  0  0  0  0  0
   -3.7352   -1.5283   -0.0538 H   0  0  0  0  0  0  0  0  0  0  0  0
    1.4428    2.8458   -0.0168 H   0  0  0  0  0  0  0  0  0  0  0  0
  1  2  1  0
  2  3  1  0
  3  4  2  0
  4  5  1  0
  5  6  2  0
  6  7  1  0
  7  8  2  0
  6  9  1  0
  9 10  2  0
 10 11  1  0
  9 12  1  0
 10  3  1  0
  1 13  1  0
  1 14  1  0
  1 15  1  0
  4 16  1  0
  5 17  1  0
  7 18  1  0
 11 19  1  0
M  END
