
     RDKit          3D

 14 14  0  0  0  0  0  0  0  0999 V2000
   -2.2817   -0.7413   -0.0297 N   0  0  0  0  0  0  0  0  0  0  0  0
   -0.9294   -0.2768   -0.0117 C   0  0  0  0  0  0  0  0  0  0  0  0
    0.1319   -1.1932   -0.0184 C   0  0  0  0  0  0  0  0  0  0  0  0
    1.4575   -0.7420   -0.0008 C   0  0  0  0  0  0  0  0  0  0  0  0
    1.7258    0.6376    0.0237 C   0  0  0  0  0  0  0  0  0  0  0  0
    3.3754    1.2461    0.0463 Cl  0  0  0  0  0  0  0  0  0  0  0  0
    0.6656    1.5513    0.0304 C   0  0  0  0  0  0  0  0  0  0  0  0
   -0.6561    1.0976    0.0128 C   0  0  0  0  0  0  0  0  0  0  0  0
    2.7597   -1.9238   -0.0100 Cl  0  0  0  0  0  0  0  0  0  0  0  0
   -3.0789   -0.0665   -0.0248 H   0  0  0  0  0  0  0  0  0  0  0  0
   -2.4958   -1.7634   -0.0480 H   0  0  0  0  0  0  0  0  0  0  0  0
   -0.0725   -2.2566   -0.0373 H   0  0  0  0  0  0  0  0  0  0  0  0
    0.8649    2.6153    0.0493 H   0  0  0  0  0  0  0  0  0  0  0  0
   -1.4663    1.8159    0.0183 H   0  0  0  0  0  0  0  0  0  0  0  0
  1  2  1  0
  2  3  2  0
  3  4  1  0
  4  5  2  0
  5  6  1  0
  5  7  1  0
  7  8  2  0
  4  9  1  0
  8  2  1  0
  1 10  1  0
  1 11  1  0
  3 12  1  0
  7 13  1  0
  8 14  1  0
M  END
