
     RDKit          3D

 15 15  0  0  0  0  0  0  0  0999 V2000
    3.5814   -1.3461   -0.3801 O   0  0  0  0  0  0  0  0  0  0  0  0
    2.9119   -1.2443    0.6825 C   0  0  0  0  0  0  0  0  0  0  0  0
    1.5424   -0.7071    0.6790 C   0  0  0  0  0  0  0  0  0  0  0  0
    0.9372   -0.3002   -0.4438 C   0  0  0  0  0  0  0  0  0  0  0  0
   -0.4343    0.2410   -0.4685 C   0  0  0  0  0  0  0  0  0  0  0  0
   -1.2934    0.4155    0.6044 C   0  0  0  0  0  0  0  0  0  0  0  0
   -2.4482    0.9483    0.0738 C   0  0  0  0  0  0  0  0  0  0  0  0
   -2.2281    1.0671   -1.2825 C   0  0  0  0  0  0  0  0  0  0  0  0
   -1.0218    0.6384   -1.5739 O   0  0  0  0  0  0  0  0  0  0  0  0
    3.3536   -1.5589    1.6186 H   0  0  0  0  0  0  0  0  0  0  0  0
    1.0316   -0.6508    1.6304 H   0  0  0  0  0  0  0  0  0  0  0  0
    1.4606   -0.3622   -1.3902 H   0  0  0  0  0  0  0  0  0  0  0  0
   -1.1148    0.1880    1.6463 H   0  0  0  0  0  0  0  0  0  0  0  0
   -3.3464    1.2188    0.6125 H   0  0  0  0  0  0  0  0  0  0  0  0
   -2.9316    1.4525   -2.0083 H   0  0  0  0  0  0  0  0  0  0  0  0
  1  2  2  0
  2  3  1  0
  3  4  2  0
  4  5  1  0
  5  6  2  0
  6  7  1  0
  7  8  2  0
  8  9  1  0
  9  5  1  0
  2 10  1  0
  3 11  1  0
  4 12  1  0
  6 13  1  0
  7 14  1  0
  8 15  1  0
M  END
