
     RDKit          3D

 33 33  0  0  0  0  0  0  0  0999 V2000
   -4.5400    1.4944    0.3968 C   0  0  0  0  0  0  0  0  0  0  0  0
   -3.8462    0.7688   -0.7561 C   0  0  0  0  0  0  0  0  0  0  0  0
   -2.9941   -0.4205   -0.2857 C   0  0  0  0  0  0  0  0  0  0  0  0
   -1.6983    0.0242    0.4136 C   0  0  0  0  0  0  0  0  0  0  0  0
   -0.8611   -1.1623    0.9220 C   0  0  0  0  0  0  0  0  0  0  0  0
   -0.2497   -2.0148   -0.2012 C   0  0  0  0  0  0  0  0  0  0  0  0
    0.4823   -1.2138   -1.1306 O   0  0  0  0  0  0  0  0  0  0  0  0
    1.7320   -0.6194   -0.8917 C   0  0  0  0  0  0  0  0  0  0  0  0
    2.2314    0.2718   -1.8491 C   0  0  0  0  0  0  0  0  0  0  0  0
    3.4690    0.8948   -1.6645 C   0  0  0  0  0  0  0  0  0  0  0  0
    4.2273    0.6301   -0.5166 C   0  0  0  0  0  0  0  0  0  0  0  0
    5.4934    1.2672   -0.3268 N   0  0  0  0  0  0  0  0  0  0  0  0
    3.7368   -0.2654    0.4431 C   0  0  0  0  0  0  0  0  0  0  0  0
    2.4988   -0.8891    0.2591 C   0  0  0  0  0  0  0  0  0  0  0  0
   -5.1289    0.7788    1.0091 H   0  0  0  0  0  0  0  0  0  0  0  0
   -3.7998    2.0116    1.0412 H   0  0  0  0  0  0  0  0  0  0  0  0
   -5.2323    2.2595   -0.0135 H   0  0  0  0  0  0  0  0  0  0  0  0
   -3.2194    1.4881   -1.3269 H   0  0  0  0  0  0  0  0  0  0  0  0
   -4.6303    0.3872   -1.4456 H   0  0  0  0  0  0  0  0  0  0  0  0
   -3.5918   -1.0681    0.3925 H   0  0  0  0  0  0  0  0  0  0  0  0
   -2.7350   -1.0189   -1.1843 H   0  0  0  0  0  0  0  0  0  0  0  0
   -1.0910    0.6513   -0.2745 H   0  0  0  0  0  0  0  0  0  0  0  0
   -1.9541    0.6494    1.2945 H   0  0  0  0  0  0  0  0  0  0  0  0
   -0.0444   -0.7634    1.5595 H   0  0  0  0  0  0  0  0  0  0  0  0
   -1.4895   -1.8116    1.5696 H   0  0  0  0  0  0  0  0  0  0  0  0
   -1.0593   -2.5391   -0.7488 H   0  0  0  0  0  0  0  0  0  0  0  0
    0.4001   -2.8080    0.2249 H   0  0  0  0  0  0  0  0  0  0  0  0
    1.6542    0.4855   -2.7398 H   0  0  0  0  0  0  0  0  0  0  0  0
    3.8363    1.5832   -2.4153 H   0  0  0  0  0  0  0  0  0  0  0  0
    6.0660    1.0755    0.5254 H   0  0  0  0  0  0  0  0  0  0  0  0
    5.8674    1.9354   -1.0371 H   0  0  0  0  0  0  0  0  0  0  0  0
    4.3148   -0.4817    1.3328 H   0  0  0  0  0  0  0  0  0  0  0  0
    2.1557   -1.5807    1.0147 H   0  0  0  0  0  0  0  0  0  0  0  0
  1  2  1  0
  2  3  1  0
  3  4  1  0
  4  5  1  0
  5  6  1  0
  6  7  1  0
  7  8  1  0
  8  9  2  0
  9 10  1  0
 10 11  2  0
 11 12  1  0
 11 13  1  0
 13 14  2  0
 14  8  1  0
  1 15  1  0
  1 16  1  0
  1 17  1  0
  2 18  1  0
  2 19  1  0
  3 20  1  0
  3 21  1  0
  4 22  1  0
  4 23  1  0
  5 24  1  0
  5 25  1  0
  6 26  1  0
  6 27  1  0
  9 28  1  0
 10 29  1  0
 12 30  1  0
 12 31  1  0
 13 32  1  0
 14 33  1  0
M  END
