
     RDKit          3D

  9  9  0  0  0  0  0  0  0  0999 V2000
    2.7172   -1.3288   -0.0319 Cl  0  0  0  0  0  0  0  0  0  0  0  0
    1.0592   -0.7593   -0.0212 C   0  0  0  0  0  0  0  0  0  0  0  0
    0.6396    0.5635    0.0241 C   0  0  0  0  0  0  0  0  0  0  0  0
    1.8272    2.0584    0.0850 Br  0  0  0  0  0  0  0  0  0  0  0  0
   -0.7538    0.7015    0.0208 C   0  0  0  0  0  0  0  0  0  0  0  0
   -1.4314   -0.5104   -0.0268 C   0  0  0  0  0  0  0  0  0  0  0  0
   -0.2953   -1.7510   -0.0649 S   0  0  0  0  0  0  0  0  0  0  0  0
   -1.2568    1.6588    0.0524 H   0  0  0  0  0  0  0  0  0  0  0  0
   -2.5059   -0.6327   -0.0375 H   0  0  0  0  0  0  0  0  0  0  0  0
  1  2  1  0
  2  3  2  0
  3  4  1  0
  3  5  1  0
  5  6  2  0
  6  7  1  0
  7  2  1  0
  5  8  1  0
  6  9  1  0
M  END
