
     RDKit          3D

 22 22  0  0  0  0  0  0  0  0999 V2000
    2.9740   -1.1595    0.6297 C   0  0  0  0  0  0  0  0  0  0  0  0
    2.5932    0.1968    0.1156 C   0  0  0  0  0  0  0  0  0  0  0  0
    3.5149    1.0169   -0.1472 O   0  0  0  0  0  0  0  0  0  0  0  0
    1.1726    0.5927   -0.0873 C   0  0  0  0  0  0  0  0  0  0  0  0
    0.8651    1.8670   -0.5926 C   0  0  0  0  0  0  0  0  0  0  0  0
   -0.4608    2.2514   -0.7927 C   0  0  0  0  0  0  0  0  0  0  0  0
   -1.5100    1.3769   -0.4985 C   0  0  0  0  0  0  0  0  0  0  0  0
   -2.8116    1.7994   -0.7779 O   0  0  0  0  0  0  0  0  0  0  0  0
   -1.2257    0.0987    0.0369 C   0  0  0  0  0  0  0  0  0  0  0  0
    0.1150   -0.2828    0.2264 C   0  0  0  0  0  0  0  0  0  0  0  0
   -2.2976   -0.8380    0.4413 C   0  0  0  0  0  0  0  0  0  0  0  0
   -2.1954   -2.2324    0.1469 N   0  0  0  0  0  0  0  0  0  0  0  0
   -3.2962   -0.4156    1.0832 O   0  0  0  0  0  0  0  0  0  0  0  0
    2.5632   -1.3044    1.6507 H   0  0  0  0  0  0  0  0  0  0  0  0
    4.0792   -1.2619    0.6783 H   0  0  0  0  0  0  0  0  0  0  0  0
    2.5795   -1.9449   -0.0485 H   0  0  0  0  0  0  0  0  0  0  0  0
    1.6509    2.5695   -0.8412 H   0  0  0  0  0  0  0  0  0  0  0  0
   -0.6749    3.2327   -1.1974 H   0  0  0  0  0  0  0  0  0  0  0  0
   -3.6182    1.1928   -0.7157 H   0  0  0  0  0  0  0  0  0  0  0  0
    0.3259   -1.2572    0.6469 H   0  0  0  0  0  0  0  0  0  0  0  0
   -2.9359   -2.8931    0.4714 H   0  0  0  0  0  0  0  0  0  0  0  0
   -1.4075   -2.6050   -0.4281 H   0  0  0  0  0  0  0  0  0  0  0  0
  1  2  1  0
  2  3  2  0
  2  4  1  0
  4  5  2  0
  5  6  1  0
  6  7  2  0
  7  8  1  0
  7  9  1  0
  9 10  2  0
  9 11  1  0
 11 12  1  0
 11 13  2  0
 10  4  1  0
  1 14  1  0
  1 15  1  0
  1 16  1  0
  5 17  1  0
  6 18  1  0
  8 19  1  0
 10 20  1  0
 12 21  1  0
 12 22  1  0
M  END
