
     RDKit          3D

 13 13  0  0  0  0  0  0  0  0999 V2000
   -2.5882    0.1600    0.0140 O   0  0  0  0  0  0  0  0  0  0  0  0
   -1.1959    0.1219   -0.0138 C   0  0  0  0  0  0  0  0  0  0  0  0
   -0.4848    1.2231   -0.5005 C   0  0  0  0  0  0  0  0  0  0  0  0
    0.9123    1.1980   -0.5338 C   0  0  0  0  0  0  0  0  0  0  0  0
    1.6087    0.0711   -0.0806 C   0  0  0  0  0  0  0  0  0  0  0  0
    3.3662    0.0754   -0.1377 Cl  0  0  0  0  0  0  0  0  0  0  0  0
    0.8973   -1.0383    0.4095 C   0  0  0  0  0  0  0  0  0  0  0  0
   -0.5025   -1.0084    0.4410 C   0  0  0  0  0  0  0  0  0  0  0  0
    1.7322   -2.4735    0.9884 Cl  0  0  0  0  0  0  0  0  0  0  0  0
   -3.1325   -0.6213    0.3606 H   0  0  0  0  0  0  0  0  0  0  0  0
   -1.0151    2.0986   -0.8529 H   0  0  0  0  0  0  0  0  0  0  0  0
    1.4533    2.0559   -0.9126 H   0  0  0  0  0  0  0  0  0  0  0  0
   -1.0510   -1.8624    0.8183 H   0  0  0  0  0  0  0  0  0  0  0  0
  1  2  1  0
  2  3  2  0
  3  4  1  0
  4  5  2  0
  5  6  1  0
  5  7  1  0
  7  8  2  0
  7  9  1  0
  8  2  1  0
  1 10  1  0
  3 11  1  0
  4 12  1  0
  8 13  1  0
M  END
