
     RDKit          3D

 20 20  0  0  0  0  0  0  0  0999 V2000
    3.5047    0.4523    0.1581 C   0  0  0  0  0  0  0  0  0  0  0  0
    2.0984    0.3264    0.3300 O   0  0  0  0  0  0  0  0  0  0  0  0
    1.2650   -0.2304   -0.6458 C   0  0  0  0  0  0  0  0  0  0  0  0
    1.7589   -0.6788   -1.7174 O   0  0  0  0  0  0  0  0  0  0  0  0
   -0.1916   -0.3416   -0.4031 C   0  0  0  0  0  0  0  0  0  0  0  0
   -0.8894   -1.4268   -0.9652 C   0  0  0  0  0  0  0  0  0  0  0  0
   -2.2407   -1.6299   -0.6816 C   0  0  0  0  0  0  0  0  0  0  0  0
   -2.9168   -0.7548    0.1682 C   0  0  0  0  0  0  0  0  0  0  0  0
   -4.6135   -1.0178    0.5284 Cl  0  0  0  0  0  0  0  0  0  0  0  0
   -2.2462    0.3389    0.7201 C   0  0  0  0  0  0  0  0  0  0  0  0
   -0.8897    0.5709    0.4299 C   0  0  0  0  0  0  0  0  0  0  0  0
   -0.2627    1.7618    0.9331 N   0  0  0  0  0  4  0  0  0  0  0  0
    0.5024    2.5424    0.0972 O   0  0  0  0  0  1  0  0  0  0  0  0
   -0.5763    2.2085    2.0558 O   0  0  0  0  0  0  0  0  0  0  0  0
    3.9414    0.9239    1.0622 H   0  0  0  0  0  0  0  0  0  0  0  0
    3.7239    1.0920   -0.7230 H   0  0  0  0  0  0  0  0  0  0  0  0
    3.9621   -0.5500    0.0180 H   0  0  0  0  0  0  0  0  0  0  0  0
   -0.3802   -2.1386   -1.6036 H   0  0  0  0  0  0  0  0  0  0  0  0
   -2.7585   -2.4764   -1.1147 H   0  0  0  0  0  0  0  0  0  0  0  0
   -2.7912    1.0281    1.3533 H   0  0  0  0  0  0  0  0  0  0  0  0
  1  2  1  0
  2  3  1  0
  3  4  2  0
  3  5  1  0
  5  6  2  0
  6  7  1  0
  7  8  2  0
  8  9  1  0
  8 10  1  0
 10 11  2  0
 11 12  1  0
 12 13  1  0
 12 14  2  0
 11  5  1  0
  1 15  1  0
  1 16  1  0
  1 17  1  0
  6 18  1  0
  7 19  1  0
 10 20  1  0
M  CHG  2  12   1  13  -1
M  END
