
     RDKit          3D

 17 17  0  0  0  0  0  0  0  0999 V2000
    3.1934    0.4486   -0.3660 O   0  0  0  0  0  0  0  0  0  0  0  0
    1.8602    0.0934   -0.1727 C   0  0  0  0  0  0  0  0  0  0  0  0
    0.8444    1.0518   -0.2715 C   0  0  0  0  0  0  0  0  0  0  0  0
   -0.5006    0.6979   -0.0677 C   0  0  0  0  0  0  0  0  0  0  0  0
   -0.8273   -0.6577    0.1984 C   0  0  0  0  0  0  0  0  0  0  0  0
    0.2063   -1.6036    0.3124 C   0  0  0  0  0  0  0  0  0  0  0  0
    1.5380   -1.2298    0.1284 C   0  0  0  0  0  0  0  0  0  0  0  0
   -2.1897   -1.1011    0.2947 N   0  0  0  0  0  4  0  0  0  0  0  0
   -3.0980   -0.7400   -0.6737 O   0  0  0  0  0  1  0  0  0  0  0  0
   -2.4999   -1.9950    1.1091 O   0  0  0  0  0  0  0  0  0  0  0  0
   -1.5067    1.7821   -0.0843 C   0  0  0  0  0  0  0  0  0  0  0  0
   -2.6203    1.6587    0.4903 O   0  0  0  0  0  0  0  0  0  0  0  0
    3.4619    1.4011   -0.5843 H   0  0  0  0  0  0  0  0  0  0  0  0
    1.1092    2.0813   -0.4824 H   0  0  0  0  0  0  0  0  0  0  0  0
   -0.0239   -2.6421    0.5147 H   0  0  0  0  0  0  0  0  0  0  0  0
    2.3206   -1.9737    0.2079 H   0  0  0  0  0  0  0  0  0  0  0  0
   -1.2675    2.7282   -0.5532 H   0  0  0  0  0  0  0  0  0  0  0  0
  1  2  1  0
  2  3  2  0
  3  4  1  0
  4  5  2  0
  5  6  1  0
  6  7  2  0
  5  8  1  0
  8  9  1  0
  8 10  2  0
  4 11  1  0
 11 12  2  0
  7  2  1  0
  1 13  1  0
  3 14  1  0
  6 15  1  0
  7 16  1  0
 11 17  1  0
M  CHG  2   8   1   9  -1
M  END
