
     RDKit          3D

 19 19  0  0  0  0  0  0  0  0999 V2000
    3.5747   -0.4397   -0.0945 O   0  0  0  0  0  0  0  0  0  0  0  0
    2.2102   -0.6104    0.1761 C   0  0  0  0  0  0  0  0  0  0  0  0
    1.3936    0.4869   -0.5094 C   0  0  0  0  0  0  0  0  0  0  0  0
   -0.0769    0.2952   -0.2514 C   0  0  0  0  0  0  0  0  0  0  0  0
   -0.8508   -0.4988   -1.1144 C   0  0  0  0  0  0  0  0  0  0  0  0
   -2.2101   -0.7013   -0.8556 C   0  0  0  0  0  0  0  0  0  0  0  0
   -2.8031   -0.1216    0.2694 C   0  0  0  0  0  0  0  0  0  0  0  0
   -2.0368    0.6584    1.1399 C   0  0  0  0  0  0  0  0  0  0  0  0
   -0.6772    0.8635    0.8849 C   0  0  0  0  0  0  0  0  0  0  0  0
    3.8874    0.3063    0.4813 H   0  0  0  0  0  0  0  0  0  0  0  0
    2.0302   -0.5974    1.2758 H   0  0  0  0  0  0  0  0  0  0  0  0
    1.8962   -1.6031   -0.2118 H   0  0  0  0  0  0  0  0  0  0  0  0
    1.5931    0.4675   -1.6033 H   0  0  0  0  0  0  0  0  0  0  0  0
    1.7172    1.4817   -0.1321 H   0  0  0  0  0  0  0  0  0  0  0  0
   -0.4015   -0.9609   -1.9848 H   0  0  0  0  0  0  0  0  0  0  0  0
   -2.8031   -1.3104   -1.5255 H   0  0  0  0  0  0  0  0  0  0  0  0
   -3.8550   -0.2803    0.4689 H   0  0  0  0  0  0  0  0  0  0  0  0
   -2.4956    1.1016    2.0143 H   0  0  0  0  0  0  0  0  0  0  0  0
   -0.0925    1.4626    1.5720 H   0  0  0  0  0  0  0  0  0  0  0  0
  1  2  1  0
  2  3  1  0
  3  4  1  0
  4  5  2  0
  5  6  1  0
  6  7  2  0
  7  8  1  0
  8  9  2  0
  9  4  1  0
  1 10  1  0
  2 11  1  0
  2 12  1  0
  3 13  1  0
  3 14  1  0
  5 15  1  0
  6 16  1  0
  7 17  1  0
  8 18  1  0
  9 19  1  0
M  END
