
     RDKit          3D

 15 15  0  0  0  0  0  0  0  0999 V2000
    2.8640    0.9635    0.4953 O   0  0  0  0  0  0  0  0  0  0  0  0
    1.5592    0.5296    0.2717 C   0  0  0  0  0  0  0  0  0  0  0  0
    1.3108   -0.7406   -0.2563 C   0  0  0  0  0  0  0  0  0  0  0  0
   -0.0013   -1.1647   -0.4761 C   0  0  0  0  0  0  0  0  0  0  0  0
   -1.0897   -0.3277   -0.1726 C   0  0  0  0  0  0  0  0  0  0  0  0
   -2.4517   -0.8502   -0.4344 C   0  0  0  0  0  0  0  0  0  0  0  0
   -3.4876   -0.1767   -0.1958 O   0  0  0  0  0  0  0  0  0  0  0  0
   -0.8323    0.9606    0.3631 C   0  0  0  0  0  0  0  0  0  0  0  0
    0.4895    1.3733    0.5787 C   0  0  0  0  0  0  0  0  0  0  0  0
   -2.1072    2.1014    0.7842 Cl  0  0  0  0  0  0  0  0  0  0  0  0
    3.6614    0.3752    0.2831 H   0  0  0  0  0  0  0  0  0  0  0  0
    2.1339   -1.4013   -0.4971 H   0  0  0  0  0  0  0  0  0  0  0  0
   -0.1665   -2.1539   -0.8863 H   0  0  0  0  0  0  0  0  0  0  0  0
   -2.5711   -1.8449   -0.8452 H   0  0  0  0  0  0  0  0  0  0  0  0
    0.6885    2.3563    0.9875 H   0  0  0  0  0  0  0  0  0  0  0  0
  1  2  1  0
  2  3  2  0
  3  4  1  0
  4  5  2  0
  5  6  1  0
  6  7  2  0
  5  8  1  0
  8  9  2  0
  8 10  1  0
  9  2  1  0
  1 11  1  0
  3 12  1  0
  4 13  1  0
  6 14  1  0
  9 15  1  0
M  END
