
     RDKit          3D

 27 26  0  0  0  0  0  0  0  0999 V2000
   -2.3595    1.6693   -0.7149 C   0  0  0  0  0  0  0  0  0  0  0  0
   -1.5259    0.3999   -0.5646 C   0  0  0  0  0  0  0  0  0  0  0  0
   -0.7111    0.4279    0.7410 C   0  0  0  0  0  0  0  0  0  0  0  0
    0.2433   -0.7808    0.9351 C   0  0  0  0  0  0  0  0  0  0  0  0
   -0.5131   -2.1238    0.9769 C   0  0  0  0  0  0  0  0  0  0  0  0
   -1.5182   -2.0891    1.9530 O   0  0  0  0  0  0  0  0  0  0  0  0
    1.3886   -0.8474   -0.1079 C   0  0  0  0  0  0  0  0  0  0  0  0
    2.3532    0.3580   -0.0593 C   0  0  0  0  0  0  0  0  0  0  0  0
    2.1165    1.3478   -1.2001 C   0  0  0  0  0  0  0  0  0  0  0  0
   -2.9470    1.6195   -1.6559 H   0  0  0  0  0  0  0  0  0  0  0  0
   -1.6992    2.5617   -0.7563 H   0  0  0  0  0  0  0  0  0  0  0  0
   -3.0635    1.7724    0.1383 H   0  0  0  0  0  0  0  0  0  0  0  0
   -0.8560    0.3179   -1.4445 H   0  0  0  0  0  0  0  0  0  0  0  0
   -2.2156   -0.4702   -0.5641 H   0  0  0  0  0  0  0  0  0  0  0  0
   -0.1250    1.3690    0.7960 H   0  0  0  0  0  0  0  0  0  0  0  0
   -1.4188    0.4648    1.5980 H   0  0  0  0  0  0  0  0  0  0  0  0
    0.7178   -0.6569    1.9347 H   0  0  0  0  0  0  0  0  0  0  0  0
    0.2028   -2.9394    1.2262 H   0  0  0  0  0  0  0  0  0  0  0  0
   -0.9551   -2.3514   -0.0184 H   0  0  0  0  0  0  0  0  0  0  0  0
   -1.9737   -2.9698    1.9115 H   0  0  0  0  0  0  0  0  0  0  0  0
    0.9839   -0.9998   -1.1312 H   0  0  0  0  0  0  0  0  0  0  0  0
    1.9919   -1.7563    0.1119 H   0  0  0  0  0  0  0  0  0  0  0  0
    2.2862    0.8888    0.9149 H   0  0  0  0  0  0  0  0  0  0  0  0
    3.3972   -0.0142   -0.1507 H   0  0  0  0  0  0  0  0  0  0  0  0
    2.2383    0.8411   -2.1810 H   0  0  0  0  0  0  0  0  0  0  0  0
    2.8594    2.1704   -1.1352 H   0  0  0  0  0  0  0  0  0  0  0  0
    1.1025    1.7904   -1.1430 H   0  0  0  0  0  0  0  0  0  0  0  0
  1  2  1  0
  2  3  1  0
  3  4  1  0
  4  5  1  0
  5  6  1  0
  4  7  1  0
  7  8  1  0
  8  9  1  0
  1 10  1  0
  1 11  1  0
  1 12  1  0
  2 13  1  0
  2 14  1  0
  3 15  1  0
  3 16  1  0
  4 17  1  0
  5 18  1  0
  5 19  1  0
  6 20  1  0
  7 21  1  0
  7 22  1  0
  8 23  1  0
  8 24  1  0
  9 25  1  0
  9 26  1  0
  9 27  1  0
M  END
