
     RDKit          3D

 30 29  0  0  0  0  0  0  0  0999 V2000
    0.7479    2.5756    0.4220 C   0  0  0  0  0  0  0  0  0  0  0  0
    1.2684    1.1690    0.1091 C   0  0  0  0  0  0  0  0  0  0  0  0
    0.2728    0.2128   -0.6499 C   0  0  0  0  0  0  0  0  0  0  0  0
   -0.2366    0.9008   -1.7751 O   0  0  0  0  0  0  0  0  0  0  0  0
    1.1127   -0.9884   -1.2301 C   0  0  0  0  0  0  0  0  0  0  0  0
    1.8537   -1.8849   -0.2296 C   0  0  0  0  0  0  0  0  0  0  0  0
   -0.9910   -0.2487    0.2335 C   0  0  0  0  0  0  0  0  0  0  0  0
   -0.6331   -0.5256    1.7160 C   0  0  0  0  0  0  0  0  0  0  0  0
   -1.6553   -1.5247   -0.3491 C   0  0  0  0  0  0  0  0  0  0  0  0
   -2.1095    0.8328    0.2313 C   0  0  0  0  0  0  0  0  0  0  0  0
    0.1588    2.5770    1.3604 H   0  0  0  0  0  0  0  0  0  0  0  0
    1.6103    3.2558    0.5876 H   0  0  0  0  0  0  0  0  0  0  0  0
    0.1450    2.9881   -0.4130 H   0  0  0  0  0  0  0  0  0  0  0  0
    1.6301    0.7156    1.0537 H   0  0  0  0  0  0  0  0  0  0  0  0
    2.1748    1.3063   -0.5217 H   0  0  0  0  0  0  0  0  0  0  0  0
    0.5224    1.2611   -2.3058 H   0  0  0  0  0  0  0  0  0  0  0  0
    0.4828   -1.6266   -1.8843 H   0  0  0  0  0  0  0  0  0  0  0  0
    1.8885   -0.5766   -1.9133 H   0  0  0  0  0  0  0  0  0  0  0  0
    2.4639   -1.2960    0.4826 H   0  0  0  0  0  0  0  0  0  0  0  0
    2.5476   -2.5471   -0.7895 H   0  0  0  0  0  0  0  0  0  0  0  0
    1.1606   -2.5481    0.3199 H   0  0  0  0  0  0  0  0  0  0  0  0
   -0.3660    0.4105    2.2479 H   0  0  0  0  0  0  0  0  0  0  0  0
   -1.5027   -0.9619    2.2541 H   0  0  0  0  0  0  0  0  0  0  0  0
    0.2083   -1.2323    1.8215 H   0  0  0  0  0  0  0  0  0  0  0  0
   -2.6096   -1.7541    0.1738 H   0  0  0  0  0  0  0  0  0  0  0  0
   -1.8862   -1.3879   -1.4276 H   0  0  0  0  0  0  0  0  0  0  0  0
   -1.0155   -2.4201   -0.2303 H   0  0  0  0  0  0  0  0  0  0  0  0
   -2.4964    1.0151   -0.7941 H   0  0  0  0  0  0  0  0  0  0  0  0
   -2.9737    0.5067    0.8508 H   0  0  0  0  0  0  0  0  0  0  0  0
   -1.7732    1.7960    0.6490 H   0  0  0  0  0  0  0  0  0  0  0  0
  1  2  1  0
  2  3  1  0
  3  4  1  0
  3  5  1  0
  5  6  1  0
  3  7  1  0
  7  8  1  0
  7  9  1  0
  7 10  1  0
  1 11  1  0
  1 12  1  0
  1 13  1  0
  2 14  1  0
  2 15  1  0
  4 16  1  0
  5 17  1  0
  5 18  1  0
  6 19  1  0
  6 20  1  0
  6 21  1  0
  8 22  1  0
  8 23  1  0
  8 24  1  0
  9 25  1  0
  9 26  1  0
  9 27  1  0
 10 28  1  0
 10 29  1  0
 10 30  1  0
M  END
