
     RDKit          3D

 14 14  0  0  0  0  0  0  0  0999 V2000
   -0.8758   -1.1106   -0.6188 C   0  0  0  0  0  0  0  0  0  0  0  0
    0.1353   -0.1514   -0.3035 C   0  0  0  0  0  0  0  0  0  0  0  0
    0.0995    0.8434    1.0922 C   0  0  0  0  0  0  0  0  0  0  0  0
   -1.0817    0.3261    1.6172 C   0  0  0  0  0  0  0  0  0  0  0  0
   -1.5413    0.8697    2.7350 O   0  0  0  0  0  0  0  0  0  0  0  0
    1.1675    1.3111    0.6175 N   0  0  0  0  0  0  0  0  0  0  0  0
    1.8944    1.0746   -0.4413 C   0  0  0  0  0  0  0  0  0  0  0  0
    1.1849    0.1463   -0.9611 N   0  0  0  0  0  0  0  0  0  0  0  0
   -0.4450   -2.1493   -0.6281 H   0  0  0  0  0  0  0  0  0  0  0  0
   -1.8450   -1.1057   -0.1828 H   0  0  0  0  0  0  0  0  0  0  0  0
   -1.2196   -0.8754   -1.7513 H   0  0  0  0  0  0  0  0  0  0  0  0
   -1.8303   -0.4779    1.4001 H   0  0  0  0  0  0  0  0  0  0  0  0
    2.8406    1.6083   -0.6671 H   0  0  0  0  0  0  0  0  0  0  0  0
    1.5162   -0.3092   -1.9081 H   0  0  0  0  0  0  0  0  0  0  0  0
  1  2  1  0
  2  3  2  0
  3  4  1  0
  4  5  2  0
  3  6  1  0
  6  7  2  0
  7  8  1  0
  8  2  1  0
  1  9  1  0
  1 10  1  0
  1 11  1  0
  4 12  1  0
  7 13  1  0
  8 14  1  0
M  END
