
     RDKit          3D

 23 22  0  0  0  0  0  0  0  0999 V2000
   -2.8123    0.2246    1.5325 C   0  0  0  0  0  0  0  0  0  0  0  0
   -1.9342    0.2930    0.2858 C   0  0  0  0  0  0  0  0  0  0  0  0
   -0.4979   -0.1611    0.5927 C   0  0  0  0  0  0  0  0  0  0  0  0
    0.3829   -0.2776   -0.6797 C   0  0  0  0  0  0  0  0  0  0  0  0
    0.5884    1.0928   -1.3532 C   0  0  0  0  0  0  0  0  0  0  0  0
    1.7536   -0.9533   -0.3964 C   0  0  0  0  0  0  0  0  0  0  0  0
    1.5916   -2.3081   -0.0506 O   0  0  0  0  0  0  0  0  0  0  0  0
    2.5456   -0.2336    0.6240 C   0  0  0  0  0  0  0  0  0  0  0  0
    3.1906    0.3540    1.4559 C   0  0  0  0  0  0  0  0  0  0  0  0
   -2.3978    0.8750    2.3321 H   0  0  0  0  0  0  0  0  0  0  0  0
   -2.8751   -0.8202    1.9048 H   0  0  0  0  0  0  0  0  0  0  0  0
   -3.8369    0.5742    1.2854 H   0  0  0  0  0  0  0  0  0  0  0  0
   -1.9337    1.3417   -0.0788 H   0  0  0  0  0  0  0  0  0  0  0  0
   -2.3768   -0.3571   -0.4999 H   0  0  0  0  0  0  0  0  0  0  0  0
   -0.5568   -1.1530    1.0877 H   0  0  0  0  0  0  0  0  0  0  0  0
   -0.0357    0.5505    1.3117 H   0  0  0  0  0  0  0  0  0  0  0  0
   -0.1505   -0.9262   -1.4104 H   0  0  0  0  0  0  0  0  0  0  0  0
   -0.3695    1.4788   -1.7581 H   0  0  0  0  0  0  0  0  0  0  0  0
    1.2898    1.0040   -2.2100 H   0  0  0  0  0  0  0  0  0  0  0  0
    0.9995    1.8301   -0.6310 H   0  0  0  0  0  0  0  0  0  0  0  0
    2.3485   -0.9349   -1.3347 H   0  0  0  0  0  0  0  0  0  0  0  0
    1.3303   -2.3635    0.9055 H   0  0  0  0  0  0  0  0  0  0  0  0
    3.7562    0.8701    2.1863 H   0  0  0  0  0  0  0  0  0  0  0  0
  1  2  1  0
  2  3  1  0
  3  4  1  0
  4  5  1  0
  4  6  1  0
  6  7  1  0
  6  8  1  0
  8  9  3  0
  1 10  1  0
  1 11  1  0
  1 12  1  0
  2 13  1  0
  2 14  1  0
  3 15  1  0
  3 16  1  0
  4 17  1  0
  5 18  1  0
  5 19  1  0
  5 20  1  0
  6 21  1  0
  7 22  1  0
  9 23  1  0
M  END
