
     RDKit          3D

 22 21  0  0  0  0  0  0  0  0999 V2000
   -3.5505    0.7664    0.6150 C   0  0  0  0  0  0  0  0  0  0  0  0
   -2.5410    0.7195   -0.5206 C   0  0  0  0  0  0  0  0  0  0  0  0
   -1.4560   -0.1284   -0.1595 O   0  0  0  0  0  0  0  0  0  0  0  0
   -0.3682   -0.3610   -1.0056 C   0  0  0  0  0  0  0  0  0  0  0  0
   -0.3094    0.1819   -2.1428 O   0  0  0  0  0  0  0  0  0  0  0  0
    0.7510   -1.2419   -0.5409 C   0  0  0  0  0  0  0  0  0  0  0  0
    1.6200   -0.5467    0.5256 C   0  0  0  0  0  0  0  0  0  0  0  0
    2.4931   -1.4802    1.1136 O   0  0  0  0  0  0  0  0  0  0  0  0
    2.4094    0.6412   -0.0599 C   0  0  0  0  0  0  0  0  0  0  0  0
    3.2015    1.3079    0.9812 C   0  0  0  0  0  0  0  0  0  0  0  0
    3.8258    1.8335    1.8016 N   0  0  0  0  0  0  0  0  0  0  0  0
   -3.0693    1.1634    1.5339 H   0  0  0  0  0  0  0  0  0  0  0  0
   -3.9400   -0.2536    0.8186 H   0  0  0  0  0  0  0  0  0  0  0  0
   -4.3979    1.4276    0.3366 H   0  0  0  0  0  0  0  0  0  0  0  0
   -2.1646    1.7465   -0.7196 H   0  0  0  0  0  0  0  0  0  0  0  0
   -3.0353    0.3277   -1.4360 H   0  0  0  0  0  0  0  0  0  0  0  0
    0.3084   -2.1634   -0.1050 H   0  0  0  0  0  0  0  0  0  0  0  0
    1.3790   -1.5488   -1.4062 H   0  0  0  0  0  0  0  0  0  0  0  0
    0.9487   -0.1649    1.3274 H   0  0  0  0  0  0  0  0  0  0  0  0
    3.0908   -1.8240    0.3986 H   0  0  0  0  0  0  0  0  0  0  0  0
    1.7117    1.3886   -0.4929 H   0  0  0  0  0  0  0  0  0  0  0  0
    3.0928    0.2919   -0.8631 H   0  0  0  0  0  0  0  0  0  0  0  0
  1  2  1  0
  2  3  1  0
  3  4  1  0
  4  5  2  0
  4  6  1  0
  6  7  1  0
  7  8  1  0
  7  9  1  0
  9 10  1  0
 10 11  3  0
  1 12  1  0
  1 13  1  0
  1 14  1  0
  2 15  1  0
  2 16  1  0
  6 17  1  0
  6 18  1  0
  7 19  1  0
  8 20  1  0
  9 21  1  0
  9 22  1  0
M  END
