
     RDKit          3D

 15 15  0  0  0  0  0  0  0  0999 V2000
    2.9427   -0.0461   -0.7969 O   0  0  0  0  0  0  0  0  0  0  0  0
    2.0654    0.4663    0.1539 C   0  0  0  0  0  0  0  0  0  0  0  0
    2.5194    1.2186    1.0585 O   0  0  0  0  0  0  0  0  0  0  0  0
    0.6112    0.1672    0.0977 C   0  0  0  0  0  0  0  0  0  0  0  0
   -0.2830    1.0209    0.7742 C   0  0  0  0  0  0  0  0  0  0  0  0
   -1.6596    0.7903    0.7373 C   0  0  0  0  0  0  0  0  0  0  0  0
   -2.1686   -0.2980    0.0289 C   0  0  0  0  0  0  0  0  0  0  0  0
   -3.8985   -0.5859   -0.0148 Cl  0  0  0  0  0  0  0  0  0  0  0  0
   -1.2987   -1.1616   -0.6396 C   0  0  0  0  0  0  0  0  0  0  0  0
    0.0851   -0.9430   -0.6112 C   0  0  0  0  0  0  0  0  0  0  0  0
    1.1005   -2.1245   -1.4335 Cl  0  0  0  0  0  0  0  0  0  0  0  0
    3.9324    0.1672   -0.7614 H   0  0  0  0  0  0  0  0  0  0  0  0
    0.0815    1.8793    1.3250 H   0  0  0  0  0  0  0  0  0  0  0  0
   -2.3302    1.4612    1.2592 H   0  0  0  0  0  0  0  0  0  0  0  0
   -1.6995   -2.0118   -1.1776 H   0  0  0  0  0  0  0  0  0  0  0  0
  1  2  1  0
  2  3  2  0
  2  4  1  0
  4  5  2  0
  5  6  1  0
  6  7  2  0
  7  8  1  0
  7  9  1  0
  9 10  2  0
 10 11  1  0
 10  4  1  0
  1 12  1  0
  5 13  1  0
  6 14  1  0
  9 15  1  0
M  END
