
     RDKit          3D

 14 13  0  0  0  0  0  0  0  0999 V2000
   -1.4900   -0.1389   -0.6737 C   0  0  0  0  0  0  0  0  0  0  0  0
   -0.8091    0.5415    0.5139 C   0  0  0  0  0  0  0  0  0  0  0  0
    0.5722   -0.0593    0.8148 C   0  0  0  0  0  0  0  0  0  0  0  0
    1.2591    0.6770    2.4759 Br  0  0  0  0  0  0  0  0  0  0  0  0
    1.5497    0.2119   -0.2961 C   0  0  0  0  0  0  0  0  0  0  0  0
    1.9954   -0.8207   -1.1166 O   0  0  0  0  0  0  0  0  0  0  0  0
    1.9528    1.3860   -0.5105 O   0  0  0  0  0  0  0  0  0  0  0  0
   -1.5919   -1.2293   -0.4880 H   0  0  0  0  0  0  0  0  0  0  0  0
   -0.9057    0.0222   -1.6041 H   0  0  0  0  0  0  0  0  0  0  0  0
   -2.5031    0.2924   -0.8167 H   0  0  0  0  0  0  0  0  0  0  0  0
   -1.4598    0.4147    1.4062 H   0  0  0  0  0  0  0  0  0  0  0  0
   -0.7171    1.6312    0.3125 H   0  0  0  0  0  0  0  0  0  0  0  0
    0.4704   -1.1554    0.9681 H   0  0  0  0  0  0  0  0  0  0  0  0
    1.6769   -1.7733   -0.9856 H   0  0  0  0  0  0  0  0  0  0  0  0
  1  2  1  0
  2  3  1  0
  3  4  1  0
  3  5  1  0
  5  6  1  0
  5  7  2  0
  1  8  1  0
  1  9  1  0
  1 10  1  0
  2 11  1  0
  2 12  1  0
  3 13  1  0
  6 14  1  0
M  END
