
     RDKit          3D

 21 22  0  0  0  0  0  0  0  0999 V2000
   -2.8238    1.7373   -1.2230 Cl  0  0  0  0  0  0  0  0  0  0  0  0
   -2.5026    0.9091    0.3217 C   0  0  0  0  0  0  0  0  0  0  0  0
   -1.3866   -0.0943    0.1511 C   0  0  0  0  0  0  0  0  0  0  0  0
   -0.0196    0.2886    0.0621 C   0  0  0  0  0  0  0  0  0  0  0  0
    0.3905    1.6385    0.1276 C   0  0  0  0  0  0  0  0  0  0  0  0
    1.7435    1.9760    0.0416 C   0  0  0  0  0  0  0  0  0  0  0  0
    2.7091    0.9822   -0.1125 C   0  0  0  0  0  0  0  0  0  0  0  0
    2.3291   -0.3579   -0.1861 C   0  0  0  0  0  0  0  0  0  0  0  0
    0.9741   -0.7155   -0.1031 C   0  0  0  0  0  0  0  0  0  0  0  0
    0.6020   -2.0637   -0.1886 C   0  0  0  0  0  0  0  0  0  0  0  0
   -0.7405   -2.4274   -0.1184 C   0  0  0  0  0  0  0  0  0  0  0  0
   -1.7256   -1.4547    0.0455 C   0  0  0  0  0  0  0  0  0  0  0  0
   -3.4410    0.4116    0.6477 H   0  0  0  0  0  0  0  0  0  0  0  0
   -2.2506    1.6507    1.1075 H   0  0  0  0  0  0  0  0  0  0  0  0
   -0.3207    2.4445    0.2379 H   0  0  0  0  0  0  0  0  0  0  0  0
    2.0443    3.0146    0.0932 H   0  0  0  0  0  0  0  0  0  0  0  0
    3.7554    1.2516   -0.1784 H   0  0  0  0  0  0  0  0  0  0  0  0
    3.0942   -1.1152   -0.3103 H   0  0  0  0  0  0  0  0  0  0  0  0
    1.3505   -2.8371   -0.3157 H   0  0  0  0  0  0  0  0  0  0  0  0
   -1.0203   -3.4705   -0.1923 H   0  0  0  0  0  0  0  0  0  0  0  0
   -2.7614   -1.7682    0.0927 H   0  0  0  0  0  0  0  0  0  0  0  0
  1  2  1  0
  2  3  1  0
  3  4  2  0
  4  5  1  0
  5  6  2  0
  6  7  1  0
  7  8  2  0
  8  9  1  0
  9 10  2  0
 10 11  1  0
 11 12  2  0
 12  3  1  0
  9  4  1  0
  2 13  1  0
  2 14  1  0
  5 15  1  0
  6 16  1  0
  7 17  1  0
  8 18  1  0
 10 19  1  0
 11 20  1  0
 12 21  1  0
M  END
