
     RDKit          3D

 18 19  0  0  0  0  0  0  0  0999 V2000
   -0.8652    3.4417    0.1122 Br  0  0  0  0  0  0  0  0  0  0  0  0
   -1.0225    1.5288    0.0355 C   0  0  0  0  0  0  0  0  0  0  0  0
    0.1001    0.6690    0.0278 C   0  0  0  0  0  0  0  0  0  0  0  0
    1.4173    1.1663    0.0764 C   0  0  0  0  0  0  0  0  0  0  0  0
    2.5055    0.2895    0.0672 C   0  0  0  0  0  0  0  0  0  0  0  0
    2.2989   -1.0893    0.0099 C   0  0  0  0  0  0  0  0  0  0  0  0
    1.0019   -1.6029   -0.0388 C   0  0  0  0  0  0  0  0  0  0  0  0
   -0.1022   -0.7361   -0.0304 C   0  0  0  0  0  0  0  0  0  0  0  0
   -1.4048   -1.2536   -0.0794 C   0  0  0  0  0  0  0  0  0  0  0  0
   -2.5026   -0.3930   -0.0711 C   0  0  0  0  0  0  0  0  0  0  0  0
   -2.3127    0.9882   -0.0141 C   0  0  0  0  0  0  0  0  0  0  0  0
    1.6188    2.2276    0.1215 H   0  0  0  0  0  0  0  0  0  0  0  0
    3.5139    0.6814    0.1048 H   0  0  0  0  0  0  0  0  0  0  0  0
    3.1467   -1.7622    0.0032 H   0  0  0  0  0  0  0  0  0  0  0  0
    0.8614   -2.6765   -0.0830 H   0  0  0  0  0  0  0  0  0  0  0  0
   -1.5736   -2.3230   -0.1241 H   0  0  0  0  0  0  0  0  0  0  0  0
   -3.5056   -0.7982   -0.1091 H   0  0  0  0  0  0  0  0  0  0  0  0
   -3.1752    1.6425   -0.0084 H   0  0  0  0  0  0  0  0  0  0  0  0
  1  2  1  0
  2  3  2  0
  3  4  1  0
  4  5  2  0
  5  6  1  0
  6  7  2  0
  7  8  1  0
  8  9  2  0
  9 10  1  0
 10 11  2  0
 11  2  1  0
  8  3  1  0
  4 12  1  0
  5 13  1  0
  6 14  1  0
  7 15  1  0
  9 16  1  0
 10 17  1  0
 11 18  1  0
M  END
