
     RDKit          3D

 16 17  0  0  0  0  0  0  0  0999 V2000
    2.2446   -0.7160   -0.0453 C   0  0  0  0  0  0  0  0  0  0  0  0
    2.2549    0.6841   -0.0350 C   0  0  0  0  0  0  0  0  0  0  0  0
    1.0517    1.3969    0.0155 C   0  0  0  0  0  0  0  0  0  0  0  0
   -0.1648    0.7067    0.0559 C   0  0  0  0  0  0  0  0  0  0  0  0
   -1.3443    1.3807    0.1052 N   0  0  0  0  0  0  0  0  0  0  0  0
   -2.5302    0.7169    0.1446 C   0  0  0  0  0  0  0  0  0  0  0  0
   -2.5404   -0.6810    0.1344 C   0  0  0  0  0  0  0  0  0  0  0  0
   -1.3645   -1.3615    0.0851 N   0  0  0  0  0  0  0  0  0  0  0  0
   -0.1751   -0.7043    0.0455 C   0  0  0  0  0  0  0  0  0  0  0  0
    1.0310   -1.4117   -0.0051 C   0  0  0  0  0  0  0  0  0  0  0  0
    3.1783   -1.2619   -0.0844 H   0  0  0  0  0  0  0  0  0  0  0  0
    3.1965    1.2168   -0.0662 H   0  0  0  0  0  0  0  0  0  0  0  0
    1.0675    2.4797    0.0232 H   0  0  0  0  0  0  0  0  0  0  0  0
   -3.4589    1.2702    0.1836 H   0  0  0  0  0  0  0  0  0  0  0  0
   -3.4772   -1.2211    0.1654 H   0  0  0  0  0  0  0  0  0  0  0  0
    1.0309   -2.4946   -0.0133 H   0  0  0  0  0  0  0  0  0  0  0  0
  1  2  2  0
  2  3  1  0
  3  4  2  0
  4  5  1  0
  5  6  2  0
  6  7  1  0
  7  8  2  0
  8  9  1  0
  9 10  2  0
 10  1  1  0
  9  4  1  0
  1 11  1  0
  2 12  1  0
  3 13  1  0
  6 14  1  0
  7 15  1  0
 10 16  1  0
M  END
