
     RDKit          3D

 18 18  0  0  0  0  0  0  0  0999 V2000
    2.8083   -0.5220    0.0278 C   0  0  0  0  0  0  0  0  0  0  0  0
    1.7208    0.3963   -0.0202 O   0  0  0  0  0  0  0  0  0  0  0  0
    0.3634    0.0342    0.0013 C   0  0  0  0  0  0  0  0  0  0  0  0
   -0.6321    1.0441   -0.0531 C   0  0  0  0  0  0  0  0  0  0  0  0
   -1.9888    0.6664   -0.0418 C   0  0  0  0  0  0  0  0  0  0  0  0
   -2.3570   -0.6776    0.0266 C   0  0  0  0  0  0  0  0  0  0  0  0
   -1.3795   -1.6676    0.0839 C   0  0  0  0  0  0  0  0  0  0  0  0
   -0.0290   -1.3189    0.0714 C   0  0  0  0  0  0  0  0  0  0  0  0
   -0.2903    2.4457   -0.1220 N   0  0  0  0  0  4  0  0  0  0  0  0
   -1.2763    3.3940   -0.2732 O   0  0  0  0  0  1  0  0  0  0  0  0
    0.8930    2.8310   -0.0266 O   0  0  0  0  0  0  0  0  0  0  0  0
    2.7737   -1.1063    0.9715 H   0  0  0  0  0  0  0  0  0  0  0  0
    2.7717   -1.2038   -0.8479 H   0  0  0  0  0  0  0  0  0  0  0  0
    3.7616    0.0442   -0.0036 H   0  0  0  0  0  0  0  0  0  0  0  0
   -2.7708    1.4135   -0.0821 H   0  0  0  0  0  0  0  0  0  0  0  0
   -3.4041   -0.9516    0.0361 H   0  0  0  0  0  0  0  0  0  0  0  0
   -1.6687   -2.7093    0.1373 H   0  0  0  0  0  0  0  0  0  0  0  0
    0.7041   -2.1124    0.1150 H   0  0  0  0  0  0  0  0  0  0  0  0
  1  2  1  0
  2  3  1  0
  3  4  2  0
  4  5  1  0
  5  6  2  0
  6  7  1  0
  7  8  2  0
  4  9  1  0
  9 10  1  0
  9 11  2  0
  8  3  1  0
  1 12  1  0
  1 13  1  0
  1 14  1  0
  5 15  1  0
  6 16  1  0
  7 17  1  0
  8 18  1  0
M  CHG  2   9   1  10  -1
M  END
