
     RDKit          3D

 20 20  0  0  0  0  0  0  0  0999 V2000
    2.9262   -0.7714    0.1982 C   0  0  0  0  0  0  0  0  0  0  0  0
    1.5436   -0.1895    0.1685 C   0  0  0  0  0  0  0  0  0  0  0  0
    0.4754   -0.9341   -0.3515 C   0  0  0  0  0  0  0  0  0  0  0  0
   -0.8312   -0.4138   -0.3516 C   0  0  0  0  0  0  0  0  0  0  0  0
   -1.0664    0.8710    0.1932 C   0  0  0  0  0  0  0  0  0  0  0  0
   -2.3796    1.4477    0.2179 N   0  0  0  0  0  0  0  0  0  0  0  0
    0.0062    1.6000    0.7281 C   0  0  0  0  0  0  0  0  0  0  0  0
    1.2984    1.0729    0.7222 C   0  0  0  0  0  0  0  0  0  0  0  0
   -1.9524   -1.2366   -0.9270 C   0  0  0  0  0  0  0  0  0  0  0  0
    3.0619   -1.3528    1.1339 H   0  0  0  0  0  0  0  0  0  0  0  0
    3.6920    0.0324    0.1569 H   0  0  0  0  0  0  0  0  0  0  0  0
    3.0871   -1.4426   -0.6723 H   0  0  0  0  0  0  0  0  0  0  0  0
    0.6647   -1.9209   -0.7575 H   0  0  0  0  0  0  0  0  0  0  0  0
   -2.5334    2.3967    0.6263 H   0  0  0  0  0  0  0  0  0  0  0  0
   -3.2133    0.9508   -0.1645 H   0  0  0  0  0  0  0  0  0  0  0  0
   -0.1612    2.5811    1.1549 H   0  0  0  0  0  0  0  0  0  0  0  0
    2.1086    1.6512    1.1494 H   0  0  0  0  0  0  0  0  0  0  0  0
   -2.4218   -0.6924   -1.7733 H   0  0  0  0  0  0  0  0  0  0  0  0
   -1.5909   -2.2155   -1.3081 H   0  0  0  0  0  0  0  0  0  0  0  0
   -2.7139   -1.4343   -0.1436 H   0  0  0  0  0  0  0  0  0  0  0  0
  1  2  1  0
  2  3  2  0
  3  4  1  0
  4  5  2  0
  5  6  1  0
  5  7  1  0
  7  8  2  0
  4  9  1  0
  8  2  1  0
  1 10  1  0
  1 11  1  0
  1 12  1  0
  3 13  1  0
  6 14  1  0
  6 15  1  0
  7 16  1  0
  8 17  1  0
  9 18  1  0
  9 19  1  0
  9 20  1  0
M  END
