
     RDKit          3D

 13 13  0  0  0  0  0  0  0  0999 V2000
   -2.5533    0.0440   -0.2829 O   0  0  0  0  0  0  0  0  0  0  0  0
   -1.1678    0.0537   -0.1301 C   0  0  0  0  0  0  0  0  0  0  0  0
   -0.4770    1.2727   -0.0804 C   0  0  0  0  0  0  0  0  0  0  0  0
   -1.3430    2.7957   -0.2091 Cl  0  0  0  0  0  0  0  0  0  0  0  0
    0.9137    1.2824    0.0730 C   0  0  0  0  0  0  0  0  0  0  0  0
    1.6223    0.0799    0.1774 C   0  0  0  0  0  0  0  0  0  0  0  0
    3.3695    0.1346    0.3691 Cl  0  0  0  0  0  0  0  0  0  0  0  0
    0.9325   -1.1434    0.1279 C   0  0  0  0  0  0  0  0  0  0  0  0
   -0.4589   -1.1513   -0.0256 C   0  0  0  0  0  0  0  0  0  0  0  0
    1.7843   -2.6765    0.2553 Cl  0  0  0  0  0  0  0  0  0  0  0  0
   -3.0766   -0.8229   -0.3218 H   0  0  0  0  0  0  0  0  0  0  0  0
    1.4443    2.2256    0.1110 H   0  0  0  0  0  0  0  0  0  0  0  0
   -0.9900   -2.0943   -0.0637 H   0  0  0  0  0  0  0  0  0  0  0  0
  1  2  1  0
  2  3  2  0
  3  4  1  0
  3  5  1  0
  5  6  2  0
  6  7  1  0
  6  8  1  0
  8  9  2  0
  8 10  1  0
  9  2  1  0
  1 11  1  0
  5 12  1  0
  9 13  1  0
M  END
