
     RDKit          3D

 17 17  0  0  0  0  0  0  0  0999 V2000
   -2.7342   -0.0824    0.0520 C   0  0  0  0  0  0  0  0  0  0  0  0
   -1.2351   -0.0298    0.0541 C   0  0  0  0  0  0  0  0  0  0  0  0
   -0.4894   -1.1440    0.4641 C   0  0  0  0  0  0  0  0  0  0  0  0
    0.9079   -1.1094    0.4316 C   0  0  0  0  0  0  0  0  0  0  0  0
    1.5835    0.0375   -0.0247 C   0  0  0  0  0  0  0  0  0  0  0  0
    0.8301    1.1451   -0.4519 C   0  0  0  0  0  0  0  0  0  0  0  0
   -0.5672    1.1087   -0.4187 C   0  0  0  0  0  0  0  0  0  0  0  0
    3.0218    0.0778   -0.0602 N   0  0  0  0  0  4  0  0  0  0  0  0
    3.6791    1.2006   -0.5089 O   0  0  0  0  0  1  0  0  0  0  0  0
    3.6961   -0.9034    0.3163 O   0  0  0  0  0  0  0  0  0  0  0  0
   -3.0884   -0.4767   -0.9232 H   0  0  0  0  0  0  0  0  0  0  0  0
   -3.1621    0.9305    0.2104 H   0  0  0  0  0  0  0  0  0  0  0  0
   -3.1043   -0.7420    0.8657 H   0  0  0  0  0  0  0  0  0  0  0  0
   -0.9893   -2.0404    0.8102 H   0  0  0  0  0  0  0  0  0  0  0  0
    1.4594   -1.9809    0.7599 H   0  0  0  0  0  0  0  0  0  0  0  0
    1.3201    2.0389   -0.8154 H   0  0  0  0  0  0  0  0  0  0  0  0
   -1.1279    1.9698   -0.7613 H   0  0  0  0  0  0  0  0  0  0  0  0
  1  2  1  0
  2  3  2  0
  3  4  1  0
  4  5  2  0
  5  6  1  0
  6  7  2  0
  5  8  1  0
  8  9  1  0
  8 10  2  0
  7  2  1  0
  1 11  1  0
  1 12  1  0
  1 13  1  0
  3 14  1  0
  4 15  1  0
  6 16  1  0
  7 17  1  0
M  CHG  2   8   1   9  -1
M  END
