
     RDKit          3D

  9  8  0  0  0  0  0  0  0  0999 V2000
    1.0511   -0.4212   -0.1480 C   0  0  0  0  0  0  0  0  0  0  0  0
   -0.0802    0.5542   -0.1328 C   0  0  0  0  0  0  0  0  0  0  0  0
   -1.3722    0.1485    0.3165 N   0  0  0  0  0  0  0  0  0  0  0  0
    0.0981    1.7308   -0.5461 O   0  0  0  0  0  0  0  0  0  0  0  0
    2.0166    0.1048   -0.3066 H   0  0  0  0  0  0  0  0  0  0  0  0
    0.8973   -1.1528   -0.9682 H   0  0  0  0  0  0  0  0  0  0  0  0
    1.0938   -0.9615    0.8208 H   0  0  0  0  0  0  0  0  0  0  0  0
   -2.1669    0.8258    0.3183 H   0  0  0  0  0  0  0  0  0  0  0  0
   -1.5376   -0.8285    0.6461 H   0  0  0  0  0  0  0  0  0  0  0  0
  1  2  1  0
  2  3  1  0
  2  4  2  0
  1  5  1  0
  1  6  1  0
  1  7  1  0
  3  8  1  0
  3  9  1  0
M  END
