
     RDKit          3D

 21 20  0  0  0  0  0  0  0  0999 V2000
    3.2034    0.3207   -0.4590 C   0  0  0  0  0  0  0  0  0  0  0  0
    2.2585   -0.7957   -0.0152 C   0  0  0  0  0  0  0  0  0  0  0  0
    0.8082   -0.5604   -0.4640 C   0  0  0  0  0  0  0  0  0  0  0  0
    0.1350    0.5897    0.2971 C   0  0  0  0  0  0  0  0  0  0  0  0
   -1.3124    0.7023   -0.0911 C   0  0  0  0  0  0  0  0  0  0  0  0
   -1.6373    1.4863   -1.0235 O   0  0  0  0  0  0  0  0  0  0  0  0
   -2.3475   -0.1193    0.5679 C   0  0  0  0  0  0  0  0  0  0  0  0
   -3.7834   -0.0073    0.1607 C   0  0  0  0  0  0  0  0  0  0  0  0
   -2.0258   -0.9294    1.4787 O   0  0  0  0  0  0  0  0  0  0  0  0
    4.2484    0.0395   -0.2105 H   0  0  0  0  0  0  0  0  0  0  0  0
    3.1316    0.4779   -1.5562 H   0  0  0  0  0  0  0  0  0  0  0  0
    2.9672    1.2685    0.0673 H   0  0  0  0  0  0  0  0  0  0  0  0
    2.3043   -0.9057    1.0901 H   0  0  0  0  0  0  0  0  0  0  0  0
    2.6135   -1.7496   -0.4622 H   0  0  0  0  0  0  0  0  0  0  0  0
    0.7799   -0.3584   -1.5575 H   0  0  0  0  0  0  0  0  0  0  0  0
    0.2372   -1.4971   -0.2803 H   0  0  0  0  0  0  0  0  0  0  0  0
    0.6438    1.5488    0.0625 H   0  0  0  0  0  0  0  0  0  0  0  0
    0.2178    0.4234    1.3931 H   0  0  0  0  0  0  0  0  0  0  0  0
   -4.1313    1.0382    0.2968 H   0  0  0  0  0  0  0  0  0  0  0  0
   -4.4182   -0.6775    0.7786 H   0  0  0  0  0  0  0  0  0  0  0  0
   -3.8930   -0.2949   -0.9059 H   0  0  0  0  0  0  0  0  0  0  0  0
  1  2  1  0
  2  3  1  0
  3  4  1  0
  4  5  1  0
  5  6  2  0
  5  7  1  0
  7  8  1  0
  7  9  2  0
  1 10  1  0
  1 11  1  0
  1 12  1  0
  2 13  1  0
  2 14  1  0
  3 15  1  0
  3 16  1  0
  4 17  1  0
  4 18  1  0
  8 19  1  0
  8 20  1  0
  8 21  1  0
M  END
