
     RDKit          3D

 25 26  0  0  0  0  0  0  0  0999 V2000
    4.4160   -0.4427    1.6276 O   0  0  0  0  0  0  0  0  0  0  0  0
    3.3528   -0.0416    0.8219 C   0  0  0  0  0  0  0  0  0  0  0  0
    3.4546    1.1061    0.0245 C   0  0  0  0  0  0  0  0  0  0  0  0
    2.3846    1.4918   -0.7866 C   0  0  0  0  0  0  0  0  0  0  0  0
    1.2066    0.7395   -0.7989 C   0  0  0  0  0  0  0  0  0  0  0  0
    1.0847   -0.4010    0.0157 C   0  0  0  0  0  0  0  0  0  0  0  0
    2.1732   -0.7946    0.8095 C   0  0  0  0  0  0  0  0  0  0  0  0
   -0.1058   -1.2075   -0.0011 N   0  0  0  0  0  0  0  0  0  0  0  0
   -1.4311   -0.6959   -0.2245 C   0  0  0  0  0  0  0  0  0  0  0  0
   -1.8007    0.5919    0.2066 C   0  0  0  0  0  0  0  0  0  0  0  0
   -3.1040    1.0562    0.0034 C   0  0  0  0  0  0  0  0  0  0  0  0
   -4.0512    0.2368   -0.6160 C   0  0  0  0  0  0  0  0  0  0  0  0
   -3.6988   -1.0516   -1.0260 C   0  0  0  0  0  0  0  0  0  0  0  0
   -2.3965   -1.5195   -0.8243 C   0  0  0  0  0  0  0  0  0  0  0  0
    5.2834    0.0803    1.6588 H   0  0  0  0  0  0  0  0  0  0  0  0
    4.3637    1.6939    0.0269 H   0  0  0  0  0  0  0  0  0  0  0  0
    2.4708    2.3707   -1.4125 H   0  0  0  0  0  0  0  0  0  0  0  0
    0.3996    1.0381   -1.4553 H   0  0  0  0  0  0  0  0  0  0  0  0
    2.1002   -1.6822    1.4258 H   0  0  0  0  0  0  0  0  0  0  0  0
   -0.0008   -2.2352    0.1603 H   0  0  0  0  0  0  0  0  0  0  0  0
   -1.0889    1.2300    0.7138 H   0  0  0  0  0  0  0  0  0  0  0  0
   -3.3817    2.0489    0.3335 H   0  0  0  0  0  0  0  0  0  0  0  0
   -5.0600    0.5972   -0.7710 H   0  0  0  0  0  0  0  0  0  0  0  0
   -4.4353   -1.6890   -1.4980 H   0  0  0  0  0  0  0  0  0  0  0  0
   -2.1356   -2.5207   -1.1435 H   0  0  0  0  0  0  0  0  0  0  0  0
  1  2  1  0
  2  3  2  0
  3  4  1  0
  4  5  2  0
  5  6  1  0
  6  7  2  0
  6  8  1  0
  8  9  1  0
  9 10  2  0
 10 11  1  0
 11 12  2  0
 12 13  1  0
 13 14  2  0
  7  2  1  0
 14  9  1  0
  1 15  1  0
  3 16  1  0
  4 17  1  0
  5 18  1  0
  7 19  1  0
  8 20  1  0
 10 21  1  0
 11 22  1  0
 12 23  1  0
 13 24  1  0
 14 25  1  0
M  END
