
     RDKit          3D

 21 21  0  0  0  0  0  0  0  0999 V2000
    3.4769    0.9024    0.3036 C   0  0  0  0  0  0  0  0  0  0  0  0
    2.3130    0.6535   -0.4750 O   0  0  0  0  0  0  0  0  0  0  0  0
    1.6967   -0.6000   -0.5273 C   0  0  0  0  0  0  0  0  0  0  0  0
    2.1532   -1.5706    0.1367 O   0  0  0  0  0  0  0  0  0  0  0  0
    0.4553   -0.7752   -1.3410 C   0  0  0  0  0  0  0  0  0  0  0  0
   -0.7502   -0.3898   -0.5298 C   0  0  0  0  0  0  0  0  0  0  0  0
   -1.4098   -1.3473    0.2592 C   0  0  0  0  0  0  0  0  0  0  0  0
   -2.5115   -0.9798    1.0383 C   0  0  0  0  0  0  0  0  0  0  0  0
   -2.9557    0.3453    1.0427 C   0  0  0  0  0  0  0  0  0  0  0  0
   -2.2966    1.3063    0.2710 C   0  0  0  0  0  0  0  0  0  0  0  0
   -1.1946    0.9432   -0.5096 C   0  0  0  0  0  0  0  0  0  0  0  0
    3.7764    1.9636    0.1824 H   0  0  0  0  0  0  0  0  0  0  0  0
    4.3095    0.2519   -0.0385 H   0  0  0  0  0  0  0  0  0  0  0  0
    3.2650    0.7084    1.3764 H   0  0  0  0  0  0  0  0  0  0  0  0
    0.3717   -1.8311   -1.6798 H   0  0  0  0  0  0  0  0  0  0  0  0
    0.5219   -0.1443   -2.2538 H   0  0  0  0  0  0  0  0  0  0  0  0
   -1.0701   -2.3757    0.2716 H   0  0  0  0  0  0  0  0  0  0  0  0
   -3.0187   -1.7218    1.6412 H   0  0  0  0  0  0  0  0  0  0  0  0
   -3.8077    0.6283    1.6473 H   0  0  0  0  0  0  0  0  0  0  0  0
   -2.6376    2.3335    0.2803 H   0  0  0  0  0  0  0  0  0  0  0  0
   -0.6871    1.6992   -1.0960 H   0  0  0  0  0  0  0  0  0  0  0  0
  1  2  1  0
  2  3  1  0
  3  4  2  0
  3  5  1  0
  5  6  1  0
  6  7  2  0
  7  8  1  0
  8  9  2  0
  9 10  1  0
 10 11  2  0
 11  6  1  0
  1 12  1  0
  1 13  1  0
  1 14  1  0
  5 15  1  0
  5 16  1  0
  7 17  1  0
  8 18  1  0
  9 19  1  0
 10 20  1  0
 11 21  1  0
M  END
