
     RDKit          3D

 20 19  0  0  0  0  0  0  0  0999 V2000
    3.5975   -0.3747   -0.8325 C   0  0  0  0  0  0  0  0  0  0  0  0
    2.5780    0.3258    0.0601 C   0  0  0  0  0  0  0  0  0  0  0  0
    1.2153   -0.1069   -0.2578 N   0  0  0  0  0  0  0  0  0  0  0  0
    0.0549    0.3923    0.4290 C   0  0  0  0  0  0  0  0  0  0  0  0
    0.2105    1.5028    1.6364 S   0  0  0  0  0  0  0  0  0  0  0  0
   -1.2432   -0.0927    0.0459 N   0  0  0  0  0  0  0  0  0  0  0  0
   -2.4827    0.3550    0.6852 C   0  0  0  0  0  0  0  0  0  0  0  0
   -3.6965   -0.3326    0.0686 C   0  0  0  0  0  0  0  0  0  0  0  0
    3.3996   -0.1356   -1.8990 H   0  0  0  0  0  0  0  0  0  0  0  0
    3.5418   -1.4743   -0.6860 H   0  0  0  0  0  0  0  0  0  0  0  0
    4.6205   -0.0303   -0.5723 H   0  0  0  0  0  0  0  0  0  0  0  0
    2.8048    0.0874    1.1216 H   0  0  0  0  0  0  0  0  0  0  0  0
    2.6629    1.4238   -0.0894 H   0  0  0  0  0  0  0  0  0  0  0  0
    1.0680   -0.8105   -1.0171 H   0  0  0  0  0  0  0  0  0  0  0  0
   -1.2932   -0.7969   -0.7254 H   0  0  0  0  0  0  0  0  0  0  0  0
   -2.5889    1.4541    0.5594 H   0  0  0  0  0  0  0  0  0  0  0  0
   -2.4470    0.1177    1.7703 H   0  0  0  0  0  0  0  0  0  0  0  0
   -4.6216    0.0230    0.5694 H   0  0  0  0  0  0  0  0  0  0  0  0
   -3.6193   -1.4331    0.1987 H   0  0  0  0  0  0  0  0  0  0  0  0
   -3.7615   -0.0943   -1.0144 H   0  0  0  0  0  0  0  0  0  0  0  0
  1  2  1  0
  2  3  1  0
  3  4  1  0
  4  5  2  0
  4  6  1  0
  6  7  1  0
  7  8  1  0
  1  9  1  0
  1 10  1  0
  1 11  1  0
  2 12  1  0
  2 13  1  0
  3 14  1  0
  6 15  1  0
  7 16  1  0
  7 17  1  0
  8 18  1  0
  8 19  1  0
  8 20  1  0
M  END
