
     RDKit          3D

 12 12  0  0  0  0  0  0  0  0999 V2000
   -3.1558    0.1061    0.2489 Cl  0  0  0  0  0  0  0  0  0  0  0  0
   -1.4081    0.0473    0.1110 C   0  0  0  0  0  0  0  0  0  0  0  0
   -0.7520   -1.1870    0.0380 C   0  0  0  0  0  0  0  0  0  0  0  0
    0.6417   -1.2338   -0.0719 C   0  0  0  0  0  0  0  0  0  0  0  0
    1.3820   -0.0465   -0.1090 C   0  0  0  0  0  0  0  0  0  0  0  0
    3.2849   -0.1104   -0.2590 Br  0  0  0  0  0  0  0  0  0  0  0  0
    0.7260    1.1878   -0.0359 C   0  0  0  0  0  0  0  0  0  0  0  0
   -0.6677    1.2348    0.0740 C   0  0  0  0  0  0  0  0  0  0  0  0
   -1.3196   -2.1084    0.0662 H   0  0  0  0  0  0  0  0  0  0  0  0
    1.1445   -2.1907   -0.1281 H   0  0  0  0  0  0  0  0  0  0  0  0
    1.2941    2.1087   -0.0642 H   0  0  0  0  0  0  0  0  0  0  0  0
   -1.1699    2.1921    0.1301 H   0  0  0  0  0  0  0  0  0  0  0  0
  1  2  1  0
  2  3  2  0
  3  4  1  0
  4  5  2  0
  5  6  1  0
  5  7  1  0
  7  8  2  0
  8  2  1  0
  3  9  1  0
  4 10  1  0
  7 11  1  0
  8 12  1  0
M  END
