
     RDKit          3D

 13 12  0  0  0  0  0  0  0  0999 V2000
   -1.5327    0.1332   -0.1942 C   0  0  0  0  0  0  0  0  0  0  0  0
   -0.3615   -0.8366   -0.0462 C   0  0  0  0  0  0  0  0  0  0  0  0
    0.9682   -0.2232   -0.4996 C   0  0  0  0  0  0  0  0  0  0  0  0
    1.4008    0.8253    0.4210 N   0  0  0  0  0  0  0  0  0  0  0  0
   -1.6044    0.4983   -1.2408 H   0  0  0  0  0  0  0  0  0  0  0  0
   -1.4144    0.9978    0.4919 H   0  0  0  0  0  0  0  0  0  0  0  0
   -2.4786   -0.3882    0.0638 H   0  0  0  0  0  0  0  0  0  0  0  0
   -0.5678   -1.7356   -0.6665 H   0  0  0  0  0  0  0  0  0  0  0  0
   -0.2822   -1.1639    1.0133 H   0  0  0  0  0  0  0  0  0  0  0  0
    0.8789    0.1811   -1.5331 H   0  0  0  0  0  0  0  0  0  0  0  0
    1.7345   -1.0294   -0.5157 H   0  0  0  0  0  0  0  0  0  0  0  0
    0.8595    1.6943    0.2083 H   0  0  0  0  0  0  0  0  0  0  0  0
    2.3995    1.0470    0.2040 H   0  0  0  0  0  0  0  0  0  0  0  0
  1  2  1  0
  2  3  1  0
  3  4  1  0
  1  5  1  0
  1  6  1  0
  1  7  1  0
  2  8  1  0
  2  9  1  0
  3 10  1  0
  3 11  1  0
  4 12  1  0
  4 13  1  0
M  END
