
     RDKit          3D

 32 31  0  0  0  0  0  0  0  0999 V2000
   -5.6535   -0.3583    0.2473 O   0  0  0  0  0  0  0  0  0  0  0  0
   -4.9080    0.2581   -0.7527 C   0  0  0  0  0  0  0  0  0  0  0  0
   -5.1552    0.0138   -1.9640 O   0  0  0  0  0  0  0  0  0  0  0  0
   -3.7945    1.1904   -0.3855 C   0  0  0  0  0  0  0  0  0  0  0  0
   -2.5641    0.4322    0.1300 C   0  0  0  0  0  0  0  0  0  0  0  0
   -1.8577   -0.3548   -0.9875 C   0  0  0  0  0  0  0  0  0  0  0  0
   -0.6713   -1.1828   -0.4686 C   0  0  0  0  0  0  0  0  0  0  0  0
    0.5291   -0.3128   -0.0658 C   0  0  0  0  0  0  0  0  0  0  0  0
    1.7393   -1.1855    0.3001 C   0  0  0  0  0  0  0  0  0  0  0  0
    2.9177   -0.3653    0.8483 C   0  0  0  0  0  0  0  0  0  0  0  0
    3.6014    0.4819   -0.2326 C   0  0  0  0  0  0  0  0  0  0  0  0
    4.8196    1.1500    0.3218 C   0  0  0  0  0  0  0  0  0  0  0  0
    6.0500    0.5025    0.2683 O   0  0  0  0  0  0  0  0  0  0  0  0
    4.7254    2.2796    0.8724 O   0  0  0  0  0  0  0  0  0  0  0  0
   -6.4028   -0.9995    0.0161 H   0  0  0  0  0  0  0  0  0  0  0  0
   -4.1579    1.8708    0.4142 H   0  0  0  0  0  0  0  0  0  0  0  0
   -3.5161    1.8206   -1.2586 H   0  0  0  0  0  0  0  0  0  0  0  0
   -1.8613    1.1798    0.5540 H   0  0  0  0  0  0  0  0  0  0  0  0
   -2.8655   -0.2560    0.9504 H   0  0  0  0  0  0  0  0  0  0  0  0
   -2.5829   -1.0584   -1.4503 H   0  0  0  0  0  0  0  0  0  0  0  0
   -1.5124    0.3423   -1.7822 H   0  0  0  0  0  0  0  0  0  0  0  0
   -0.3554   -1.8738   -1.2809 H   0  0  0  0  0  0  0  0  0  0  0  0
   -0.9957   -1.8048    0.3945 H   0  0  0  0  0  0  0  0  0  0  0  0
    0.2586    0.3137    0.8104 H   0  0  0  0  0  0  0  0  0  0  0  0
    0.7933    0.3533   -0.9143 H   0  0  0  0  0  0  0  0  0  0  0  0
    1.4330   -1.9114    1.0853 H   0  0  0  0  0  0  0  0  0  0  0  0
    2.0683   -1.7693   -0.5876 H   0  0  0  0  0  0  0  0  0  0  0  0
    3.6622   -1.0760    1.2708 H   0  0  0  0  0  0  0  0  0  0  0  0
    2.5687    0.2886    1.6779 H   0  0  0  0  0  0  0  0  0  0  0  0
    3.9010   -0.1633   -1.0867 H   0  0  0  0  0  0  0  0  0  0  0  0
    2.9054    1.2602   -0.6109 H   0  0  0  0  0  0  0  0  0  0  0  0
    6.8813    0.9343    0.6539 H   0  0  0  0  0  0  0  0  0  0  0  0
  1  2  1  0
  2  3  2  0
  2  4  1  0
  4  5  1  0
  5  6  1  0
  6  7  1  0
  7  8  1  0
  8  9  1  0
  9 10  1  0
 10 11  1  0
 11 12  1  0
 12 13  1  0
 12 14  2  0
  1 15  1  0
  4 16  1  0
  4 17  1  0
  5 18  1  0
  5 19  1  0
  6 20  1  0
  6 21  1  0
  7 22  1  0
  7 23  1  0
  8 24  1  0
  8 25  1  0
  9 26  1  0
  9 27  1  0
 10 28  1  0
 10 29  1  0
 11 30  1  0
 11 31  1  0
 13 32  1  0
M  END
