
     RDKit          3D

 21 20  0  0  0  0  0  0  0  0999 V2000
   -3.1618    0.6483   -0.1206 C   0  0  0  0  0  0  0  0  0  0  0  0
   -2.3274   -0.6272   -0.0127 C   0  0  0  0  0  0  0  0  0  0  0  0
   -1.1794   -0.6587   -1.0284 C   0  0  0  0  0  0  0  0  0  0  0  0
    0.0973    0.6002   -0.6552 S   0  0  0  0  0  0  0  0  0  0  0  0
    1.0677   -0.4385    0.4969 C   0  0  0  0  0  0  0  0  0  0  0  0
    2.2521    0.3421    1.0726 C   0  0  0  0  0  0  0  0  0  0  0  0
    3.3334    0.6090    0.0264 C   0  0  0  0  0  0  0  0  0  0  0  0
   -3.5736    0.7560   -1.1466 H   0  0  0  0  0  0  0  0  0  0  0  0
   -2.5478    1.5402    0.1246 H   0  0  0  0  0  0  0  0  0  0  0  0
   -4.0081    0.5983    0.5964 H   0  0  0  0  0  0  0  0  0  0  0  0
   -1.9313   -0.7234    1.0199 H   0  0  0  0  0  0  0  0  0  0  0  0
   -2.9912   -1.4984   -0.2014 H   0  0  0  0  0  0  0  0  0  0  0  0
   -1.5789   -0.4634   -2.0463 H   0  0  0  0  0  0  0  0  0  0  0  0
   -0.7271   -1.6730   -1.0456 H   0  0  0  0  0  0  0  0  0  0  0  0
    0.4159   -0.7574    1.3366 H   0  0  0  0  0  0  0  0  0  0  0  0
    1.4333   -1.3479   -0.0269 H   0  0  0  0  0  0  0  0  0  0  0  0
    2.7008   -0.2495    1.8997 H   0  0  0  0  0  0  0  0  0  0  0  0
    1.8975    1.3063    1.4973 H   0  0  0  0  0  0  0  0  0  0  0  0
    2.9390    1.2477   -0.7915 H   0  0  0  0  0  0  0  0  0  0  0  0
    4.1864    1.1367    0.5026 H   0  0  0  0  0  0  0  0  0  0  0  0
    3.7032   -0.3476   -0.4003 H   0  0  0  0  0  0  0  0  0  0  0  0
  1  2  1  0
  2  3  1  0
  3  4  1  0
  4  5  1  0
  5  6  1  0
  6  7  1  0
  1  8  1  0
  1  9  1  0
  1 10  1  0
  2 11  1  0
  2 12  1  0
  3 13  1  0
  3 14  1  0
  5 15  1  0
  5 16  1  0
  6 17  1  0
  6 18  1  0
  7 19  1  0
  7 20  1  0
  7 21  1  0
M  END
