
     RDKit          3D

 25 24  0  0  0  0  0  0  0  0999 V2000
   -3.5328   -0.8002   -0.7918 C   0  0  0  0  0  0  0  0  0  0  0  0
   -3.1590    0.2608    0.2430 C   0  0  0  0  0  0  0  0  0  0  0  0
   -1.7851    0.8944   -0.0247 C   0  0  0  0  0  0  0  0  0  0  0  0
   -0.6251   -0.0742    0.2493 C   0  0  0  0  0  0  0  0  0  0  0  0
    0.7276    0.6304    0.0901 C   0  0  0  0  0  0  0  0  0  0  0  0
    1.8876   -0.3376    0.3532 C   0  0  0  0  0  0  0  0  0  0  0  0
    3.2408    0.3688    0.1947 C   0  0  0  0  0  0  0  0  0  0  0  0
    4.4236   -0.5342    0.4414 C   0  0  0  0  0  0  0  0  0  0  0  0
    4.2513   -2.2355    0.8700 Cl  0  0  0  0  0  0  0  0  0  0  0  0
    5.5493   -0.0734    0.3416 O   0  0  0  0  0  0  0  0  0  0  0  0
   -2.8697   -1.6855   -0.7048 H   0  0  0  0  0  0  0  0  0  0  0  0
   -3.4625   -0.3836   -1.8191 H   0  0  0  0  0  0  0  0  0  0  0  0
   -4.5774   -1.1334   -0.6170 H   0  0  0  0  0  0  0  0  0  0  0  0
   -3.1831   -0.1861    1.2606 H   0  0  0  0  0  0  0  0  0  0  0  0
   -3.9274    1.0635    0.2108 H   0  0  0  0  0  0  0  0  0  0  0  0
   -1.6802    1.7783    0.6421 H   0  0  0  0  0  0  0  0  0  0  0  0
   -1.7361    1.2571   -1.0750 H   0  0  0  0  0  0  0  0  0  0  0  0
   -0.6728   -0.9252   -0.4633 H   0  0  0  0  0  0  0  0  0  0  0  0
   -0.7118   -0.4719    1.2845 H   0  0  0  0  0  0  0  0  0  0  0  0
    0.8121    1.0341   -0.9431 H   0  0  0  0  0  0  0  0  0  0  0  0
    0.7874    1.4789    0.8071 H   0  0  0  0  0  0  0  0  0  0  0  0
    1.8272   -1.1831   -0.3672 H   0  0  0  0  0  0  0  0  0  0  0  0
    1.8002   -0.7383    1.3872 H   0  0  0  0  0  0  0  0  0  0  0  0
    3.2948    1.2191    0.9089 H   0  0  0  0  0  0  0  0  0  0  0  0
    3.3212    0.7769   -0.8364 H   0  0  0  0  0  0  0  0  0  0  0  0
  1  2  1  0
  2  3  1  0
  3  4  1  0
  4  5  1  0
  5  6  1  0
  6  7  1  0
  7  8  1  0
  8  9  1  0
  8 10  2  0
  1 11  1  0
  1 12  1  0
  1 13  1  0
  2 14  1  0
  2 15  1  0
  3 16  1  0
  3 17  1  0
  4 18  1  0
  4 19  1  0
  5 20  1  0
  5 21  1  0
  6 22  1  0
  6 23  1  0
  7 24  1  0
  7 25  1  0
M  END
