
     RDKit          3D

 22 21  0  0  0  0  0  0  0  0999 V2000
    3.3269    0.2619   -0.9505 C   0  0  0  0  0  0  0  0  0  0  0  0
    2.4111    0.1799    0.2673 C   0  0  0  0  0  0  0  0  0  0  0  0
    0.9411    0.3484   -0.1332 C   0  0  0  0  0  0  0  0  0  0  0  0
    0.0218    0.2673    1.0895 C   0  0  0  0  0  0  0  0  0  0  0  0
   -1.3201    0.4999    0.7045 O   0  0  0  0  0  0  0  0  0  0  0  0
   -2.0030   -0.7233    0.5193 C   0  0  0  0  0  0  0  0  0  0  0  0
   -3.3888   -0.4503   -0.0585 C   0  0  0  0  0  0  0  0  0  0  0  0
   -3.2858    0.0968   -1.3455 O   0  0  0  0  0  0  0  0  0  0  0  0
    4.3828    0.1370   -0.6306 H   0  0  0  0  0  0  0  0  0  0  0  0
    3.0779   -0.5422   -1.6754 H   0  0  0  0  0  0  0  0  0  0  0  0
    3.2207    1.2498   -1.4473 H   0  0  0  0  0  0  0  0  0  0  0  0
    2.5548   -0.8069    0.7593 H   0  0  0  0  0  0  0  0  0  0  0  0
    2.6980    0.9775    0.9870 H   0  0  0  0  0  0  0  0  0  0  0  0
    0.6629   -0.4476   -0.8573 H   0  0  0  0  0  0  0  0  0  0  0  0
    0.8010    1.3354   -0.6265 H   0  0  0  0  0  0  0  0  0  0  0  0
    0.1707   -0.7012    1.6253 H   0  0  0  0  0  0  0  0  0  0  0  0
    0.3105    1.0681    1.8034 H   0  0  0  0  0  0  0  0  0  0  0  0
   -1.4550   -1.3942   -0.1813 H   0  0  0  0  0  0  0  0  0  0  0  0
   -2.1294   -1.2402    1.4973 H   0  0  0  0  0  0  0  0  0  0  0  0
   -3.9599    0.2290    0.6152 H   0  0  0  0  0  0  0  0  0  0  0  0
   -3.9464   -1.4085   -0.1256 H   0  0  0  0  0  0  0  0  0  0  0  0
   -3.0917    1.0635   -1.2304 H   0  0  0  0  0  0  0  0  0  0  0  0
  1  2  1  0
  2  3  1  0
  3  4  1  0
  4  5  1  0
  5  6  1  0
  6  7  1  0
  7  8  1  0
  1  9  1  0
  1 10  1  0
  1 11  1  0
  2 12  1  0
  2 13  1  0
  3 14  1  0
  3 15  1  0
  4 16  1  0
  4 17  1  0
  6 18  1  0
  6 19  1  0
  7 20  1  0
  7 21  1  0
  8 22  1  0
M  END
