
     RDKit          3D

 22 22  0  0  0  0  0  0  0  0999 V2000
    4.5828   -0.2717   -0.0090 C   0  0  0  0  0  0  0  0  0  0  0  0
    3.2155    0.1205   -0.0270 O   0  0  0  0  0  0  0  0  0  0  0  0
    2.1759   -0.7477    0.3243 C   0  0  0  0  0  0  0  0  0  0  0  0
    2.4344   -1.9323    0.6753 O   0  0  0  0  0  0  0  0  0  0  0  0
    0.7745   -0.2742    0.2834 C   0  0  0  0  0  0  0  0  0  0  0  0
   -0.2841   -1.1314    0.6328 C   0  0  0  0  0  0  0  0  0  0  0  0
   -1.6066   -0.6795    0.5926 C   0  0  0  0  0  0  0  0  0  0  0  0
   -1.8944    0.6412    0.2013 C   0  0  0  0  0  0  0  0  0  0  0  0
   -3.2037    1.1416    0.1450 O   0  0  0  0  0  0  0  0  0  0  0  0
   -4.3670    0.3875    0.4701 C   0  0  0  0  0  0  0  0  0  0  0  0
   -0.8411    1.4936   -0.1461 C   0  0  0  0  0  0  0  0  0  0  0  0
    0.4817    1.0436   -0.1066 C   0  0  0  0  0  0  0  0  0  0  0  0
    4.8778   -0.5751    1.0179 H   0  0  0  0  0  0  0  0  0  0  0  0
    4.7453   -1.1164   -0.7116 H   0  0  0  0  0  0  0  0  0  0  0  0
    5.2119    0.5853   -0.3254 H   0  0  0  0  0  0  0  0  0  0  0  0
   -0.0913   -2.1525    0.9376 H   0  0  0  0  0  0  0  0  0  0  0  0
   -2.3968   -1.3647    0.8676 H   0  0  0  0  0  0  0  0  0  0  0  0
   -4.3218    0.0528    1.5280 H   0  0  0  0  0  0  0  0  0  0  0  0
   -4.4545   -0.4896   -0.2053 H   0  0  0  0  0  0  0  0  0  0  0  0
   -5.2628    1.0282    0.3382 H   0  0  0  0  0  0  0  0  0  0  0  0
   -1.0494    2.5121   -0.4489 H   0  0  0  0  0  0  0  0  0  0  0  0
    1.2736    1.7289   -0.3817 H   0  0  0  0  0  0  0  0  0  0  0  0
  1  2  1  0
  2  3  1  0
  3  4  2  0
  3  5  1  0
  5  6  2  0
  6  7  1  0
  7  8  2  0
  8  9  1  0
  9 10  1  0
  8 11  1  0
 11 12  2  0
 12  5  1  0
  1 13  1  0
  1 14  1  0
  1 15  1  0
  6 16  1  0
  7 17  1  0
 10 18  1  0
 10 19  1  0
 10 20  1  0
 11 21  1  0
 12 22  1  0
M  END
