
     RDKit          3D

 21 21  0  0  0  0  0  0  0  0999 V2000
    3.9867    0.5367    0.4775 C   0  0  0  0  0  0  0  0  0  0  0  0
    2.5320    0.3941    0.7860 C   0  0  0  0  0  0  0  0  0  0  0  0
    2.1150    0.6790    1.9411 O   0  0  0  0  0  0  0  0  0  0  0  0
    1.6429   -0.1530   -0.2001 N   0  0  0  0  0  0  0  0  0  0  0  0
    0.2100   -0.1649   -0.0774 C   0  0  0  0  0  0  0  0  0  0  0  0
   -0.5202   -1.2151   -0.6523 C   0  0  0  0  0  0  0  0  0  0  0  0
   -1.9154   -1.2407   -0.5668 C   0  0  0  0  0  0  0  0  0  0  0  0
   -2.6048   -0.2042    0.0842 C   0  0  0  0  0  0  0  0  0  0  0  0
   -4.0759   -0.2120    0.1844 C   0  0  0  0  0  0  0  0  0  0  0  0
   -4.7565   -1.1513   -0.3069 O   0  0  0  0  0  0  0  0  0  0  0  0
   -1.8777    0.8590    0.6393 C   0  0  0  0  0  0  0  0  0  0  0  0
   -0.4823    0.8834    0.5542 C   0  0  0  0  0  0  0  0  0  0  0  0
    4.4538    1.2836    1.1539 H   0  0  0  0  0  0  0  0  0  0  0  0
    4.1194    0.8752   -0.5715 H   0  0  0  0  0  0  0  0  0  0  0  0
    4.4906   -0.4428    0.6122 H   0  0  0  0  0  0  0  0  0  0  0  0
    2.0703   -0.6449   -1.0175 H   0  0  0  0  0  0  0  0  0  0  0  0
   -0.0052   -2.0215   -1.1595 H   0  0  0  0  0  0  0  0  0  0  0  0
   -2.4529   -2.0692   -1.0110 H   0  0  0  0  0  0  0  0  0  0  0  0
   -4.5883    0.5985    0.6869 H   0  0  0  0  0  0  0  0  0  0  0  0
   -2.3906    1.6763    1.1318 H   0  0  0  0  0  0  0  0  0  0  0  0
    0.0491    1.7340    0.9593 H   0  0  0  0  0  0  0  0  0  0  0  0
  1  2  1  0
  2  3  2  0
  2  4  1  0
  4  5  1  0
  5  6  2  0
  6  7  1  0
  7  8  2  0
  8  9  1  0
  9 10  2  0
  8 11  1  0
 11 12  2  0
 12  5  1  0
  1 13  1  0
  1 14  1  0
  1 15  1  0
  4 16  1  0
  6 17  1  0
  7 18  1  0
  9 19  1  0
 11 20  1  0
 12 21  1  0
M  END
