
     RDKit          3D

 25 24  0  0  0  0  0  0  0  0999 V2000
    3.7141   -0.5264    0.3252 C   0  0  0  0  0  0  0  0  0  0  0  0
    2.2560   -0.9093    0.5614 C   0  0  0  0  0  0  0  0  0  0  0  0
    1.3052    0.1393   -0.0278 C   0  0  0  0  0  0  0  0  0  0  0  0
   -0.1625   -0.2475    0.2171 C   0  0  0  0  0  0  0  0  0  0  0  0
   -1.1485    0.7566   -0.4248 C   0  0  0  0  0  0  0  0  0  0  0  0
   -2.6172    0.2969   -0.2822 C   0  0  0  0  0  0  0  0  0  0  0  0
   -2.9589   -0.8994   -1.1723 C   0  0  0  0  0  0  0  0  0  0  0  0
   -0.9916    2.1267    0.1874 C   0  0  0  0  0  0  0  0  0  0  0  0
   -1.2025    2.3089    1.3767 O   0  0  0  0  0  0  0  0  0  0  0  0
    3.9409    0.4471    0.8099 H   0  0  0  0  0  0  0  0  0  0  0  0
    3.9219   -0.4517   -0.7635 H   0  0  0  0  0  0  0  0  0  0  0  0
    4.3776   -1.3029    0.7609 H   0  0  0  0  0  0  0  0  0  0  0  0
    2.0809   -1.0009    1.6556 H   0  0  0  0  0  0  0  0  0  0  0  0
    2.0637   -1.8978    0.0900 H   0  0  0  0  0  0  0  0  0  0  0  0
    1.4852    0.2245   -1.1222 H   0  0  0  0  0  0  0  0  0  0  0  0
    1.5170    1.1240    0.4427 H   0  0  0  0  0  0  0  0  0  0  0  0
   -0.3528   -0.3161    1.3112 H   0  0  0  0  0  0  0  0  0  0  0  0
   -0.3255   -1.2551   -0.2190 H   0  0  0  0  0  0  0  0  0  0  0  0
   -0.9123    0.8446   -1.5088 H   0  0  0  0  0  0  0  0  0  0  0  0
   -2.8400    0.0419    0.7772 H   0  0  0  0  0  0  0  0  0  0  0  0
   -3.2911    1.1327   -0.5754 H   0  0  0  0  0  0  0  0  0  0  0  0
   -4.0530   -1.0854   -1.1340 H   0  0  0  0  0  0  0  0  0  0  0  0
   -2.6743   -0.6959   -2.2264 H   0  0  0  0  0  0  0  0  0  0  0  0
   -2.4459   -1.8173   -0.8197 H   0  0  0  0  0  0  0  0  0  0  0  0
   -0.6864    2.9625   -0.4338 H   0  0  0  0  0  0  0  0  0  0  0  0
  1  2  1  0
  2  3  1  0
  3  4  1  0
  4  5  1  0
  5  6  1  0
  6  7  1  0
  5  8  1  0
  8  9  2  0
  1 10  1  0
  1 11  1  0
  1 12  1  0
  2 13  1  0
  2 14  1  0
  3 15  1  0
  3 16  1  0
  4 17  1  0
  4 18  1  0
  5 19  1  0
  6 20  1  0
  6 21  1  0
  7 22  1  0
  7 23  1  0
  7 24  1  0
  8 25  1  0
M  END
