
     RDKit          3D

 15 14  0  0  0  0  0  0  0  0999 V2000
   -2.2211   -0.8260   -0.6402 C   0  0  0  0  0  0  0  0  0  0  0  0
   -0.8205   -0.3461   -0.8815 C   0  0  0  0  0  0  0  0  0  0  0  0
   -0.1741   -0.8321   -1.7972 O   0  0  0  0  0  0  0  0  0  0  0  0
   -0.1977    0.7186   -0.0202 C   0  0  0  0  0  0  0  0  0  0  0  0
    0.8815    0.1245    0.8434 C   0  0  0  0  0  0  0  0  0  0  0  0
    2.3307    0.4279    0.6023 C   0  0  0  0  0  0  0  0  0  0  0  0
    0.5740   -0.6215    1.7608 O   0  0  0  0  0  0  0  0  0  0  0  0
   -2.8419   -0.6263   -1.5385 H   0  0  0  0  0  0  0  0  0  0  0  0
   -2.2095   -1.9183   -0.4423 H   0  0  0  0  0  0  0  0  0  0  0  0
   -2.6802   -0.3144    0.2314 H   0  0  0  0  0  0  0  0  0  0  0  0
    0.2122    1.5159   -0.6763 H   0  0  0  0  0  0  0  0  0  0  0  0
   -0.9582    1.1957    0.6342 H   0  0  0  0  0  0  0  0  0  0  0  0
    2.7614    0.9192    1.4997 H   0  0  0  0  0  0  0  0  0  0  0  0
    2.8795   -0.5172    0.4072 H   0  0  0  0  0  0  0  0  0  0  0  0
    2.4640    1.1001   -0.2709 H   0  0  0  0  0  0  0  0  0  0  0  0
  1  2  1  0
  2  3  2  0
  2  4  1  0
  4  5  1  0
  5  6  1  0
  5  7  2  0
  1  8  1  0
  1  9  1  0
  1 10  1  0
  4 11  1  0
  4 12  1  0
  6 13  1  0
  6 14  1  0
  6 15  1  0
M  END
