
     RDKit          3D

 23 23  0  0  0  0  0  0  0  0999 V2000
   -3.9425    1.0272    0.4841 C   0  0  0  0  0  0  0  0  0  0  0  0
   -2.9400    0.2438    1.1233 O   0  0  0  0  0  0  0  0  0  0  0  0
   -1.6991   -0.0738    0.5515 C   0  0  0  0  0  0  0  0  0  0  0  0
   -0.8047   -0.8538    1.2937 C   0  0  0  0  0  0  0  0  0  0  0  0
    0.4441   -1.1974    0.7683 C   0  0  0  0  0  0  0  0  0  0  0  0
    0.8140   -0.7697   -0.5160 C   0  0  0  0  0  0  0  0  0  0  0  0
    2.1709   -1.1166   -1.0681 C   0  0  0  0  0  0  0  0  0  0  0  0
    3.2220   -0.1936   -0.5182 C   0  0  0  0  0  0  0  0  0  0  0  0
    3.3033    1.0847   -0.8990 C   0  0  0  0  0  0  0  0  0  0  0  0
   -0.0762    0.0205   -1.2597 C   0  0  0  0  0  0  0  0  0  0  0  0
   -1.3251    0.3641   -0.7336 C   0  0  0  0  0  0  0  0  0  0  0  0
   -4.2702    0.5349   -0.4558 H   0  0  0  0  0  0  0  0  0  0  0  0
   -3.5520    2.0440    0.2674 H   0  0  0  0  0  0  0  0  0  0  0  0
   -4.8168    1.1192    1.1605 H   0  0  0  0  0  0  0  0  0  0  0  0
   -1.0785   -1.1932    2.2847 H   0  0  0  0  0  0  0  0  0  0  0  0
    1.1240   -1.7954    1.3626 H   0  0  0  0  0  0  0  0  0  0  0  0
    2.4251   -2.1613   -0.7864 H   0  0  0  0  0  0  0  0  0  0  0  0
    2.1730   -1.0713   -2.1794 H   0  0  0  0  0  0  0  0  0  0  0  0
    3.9406   -0.5800    0.1986 H   0  0  0  0  0  0  0  0  0  0  0  0
    4.0763    1.7255   -0.4878 H   0  0  0  0  0  0  0  0  0  0  0  0
    2.6050    1.4986   -1.6200 H   0  0  0  0  0  0  0  0  0  0  0  0
    0.1971    0.3721   -2.2469 H   0  0  0  0  0  0  0  0  0  0  0  0
   -1.9902    0.9716   -1.3320 H   0  0  0  0  0  0  0  0  0  0  0  0
  1  2  1  0
  2  3  1  0
  3  4  2  0
  4  5  1  0
  5  6  2  0
  6  7  1  0
  7  8  1  0
  8  9  2  3
  6 10  1  0
 10 11  2  0
 11  3  1  0
  1 12  1  0
  1 13  1  0
  1 14  1  0
  4 15  1  0
  5 16  1  0
  7 17  1  0
  7 18  1  0
  8 19  1  0
  9 20  1  0
  9 21  1  0
 10 22  1  0
 11 23  1  0
M  END
