
     RDKit          3D

 17 16  0  0  0  0  0  0  0  0999 V2000
   -1.5174   -0.9828   -0.6642 C   0  0  0  0  0  0  0  0  0  0  0  0
   -0.9834    0.1923    0.1148 C   0  0  0  0  0  0  0  0  0  0  0  0
   -1.9480    1.2302    0.6242 C   0  0  0  0  0  0  0  0  0  0  0  0
    0.3291    0.3596    0.3796 C   0  0  0  0  0  0  0  0  0  0  0  0
    1.4298   -0.5448   -0.0319 C   0  0  0  0  0  0  0  0  0  0  0  0
    2.8342   -0.2026    0.3504 C   0  0  0  0  0  0  0  0  0  0  0  0
    1.2153   -1.5944   -0.6950 O   0  0  0  0  0  0  0  0  0  0  0  0
   -1.0817   -0.9912   -1.6854 H   0  0  0  0  0  0  0  0  0  0  0  0
   -2.6209   -0.9346   -0.7722 H   0  0  0  0  0  0  0  0  0  0  0  0
   -1.2743   -1.9297   -0.1379 H   0  0  0  0  0  0  0  0  0  0  0  0
   -1.6944    2.2221    0.1935 H   0  0  0  0  0  0  0  0  0  0  0  0
   -2.9968    0.9927    0.3497 H   0  0  0  0  0  0  0  0  0  0  0  0
   -1.8858    1.2893    1.7317 H   0  0  0  0  0  0  0  0  0  0  0  0
    0.6235    1.2358    0.9476 H   0  0  0  0  0  0  0  0  0  0  0  0
    2.9188   -0.1521    1.4562 H   0  0  0  0  0  0  0  0  0  0  0  0
    3.1104    0.7814   -0.0832 H   0  0  0  0  0  0  0  0  0  0  0  0
    3.5418   -0.9711   -0.0276 H   0  0  0  0  0  0  0  0  0  0  0  0
  1  2  1  0
  2  3  1  0
  2  4  2  3
  4  5  1  0
  5  6  1  0
  5  7  2  0
  1  8  1  0
  1  9  1  0
  1 10  1  0
  3 11  1  0
  3 12  1  0
  3 13  1  0
  4 14  1  0
  6 15  1  0
  6 16  1  0
  6 17  1  0
M  END
