
     RDKit          3D

 15 14  0  0  0  0  0  0  0  0999 V2000
   -1.8858   -0.8235   -0.0750 C   0  0  0  0  0  0  0  0  0  0  0  0
   -1.0060    0.3070   -0.5997 C   0  0  0  0  0  0  0  0  0  0  0  0
    0.4299    0.1011   -0.1994 C   0  0  0  0  0  0  0  0  0  0  0  0
    1.0708    1.0195    0.8063 C   0  0  0  0  0  0  0  0  0  0  0  0
    1.0956   -0.8717   -0.7531 N   0  0  0  0  0  0  0  0  0  0  0  0
    2.4180   -1.1667   -0.4838 O   0  0  0  0  0  0  0  0  0  0  0  0
   -2.9406   -0.6412   -0.3701 H   0  0  0  0  0  0  0  0  0  0  0  0
   -1.5626   -1.7973   -0.5010 H   0  0  0  0  0  0  0  0  0  0  0  0
   -1.8295   -0.8707    1.0337 H   0  0  0  0  0  0  0  0  0  0  0  0
   -1.0761    0.3463   -1.7083 H   0  0  0  0  0  0  0  0  0  0  0  0
   -1.3939    1.2714   -0.2075 H   0  0  0  0  0  0  0  0  0  0  0  0
    0.3542    1.7826    1.1752 H   0  0  0  0  0  0  0  0  0  0  0  0
    1.9291    1.5474    0.3405 H   0  0  0  0  0  0  0  0  0  0  0  0
    1.4232    0.4320    1.6799 H   0  0  0  0  0  0  0  0  0  0  0  0
    2.9736   -0.6362    0.1756 H   0  0  0  0  0  0  0  0  0  0  0  0
  1  2  1  0
  2  3  1  0
  3  4  1  0
  3  5  2  0
  5  6  1  0
  1  7  1  0
  1  8  1  0
  1  9  1  0
  2 10  1  0
  2 11  1  0
  4 12  1  0
  4 13  1  0
  4 14  1  0
  6 15  1  0
M  END
