
     RDKit          3D

 14 14  0  0  0  0  0  0  0  0999 V2000
   -2.1263    2.0968   -0.5020 F   0  0  0  0  0  0  0  0  0  0  0  0
   -1.3296    1.0260   -0.2629 C   0  0  0  0  0  0  0  0  0  0  0  0
   -1.8969   -0.2369   -0.0713 C   0  0  0  0  0  0  0  0  0  0  0  0
   -1.0771   -1.3412    0.1751 C   0  0  0  0  0  0  0  0  0  0  0  0
    0.3116   -1.1856    0.2305 C   0  0  0  0  0  0  0  0  0  0  0  0
    0.8911    0.0793    0.0392 C   0  0  0  0  0  0  0  0  0  0  0  0
    0.0592    1.1864   -0.2084 C   0  0  0  0  0  0  0  0  0  0  0  0
    2.3569    0.2258    0.1008 C   0  0  0  0  0  0  0  0  0  0  0  0
    2.9063    1.3470   -0.0667 O   0  0  0  0  0  0  0  0  0  0  0  0
   -2.9714   -0.3608   -0.1135 H   0  0  0  0  0  0  0  0  0  0  0  0
   -1.5177   -2.3186    0.3234 H   0  0  0  0  0  0  0  0  0  0  0  0
    0.9332   -2.0517    0.4225 H   0  0  0  0  0  0  0  0  0  0  0  0
    0.4814    2.1722   -0.3593 H   0  0  0  0  0  0  0  0  0  0  0  0
    2.9795   -0.6388    0.2926 H   0  0  0  0  0  0  0  0  0  0  0  0
  1  2  1  0
  2  3  2  0
  3  4  1  0
  4  5  2  0
  5  6  1  0
  6  7  2  0
  6  8  1  0
  8  9  2  0
  7  2  1  0
  3 10  1  0
  4 11  1  0
  5 12  1  0
  7 13  1  0
  8 14  1  0
M  END
