
     RDKit          3D

 25 25  0  0  0  0  0  0  0  0999 V2000
   -2.7458   -1.0535    1.1684 C   0  0  0  0  0  0  0  0  0  0  0  0
   -2.1768    0.1282    0.3741 C   0  0  0  0  0  0  0  0  0  0  0  0
   -2.7221    0.1436   -1.0588 C   0  0  0  0  0  0  0  0  0  0  0  0
   -0.6596    0.1126    0.3814 C   0  0  0  0  0  0  0  0  0  0  0  0
    0.0517    1.1832    0.9507 C   0  0  0  0  0  0  0  0  0  0  0  0
    1.4495    1.1809    0.9620 C   0  0  0  0  0  0  0  0  0  0  0  0
    2.1608    0.1035    0.4144 C   0  0  0  0  0  0  0  0  0  0  0  0
    3.6644    0.1181    0.3941 C   0  0  0  0  0  0  0  0  0  0  0  0
    4.1239    0.6455   -0.8199 O   0  0  0  0  0  0  0  0  0  0  0  0
    1.4569   -0.9595   -0.1695 C   0  0  0  0  0  0  0  0  0  0  0  0
    0.0593   -0.9588   -0.1817 C   0  0  0  0  0  0  0  0  0  0  0  0
   -2.3378   -1.0490    2.2019 H   0  0  0  0  0  0  0  0  0  0  0  0
   -3.8519   -0.9711    1.2319 H   0  0  0  0  0  0  0  0  0  0  0  0
   -2.4917   -2.0210    0.6858 H   0  0  0  0  0  0  0  0  0  0  0  0
   -2.5397    1.0566    0.8696 H   0  0  0  0  0  0  0  0  0  0  0  0
   -3.8278    0.2498   -1.0435 H   0  0  0  0  0  0  0  0  0  0  0  0
   -2.2986    1.0054   -1.6178 H   0  0  0  0  0  0  0  0  0  0  0  0
   -2.4655   -0.7942   -1.5957 H   0  0  0  0  0  0  0  0  0  0  0  0
   -0.4740    2.0247    1.3845 H   0  0  0  0  0  0  0  0  0  0  0  0
    1.9772    2.0203    1.3979 H   0  0  0  0  0  0  0  0  0  0  0  0
    4.0667    0.7060    1.2507 H   0  0  0  0  0  0  0  0  0  0  0  0
    4.0520   -0.9172    0.5032 H   0  0  0  0  0  0  0  0  0  0  0  0
    3.9976    1.6291   -0.7677 H   0  0  0  0  0  0  0  0  0  0  0  0
    1.9906   -1.7895   -0.6159 H   0  0  0  0  0  0  0  0  0  0  0  0
   -0.4596   -1.7937   -0.6342 H   0  0  0  0  0  0  0  0  0  0  0  0
  1  2  1  0
  2  3  1  0
  2  4  1  0
  4  5  2  0
  5  6  1  0
  6  7  2  0
  7  8  1  0
  8  9  1  0
  7 10  1  0
 10 11  2  0
 11  4  1  0
  1 12  1  0
  1 13  1  0
  1 14  1  0
  2 15  1  0
  3 16  1  0
  3 17  1  0
  3 18  1  0
  5 19  1  0
  6 20  1  0
  8 21  1  0
  8 22  1  0
  9 23  1  0
 10 24  1  0
 11 25  1  0
M  END
