
     RDKit          3D

 17 16  0  0  0  0  0  0  0  0999 V2000
   -2.5129    0.3701   -0.2783 C   0  0  0  0  0  0  0  0  0  0  0  0
   -1.2378    0.2576    0.5522 C   0  0  0  0  0  0  0  0  0  0  0  0
   -0.0172   -0.0005   -0.3386 C   0  0  0  0  0  0  0  0  0  0  0  0
    1.2621   -0.1140    0.5024 C   0  0  0  0  0  0  0  0  0  0  0  0
    2.5027   -0.3347   -0.3666 C   0  0  0  0  0  0  0  0  0  0  0  0
    2.4998   -1.9604   -1.1027 Cl  0  0  0  0  0  0  0  0  0  0  0  0
   -2.6940   -0.5728   -0.8372 H   0  0  0  0  0  0  0  0  0  0  0  0
   -2.4322    1.2132   -0.9972 H   0  0  0  0  0  0  0  0  0  0  0  0
   -3.3780    0.5569    0.3922 H   0  0  0  0  0  0  0  0  0  0  0  0
   -1.0947    1.2026    1.1204 H   0  0  0  0  0  0  0  0  0  0  0  0
   -1.3544   -0.5760    1.2788 H   0  0  0  0  0  0  0  0  0  0  0  0
   -0.1746   -0.9424   -0.9078 H   0  0  0  0  0  0  0  0  0  0  0  0
    0.0917    0.8363   -1.0634 H   0  0  0  0  0  0  0  0  0  0  0  0
    1.4020    0.8262    1.0794 H   0  0  0  0  0  0  0  0  0  0  0  0
    1.1672   -0.9513    1.2281 H   0  0  0  0  0  0  0  0  0  0  0  0
    2.5593    0.4338   -1.1666 H   0  0  0  0  0  0  0  0  0  0  0  0
    3.4109   -0.2446    0.2660 H   0  0  0  0  0  0  0  0  0  0  0  0
  1  2  1  0
  2  3  1  0
  3  4  1  0
  4  5  1  0
  5  6  1  0
  1  7  1  0
  1  8  1  0
  1  9  1  0
  2 10  1  0
  2 11  1  0
  3 12  1  0
  3 13  1  0
  4 14  1  0
  4 15  1  0
  5 16  1  0
  5 17  1  0
M  END
