
     RDKit          3D

 20 20  0  0  0  0  0  0  0  0999 V2000
   -2.4649   -0.1085   -0.4750 C   0  0  0  0  0  0  0  0  0  0  0  0
   -1.1898    0.0927   -1.2887 C   0  0  0  0  0  0  0  0  0  0  0  0
    0.0372   -0.1630   -0.4441 C   0  0  0  0  0  0  0  0  0  0  0  0
    0.6298   -1.4385   -0.4902 C   0  0  0  0  0  0  0  0  0  0  0  0
    1.7586   -1.7282    0.2782 C   0  0  0  0  0  0  0  0  0  0  0  0
    2.3072   -0.7530    1.1091 C   0  0  0  0  0  0  0  0  0  0  0  0
    1.7244    0.5131    1.1807 C   0  0  0  0  0  0  0  0  0  0  0  0
    0.5858    0.8223    0.4186 C   0  0  0  0  0  0  0  0  0  0  0  0
    0.0083    2.1299    0.5443 N   0  0  0  0  0  0  0  0  0  0  0  0
   -3.3498    0.0870   -1.1164 H   0  0  0  0  0  0  0  0  0  0  0  0
   -2.4931    0.5872    0.3898 H   0  0  0  0  0  0  0  0  0  0  0  0
   -2.5201   -1.1536   -0.1021 H   0  0  0  0  0  0  0  0  0  0  0  0
   -1.2109   -0.6032   -2.1560 H   0  0  0  0  0  0  0  0  0  0  0  0
   -1.1665    1.1141   -1.7217 H   0  0  0  0  0  0  0  0  0  0  0  0
    0.2173   -2.2130   -1.1252 H   0  0  0  0  0  0  0  0  0  0  0  0
    2.2079   -2.7117    0.2296 H   0  0  0  0  0  0  0  0  0  0  0  0
    3.1827   -0.9798    1.7038 H   0  0  0  0  0  0  0  0  0  0  0  0
    2.1580    1.2557    1.8389 H   0  0  0  0  0  0  0  0  0  0  0  0
   -0.8725    2.4066    0.0609 H   0  0  0  0  0  0  0  0  0  0  0  0
    0.4504    2.8439    1.1654 H   0  0  0  0  0  0  0  0  0  0  0  0
  1  2  1  0
  2  3  1  0
  3  4  2  0
  4  5  1  0
  5  6  2  0
  6  7  1  0
  7  8  2  0
  8  9  1  0
  8  3  1  0
  1 10  1  0
  1 11  1  0
  1 12  1  0
  2 13  1  0
  2 14  1  0
  4 15  1  0
  5 16  1  0
  6 17  1  0
  7 18  1  0
  9 19  1  0
  9 20  1  0
M  END
