
     RDKit          3D

 28 30  0  0  0  0  0  0  0  0999 V2000
    3.9795   -0.7774   -0.8662 C   0  0  0  0  0  0  0  0  0  0  0  0
    3.7467   -0.0923    0.3297 C   0  0  0  0  0  0  0  0  0  0  0  0
    2.4714    0.4049    0.6159 C   0  0  0  0  0  0  0  0  0  0  0  0
    1.4171    0.2106   -0.2915 C   0  0  0  0  0  0  0  0  0  0  0  0
    1.6617   -0.4672   -1.4978 C   0  0  0  0  0  0  0  0  0  0  0  0
    2.9383   -0.9632   -1.7799 C   0  0  0  0  0  0  0  0  0  0  0  0
    0.0727    0.7575    0.0014 C   0  0  0  0  0  0  0  0  0  0  0  0
   -1.0743   -0.0688    0.1372 C   0  0  0  0  0  0  0  0  0  0  0  0
   -0.9956   -1.4769    0.0785 C   0  0  0  0  0  0  0  0  0  0  0  0
   -2.1455   -2.2588    0.2127 C   0  0  0  0  0  0  0  0  0  0  0  0
   -3.3867   -1.6564    0.4164 C   0  0  0  0  0  0  0  0  0  0  0  0
   -3.4867   -0.2670    0.4975 C   0  0  0  0  0  0  0  0  0  0  0  0
   -2.3411    0.5339    0.3671 C   0  0  0  0  0  0  0  0  0  0  0  0
   -2.4451    1.9278    0.4734 C   0  0  0  0  0  0  0  0  0  0  0  0
   -1.3094    2.7276    0.3619 C   0  0  0  0  0  0  0  0  0  0  0  0
   -0.0618    2.1496    0.1298 C   0  0  0  0  0  0  0  0  0  0  0  0
    4.9673   -1.1612   -1.0863 H   0  0  0  0  0  0  0  0  0  0  0  0
    4.5548    0.0546    1.0345 H   0  0  0  0  0  0  0  0  0  0  0  0
    2.3032    0.9348    1.5455 H   0  0  0  0  0  0  0  0  0  0  0  0
    0.8648   -0.6087   -2.2177 H   0  0  0  0  0  0  0  0  0  0  0  0
    3.1211   -1.4886   -2.7083 H   0  0  0  0  0  0  0  0  0  0  0  0
   -0.0506   -1.9848   -0.0572 H   0  0  0  0  0  0  0  0  0  0  0  0
   -2.0726   -3.3377    0.1631 H   0  0  0  0  0  0  0  0  0  0  0  0
   -4.2733   -2.2687    0.5203 H   0  0  0  0  0  0  0  0  0  0  0  0
   -4.4583    0.1816    0.6675 H   0  0  0  0  0  0  0  0  0  0  0  0
   -3.4050    2.3985    0.6504 H   0  0  0  0  0  0  0  0  0  0  0  0
   -1.3969    3.8029    0.4500 H   0  0  0  0  0  0  0  0  0  0  0  0
    0.8041    2.7935    0.0319 H   0  0  0  0  0  0  0  0  0  0  0  0
  1  2  2  0
  2  3  1  0
  3  4  2  0
  4  5  1  0
  5  6  2  0
  4  7  1  0
  7  8  1  0
  8  9  2  0
  9 10  1  0
 10 11  2  0
 11 12  1  0
 12 13  2  0
 13 14  1  0
 14 15  2  0
 15 16  1  0
  6  1  1  0
 16  7  2  0
 13  8  1  0
  1 17  1  0
  2 18  1  0
  3 19  1  0
  5 20  1  0
  6 21  1  0
  9 22  1  0
 10 23  1  0
 11 24  1  0
 12 25  1  0
 14 26  1  0
 15 27  1  0
 16 28  1  0
M  END
