
     RDKit          3D

 27 28  0  0  0  0  0  0  0  0999 V2000
   -1.3237   -1.7016    1.3079 O   0  0  0  0  0  0  0  0  0  0  0  0
   -1.8258   -0.7279    0.4468 C   0  0  0  0  0  0  0  0  0  0  0  0
   -3.0117   -0.0538    0.7734 C   0  0  0  0  0  0  0  0  0  0  0  0
   -3.5242    0.9261   -0.0790 C   0  0  0  0  0  0  0  0  0  0  0  0
   -2.8558    1.2412   -1.2641 C   0  0  0  0  0  0  0  0  0  0  0  0
   -3.4979    2.4767   -2.3311 Cl  0  0  0  0  0  0  0  0  0  0  0  0
   -1.6732    0.5743   -1.5984 C   0  0  0  0  0  0  0  0  0  0  0  0
   -1.1488   -0.4186   -0.7510 C   0  0  0  0  0  0  0  0  0  0  0  0
    0.1489   -1.1013   -1.1151 C   0  0  0  0  0  0  0  0  0  0  0  0
    1.3209   -0.4213   -0.4392 C   0  0  0  0  0  0  0  0  0  0  0  0
    1.7367    0.8251   -0.9467 C   0  0  0  0  0  0  0  0  0  0  0  0
    2.7830    1.5306   -0.3481 C   0  0  0  0  0  0  0  0  0  0  0  0
    3.4303    1.0024    0.7681 C   0  0  0  0  0  0  0  0  0  0  0  0
    3.0366   -0.2324    1.2836 C   0  0  0  0  0  0  0  0  0  0  0  0
    1.9926   -0.9567    0.6939 C   0  0  0  0  0  0  0  0  0  0  0  0
    1.6727   -2.1922    1.2628 O   0  0  0  0  0  0  0  0  0  0  0  0
    3.2789    3.0834   -0.9965 Cl  0  0  0  0  0  0  0  0  0  0  0  0
   -1.7925   -1.9386    2.1744 H   0  0  0  0  0  0  0  0  0  0  0  0
   -3.5366   -0.2887    1.6906 H   0  0  0  0  0  0  0  0  0  0  0  0
   -4.4397    1.4408    0.1837 H   0  0  0  0  0  0  0  0  0  0  0  0
   -1.1629    0.8313   -2.5185 H   0  0  0  0  0  0  0  0  0  0  0  0
    0.2999   -1.0557   -2.2164 H   0  0  0  0  0  0  0  0  0  0  0  0
    0.0844   -2.1827   -0.8978 H   0  0  0  0  0  0  0  0  0  0  0  0
    1.2422    1.2531   -1.8100 H   0  0  0  0  0  0  0  0  0  0  0  0
    4.2405    1.5465    1.2367 H   0  0  0  0  0  0  0  0  0  0  0  0
    3.5500   -0.6344    2.1481 H   0  0  0  0  0  0  0  0  0  0  0  0
    0.9750   -2.8257    0.9034 H   0  0  0  0  0  0  0  0  0  0  0  0
  1  2  1  0
  2  3  2  0
  3  4  1  0
  4  5  2  0
  5  6  1  0
  5  7  1  0
  7  8  2  0
  8  9  1  0
  9 10  1  0
 10 11  2  0
 11 12  1  0
 12 13  2  0
 13 14  1  0
 14 15  2  0
 15 16  1  0
 12 17  1  0
  8  2  1  0
 15 10  1  0
  1 18  1  0
  3 19  1  0
  4 20  1  0
  7 21  1  0
  9 22  1  0
  9 23  1  0
 11 24  1  0
 13 25  1  0
 14 26  1  0
 16 27  1  0
M  END
