
     RDKit          3D

 15 15  0  0  0  0  0  0  0  0999 V2000
    3.1386   -0.0611    0.2045 C   0  0  0  0  0  0  0  0  0  0  0  0
    1.7738    0.3349    0.2674 O   0  0  0  0  0  0  0  0  0  0  0  0
    0.7309   -0.4857   -0.1709 C   0  0  0  0  0  0  0  0  0  0  0  0
    0.9699   -1.6292   -0.6471 O   0  0  0  0  0  0  0  0  0  0  0  0
   -0.6511   -0.0052   -0.0728 C   0  0  0  0  0  0  0  0  0  0  0  0
   -1.7830   -0.6950   -0.4616 C   0  0  0  0  0  0  0  0  0  0  0  0
   -2.8410    0.1434   -0.1827 C   0  0  0  0  0  0  0  0  0  0  0  0
   -2.2908    1.2887    0.3570 C   0  0  0  0  0  0  0  0  0  0  0  0
   -0.9839    1.1697    0.4095 O   0  0  0  0  0  0  0  0  0  0  0  0
    3.2974   -0.9763    0.8134 H   0  0  0  0  0  0  0  0  0  0  0  0
    3.4297   -0.2562   -0.8494 H   0  0  0  0  0  0  0  0  0  0  0  0
    3.7737    0.7539    0.6080 H   0  0  0  0  0  0  0  0  0  0  0  0
   -1.8345   -1.6854   -0.8946 H   0  0  0  0  0  0  0  0  0  0  0  0
   -3.8905   -0.0560   -0.3526 H   0  0  0  0  0  0  0  0  0  0  0  0
   -2.8390    2.1596    0.6906 H   0  0  0  0  0  0  0  0  0  0  0  0
  1  2  1  0
  2  3  1  0
  3  4  2  0
  3  5  1  0
  5  6  2  0
  6  7  1  0
  7  8  2  0
  8  9  1  0
  9  5  1  0
  1 10  1  0
  1 11  1  0
  1 12  1  0
  6 13  1  0
  7 14  1  0
  8 15  1  0
M  END
