
     RDKit          3D

 14 14  0  0  0  0  0  0  0  0999 V2000
   -2.7690    0.5173    0.1206 O   0  0  0  0  0  0  0  0  0  0  0  0
   -1.3952    0.2918    0.0717 C   0  0  0  0  0  0  0  0  0  0  0  0
   -0.5140    1.3106    0.4497 C   0  0  0  0  0  0  0  0  0  0  0  0
    0.8695    1.0994    0.4061 C   0  0  0  0  0  0  0  0  0  0  0  0
    1.3768   -0.1381   -0.0180 C   0  0  0  0  0  0  0  0  0  0  0  0
    2.7540   -0.3488   -0.0616 O   0  0  0  0  0  0  0  0  0  0  0  0
    0.4921   -1.1584   -0.3967 C   0  0  0  0  0  0  0  0  0  0  0  0
   -0.8887   -0.9444   -0.3520 C   0  0  0  0  0  0  0  0  0  0  0  0
    1.9568    2.3932    0.8855 Cl  0  0  0  0  0  0  0  0  0  0  0  0
   -3.4331   -0.2000   -0.1466 H   0  0  0  0  0  0  0  0  0  0  0  0
   -0.9055    2.2657    0.7771 H   0  0  0  0  0  0  0  0  0  0  0  0
    3.1457   -1.2331   -0.3641 H   0  0  0  0  0  0  0  0  0  0  0  0
    0.8737   -2.1167   -0.7254 H   0  0  0  0  0  0  0  0  0  0  0  0
   -1.5631   -1.7385   -0.6464 H   0  0  0  0  0  0  0  0  0  0  0  0
  1  2  1  0
  2  3  2  0
  3  4  1  0
  4  5  2  0
  5  6  1  0
  5  7  1  0
  7  8  2  0
  4  9  1  0
  8  2  1  0
  1 10  1  0
  3 11  1  0
  6 12  1  0
  7 13  1  0
  8 14  1  0
M  END
