
     RDKit          3D

 15 14  0  0  0  0  0  0  0  0999 V2000
    1.5556   -0.9937    0.3124 N   0  0  0  0  0  0  0  0  0  0  0  0
    1.0481    0.3175   -0.0829 C   0  0  0  0  0  0  0  0  0  0  0  0
   -0.3348    0.1931   -0.7519 C   0  0  0  0  0  0  0  0  0  0  0  0
   -0.7625    1.4405   -1.2395 O   0  0  0  0  0  0  0  0  0  0  0  0
   -1.4003   -0.4197    0.1771 C   0  0  0  0  0  0  0  0  0  0  0  0
   -1.6088    0.3796    1.3118 O   0  0  0  0  0  0  0  0  0  0  0  0
    2.4601   -0.8464    0.8158 H   0  0  0  0  0  0  0  0  0  0  0  0
    1.7828   -1.5319   -0.5554 H   0  0  0  0  0  0  0  0  0  0  0  0
    1.7590    0.7914   -0.7965 H   0  0  0  0  0  0  0  0  0  0  0  0
    0.9813    0.9731    0.8127 H   0  0  0  0  0  0  0  0  0  0  0  0
   -0.2282   -0.4837   -1.6277 H   0  0  0  0  0  0  0  0  0  0  0  0
   -0.8064    2.0671   -0.4706 H   0  0  0  0  0  0  0  0  0  0  0  0
   -1.1127   -1.4568    0.4671 H   0  0  0  0  0  0  0  0  0  0  0  0
   -2.3585   -0.4940   -0.3797 H   0  0  0  0  0  0  0  0  0  0  0  0
   -0.9748    0.0639    2.0073 H   0  0  0  0  0  0  0  0  0  0  0  0
  1  2  1  0
  2  3  1  0
  3  4  1  0
  3  5  1  0
  5  6  1  0
  1  7  1  0
  1  8  1  0
  2  9  1  0
  2 10  1  0
  3 11  1  0
  4 12  1  0
  5 13  1  0
  5 14  1  0
  6 15  1  0
M  END
