
     RDKit          3D

 15 15  0  0  0  0  0  0  0  0999 V2000
    2.7460   -1.6948    1.0310 Br  0  0  0  0  0  0  0  0  0  0  0  0
    2.1858   -0.0955    0.0877 C   0  0  0  0  0  0  0  0  0  0  0  0
    2.9252   -0.1059   -1.7052 Br  0  0  0  0  0  0  0  0  0  0  0  0
    0.6825   -0.0027    0.0431 C   0  0  0  0  0  0  0  0  0  0  0  0
    0.0217    1.0888    0.6337 C   0  0  0  0  0  0  0  0  0  0  0  0
   -1.3735    1.1759    0.5929 C   0  0  0  0  0  0  0  0  0  0  0  0
   -2.1202    0.1765   -0.0363 C   0  0  0  0  0  0  0  0  0  0  0  0
   -1.4733   -0.9122   -0.6262 C   0  0  0  0  0  0  0  0  0  0  0  0
   -0.0786   -1.0037   -0.5880 C   0  0  0  0  0  0  0  0  0  0  0  0
    2.6207    0.7758    0.6222 H   0  0  0  0  0  0  0  0  0  0  0  0
    0.5839    1.8728    1.1257 H   0  0  0  0  0  0  0  0  0  0  0  0
   -1.8759    2.0188    1.0494 H   0  0  0  0  0  0  0  0  0  0  0  0
   -3.1999    0.2459   -0.0668 H   0  0  0  0  0  0  0  0  0  0  0  0
   -2.0526   -1.6858   -1.1134 H   0  0  0  0  0  0  0  0  0  0  0  0
    0.4081   -1.8538   -1.0498 H   0  0  0  0  0  0  0  0  0  0  0  0
  1  2  1  0
  2  3  1  0
  2  4  1  0
  4  5  2  0
  5  6  1  0
  6  7  2  0
  7  8  1  0
  8  9  2  0
  9  4  1  0
  2 10  1  0
  5 11  1  0
  6 12  1  0
  7 13  1  0
  8 14  1  0
  9 15  1  0
M  END
