
     RDKit          3D

 15 15  0  0  0  0  0  0  0  0999 V2000
   -2.9740    0.3419   -0.3224 O   0  0  0  0  0  0  0  0  0  0  0  0
   -1.5940    0.1877   -0.1737 C   0  0  0  0  0  0  0  0  0  0  0  0
   -0.7624    1.3054   -0.3328 C   0  0  0  0  0  0  0  0  0  0  0  0
   -1.4474    2.8782   -0.7140 Cl  0  0  0  0  0  0  0  0  0  0  0  0
    0.6233    1.1801   -0.1896 C   0  0  0  0  0  0  0  0  0  0  0  0
    1.2011   -0.0633    0.1149 C   0  0  0  0  0  0  0  0  0  0  0  0
    0.3640   -1.1819    0.2737 C   0  0  0  0  0  0  0  0  0  0  0  0
   -1.0233   -1.0629    0.1316 C   0  0  0  0  0  0  0  0  0  0  0  0
   -2.0149   -2.5003    0.3427 Cl  0  0  0  0  0  0  0  0  0  0  0  0
    2.6280   -0.1866    0.2612 N   0  0  0  0  0  4  0  0  0  0  0  0
    3.4446    0.9101    0.1051 O   0  0  0  0  0  1  0  0  0  0  0  0
    3.1479   -1.2892    0.5318 O   0  0  0  0  0  0  0  0  0  0  0  0
   -3.6261   -0.4252   -0.2201 H   0  0  0  0  0  0  0  0  0  0  0  0
    1.2461    2.0563   -0.3168 H   0  0  0  0  0  0  0  0  0  0  0  0
    0.7870   -2.1505    0.5085 H   0  0  0  0  0  0  0  0  0  0  0  0
  1  2  1  0
  2  3  2  0
  3  4  1  0
  3  5  1  0
  5  6  2  0
  6  7  1  0
  7  8  2  0
  8  9  1  0
  6 10  1  0
 10 11  1  0
 10 12  2  0
  8  2  1  0
  1 13  1  0
  5 14  1  0
  7 15  1  0
M  CHG  2  10   1  11  -1
M  END
