
     RDKit          3D

 22 21  0  0  0  0  0  0  0  0999 V2000
    3.5656    0.9084   -0.3402 O   0  0  0  0  0  0  0  0  0  0  0  0
    2.9905   -0.3575   -0.1688 C   0  0  0  0  0  0  0  0  0  0  0  0
    1.5424   -0.3503   -0.6618 C   0  0  0  0  0  0  0  0  0  0  0  0
    0.6515    0.5530    0.2069 C   0  0  0  0  0  0  0  0  0  0  0  0
   -0.7830    0.6660   -0.3336 C   0  0  0  0  0  0  0  0  0  0  0  0
   -1.5989   -0.6191   -0.1184 C   0  0  0  0  0  0  0  0  0  0  0  0
   -3.0425   -0.4674   -0.6069 C   0  0  0  0  0  0  0  0  0  0  0  0
   -3.7487    0.4345    0.2034 O   0  0  0  0  0  0  0  0  0  0  0  0
    4.4939    0.8373    0.0033 H   0  0  0  0  0  0  0  0  0  0  0  0
    3.0223   -0.6505    0.9049 H   0  0  0  0  0  0  0  0  0  0  0  0
    3.5652   -1.1076   -0.7567 H   0  0  0  0  0  0  0  0  0  0  0  0
    1.1634   -1.3933   -0.6296 H   0  0  0  0  0  0  0  0  0  0  0  0
    1.5197   -0.0038   -1.7182 H   0  0  0  0  0  0  0  0  0  0  0  0
    1.0877    1.5755    0.2291 H   0  0  0  0  0  0  0  0  0  0  0  0
    0.6318    0.1740    1.2523 H   0  0  0  0  0  0  0  0  0  0  0  0
   -1.2805    1.5031    0.2022 H   0  0  0  0  0  0  0  0  0  0  0  0
   -0.7594    0.9249   -1.4149 H   0  0  0  0  0  0  0  0  0  0  0  0
   -1.1346   -1.4556   -0.6815 H   0  0  0  0  0  0  0  0  0  0  0  0
   -1.6052   -0.8880    0.9606 H   0  0  0  0  0  0  0  0  0  0  0  0
   -3.0616   -0.1539   -1.6769 H   0  0  0  0  0  0  0  0  0  0  0  0
   -3.5434   -1.4566   -0.5437 H   0  0  0  0  0  0  0  0  0  0  0  0
   -3.6763    1.3267   -0.2255 H   0  0  0  0  0  0  0  0  0  0  0  0
  1  2  1  0
  2  3  1  0
  3  4  1  0
  4  5  1  0
  5  6  1  0
  6  7  1  0
  7  8  1  0
  1  9  1  0
  2 10  1  0
  2 11  1  0
  3 12  1  0
  3 13  1  0
  4 14  1  0
  4 15  1  0
  5 16  1  0
  5 17  1  0
  6 18  1  0
  6 19  1  0
  7 20  1  0
  7 21  1  0
  8 22  1  0
M  END
