
     RDKit          3D

 14 14  0  0  0  0  0  0  0  0999 V2000
    2.3896   -0.1910   -0.2055 N   0  0  0  0  0  0  0  0  0  0  0  0
    0.9650   -0.0810   -0.0844 C   0  0  0  0  0  0  0  0  0  0  0  0
    0.1657   -1.1743   -0.4414 C   0  0  0  0  0  0  0  0  0  0  0  0
   -1.2250   -1.1069   -0.3379 C   0  0  0  0  0  0  0  0  0  0  0  0
   -1.8387    0.0664    0.1285 C   0  0  0  0  0  0  0  0  0  0  0  0
   -3.5966    0.1483    0.2582 Cl  0  0  0  0  0  0  0  0  0  0  0  0
   -1.0476    1.1726    0.4908 C   0  0  0  0  0  0  0  0  0  0  0  0
    0.3557    1.1014    0.3851 C   0  0  0  0  0  0  0  0  0  0  0  0
    1.3386    2.4952    0.8423 Cl  0  0  0  0  0  0  0  0  0  0  0  0
   -1.8167    2.6494    1.0777 Cl  0  0  0  0  0  0  0  0  0  0  0  0
   -2.1747   -2.5137   -0.8018 Cl  0  0  0  0  0  0  0  0  0  0  0  0
    2.8249   -1.0738   -0.5550 H   0  0  0  0  0  0  0  0  0  0  0  0
    3.0312    0.5919    0.0462 H   0  0  0  0  0  0  0  0  0  0  0  0
    0.6284   -2.0846   -0.8026 H   0  0  0  0  0  0  0  0  0  0  0  0
  1  2  1  0
  2  3  2  0
  3  4  1  0
  4  5  2  0
  5  6  1  0
  5  7  1  0
  7  8  2  0
  8  9  1  0
  7 10  1  0
  4 11  1  0
  8  2  1  0
  1 12  1  0
  1 13  1  0
  3 14  1  0
M  END
