
     RDKit          3D

 13 13  0  0  0  0  0  0  0  0999 V2000
    2.8663    1.6122    0.4174 O   0  0  0  0  0  1  0  0  0  0  0  0
    2.4634    0.3268    0.1419 N   0  0  0  0  0  4  0  0  0  0  0  0
    3.3207   -0.5666   -0.0149 O   0  0  0  0  0  0  0  0  0  0  0  0
    1.0704    0.0243    0.0376 C   0  0  0  0  0  0  0  0  0  0  0  0
    0.5335   -1.2203   -0.2337 C   0  0  0  0  0  0  0  0  0  0  0  0
   -0.8337   -1.0353   -0.2374 C   0  0  0  0  0  0  0  0  0  0  0  0
   -1.0333    0.3060    0.0312 C   0  0  0  0  0  0  0  0  0  0  0  0
    0.1193    0.9155    0.1911 O   0  0  0  0  0  0  0  0  0  0  0  0
   -2.3349    0.9687    0.1273 C   0  0  0  0  0  0  0  0  0  0  0  0
   -2.4026    2.2004    0.3775 O   0  0  0  0  0  0  0  0  0  0  0  0
    1.0671   -2.1455   -0.4069 H   0  0  0  0  0  0  0  0  0  0  0  0
   -1.5909   -1.7878   -0.4146 H   0  0  0  0  0  0  0  0  0  0  0  0
   -3.2453    0.4015   -0.0166 H   0  0  0  0  0  0  0  0  0  0  0  0
  1  2  1  0
  2  3  2  0
  2  4  1  0
  4  5  2  0
  5  6  1  0
  6  7  2  0
  7  8  1  0
  7  9  1  0
  9 10  2  0
  8  4  1  0
  5 11  1  0
  6 12  1  0
  9 13  1  0
M  CHG  2   1  -1   2   1
M  END
