
     RDKit          3D

 19 18  0  0  0  0  0  0  0  0999 V2000
   -2.5683    0.1187    0.1415 C   0  0  0  0  0  0  0  0  0  0  0  0
   -1.3203   -0.7637    0.1248 C   0  0  0  0  0  0  0  0  0  0  0  0
   -0.1442   -0.1233    0.8756 C   0  0  0  0  0  0  0  0  0  0  0  0
    0.3760    1.1039    0.1667 C   0  0  0  0  0  0  0  0  0  0  0  0
    1.2960    1.0846   -0.8152 C   0  0  0  0  0  0  0  0  0  0  0  0
    1.9842   -0.1588   -1.3058 C   0  0  0  0  0  0  0  0  0  0  0  0
    2.8608   -0.6336   -0.3227 O   0  0  0  0  0  0  0  0  0  0  0  0
   -3.4016   -0.4090   -0.3685 H   0  0  0  0  0  0  0  0  0  0  0  0
   -2.3782    1.0732   -0.3930 H   0  0  0  0  0  0  0  0  0  0  0  0
   -2.8742    0.3368    1.1867 H   0  0  0  0  0  0  0  0  0  0  0  0
   -1.0379   -0.9788   -0.9274 H   0  0  0  0  0  0  0  0  0  0  0  0
   -1.5672   -1.7316    0.6122 H   0  0  0  0  0  0  0  0  0  0  0  0
    0.6638   -0.8721    1.0091 H   0  0  0  0  0  0  0  0  0  0  0  0
   -0.4759    0.1675    1.8958 H   0  0  0  0  0  0  0  0  0  0  0  0
   -0.0435    2.0637    0.4548 H   0  0  0  0  0  0  0  0  0  0  0  0
    1.5643    2.0275   -1.2833 H   0  0  0  0  0  0  0  0  0  0  0  0
    1.2361   -0.9371   -1.5692 H   0  0  0  0  0  0  0  0  0  0  0  0
    2.5622    0.0917   -2.2226 H   0  0  0  0  0  0  0  0  0  0  0  0
    3.2677   -1.4596   -0.6930 H   0  0  0  0  0  0  0  0  0  0  0  0
  1  2  1  0
  2  3  1  0
  3  4  1  0
  4  5  2  0
  5  6  1  0
  6  7  1  0
  1  8  1  0
  1  9  1  0
  1 10  1  0
  2 11  1  0
  2 12  1  0
  3 13  1  0
  3 14  1  0
  4 15  1  0
  5 16  1  0
  6 17  1  0
  6 18  1  0
  7 19  1  0
M  END
