
     RDKit          3D

 20 19  0  0  0  0  0  0  0  0999 V2000
   -2.2788    1.4330    0.2060 C   0  0  0  0  0  0  0  0  0  0  0  0
   -1.7868    0.2081   -0.5644 C   0  0  0  0  0  0  0  0  0  0  0  0
   -1.4739   -0.9889    0.3528 C   0  0  0  0  0  0  0  0  0  0  0  0
   -0.2529   -0.7792    1.2618 C   0  0  0  0  0  0  0  0  0  0  0  0
    0.9834   -0.6340    0.4829 C   0  0  0  0  0  0  0  0  0  0  0  0
    1.9971   -0.5132   -0.1584 C   0  0  0  0  0  0  0  0  0  0  0  0
    3.2282   -0.3656   -0.9405 C   0  0  0  0  0  0  0  0  0  0  0  0
    4.0531    0.6057   -0.3577 O   0  0  0  0  0  0  0  0  0  0  0  0
   -3.1371    1.1644    0.8577 H   0  0  0  0  0  0  0  0  0  0  0  0
   -2.6116    2.2111   -0.5127 H   0  0  0  0  0  0  0  0  0  0  0  0
   -1.4637    1.8624    0.8242 H   0  0  0  0  0  0  0  0  0  0  0  0
   -2.5850   -0.0984   -1.2748 H   0  0  0  0  0  0  0  0  0  0  0  0
   -0.8946    0.4817   -1.1675 H   0  0  0  0  0  0  0  0  0  0  0  0
   -1.3010   -1.8871   -0.2806 H   0  0  0  0  0  0  0  0  0  0  0  0
   -2.3610   -1.2066    0.9867 H   0  0  0  0  0  0  0  0  0  0  0  0
   -0.3887    0.1106    1.9101 H   0  0  0  0  0  0  0  0  0  0  0  0
   -0.1433   -1.6641    1.9244 H   0  0  0  0  0  0  0  0  0  0  0  0
    3.7649   -1.3368   -0.9496 H   0  0  0  0  0  0  0  0  0  0  0  0
    2.9756   -0.0926   -1.9898 H   0  0  0  0  0  0  0  0  0  0  0  0
    3.6760    1.4896   -0.6108 H   0  0  0  0  0  0  0  0  0  0  0  0
  1  2  1  0
  2  3  1  0
  3  4  1  0
  4  5  1  0
  5  6  3  0
  6  7  1  0
  7  8  1  0
  1  9  1  0
  1 10  1  0
  1 11  1  0
  2 12  1  0
  2 13  1  0
  3 14  1  0
  3 15  1  0
  4 16  1  0
  4 17  1  0
  7 18  1  0
  7 19  1  0
  8 20  1  0
M  END
