
     RDKit          3D

 13 13  0  0  0  0  0  0  0  0999 V2000
   -2.4260   -0.1075    0.1792 N   0  0  0  0  0  0  0  0  0  0  0  0
   -0.9998   -0.1197    0.1148 C   0  0  0  0  0  0  0  0  0  0  0  0
   -0.3078   -1.1643    0.6473 N   0  0  0  0  0  0  0  0  0  0  0  0
    1.0507   -1.2183    0.6089 C   0  0  0  0  0  0  0  0  0  0  0  0
    1.7757   -0.1835    0.0111 C   0  0  0  0  0  0  0  0  0  0  0  0
    3.6834   -0.2492   -0.0483 Br  0  0  0  0  0  0  0  0  0  0  0  0
    1.0883    0.8994   -0.5424 C   0  0  0  0  0  0  0  0  0  0  0  0
   -0.3069    0.9357   -0.4926 C   0  0  0  0  0  0  0  0  0  0  0  0
   -2.9385   -0.8961    0.6328 H   0  0  0  0  0  0  0  0  0  0  0  0
   -2.9752    0.6845   -0.2233 H   0  0  0  0  0  0  0  0  0  0  0  0
    1.5652   -2.0652    1.0430 H   0  0  0  0  0  0  0  0  0  0  0  0
    1.6324    1.7101   -1.0096 H   0  0  0  0  0  0  0  0  0  0  0  0
   -0.8414    1.7742   -0.9211 H   0  0  0  0  0  0  0  0  0  0  0  0
  1  2  1  0
  2  3  2  0
  3  4  1  0
  4  5  2  0
  5  6  1  0
  5  7  1  0
  7  8  2  0
  8  2  1  0
  1  9  1  0
  1 10  1  0
  4 11  1  0
  7 12  1  0
  8 13  1  0
M  END
