
     RDKit          3D

 25 26  0  0  0  0  0  0  0  0999 V2000
   -2.9608   -1.0206    1.4236 O   0  0  0  0  0  0  0  0  0  0  0  0
   -3.3996    0.0701    0.6588 C   0  0  0  0  0  0  0  0  0  0  0  0
   -2.6531    0.1375   -0.6770 C   0  0  0  0  0  0  0  0  0  0  0  0
   -1.1757    0.3468   -0.4681 C   0  0  0  0  0  0  0  0  0  0  0  0
   -0.3069   -0.7544   -0.4005 C   0  0  0  0  0  0  0  0  0  0  0  0
    1.0650   -0.5629   -0.1765 C   0  0  0  0  0  0  0  0  0  0  0  0
    1.9397   -1.6590   -0.1132 C   0  0  0  0  0  0  0  0  0  0  0  0
    3.3044   -1.4557    0.1111 C   0  0  0  0  0  0  0  0  0  0  0  0
    3.8054   -0.1614    0.2742 C   0  0  0  0  0  0  0  0  0  0  0  0
    2.9452    0.9388    0.2147 C   0  0  0  0  0  0  0  0  0  0  0  0
    1.5728    0.7485   -0.0101 C   0  0  0  0  0  0  0  0  0  0  0  0
    0.6988    1.8434   -0.0679 C   0  0  0  0  0  0  0  0  0  0  0  0
   -0.6658    1.6426   -0.2909 C   0  0  0  0  0  0  0  0  0  0  0  0
   -3.3470   -1.8341    1.0055 H   0  0  0  0  0  0  0  0  0  0  0  0
   -3.2252    1.0054    1.2326 H   0  0  0  0  0  0  0  0  0  0  0  0
   -4.4943   -0.0091    0.4711 H   0  0  0  0  0  0  0  0  0  0  0  0
   -3.0673    0.9743   -1.2808 H   0  0  0  0  0  0  0  0  0  0  0  0
   -2.8345   -0.7966   -1.2524 H   0  0  0  0  0  0  0  0  0  0  0  0
   -0.7015   -1.7571   -0.5205 H   0  0  0  0  0  0  0  0  0  0  0  0
    1.5693   -2.6697   -0.2373 H   0  0  0  0  0  0  0  0  0  0  0  0
    3.9755   -2.3036    0.1587 H   0  0  0  0  0  0  0  0  0  0  0  0
    4.8631   -0.0104    0.4477 H   0  0  0  0  0  0  0  0  0  0  0  0
    3.3509    1.9351    0.3445 H   0  0  0  0  0  0  0  0  0  0  0  0
    1.0698    2.8530    0.0625 H   0  0  0  0  0  0  0  0  0  0  0  0
   -1.3280    2.4991   -0.3243 H   0  0  0  0  0  0  0  0  0  0  0  0
  1  2  1  0
  2  3  1  0
  3  4  1  0
  4  5  2  0
  5  6  1  0
  6  7  2  0
  7  8  1  0
  8  9  2  0
  9 10  1  0
 10 11  2  0
 11 12  1  0
 12 13  2  0
 13  4  1  0
 11  6  1  0
  1 14  1  0
  2 15  1  0
  2 16  1  0
  3 17  1  0
  3 18  1  0
  5 19  1  0
  7 20  1  0
  8 21  1  0
  9 22  1  0
 10 23  1  0
 12 24  1  0
 13 25  1  0
M  END
